=
 OpenBabel11062413393D

 42 43  0  0  1  0  0  0  0  0999 V2000
  189.3640  177.5260  142.5190 C   0  0  0  0  0  3  0  0  0  0  0  0
  192.3180  178.8040  144.3910 N   0  0  0  0  0  1  0  0  0  0  0  0
  191.3290  177.4330  141.1320 C   0  0  0  0  0  0  0  0  0  0  0  0
  192.0620  177.9440  142.1590 N   0  0  0  0  0  0  0  0  0  0  0  0
  191.5010  178.2570  143.3580 C   0  0  0  0  0  0  0  0  0  0  0  0
  189.9530  177.2110  141.2910 C   0  0  0  0  0  0  0  0  0  0  0  0
  190.1300  178.0510  143.5630 C   0  0  0  0  0  0  0  0  0  0  0  0
  191.9680  177.1460  139.8920 N   0  0  0  0  0  1  0  0  0  0  0  0
  188.7230  177.5030  139.0480 C   0  0  0  0  0  0  0  0  0  0  0  0
  188.8490  178.7880  139.0140 N   0  0  0  0  0  2  0  0  0  0  0  0
  189.1750  176.7420  140.1800 N   0  0  0  0  0  2  0  0  0  0  0  0
  188.2510  176.7910  137.8240 C   0  0  2  0  0  3  0  0  0  0  0  0
  189.3570  176.2380  137.1150 O   0  0  0  0  0  0  0  0  0  0  0  0
  189.7280  174.8960  137.2320 C   0  0  0  0  0  0  0  0  0  0  0  0
  189.0040  173.9250  136.5570 O   0  0  0  0  0  0  0  0  0  0  0  0
  190.7110  174.5580  137.9450 O   0  0  0  0  0  1  0  0  0  0  0  0
  187.4430  177.7330  136.9310 C   0  0  0  0  0  2  0  0  0  0  0  0
  185.4430  178.8710  138.6130 O   0  0  0  0  0  0  0  0  0  0  0  0
  185.0870  177.9740  137.8040 C   0  0  0  0  0  0  0  0  0  0  0  0
  186.0360  177.3610  136.9330 N   0  0  0  0  0  2  0  0  0  0  0  0
  183.6650  177.5270  137.7740 C   0  0  0  0  0  2  0  0  0  0  0  0
  183.0700  175.3130  136.8410 C   0  0  0  0  0  1  0  0  0  0  0  0
  183.5640  176.0400  138.0730 C   0  0  2  0  0  3  0  0  0  0  0  0
  182.6380  175.8160  139.1690 N   0  0  0  0  0  1  0  0  0  0  0  0
  189.4680  178.4430  144.8450 C   0  0  0  0  0  2  0  0  0  0  0  0
  188.5830  177.3100  145.3450 C   0  0  2  0  0  3  0  0  0  0  0  0
  187.1780  177.7770  145.5580 C   0  0  0  0  0  0  0  0  0  0  0  0
  184.9670  178.3360  144.7110 C   0  0  0  0  0  0  0  0  0  0  0  0
  186.2760  177.8930  144.4890 C   0  0  0  0  0  3  0  0  0  0  0  0
  184.5620  178.6610  146.0160 C   0  0  0  0  0  3  0  0  0  0  0  0
  186.7640  178.1080  146.8520 C   0  0  0  0  0  3  0  0  0  0  0  0
  185.4590  178.5480  147.0810 C   0  0  0  0  0  3  0  0  0  0  0  0
  184.0940  178.4440  143.6230 O   0  0  0  0  0  0  0  0  0  0  0  0
  184.4890  178.1980  142.2760 C   0  0  0  0  0  2  0  0  0  0  0  0
  183.3830  178.5900  141.3100 C   0  0  0  0  0  2  0  0  0  0  0  0
  181.1250  179.3270  141.2050 O   0  0  0  0  0  1  0  0  0  0  0  0
  182.0730  178.7540  142.0530 C   0  0  0  0  0  2  0  0  0  0  0  0
  189.1730  176.6930  146.6100 C   0  0  0  0  0  2  0  0  0  0  0  0
  190.4440  177.4110  147.0430 C   0  0  0  0  0  2  0  0  0  0  0  0
  191.9000  175.8680  145.9450 O   0  0  0  0  0  0  0  0  0  0  0  0
  192.3970  176.3140  148.1390 O   0  0  0  0  0  1  0  0  0  0  0  0
  191.6190  176.4920  147.0020 C   0  0  0  0  0  0  0  0  0  0  0  0
  1  7  1  0  0  0  0
  3  6  1  0  0  0  0
  3  4  2  0  0  0  0
  4  5  1  0  0  0  0
  5  7  2  0  0  0  0
  5  2  1  0  0  0  0
  6  1  2  0  0  0  0
  7 25  1  0  0  0  0
  8  3  1  0  0  0  0
  9 11  1  0  0  0  0
 10  9  2  0  0  0  0
 11  6  1  0  0  0  0
 12 17  1  6  0  0  0
 12  9  1  0  0  0  0
 13 14  1  0  0  0  0
 13 12  1  0  0  0  0
 14 16  1  0  0  0  0
 15 14  2  0  0  0  0
 17 20  1  0  0  0  0
 19 18  2  0  0  0  0
 20 19  1  0  0  0  0
 21 19  1  0  0  0  0
 21 23  1  0  0  0  0
 23 22  1  6  0  0  0
 23 24  1  0  0  0  0
 26 25  1  1  0  0  0
 26 27  1  0  0  0  0
 26 38  1  0  0  0  0
 27 31  1  0  0  0  0
 28 30  2  0  0  0  0
 29 28  1  0  0  0  0
 29 27  2  0  0  0  0
 30 32  1  0  0  0  0
 31 32  2  0  0  0  0
 33 28  1  0  0  0  0
 34 33  1  0  0  0  0
 35 37  1  0  0  0  0
 35 34  1  0  0  0  0
 36 37  1  0  0  0  0
 38 39  1  0  0  0  0
 40 42  2  0  0  0  0
 42 39  1  0  0  0  0
 42 41  1  0  0  0  0
M  END
>  <MODEL>
1

>  <REMARK>
 VINA RESULT:      -7.7      0.000      0.000
  Name = 
  18 active torsions:
  status: ('A' for Active; 'I' for Inactive)
    1  A    between atoms: C_1  and  C_2
    2  A    between atoms: C_2  and  C_16
    3  A    between atoms: C_2  and  C_37
    4  A    between atoms: C_4  and  C_5
    5  A    between atoms: C_4  and  O_10
    6  A    between atoms: C_4  and  C_13
    7  A    between atoms: C_5  and  N_25
    8  A    between atoms: C_9  and  C_12
    9  A    between atoms: O_10  and  C_30
   10  A    between atoms: C_12  and  C_21
   11  A    between atoms: C_16  and  C_36
   12  A    between atoms: C_17  and  O_22
   13  A    between atoms: C_19  and  C_20
   14  A    between atoms: C_19  and  C_29
   15  A    between atoms: C_20  and  O_22
   16  A    between atoms: N_28  and  C_31
   17  A    between atoms: C_32  and  C_37
   18  A    between atoms: C_36  and  C_40
                            x       y       z     vdW  Elec       q    Type
                         _______ _______ _______ _____ _____    ______ ____

>  <TORSDO>
F 18

$$$$
=
 OpenBabel11062413393D

 42 43  0  0  1  0  0  0  0  0999 V2000
  186.0110  177.8450  143.6220 C   0  0  0  0  0  3  0  0  0  0  0  0
  186.9520  178.0800  147.2170 N   0  0  0  0  0  1  0  0  0  0  0  0
  184.2130  178.8240  144.8890 C   0  0  0  0  0  0  0  0  0  0  0  0
  184.9650  178.7130  146.0170 N   0  0  0  0  0  0  0  0  0  0  0  0
  186.2180  178.1840  145.9990 C   0  0  0  0  0  0  0  0  0  0  0  0
  184.7240  178.3890  143.6570 C   0  0  0  0  0  0  0  0  0  0  0  0
  186.7700  177.7370  144.7900 C   0  0  0  0  0  0  0  0  0  0  0  0
  182.8990  179.3660  144.9740 N   0  0  0  0  0  1  0  0  0  0  0  0
  184.2640  178.9000  141.1750 C   0  0  0  0  0  0  0  0  0  0  0  0
  185.3930  179.4910  140.9670 N   0  0  0  0  0  2  0  0  0  0  0  0
  183.8960  178.4410  142.4860 N   0  0  0  0  0  2  0  0  0  0  0  0
  183.4090  178.5450  140.0040 C   0  0  2  0  0  3  0  0  0  0  0  0
  182.8730  177.2330  140.1600 O   0  0  0  0  0  0  0  0  0  0  0  0
  181.5400  176.9280  139.8760 C   0  0  0  0  0  0  0  0  0  0  0  0
  180.6370  177.9570  139.6520 O   0  0  0  0  0  0  0  0  0  0  0  0
  181.1470  175.7320  139.8260 O   0  0  0  0  0  1  0  0  0  0  0  0
  184.2030  178.6620  138.7030 C   0  0  0  0  0  2  0  0  0  0  0  0
  183.2570  177.2890  136.3920 O   0  0  0  0  0  0  0  0  0  0  0  0
  184.1400  176.7220  137.0890 C   0  0  0  0  0  0  0  0  0  0  0  0
  184.6580  177.3530  138.2600 N   0  0  0  0  0  2  0  0  0  0  0  0
  184.6300  175.3680  136.7050 C   0  0  0  0  0  2  0  0  0  0  0  0
  184.9760  173.0900  137.6080 C   0  0  0  0  0  1  0  0  0  0  0  0
  184.0840  174.3120  137.6530 C   0  0  2  0  0  3  0  0  0  0  0  0
  182.7360  173.9390  137.2580 N   0  0  0  0  0  1  0  0  0  0  0  0
  188.1180  177.0920  144.7430 C   0  0  0  0  0  2  0  0  0  0  0  0
  189.1750  178.1160  144.3560 C   0  0  2  0  0  3  0  0  0  0  0  0
  189.7780  177.7930  143.0250 C   0  0  0  0  0  0  0  0  0  0  0  0
  189.5630  177.2890  140.6550 C   0  0  0  0  0  0  0  0  0  0  0  0
  188.9780  177.5950  141.8880 C   0  0  0  0  0  3  0  0  0  0  0  0
  190.9600  177.1850  140.5620 C   0  0  0  0  0  3  0  0  0  0  0  0
  191.1680  177.6820  142.9220 C   0  0  0  0  0  3  0  0  0  0  0  0
  191.7580  177.3790  141.6920 C   0  0  0  0  0  3  0  0  0  0  0  0
  188.7380  177.0950  139.5420 O   0  0  0  0  0  0  0  0  0  0  0  0
  188.1270  178.1670  138.8250 C   0  0  0  0  0  2  0  0  0  0  0  0
  189.0710  178.7110  137.7650 C   0  0  0  0  0  2  0  0  0  0  0  0
  189.9910  177.1320  136.2450 O   0  0  0  0  0  1  0  0  0  0  0  0
  188.8880  177.9570  136.4640 C   0  0  0  0  0  2  0  0  0  0  0  0
  190.2370  178.2230  145.4470 C   0  0  0  0  0  2  0  0  0  0  0  0
  190.1540  177.0590  146.4240 C   0  0  0  0  0  2  0  0  0  0  0  0
  192.0910  175.7690  145.8870 O   0  0  0  0  0  0  0  0  0  0  0  0
  192.1270  176.8110  147.9290 O   0  0  0  0  0  1  0  0  0  0  0  0
  191.5100  176.5110  146.7210 C   0  0  0  0  0  0  0  0  0  0  0  0
  1  6  2  0  0  0  0
  1  7  1  0  0  0  0
  3  8  1  0  0  0  0
  3  4  2  0  0  0  0
  5  4  1  0  0  0  0
  5  2  1  0  0  0  0
  6  3  1  0  0  0  0
  7  5  2  0  0  0  0
  9 11  1  0  0  0  0
 10  9  2  0  0  0  0
 11  6  1  0  0  0  0
 12 17  1  6  0  0  0
 12 13  1  0  0  0  0
 12  9  1  0  0  0  0
 14 13  1  0  0  0  0
 15 14  2  0  0  0  0
 16 14  1  0  0  0  0
 18 19  2  0  0  0  0
 19 20  1  0  0  0  0
 20 17  1  0  0  0  0
 21 19  1  0  0  0  0
 21 23  1  0  0  0  0
 23 22  1  6  0  0  0
 24 23  1  0  0  0  0
 25  7  1  0  0  0  0
 26 25  1  1  0  0  0
 26 38  1  0  0  0  0
 27 26  1  0  0  0  0
 28 29  1  0  0  0  0
 29 27  2  0  0  0  0
 30 28  2  0  0  0  0
 30 32  1  0  0  0  0
 31 27  1  0  0  0  0
 32 31  2  0  0  0  0
 33 28  1  0  0  0  0
 34 33  1  0  0  0  0
 35 34  1  0  0  0  0
 36 37  1  0  0  0  0
 37 35  1  0  0  0  0
 38 39  1  0  0  0  0
 39 42  1  0  0  0  0
 40 42  2  0  0  0  0
 42 41  1  0  0  0  0
M  END
>  <MODEL>
2

>  <REMARK>
 VINA RESULT:      -7.5      2.602      5.819
  Name = 
  18 active torsions:
  status: ('A' for Active; 'I' for Inactive)
    1  A    between atoms: C_1  and  C_2
    2  A    between atoms: C_2  and  C_16
    3  A    between atoms: C_2  and  C_37
    4  A    between atoms: C_4  and  C_5
    5  A    between atoms: C_4  and  O_10
    6  A    between atoms: C_4  and  C_13
    7  A    between atoms: C_5  and  N_25
    8  A    between atoms: C_9  and  C_12
    9  A    between atoms: O_10  and  C_30
   10  A    between atoms: C_12  and  C_21
   11  A    between atoms: C_16  and  C_36
   12  A    between atoms: C_17  and  O_22
   13  A    between atoms: C_19  and  C_20
   14  A    between atoms: C_19  and  C_29
   15  A    between atoms: C_20  and  O_22
   16  A    between atoms: N_28  and  C_31
   17  A    between atoms: C_32  and  C_37
   18  A    between atoms: C_36  and  C_40
                            x       y       z     vdW  Elec       q    Type
                         _______ _______ _______ _____ _____    ______ ____

>  <TORSDO>
F 18

$$$$
=
 OpenBabel11062413393D

 42 43  0  0  1  0  0  0  0  0999 V2000
  186.0420  177.8570  143.3610 C   0  0  0  0  0  3  0  0  0  0  0  0
  187.2740  177.9710  146.8730 N   0  0  0  0  0  1  0  0  0  0  0  0
  184.3400  178.7520  144.8090 C   0  0  0  0  0  0  0  0  0  0  0  0
  185.1840  178.6120  145.8670 N   0  0  0  0  0  0  0  0  0  0  0  0
  186.4400  178.1080  145.7240 C   0  0  0  0  0  0  0  0  0  0  0  0
  184.7530  178.3750  143.5230 C   0  0  0  0  0  0  0  0  0  0  0  0
  186.8960  177.7190  144.4570 C   0  0  0  0  0  0  0  0  0  0  0  0
  183.0280  179.2650  145.0240 N   0  0  0  0  0  1  0  0  0  0  0  0
  184.0930  178.9290  141.0960 C   0  0  0  0  0  0  0  0  0  0  0  0
  185.2100  179.5060  140.8020 N   0  0  0  0  0  2  0  0  0  0  0  0
  183.8300  178.4560  142.4270 N   0  0  0  0  0  2  0  0  0  0  0  0
  183.1370  178.6030  139.9970 C   0  0  2  0  0  3  0  0  0  0  0  0
  183.2940  177.2470  139.5870 O   0  0  0  0  0  0  0  0  0  0  0  0
  182.2150  176.3670  139.4740 C   0  0  0  0  0  0  0  0  0  0  0  0
  182.3500  175.2160  138.7110 O   0  0  0  0  0  0  0  0  0  0  0  0
  181.1220  176.6070  140.0520 O   0  0  0  0  0  1  0  0  0  0  0  0
  183.3270  179.5580  138.8180 C   0  0  0  0  0  2  0  0  0  0  0  0
  181.2740  180.2450  136.9640 O   0  0  0  0  0  0  0  0  0  0  0  0
  181.4280  180.9880  137.9690 C   0  0  0  0  0  0  0  0  0  0  0  0
  182.4370  180.7030  138.9370 N   0  0  0  0  0  2  0  0  0  0  0  0
  180.5680  182.1940  138.1370 C   0  0  0  0  0  2  0  0  0  0  0  0
  181.5100  184.2490  137.1290 C   0  0  0  0  0  1  0  0  0  0  0  0
  180.6070  183.0580  136.8870 C   0  0  2  0  0  3  0  0  0  0  0  0
  179.2700  183.5260  136.5640 N   0  0  0  0  0  1  0  0  0  0  0  0
  188.2460  177.1020  144.2730 C   0  0  0  0  0  2  0  0  0  0  0  0
  189.1970  178.1050  143.6380 C   0  0  2  0  0  3  0  0  0  0  0  0
  189.4000  177.8110  142.1840 C   0  0  0  0  0  0  0  0  0  0  0  0
  188.8280  178.1460  139.8440 C   0  0  0  0  0  0  0  0  0  0  0  0
  188.6240  178.4390  141.1970 C   0  0  0  0  0  3  0  0  0  0  0  0
  189.8180  177.2190  139.4820 C   0  0  0  0  0  3  0  0  0  0  0  0
  190.3800  176.8870  141.8120 C   0  0  0  0  0  3  0  0  0  0  0  0
  190.5900  176.5920  140.4630 C   0  0  0  0  0  3  0  0  0  0  0  0
  188.0360  178.7860  138.8840 O   0  0  0  0  0  0  0  0  0  0  0  0
  187.8320  178.2730  137.5690 C   0  0  0  0  0  2  0  0  0  0  0  0
  186.5970  177.3890  137.5230 C   0  0  0  0  0  2  0  0  0  0  0  0
  188.2140  175.9360  136.5610 O   0  0  0  0  0  1  0  0  0  0  0  0
  186.8440  176.1900  136.6290 C   0  0  0  0  0  2  0  0  0  0  0  0
  190.5210  178.1390  144.3980 C   0  0  0  0  0  2  0  0  0  0  0  0
  190.4610  177.2940  145.6620 C   0  0  0  0  0  2  0  0  0  0  0  0
  192.3300  176.3440  146.8060 O   0  0  0  0  0  1  0  0  0  0  0  0
  191.9840  175.5860  144.6700 O   0  0  0  0  0  0  0  0  0  0  0  0
  191.6390  176.3830  145.7550 C   0  0  0  0  0  0  0  0  0  0  0  0
  1  6  2  0  0  0  0
  1  7  1  0  0  0  0
  3  8  1  0  0  0  0
  3  4  2  0  0  0  0
  5  4  1  0  0  0  0
  5  2  1  0  0  0  0
  6  3  1  0  0  0  0
  7  5  2  0  0  0  0
  9 11  1  0  0  0  0
 10  9  2  0  0  0  0
 11  6  1  0  0  0  0
 12 17  1  6  0  0  0
 12  9  1  0  0  0  0
 13 12  1  0  0  0  0
 14 13  1  0  0  0  0
 14 16  1  0  0  0  0
 15 14  2  0  0  0  0
 17 20  1  0  0  0  0
 18 19  2  0  0  0  0
 19 21  1  0  0  0  0
 19 20  1  0  0  0  0
 23 22  1  1  0  0  0
 23 21  1  0  0  0  0
 24 23  1  0  0  0  0
 25  7  1  0  0  0  0
 26 25  1  1  0  0  0
 26 38  1  0  0  0  0
 27 26  1  0  0  0  0
 28 29  1  0  0  0  0
 29 27  2  0  0  0  0
 30 28  2  0  0  0  0
 30 32  1  0  0  0  0
 31 27  1  0  0  0  0
 32 31  2  0  0  0  0
 33 28  1  0  0  0  0
 34 33  1  0  0  0  0
 35 34  1  0  0  0  0
 36 37  1  0  0  0  0
 37 35  1  0  0  0  0
 38 39  1  0  0  0  0
 39 42  1  0  0  0  0
 41 42  2  0  0  0  0
 42 40  1  0  0  0  0
M  END
>  <MODEL>
3

>  <REMARK>
 VINA RESULT:      -7.4      3.488      6.190
  Name = 
  18 active torsions:
  status: ('A' for Active; 'I' for Inactive)
    1  A    between atoms: C_1  and  C_2
    2  A    between atoms: C_2  and  C_16
    3  A    between atoms: C_2  and  C_37
    4  A    between atoms: C_4  and  C_5
    5  A    between atoms: C_4  and  O_10
    6  A    between atoms: C_4  and  C_13
    7  A    between atoms: C_5  and  N_25
    8  A    between atoms: C_9  and  C_12
    9  A    between atoms: O_10  and  C_30
   10  A    between atoms: C_12  and  C_21
   11  A    between atoms: C_16  and  C_36
   12  A    between atoms: C_17  and  O_22
   13  A    between atoms: C_19  and  C_20
   14  A    between atoms: C_19  and  C_29
   15  A    between atoms: C_20  and  O_22
   16  A    between atoms: N_28  and  C_31
   17  A    between atoms: C_32  and  C_37
   18  A    between atoms: C_36  and  C_40
                            x       y       z     vdW  Elec       q    Type
                         _______ _______ _______ _____ _____    ______ ____

>  <TORSDO>
F 18

$$$$
=
 OpenBabel11062413393D

 42 43  0  0  1  0  0  0  0  0999 V2000
  185.8210  177.7120  143.6970 C   0  0  0  0  0  3  0  0  0  0  0  0
  186.0400  178.4250  147.3450 N   0  0  0  0  0  1  0  0  0  0  0  0
  183.8840  178.9460  144.4200 C   0  0  0  0  0  0  0  0  0  0  0  0
  184.3850  178.9670  145.6850 N   0  0  0  0  0  0  0  0  0  0  0  0
  185.5740  178.3840  145.9980 C   0  0  0  0  0  0  0  0  0  0  0  0
  184.5960  178.3130  143.3900 C   0  0  0  0  0  0  0  0  0  0  0  0
  186.3210  177.7410  145.0010 C   0  0  0  0  0  0  0  0  0  0  0  0
  182.6230  179.5540  144.1570 N   0  0  0  0  0  1  0  0  0  0  0  0
  184.5380  178.8070  140.8630 C   0  0  0  0  0  0  0  0  0  0  0  0
  185.5310  179.6320  140.8830 N   0  0  0  0  0  2  0  0  0  0  0  0
  184.0250  178.2320  142.0760 N   0  0  0  0  0  2  0  0  0  0  0  0
  184.0280  178.3220  139.5470 C   0  0  2  0  0  3  0  0  0  0  0  0
  183.5210  179.4100  138.7790 O   0  0  0  0  0  0  0  0  0  0  0  0
  182.1600  179.5680  138.5070 C   0  0  0  0  0  0  0  0  0  0  0  0
  181.6320  179.0460  137.3350 O   0  0  0  0  0  0  0  0  0  0  0  0
  181.4070  180.1810  139.3110 O   0  0  0  0  0  1  0  0  0  0  0  0
  182.9600  177.2470  139.7470 C   0  0  0  0  0  2  0  0  0  0  0  0
  181.1810  175.8620  138.0020 O   0  0  0  0  0  0  0  0  0  0  0  0
  182.3480  175.4050  138.1320 C   0  0  0  0  0  0  0  0  0  0  0  0
  183.2900  176.0480  138.9900 N   0  0  0  0  0  2  0  0  0  0  0  0
  182.7420  174.1650  137.4060 C   0  0  0  0  0  2  0  0  0  0  0  0
  184.7940  174.4210  136.0460 C   0  0  0  0  0  1  0  0  0  0  0  0
  184.2540  174.0060  137.3980 C   0  0  2  0  0  3  0  0  0  0  0  0
  184.6090  172.6210  137.6540 N   0  0  0  0  0  1  0  0  0  0  0  0
  187.6000  177.0340  145.3220 C   0  0  0  0  0  2  0  0  0  0  0  0
  188.7280  178.0420  145.4790 C   0  0  2  0  0  3  0  0  0  0  0  0
  189.7140  177.9290  144.3590 C   0  0  0  0  0  0  0  0  0  0  0  0
  190.3790  177.0550  142.1880 C   0  0  0  0  0  0  0  0  0  0  0  0
  189.4420  177.1510  143.2220 C   0  0  0  0  0  3  0  0  0  0  0  0
  191.5960  177.7480  142.2960 C   0  0  0  0  0  3  0  0  0  0  0  0
  190.9300  178.6110  144.4560 C   0  0  0  0  0  3  0  0  0  0  0  0
  191.8690  178.5210  143.4260 C   0  0  0  0  0  3  0  0  0  0  0  0
  190.0790  176.2680  141.0710 O   0  0  0  0  0  0  0  0  0  0  0  0
  190.4610  176.6190  139.7420 C   0  0  0  0  0  2  0  0  0  0  0  0
  189.5340  177.6850  139.1800 C   0  0  0  0  0  2  0  0  0  0  0  0
  189.2040  178.9470  137.1930 O   0  0  0  0  0  1  0  0  0  0  0  0
  189.6100  177.6990  137.6670 C   0  0  0  0  0  2  0  0  0  0  0  0
  189.3990  177.8820  146.8410 C   0  0  0  0  0  2  0  0  0  0  0  0
  189.9120  176.4640  147.0470 C   0  0  0  0  0  2  0  0  0  0  0  0
  191.9070  177.1820  148.1480 O   0  0  0  0  0  1  0  0  0  0  0  0
  192.1970  175.6480  146.4680 O   0  0  0  0  0  0  0  0  0  0  0  0
  191.3890  176.4540  147.2610 C   0  0  0  0  0  0  0  0  0  0  0  0
  1  7  1  0  0  0  0
  3  4  2  0  0  0  0
  4  5  1  0  0  0  0
  5  2  1  0  0  0  0
  6  1  2  0  0  0  0
  6  3  1  0  0  0  0
  7 25  1  0  0  0  0
  7  5  2  0  0  0  0
  8  3  1  0  0  0  0
  9 10  2  0  0  0  0
  9 11  1  0  0  0  0
 11  6  1  0  0  0  0
 12 17  1  1  0  0  0
 12  9  1  0  0  0  0
 13 12  1  0  0  0  0
 14 13  1  0  0  0  0
 14 16  1  0  0  0  0
 15 14  2  0  0  0  0
 18 19  2  0  0  0  0
 19 20  1  0  0  0  0
 20 17  1  0  0  0  0
 21 19  1  0  0  0  0
 23 22  1  6  0  0  0
 23 21  1  0  0  0  0
 23 24  1  0  0  0  0
 26 25  1  6  0  0  0
 26 38  1  0  0  0  0
 27 31  1  0  0  0  0
 27 26  1  0  0  0  0
 28 30  2  0  0  0  0
 28 29  1  0  0  0  0
 29 27  2  0  0  0  0
 30 32  1  0  0  0  0
 32 31  2  0  0  0  0
 33 28  1  0  0  0  0
 34 33  1  0  0  0  0
 35 34  1  0  0  0  0
 36 37  1  0  0  0  0
 37 35  1  0  0  0  0
 38 39  1  0  0  0  0
 39 42  1  0  0  0  0
 41 42  2  0  0  0  0
 42 40  1  0  0  0  0
M  END
>  <MODEL>
4

>  <REMARK>
 VINA RESULT:      -7.3      2.801      5.902
  Name = 
  18 active torsions:
  status: ('A' for Active; 'I' for Inactive)
    1  A    between atoms: C_1  and  C_2
    2  A    between atoms: C_2  and  C_16
    3  A    between atoms: C_2  and  C_37
    4  A    between atoms: C_4  and  C_5
    5  A    between atoms: C_4  and  O_10
    6  A    between atoms: C_4  and  C_13
    7  A    between atoms: C_5  and  N_25
    8  A    between atoms: C_9  and  C_12
    9  A    between atoms: O_10  and  C_30
   10  A    between atoms: C_12  and  C_21
   11  A    between atoms: C_16  and  C_36
   12  A    between atoms: C_17  and  O_22
   13  A    between atoms: C_19  and  C_20
   14  A    between atoms: C_19  and  C_29
   15  A    between atoms: C_20  and  O_22
   16  A    between atoms: N_28  and  C_31
   17  A    between atoms: C_32  and  C_37
   18  A    between atoms: C_36  and  C_40
                            x       y       z     vdW  Elec       q    Type
                         _______ _______ _______ _____ _____    ______ ____

>  <TORSDO>
F 18

$$$$
=
 OpenBabel11062413393D

 42 43  0  0  1  0  0  0  0  0999 V2000
  184.3700  178.7060  142.0820 C   0  0  0  0  0  3  0  0  0  0  0  0
  183.6710  179.1600  145.7110 N   0  0  0  0  0  1  0  0  0  0  0  0
  181.9980  178.6250  142.4880 C   0  0  0  0  0  0  0  0  0  0  0  0
  182.2310  178.8260  143.8130 N   0  0  0  0  0  0  0  0  0  0  0  0
  183.4890  178.9670  144.3100 C   0  0  0  0  0  0  0  0  0  0  0  0
  183.0710  178.5600  141.5860 C   0  0  0  0  0  0  0  0  0  0  0  0
  184.5920  178.9110  143.4460 C   0  0  0  0  0  0  0  0  0  0  0  0
  180.6590  178.4610  142.0290 N   0  0  0  0  0  1  0  0  0  0  0  0
  183.3810  178.9360  139.0570 C   0  0  0  0  0  0  0  0  0  0  0  0
  184.0760  180.0170  139.1850 N   0  0  0  0  0  2  0  0  0  0  0  0
  182.8200  178.2730  140.2020 N   0  0  0  0  0  2  0  0  0  0  0  0
  183.3040  178.2820  137.7180 C   0  0  2  0  0  3  0  0  0  0  0  0
  181.9510  177.9660  137.3970 O   0  0  0  0  0  0  0  0  0  0  0  0
  181.0540  178.9160  136.9050 C   0  0  0  0  0  0  0  0  0  0  0  0
  179.8430  178.5010  136.3720 O   0  0  0  0  0  0  0  0  0  0  0  0
  181.3330  180.1450  136.9370 O   0  0  0  0  0  1  0  0  0  0  0  0
  184.1840  177.0330  137.6770 C   0  0  0  0  0  2  0  0  0  0  0  0
  186.3270  175.2760  137.0090 O   0  0  0  0  0  0  0  0  0  0  0  0
  186.6150  176.4650  137.3080 C   0  0  0  0  0  0  0  0  0  0  0  0
  185.5920  177.3980  137.6540 N   0  0  0  0  0  2  0  0  0  0  0  0
  188.0420  176.8970  137.3300 C   0  0  0  0  0  2  0  0  0  0  0  0
  189.1050  177.7700  135.2720 C   0  0  0  0  0  1  0  0  0  0  0  0
  188.2420  178.1300  136.4630 C   0  0  2  0  0  3  0  0  0  0  0  0
  188.8920  179.1770  137.2310 N   0  0  0  0  0  1  0  0  0  0  0  0
  185.9910  178.9980  143.9660 C   0  0  0  0  0  2  0  0  0  0  0  0
  186.5100  177.6090  144.3060 C   0  0  2  0  0  3  0  0  0  0  0  0
  187.2380  177.6110  145.6140 C   0  0  0  0  0  0  0  0  0  0  0  0
  189.1560  177.0090  146.9840 C   0  0  0  0  0  0  0  0  0  0  0  0
  188.4950  177.0000  145.7510 C   0  0  0  0  0  3  0  0  0  0  0  0
  188.5520  177.6380  148.0840 C   0  0  0  0  0  3  0  0  0  0  0  0
  186.6450  178.2300  146.7180 C   0  0  0  0  0  3  0  0  0  0  0  0
  187.3010  178.2450  147.9510 C   0  0  0  0  0  3  0  0  0  0  0  0
  190.4060  176.3880  147.0880 O   0  0  0  0  0  0  0  0  0  0  0  0
  191.5810  176.8850  146.4510 C   0  0  0  0  0  2  0  0  0  0  0  0
  191.6640  176.3900  145.0160 C   0  0  0  0  0  2  0  0  0  0  0  0
  191.6470  177.0870  142.7430 O   0  0  0  0  0  1  0  0  0  0  0  0
  191.6210  177.5610  144.0550 C   0  0  0  0  0  2  0  0  0  0  0  0
  187.3820  177.0750  143.1740 C   0  0  0  0  0  2  0  0  0  0  0  0
  188.1970  178.1840  142.5240 C   0  0  0  0  0  2  0  0  0  0  0  0
  187.3790  178.6320  140.3250 O   0  0  0  0  0  0  0  0  0  0  0  0
  189.1750  177.2120  140.4460 O   0  0  0  0  0  1  0  0  0  0  0  0
  188.2230  178.0320  141.0400 C   0  0  0  0  0  0  0  0  0  0  0  0
  1  7  1  0  0  0  0
  3  4  2  0  0  0  0
  4  5  1  0  0  0  0
  5  2  1  0  0  0  0
  6  1  2  0  0  0  0
  6  3  1  0  0  0  0
  7 25  1  0  0  0  0
  7  5  2  0  0  0  0
  8  3  1  0  0  0  0
  9 10  2  0  0  0  0
  9 11  1  0  0  0  0
 11  6  1  0  0  0  0
 12 17  1  1  0  0  0
 12  9  1  0  0  0  0
 13 12  1  0  0  0  0
 14 16  1  0  0  0  0
 14 13  1  0  0  0  0
 15 14  2  0  0  0  0
 18 19  2  0  0  0  0
 19 21  1  0  0  0  0
 19 20  1  0  0  0  0
 20 17  1  0  0  0  0
 23 22  1  6  0  0  0
 23 24  1  0  0  0  0
 23 21  1  0  0  0  0
 25 26  1  0  0  0  0
 26 38  1  6  0  0  0
 26 27  1  0  0  0  0
 27 29  2  0  0  0  0
 27 31  1  0  0  0  0
 28 33  1  0  0  0  0
 28 30  2  0  0  0  0
 29 28  1  0  0  0  0
 31 32  2  0  0  0  0
 32 30  1  0  0  0  0
 34 33  1  0  0  0  0
 35 34  1  0  0  0  0
 36 37  1  0  0  0  0
 37 35  1  0  0  0  0
 39 38  1  0  0  0  0
 40 42  2  0  0  0  0
 41 42  1  0  0  0  0
 42 39  1  0  0  0  0
M  END
>  <MODEL>
5

>  <REMARK>
 VINA RESULT:      -7.3      2.622      6.863
  Name = 
  18 active torsions:
  status: ('A' for Active; 'I' for Inactive)
    1  A    between atoms: C_1  and  C_2
    2  A    between atoms: C_2  and  C_16
    3  A    between atoms: C_2  and  C_37
    4  A    between atoms: C_4  and  C_5
    5  A    between atoms: C_4  and  O_10
    6  A    between atoms: C_4  and  C_13
    7  A    between atoms: C_5  and  N_25
    8  A    between atoms: C_9  and  C_12
    9  A    between atoms: O_10  and  C_30
   10  A    between atoms: C_12  and  C_21
   11  A    between atoms: C_16  and  C_36
   12  A    between atoms: C_17  and  O_22
   13  A    between atoms: C_19  and  C_20
   14  A    between atoms: C_19  and  C_29
   15  A    between atoms: C_20  and  O_22
   16  A    between atoms: N_28  and  C_31
   17  A    between atoms: C_32  and  C_37
   18  A    between atoms: C_36  and  C_40
                            x       y       z     vdW  Elec       q    Type
                         _______ _______ _______ _____ _____    ______ ____

>  <TORSDO>
F 18

$$$$
=
 OpenBabel11062413393D

 42 43  0  0  1  0  0  0  0  0999 V2000
  189.1890  176.9760  141.1190 C   0  0  0  0  0  3  0  0  0  0  0  0
  190.4560  176.7280  144.6110 N   0  0  0  0  0  1  0  0  0  0  0  0
  191.5700  177.3340  141.1660 C   0  0  0  0  0  0  0  0  0  0  0  0
  191.5570  177.1550  142.5150 N   0  0  0  0  0  0  0  0  0  0  0  0
  190.4090  176.8920  143.1960 C   0  0  0  0  0  0  0  0  0  0  0  0
  190.3770  177.2490  140.4330 C   0  0  0  0  0  0  0  0  0  0  0  0
  189.1930  176.7950  142.5040 C   0  0  0  0  0  0  0  0  0  0  0  0
  192.7990  177.6310  140.5110 N   0  0  0  0  0  1  0  0  0  0  0  0
  190.1780  176.5750  137.9550 C   0  0  0  0  0  0  0  0  0  0  0  0
  190.1170  175.3060  138.1850 N   0  0  0  0  0  2  0  0  0  0  0  0
  190.3880  177.5140  139.0220 N   0  0  0  0  0  2  0  0  0  0  0  0
  189.8600  177.0770  136.5860 C   0  0  2  0  0  3  0  0  0  0  0  0
  188.4990  177.4960  136.5130 O   0  0  0  0  0  0  0  0  0  0  0  0
  188.0690  178.7350  136.9930 C   0  0  0  0  0  0  0  0  0  0  0  0
  188.9990  179.7360  137.2310 O   0  0  0  0  0  1  0  0  0  0  0  0
  186.8470  178.9540  137.2140 O   0  0  0  0  0  0  0  0  0  0  0  0
  190.1610  176.0070  135.5370 C   0  0  0  0  0  2  0  0  0  0  0  0
  191.8030  173.6840  135.7160 O   0  0  0  0  0  0  0  0  0  0  0  0
  192.3480  174.7600  135.3550 C   0  0  0  0  0  0  0  0  0  0  0  0
  191.5860  175.9610  135.2440 N   0  0  0  0  0  2  0  0  0  0  0  0
  193.8100  174.7880  135.0650 C   0  0  0  0  0  2  0  0  0  0  0  0
  193.8420  175.0550  137.5260 C   0  0  0  0  0  1  0  0  0  0  0  0
  194.5780  175.3700  136.2410 C   0  0  2  0  0  3  0  0  0  0  0  0
  194.6950  176.8110  136.0940 N   0  0  0  0  0  1  0  0  0  0  0  0
  187.9030  176.5710  143.2270 C   0  0  0  0  0  2  0  0  0  0  0  0
  187.0620  177.8380  143.2020 C   0  0  2  0  0  3  0  0  0  0  0  0
  186.4550  178.1100  144.5420 C   0  0  0  0  0  0  0  0  0  0  0  0
  186.6360  178.3280  146.9580 C   0  0  0  0  0  0  0  0  0  0  0  0
  187.2260  178.0750  145.7150 C   0  0  0  0  0  3  0  0  0  0  0  0
  185.2650  178.6200  147.0230 C   0  0  0  0  0  3  0  0  0  0  0  0
  185.0890  178.3980  144.6200 C   0  0  0  0  0  3  0  0  0  0  0  0
  184.4950  178.6530  145.8580 C   0  0  0  0  0  3  0  0  0  0  0  0
  187.4320  178.2830  148.1080 O   0  0  0  0  0  0  0  0  0  0  0  0
  188.4380  177.2960  148.3240 C   0  0  0  0  0  2  0  0  0  0  0  0
  189.8230  177.8800  148.0950 C   0  0  0  0  0  2  0  0  0  0  0  0
  192.0540  177.0610  148.1360 O   0  0  0  0  0  1  0  0  0  0  0  0
  190.7790  176.7970  147.6370 C   0  0  0  0  0  2  0  0  0  0  0  0
  186.0020  177.7510  142.1070 C   0  0  0  0  0  2  0  0  0  0  0  0
  185.9790  179.0090  141.2500 C   0  0  0  0  0  2  0  0  0  0  0  0
  184.6930  179.8710  139.4310 O   0  0  0  0  0  0  0  0  0  0  0  0
  183.7340  178.1440  140.5950 O   0  0  0  0  0  1  0  0  0  0  0  0
  184.7750  179.0360  140.3700 C   0  0  0  0  0  0  0  0  0  0  0  0
  1  7  1  0  0  0  0
  3  4  2  0  0  0  0
  4  5  1  0  0  0  0
  5  2  1  0  0  0  0
  6  1  2  0  0  0  0
  6  3  1  0  0  0  0
  7  5  2  0  0  0  0
  7 25  1  0  0  0  0
  8  3  1  0  0  0  0
  9 10  2  0  0  0  0
  9 11  1  0  0  0  0
 11  6  1  0  0  0  0
 12 17  1  6  0  0  0
 12  9  1  0  0  0  0
 13 12  1  0  0  0  0
 13 14  1  0  0  0  0
 14 16  2  0  0  0  0
 14 15  1  0  0  0  0
 19 18  2  0  0  0  0
 20 19  1  0  0  0  0
 20 17  1  0  0  0  0
 21 19  1  0  0  0  0
 21 23  1  0  0  0  0
 23 22  1  1  0  0  0
 24 23  1  0  0  0  0
 26 38  1  6  0  0  0
 26 25  1  0  0  0  0
 26 27  1  0  0  0  0
 27 31  2  0  0  0  0
 27 29  1  0  0  0  0
 28 30  1  0  0  0  0
 28 33  1  0  0  0  0
 29 28  2  0  0  0  0
 31 32  1  0  0  0  0
 32 30  2  0  0  0  0
 33 34  1  0  0  0  0
 35 34  1  0  0  0  0
 37 35  1  0  0  0  0
 37 36  1  0  0  0  0
 39 38  1  0  0  0  0
 40 42  2  0  0  0  0
 42 41  1  0  0  0  0
 42 39  1  0  0  0  0
M  END
>  <MODEL>
6

>  <REMARK>
 VINA RESULT:      -7.2      2.457      6.490
  Name = 
  18 active torsions:
  status: ('A' for Active; 'I' for Inactive)
    1  A    between atoms: C_1  and  C_2
    2  A    between atoms: C_2  and  C_16
    3  A    between atoms: C_2  and  C_37
    4  A    between atoms: C_4  and  C_5
    5  A    between atoms: C_4  and  O_10
    6  A    between atoms: C_4  and  C_13
    7  A    between atoms: C_5  and  N_25
    8  A    between atoms: C_9  and  C_12
    9  A    between atoms: O_10  and  C_30
   10  A    between atoms: C_12  and  C_21
   11  A    between atoms: C_16  and  C_36
   12  A    between atoms: C_17  and  O_22
   13  A    between atoms: C_19  and  C_20
   14  A    between atoms: C_19  and  C_29
   15  A    between atoms: C_20  and  O_22
   16  A    between atoms: N_28  and  C_31
   17  A    between atoms: C_32  and  C_37
   18  A    between atoms: C_36  and  C_40
                            x       y       z     vdW  Elec       q    Type
                         _______ _______ _______ _____ _____    ______ ____

>  <TORSDO>
F 18

$$$$
=
 OpenBabel11062413393D

 42 43  0  0  1  0  0  0  0  0999 V2000
  186.5160  177.6070  143.5800 C   0  0  0  0  0  3  0  0  0  0  0  0
  188.5000  177.4320  146.7250 N   0  0  0  0  0  1  0  0  0  0  0  0
  185.2260  178.4610  145.4240 C   0  0  0  0  0  0  0  0  0  0  0  0
  186.2750  178.2170  146.2540 N   0  0  0  0  0  0  0  0  0  0  0  0
  187.4410  177.6790  145.8040 C   0  0  0  0  0  0  0  0  0  0  0  0
  185.3240  178.1580  144.0570 C   0  0  0  0  0  0  0  0  0  0  0  0
  187.5840  177.3620  144.4460 C   0  0  0  0  0  0  0  0  0  0  0  0
  184.0220  179.0040  145.9580 N   0  0  0  0  0  1  0  0  0  0  0  0
  184.1720  178.8980  141.8760 C   0  0  0  0  0  0  0  0  0  0  0  0
  185.2240  179.4500  141.3710 N   0  0  0  0  0  2  0  0  0  0  0  0
  184.1860  178.3480  143.2040 N   0  0  0  0  0  2  0  0  0  0  0  0
  182.9790  178.6850  141.0040 C   0  0  2  0  0  3  0  0  0  0  0  0
  181.7970  178.5880  141.7940 O   0  0  0  0  0  0  0  0  0  0  0  0
  180.5710  179.1110  141.3770 C   0  0  0  0  0  0  0  0  0  0  0  0
  180.5290  179.9720  140.2900 O   0  0  0  0  0  0  0  0  0  0  0  0
  179.5030  178.8130  141.9780 O   0  0  0  0  0  1  0  0  0  0  0  0
  183.1640  177.4390  140.1370 C   0  0  0  0  0  2  0  0  0  0  0  0
  183.7210  175.6200  138.0150 O   0  0  0  0  0  0  0  0  0  0  0  0
  184.1650  176.7940  137.9120 C   0  0  0  0  0  0  0  0  0  0  0  0
  183.9240  177.7560  138.9380 N   0  0  0  0  0  2  0  0  0  0  0  0
  184.9750  177.1770  136.7200 C   0  0  0  0  0  2  0  0  0  0  0  0
  187.1330  178.3050  136.2790 C   0  0  0  0  0  1  0  0  0  0  0  0
  186.4560  177.2030  137.0650 C   0  0  2  0  0  3  0  0  0  0  0  0
  187.0660  175.9280  136.7300 N   0  0  0  0  0  1  0  0  0  0  0  0
  188.8270  176.7100  143.9270 C   0  0  0  0  0  2  0  0  0  0  0  0
  189.7770  177.7620  143.3750 C   0  0  2  0  0  3  0  0  0  0  0  0
  189.8200  177.7200  141.8800 C   0  0  0  0  0  0  0  0  0  0  0  0
  190.9790  177.2410  139.7950 C   0  0  0  0  0  0  0  0  0  0  0  0
  190.9590  177.2680  141.1940 C   0  0  0  0  0  3  0  0  0  0  0  0
  189.8480  177.6690  139.0830 C   0  0  0  0  0  3  0  0  0  0  0  0
  188.7020  178.1480  141.1590 C   0  0  0  0  0  3  0  0  0  0  0  0
  188.7150  178.1210  139.7630 C   0  0  0  0  0  3  0  0  0  0  0  0
  192.1300  176.7880  139.1420 O   0  0  0  0  0  0  0  0  0  0  0  0
  192.1010  176.1010  137.8930 C   0  0  0  0  0  2  0  0  0  0  0  0
  193.4230  176.2590  137.1610 C   0  0  0  0  0  2  0  0  0  0  0  0
  191.8800  175.9210  135.3840 O   0  0  0  0  0  1  0  0  0  0  0  0
  193.2410  175.9730  135.6830 C   0  0  0  0  0  2  0  0  0  0  0  0
  191.1660  177.5960  143.9860 C   0  0  0  0  0  2  0  0  0  0  0  0
  191.3650  176.1980  144.5530 C   0  0  0  0  0  2  0  0  0  0  0  0
  191.7950  177.3280  146.6130 O   0  0  0  0  0  1  0  0  0  0  0  0
  192.4130  175.1210  146.5430 O   0  0  0  0  0  0  0  0  0  0  0  0
  191.8610  176.2540  145.9580 C   0  0  0  0  0  0  0  0  0  0  0  0
  1  6  2  0  0  0  0
  1  7  1  0  0  0  0
  3  8  1  0  0  0  0
  3  4  2  0  0  0  0
  5  4  1  0  0  0  0
  5  2  1  0  0  0  0
  6  3  1  0  0  0  0
  7  5  2  0  0  0  0
  9 11  1  0  0  0  0
 10  9  2  0  0  0  0
 11  6  1  0  0  0  0
 12 17  1  1  0  0  0
 12 13  1  0  0  0  0
 12  9  1  0  0  0  0
 14 13  1  0  0  0  0
 14 16  1  0  0  0  0
 15 14  2  0  0  0  0
 19 18  2  0  0  0  0
 19 20  1  0  0  0  0
 20 17  1  0  0  0  0
 21 23  1  0  0  0  0
 21 19  1  0  0  0  0
 23 22  1  6  0  0  0
 24 23  1  0  0  0  0
 25  7  1  0  0  0  0
 26 25  1  1  0  0  0
 26 38  1  0  0  0  0
 27 26  1  0  0  0  0
 28 29  2  0  0  0  0
 29 27  1  0  0  0  0
 30 32  2  0  0  0  0
 30 28  1  0  0  0  0
 31 27  2  0  0  0  0
 32 31  1  0  0  0  0
 33 28  1  0  0  0  0
 34 33  1  0  0  0  0
 35 34  1  0  0  0  0
 36 37  1  0  0  0  0
 37 35  1  0  0  0  0
 38 39  1  0  0  0  0
 39 42  1  0  0  0  0
 42 41  2  0  0  0  0
 42 40  1  0  0  0  0
M  END
>  <MODEL>
7

>  <REMARK>
 VINA RESULT:      -7.1      2.615      6.885
  Name = 
  18 active torsions:
  status: ('A' for Active; 'I' for Inactive)
    1  A    between atoms: C_1  and  C_2
    2  A    between atoms: C_2  and  C_16
    3  A    between atoms: C_2  and  C_37
    4  A    between atoms: C_4  and  C_5
    5  A    between atoms: C_4  and  O_10
    6  A    between atoms: C_4  and  C_13
    7  A    between atoms: C_5  and  N_25
    8  A    between atoms: C_9  and  C_12
    9  A    between atoms: O_10  and  C_30
   10  A    between atoms: C_12  and  C_21
   11  A    between atoms: C_16  and  C_36
   12  A    between atoms: C_17  and  O_22
   13  A    between atoms: C_19  and  C_20
   14  A    between atoms: C_19  and  C_29
   15  A    between atoms: C_20  and  O_22
   16  A    between atoms: N_28  and  C_31
   17  A    between atoms: C_32  and  C_37
   18  A    between atoms: C_36  and  C_40
                            x       y       z     vdW  Elec       q    Type
                         _______ _______ _______ _____ _____    ______ ____

>  <TORSDO>
F 18

$$$$
=
 OpenBabel11062413393D

 42 43  0  0  1  0  0  0  0  0999 V2000
  188.8140  177.6720  141.1670 C   0  0  0  0  0  3  0  0  0  0  0  0
  191.7600  177.9640  143.4250 N   0  0  0  0  0  1  0  0  0  0  0  0
  190.8250  177.0620  139.9920 C   0  0  0  0  0  0  0  0  0  0  0  0
  191.5420  177.2990  141.1230 N   0  0  0  0  0  0  0  0  0  0  0  0
  190.9530  177.7170  142.2760 C   0  0  0  0  0  0  0  0  0  0  0  0
  189.4340  177.2450  139.9880 C   0  0  0  0  0  0  0  0  0  0  0  0
  189.5650  177.9120  142.3190 C   0  0  0  0  0  0  0  0  0  0  0  0
  191.5010  176.6480  138.8080 N   0  0  0  0  0  1  0  0  0  0  0  0
  188.5490  178.0030  137.6920 C   0  0  0  0  0  0  0  0  0  0  0  0
  188.9600  179.2220  137.8060 N   0  0  0  0  0  2  0  0  0  0  0  0
  188.6960  177.0650  138.7710 N   0  0  0  0  0  2  0  0  0  0  0  0
  188.0660  177.5250  136.3630 C   0  0  2  0  0  3  0  0  0  0  0  0
  186.6700  177.7770  136.2210 O   0  0  0  0  0  0  0  0  0  0  0  0
  185.8000  177.8190  137.3130 C   0  0  0  0  0  0  0  0  0  0  0  0
  185.6710  178.9940  138.0390 O   0  0  0  0  0  1  0  0  0  0  0  0
  185.1350  176.8020  137.6480 O   0  0  0  0  0  0  0  0  0  0  0  0
  188.3770  176.0400  136.1800 C   0  0  0  0  0  2  0  0  0  0  0  0
  188.1370  173.2020  136.0560 O   0  0  0  0  0  0  0  0  0  0  0  0
  187.1370  173.8890  135.7180 C   0  0  0  0  0  0  0  0  0  0  0  0
  187.1880  175.3150  135.7550 N   0  0  0  0  0  2  0  0  0  0  0  0
  185.8970  173.2100  135.2470 C   0  0  0  0  0  2  0  0  0  0  0  0
  185.0670  173.0730  137.5750 C   0  0  0  0  0  1  0  0  0  0  0  0
  184.7300  173.5250  136.1690 C   0  0  2  0  0  3  0  0  0  0  0  0
  183.5370  172.8330  135.7140 N   0  0  0  0  0  1  0  0  0  0  0  0
  188.8920  178.4310  143.5500 C   0  0  0  0  0  2  0  0  0  0  0  0
  187.9860  177.3620  144.1410 C   0  0  2  0  0  3  0  0  0  0  0  0
  186.5960  177.8800  144.3380 C   0  0  0  0  0  0  0  0  0  0  0  0
  184.4010  178.4720  143.4730 C   0  0  0  0  0  0  0  0  0  0  0  0
  185.6940  177.9800  143.2660 C   0  0  0  0  0  3  0  0  0  0  0  0
  184.0100  178.8630  144.7630 C   0  0  0  0  0  3  0  0  0  0  0  0
  186.1970  178.2760  145.6180 C   0  0  0  0  0  3  0  0  0  0  0  0
  184.9060  178.7660  145.8310 C   0  0  0  0  0  3  0  0  0  0  0  0
  183.5270  178.5620  142.3830 O   0  0  0  0  0  0  0  0  0  0  0  0
  183.9640  178.5180  141.0260 C   0  0  0  0  0  2  0  0  0  0  0  0
  182.8060  178.7910  140.0800 C   0  0  0  0  0  2  0  0  0  0  0  0
  182.6410  176.4240  139.9260 O   0  0  0  0  0  1  0  0  0  0  0  0
  181.8820  177.5910  140.0230 C   0  0  0  0  0  2  0  0  0  0  0  0
  188.5770  176.8220  145.4400 C   0  0  0  0  0  2  0  0  0  0  0  0
  189.6120  177.7750  146.0220 C   0  0  0  0  0  2  0  0  0  0  0  0
  190.9360  176.7360  147.7170 O   0  0  0  0  0  0  0  0  0  0  0  0
  189.0810  177.8610  148.4570 O   0  0  0  0  0  1  0  0  0  0  0  0
  189.9220  177.4290  147.4390 C   0  0  0  0  0  0  0  0  0  0  0  0
  1  7  1  0  0  0  0
  3  4  2  0  0  0  0
  4  5  1  0  0  0  0
  5  7  2  0  0  0  0
  5  2  1  0  0  0  0
  6  3  1  0  0  0  0
  6  1  2  0  0  0  0
  7 25  1  0  0  0  0
  8  3  1  0  0  0  0
  9 10  2  0  0  0  0
  9 11  1  0  0  0  0
 11  6  1  0  0  0  0
 12 17  1  1  0  0  0
 12  9  1  0  0  0  0
 13 12  1  0  0  0  0
 13 14  1  0  0  0  0
 14 16  2  0  0  0  0
 14 15  1  0  0  0  0
 19 20  1  0  0  0  0
 19 18  2  0  0  0  0
 20 17  1  0  0  0  0
 21 19  1  0  0  0  0
 21 23  1  0  0  0  0
 23 22  1  1  0  0  0
 24 23  1  0  0  0  0
 26 25  1  1  0  0  0
 26 27  1  0  0  0  0
 26 38  1  0  0  0  0
 27 31  1  0  0  0  0
 28 30  2  0  0  0  0
 29 28  1  0  0  0  0
 29 27  2  0  0  0  0
 30 32  1  0  0  0  0
 31 32  2  0  0  0  0
 33 28  1  0  0  0  0
 34 33  1  0  0  0  0
 35 34  1  0  0  0  0
 36 37  1  0  0  0  0
 37 35  1  0  0  0  0
 38 39  1  0  0  0  0
 39 42  1  0  0  0  0
 42 40  2  0  0  0  0
 42 41  1  0  0  0  0
M  END
>  <MODEL>
8

>  <REMARK>
 VINA RESULT:      -6.9      1.929      2.897
  Name = 
  18 active torsions:
  status: ('A' for Active; 'I' for Inactive)
    1  A    between atoms: C_1  and  C_2
    2  A    between atoms: C_2  and  C_16
    3  A    between atoms: C_2  and  C_37
    4  A    between atoms: C_4  and  C_5
    5  A    between atoms: C_4  and  O_10
    6  A    between atoms: C_4  and  C_13
    7  A    between atoms: C_5  and  N_25
    8  A    between atoms: C_9  and  C_12
    9  A    between atoms: O_10  and  C_30
   10  A    between atoms: C_12  and  C_21
   11  A    between atoms: C_16  and  C_36
   12  A    between atoms: C_17  and  O_22
   13  A    between atoms: C_19  and  C_20
   14  A    between atoms: C_19  and  C_29
   15  A    between atoms: C_20  and  O_22
   16  A    between atoms: N_28  and  C_31
   17  A    between atoms: C_32  and  C_37
   18  A    between atoms: C_36  and  C_40
                            x       y       z     vdW  Elec       q    Type
                         _______ _______ _______ _____ _____    ______ ____

>  <TORSDO>
F 18

$$$$
=
 OpenBabel11062413393D

 42 43  0  0  1  0  0  0  0  0999 V2000
  184.8250  178.4010  141.9310 C   0  0  0  0  0  3  0  0  0  0  0  0
  183.7740  179.3730  145.3680 N   0  0  0  0  0  1  0  0  0  0  0  0
  182.4230  178.4840  142.0730 C   0  0  0  0  0  0  0  0  0  0  0  0
  182.5260  178.8510  143.3790 N   0  0  0  0  0  0  0  0  0  0  0  0
  183.7300  179.0010  143.9920 C   0  0  0  0  0  0  0  0  0  0  0  0
  183.5790  178.2490  141.3140 C   0  0  0  0  0  0  0  0  0  0  0  0
  184.9130  178.7770  143.2730 C   0  0  0  0  0  0  0  0  0  0  0  0
  181.1330  178.3210  141.4900 N   0  0  0  0  0  1  0  0  0  0  0  0
  184.1650  178.2770  138.8060 C   0  0  0  0  0  0  0  0  0  0  0  0
  184.8910  179.3430  138.8690 N   0  0  0  0  0  2  0  0  0  0  0  0
  183.4600  177.7900  139.9590 N   0  0  0  0  0  2  0  0  0  0  0  0
  184.1960  177.4540  137.5610 C   0  0  2  0  0  3  0  0  0  0  0  0
  184.1470  176.0660  137.8810 O   0  0  0  0  0  0  0  0  0  0  0  0
  183.4280  175.1450  137.1170 C   0  0  0  0  0  0  0  0  0  0  0  0
  183.4000  175.2750  135.7370 O   0  0  0  0  0  0  0  0  0  0  0  0
  182.8010  174.1990  137.6670 O   0  0  0  0  0  1  0  0  0  0  0  0
  185.4370  177.7830  136.7310 C   0  0  0  0  0  2  0  0  0  0  0  0
  187.9520  177.6690  135.3940 O   0  0  0  0  0  0  0  0  0  0  0  0
  187.7820  176.9140  136.3880 C   0  0  0  0  0  0  0  0  0  0  0  0
  186.5470  176.9190  137.1030 N   0  0  0  0  0  2  0  0  0  0  0  0
  188.8700  175.9840  136.8060 C   0  0  0  0  0  2  0  0  0  0  0  0
  189.8010  177.8540  138.1340 C   0  0  0  0  0  1  0  0  0  0  0  0
  189.4270  176.3870  138.1620 C   0  0  2  0  0  3  0  0  0  0  0  0
  190.6050  175.5960  138.4700 N   0  0  0  0  0  1  0  0  0  0  0  0
  186.2520  178.8700  143.9320 C   0  0  0  0  0  2  0  0  0  0  0  0
  186.6420  177.5200  144.5160 C   0  0  2  0  0  3  0  0  0  0  0  0
  187.2400  177.6750  145.8790 C   0  0  0  0  0  0  0  0  0  0  0  0
  189.1140  177.4770  147.4170 C   0  0  0  0  0  0  0  0  0  0  0  0
  188.5770  177.3290  146.1340 C   0  0  0  0  0  3  0  0  0  0  0  0
  188.3050  177.9780  148.4490 C   0  0  0  0  0  3  0  0  0  0  0  0
  186.4430  178.1690  146.9160 C   0  0  0  0  0  3  0  0  0  0  0  0
  186.9750  178.3210  148.1980 C   0  0  0  0  0  3  0  0  0  0  0  0
  190.4490  177.1200  147.6380 O   0  0  0  0  0  0  0  0  0  0  0  0
  191.3490  176.7700  146.5890 C   0  0  0  0  0  2  0  0  0  0  0  0
  192.0900  175.4850  146.9220 C   0  0  0  0  0  2  0  0  0  0  0  0
  192.7910  176.9570  148.6520 O   0  0  0  0  0  1  0  0  0  0  0  0
  192.8010  175.6200  148.2540 C   0  0  0  0  0  2  0  0  0  0  0  0
  187.5800  176.7800  143.5670 C   0  0  0  0  0  2  0  0  0  0  0  0
  188.3380  177.7450  142.6650 C   0  0  0  0  0  2  0  0  0  0  0  0
  190.6370  177.9130  143.2900 O   0  0  0  0  0  1  0  0  0  0  0  0
  190.1670  176.4000  141.6330 O   0  0  0  0  0  0  0  0  0  0  0  0
  189.7750  177.3610  142.5570 C   0  0  0  0  0  0  0  0  0  0  0  0
  1  7  1  0  0  0  0
  3  4  2  0  0  0  0
  4  5  1  0  0  0  0
  5  2  1  0  0  0  0
  6  1  2  0  0  0  0
  6  3  1  0  0  0  0
  7 25  1  0  0  0  0
  7  5  2  0  0  0  0
  8  3  1  0  0  0  0
  9 10  2  0  0  0  0
  9 11  1  0  0  0  0
 11  6  1  0  0  0  0
 12 17  1  1  0  0  0
 12 13  1  0  0  0  0
 12  9  1  0  0  0  0
 14 16  1  0  0  0  0
 14 13  1  0  0  0  0
 15 14  2  0  0  0  0
 17 20  1  0  0  0  0
 18 19  2  0  0  0  0
 19 21  1  0  0  0  0
 19 20  1  0  0  0  0
 21 23  1  0  0  0  0
 23 22  1  6  0  0  0
 23 24  1  0  0  0  0
 25 26  1  0  0  0  0
 26 38  1  6  0  0  0
 26 27  1  0  0  0  0
 27 29  2  0  0  0  0
 27 31  1  0  0  0  0
 28 33  1  0  0  0  0
 28 30  2  0  0  0  0
 29 28  1  0  0  0  0
 31 32  2  0  0  0  0
 32 30  1  0  0  0  0
 34 35  1  0  0  0  0
 34 33  1  0  0  0  0
 35 37  1  0  0  0  0
 37 36  1  0  0  0  0
 39 38  1  0  0  0  0
 41 42  2  0  0  0  0
 42 39  1  0  0  0  0
 42 40  1  0  0  0  0
M  END
>  <MODEL>
9

>  <REMARK>
 VINA RESULT:      -6.8      2.520      6.523
  Name = 
  18 active torsions:
  status: ('A' for Active; 'I' for Inactive)
    1  A    between atoms: C_1  and  C_2
    2  A    between atoms: C_2  and  C_16
    3  A    between atoms: C_2  and  C_37
    4  A    between atoms: C_4  and  C_5
    5  A    between atoms: C_4  and  O_10
    6  A    between atoms: C_4  and  C_13
    7  A    between atoms: C_5  and  N_25
    8  A    between atoms: C_9  and  C_12
    9  A    between atoms: O_10  and  C_30
   10  A    between atoms: C_12  and  C_21
   11  A    between atoms: C_16  and  C_36
   12  A    between atoms: C_17  and  O_22
   13  A    between atoms: C_19  and  C_20
   14  A    between atoms: C_19  and  C_29
   15  A    between atoms: C_20  and  O_22
   16  A    between atoms: N_28  and  C_31
   17  A    between atoms: C_32  and  C_37
   18  A    between atoms: C_36  and  C_40
                            x       y       z     vdW  Elec       q    Type
                         _______ _______ _______ _____ _____    ______ ____

>  <TORSDO>
F 18

$$$$
