=
 OpenBabel11062416413D

 57 61  0  0  1  0  0  0  0  0999 V2000
  188.4260  177.5700  139.1330 C   0  0  0  0  0  0  0  0  0  0  0  0
  187.4100  178.2340  139.7890 C   0  0  0  0  0  0  0  0  0  0  0  0
  188.2510  176.9210  137.9000 C   0  0  0  0  0  0  0  0  0  0  0  0
  189.6350  176.5680  137.9730 C   0  0  0  0  0  0  0  0  0  0  0  0
  186.1560  178.2110  139.1350 C   0  0  0  0  0  3  0  0  0  0  0  0
  187.0470  176.8880  137.2230 C   0  0  0  0  0  3  0  0  0  0  0  0
  189.8300  175.2020  138.0650 F   0  0  0  0  0  0  0  0  0  0  0  0
  190.3820  177.1490  136.9640 F   0  0  0  0  0  0  0  0  0  0  0  0
  185.9750  177.5560  137.8720 C   0  0  0  0  0  0  0  0  0  0  0  0
  189.8420  177.2110  139.2180 N   0  0  0  0  0  0  0  0  0  0  0  0
  184.6410  177.5850  137.1980 C   0  0  1  0  0  3  0  0  0  0  0  0
  184.7910  177.4710  135.8270 F   0  0  0  0  0  0  0  0  0  0  0  0
  183.5800  176.2840  137.8090 S   0  0  0  0  0  0  0  0  0  0  0  0
  182.3810  176.1570  136.9130 O   0  0  0  0  0  0  0  0  0  0  0  0
  184.3260  174.9770  137.8150 O   0  0  0  0  0  0  0  0  0  0  0  0
  183.0490  176.6770  139.4100 N   0  0  0  0  0  2  0  0  0  0  0  0
  181.6770  177.1530  139.3260 C   0  0  2  0  0  3  0  0  0  0  0  0
  182.7610  178.4990  141.7610 O   0  0  0  0  0  0  0  0  0  0  0  0
  182.2930  179.2490  142.8440 C   0  0  1  0  0  3  0  0  0  0  0  0
  182.8650  179.3580  140.7670 O   0  0  0  0  0  0  0  0  0  0  0  0
  179.7790  178.8660  142.9020 C   0  0  1  0  0  3  0  0  0  0  0  0
  181.6270  178.9400  139.6840 P   0  0  2  0  0  4  0  0  0  0  0  0
  181.1370  178.5130  143.5060 C   0  0  0  0  0  2  0  0  0  0  0  0
  179.4950  180.2280  143.0400 O   0  0  0  0  0  1  0  0  0  0  0  0
  179.5850  178.3750  141.4640 C   0  0  0  0  0  2  0  0  0  0  0  0
  180.0230  179.3910  140.4160 C   0  0  0  0  0  2  0  0  0  0  0  0
  178.9330  180.2960  136.3020 C   0  0  0  0  0  1  0  0  0  0  0  0
  181.8500  179.8790  138.1420 C   0  0  2  0  0  3  0  0  0  0  0  0
  181.3730  181.2420  138.3150 N   0  0  0  0  0  2  0  0  0  0  0  0
  180.8820  181.6490  137.0070 C   0  0  0  0  0  2  0  0  0  0  0  0
  180.4430  180.4040  136.2640 C   0  0  1  0  0  3  0  0  0  0  0  0
  181.0450  179.2490  137.0260 C   0  0  0  0  0  2  0  0  0  0  0  0
  184.0160  180.5560  143.8340 O   0  0  0  0  0  0  0  0  0  0  0  0
  183.3900  179.4590  143.8340 C   0  0  0  0  0  0  0  0  0  0  0  0
  183.5840  178.6290  146.0620 C   0  0  0  0  0  2  0  0  0  0  0  0
  183.7000  178.4390  144.7890 N   0  0  0  0  0  0  0  0  0  0  0  0
  180.6850  174.8990  139.5420 S   0  0  0  0  0  1  0  0  0  0  0  0
  180.8810  176.4580  140.2370 O   0  0  0  0  0  0  0  0  0  0  0  0
  186.3190  178.3470  142.2690 S   0  0  0  0  0  1  0  0  0  0  0  0
  187.6060  178.8910  141.1090 C   0  0  0  0  0  2  0  0  0  0  0  0
  190.9500  177.5030  140.1140 C   0  0  0  0  0  2  0  0  0  0  0  0
  191.1640  178.0090  142.5560 O   0  0  0  0  0  0  0  0  0  0  0  0
  190.6750  178.0440  143.8180 O   0  0  0  0  0  0  0  0  0  0  0  0
  189.3890  176.0340  143.3040 C   0  0  0  0  0  2  0  0  0  0  0  0
  190.3930  176.7220  144.2370 C   0  0  1  0  0  3  0  0  0  0  0  0
  190.5660  177.2570  141.5360 C   0  0  0  0  0  0  0  0  0  0  0  0
  189.7310  176.2730  141.8650 C   0  0  0  0  0  3  0  0  0  0  0  0
  191.6350  175.9070  144.4840 C   0  0  0  0  0  0  0  0  0  0  0  0
  192.2450  175.3870  143.5120 O   0  0  0  0  0  0  0  0  0  0  0  0
  192.1260  175.9220  148.1150 O   0  0  0  0  0  0  0  0  0  0  0  0
  191.6330  176.2760  147.0120 C   0  0  0  0  0  0  0  0  0  0  0  0
  192.1270  175.6770  145.8090 N   0  0  0  0  0  2  0  0  0  0  0  0
  190.6360  177.2570  146.9660 O   0  0  0  0  0  0  0  0  0  0  0  0
  190.1520  177.9160  148.1310 C   0  0  0  0  0  2  0  0  0  0  0  0
  188.6760  178.2710  147.9800 C   0  0  0  0  0  2  0  0  0  0  0  0
  187.8990  177.1360  147.3350 C   0  0  0  0  0  2  0  0  0  0  0  0
  187.0960  177.6890  145.8010 S   0  0  0  0  0  1  0  0  0  0  0  0
  1 10  1  0  0  0  0
  1  2  1  0  0  0  0
  2 40  1  0  0  0  0
  3  4  1  0  0  0  0
  3  1  2  0  0  0  0
  4  7  1  0  0  0  0
  4 10  1  0  0  0  0
  5  2  2  0  0  0  0
  6  9  2  0  0  0  0
  6  3  1  0  0  0  0
  8  4  1  0  0  0  0
  9  5  1  0  0  0  0
 10 41  1  0  0  0  0
 11 12  1  6  0  0  0
 11 13  1  0  0  0  0
 11  9  1  0  0  0  0
 13 15  2  0  0  0  0
 13 16  1  0  0  0  0
 14 13  2  0  0  0  0
 17 16  1  1  0  0  0
 17 38  1  0  0  0  0
 18 19  1  0  0  0  0
 19 23  1  0  0  0  0
 19 34  1  1  0  0  0
 20 18  1  0  0  0  0
 21 24  1  6  0  0  0
 21 23  1  0  0  0  0
 22 17  1  6  0  0  0
 22 26  1  0  0  0  0
 22 20  1  0  0  0  0
 25 21  1  0  0  0  0
 26 25  1  0  0  0  0
 28 32  1  6  0  0  0
 28 29  1  0  0  0  0
 28 22  1  0  0  0  0
 30 29  1  0  0  0  0
 31 27  1  1  0  0  0
 31 30  1  0  0  0  0
 31 32  1  0  0  0  0
 34 33  2  0  0  0  0
 34 36  1  0  0  0  0
 36 35  2  0  0  0  0
 37 38  1  0  0  0  0
 40 39  1  0  0  0  0
 41 46  1  0  0  0  0
 42 43  1  0  0  0  0
 43 45  1  0  0  0  0
 44 45  1  0  0  0  0
 45 48  1  6  0  0  0
 46 47  2  0  0  0  0
 46 42  1  0  0  0  0
 47 44  1  0  0  0  0
 48 52  1  0  0  0  0
 49 48  2  0  0  0  0
 51 50  2  0  0  0  0
 52 51  1  0  0  0  0
 53 51  1  0  0  0  0
 53 54  1  0  0  0  0
 55 54  1  0  0  0  0
 56 55  1  0  0  0  0
 57 56  1  0  0  0  0
M  END
>  <MODEL>
1

>  <REMARK>
 VINA RESULT:      -6.7      0.000      0.000
  Name = 
  17 active torsions:
  status: ('A' for Active; 'I' for Inactive)
    1  A    between atoms: C_3  and  C_41
    2  A    between atoms: C_5  and  P_22
    3  A    between atoms: C_6  and  C_24
    4  A    between atoms: C_8  and  C_32
    5  A    between atoms: C_10  and  C_54
    6  A    between atoms: O_17  and  C_49
    7  A    between atoms: O_17  and  C_53
    8  A    between atoms: O_19  and  C_30
    9  A    between atoms: C_20  and  C_40
   10  A    between atoms: C_20  and  S_45
   11  A    between atoms: P_22  and  C_30
   12  A    between atoms: N_25  and  C_30
   13  A    between atoms: N_25  and  S_45
   14  A    between atoms: N_29  and  C_41
   15  A    between atoms: C_32  and  C_53
   16  A    between atoms: C_37  and  C_44
   17  A    between atoms: C_37  and  N_50
                            x       y       z     vdW  Elec       q    Type
                         _______ _______ _______ _____ _____    ______ ____

>  <TORSDO>
F 17

$$$$
=
 OpenBabel11062416413D

 57 61  0  0  1  0  0  0  0  0999 V2000
  188.6900  177.4650  141.0150 C   0  0  0  0  0  0  0  0  0  0  0  0
  188.4050  177.1360  142.3240 C   0  0  0  0  0  0  0  0  0  0  0  0
  187.8200  178.2080  140.2010 C   0  0  0  0  0  0  0  0  0  0  0  0
  188.7990  178.0830  139.1660 C   0  0  0  0  0  0  0  0  0  0  0  0
  187.1550  177.5950  142.8010 C   0  0  0  0  0  3  0  0  0  0  0  0
  186.5970  178.6850  140.6330 C   0  0  0  0  0  3  0  0  0  0  0  0
  188.3390  177.3540  138.0850 F   0  0  0  0  0  0  0  0  0  0  0  0
  189.3380  179.3030  138.7990 F   0  0  0  0  0  0  0  0  0  0  0  0
  186.2660  178.3610  141.9750 C   0  0  0  0  0  0  0  0  0  0  0  0
  189.6970  177.3290  139.9610 N   0  0  0  0  0  0  0  0  0  0  0  0
  184.9690  178.8550  142.5280 C   0  0  1  0  0  3  0  0  0  0  0  0
  185.0600  180.1990  142.8450 F   0  0  0  0  0  0  0  0  0  0  0  0
  183.6310  178.5860  141.3760 S   0  0  0  0  0  0  0  0  0  0  0  0
  183.6520  177.1580  140.9110 O   0  0  0  0  0  0  0  0  0  0  0  0
  182.3140  178.8610  142.0500 O   0  0  0  0  0  0  0  0  0  0  0  0
  183.8300  179.6270  140.0070 N   0  0  0  0  0  2  0  0  0  0  0  0
  183.4090  178.8990  138.8210 C   0  0  2  0  0  3  0  0  0  0  0  0
  181.3540  176.7470  139.0720 O   0  0  0  0  0  0  0  0  0  0  0  0
  180.4120  176.0940  138.2710 C   0  0  1  0  0  3  0  0  0  0  0  0
  180.7760  177.8760  139.4310 O   0  0  0  0  0  0  0  0  0  0  0  0
  181.0740  176.6230  135.8720 C   0  0  1  0  0  3  0  0  0  0  0  0
  181.6100  179.0920  138.5910 P   0  0  2  0  0  4  0  0  0  0  0  0
  181.0880  175.5960  137.0010 C   0  0  0  0  0  2  0  0  0  0  0  0
  179.7680  176.9630  135.5030 O   0  0  0  0  0  1  0  0  0  0  0  0
  181.9400  177.8580  136.1360 C   0  0  0  0  0  2  0  0  0  0  0  0
  181.1850  178.9890  136.8240 C   0  0  0  0  0  2  0  0  0  0  0  0
  179.9590  182.8980  136.7690 C   0  0  0  0  0  1  0  0  0  0  0  0
  181.0830  180.7140  139.2250 C   0  0  2  0  0  3  0  0  0  0  0  0
  179.6310  180.7790  139.2800 N   0  0  0  0  0  2  0  0  0  0  0  0
  179.2980  182.1760  139.0420 C   0  0  0  0  0  2  0  0  0  0  0  0
  180.4080  182.7860  138.2110 C   0  0  1  0  0  3  0  0  0  0  0  0
  181.5580  181.8140  138.3020 C   0  0  0  0  0  2  0  0  0  0  0  0
  179.2360  174.0290  138.3640 O   0  0  0  0  0  0  0  0  0  0  0  0
  179.8190  174.9430  139.0120 C   0  0  0  0  0  0  0  0  0  0  0  0
  179.5400  173.8380  141.1080 C   0  0  0  0  0  2  0  0  0  0  0  0
  179.9410  174.8670  140.4360 N   0  0  0  0  0  0  0  0  0  0  0  0
  184.8340  177.2360  137.6750 S   0  0  0  0  0  1  0  0  0  0  0  0
  183.7330  177.5490  138.9560 O   0  0  0  0  0  0  0  0  0  0  0  0
  190.7700  177.3180  143.6370 S   0  0  0  0  0  1  0  0  0  0  0  0
  189.3270  176.3230  143.1630 C   0  0  0  0  0  2  0  0  0  0  0  0
  191.0390  176.7800  139.8520 C   0  0  0  0  0  2  0  0  0  0  0  0
  190.7290  174.8260  138.3190 O   0  0  0  0  0  0  0  0  0  0  0  0
  190.6220  174.2780  137.0850 O   0  0  0  0  0  0  0  0  0  0  0  0
  192.1740  175.9770  136.2690 C   0  0  0  0  0  2  0  0  0  0  0  0
  191.8340  174.4860  136.3840 C   0  0  1  0  0  3  0  0  0  0  0  0
  191.2380  176.1140  138.5300 C   0  0  0  0  0  0  0  0  0  0  0  0
  191.9700  176.6840  137.5740 C   0  0  0  0  0  3  0  0  0  0  0  0
  192.9700  173.6530  136.9180 C   0  0  0  0  0  0  0  0  0  0  0  0
  193.6370  174.0640  137.9050 O   0  0  0  0  0  0  0  0  0  0  0  0
  193.1140  170.6820  134.7780 O   0  0  0  0  0  0  0  0  0  0  0  0
  192.6280  171.7400  135.2600 C   0  0  0  0  0  0  0  0  0  0  0  0
  193.3370  172.4110  136.3080 N   0  0  0  0  0  2  0  0  0  0  0  0
  191.4050  172.2310  134.7950 O   0  0  0  0  0  0  0  0  0  0  0  0
  190.2490  171.4120  134.6540 C   0  0  0  0  0  2  0  0  0  0  0  0
  188.9820  172.2600  134.6280 C   0  0  0  0  0  2  0  0  0  0  0  0
  188.1300  172.0160  135.8630 C   0  0  0  0  0  2  0  0  0  0  0  0
  186.5300  172.8670  135.7230 S   0  0  0  0  0  1  0  0  0  0  0  0
  1  2  1  0  0  0  0
  2  5  2  0  0  0  0
  2 40  1  0  0  0  0
  3  6  1  0  0  0  0
  3  1  2  0  0  0  0
  4 10  1  0  0  0  0
  4  3  1  0  0  0  0
  6  9  2  0  0  0  0
  7  4  1  0  0  0  0
  8  4  1  0  0  0  0
  9 11  1  0  0  0  0
  9  5  1  0  0  0  0
 10  1  1  0  0  0  0
 11 12  1  6  0  0  0
 13 15  2  0  0  0  0
 13 11  1  0  0  0  0
 14 13  2  0  0  0  0
 16 13  1  0  0  0  0
 17 38  1  1  0  0  0
 17 16  1  0  0  0  0
 18 20  1  0  0  0  0
 19 34  1  1  0  0  0
 19 18  1  0  0  0  0
 21 24  1  1  0  0  0
 21 25  1  0  0  0  0
 21 23  1  0  0  0  0
 22 17  1  1  0  0  0
 22 28  1  0  0  0  0
 22 20  1  0  0  0  0
 23 19  1  0  0  0  0
 25 26  1  0  0  0  0
 26 22  1  0  0  0  0
 28 32  1  6  0  0  0
 28 29  1  0  0  0  0
 30 29  1  0  0  0  0
 31 27  1  6  0  0  0
 31 32  1  0  0  0  0
 31 30  1  0  0  0  0
 33 34  2  0  0  0  0
 34 36  1  0  0  0  0
 36 35  2  0  0  0  0
 37 38  1  0  0  0  0
 40 39  1  0  0  0  0
 41 10  1  0  0  0  0
 42 46  1  0  0  0  0
 43 42  1  0  0  0  0
 44 45  1  0  0  0  0
 44 47  1  0  0  0  0
 45 48  1  1  0  0  0
 45 43  1  0  0  0  0
 46 41  1  0  0  0  0
 47 46  2  0  0  0  0
 48 49  2  0  0  0  0
 50 51  2  0  0  0  0
 51 52  1  0  0  0  0
 52 48  1  0  0  0  0
 53 51  1  0  0  0  0
 54 53  1  0  0  0  0
 55 54  1  0  0  0  0
 55 56  1  0  0  0  0
 57 56  1  0  0  0  0
M  END
>  <MODEL>
2

>  <REMARK>
 VINA RESULT:      -5.7      3.707      6.793
  Name = 
  17 active torsions:
  status: ('A' for Active; 'I' for Inactive)
    1  A    between atoms: C_3  and  C_41
    2  A    between atoms: C_5  and  P_22
    3  A    between atoms: C_6  and  C_24
    4  A    between atoms: C_8  and  C_32
    5  A    between atoms: C_10  and  C_54
    6  A    between atoms: O_17  and  C_49
    7  A    between atoms: O_17  and  C_53
    8  A    between atoms: O_19  and  C_30
    9  A    between atoms: C_20  and  C_40
   10  A    between atoms: C_20  and  S_45
   11  A    between atoms: P_22  and  C_30
   12  A    between atoms: N_25  and  C_30
   13  A    between atoms: N_25  and  S_45
   14  A    between atoms: N_29  and  C_41
   15  A    between atoms: C_32  and  C_53
   16  A    between atoms: C_37  and  C_44
   17  A    between atoms: C_37  and  N_50
                            x       y       z     vdW  Elec       q    Type
                         _______ _______ _______ _____ _____    ______ ____

>  <TORSDO>
F 17

$$$$
=
 OpenBabel11062416413D

 57 61  0  0  1  0  0  0  0  0999 V2000
  189.7330  176.9050  138.6830 C   0  0  0  0  0  0  0  0  0  0  0  0
  188.4920  177.4820  138.8560 C   0  0  0  0  0  0  0  0  0  0  0  0
  190.0040  175.9440  137.6940 C   0  0  0  0  0  0  0  0  0  0  0  0
  191.3460  175.9220  138.1880 C   0  0  0  0  0  0  0  0  0  0  0  0
  187.4890  177.0320  137.9660 C   0  0  0  0  0  3  0  0  0  0  0  0
  189.0560  175.4890  136.7970 C   0  0  0  0  0  3  0  0  0  0  0  0
  191.6920  174.6960  138.7260 F   0  0  0  0  0  0  0  0  0  0  0  0
  192.2600  176.3740  137.2540 F   0  0  0  0  0  0  0  0  0  0  0  0
  187.7630  176.0570  136.9500 C   0  0  0  0  0  0  0  0  0  0  0  0
  191.1030  176.8860  139.1970 N   0  0  0  0  0  0  0  0  0  0  0  0
  186.6830  175.6330  136.0080 C   0  0  1  0  0  3  0  0  0  0  0  0
  186.2210  174.3720  136.3400 F   0  0  0  0  0  0  0  0  0  0  0  0
  185.3310  176.8010  136.0070 S   0  0  0  0  0  0  0  0  0  0  0  0
  185.1930  177.4040  137.3760 O   0  0  0  0  0  0  0  0  0  0  0  0
  185.6050  177.8980  135.0150 O   0  0  0  0  0  0  0  0  0  0  0  0
  183.8610  175.9810  135.6020 N   0  0  0  0  0  2  0  0  0  0  0  0
  182.8020  176.5070  136.4480 C   0  0  2  0  0  3  0  0  0  0  0  0
  183.4780  173.6060  136.2420 O   0  0  0  0  0  0  0  0  0  0  0  0
  182.8470  172.4000  135.9240 C   0  0  1  0  0  3  0  0  0  0  0  0
  183.1610  173.8400  137.4990 O   0  0  0  0  0  0  0  0  0  0  0  0
  180.6890  173.0490  134.7440 C   0  0  1  0  0  3  0  0  0  0  0  0
  182.0960  175.1610  137.4530 P   0  0  2  0  0  4  0  0  0  0  0  0
  182.1220  172.5430  134.5940 C   0  0  0  0  0  2  0  0  0  0  0  0
  179.9130  172.1730  135.5100 O   0  0  0  0  0  1  0  0  0  0  0  0
  180.5820  174.4960  135.2340 C   0  0  0  0  0  2  0  0  0  0  0  0
  180.5070  174.6160  136.7510 C   0  0  0  0  0  2  0  0  0  0  0  0
  182.7480  179.0520  139.6810 C   0  0  0  0  0  1  0  0  0  0  0  0
  181.8120  175.7490  139.1510 C   0  0  2  0  0  3  0  0  0  0  0  0
  180.6170  176.5760  139.2000 N   0  0  0  0  0  2  0  0  0  0  0  0
  180.8650  177.5510  140.2520 C   0  0  0  0  0  2  0  0  0  0  0  0
  182.3620  177.7540  140.3590 C   0  0  1  0  0  3  0  0  0  0  0  0
  182.9770  176.5980  139.6100 C   0  0  0  0  0  2  0  0  0  0  0  0
  183.5670  170.1640  136.2990 O   0  0  0  0  0  0  0  0  0  0  0  0
  183.8540  171.3020  135.8340 C   0  0  0  0  0  0  0  0  0  0  0  0
  186.0630  170.6560  135.2020 C   0  0  0  0  0  2  0  0  0  0  0  0
  185.1150  171.5360  135.1980 N   0  0  0  0  0  0  0  0  0  0  0  0
  181.5440  178.6330  136.3530 S   0  0  0  0  0  1  0  0  0  0  0  0
  181.8100  177.0860  135.6550 O   0  0  0  0  0  0  0  0  0  0  0  0
  186.4780  178.3660  140.4420 S   0  0  0  0  0  1  0  0  0  0  0  0
  188.2160  178.4770  139.9280 C   0  0  0  0  0  2  0  0  0  0  0  0
  191.8620  177.6200  140.1970 C   0  0  0  0  0  2  0  0  0  0  0  0
  191.0070  176.0510  141.9490 O   0  0  0  0  0  0  0  0  0  0  0  0
  190.7920  175.7000  143.2390 O   0  0  0  0  0  0  0  0  0  0  0  0
  190.5140  178.0670  143.7680 C   0  0  0  0  0  2  0  0  0  0  0  0
  189.9300  176.6500  143.8360 C   0  0  1  0  0  3  0  0  0  0  0  0
  191.3310  177.3600  141.5680 C   0  0  0  0  0  0  0  0  0  0  0  0
  191.0740  178.3600  142.4090 C   0  0  0  0  0  3  0  0  0  0  0  0
  188.5160  176.5610  143.3270 C   0  0  0  0  0  0  0  0  0  0  0  0
  188.2880  176.0340  142.2050 O   0  0  0  0  0  0  0  0  0  0  0  0
  186.4300  178.1160  145.9060 O   0  0  0  0  0  0  0  0  0  0  0  0
  187.4730  177.6200  145.4040 C   0  0  0  0  0  0  0  0  0  0  0  0
  187.4170  177.0930  144.0740 N   0  0  0  0  0  2  0  0  0  0  0  0
  188.6570  177.5640  146.1470 O   0  0  0  0  0  0  0  0  0  0  0  0
  188.7100  177.0470  147.4730 C   0  0  0  0  0  2  0  0  0  0  0  0
  189.9950  177.4780  148.1720 C   0  0  0  0  0  2  0  0  0  0  0  0
  191.1980  177.3300  147.2560 C   0  0  0  0  0  2  0  0  0  0  0  0
  191.9140  175.6650  147.3910 S   0  0  0  0  0  1  0  0  0  0  0  0
  1  2  1  0  0  0  0
  1 10  1  0  0  0  0
  2 40  1  0  0  0  0
  3  4  1  0  0  0  0
  3  1  2  0  0  0  0
  4  7  1  0  0  0  0
  4 10  1  0  0  0  0
  5  2  2  0  0  0  0
  6  9  2  0  0  0  0
  6  3  1  0  0  0  0
  8  4  1  0  0  0  0
  9  5  1  0  0  0  0
 10 41  1  0  0  0  0
 11 12  1  1  0  0  0
 11  9  1  0  0  0  0
 13 11  1  0  0  0  0
 13 14  2  0  0  0  0
 15 13  2  0  0  0  0
 16 13  1  0  0  0  0
 17 16  1  6  0  0  0
 18 20  1  0  0  0  0
 19 34  1  6  0  0  0
 19 18  1  0  0  0  0
 21 25  1  0  0  0  0
 21 24  1  1  0  0  0
 22 17  1  6  0  0  0
 22 20  1  0  0  0  0
 22 28  1  0  0  0  0
 23 21  1  0  0  0  0
 23 19  1  0  0  0  0
 25 26  1  0  0  0  0
 26 22  1  0  0  0  0
 28 29  1  0  0  0  0
 28 32  1  6  0  0  0
 29 30  1  0  0  0  0
 30 31  1  0  0  0  0
 31 27  1  6  0  0  0
 32 31  1  0  0  0  0
 34 33  2  0  0  0  0
 36 35  2  0  0  0  0
 36 34  1  0  0  0  0
 38 37  1  0  0  0  0
 38 17  1  0  0  0  0
 40 39  1  0  0  0  0
 41 46  1  0  0  0  0
 42 43  1  0  0  0  0
 43 45  1  0  0  0  0
 44 45  1  0  0  0  0
 45 48  1  6  0  0  0
 46 42  1  0  0  0  0
 46 47  2  0  0  0  0
 47 44  1  0  0  0  0
 48 52  1  0  0  0  0
 49 48  2  0  0  0  0
 51 50  2  0  0  0  0
 51 53  1  0  0  0  0
 52 51  1  0  0  0  0
 53 54  1  0  0  0  0
 54 55  1  0  0  0  0
 56 57  1  0  0  0  0
 56 55  1  0  0  0  0
M  END
>  <MODEL>
3

>  <REMARK>
 VINA RESULT:      -5.4      3.193      5.581
  Name = 
  17 active torsions:
  status: ('A' for Active; 'I' for Inactive)
    1  A    between atoms: C_3  and  C_41
    2  A    between atoms: C_5  and  P_22
    3  A    between atoms: C_6  and  C_24
    4  A    between atoms: C_8  and  C_32
    5  A    between atoms: C_10  and  C_54
    6  A    between atoms: O_17  and  C_49
    7  A    between atoms: O_17  and  C_53
    8  A    between atoms: O_19  and  C_30
    9  A    between atoms: C_20  and  C_40
   10  A    between atoms: C_20  and  S_45
   11  A    between atoms: P_22  and  C_30
   12  A    between atoms: N_25  and  C_30
   13  A    between atoms: N_25  and  S_45
   14  A    between atoms: N_29  and  C_41
   15  A    between atoms: C_32  and  C_53
   16  A    between atoms: C_37  and  C_44
   17  A    between atoms: C_37  and  N_50
                            x       y       z     vdW  Elec       q    Type
                         _______ _______ _______ _____ _____    ______ ____

>  <TORSDO>
F 17

$$$$
=
 OpenBabel11062416413D

 57 61  0  0  1  0  0  0  0  0999 V2000
  190.7590  177.0660  139.8420 C   0  0  0  0  0  0  0  0  0  0  0  0
  189.3860  177.0380  139.9720 C   0  0  0  0  0  0  0  0  0  0  0  0
  191.4240  176.7730  138.6400 C   0  0  0  0  0  0  0  0  0  0  0  0
  192.6450  177.0210  139.3420 C   0  0  0  0  0  0  0  0  0  0  0  0
  188.6770  176.6800  138.8020 C   0  0  0  0  0  3  0  0  0  0  0  0
  190.7680  176.4330  137.4720 C   0  0  0  0  0  3  0  0  0  0  0  0
  193.4390  175.8930  139.4410 F   0  0  0  0  0  0  0  0  0  0  0  0
  193.3300  178.1140  138.8410 F   0  0  0  0  0  0  0  0  0  0  0  0
  189.3520  176.3870  137.5710 C   0  0  0  0  0  0  0  0  0  0  0  0
  192.0040  177.3190  140.5690 N   0  0  0  0  0  0  0  0  0  0  0  0
  188.5650  176.0460  136.3470 C   0  0  1  0  0  3  0  0  0  0  0  0
  187.7480  174.9550  136.5880 F   0  0  0  0  0  0  0  0  0  0  0  0
  187.5840  177.4360  135.8010 S   0  0  0  0  0  0  0  0  0  0  0  0
  187.5070  178.4550  136.9020 O   0  0  0  0  0  0  0  0  0  0  0  0
  188.2230  178.0680  134.5940 O   0  0  0  0  0  0  0  0  0  0  0  0
  185.9840  176.8980  135.4170 N   0  0  0  0  0  2  0  0  0  0  0  0
  185.2560  176.7200  136.6640 C   0  0  2  0  0  3  0  0  0  0  0  0
  182.3800  176.9040  135.8860 O   0  0  0  0  0  0  0  0  0  0  0  0
  181.1220  176.6340  136.4350 C   0  0  1  0  0  3  0  0  0  0  0  0
  182.8230  175.7420  135.4510 O   0  0  0  0  0  0  0  0  0  0  0  0
  181.5080  176.4010  138.9390 C   0  0  1  0  0  3  0  0  0  0  0  0
  184.0910  175.3270  136.4990 P   0  0  2  0  0  4  0  0  0  0  0  0
  181.0150  177.2940  137.8030 C   0  0  0  0  0  2  0  0  0  0  0  0
  180.7630  175.2210  139.0250 O   0  0  0  0  0  1  0  0  0  0  0  0
  183.0160  176.1330  138.9180 C   0  0  0  0  0  2  0  0  0  0  0  0
  183.3980  174.8900  138.1240 C   0  0  0  0  0  2  0  0  0  0  0  0
  183.4220  170.8460  136.5380 C   0  0  0  0  0  1  0  0  0  0  0  0
  184.9610  173.8780  135.8270 C   0  0  2  0  0  3  0  0  0  0  0  0
  184.2840  173.4000  134.6320 N   0  0  0  0  0  2  0  0  0  0  0  0
  184.5040  171.9610  134.6120 C   0  0  0  0  0  2  0  0  0  0  0  0
  184.6950  171.4980  136.0410 C   0  0  1  0  0  3  0  0  0  0  0  0
  184.9570  172.7520  136.8370 C   0  0  0  0  0  2  0  0  0  0  0  0
  180.1090  178.3480  135.1360 O   0  0  0  0  0  0  0  0  0  0  0  0
  180.0490  177.1530  135.5390 C   0  0  0  0  0  0  0  0  0  0  0  0
  179.1790  175.0460  134.8320 C   0  0  0  0  0  2  0  0  0  0  0  0
  178.9850  176.2920  135.1190 N   0  0  0  0  0  0  0  0  0  0  0  0
  185.0470  178.2640  138.5820 S   0  0  0  0  0  1  0  0  0  0  0  0
  184.5650  177.8900  136.9770 O   0  0  0  0  0  0  0  0  0  0  0  0
  187.7930  178.8930  141.1450 S   0  0  0  0  0  1  0  0  0  0  0  0
  188.6990  177.3240  141.2620 C   0  0  0  0  0  2  0  0  0  0  0  0
  192.3710  177.7830  141.8970 C   0  0  0  0  0  2  0  0  0  0  0  0
  190.7180  178.4710  143.6460 O   0  0  0  0  0  0  0  0  0  0  0  0
  189.5750  178.2890  144.3510 O   0  0  0  0  0  0  0  0  0  0  0  0
  189.9270  175.8800  144.1720 C   0  0  0  0  0  2  0  0  0  0  0  0
  189.6770  177.0850  145.0870 C   0  0  1  0  0  3  0  0  0  0  0  0
  191.3100  177.4480  142.8930 C   0  0  0  0  0  0  0  0  0  0  0  0
  190.9760  176.1840  143.1460 C   0  0  0  0  0  3  0  0  0  0  0  0
  190.6510  177.1790  146.2320 C   0  0  0  0  0  0  0  0  0  0  0  0
  191.8670  176.9080  146.0420 O   0  0  0  0  0  0  0  0  0  0  0  0
  188.6690  178.1990  149.1400 O   0  0  0  0  0  0  0  0  0  0  0  0
  188.9140  177.9830  147.9240 C   0  0  0  0  0  0  0  0  0  0  0  0
  190.2220  177.5370  147.5500 N   0  0  0  0  0  2  0  0  0  0  0  0
  187.9290  178.2020  146.9560 O   0  0  0  0  0  0  0  0  0  0  0  0
  186.5600  177.8700  147.1630 C   0  0  0  0  0  2  0  0  0  0  0  0
  185.6600  178.6720  146.2280 C   0  0  0  0  0  2  0  0  0  0  0  0
  185.6520  178.0810  144.8290 C   0  0  0  0  0  2  0  0  0  0  0  0
  184.3600  178.8510  143.8080 S   0  0  0  0  0  1  0  0  0  0  0  0
  1  2  1  0  0  0  0
  1 10  1  0  0  0  0
  2 40  1  0  0  0  0
  3  4  1  0  0  0  0
  3  1  2  0  0  0  0
  4  7  1  0  0  0  0
  4 10  1  0  0  0  0
  5  2  2  0  0  0  0
  6  9  2  0  0  0  0
  6  3  1  0  0  0  0
  8  4  1  0  0  0  0
  9  5  1  0  0  0  0
 10 41  1  0  0  0  0
 11 12  1  1  0  0  0
 11  9  1  0  0  0  0
 13 11  1  0  0  0  0
 13 14  2  0  0  0  0
 15 13  2  0  0  0  0
 16 13  1  0  0  0  0
 17 16  1  6  0  0  0
 17 38  1  0  0  0  0
 18 19  1  0  0  0  0
 19 34  1  6  0  0  0
 19 23  1  0  0  0  0
 20 18  1  0  0  0  0
 20 22  1  0  0  0  0
 21 24  1  6  0  0  0
 22 17  1  1  0  0  0
 22 26  1  0  0  0  0
 23 21  1  0  0  0  0
 25 21  1  0  0  0  0
 26 25  1  0  0  0  0
 28 22  1  0  0  0  0
 28 32  1  1  0  0  0
 29 28  1  0  0  0  0
 30 29  1  0  0  0  0
 30 31  1  0  0  0  0
 31 27  1  1  0  0  0
 31 32  1  0  0  0  0
 33 34  2  0  0  0  0
 35 36  2  0  0  0  0
 36 34  1  0  0  0  0
 38 37  1  0  0  0  0
 39 40  1  0  0  0  0
 41 46  1  0  0  0  0
 42 43  1  0  0  0  0
 43 45  1  0  0  0  0
 44 45  1  0  0  0  0
 45 48  1  1  0  0  0
 46 47  2  0  0  0  0
 46 42  1  0  0  0  0
 47 44  1  0  0  0  0
 48 52  1  0  0  0  0
 49 48  2  0  0  0  0
 51 50  2  0  0  0  0
 52 51  1  0  0  0  0
 53 54  1  0  0  0  0
 53 51  1  0  0  0  0
 55 54  1  0  0  0  0
 56 55  1  0  0  0  0
 57 56  1  0  0  0  0
M  END
>  <MODEL>
4

>  <REMARK>
 VINA RESULT:      -4.9      3.237      5.551
  Name = 
  17 active torsions:
  status: ('A' for Active; 'I' for Inactive)
    1  A    between atoms: C_3  and  C_41
    2  A    between atoms: C_5  and  P_22
    3  A    between atoms: C_6  and  C_24
    4  A    between atoms: C_8  and  C_32
    5  A    between atoms: C_10  and  C_54
    6  A    between atoms: O_17  and  C_49
    7  A    between atoms: O_17  and  C_53
    8  A    between atoms: O_19  and  C_30
    9  A    between atoms: C_20  and  C_40
   10  A    between atoms: C_20  and  S_45
   11  A    between atoms: P_22  and  C_30
   12  A    between atoms: N_25  and  C_30
   13  A    between atoms: N_25  and  S_45
   14  A    between atoms: N_29  and  C_41
   15  A    between atoms: C_32  and  C_53
   16  A    between atoms: C_37  and  C_44
   17  A    between atoms: C_37  and  N_50
                            x       y       z     vdW  Elec       q    Type
                         _______ _______ _______ _____ _____    ______ ____

>  <TORSDO>
F 17

$$$$
=
 OpenBabel11062416413D

 57 61  0  0  1  0  0  0  0  0999 V2000
  188.5480  177.7360  141.4080 C   0  0  0  0  0  0  0  0  0  0  0  0
  188.2130  177.5140  142.7280 C   0  0  0  0  0  0  0  0  0  0  0  0
  187.6520  178.2660  140.4650 C   0  0  0  0  0  0  0  0  0  0  0  0
  188.7110  178.1630  139.5100 C   0  0  0  0  0  0  0  0  0  0  0  0
  186.8840  177.8510  143.0760 C   0  0  0  0  0  3  0  0  0  0  0  0
  186.3510  178.6190  140.7680 C   0  0  0  0  0  3  0  0  0  0  0  0
  188.4250  177.2670  138.4950 F   0  0  0  0  0  0  0  0  0  0  0  0
  189.1170  179.3970  139.0360 F   0  0  0  0  0  0  0  0  0  0  0  0
  185.9680  178.3990  142.1180 C   0  0  0  0  0  0  0  0  0  0  0  0
  189.6370  177.6240  140.4370 N   0  0  0  0  0  0  0  0  0  0  0  0
  184.5820  178.7720  142.5350 C   0  0  1  0  0  3  0  0  0  0  0  0
  184.5360  180.1000  142.9210 F   0  0  0  0  0  0  0  0  0  0  0  0
  183.4090  178.4750  141.2200 S   0  0  0  0  0  0  0  0  0  0  0  0
  183.5640  177.0660  140.7230 O   0  0  0  0  0  0  0  0  0  0  0  0
  182.0080  178.6620  141.7350 O   0  0  0  0  0  0  0  0  0  0  0  0
  183.7180  179.5700  139.9140 N   0  0  0  0  0  2  0  0  0  0  0  0
  183.3300  178.9150  138.6750 C   0  0  2  0  0  3  0  0  0  0  0  0
  181.3750  176.6650  138.5010 O   0  0  0  0  0  0  0  0  0  0  0  0
  180.4780  176.1200  137.5770 C   0  0  1  0  0  3  0  0  0  0  0  0
  180.7400  177.6870  139.0370 O   0  0  0  0  0  0  0  0  0  0  0  0
  181.1510  177.0870  135.3230 C   0  0  1  0  0  3  0  0  0  0  0  0
  181.5280  179.0660  138.4400 P   0  0  2  0  0  4  0  0  0  0  0  0
  181.1960  175.8800  136.2570 C   0  0  0  0  0  2  0  0  0  0  0  0
  179.8370  177.4280  134.9870 O   0  0  0  0  0  1  0  0  0  0  0  0
  181.9540  178.2940  135.8170 C   0  0  0  0  0  2  0  0  0  0  0  0
  181.1360  179.2540  136.6720 C   0  0  0  0  0  2  0  0  0  0  0  0
  178.9310  182.6340  137.4090 C   0  0  0  0  0  1  0  0  0  0  0  0
  180.9150  180.5280  139.3320 C   0  0  2  0  0  3  0  0  0  0  0  0
  179.5220  180.3360  139.7060 N   0  0  0  0  0  2  0  0  0  0  0  0
  178.9310  181.6670  139.6870 C   0  0  0  0  0  2  0  0  0  0  0  0
  179.7110  182.5110  138.7010 C   0  0  1  0  0  3  0  0  0  0  0  0
  180.9880  181.7500  138.4430 C   0  0  0  0  0  2  0  0  0  0  0  0
  179.3230  174.8240  139.2020 O   0  0  0  0  0  0  0  0  0  0  0  0
  179.9280  174.8330  138.0940 C   0  0  0  0  0  0  0  0  0  0  0  0
  179.6860  172.4810  137.7700 C   0  0  0  0  0  2  0  0  0  0  0  0
  180.0610  173.6340  137.3220 N   0  0  0  0  0  0  0  0  0  0  0  0
  184.8520  177.3940  137.4590 S   0  0  0  0  0  1  0  0  0  0  0  0
  183.6970  177.5700  138.7180 O   0  0  0  0  0  0  0  0  0  0  0  0
  190.2350  178.2270  144.3880 S   0  0  0  0  0  1  0  0  0  0  0  0
  189.1670  176.9260  143.7060 C   0  0  0  0  0  2  0  0  0  0  0  0
  191.0420  177.2500  140.4690 C   0  0  0  0  0  2  0  0  0  0  0  0
  190.5960  176.7150  138.0650 O   0  0  0  0  0  0  0  0  0  0  0  0
  190.9770  176.6230  136.7690 O   0  0  0  0  0  0  0  0  0  0  0  0
  193.2220  176.0520  137.5400 C   0  0  0  0  0  2  0  0  0  0  0  0
  192.0210  175.6730  136.6650 C   0  0  1  0  0  3  0  0  0  0  0  0
  191.5160  176.8360  139.1150 C   0  0  0  0  0  0  0  0  0  0  0  0
  192.7850  176.4910  138.9040 C   0  0  0  0  0  3  0  0  0  0  0  0
  191.5500  174.2580  136.8760 C   0  0  0  0  0  0  0  0  0  0  0  0
  190.5260  174.0390  137.5780 O   0  0  0  0  0  0  0  0  0  0  0  0
  193.9310  172.1370  135.0710 O   0  0  0  0  0  0  0  0  0  0  0  0
  193.3650  173.2080  135.4180 C   0  0  0  0  0  0  0  0  0  0  0  0
  192.2590  173.1440  136.3250 N   0  0  0  0  0  2  0  0  0  0  0  0
  193.7990  174.4340  134.9040 O   0  0  0  0  0  0  0  0  0  0  0  0
  195.1630  174.7010  134.5960 C   0  0  0  0  0  2  0  0  0  0  0  0
  196.0530  174.4400  135.8070 C   0  0  0  0  0  2  0  0  0  0  0  0
  197.2700  173.6130  135.4290 C   0  0  0  0  0  2  0  0  0  0  0  0
  198.7800  174.3100  136.1620 S   0  0  0  0  0  1  0  0  0  0  0  0
  1  2  1  0  0  0  0
  2  5  2  0  0  0  0
  2 40  1  0  0  0  0
  3  6  1  0  0  0  0
  3  1  2  0  0  0  0
  4 10  1  0  0  0  0
  4  3  1  0  0  0  0
  6  9  2  0  0  0  0
  7  4  1  0  0  0  0
  8  4  1  0  0  0  0
  9 11  1  0  0  0  0
  9  5  1  0  0  0  0
 10 41  1  0  0  0  0
 10  1  1  0  0  0  0
 11 12  1  6  0  0  0
 13 15  2  0  0  0  0
 13 11  1  0  0  0  0
 14 13  2  0  0  0  0
 16 13  1  0  0  0  0
 17 38  1  1  0  0  0
 17 16  1  0  0  0  0
 18 20  1  0  0  0  0
 19 34  1  1  0  0  0
 19 18  1  0  0  0  0
 21 24  1  1  0  0  0
 21 25  1  0  0  0  0
 21 23  1  0  0  0  0
 22 17  1  1  0  0  0
 22 20  1  0  0  0  0
 22 28  1  0  0  0  0
 23 19  1  0  0  0  0
 25 26  1  0  0  0  0
 26 22  1  0  0  0  0
 28 32  1  6  0  0  0
 28 29  1  0  0  0  0
 30 29  1  0  0  0  0
 31 27  1  6  0  0  0
 31 30  1  0  0  0  0
 32 31  1  0  0  0  0
 34 33  2  0  0  0  0
 36 35  2  0  0  0  0
 36 34  1  0  0  0  0
 37 38  1  0  0  0  0
 40 39  1  0  0  0  0
 42 46  1  0  0  0  0
 43 42  1  0  0  0  0
 44 47  1  0  0  0  0
 45 43  1  0  0  0  0
 45 48  1  1  0  0  0
 45 44  1  0  0  0  0
 46 41  1  0  0  0  0
 47 46  2  0  0  0  0
 48 49  2  0  0  0  0
 50 51  2  0  0  0  0
 51 52  1  0  0  0  0
 52 48  1  0  0  0  0
 53 51  1  0  0  0  0
 54 53  1  0  0  0  0
 54 55  1  0  0  0  0
 56 55  1  0  0  0  0
 56 57  1  0  0  0  0
M  END
>  <MODEL>
5

>  <REMARK>
 VINA RESULT:      -4.7      4.249      7.111
  Name = 
  17 active torsions:
  status: ('A' for Active; 'I' for Inactive)
    1  A    between atoms: C_3  and  C_41
    2  A    between atoms: C_5  and  P_22
    3  A    between atoms: C_6  and  C_24
    4  A    between atoms: C_8  and  C_32
    5  A    between atoms: C_10  and  C_54
    6  A    between atoms: O_17  and  C_49
    7  A    between atoms: O_17  and  C_53
    8  A    between atoms: O_19  and  C_30
    9  A    between atoms: C_20  and  C_40
   10  A    between atoms: C_20  and  S_45
   11  A    between atoms: P_22  and  C_30
   12  A    between atoms: N_25  and  C_30
   13  A    between atoms: N_25  and  S_45
   14  A    between atoms: N_29  and  C_41
   15  A    between atoms: C_32  and  C_53
   16  A    between atoms: C_37  and  C_44
   17  A    between atoms: C_37  and  N_50
                            x       y       z     vdW  Elec       q    Type
                         _______ _______ _______ _____ _____    ______ ____

>  <TORSDO>
F 17

$$$$
=
 OpenBabel11062416413D

 57 61  0  0  1  0  0  0  0  0999 V2000
  188.3470  177.8160  142.3730 C   0  0  0  0  0  0  0  0  0  0  0  0
  188.0320  177.6470  143.7060 C   0  0  0  0  0  0  0  0  0  0  0  0
  187.4830  178.4270  141.4490 C   0  0  0  0  0  0  0  0  0  0  0  0
  188.4950  178.1990  140.4640 C   0  0  0  0  0  0  0  0  0  0  0  0
  186.7590  178.1290  144.0890 C   0  0  0  0  0  3  0  0  0  0  0  0
  186.2380  178.9220  141.7860 C   0  0  0  0  0  3  0  0  0  0  0  0
  188.0830  177.3270  139.4730 F   0  0  0  0  0  0  0  0  0  0  0  0
  189.0160  179.3760  139.9590 F   0  0  0  0  0  0  0  0  0  0  0  0
  185.8770  178.7610  143.1500 C   0  0  0  0  0  0  0  0  0  0  0  0
  189.3870  177.5750  141.3710 N   0  0  0  0  0  0  0  0  0  0  0  0
  184.5530  179.2860  143.6030 C   0  0  1  0  0  3  0  0  0  0  0  0
  184.5080  180.6620  143.4660 F   0  0  0  0  0  0  0  0  0  0  0  0
  183.2130  178.5350  142.6910 S   0  0  0  0  0  0  0  0  0  0  0  0
  183.7000  177.2730  142.0380 O   0  0  0  0  0  0  0  0  0  0  0  0
  182.0860  178.1970  143.6280 O   0  0  0  0  0  0  0  0  0  0  0  0
  182.6650  179.6290  141.4660 N   0  0  0  0  0  2  0  0  0  0  0  0
  181.5550  179.0030  140.7660 C   0  0  2  0  0  3  0  0  0  0  0  0
  181.9060  177.1670  138.4370 O   0  0  0  0  0  0  0  0  0  0  0  0
  182.8170  176.9480  137.3990 C   0  0  1  0  0  3  0  0  0  0  0  0
  181.1530  178.1690  138.0280 O   0  0  0  0  0  0  0  0  0  0  0  0
  184.9380  178.1750  138.0830 C   0  0  1  0  0  3  0  0  0  0  0  0
  181.5900  179.4840  139.0080 P   0  0  2  0  0  4  0  0  0  0  0  0
  184.2210  176.8310  137.9750 C   0  0  0  0  0  2  0  0  0  0  0  0
  185.0870  178.7790  136.8310 O   0  0  0  0  0  1  0  0  0  0  0  0
  184.3320  179.1280  139.1170 C   0  0  0  0  0  2  0  0  0  0  0  0
  183.2580  180.0430  138.5400 C   0  0  0  0  0  2  0  0  0  0  0  0
  181.1080  182.7410  135.8930 C   0  0  0  0  0  1  0  0  0  0  0  0
  180.4170  180.8460  138.7220 C   0  0  2  0  0  3  0  0  0  0  0  0
  179.4800  180.4840  137.6710 N   0  0  0  0  0  2  0  0  0  0  0  0
  179.1400  181.7350  137.0090 C   0  0  0  0  0  2  0  0  0  0  0  0
  180.3070  182.6860  137.1780 C   0  0  1  0  0  3  0  0  0  0  0  0
  181.1580  182.0850  138.2700 C   0  0  0  0  0  2  0  0  0  0  0  0
  183.2620  175.2550  135.7890 O   0  0  0  0  0  0  0  0  0  0  0  0
  182.4670  175.6970  136.6650 C   0  0  0  0  0  0  0  0  0  0  0  0
  181.2250  174.0330  137.8410 C   0  0  0  0  0  2  0  0  0  0  0  0
  181.2590  174.9950  136.9790 N   0  0  0  0  0  0  0  0  0  0  0  0
  179.2930  178.0640  141.1020 S   0  0  0  0  0  1  0  0  0  0  0  0
  180.3490  179.3960  141.3470 O   0  0  0  0  0  0  0  0  0  0  0  0
  188.5610  177.4920  146.3610 S   0  0  0  0  0  1  0  0  0  0  0  0
  188.9480  176.9710  144.6640 C   0  0  0  0  0  2  0  0  0  0  0  0
  190.7440  177.0520  141.3670 C   0  0  0  0  0  2  0  0  0  0  0  0
  190.3960  176.9700  138.8900 O   0  0  0  0  0  0  0  0  0  0  0  0
  190.8050  177.1810  137.6160 O   0  0  0  0  0  0  0  0  0  0  0  0
  193.0870  176.7030  138.3400 C   0  0  0  0  0  2  0  0  0  0  0  0
  191.9480  176.3850  137.3640 C   0  0  1  0  0  3  0  0  0  0  0  0
  191.2810  176.9710  139.9760 C   0  0  0  0  0  0  0  0  0  0  0  0
  192.5830  176.8100  139.7480 C   0  0  0  0  0  3  0  0  0  0  0  0
  191.6310  174.9160  137.2720 C   0  0  0  0  0  0  0  0  0  0  0  0
  190.6240  174.4550  137.8740 O   0  0  0  0  0  0  0  0  0  0  0  0
  194.2660  173.4600  135.1840 O   0  0  0  0  0  0  0  0  0  0  0  0
  193.5790  174.3740  135.7120 C   0  0  0  0  0  0  0  0  0  0  0  0
  192.4690  174.0150  136.5410 N   0  0  0  0  0  2  0  0  0  0  0  0
  193.8850  175.7170  135.4680 O   0  0  0  0  0  0  0  0  0  0  0  0
  194.9340  176.1210  134.5940 C   0  0  0  0  0  2  0  0  0  0  0  0
  196.2090  176.4140  135.3760 C   0  0  0  0  0  2  0  0  0  0  0  0
  197.1420  175.2150  135.3800 C   0  0  0  0  0  2  0  0  0  0  0  0
  197.5650  174.7280  137.0790 S   0  0  0  0  0  1  0  0  0  0  0  0
  1  2  1  0  0  0  0
  2  5  2  0  0  0  0
  2 40  1  0  0  0  0
  3  6  1  0  0  0  0
  3  1  2  0  0  0  0
  4 10  1  0  0  0  0
  4  3  1  0  0  0  0
  6  9  2  0  0  0  0
  7  4  1  0  0  0  0
  8  4  1  0  0  0  0
  9 11  1  0  0  0  0
  9  5  1  0  0  0  0
 10  1  1  0  0  0  0
 11 12  1  6  0  0  0
 13 11  1  0  0  0  0
 13 15  2  0  0  0  0
 14 13  2  0  0  0  0
 16 13  1  0  0  0  0
 17 38  1  1  0  0  0
 17 16  1  0  0  0  0
 19 34  1  1  0  0  0
 19 23  1  0  0  0  0
 19 18  1  0  0  0  0
 20 18  1  0  0  0  0
 20 22  1  0  0  0  0
 21 24  1  6  0  0  0
 21 25  1  0  0  0  0
 22 17  1  1  0  0  0
 23 21  1  0  0  0  0
 26 22  1  0  0  0  0
 26 25  1  0  0  0  0
 28 32  1  6  0  0  0
 28 22  1  0  0  0  0
 29 28  1  0  0  0  0
 30 31  1  0  0  0  0
 30 29  1  0  0  0  0
 31 27  1  6  0  0  0
 31 32  1  0  0  0  0
 33 34  2  0  0  0  0
 34 36  1  0  0  0  0
 36 35  2  0  0  0  0
 37 38  1  0  0  0  0
 40 39  1  0  0  0  0
 41 10  1  0  0  0  0
 42 46  1  0  0  0  0
 43 42  1  0  0  0  0
 44 47  1  0  0  0  0
 45 48  1  1  0  0  0
 45 43  1  0  0  0  0
 45 44  1  0  0  0  0
 46 41  1  0  0  0  0
 47 46  2  0  0  0  0
 48 49  2  0  0  0  0
 50 51  2  0  0  0  0
 51 52  1  0  0  0  0
 52 48  1  0  0  0  0
 53 51  1  0  0  0  0
 54 55  1  0  0  0  0
 54 53  1  0  0  0  0
 55 56  1  0  0  0  0
 56 57  1  0  0  0  0
M  END
>  <MODEL>
6

>  <REMARK>
 VINA RESULT:      -4.7      3.944      6.954
  Name = 
  17 active torsions:
  status: ('A' for Active; 'I' for Inactive)
    1  A    between atoms: C_3  and  C_41
    2  A    between atoms: C_5  and  P_22
    3  A    between atoms: C_6  and  C_24
    4  A    between atoms: C_8  and  C_32
    5  A    between atoms: C_10  and  C_54
    6  A    between atoms: O_17  and  C_49
    7  A    between atoms: O_17  and  C_53
    8  A    between atoms: O_19  and  C_30
    9  A    between atoms: C_20  and  C_40
   10  A    between atoms: C_20  and  S_45
   11  A    between atoms: P_22  and  C_30
   12  A    between atoms: N_25  and  C_30
   13  A    between atoms: N_25  and  S_45
   14  A    between atoms: N_29  and  C_41
   15  A    between atoms: C_32  and  C_53
   16  A    between atoms: C_37  and  C_44
   17  A    between atoms: C_37  and  N_50
                            x       y       z     vdW  Elec       q    Type
                         _______ _______ _______ _____ _____    ______ ____

>  <TORSDO>
F 17

$$$$
=
 OpenBabel11062416413D

 57 61  0  0  1  0  0  0  0  0999 V2000
  185.4770  178.2080  144.1730 C   0  0  0  0  0  0  0  0  0  0  0  0
  186.2300  177.9210  145.2930 C   0  0  0  0  0  0  0  0  0  0  0  0
  185.9530  178.0410  142.8620 C   0  0  0  0  0  0  0  0  0  0  0  0
  184.6780  178.5150  142.4180 C   0  0  0  0  0  0  0  0  0  0  0  0
  187.5370  177.4470  145.0340 C   0  0  0  0  0  3  0  0  0  0  0  0
  187.2180  177.5680  142.5670 C   0  0  0  0  0  3  0  0  0  0  0  0
  184.7670  179.7130  141.7330 F   0  0  0  0  0  0  0  0  0  0  0  0
  183.9700  177.5520  141.7220 F   0  0  0  0  0  0  0  0  0  0  0  0
  188.0240  177.2680  143.6970 C   0  0  0  0  0  0  0  0  0  0  0  0
  184.1710  178.6970  143.7280 N   0  0  0  0  0  0  0  0  0  0  0  0
  189.4000  176.7330  143.4660 C   0  0  1  0  0  3  0  0  0  0  0  0
  189.3610  175.3620  143.2820 F   0  0  0  0  0  0  0  0  0  0  0  0
  190.1720  177.5180  142.0600 S   0  0  0  0  0  0  0  0  0  0  0  0
  189.4340  178.7840  141.7280 O   0  0  0  0  0  0  0  0  0  0  0  0
  191.6020  177.8570  142.3850 O   0  0  0  0  0  0  0  0  0  0  0  0
  190.1050  176.4530  140.6950 N   0  0  0  0  0  2  0  0  0  0  0  0
  190.9840  176.9840  139.6650 C   0  0  2  0  0  3  0  0  0  0  0  0
  190.2050  174.6830  137.9290 O   0  0  0  0  0  0  0  0  0  0  0  0
  190.4670  174.2000  136.6430 C   0  0  1  0  0  3  0  0  0  0  0  0
  189.2890  175.6160  137.7670 O   0  0  0  0  0  0  0  0  0  0  0  0
  192.5570  175.4240  135.8680 C   0  0  1  0  0  3  0  0  0  0  0  0
  190.0830  177.0820  138.0830 P   0  0  2  0  0  4  0  0  0  0  0  0
  191.9720  174.1300  136.4260 C   0  0  0  0  0  2  0  0  0  0  0  0
  192.0060  175.7420  134.6230 O   0  0  0  0  0  1  0  0  0  0  0  0
  192.5100  176.6060  136.8410 C   0  0  0  0  0  2  0  0  0  0  0  0
  191.2370  177.4360  136.7210 C   0  0  0  0  0  2  0  0  0  0  0  0
  186.5250  178.3530  135.5810 C   0  0  0  0  0  1  0  0  0  0  0  0
  188.8480  178.4150  138.1640 C   0  0  2  0  0  3  0  0  0  0  0  0
  187.5880  177.8980  138.6740 N   0  0  0  0  0  2  0  0  0  0  0  0
  186.5540  178.6970  138.0320 C   0  0  0  0  0  2  0  0  0  0  0  0
  187.0990  179.1890  136.7070 C   0  0  1  0  0  3  0  0  0  0  0  0
  188.5900  178.9710  136.7800 C   0  0  0  0  0  2  0  0  0  0  0  0
  190.3520  172.0630  135.6070 O   0  0  0  0  0  0  0  0  0  0  0  0
  189.8680  172.8440  136.4730 C   0  0  0  0  0  0  0  0  0  0  0  0
  187.5570  172.4250  136.8910 C   0  0  0  0  0  2  0  0  0  0  0  0
  188.7810  172.4290  137.3070 N   0  0  0  0  0  0  0  0  0  0  0  0
  193.4230  177.1360  140.0340 S   0  0  0  0  0  1  0  0  0  0  0  0
  192.1020  176.1610  139.5310 O   0  0  0  0  0  0  0  0  0  0  0  0
  186.9490  177.5590  147.8820 S   0  0  0  0  0  1  0  0  0  0  0  0
  185.7200  178.1320  146.6750 C   0  0  0  0  0  2  0  0  0  0  0  0
  182.9150  179.0680  144.3600 C   0  0  0  0  0  2  0  0  0  0  0  0
  181.9600  178.7750  142.0650 O   0  0  0  0  0  0  0  0  0  0  0  0
  181.0430  178.2690  141.2050 O   0  0  0  0  0  0  0  0  0  0  0  0
  179.3820  178.4320  142.9870 C   0  0  0  0  0  2  0  0  0  0  0  0
  179.7670  178.7800  141.5440 C   0  0  1  0  0  3  0  0  0  0  0  0
  181.7600  178.7990  143.4520 C   0  0  0  0  0  0  0  0  0  0  0  0
  180.5230  178.6720  143.9280 C   0  0  0  0  0  3  0  0  0  0  0  0
  179.6160  180.2430  141.2210 C   0  0  0  0  0  0  0  0  0  0  0  0
  179.6620  181.0960  142.1480 O   0  0  0  0  0  0  0  0  0  0  0  0
  179.1290  180.4140  137.5930 O   0  0  0  0  0  0  0  0  0  0  0  0
  179.4190  179.8860  138.6990 C   0  0  0  0  0  0  0  0  0  0  0  0
  179.3870  180.6930  139.8810 N   0  0  0  0  0  2  0  0  0  0  0  0
  179.7880  178.5380  138.7630 O   0  0  0  0  0  0  0  0  0  0  0  0
  179.7910  177.6860  137.6220 C   0  0  0  0  0  2  0  0  0  0  0  0
  180.9830  177.9890  136.7210 C   0  0  0  0  0  2  0  0  0  0  0  0
  182.2650  177.3990  137.2860 C   0  0  0  0  0  2  0  0  0  0  0  0
  183.0700  178.5670  138.4220 S   0  0  0  0  0  1  0  0  0  0  0  0
  1  2  1  0  0  0  0
  2 40  1  0  0  0  0
  3  1  2  0  0  0  0
  4  3  1  0  0  0  0
  4 10  1  0  0  0  0
  5  2  2  0  0  0  0
  6  3  1  0  0  0  0
  6  9  2  0  0  0  0
  7  4  1  0  0  0  0
  8  4  1  0  0  0  0
  9  5  1  0  0  0  0
 10  1  1  0  0  0  0
 10 41  1  0  0  0  0
 11 12  1  6  0  0  0
 11  9  1  0  0  0  0
 13 15  2  0  0  0  0
 13 11  1  0  0  0  0
 14 13  2  0  0  0  0
 16 13  1  0  0  0  0
 17 38  1  6  0  0  0
 17 16  1  0  0  0  0
 19 34  1  1  0  0  0
 19 18  1  0  0  0  0
 20 18  1  0  0  0  0
 20 22  1  0  0  0  0
 21 24  1  6  0  0  0
 21 23  1  0  0  0  0
 21 25  1  0  0  0  0
 22 28  1  0  0  0  0
 22 17  1  1  0  0  0
 23 19  1  0  0  0  0
 26 25  1  0  0  0  0
 26 22  1  0  0  0  0
 28 32  1  6  0  0  0
 28 29  1  0  0  0  0
 30 29  1  0  0  0  0
 31 27  1  6  0  0  0
 31 32  1  0  0  0  0
 31 30  1  0  0  0  0
 33 34  2  0  0  0  0
 34 36  1  0  0  0  0
 35 36  2  0  0  0  0
 38 37  1  0  0  0  0
 40 39  1  0  0  0  0
 42 46  1  0  0  0  0
 43 45  1  0  0  0  0
 43 42  1  0  0  0  0
 44 47  1  0  0  0  0
 45 48  1  1  0  0  0
 45 44  1  0  0  0  0
 46 47  2  0  0  0  0
 46 41  1  0  0  0  0
 48 49  2  0  0  0  0
 50 51  2  0  0  0  0
 51 53  1  0  0  0  0
 51 52  1  0  0  0  0
 52 48  1  0  0  0  0
 54 53  1  0  0  0  0
 55 56  1  0  0  0  0
 55 54  1  0  0  0  0
 56 57  1  0  0  0  0
M  END
>  <MODEL>
7

>  <REMARK>
 VINA RESULT:      -4.6      3.528     10.367
  Name = 
  17 active torsions:
  status: ('A' for Active; 'I' for Inactive)
    1  A    between atoms: C_3  and  C_41
    2  A    between atoms: C_5  and  P_22
    3  A    between atoms: C_6  and  C_24
    4  A    between atoms: C_8  and  C_32
    5  A    between atoms: C_10  and  C_54
    6  A    between atoms: O_17  and  C_49
    7  A    between atoms: O_17  and  C_53
    8  A    between atoms: O_19  and  C_30
    9  A    between atoms: C_20  and  C_40
   10  A    between atoms: C_20  and  S_45
   11  A    between atoms: P_22  and  C_30
   12  A    between atoms: N_25  and  C_30
   13  A    between atoms: N_25  and  S_45
   14  A    between atoms: N_29  and  C_41
   15  A    between atoms: C_32  and  C_53
   16  A    between atoms: C_37  and  C_44
   17  A    between atoms: C_37  and  N_50
                            x       y       z     vdW  Elec       q    Type
                         _______ _______ _______ _____ _____    ______ ____

>  <TORSDO>
F 17

$$$$
=
 OpenBabel11062416413D

 57 61  0  0  1  0  0  0  0  0999 V2000
  188.1880  177.8000  139.1710 C   0  0  0  0  0  0  0  0  0  0  0  0
  187.6420  178.3190  140.3270 C   0  0  0  0  0  0  0  0  0  0  0  0
  187.4520  177.6110  137.9900 C   0  0  0  0  0  0  0  0  0  0  0  0
  188.6570  177.1070  137.4070 C   0  0  0  0  0  0  0  0  0  0  0  0
  186.2680  178.6460  140.2500 C   0  0  0  0  0  3  0  0  0  0  0  0
  186.1120  177.9290  137.8700 C   0  0  0  0  0  3  0  0  0  0  0  0
  188.5590  175.7720  137.0560 F   0  0  0  0  0  0  0  0  0  0  0  0
  189.1140  177.9010  136.3710 F   0  0  0  0  0  0  0  0  0  0  0  0
  185.5150  178.4610  139.0440 C   0  0  0  0  0  0  0  0  0  0  0  0
  189.4250  177.2840  138.5840 N   0  0  0  0  0  0  0  0  0  0  0  0
  184.0730  178.8510  138.9940 C   0  0  1  0  0  3  0  0  0  0  0  0
  183.8570  179.7790  137.9910 F   0  0  0  0  0  0  0  0  0  0  0  0
  183.0260  177.4250  138.7440 S   0  0  0  0  0  0  0  0  0  0  0  0
  182.3870  177.5070  137.3880 O   0  0  0  0  0  0  0  0  0  0  0  0
  183.8490  176.1680  138.8220 O   0  0  0  0  0  0  0  0  0  0  0  0
  181.7840  177.4020  139.9510 N   0  0  0  0  0  2  0  0  0  0  0  0
  180.6870  178.2350  139.4860 C   0  0  2  0  0  3  0  0  0  0  0  0
  182.1140  178.7740  142.0520 O   0  0  0  0  0  0  0  0  0  0  0  0
  181.8080  179.0910  143.3790 C   0  0  1  0  0  3  0  0  0  0  0  0
  182.0470  179.9180  141.4010 O   0  0  0  0  0  0  0  0  0  0  0  0
  179.3410  178.5390  143.6590 C   0  0  1  0  0  3  0  0  0  0  0  0
  180.6620  179.7970  140.4270 P   0  0  2  0  0  4  0  0  0  0  0  0
  180.7810  178.1010  143.9110 C   0  0  0  0  0  2  0  0  0  0  0  0
  179.0580  179.7570  144.2860 O   0  0  0  0  0  1  0  0  0  0  0  0
  178.9330  178.5380  142.1830 C   0  0  0  0  0  2  0  0  0  0  0  0
  179.1840  179.8710  141.4870 C   0  0  0  0  0  2  0  0  0  0  0  0
  179.6080  180.3800  136.0590 C   0  0  0  0  0  1  0  0  0  0  0  0
  180.6260  181.2050  139.2760 C   0  0  2  0  0  3  0  0  0  0  0  0
  179.2570  181.6560  139.0830 N   0  0  0  0  0  2  0  0  0  0  0  0
  179.2070  182.1680  137.7210 C   0  0  0  0  0  2  0  0  0  0  0  0
  180.2640  181.4460  136.9110 C   0  0  1  0  0  3  0  0  0  0  0  0
  181.1670  180.7880  137.9250 C   0  0  0  0  0  2  0  0  0  0  0  0
  182.9600  179.3030  145.4490 O   0  0  0  0  0  0  0  0  0  0  0  0
  183.0420  179.0380  144.2170 C   0  0  0  0  0  0  0  0  0  0  0  0
  185.3400  179.4110  143.6970 C   0  0  0  0  0  2  0  0  0  0  0  0
  184.2910  178.6590  143.6310 N   0  0  0  0  0  0  0  0  0  0  0  0
  179.0510  177.0460  138.0650 S   0  0  0  0  0  1  0  0  0  0  0  0
  179.4790  177.5570  139.6480 O   0  0  0  0  0  0  0  0  0  0  0  0
  189.1720  176.9000  142.0580 S   0  0  0  0  0  1  0  0  0  0  0  0
  188.4310  178.4870  141.5780 C   0  0  0  0  0  2  0  0  0  0  0  0
  190.8110  177.1470  139.0020 C   0  0  0  0  0  2  0  0  0  0  0  0
  191.0250  176.1090  136.7340 O   0  0  0  0  0  0  0  0  0  0  0  0
  191.7520  175.7250  135.6570 O   0  0  0  0  0  0  0  0  0  0  0  0
  193.6230  175.2820  137.1610 C   0  0  0  0  0  2  0  0  0  0  0  0
  192.6930  174.7490  136.0630 C   0  0  1  0  0  3  0  0  0  0  0  0
  191.6140  176.4340  137.9630 C   0  0  0  0  0  0  0  0  0  0  0  0
  192.8550  176.0200  138.2150 C   0  0  0  0  0  3  0  0  0  0  0  0
  192.0580  173.4280  136.4070 C   0  0  0  0  0  0  0  0  0  0  0  0
  190.9770  173.4040  137.0530 O   0  0  0  0  0  0  0  0  0  0  0  0
  194.2940  170.8660  135.0410 O   0  0  0  0  0  0  0  0  0  0  0  0
  193.8300  172.0240  135.2170 C   0  0  0  0  0  0  0  0  0  0  0  0
  192.6720  172.1870  136.0430 N   0  0  0  0  0  2  0  0  0  0  0  0
  194.4240  173.1260  134.5940 O   0  0  0  0  0  0  0  0  0  0  0  0
  195.8300  173.3550  134.6130 C   0  0  0  0  0  2  0  0  0  0  0  0
  196.3090  173.6620  136.0280 C   0  0  0  0  0  2  0  0  0  0  0  0
  197.6280  174.4170  136.0120 C   0  0  0  0  0  2  0  0  0  0  0  0
  198.4200  174.3730  137.6470 S   0  0  0  0  0  1  0  0  0  0  0  0
  1  2  1  0  0  0  0
  2 40  1  0  0  0  0
  3  1  2  0  0  0  0
  4  3  1  0  0  0  0
  4 10  1  0  0  0  0
  5  2  2  0  0  0  0
  6  3  1  0  0  0  0
  6  9  2  0  0  0  0
  7  4  1  0  0  0  0
  8  4  1  0  0  0  0
  9  5  1  0  0  0  0
 10 41  1  0  0  0  0
 10  1  1  0  0  0  0
 11 12  1  6  0  0  0
 11  9  1  0  0  0  0
 13 15  2  0  0  0  0
 13 11  1  0  0  0  0
 13 16  1  0  0  0  0
 14 13  2  0  0  0  0
 17 38  1  1  0  0  0
 17 16  1  0  0  0  0
 18 19  1  0  0  0  0
 19 23  1  0  0  0  0
 19 34  1  1  0  0  0
 20 18  1  0  0  0  0
 21 23  1  0  0  0  0
 21 24  1  6  0  0  0
 22 17  1  6  0  0  0
 22 20  1  0  0  0  0
 22 26  1  0  0  0  0
 25 21  1  0  0  0  0
 26 25  1  0  0  0  0
 28 32  1  6  0  0  0
 28 22  1  0  0  0  0
 29 28  1  0  0  0  0
 30 29  1  0  0  0  0
 31 27  1  6  0  0  0
 31 30  1  0  0  0  0
 31 32  1  0  0  0  0
 34 33  2  0  0  0  0
 36 35  2  0  0  0  0
 36 34  1  0  0  0  0
 37 38  1  0  0  0  0
 40 39  1  0  0  0  0
 42 46  1  0  0  0  0
 43 45  1  0  0  0  0
 43 42  1  0  0  0  0
 44 47  1  0  0  0  0
 45 48  1  1  0  0  0
 45 44  1  0  0  0  0
 46 47  2  0  0  0  0
 46 41  1  0  0  0  0
 48 49  2  0  0  0  0
 50 51  2  0  0  0  0
 51 52  1  0  0  0  0
 52 48  1  0  0  0  0
 53 54  1  0  0  0  0
 53 51  1  0  0  0  0
 54 55  1  0  0  0  0
 56 55  1  0  0  0  0
 56 57  1  0  0  0  0
M  END
>  <MODEL>
8

>  <REMARK>
 VINA RESULT:      -4.4      4.086      6.018
  Name = 
  17 active torsions:
  status: ('A' for Active; 'I' for Inactive)
    1  A    between atoms: C_3  and  C_41
    2  A    between atoms: C_5  and  P_22
    3  A    between atoms: C_6  and  C_24
    4  A    between atoms: C_8  and  C_32
    5  A    between atoms: C_10  and  C_54
    6  A    between atoms: O_17  and  C_49
    7  A    between atoms: O_17  and  C_53
    8  A    between atoms: O_19  and  C_30
    9  A    between atoms: C_20  and  C_40
   10  A    between atoms: C_20  and  S_45
   11  A    between atoms: P_22  and  C_30
   12  A    between atoms: N_25  and  C_30
   13  A    between atoms: N_25  and  S_45
   14  A    between atoms: N_29  and  C_41
   15  A    between atoms: C_32  and  C_53
   16  A    between atoms: C_37  and  C_44
   17  A    between atoms: C_37  and  N_50
                            x       y       z     vdW  Elec       q    Type
                         _______ _______ _______ _____ _____    ______ ____

>  <TORSDO>
F 17

$$$$
=
 OpenBabel11062416413D

 57 61  0  0  1  0  0  0  0  0999 V2000
  185.4940  176.9590  137.3480 C   0  0  0  0  0  0  0  0  0  0  0  0
  186.5480  176.3940  136.6610 C   0  0  0  0  0  0  0  0  0  0  0  0
  185.6610  177.9160  138.3630 C   0  0  0  0  0  0  0  0  0  0  0  0
  184.2360  177.9300  138.4830 C   0  0  0  0  0  0  0  0  0  0  0  0
  187.8310  176.8400  137.0540 C   0  0  0  0  0  3  0  0  0  0  0  0
  186.8960  178.3870  138.7670 C   0  0  0  0  0  3  0  0  0  0  0  0
  183.8030  177.4720  139.7140 F   0  0  0  0  0  0  0  0  0  0  0  0
  183.6890  179.1540  138.1450 F   0  0  0  0  0  0  0  0  0  0  0  0
  188.0060  177.8220  138.0850 C   0  0  0  0  0  0  0  0  0  0  0  0
  184.0350  176.9650  137.4660 N   0  0  0  0  0  0  0  0  0  0  0  0
  189.3780  178.2900  138.4480 C   0  0  1  0  0  3  0  0  0  0  0  0
  189.4370  179.6730  138.4270 F   0  0  0  0  0  0  0  0  0  0  0  0
  189.8650  177.6800  140.0550 S   0  0  0  0  0  0  0  0  0  0  0  0
  189.4430  176.2460  140.1920 O   0  0  0  0  0  0  0  0  0  0  0  0
  191.3600  177.7660  140.2020 O   0  0  0  0  0  0  0  0  0  0  0  0
  189.0880  178.6170  141.2870 N   0  0  0  0  0  2  0  0  0  0  0  0
  189.8210  178.4260  142.5290 C   0  0  2  0  0  3  0  0  0  0  0  0
  190.4040  177.7500  145.3780 O   0  0  0  0  0  0  0  0  0  0  0  0
  190.9080  176.6790  146.1220 C   0  0  1  0  0  3  0  0  0  0  0  0
  189.1380  177.4540  145.1630 O   0  0  0  0  0  0  0  0  0  0  0  0
  192.0610  175.1610  144.4380 C   0  0  1  0  0  3  0  0  0  0  0  0
  189.0370  177.1010  143.5050 P   0  0  2  0  0  4  0  0  0  0  0  0
  192.2300  176.2230  145.5220 C   0  0  0  0  0  2  0  0  0  0  0  0
  191.4520  174.0070  144.9420 O   0  0  0  0  0  1  0  0  0  0  0  0
  191.3790  175.6670  143.1640 C   0  0  0  0  0  2  0  0  0  0  0  0
  189.8630  175.5100  143.1870 C   0  0  0  0  0  2  0  0  0  0  0  0
  185.1970  179.2220  144.6390 C   0  0  0  0  0  1  0  0  0  0  0  0
  187.2850  176.9520  143.0400 C   0  0  2  0  0  3  0  0  0  0  0  0
  186.9270  178.0060  142.1030 N   0  0  0  0  0  2  0  0  0  0  0  0
  185.5250  178.2970  142.3670 C   0  0  0  0  0  2  0  0  0  0  0  0
  185.2400  177.9530  143.8140 C   0  0  1  0  0  3  0  0  0  0  0  0
  186.4060  177.1060  144.2620 C   0  0  0  0  0  2  0  0  0  0  0  0
  192.1300  176.6730  148.1620 O   0  0  0  0  0  0  0  0  0  0  0  0
  191.1140  177.0930  147.5410 C   0  0  0  0  0  0  0  0  0  0  0  0
  188.9490  177.6550  148.3730 C   0  0  0  0  0  2  0  0  0  0  0  0
  190.1850  177.9800  148.1730 N   0  0  0  0  0  0  0  0  0  0  0  0
  191.4020  179.6850  143.9520 S   0  0  0  0  0  1  0  0  0  0  0  0
  189.8330  179.6160  143.2560 O   0  0  0  0  0  0  0  0  0  0  0  0
  185.8590  173.7880  136.3700 S   0  0  0  0  0  1  0  0  0  0  0  0
  186.3530  175.3610  135.6080 C   0  0  0  0  0  2  0  0  0  0  0  0
  182.9200  176.3480  136.7640 C   0  0  0  0  0  2  0  0  0  0  0  0
  181.5230  178.3620  137.2770 O   0  0  0  0  0  0  0  0  0  0  0  0
  180.3330  179.0020  137.3640 O   0  0  0  0  0  0  0  0  0  0  0  0
  179.3050  176.8700  137.9620 C   0  0  0  0  0  2  0  0  0  0  0  0
  179.5270  178.3430  138.3230 C   0  0  1  0  0  3  0  0  0  0  0  0
  181.6230  176.9680  137.1730 C   0  0  0  0  0  0  0  0  0  0  0  0
  180.5830  176.2170  137.5290 C   0  0  0  0  0  3  0  0  0  0  0  0
  180.0110  178.5470  139.7350 C   0  0  0  0  0  0  0  0  0  0  0  0
  180.5980  177.6070  140.3360 O   0  0  0  0  0  0  0  0  0  0  0  0
  179.0530  181.9680  140.6310 O   0  0  0  0  0  0  0  0  0  0  0  0
  179.2500  180.9810  139.8730 C   0  0  0  0  0  0  0  0  0  0  0  0
  179.7910  179.7780  140.4300 N   0  0  0  0  0  2  0  0  0  0  0  0
  178.9660  181.0720  138.5070 O   0  0  0  0  0  0  0  0  0  0  0  0
  179.2010  182.2540  137.7490 C   0  0  0  0  0  2  0  0  0  0  0  0
  180.6960  182.4960  137.5700 C   0  0  0  0  0  2  0  0  0  0  0  0
  180.9650  183.8590  136.9540 C   0  0  0  0  0  2  0  0  0  0  0  0
  180.1180  184.0260  135.3550 S   0  0  0  0  0  1  0  0  0  0  0  0
  1 10  1  0  0  0  0
  1  3  1  0  0  0  0
  2  5  1  0  0  0  0
  2  1  2  0  0  0  0
  3  4  1  0  0  0  0
  3  6  2  0  0  0  0
  4  7  1  0  0  0  0
  5  9  2  0  0  0  0
  8  4  1  0  0  0  0
  9 11  1  0  0  0  0
  9  6  1  0  0  0  0
 10  4  1  0  0  0  0
 11 12  1  1  0  0  0
 11 13  1  0  0  0  0
 13 14  2  0  0  0  0
 13 15  2  0  0  0  0
 13 16  1  0  0  0  0
 17 16  1  6  0  0  0
 17 38  1  0  0  0  0
 18 19  1  0  0  0  0
 19 34  1  1  0  0  0
 20 18  1  0  0  0  0
 21 24  1  1  0  0  0
 21 23  1  0  0  0  0
 22 17  1  6  0  0  0
 22 20  1  0  0  0  0
 23 19  1  0  0  0  0
 25 26  1  0  0  0  0
 25 21  1  0  0  0  0
 26 22  1  0  0  0  0
 28 22  1  0  0  0  0
 28 32  1  1  0  0  0
 29 30  1  0  0  0  0
 29 28  1  0  0  0  0
 30 31  1  0  0  0  0
 31 32  1  0  0  0  0
 31 27  1  1  0  0  0
 34 33  2  0  0  0  0
 34 36  1  0  0  0  0
 36 35  2  0  0  0  0
 38 37  1  0  0  0  0
 40 39  1  0  0  0  0
 40  2  1  0  0  0  0
 41 46  1  0  0  0  0
 41 10  1  0  0  0  0
 42 43  1  0  0  0  0
 43 45  1  0  0  0  0
 44 45  1  0  0  0  0
 45 48  1  1  0  0  0
 46 42  1  0  0  0  0
 46 47  2  0  0  0  0
 47 44  1  0  0  0  0
 48 49  2  0  0  0  0
 48 52  1  0  0  0  0
 51 52  1  0  0  0  0
 51 50  2  0  0  0  0
 53 51  1  0  0  0  0
 54 53  1  0  0  0  0
 55 54  1  0  0  0  0
 56 55  1  0  0  0  0
 57 56  1  0  0  0  0
M  END
>  <MODEL>
9

>  <REMARK>
 VINA RESULT:      -3.8      2.896      9.910
  Name = 
  17 active torsions:
  status: ('A' for Active; 'I' for Inactive)
    1  A    between atoms: C_3  and  C_41
    2  A    between atoms: C_5  and  P_22
    3  A    between atoms: C_6  and  C_24
    4  A    between atoms: C_8  and  C_32
    5  A    between atoms: C_10  and  C_54
    6  A    between atoms: O_17  and  C_49
    7  A    between atoms: O_17  and  C_53
    8  A    between atoms: O_19  and  C_30
    9  A    between atoms: C_20  and  C_40
   10  A    between atoms: C_20  and  S_45
   11  A    between atoms: P_22  and  C_30
   12  A    between atoms: N_25  and  C_30
   13  A    between atoms: N_25  and  S_45
   14  A    between atoms: N_29  and  C_41
   15  A    between atoms: C_32  and  C_53
   16  A    between atoms: C_37  and  C_44
   17  A    between atoms: C_37  and  N_50
                            x       y       z     vdW  Elec       q    Type
                         _______ _______ _______ _____ _____    ______ ____

>  <TORSDO>
F 17

$$$$
