=
 OpenBabel11062412273D

 37 41  0  0  1  0  0  0  0  0999 V2000
  187.8400  177.3980  146.7600 O   0  0  0  0  0  0  0  0  0  0  0  0
  181.8090  177.4250  138.8610 O   0  0  0  0  0  0  0  0  0  0  0  0
  182.1100  178.6540  141.4220 C   0  0  0  0  0  3  0  0  0  0  0  0
  187.5340  176.7830  144.4600 C   0  0  1  0  0  3  0  0  0  0  0  0
  187.5750  177.7850  139.0190 C   0  0  0  0  0  2  0  0  0  0  0  0
  190.0510  178.5750  141.7360 O   0  0  0  0  0  0  0  0  0  0  0  0
  186.5500  177.7560  137.8950 C   0  0  0  0  0  2  0  0  0  0  0  0
  190.8160  177.9060  140.7630 C   0  0  2  0  0  3  0  0  0  0  0  0
  184.5980  178.3210  142.5400 C   0  0  0  0  0  0  0  0  0  0  0  0
  187.1480  177.5310  145.7180 C   0  0  0  0  0  0  0  0  0  0  0  0
  184.0880  177.4590  138.4020 N   0  0  0  0  0  2  0  0  0  0  0  0
  186.3860  176.8140  143.4320 C   0  0  0  0  0  2  0  0  0  0  0  0
  188.9680  177.8860  138.4760 C   0  0  0  0  0  0  0  0  0  0  0  0
  185.9730  178.3600  145.7460 N   0  0  0  0  0  0  0  0  0  0  0  0
  182.3120  179.0520  142.7550 C   0  0  0  0  0  0  0  0  0  0  0  0
  185.2540  178.2890  138.4010 C   0  0  0  0  0  0  0  0  0  0  0  0
  188.7040  177.3330  143.9210 O   0  0  0  0  0  0  0  0  0  0  0  0
  184.0190  179.1570  144.6280 N   0  0  0  0  0  2  0  0  0  0  0  0
  190.0400  176.9190  138.9070 C   0  0  1  0  0  3  0  0  0  0  0  0
  189.2620  176.3180  143.1340 C   0  0  0  0  0  2  0  0  0  0  0  0
  185.1880  179.4790  138.8100 O   0  0  0  0  0  0  0  0  0  0  0  0
  190.7570  176.5390  142.9290 C   0  0  0  0  0  2  0  0  0  0  0  0
  183.5960  178.8790  143.2970 C   0  0  0  0  0  0  0  0  0  0  0  0
  190.0840  176.8010  140.3030 O   0  0  0  0  0  0  0  0  0  0  0  0
  189.2560  178.7940  137.7110 O   0  0  0  0  0  0  0  0  0  0  0  0
  184.4010  177.9530  141.2510 N   0  0  0  0  0  0  0  0  0  0  0  0
  185.8640  178.2360  143.3000 C   0  0  2  0  0  3  0  0  0  0  0  0
  183.1750  178.1100  140.6720 C   0  0  0  0  0  0  0  0  0  0  0  0
  182.9730  177.6720  139.2780 C   0  0  0  0  0  0  0  0  0  0  0  0
  191.1570  177.8470  142.2180 C   0  0  2  0  0  3  0  0  0  0  0  0
  185.3660  178.6820  144.6440 C   0  0  0  0  0  0  0  0  0  0  0  0
  189.8070  175.5490  138.2920 C   0  0  0  0  0  2  0  0  0  0  0  0
  191.0780  174.9000  138.0210 N   0  0  0  0  0  1  0  0  0  0  0  0
  181.2400  179.5880  143.4730 O   0  0  0  0  0  0  0  0  0  0  0  0
  180.3010  180.4120  142.8900 N   0  0  0  0  0  2  0  0  0  0  0  0
  178.9970  179.8360  143.1660 C   0  0  0  0  0  2  0  0  0  0  0  0
  179.0440  179.0580  144.4670 C   0  0  0  0  0  1  0  0  0  0  0  0
  2 29  2  0  0  0  0
  3 15  1  0  0  0  0
  4 12  1  6  0  0  0
  4 10  1  0  0  0  0
  6 30  1  0  0  0  0
  7 16  1  0  0  0  0
  7  5  1  0  0  0  0
  8 24  1  1  0  0  0
  8  6  1  0  0  0  0
  8 30  1  0  0  0  0
  9 23  1  0  0  0  0
  9 27  1  0  0  0  0
 10 14  1  0  0  0  0
 10  1  2  0  0  0  0
 11 29  1  0  0  0  0
 13 19  1  0  0  0  0
 13  5  1  0  0  0  0
 15 23  2  0  0  0  0
 15 34  1  0  0  0  0
 16 11  1  0  0  0  0
 16 21  2  0  0  0  0
 17  4  1  0  0  0  0
 18 31  1  0  0  0  0
 19 32  1  6  0  0  0
 19 24  1  0  0  0  0
 20 17  1  0  0  0  0
 22 20  1  0  0  0  0
 23 18  1  0  0  0  0
 25 13  2  0  0  0  0
 26  9  2  0  0  0  0
 27 12  1  1  0  0  0
 27 31  1  0  0  0  0
 28 26  1  0  0  0  0
 28  3  2  0  0  0  0
 29 28  1  0  0  0  0
 30 22  1  1  0  0  0
 31 14  2  0  0  0  0
 33 32  1  0  0  0  0
 35 36  1  0  0  0  0
 35 34  1  0  0  0  0
 36 37  1  0  0  0  0
M  END
>  <MODEL>
1

>  <REMARK>
 VINA RESULT:      -8.6      0.000      0.000
  Name = 
  4 active torsions:
  status: ('A' for Active; 'I' for Inactive)
    1  A    between atoms: N_8  and  C_14
    2  A    between atoms: N_8  and  O_33
    3  A    between atoms: C_12  and  C_22
    4  A    between atoms: C_18  and  O_33
                            x       y       z     vdW  Elec       q    Type
                         _______ _______ _______ _____ _____    ______ ____

>  <TORSDO>
F 4

$$$$
=
 OpenBabel11062412273D

 37 41  0  0  1  0  0  0  0  0999 V2000
  192.4660  176.3580  138.2690 O   0  0  0  0  0  0  0  0  0  0  0  0
  186.1370  177.2960  145.8740 O   0  0  0  0  0  0  0  0  0  0  0  0
  188.8400  177.8780  145.1570 C   0  0  0  0  0  3  0  0  0  0  0  0
  190.1830  176.2940  139.0060 C   0  0  1  0  0  3  0  0  0  0  0  0
  185.3320  178.6160  140.3050 C   0  0  0  0  0  2  0  0  0  0  0  0
  187.6610  179.1260  137.3970 O   0  0  0  0  0  0  0  0  0  0  0  0
  184.4530  178.6890  141.5450 C   0  0  0  0  0  2  0  0  0  0  0  0
  186.4150  178.8670  136.7950 C   0  0  2  0  0  3  0  0  0  0  0  0
  189.3450  177.7210  142.4610 C   0  0  0  0  0  0  0  0  0  0  0  0
  191.6490  176.6220  139.1880 C   0  0  0  0  0  0  0  0  0  0  0  0
  185.2980  177.8460  143.7770 N   0  0  0  0  0  2  0  0  0  0  0  0
  189.4330  176.3780  140.3500 C   0  0  0  0  0  2  0  0  0  0  0  0
  184.5950  179.0950  139.0920 C   0  0  0  0  0  0  0  0  0  0  0  0
  192.1230  177.1980  140.4170 N   0  0  0  0  0  0  0  0  0  0  0  0
  190.1710  177.9590  144.7110 C   0  0  0  0  0  0  0  0  0  0  0  0
  185.3160  178.8410  142.7490 C   0  0  0  0  0  0  0  0  0  0  0  0
  189.6150  177.1580  138.0610 O   0  0  0  0  0  0  0  0  0  0  0  0
  191.6520  177.8920  142.6540 N   0  0  0  0  0  2  0  0  0  0  0  0
  184.5310  178.2560  137.8420 C   0  0  1  0  0  3  0  0  0  0  0  0
  188.4860  176.4870  137.5760 C   0  0  0  0  0  2  0  0  0  0  0  0
  186.0490  179.8610  142.8640 O   0  0  0  0  0  0  0  0  0  0  0  0
  188.0810  177.0130  136.2020 C   0  0  0  0  0  2  0  0  0  0  0  0
  190.3980  177.8850  143.3270 C   0  0  0  0  0  0  0  0  0  0  0  0
  185.8060  177.8020  137.4730 O   0  0  0  0  0  0  0  0  0  0  0  0
  184.0760  180.2010  139.0940 O   0  0  0  0  0  0  0  0  0  0  0  0
  188.0630  177.6570  142.8950 N   0  0  0  0  0  0  0  0  0  0  0  0
  189.8040  177.6730  141.0550 C   0  0  2  0  0  3  0  0  0  0  0  0
  187.7860  177.7350  144.2300 C   0  0  0  0  0  0  0  0  0  0  0  0
  186.3870  177.6320  144.6850 C   0  0  0  0  0  0  0  0  0  0  0  0
  187.7070  178.5070  136.1320 C   0  0  2  0  0  3  0  0  0  0  0  0
  191.2870  177.6730  141.2900 C   0  0  0  0  0  0  0  0  0  0  0  0
  183.6090  177.0640  138.0410 C   0  0  0  0  0  2  0  0  0  0  0  0
  184.2630  175.8460  137.5910 N   0  0  0  0  0  1  0  0  0  0  0  0
  191.1950  178.1000  145.6520 O   0  0  0  0  0  0  0  0  0  0  0  0
  191.9800  177.0400  146.0510 N   0  0  0  0  0  2  0  0  0  0  0  0
  191.4420  176.5620  147.3120 C   0  0  0  0  0  2  0  0  0  0  0  0
  192.4360  175.6280  147.9750 C   0  0  0  0  0  1  0  0  0  0  0  0
  1 10  2  0  0  0  0
  4 10  1  0  0  0  0
  4 12  1  1  0  0  0
  5  7  1  0  0  0  0
  7 16  1  0  0  0  0
  8  6  1  1  0  0  0
  8 24  1  0  0  0  0
  9 26  2  0  0  0  0
  9 23  1  0  0  0  0
 10 14  1  0  0  0  0
 11 29  1  0  0  0  0
 13 25  2  0  0  0  0
 13  5  1  0  0  0  0
 14 31  2  0  0  0  0
 15  3  1  0  0  0  0
 15 34  1  0  0  0  0
 16 21  2  0  0  0  0
 16 11  1  0  0  0  0
 17  4  1  0  0  0  0
 18 23  1  0  0  0  0
 19 32  1  1  0  0  0
 19 13  1  0  0  0  0
 20 17  1  0  0  0  0
 22 20  1  0  0  0  0
 23 15  2  0  0  0  0
 24 19  1  0  0  0  0
 26 28  1  0  0  0  0
 27 12  1  1  0  0  0
 27 31  1  0  0  0  0
 27  9  1  0  0  0  0
 28 29  1  0  0  0  0
 28  3  2  0  0  0  0
 29  2  2  0  0  0  0
 30 22  1  1  0  0  0
 30  8  1  0  0  0  0
 30  6  1  0  0  0  0
 31 18  1  0  0  0  0
 33 32  1  0  0  0  0
 34 35  1  0  0  0  0
 35 36  1  0  0  0  0
 36 37  1  0  0  0  0
M  END
>  <MODEL>
2

>  <REMARK>
 VINA RESULT:      -8.6      2.642      7.247
  Name = 
  4 active torsions:
  status: ('A' for Active; 'I' for Inactive)
    1  A    between atoms: N_8  and  C_14
    2  A    between atoms: N_8  and  O_33
    3  A    between atoms: C_12  and  C_22
    4  A    between atoms: C_18  and  O_33
                            x       y       z     vdW  Elec       q    Type
                         _______ _______ _______ _____ _____    ______ ____

>  <TORSDO>
F 4

$$$$
=
 OpenBabel11062412273D

 37 41  0  0  1  0  0  0  0  0999 V2000
  182.2130  178.9940  141.0760 O   0  0  0  0  0  0  0  0  0  0  0  0
  191.6610  178.6210  144.1380 O   0  0  0  0  0  0  0  0  0  0  0  0
  189.0120  178.0770  145.0580 C   0  0  0  0  0  3  0  0  0  0  0  0
  184.5330  179.0430  140.4580 C   0  0  1  0  0  3  0  0  0  0  0  0
  189.3730  176.6760  139.2010 C   0  0  0  0  0  2  0  0  0  0  0  0
  185.8580  175.9520  138.0790 O   0  0  0  0  0  0  0  0  0  0  0  0
  190.7830  176.7010  139.7730 C   0  0  0  0  0  2  0  0  0  0  0  0
  186.5770  176.0930  136.8770 C   0  0  2  0  0  3  0  0  0  0  0  0
  187.1320  177.9630  143.0570 C   0  0  0  0  0  0  0  0  0  0  0  0
  183.4030  178.7960  141.4350 C   0  0  0  0  0  0  0  0  0  0  0  0
  191.2520  177.8140  141.9970 N   0  0  0  0  0  2  0  0  0  0  0  0
  185.8900  179.0730  141.1880 C   0  0  0  0  0  2  0  0  0  0  0  0
  189.3520  176.0390  137.8440 C   0  0  0  0  0  0  0  0  0  0  0  0
  183.6790  178.3770  142.7820 N   0  0  0  0  0  0  0  0  0  0  0  0
  187.6530  178.0030  145.4080 C   0  0  0  0  0  0  0  0  0  0  0  0
  190.7070  176.7150  141.2610 C   0  0  0  0  0  0  0  0  0  0  0  0
  184.5230  178.0590  139.4610 O   0  0  0  0  0  0  0  0  0  0  0  0
  185.2950  177.9090  144.4770 N   0  0  0  0  0  2  0  0  0  0  0  0
  188.7130  176.7350  136.6710 C   0  0  1  0  0  3  0  0  0  0  0  0
  185.1960  178.6260  138.3730 C   0  0  0  0  0  2  0  0  0  0  0  0
  190.1760  175.7450  141.8660 O   0  0  0  0  0  0  0  0  0  0  0  0
  184.8110  177.9390  137.0670 C   0  0  0  0  0  2  0  0  0  0  0  0
  186.7140  177.9370  144.3660 C   0  0  0  0  0  0  0  0  0  0  0  0
  187.4300  177.1990  136.9960 O   0  0  0  0  0  0  0  0  0  0  0  0
  189.8160  174.9190  137.6930 O   0  0  0  0  0  0  0  0  0  0  0  0
  188.4440  178.0200  142.7240 N   0  0  0  0  0  0  0  0  0  0  0  0
  185.9870  177.8780  142.1240 C   0  0  2  0  0  3  0  0  0  0  0  0
  189.3970  178.0750  143.7000 C   0  0  0  0  0  0  0  0  0  0  0  0
  190.8190  178.1690  143.3170 C   0  0  0  0  0  0  0  0  0  0  0  0
  185.1230  176.4320  136.9760 C   0  0  2  0  0  3  0  0  0  0  0  0
  184.8640  177.9640  143.1170 C   0  0  0  0  0  0  0  0  0  0  0  0
  189.5690  177.9030  136.2070 C   0  0  0  0  0  2  0  0  0  0  0  0
  189.1340  179.1290  136.8540 N   0  0  0  0  0  1  0  0  0  0  0  0
  187.3000  178.0070  146.7610 O   0  0  0  0  0  0  0  0  0  0  0  0
  187.8380  177.1160  147.6650 N   0  0  0  0  0  2  0  0  0  0  0  0
  188.2290  177.8800  148.8360 C   0  0  0  0  0  2  0  0  0  0  0  0
  189.6590  178.3620  148.6830 C   0  0  0  0  0  1  0  0  0  0  0  0
  1 10  2  0  0  0  0
  3 15  1  0  0  0  0
  4 12  1  1  0  0  0
  4 10  1  0  0  0  0
  5  7  1  0  0  0  0
  7 16  1  0  0  0  0
  8 30  1  0  0  0  0
  8 24  1  1  0  0  0
  8  6  1  0  0  0  0
  9 23  1  0  0  0  0
 10 14  1  0  0  0  0
 11 29  1  0  0  0  0
 13  5  1  0  0  0  0
 14 31  2  0  0  0  0
 15 34  1  0  0  0  0
 16 21  2  0  0  0  0
 16 11  1  0  0  0  0
 17  4  1  0  0  0  0
 19 32  1  1  0  0  0
 19 24  1  0  0  0  0
 19 13  1  0  0  0  0
 20 17  1  0  0  0  0
 22 20  1  0  0  0  0
 23 18  1  0  0  0  0
 23 15  2  0  0  0  0
 25 13  2  0  0  0  0
 26  9  2  0  0  0  0
 26 28  1  0  0  0  0
 27 12  1  6  0  0  0
 27  9  1  0  0  0  0
 27 31  1  0  0  0  0
 28  3  2  0  0  0  0
 29 28  1  0  0  0  0
 29  2  2  0  0  0  0
 30 22  1  1  0  0  0
 30  6  1  0  0  0  0
 31 18  1  0  0  0  0
 32 33  1  0  0  0  0
 34 35  1  0  0  0  0
 35 36  1  0  0  0  0
 37 36  1  0  0  0  0
M  END
>  <MODEL>
3

>  <REMARK>
 VINA RESULT:      -8.2      2.365      6.355
  Name = 
  4 active torsions:
  status: ('A' for Active; 'I' for Inactive)
    1  A    between atoms: N_8  and  C_14
    2  A    between atoms: N_8  and  O_33
    3  A    between atoms: C_12  and  C_22
    4  A    between atoms: C_18  and  O_33
                            x       y       z     vdW  Elec       q    Type
                         _______ _______ _______ _____ _____    ______ ____

>  <TORSDO>
F 4

$$$$
=
 OpenBabel11062412273D

 37 41  0  0  1  0  0  0  0  0999 V2000
  184.2620  178.7400  146.2970 O   0  0  0  0  0  0  0  0  0  0  0  0
  189.4300  178.8500  137.8090 O   0  0  0  0  0  0  0  0  0  0  0  0
  189.4380  177.6280  140.3910 C   0  0  0  0  0  3  0  0  0  0  0  0
  184.3060  179.3490  143.9760 C   0  0  1  0  0  3  0  0  0  0  0  0
  183.7270  178.3120  138.5720 C   0  0  0  0  0  2  0  0  0  0  0  0
  181.5750  177.4630  141.5360 O   0  0  0  0  0  0  0  0  0  0  0  0
  184.6280  178.3660  137.3460 C   0  0  0  0  0  2  0  0  0  0  0  0
  180.6920  178.1020  140.6460 C   0  0  2  0  0  3  0  0  0  0  0  0
  187.0720  177.8910  141.7630 C   0  0  0  0  0  0  0  0  0  0  0  0
  184.8450  178.6220  145.1890 C   0  0  0  0  0  0  0  0  0  0  0  0
  187.1190  178.7420  137.5920 N   0  0  0  0  0  2  0  0  0  0  0  0
  185.3400  179.3480  142.8330 C   0  0  0  0  0  2  0  0  0  0  0  0
  182.2890  178.1640  138.1790 C   0  0  0  0  0  0  0  0  0  0  0  0
  186.0420  177.8300  145.0960 N   0  0  0  0  0  0  0  0  0  0  0  0
  189.3890  177.2330  141.7390 C   0  0  0  0  0  0  0  0  0  0  0  0
  185.9850  177.8760  137.7150 C   0  0  0  0  0  0  0  0  0  0  0  0
  183.1040  178.7610  143.5640 O   0  0  0  0  0  0  0  0  0  0  0  0
  187.8920  177.0860  143.7810 N   0  0  0  0  0  2  0  0  0  0  0  0
  181.2380  179.1000  138.7160 C   0  0  1  0  0  3  0  0  0  0  0  0
  182.4350  179.7530  142.8370 C   0  0  0  0  0  2  0  0  0  0  0  0
  186.1310  176.6910  138.1190 O   0  0  0  0  0  0  0  0  0  0  0  0
  180.9340  179.4840  142.7900 C   0  0  0  0  0  2  0  0  0  0  0  0
  188.1650  177.3700  142.4130 C   0  0  0  0  0  0  0  0  0  0  0  0
  181.3370  179.2260  140.1090 O   0  0  0  0  0  0  0  0  0  0  0  0
  181.9500  177.2430  137.4510 O   0  0  0  0  0  0  0  0  0  0  0  0
  187.1210  178.2570  140.4600 N   0  0  0  0  0  0  0  0  0  0  0  0
  185.8900  177.9410  142.6510 C   0  0  2  0  0  3  0  0  0  0  0  0
  188.2840  178.1350  139.7560 C   0  0  0  0  0  0  0  0  0  0  0  0
  188.3250  178.5690  138.3470 C   0  0  0  0  0  0  0  0  0  0  0  0
  180.5030  178.1590  142.1290 C   0  0  2  0  0  3  0  0  0  0  0  0
  186.5400  177.5200  143.9370 C   0  0  0  0  0  0  0  0  0  0  0  0
  181.3620  180.4730  138.0760 C   0  0  0  0  0  2  0  0  0  0  0  0
  180.8070  181.4870  138.9570 N   0  0  0  0  0  1  0  0  0  0  0  0
  190.5470  176.7350  142.3430 O   0  0  0  0  0  0  0  0  0  0  0  0
  191.6780  177.5040  142.5140 N   0  0  0  0  0  2  0  0  0  0  0  0
  191.6800  177.9570  143.8930 C   0  0  0  0  0  2  0  0  0  0  0  0
  191.1550  179.3780  143.9700 C   0  0  0  0  0  1  0  0  0  0  0  0
  2 29  2  0  0  0  0
  3 15  1  0  0  0  0
  4 12  1  6  0  0  0
  4 10  1  0  0  0  0
  6 30  1  0  0  0  0
  7 16  1  0  0  0  0
  7  5  1  0  0  0  0
  8 24  1  1  0  0  0
  8  6  1  0  0  0  0
  8 30  1  0  0  0  0
  9 23  1  0  0  0  0
  9 27  1  0  0  0  0
 10  1  2  0  0  0  0
 11 16  1  0  0  0  0
 11 29  1  0  0  0  0
 13  5  1  0  0  0  0
 13 19  1  0  0  0  0
 14 10  1  0  0  0  0
 15 34  1  0  0  0  0
 15 23  2  0  0  0  0
 16 21  2  0  0  0  0
 17  4  1  0  0  0  0
 18 31  1  0  0  0  0
 19 32  1  6  0  0  0
 19 24  1  0  0  0  0
 20 17  1  0  0  0  0
 22 20  1  0  0  0  0
 23 18  1  0  0  0  0
 25 13  2  0  0  0  0
 26  9  2  0  0  0  0
 27 12  1  1  0  0  0
 27 31  1  0  0  0  0
 28  3  2  0  0  0  0
 28 26  1  0  0  0  0
 29 28  1  0  0  0  0
 30 22  1  1  0  0  0
 31 14  2  0  0  0  0
 32 33  1  0  0  0  0
 34 35  1  0  0  0  0
 35 36  1  0  0  0  0
 36 37  1  0  0  0  0
M  END
>  <MODEL>
4

>  <REMARK>
 VINA RESULT:      -7.8      2.196      7.210
  Name = 
  4 active torsions:
  status: ('A' for Active; 'I' for Inactive)
    1  A    between atoms: N_8  and  C_14
    2  A    between atoms: N_8  and  O_33
    3  A    between atoms: C_12  and  C_22
    4  A    between atoms: C_18  and  O_33
                            x       y       z     vdW  Elec       q    Type
                         _______ _______ _______ _____ _____    ______ ____

>  <TORSDO>
F 4

$$$$
=
 OpenBabel11062412273D

 37 41  0  0  1  0  0  0  0  0999 V2000
  184.1860  178.8480  143.8170 O   0  0  0  0  0  0  0  0  0  0  0  0
  193.3490  177.4860  140.2180 O   0  0  0  0  0  0  0  0  0  0  0  0
  191.7350  176.8180  142.4790 C   0  0  0  0  0  3  0  0  0  0  0  0
  185.6380  178.9730  141.9100 C   0  0  1  0  0  3  0  0  0  0  0  0
  188.2700  176.8290  137.5410 C   0  0  0  0  0  2  0  0  0  0  0  0
  184.7250  176.4950  138.7490 O   0  0  0  0  0  0  0  0  0  0  0  0
  189.7200  176.6770  137.1050 C   0  0  0  0  0  2  0  0  0  0  0  0
  184.5910  176.8940  137.4060 C   0  0  2  0  0  3  0  0  0  0  0  0
  189.0460  177.2350  142.1000 C   0  0  0  0  0  0  0  0  0  0  0  0
  185.2980  178.5370  143.3190 C   0  0  0  0  0  0  0  0  0  0  0  0
  191.6090  177.2200  138.7010 N   0  0  0  0  0  2  0  0  0  0  0  0
  187.1420  178.7910  141.6290 C   0  0  0  0  0  2  0  0  0  0  0  0
  187.3330  176.5320  136.4100 C   0  0  0  0  0  0  0  0  0  0  0  0
  186.2500  177.8030  144.1080 N   0  0  0  0  0  0  0  0  0  0  0  0
  190.8700  176.7030  143.5810 C   0  0  0  0  0  0  0  0  0  0  0  0
  190.5550  176.3420  138.2930 C   0  0  0  0  0  0  0  0  0  0  0  0
  184.8660  178.2530  140.9890 O   0  0  0  0  0  0  0  0  0  0  0  0
  188.4520  176.9010  144.3190 N   0  0  0  0  0  2  0  0  0  0  0  0
  186.2470  177.5040  136.0270 C   0  0  1  0  0  3  0  0  0  0  0  0
  184.8370  179.0420  139.8330 C   0  0  0  0  0  2  0  0  0  0  0  0
  190.3380  175.2730  138.9240 O   0  0  0  0  0  0  0  0  0  0  0  0
  183.6350  178.6940  138.9590 C   0  0  0  0  0  2  0  0  0  0  0  0
  189.5000  176.9130  143.3560 C   0  0  0  0  0  0  0  0  0  0  0  0
  185.5170  177.9150  137.1510 O   0  0  0  0  0  0  0  0  0  0  0  0
  187.4140  175.4660  135.8180 O   0  0  0  0  0  0  0  0  0  0  0  0
  189.8830  177.3300  141.0390 N   0  0  0  0  0  0  0  0  0  0  0  0
  187.5770  177.4060  142.0840 C   0  0  2  0  0  3  0  0  0  0  0  0
  191.2220  177.1250  141.2010 C   0  0  0  0  0  0  0  0  0  0  0  0
  192.1210  177.2660  140.0390 C   0  0  0  0  0  0  0  0  0  0  0  0
  183.5700  177.2420  138.4430 C   0  0  2  0  0  3  0  0  0  0  0  0
  187.3080  177.2890  143.5570 C   0  0  0  0  0  0  0  0  0  0  0  0
  186.8360  178.7220  135.3340 C   0  0  0  0  0  2  0  0  0  0  0  0
  187.1800  179.7370  136.3160 N   0  0  0  0  0  1  0  0  0  0  0  0
  191.4050  176.3980  144.8350 O   0  0  0  0  0  0  0  0  0  0  0  0
  191.6140  177.3580  145.8020 N   0  0  0  0  0  2  0  0  0  0  0  0
  191.2990  176.7500  147.0820 C   0  0  0  0  0  2  0  0  0  0  0  0
  192.2760  175.6280  147.3730 C   0  0  0  0  0  1  0  0  0  0  0  0
  3 15  1  0  0  0  0
  4 12  1  6  0  0  0
  4 10  1  0  0  0  0
  7  5  1  0  0  0  0
  7 16  1  0  0  0  0
  8 24  1  1  0  0  0
  8 30  1  0  0  0  0
  8  6  1  0  0  0  0
  9 23  1  0  0  0  0
 10  1  2  0  0  0  0
 10 14  1  0  0  0  0
 11 29  1  0  0  0  0
 13  5  1  0  0  0  0
 15 34  1  0  0  0  0
 16 11  1  0  0  0  0
 16 21  2  0  0  0  0
 17  4  1  0  0  0  0
 19 32  1  1  0  0  0
 19 13  1  0  0  0  0
 19 24  1  0  0  0  0
 20 17  1  0  0  0  0
 22 20  1  0  0  0  0
 23 15  2  0  0  0  0
 23 18  1  0  0  0  0
 25 13  2  0  0  0  0
 26 28  1  0  0  0  0
 26  9  2  0  0  0  0
 27 12  1  1  0  0  0
 27  9  1  0  0  0  0
 27 31  1  0  0  0  0
 28  3  2  0  0  0  0
 29  2  2  0  0  0  0
 29 28  1  0  0  0  0
 30  6  1  0  0  0  0
 30 22  1  1  0  0  0
 31 14  2  0  0  0  0
 31 18  1  0  0  0  0
 32 33  1  0  0  0  0
 34 35  1  0  0  0  0
 35 36  1  0  0  0  0
 36 37  1  0  0  0  0
M  END
>  <MODEL>
5

>  <REMARK>
 VINA RESULT:      -7.7      2.895      7.127
  Name = 
  4 active torsions:
  status: ('A' for Active; 'I' for Inactive)
    1  A    between atoms: N_8  and  C_14
    2  A    between atoms: N_8  and  O_33
    3  A    between atoms: C_12  and  C_22
    4  A    between atoms: C_18  and  O_33
                            x       y       z     vdW  Elec       q    Type
                         _______ _______ _______ _____ _____    ______ ____

>  <TORSDO>
F 4

$$$$
=
 OpenBabel11062412273D

 37 41  0  0  1  0  0  0  0  0999 V2000
  189.2240  178.2260  144.5360 O   0  0  0  0  0  0  0  0  0  0  0  0
  189.4890  177.7380  134.6120 O   0  0  0  0  0  0  0  0  0  0  0  0
  190.6110  176.4870  136.9220 C   0  0  0  0  0  3  0  0  0  0  0  0
  188.1960  178.8600  142.4610 C   0  0  1  0  0  3  0  0  0  0  0  0
  184.8930  178.0030  138.1060 C   0  0  0  0  0  2  0  0  0  0  0  0
  184.3960  177.4190  141.7880 O   0  0  0  0  0  0  0  0  0  0  0  0
  185.0690  177.9470  136.5960 C   0  0  0  0  0  2  0  0  0  0  0  0
  183.2810  178.1910  141.4110 C   0  0  2  0  0  3  0  0  0  0  0  0
  189.2890  177.0600  139.2620 C   0  0  0  0  0  0  0  0  0  0  0  0
  189.1630  178.0440  143.2920 C   0  0  0  0  0  0  0  0  0  0  0  0
  187.3810  177.9620  135.5650 N   0  0  0  0  0  2  0  0  0  0  0  0
  188.5200  178.7300  140.9600 C   0  0  0  0  0  2  0  0  0  0  0  0
  183.4430  178.0660  138.4790 C   0  0  0  0  0  0  0  0  0  0  0  0
  190.0410  177.0920  142.6680 N   0  0  0  0  0  0  0  0  0  0  0  0
  191.1830  176.0800  138.1400 C   0  0  0  0  0  0  0  0  0  0  0  0
  186.3540  177.2650  136.2770 C   0  0  0  0  0  0  0  0  0  0  0  0
  186.8810  178.4540  142.7260 O   0  0  0  0  0  0  0  0  0  0  0  0
  190.8850  176.1150  140.6590 N   0  0  0  0  0  2  0  0  0  0  0  0
  182.9280  179.1330  139.4090 C   0  0  1  0  0  3  0  0  0  0  0  0
  186.0780  179.5430  142.3670 C   0  0  0  0  0  2  0  0  0  0  0  0
  186.5230  176.0640  136.6230 O   0  0  0  0  0  0  0  0  0  0  0  0
  184.7290  179.4900  143.0790 C   0  0  0  0  0  2  0  0  0  0  0  0
  190.4810  176.3780  139.3190 C   0  0  0  0  0  0  0  0  0  0  0  0
  183.7170  179.2200  140.5650 O   0  0  0  0  0  0  0  0  0  0  0  0
  182.6720  177.2140  138.0640 O   0  0  0  0  0  0  0  0  0  0  0  0
  188.7360  177.4360  138.0840 N   0  0  0  0  0  0  0  0  0  0  0  0
  188.7180  177.2630  140.6110 C   0  0  2  0  0  3  0  0  0  0  0  0
  189.3710  177.1610  136.9080 C   0  0  0  0  0  0  0  0  0  0  0  0
  188.7680  177.6090  135.6380 C   0  0  0  0  0  0  0  0  0  0  0  0
  183.8590  178.2510  142.7900 C   0  0  2  0  0  3  0  0  0  0  0  0
  189.8570  176.7330  141.4340 C   0  0  0  0  0  0  0  0  0  0  0  0
  182.8980  180.4840  138.7150 C   0  0  0  0  0  2  0  0  0  0  0  0
  181.6460  180.6500  137.9970 N   0  0  0  0  0  1  0  0  0  0  0  0
  192.4110  175.4140  138.1240 O   0  0  0  0  0  0  0  0  0  0  0  0
  193.6050  176.0730  137.9240 N   0  0  0  0  0  2  0  0  0  0  0  0
  194.2950  175.3870  136.8470 C   0  0  0  0  0  2  0  0  0  0  0  0
  194.4490  176.3180  135.6590 C   0  0  0  0  0  1  0  0  0  0  0  0
  2 29  2  0  0  0  0
  3 15  1  0  0  0  0
  4 12  1  6  0  0  0
  4 17  1  0  0  0  0
  4 10  1  0  0  0  0
  5 13  1  0  0  0  0
  6 30  1  0  0  0  0
  7  5  1  0  0  0  0
  8 24  1  6  0  0  0
  8  6  1  0  0  0  0
  8 30  1  0  0  0  0
  9 23  1  0  0  0  0
  9 27  1  0  0  0  0
 10  1  2  0  0  0  0
 11 29  1  0  0  0  0
 11 16  1  0  0  0  0
 13 19  1  0  0  0  0
 14 10  1  0  0  0  0
 15 23  2  0  0  0  0
 16  7  1  0  0  0  0
 16 21  2  0  0  0  0
 18 31  1  0  0  0  0
 19 32  1  6  0  0  0
 19 24  1  0  0  0  0
 20 17  1  0  0  0  0
 20 22  1  0  0  0  0
 23 18  1  0  0  0  0
 25 13  2  0  0  0  0
 26  9  2  0  0  0  0
 27 12  1  1  0  0  0
 27 31  1  0  0  0  0
 28  3  2  0  0  0  0
 28 26  1  0  0  0  0
 29 28  1  0  0  0  0
 30 22  1  6  0  0  0
 31 14  2  0  0  0  0
 33 32  1  0  0  0  0
 34 15  1  0  0  0  0
 35 34  1  0  0  0  0
 36 35  1  0  0  0  0
 37 36  1  0  0  0  0
M  END
>  <MODEL>
6

>  <REMARK>
 VINA RESULT:      -6.3      2.947      7.988
  Name = 
  4 active torsions:
  status: ('A' for Active; 'I' for Inactive)
    1  A    between atoms: N_8  and  C_14
    2  A    between atoms: N_8  and  O_33
    3  A    between atoms: C_12  and  C_22
    4  A    between atoms: C_18  and  O_33
                            x       y       z     vdW  Elec       q    Type
                         _______ _______ _______ _____ _____    ______ ____

>  <TORSDO>
F 4

$$$$
=
 OpenBabel11062412273D

 37 41  0  0  1  0  0  0  0  0999 V2000
  184.1990  178.9580  146.2530 O   0  0  0  0  0  0  0  0  0  0  0  0
  187.0360  176.6700  137.0070 O   0  0  0  0  0  0  0  0  0  0  0  0
  185.4280  178.5560  138.4270 C   0  0  0  0  0  3  0  0  0  0  0  0
  185.7240  177.7340  144.8610 C   0  0  1  0  0  3  0  0  0  0  0  0
  190.2770  177.2230  141.7590 C   0  0  0  0  0  2  0  0  0  0  0  0
  189.6960  178.7910  145.1270 O   0  0  0  0  0  0  0  0  0  0  0  0
  190.5790  176.8610  140.3120 C   0  0  0  0  0  2  0  0  0  0  0  0
  190.7680  177.9050  145.3450 C   0  0  2  0  0  3  0  0  0  0  0  0
  185.8910  178.6100  141.1350 C   0  0  0  0  0  0  0  0  0  0  0  0
  184.6590  178.7840  145.0950 C   0  0  0  0  0  0  0  0  0  0  0  0
  188.7080  176.6440  138.6210 N   0  0  0  0  0  2  0  0  0  0  0  0
  185.8920  177.4520  143.3540 C   0  0  0  0  0  2  0  0  0  0  0  0
  191.5250  177.2130  142.5900 C   0  0  0  0  0  0  0  0  0  0  0  0
  184.1380  179.5560  143.9990 N   0  0  0  0  0  0  0  0  0  0  0  0
  184.5670  179.3060  139.2470 C   0  0  0  0  0  0  0  0  0  0  0  0
  189.5480  177.4750  139.4300 C   0  0  0  0  0  0  0  0  0  0  0  0
  186.9350  178.1500  145.4300 O   0  0  0  0  0  0  0  0  0  0  0  0
  184.0760  179.9640  141.6470 N   0  0  0  0  0  2  0  0  0  0  0  0
  191.5950  176.4300  143.8740 C   0  0  1  0  0  3  0  0  0  0  0  0
  187.6680  176.9760  145.6400 C   0  0  0  0  0  2  0  0  0  0  0  0
  189.4320  178.7290  139.3870 O   0  0  0  0  0  0  0  0  0  0  0  0
  188.7310  177.1750  146.7160 C   0  0  0  0  0  2  0  0  0  0  0  0
  184.8330  179.3230  140.6260 C   0  0  0  0  0  0  0  0  0  0  0  0
  190.4860  176.6970  144.6900 O   0  0  0  0  0  0  0  0  0  0  0  0
  192.4850  177.8870  142.2490 O   0  0  0  0  0  0  0  0  0  0  0  0
  186.7260  177.9000  140.3390 N   0  0  0  0  0  0  0  0  0  0  0  0
  185.9940  178.7700  142.6020 C   0  0  2  0  0  3  0  0  0  0  0  0
  186.5190  177.8590  138.9900 C   0  0  0  0  0  0  0  0  0  0  0  0
  187.4200  177.0540  138.1440 C   0  0  0  0  0  0  0  0  0  0  0  0
  189.7940  178.2530  146.4260 C   0  0  2  0  0  3  0  0  0  0  0  0
  184.7340  179.5500  142.8450 C   0  0  0  0  0  0  0  0  0  0  0  0
  191.6660  174.9390  143.5920 C   0  0  0  0  0  2  0  0  0  0  0  0
  192.4230  174.2680  144.6360 N   0  0  0  0  0  1  0  0  0  0  0  0
  183.4950  179.9860  138.6620 O   0  0  0  0  0  0  0  0  0  0  0  0
  182.2470  179.4160  138.5260 N   0  0  0  0  0  2  0  0  0  0  0  0
  181.2880  180.3560  139.0790 C   0  0  0  0  0  2  0  0  0  0  0  0
  181.3920  181.6840  138.3550 C   0  0  0  0  0  1  0  0  0  0  0  0
  2 29  2  0  0  0  0
  3 28  2  0  0  0  0
  3 15  1  0  0  0  0
  4 12  1  6  0  0  0
  4 10  1  0  0  0  0
  4 17  1  0  0  0  0
  5 13  1  0  0  0  0
  6  8  1  0  0  0  0
  6 30  1  0  0  0  0
  7  5  1  0  0  0  0
  8 24  1  6  0  0  0
  8 30  1  0  0  0  0
  9 27  1  0  0  0  0
 10  1  2  0  0  0  0
 11 16  1  0  0  0  0
 13 19  1  0  0  0  0
 14 10  1  0  0  0  0
 15 23  2  0  0  0  0
 16  7  1  0  0  0  0
 17 20  1  0  0  0  0
 18 31  1  0  0  0  0
 19 32  1  6  0  0  0
 19 24  1  0  0  0  0
 20 22  1  0  0  0  0
 21 16  2  0  0  0  0
 23  9  1  0  0  0  0
 23 18  1  0  0  0  0
 25 13  2  0  0  0  0
 26  9  2  0  0  0  0
 27 31  1  0  0  0  0
 27 12  1  1  0  0  0
 28 26  1  0  0  0  0
 29 11  1  0  0  0  0
 29 28  1  0  0  0  0
 30 22  1  6  0  0  0
 31 14  2  0  0  0  0
 32 33  1  0  0  0  0
 34 15  1  0  0  0  0
 35 34  1  0  0  0  0
 35 36  1  0  0  0  0
 37 36  1  0  0  0  0
M  END
>  <MODEL>
7

>  <REMARK>
 VINA RESULT:      -6.2      2.319      4.240
  Name = 
  4 active torsions:
  status: ('A' for Active; 'I' for Inactive)
    1  A    between atoms: N_8  and  C_14
    2  A    between atoms: N_8  and  O_33
    3  A    between atoms: C_12  and  C_22
    4  A    between atoms: C_18  and  O_33
                            x       y       z     vdW  Elec       q    Type
                         _______ _______ _______ _____ _____    ______ ____

>  <TORSDO>
F 4

$$$$
=
 OpenBabel11062412273D

 37 41  0  0  1  0  0  0  0  0999 V2000
  191.9630  176.1070  143.6120 O   0  0  0  0  0  0  0  0  0  0  0  0
  182.2630  178.0170  142.5870 O   0  0  0  0  0  0  0  0  0  0  0  0
  184.4810  178.6570  144.2710 C   0  0  0  0  0  3  0  0  0  0  0  0
  190.0320  176.0110  142.1890 C   0  0  1  0  0  3  0  0  0  0  0  0
  186.4270  178.1570  138.5820 C   0  0  0  0  0  2  0  0  0  0  0  0
  190.1820  178.2680  138.7470 O   0  0  0  0  0  0  0  0  0  0  0  0
  184.9260  178.4020  138.5530 C   0  0  0  0  0  2  0  0  0  0  0  0
  189.9120  177.8010  137.4470 C   0  0  2  0  0  3  0  0  0  0  0  0
  186.9270  178.0160  143.1950 C   0  0  0  0  0  0  0  0  0  0  0  0
  190.7780  176.4820  143.4190 C   0  0  0  0  0  0  0  0  0  0  0  0
  183.5250  178.0800  140.6360 N   0  0  0  0  0  2  0  0  0  0  0  0
  188.5230  176.2970  142.3200 C   0  0  0  0  0  2  0  0  0  0  0  0
  187.0290  178.3300  137.2210 C   0  0  0  0  0  0  0  0  0  0  0  0
  190.1300  177.3220  144.3910 N   0  0  0  0  0  0  0  0  0  0  0  0
  185.6250  178.7530  145.0830 C   0  0  0  0  0  0  0  0  0  0  0  0
  184.4770  178.8540  139.9000 C   0  0  0  0  0  0  0  0  0  0  0  0
  190.5610  176.6270  141.0470 O   0  0  0  0  0  0  0  0  0  0  0  0
  188.1360  178.4010  145.1400 N   0  0  0  0  0  2  0  0  0  0  0  0
  187.9020  177.2610  136.6180 C   0  0  1  0  0  3  0  0  0  0  0  0
  190.2170  175.7890  139.9800 C   0  0  0  0  0  2  0  0  0  0  0  0
  184.9280  179.9300  140.3770 O   0  0  0  0  0  0  0  0  0  0  0  0
  191.1470  176.0030  138.7900 C   0  0  0  0  0  2  0  0  0  0  0  0
  186.8620  178.4280  144.5050 C   0  0  0  0  0  0  0  0  0  0  0  0
  188.8890  176.8440  137.5220 O   0  0  0  0  0  0  0  0  0  0  0  0
  186.8520  179.3720  136.6070 O   0  0  0  0  0  0  0  0  0  0  0  0
  185.8240  177.9390  142.4130 N   0  0  0  0  0  0  0  0  0  0  0  0
  188.3200  177.7300  142.7880 C   0  0  2  0  0  3  0  0  0  0  0  0
  184.5980  178.2540  142.9230 C   0  0  0  0  0  0  0  0  0  0  0  0
  183.4040  178.1330  142.0640 C   0  0  0  0  0  0  0  0  0  0  0  0
  191.1570  177.4200  138.1840 C   0  0  2  0  0  3  0  0  0  0  0  0
  188.9950  177.8920  144.1190 C   0  0  0  0  0  0  0  0  0  0  0  0
  187.0690  176.0630  136.1930 C   0  0  0  0  0  2  0  0  0  0  0  0
  187.3130  174.9430  137.0860 N   0  0  0  0  0  1  0  0  0  0  0  0
  185.4800  179.1550  146.4140 O   0  0  0  0  0  0  0  0  0  0  0  0
  185.7880  178.3260  147.4710 N   0  0  0  0  0  2  0  0  0  0  0  0
  186.8990  178.9350  148.1800 C   0  0  0  0  0  2  0  0  0  0  0  0
  187.9310  177.8770  148.5250 C   0  0  0  0  0  1  0  0  0  0  0  0
  3 15  1  0  0  0  0
  4 12  1  1  0  0  0
  4 10  1  0  0  0  0
  7  5  1  0  0  0  0
  7 16  1  0  0  0  0
  8 24  1  1  0  0  0
  8 30  1  0  0  0  0
  8  6  1  0  0  0  0
  9 23  1  0  0  0  0
 10  1  2  0  0  0  0
 10 14  1  0  0  0  0
 11 29  1  0  0  0  0
 13  5  1  0  0  0  0
 15 34  1  0  0  0  0
 16 21  2  0  0  0  0
 16 11  1  0  0  0  0
 17  4  1  0  0  0  0
 19 32  1  1  0  0  0
 19 13  1  0  0  0  0
 19 24  1  0  0  0  0
 20 17  1  0  0  0  0
 22 20  1  0  0  0  0
 23 15  2  0  0  0  0
 23 18  1  0  0  0  0
 25 13  2  0  0  0  0
 26 28  1  0  0  0  0
 26  9  2  0  0  0  0
 27 12  1  1  0  0  0
 27  9  1  0  0  0  0
 27 31  1  0  0  0  0
 28  3  2  0  0  0  0
 29  2  2  0  0  0  0
 29 28  1  0  0  0  0
 30  6  1  0  0  0  0
 30 22  1  1  0  0  0
 31 14  2  0  0  0  0
 31 18  1  0  0  0  0
 32 33  1  0  0  0  0
 34 35  1  0  0  0  0
 35 36  1  0  0  0  0
 36 37  1  0  0  0  0
M  END
>  <MODEL>
8

>  <REMARK>
 VINA RESULT:      -6.2      2.296      4.120
  Name = 
  4 active torsions:
  status: ('A' for Active; 'I' for Inactive)
    1  A    between atoms: N_8  and  C_14
    2  A    between atoms: N_8  and  O_33
    3  A    between atoms: C_12  and  C_22
    4  A    between atoms: C_18  and  O_33
                            x       y       z     vdW  Elec       q    Type
                         _______ _______ _______ _____ _____    ______ ____

>  <TORSDO>
F 4

$$$$
