=
 OpenBabel11062418083D

 25 26  0  0  1  0  0  0  0  0999 V2000
  191.5640  177.3180  145.2870 C   0  0  1  0  0  3  0  0  0  0  0  0
  192.3300  175.5390  146.5670 N   0  0  0  0  0  2  0  0  0  0  0  0
  190.4070  177.6230  146.2610 C   0  0  2  0  0  3  0  0  0  0  0  0
  191.8670  175.8860  145.2830 N   0  0  0  0  0  2  0  0  0  0  0  0
  191.1890  175.5630  147.4790 C   0  0  0  0  0  2  0  0  0  0  0  0
  190.6850  176.9970  147.6310 C   0  0  0  0  0  2  0  0  0  0  0  0
  191.2990  177.8290  143.9020 C   0  0  0  0  0  0  0  0  0  0  0  0
  191.3550  176.9200  142.8010 N   0  0  0  0  0  2  0  0  0  0  0  0
  191.0880  179.0580  143.7050 O   0  0  0  0  0  0  0  0  0  0  0  0
  191.2420  177.3550  141.4150 C   0  0  0  0  0  2  0  0  0  0  0  0
  189.8330  177.1100  140.8930 C   0  0  0  0  0  2  0  0  0  0  0  0
  189.0280  178.2190  141.1540 O   0  0  0  0  0  0  0  0  0  0  0  0
  188.0620  178.1950  140.1480 C   0  0  0  0  0  2  0  0  0  0  0  0
  188.9900  179.3140  138.2570 O   0  0  0  0  0  1  0  0  0  0  0  0
  188.7310  178.0540  138.7940 C   0  0  0  0  0  2  0  0  0  0  0  0
  187.9880  178.0730  145.8200 C   0  0  0  0  0  3  0  0  0  0  0  0
  189.0410  177.2540  145.7400 C   0  0  0  0  0  3  0  0  0  0  0  0
  184.8550  178.5830  146.3680 O   0  0  0  0  0  1  0  0  0  0  0  0
  185.3950  177.5530  143.2930 C   0  0  0  0  0  2  0  0  0  0  0  0
  186.7130  177.1590  143.8970 C   0  0  0  0  0  2  0  0  0  0  0  0
  186.6350  177.6710  145.3160 C   0  0  2  0  0  3  0  0  0  0  0  0
  184.9250  178.7390  144.1120 C   0  0  1  0  0  3  0  0  0  0  0  0
  185.7110  178.8010  145.3430 N   0  0  0  0  0  0  0  0  0  0  0  0
  185.1100  179.9140  143.3820 O   0  0  0  0  0  0  0  0  0  0  0  0
  185.1880  179.4990  142.0510 C   0  0  0  0  0  1  0  0  0  0  0  0
  1  7  1  6  0  0  0
  1  3  1  0  0  0  0
  2  5  1  0  0  0  0
  3 17  1  6  0  0  0
  3  6  1  0  0  0  0
  4  1  1  0  0  0  0
  4  2  1  0  0  0  0
  5  6  1  0  0  0  0
  8  7  1  0  0  0  0
  9  7  2  0  0  0  0
 10  8  1  0  0  0  0
 11 12  1  0  0  0  0
 11 10  1  0  0  0  0
 13 12  1  0  0  0  0
 14 15  1  0  0  0  0
 15 13  1  0  0  0  0
 17 16  2  0  0  0  0
 19 20  1  0  0  0  0
 19 22  1  0  0  0  0
 20 21  1  0  0  0  0
 21 23  1  0  0  0  0
 21 16  1  6  0  0  0
 22 24  1  6  0  0  0
 22 23  1  0  0  0  0
 23 18  1  0  0  0  0
 25 24  1  0  0  0  0
M  END
>  <MODEL>
1

>  <REMARK>
 VINA RESULT:      -6.6      0.000      0.000
  Name = 
  9 active torsions:
  status: ('A' for Active; 'I' for Inactive)
    1  A    between atoms: C_1  and  O_12
    2  A    between atoms: C_1  and  C_20
    3  A    between atoms: C_2  and  C_16
    4  A    between atoms: C_5  and  C_8
    5  A    between atoms: C_6  and  O_12
    6  A    between atoms: C_6  and  C_23
    7  A    between atoms: O_9  and  C_21
    8  A    between atoms: C_11  and  C_13
    9  A    between atoms: N_18  and  C_20
                            x       y       z     vdW  Elec       q    Type
                         _______ _______ _______ _____ _____    ______ ____

>  <TORSDO>
F 9

$$$$
=
 OpenBabel11062418083D

 25 26  0  0  1  0  0  0  0  0999 V2000
  187.2190  177.9310  147.3520 C   0  0  1  0  0  3  0  0  0  0  0  0
  188.9530  178.2050  148.8710 N   0  0  0  0  0  2  0  0  0  0  0  0
  188.0960  177.1200  146.3770 C   0  0  2  0  0  3  0  0  0  0  0  0
  188.0290  178.9120  148.0780 N   0  0  0  0  0  2  0  0  0  0  0  0
  189.9650  177.6320  147.9850 C   0  0  0  0  0  2  0  0  0  0  0  0
  189.3250  176.5630  147.1010 C   0  0  0  0  0  2  0  0  0  0  0  0
  186.0500  178.5790  146.6720 C   0  0  0  0  0  0  0  0  0  0  0  0
  185.4500  177.9320  145.5480 N   0  0  0  0  0  2  0  0  0  0  0  0
  185.6390  179.7100  147.0510 O   0  0  0  0  0  0  0  0  0  0  0  0
  184.4000  178.5510  144.7500 C   0  0  0  0  0  2  0  0  0  0  0  0
  184.9730  179.1040  143.4530 C   0  0  0  0  0  2  0  0  0  0  0  0
  184.8460  178.1580  142.4350 O   0  0  0  0  0  0  0  0  0  0  0  0
  184.1590  178.8260  141.4210 C   0  0  0  0  0  2  0  0  0  0  0  0
  184.6420  179.9260  139.3600 O   0  0  0  0  0  1  0  0  0  0  0  0
  184.9920  178.8340  140.1540 C   0  0  0  0  0  2  0  0  0  0  0  0
  189.0170  177.2540  144.0560 C   0  0  0  0  0  3  0  0  0  0  0  0
  188.4730  177.8590  145.1180 C   0  0  0  0  0  3  0  0  0  0  0  0
  191.6170  178.1910  142.4020 O   0  0  0  0  0  1  0  0  0  0  0  0
  188.9400  178.0970  140.4980 C   0  0  0  0  0  2  0  0  0  0  0  0
  188.2620  178.0750  141.8380 C   0  0  0  0  0  2  0  0  0  0  0  0
  189.4040  178.0170  142.8260 C   0  0  2  0  0  3  0  0  0  0  0  0
  190.2900  177.4490  140.7270 C   0  0  1  0  0  3  0  0  0  0  0  0
  190.5470  177.3960  142.1650 N   0  0  0  0  0  0  0  0  0  0  0  0
  190.2810  176.1530  140.2080 O   0  0  0  0  0  0  0  0  0  0  0  0
  190.5560  176.3110  138.8480 C   0  0  0  0  0  1  0  0  0  0  0  0
  1  7  1  6  0  0  0
  1  4  1  0  0  0  0
  3 17  1  6  0  0  0
  3  6  1  0  0  0  0
  3  1  1  0  0  0  0
  4  2  1  0  0  0  0
  5  2  1  0  0  0  0
  6  5  1  0  0  0  0
  7  9  2  0  0  0  0
  8  7  1  0  0  0  0
 10  8  1  0  0  0  0
 11 10  1  0  0  0  0
 12 11  1  0  0  0  0
 13 12  1  0  0  0  0
 14 15  1  0  0  0  0
 15 13  1  0  0  0  0
 16 17  2  0  0  0  0
 19 22  1  0  0  0  0
 19 20  1  0  0  0  0
 20 21  1  0  0  0  0
 21 16  1  1  0  0  0
 22 24  1  1  0  0  0
 22 23  1  0  0  0  0
 23 18  1  0  0  0  0
 23 21  1  0  0  0  0
 25 24  1  0  0  0  0
M  END
>  <MODEL>
2

>  <REMARK>
 VINA RESULT:      -6.5      2.127      5.168
  Name = 
  9 active torsions:
  status: ('A' for Active; 'I' for Inactive)
    1  A    between atoms: C_1  and  O_12
    2  A    between atoms: C_1  and  C_20
    3  A    between atoms: C_2  and  C_16
    4  A    between atoms: C_5  and  C_8
    5  A    between atoms: C_6  and  O_12
    6  A    between atoms: C_6  and  C_23
    7  A    between atoms: O_9  and  C_21
    8  A    between atoms: C_11  and  C_13
    9  A    between atoms: N_18  and  C_20
                            x       y       z     vdW  Elec       q    Type
                         _______ _______ _______ _____ _____    ______ ____

>  <TORSDO>
F 9

$$$$
=
 OpenBabel11062418083D

 25 26  0  0  1  0  0  0  0  0999 V2000
  185.3160  178.3640  145.2940 C   0  0  1  0  0  3  0  0  0  0  0  0
  186.1080  178.7470  147.4430 N   0  0  0  0  0  2  0  0  0  0  0  0
  186.5110  177.4610  144.9300 C   0  0  2  0  0  3  0  0  0  0  0  0
  185.7230  179.3940  146.2520 N   0  0  0  0  0  2  0  0  0  0  0  0
  187.3900  178.0880  147.2040 C   0  0  0  0  0  2  0  0  0  0  0  0
  187.2030  176.9540  146.1980 C   0  0  0  0  0  2  0  0  0  0  0  0
  184.6590  178.9650  144.0870 C   0  0  0  0  0  0  0  0  0  0  0  0
  184.1660  178.1020  143.0600 N   0  0  0  0  0  2  0  0  0  0  0  0
  184.5960  180.2180  143.9530 O   0  0  0  0  0  0  0  0  0  0  0  0
  183.6360  178.6030  141.7980 C   0  0  0  0  0  2  0  0  0  0  0  0
  184.7290  178.6470  140.7410 C   0  0  0  0  0  2  0  0  0  0  0  0
  184.6050  179.8050  139.9730 O   0  0  0  0  0  0  0  0  0  0  0  0
  184.3890  179.3430  138.6750 C   0  0  0  0  0  2  0  0  0  0  0  0
  186.4100  178.7090  137.5760 O   0  0  0  0  0  1  0  0  0  0  0  0
  185.3620  178.2230  138.3580 C   0  0  0  0  0  2  0  0  0  0  0  0
  187.9440  177.4470  142.8810 C   0  0  0  0  0  3  0  0  0  0  0  0
  187.4900  178.0830  143.9660 C   0  0  0  0  0  3  0  0  0  0  0  0
  191.1170  177.8380  142.4900 O   0  0  0  0  0  1  0  0  0  0  0  0
  189.4980  178.1520  139.6460 C   0  0  0  0  0  2  0  0  0  0  0  0
  188.3350  178.3030  140.5840 C   0  0  0  0  0  2  0  0  0  0  0  0
  188.9360  178.0800  141.9520 C   0  0  2  0  0  3  0  0  0  0  0  0
  190.4930  177.2820  140.3880 C   0  0  1  0  0  3  0  0  0  0  0  0
  190.1180  177.2390  141.8000 N   0  0  0  0  0  0  0  0  0  0  0  0
  190.4680  175.9890  139.8600 O   0  0  0  0  0  0  0  0  0  0  0  0
  190.9450  176.1270  138.5550 C   0  0  0  0  0  1  0  0  0  0  0  0
  1  7  1  6  0  0  0
  1  4  1  0  0  0  0
  3 17  1  6  0  0  0
  3  1  1  0  0  0  0
  3  6  1  0  0  0  0
  4  2  1  0  0  0  0
  5  2  1  0  0  0  0
  6  5  1  0  0  0  0
  8  7  1  0  0  0  0
  9  7  2  0  0  0  0
 10  8  1  0  0  0  0
 11 10  1  0  0  0  0
 12 11  1  0  0  0  0
 13 12  1  0  0  0  0
 14 15  1  0  0  0  0
 15 13  1  0  0  0  0
 16 17  2  0  0  0  0
 19 22  1  0  0  0  0
 19 20  1  0  0  0  0
 20 21  1  0  0  0  0
 21 16  1  1  0  0  0
 22 24  1  6  0  0  0
 22 23  1  0  0  0  0
 23 21  1  0  0  0  0
 23 18  1  0  0  0  0
 25 24  1  0  0  0  0
M  END
>  <MODEL>
3

>  <REMARK>
 VINA RESULT:      -6.5      2.563      5.690
  Name = 
  9 active torsions:
  status: ('A' for Active; 'I' for Inactive)
    1  A    between atoms: C_1  and  O_12
    2  A    between atoms: C_1  and  C_20
    3  A    between atoms: C_2  and  C_16
    4  A    between atoms: C_5  and  C_8
    5  A    between atoms: C_6  and  O_12
    6  A    between atoms: C_6  and  C_23
    7  A    between atoms: O_9  and  C_21
    8  A    between atoms: C_11  and  C_13
    9  A    between atoms: N_18  and  C_20
                            x       y       z     vdW  Elec       q    Type
                         _______ _______ _______ _____ _____    ______ ____

>  <TORSDO>
F 9

$$$$
=
 OpenBabel11062418083D

 25 26  0  0  1  0  0  0  0  0999 V2000
  185.4110  178.0950  144.4280 C   0  0  1  0  0  3  0  0  0  0  0  0
  184.9760  179.3360  146.3420 N   0  0  0  0  0  2  0  0  0  0  0  0
  186.4870  177.2420  145.1310 C   0  0  2  0  0  3  0  0  0  0  0  0
  185.3750  179.4440  144.9950 N   0  0  0  0  0  2  0  0  0  0  0  0
  186.0890  178.7640  147.0970 C   0  0  0  0  0  2  0  0  0  0  0  0
  186.3220  177.3210  146.6510 C   0  0  0  0  0  2  0  0  0  0  0  0
  185.5850  178.1280  142.9390 C   0  0  0  0  0  0  0  0  0  0  0  0
  186.7910  178.6630  142.3890 N   0  0  0  0  0  2  0  0  0  0  0  0
  184.6540  177.7420  142.1800 O   0  0  0  0  0  0  0  0  0  0  0  0
  186.9860  178.8550  140.9580 C   0  0  0  0  0  2  0  0  0  0  0  0
  188.2750  178.1850  140.5030 C   0  0  0  0  0  2  0  0  0  0  0  0
  188.8620  178.9280  139.4780 O   0  0  0  0  0  0  0  0  0  0  0  0
  189.2070  177.9810  138.5130 C   0  0  0  0  0  2  0  0  0  0  0  0
  188.2110  179.6690  137.1520 O   0  0  0  0  0  1  0  0  0  0  0  0
  189.0990  178.5940  137.1290 C   0  0  0  0  0  2  0  0  0  0  0  0
  188.9670  177.2480  145.4520 C   0  0  0  0  0  3  0  0  0  0  0  0
  187.9000  177.5460  144.7020 C   0  0  0  0  0  3  0  0  0  0  0  0
  191.8140  175.8600  144.8650 O   0  0  0  0  0  1  0  0  0  0  0  0
  191.5060  178.7160  143.2660 C   0  0  0  0  0  2  0  0  0  0  0  0
  190.3920  178.8930  144.2580 C   0  0  0  0  0  2  0  0  0  0  0  0
  190.3600  177.5840  145.0110 C   0  0  2  0  0  3  0  0  0  0  0  0
  191.6220  177.2180  143.0660 C   0  0  1  0  0  3  0  0  0  0  0  0
  190.8970  176.5430  144.1410 N   0  0  0  0  0  0  0  0  0  0  0  0
  191.0640  176.8660  141.8360 O   0  0  0  0  0  0  0  0  0  0  0  0
  191.9070  177.4430  140.8840 C   0  0  0  0  0  1  0  0  0  0  0  0
  1  7  1  6  0  0  0
  1  4  1  0  0  0  0
  1  3  1  0  0  0  0
  2  5  1  0  0  0  0
  3 17  1  1  0  0  0
  3  6  1  0  0  0  0
  4  2  1  0  0  0  0
  6  5  1  0  0  0  0
  8  7  1  0  0  0  0
  9  7  2  0  0  0  0
 10  8  1  0  0  0  0
 11 10  1  0  0  0  0
 12 11  1  0  0  0  0
 13 12  1  0  0  0  0
 15 14  1  0  0  0  0
 15 13  1  0  0  0  0
 17 16  2  0  0  0  0
 19 20  1  0  0  0  0
 20 21  1  0  0  0  0
 21 16  1  6  0  0  0
 22 24  1  6  0  0  0
 22 19  1  0  0  0  0
 22 23  1  0  0  0  0
 23 18  1  0  0  0  0
 23 21  1  0  0  0  0
 25 24  1  0  0  0  0
M  END
>  <MODEL>
4

>  <REMARK>
 VINA RESULT:      -6.4      1.869      5.243
  Name = 
  9 active torsions:
  status: ('A' for Active; 'I' for Inactive)
    1  A    between atoms: C_1  and  O_12
    2  A    between atoms: C_1  and  C_20
    3  A    between atoms: C_2  and  C_16
    4  A    between atoms: C_5  and  C_8
    5  A    between atoms: C_6  and  O_12
    6  A    between atoms: C_6  and  C_23
    7  A    between atoms: O_9  and  C_21
    8  A    between atoms: C_11  and  C_13
    9  A    between atoms: N_18  and  C_20
                            x       y       z     vdW  Elec       q    Type
                         _______ _______ _______ _____ _____    ______ ____

>  <TORSDO>
F 9

$$$$
=
 OpenBabel11062418083D

 25 26  0  0  1  0  0  0  0  0999 V2000
  185.0380  178.6990  145.4520 C   0  0  1  0  0  3  0  0  0  0  0  0
  185.8290  179.3650  147.5310 N   0  0  0  0  0  2  0  0  0  0  0  0
  185.9860  177.4830  145.3930 C   0  0  2  0  0  3  0  0  0  0  0  0
  185.6550  179.7950  146.2010 N   0  0  0  0  0  2  0  0  0  0  0  0
  186.9170  178.3890  147.5500 C   0  0  0  0  0  2  0  0  0  0  0  0
  186.4890  177.1310  146.7960 C   0  0  0  0  0  2  0  0  0  0  0  0
  184.5900  179.1450  144.0920 C   0  0  0  0  0  0  0  0  0  0  0  0
  184.0610  178.1800  143.1800 N   0  0  0  0  0  2  0  0  0  0  0  0
  184.7340  180.3470  143.7360 O   0  0  0  0  0  0  0  0  0  0  0  0
  183.7260  178.5020  141.7990 C   0  0  0  0  0  2  0  0  0  0  0  0
  184.9890  178.5980  140.9550 C   0  0  0  0  0  2  0  0  0  0  0  0
  184.8900  179.6740  140.0710 O   0  0  0  0  0  0  0  0  0  0  0  0
  184.5250  179.0960  138.8550 C   0  0  0  0  0  2  0  0  0  0  0  0
  186.6090  178.8920  137.7110 O   0  0  0  0  0  1  0  0  0  0  0  0
  185.6230  178.1650  138.3770 C   0  0  0  0  0  2  0  0  0  0  0  0
  187.4620  176.6560  143.5520 C   0  0  0  0  0  3  0  0  0  0  0  0
  187.1190  177.6250  144.4080 C   0  0  0  0  0  3  0  0  0  0  0  0
  188.5680  178.6400  141.2680 O   0  0  0  0  0  1  0  0  0  0  0  0
  190.9830  176.8370  142.5810 C   0  0  0  0  0  2  0  0  0  0  0  0
  189.8130  176.0280  143.0620 C   0  0  0  0  0  2  0  0  0  0  0  0
  188.6090  176.8140  142.6000 C   0  0  2  0  0  3  0  0  0  0  0  0
  190.4580  178.2520  142.4500 C   0  0  1  0  0  3  0  0  0  0  0  0
  188.9970  178.2160  142.4800 N   0  0  0  0  0  0  0  0  0  0  0  0
  190.9270  179.0250  143.5140 O   0  0  0  0  0  0  0  0  0  0  0  0
  191.8480  178.2070  144.1700 C   0  0  0  0  0  1  0  0  0  0  0  0
  1  7  1  6  0  0  0
  1  4  1  0  0  0  0
  2  5  1  0  0  0  0
  3 17  1  6  0  0  0
  3  1  1  0  0  0  0
  3  6  1  0  0  0  0
  4  2  1  0  0  0  0
  6  5  1  0  0  0  0
  8  7  1  0  0  0  0
  9  7  2  0  0  0  0
 10  8  1  0  0  0  0
 11 10  1  0  0  0  0
 12 11  1  0  0  0  0
 13 12  1  0  0  0  0
 14 15  1  0  0  0  0
 15 13  1  0  0  0  0
 16 17  2  0  0  0  0
 18 23  1  0  0  0  0
 19 20  1  0  0  0  0
 21 20  1  0  0  0  0
 21 16  1  1  0  0  0
 22 23  1  0  0  0  0
 22 19  1  0  0  0  0
 22 24  1  1  0  0  0
 23 21  1  0  0  0  0
 24 25  1  0  0  0  0
M  END
>  <MODEL>
5

>  <REMARK>
 VINA RESULT:      -6.2      2.569      5.468
  Name = 
  9 active torsions:
  status: ('A' for Active; 'I' for Inactive)
    1  A    between atoms: C_1  and  O_12
    2  A    between atoms: C_1  and  C_20
    3  A    between atoms: C_2  and  C_16
    4  A    between atoms: C_5  and  C_8
    5  A    between atoms: C_6  and  O_12
    6  A    between atoms: C_6  and  C_23
    7  A    between atoms: O_9  and  C_21
    8  A    between atoms: C_11  and  C_13
    9  A    between atoms: N_18  and  C_20
                            x       y       z     vdW  Elec       q    Type
                         _______ _______ _______ _____ _____    ______ ____

>  <TORSDO>
F 9

$$$$
=
 OpenBabel11062418083D

 25 26  0  0  1  0  0  0  0  0999 V2000
  189.9270  177.2460  137.0420 C   0  0  1  0  0  3  0  0  0  0  0  0
  190.7310  175.2220  136.2370 N   0  0  0  0  0  2  0  0  0  0  0  0
  190.8170  177.1890  138.3010 C   0  0  2  0  0  3  0  0  0  0  0  0
  189.5540  175.8960  136.6150 N   0  0  0  0  0  2  0  0  0  0  0  0
  191.4850  174.9150  137.4510 C   0  0  0  0  0  2  0  0  0  0  0  0
  191.9770  176.2120  138.0900 C   0  0  0  0  0  2  0  0  0  0  0  0
  188.7210  178.1180  137.2290 C   0  0  0  0  0  0  0  0  0  0  0  0
  187.4200  177.5320  137.1600 N   0  0  0  0  0  2  0  0  0  0  0  0
  188.8530  179.3630  137.3860 O   0  0  0  0  0  0  0  0  0  0  0  0
  186.1970  178.3230  137.1980 C   0  0  0  0  0  2  0  0  0  0  0  0
  185.5800  178.2830  138.5890 C   0  0  0  0  0  2  0  0  0  0  0  0
  184.9630  179.5020  138.8720 O   0  0  0  0  0  0  0  0  0  0  0  0
  184.1710  179.2420  139.9910 C   0  0  0  0  0  2  0  0  0  0  0  0
  185.6300  179.6780  141.8270 O   0  0  0  0  0  1  0  0  0  0  0  0
  185.0230  178.6540  141.1000 C   0  0  0  0  0  2  0  0  0  0  0  0
  190.5740  177.1670  140.7890 C   0  0  0  0  0  3  0  0  0  0  0  0
  190.0690  176.9060  139.5790 C   0  0  0  0  0  3  0  0  0  0  0  0
  190.3180  174.8970  143.0600 O   0  0  0  0  0  1  0  0  0  0  0  0
  189.2740  177.8190  144.1450 C   0  0  0  0  0  2  0  0  0  0  0  0
  189.2570  178.1080  142.6710 C   0  0  0  0  0  2  0  0  0  0  0  0
  189.8180  176.8530  142.0440 C   0  0  2  0  0  3  0  0  0  0  0  0
  190.3510  176.7690  144.3290 C   0  0  1  0  0  3  0  0  0  0  0  0
  190.6810  176.2000  143.0240 N   0  0  0  0  0  0  0  0  0  0  0  0
  191.4890  177.3590  144.8810 O   0  0  0  0  0  0  0  0  0  0  0  0
  191.7040  176.6730  146.0780 C   0  0  0  0  0  1  0  0  0  0  0  0
  1  7  1  1  0  0  0
  1  3  1  0  0  0  0
  2  4  1  0  0  0  0
  2  5  1  0  0  0  0
  3 17  1  1  0  0  0
  4  1  1  0  0  0  0
  5  6  1  0  0  0  0
  6  3  1  0  0  0  0
  7  9  2  0  0  0  0
  8 10  1  0  0  0  0
  8  7  1  0  0  0  0
 10 11  1  0  0  0  0
 11 12  1  0  0  0  0
 12 13  1  0  0  0  0
 13 15  1  0  0  0  0
 15 14  1  0  0  0  0
 17 16  2  0  0  0  0
 19 22  1  0  0  0  0
 20 19  1  0  0  0  0
 21 16  1  6  0  0  0
 21 20  1  0  0  0  0
 21 23  1  0  0  0  0
 22 24  1  6  0  0  0
 23 18  1  0  0  0  0
 23 22  1  0  0  0  0
 24 25  1  0  0  0  0
M  END
>  <MODEL>
6

>  <REMARK>
 VINA RESULT:      -5.9      3.242      6.852
  Name = 
  9 active torsions:
  status: ('A' for Active; 'I' for Inactive)
    1  A    between atoms: C_1  and  O_12
    2  A    between atoms: C_1  and  C_20
    3  A    between atoms: C_2  and  C_16
    4  A    between atoms: C_5  and  C_8
    5  A    between atoms: C_6  and  O_12
    6  A    between atoms: C_6  and  C_23
    7  A    between atoms: O_9  and  C_21
    8  A    between atoms: C_11  and  C_13
    9  A    between atoms: N_18  and  C_20
                            x       y       z     vdW  Elec       q    Type
                         _______ _______ _______ _____ _____    ______ ____

>  <TORSDO>
F 9

$$$$
=
 OpenBabel11062418083D

 25 26  0  0  1  0  0  0  0  0999 V2000
  191.5740  177.0380  142.3760 C   0  0  1  0  0  3  0  0  0  0  0  0
  192.2490  177.5020  140.2030 N   0  0  0  0  0  2  0  0  0  0  0  0
  190.1460  176.6570  141.9340 C   0  0  2  0  0  3  0  0  0  0  0  0
  192.1290  178.0630  141.4890 N   0  0  0  0  0  2  0  0  0  0  0  0
  190.9070  177.3690  139.6420 C   0  0  0  0  0  2  0  0  0  0  0  0
  190.1200  176.3300  140.4380 C   0  0  0  0  0  2  0  0  0  0  0  0
  191.6380  177.4590  143.8140 C   0  0  0  0  0  0  0  0  0  0  0  0
  191.5480  176.4650  144.8360 N   0  0  0  0  0  2  0  0  0  0  0  0
  191.7120  178.6820  144.1160 O   0  0  0  0  0  0  0  0  0  0  0  0
  191.4690  176.7980  146.2530 C   0  0  0  0  0  2  0  0  0  0  0  0
  190.0360  176.6740  146.7500 C   0  0  0  0  0  2  0  0  0  0  0  0
  189.2320  177.6320  146.1320 O   0  0  0  0  0  0  0  0  0  0  0  0
  187.9920  177.5060  146.7590 C   0  0  0  0  0  2  0  0  0  0  0  0
  187.9950  178.6270  148.8650 O   0  0  0  0  0  1  0  0  0  0  0  0
  188.1850  177.3860  148.2590 C   0  0  0  0  0  2  0  0  0  0  0  0
  187.8330  177.3220  142.6120 C   0  0  0  0  0  3  0  0  0  0  0  0
  189.0890  177.6660  142.3080 C   0  0  0  0  0  3  0  0  0  0  0  0
  186.2770  179.8390  141.3400 O   0  0  0  0  0  1  0  0  0  0  0  0
  184.5920  178.5040  143.8270 C   0  0  0  0  0  2  0  0  0  0  0  0
  185.9320  177.8850  144.1050 C   0  0  0  0  0  2  0  0  0  0  0  0
  186.7960  178.3480  142.9570 C   0  0  2  0  0  3  0  0  0  0  0  0
  184.5680  178.7350  142.3290 C   0  0  1  0  0  3  0  0  0  0  0  0
  185.9310  178.6190  141.8140 N   0  0  0  0  0  0  0  0  0  0  0  0
  183.7570  177.7750  141.7210 O   0  0  0  0  0  0  0  0  0  0  0  0
  182.6360  178.4820  141.2810 C   0  0  0  0  0  1  0  0  0  0  0  0
  1  7  1  1  0  0  0
  2  4  1  0  0  0  0
  3 17  1  6  0  0  0
  3  1  1  0  0  0  0
  4  1  1  0  0  0  0
  5  2  1  0  0  0  0
  5  6  1  0  0  0  0
  6  3  1  0  0  0  0
  7  9  2  0  0  0  0
  7  8  1  0  0  0  0
  8 10  1  0  0  0  0
 10 11  1  0  0  0  0
 12 11  1  0  0  0  0
 12 13  1  0  0  0  0
 13 15  1  0  0  0  0
 15 14  1  0  0  0  0
 17 16  2  0  0  0  0
 18 23  1  0  0  0  0
 19 20  1  0  0  0  0
 21 16  1  6  0  0  0
 21 20  1  0  0  0  0
 22 24  1  6  0  0  0
 22 19  1  0  0  0  0
 23 22  1  0  0  0  0
 23 21  1  0  0  0  0
 25 24  1  0  0  0  0
M  END
>  <MODEL>
7

>  <REMARK>
 VINA RESULT:      -5.9      2.027      5.061
  Name = 
  9 active torsions:
  status: ('A' for Active; 'I' for Inactive)
    1  A    between atoms: C_1  and  O_12
    2  A    between atoms: C_1  and  C_20
    3  A    between atoms: C_2  and  C_16
    4  A    between atoms: C_5  and  C_8
    5  A    between atoms: C_6  and  O_12
    6  A    between atoms: C_6  and  C_23
    7  A    between atoms: O_9  and  C_21
    8  A    between atoms: C_11  and  C_13
    9  A    between atoms: N_18  and  C_20
                            x       y       z     vdW  Elec       q    Type
                         _______ _______ _______ _____ _____    ______ ____

>  <TORSDO>
F 9

$$$$
=
 OpenBabel11062418083D

 25 26  0  0  1  0  0  0  0  0999 V2000
  187.3390  178.0700  137.7270 C   0  0  1  0  0  3  0  0  0  0  0  0
  188.7860  176.9700  136.2830 N   0  0  0  0  0  2  0  0  0  0  0  0
  188.4390  178.2930  138.7860 C   0  0  2  0  0  3  0  0  0  0  0  0
  187.5780  176.8270  136.9920 N   0  0  0  0  0  2  0  0  0  0  0  0
  189.8840  176.9210  137.2470 C   0  0  0  0  0  2  0  0  0  0  0  0
  189.8250  178.1500  138.1520 C   0  0  0  0  0  2  0  0  0  0  0  0
  185.9590  178.1060  138.3150 C   0  0  0  0  0  0  0  0  0  0  0  0
  185.6850  178.9990  139.3960 N   0  0  0  0  0  2  0  0  0  0  0  0
  185.0680  177.3160  137.8980 O   0  0  0  0  0  0  0  0  0  0  0  0
  184.4140  179.0040  140.1100 C   0  0  0  0  0  2  0  0  0  0  0  0
  184.6480  179.0030  141.6130 C   0  0  0  0  0  2  0  0  0  0  0  0
  183.6870  178.2130  142.2450 O   0  0  0  0  0  0  0  0  0  0  0  0
  183.2770  178.9720  143.3430 C   0  0  0  0  0  2  0  0  0  0  0  0
  183.8750  179.0060  145.6520 O   0  0  0  0  0  1  0  0  0  0  0  0
  184.3990  179.0520  144.3600 C   0  0  0  0  0  2  0  0  0  0  0  0
  188.6610  177.8590  141.2380 C   0  0  0  0  0  3  0  0  0  0  0  0
  188.2940  177.4420  140.0220 C   0  0  0  0  0  3  0  0  0  0  0  0
  190.2130  175.5240  142.8230 O   0  0  0  0  0  1  0  0  0  0  0  0
  188.1190  177.1310  144.7810 C   0  0  0  0  0  2  0  0  0  0  0  0
  187.5790  177.5850  143.4550 C   0  0  0  0  0  2  0  0  0  0  0  0
  188.5290  176.9830  142.4460 C   0  0  2  0  0  3  0  0  0  0  0  0
  189.5910  176.8620  144.5370 C   0  0  1  0  0  3  0  0  0  0  0  0
  189.8220  176.7900  143.0950 N   0  0  0  0  0  0  0  0  0  0  0  0
  190.3520  177.8990  145.0790 O   0  0  0  0  0  0  0  0  0  0  0  0
  191.6780  177.5050  144.8900 C   0  0  0  0  0  1  0  0  0  0  0  0
  1  7  1  1  0  0  0
  1  3  1  0  0  0  0
  2  4  1  0  0  0  0
  2  5  1  0  0  0  0
  3 17  1  1  0  0  0
  4  1  1  0  0  0  0
  5  6  1  0  0  0  0
  6  3  1  0  0  0  0
  7  8  1  0  0  0  0
  8 10  1  0  0  0  0
  9  7  2  0  0  0  0
 10 11  1  0  0  0  0
 11 12  1  0  0  0  0
 12 13  1  0  0  0  0
 13 15  1  0  0  0  0
 15 14  1  0  0  0  0
 17 16  2  0  0  0  0
 18 23  1  0  0  0  0
 20 19  1  0  0  0  0
 21 16  1  6  0  0  0
 21 23  1  0  0  0  0
 21 20  1  0  0  0  0
 22 19  1  0  0  0  0
 22 24  1  6  0  0  0
 23 22  1  0  0  0  0
 25 24  1  0  0  0  0
M  END
>  <MODEL>
8

>  <REMARK>
 VINA RESULT:      -5.8      2.938      7.130
  Name = 
  9 active torsions:
  status: ('A' for Active; 'I' for Inactive)
    1  A    between atoms: C_1  and  O_12
    2  A    between atoms: C_1  and  C_20
    3  A    between atoms: C_2  and  C_16
    4  A    between atoms: C_5  and  C_8
    5  A    between atoms: C_6  and  O_12
    6  A    between atoms: C_6  and  C_23
    7  A    between atoms: O_9  and  C_21
    8  A    between atoms: C_11  and  C_13
    9  A    between atoms: N_18  and  C_20
                            x       y       z     vdW  Elec       q    Type
                         _______ _______ _______ _____ _____    ______ ____

>  <TORSDO>
F 9

$$$$
=
 OpenBabel11062418083D

 25 26  0  0  1  0  0  0  0  0999 V2000
  185.6220  178.1950  145.3010 C   0  0  1  0  0  3  0  0  0  0  0  0
  185.6790  179.3780  147.2980 N   0  0  0  0  0  2  0  0  0  0  0  0
  186.7880  177.2770  145.7210 C   0  0  2  0  0  3  0  0  0  0  0  0
  185.7730  179.5230  145.9000 N   0  0  0  0  0  2  0  0  0  0  0  0
  186.9040  178.7370  147.7690 C   0  0  0  0  0  2  0  0  0  0  0  0
  186.9680  177.3050  147.2420 C   0  0  0  0  0  2  0  0  0  0  0  0
  185.4630  178.2780  143.8120 C   0  0  0  0  0  0  0  0  0  0  0  0
  184.1600  178.4770  143.2600 N   0  0  0  0  0  2  0  0  0  0  0  0
  186.4580  178.1150  143.0540 O   0  0  0  0  0  0  0  0  0  0  0  0
  183.8970  178.4380  141.8280 C   0  0  0  0  0  2  0  0  0  0  0  0
  182.4120  178.6290  141.5530 C   0  0  0  0  0  2  0  0  0  0  0  0
  181.7540  178.9950  142.7280 O   0  0  0  0  0  0  0  0  0  0  0  0
  180.3980  178.9420  142.4000 C   0  0  0  0  0  2  0  0  0  0  0  0
  179.6850  181.1330  141.7830 O   0  0  0  0  0  1  0  0  0  0  0  0
  179.7130  180.2220  142.8380 C   0  0  0  0  0  2  0  0  0  0  0  0
  189.2570  177.0500  145.4030 C   0  0  0  0  0  3  0  0  0  0  0  0
  188.0830  177.5440  144.9970 C   0  0  0  0  0  3  0  0  0  0  0  0
  191.9180  175.6050  144.3040 O   0  0  0  0  0  1  0  0  0  0  0  0
  191.3080  178.4050  142.6940 C   0  0  0  0  0  2  0  0  0  0  0  0
  190.4200  178.6320  143.8840 C   0  0  0  0  0  2  0  0  0  0  0  0
  190.5340  177.3520  144.6770 C   0  0  2  0  0  3  0  0  0  0  0  0
  191.3720  176.9000  142.5310 C   0  0  1  0  0  3  0  0  0  0  0  0
  190.8770  176.2730  143.7550 N   0  0  0  0  0  0  0  0  0  0  0  0
  190.5740  176.5120  141.4540 O   0  0  0  0  0  0  0  0  0  0  0  0
  191.1600  177.1160  140.3400 C   0  0  0  0  0  1  0  0  0  0  0  0
  1  7  1  6  0  0  0
  1  3  1  0  0  0  0
  1  4  1  0  0  0  0
  2  5  1  0  0  0  0
  3 17  1  6  0  0  0
  3  6  1  0  0  0  0
  4  2  1  0  0  0  0
  6  5  1  0  0  0  0
  8  7  1  0  0  0  0
  9  7  2  0  0  0  0
 10  8  1  0  0  0  0
 11 10  1  0  0  0  0
 11 12  1  0  0  0  0
 13 12  1  0  0  0  0
 13 15  1  0  0  0  0
 14 15  1  0  0  0  0
 17 16  2  0  0  0  0
 19 20  1  0  0  0  0
 20 21  1  0  0  0  0
 21 16  1  6  0  0  0
 22 24  1  6  0  0  0
 22 19  1  0  0  0  0
 22 23  1  0  0  0  0
 23 18  1  0  0  0  0
 23 21  1  0  0  0  0
 25 24  1  0  0  0  0
M  END
>  <MODEL>
9

>  <REMARK>
 VINA RESULT:      -5.8      2.597      6.510
  Name = 
  9 active torsions:
  status: ('A' for Active; 'I' for Inactive)
    1  A    between atoms: C_1  and  O_12
    2  A    between atoms: C_1  and  C_20
    3  A    between atoms: C_2  and  C_16
    4  A    between atoms: C_5  and  C_8
    5  A    between atoms: C_6  and  O_12
    6  A    between atoms: C_6  and  C_23
    7  A    between atoms: O_9  and  C_21
    8  A    between atoms: C_11  and  C_13
    9  A    between atoms: N_18  and  C_20
                            x       y       z     vdW  Elec       q    Type
                         _______ _______ _______ _____ _____    ______ ____

>  <TORSDO>
F 9

$$$$
