=
 OpenBabel11062414313D

 31 35  0  0  1  0  0  0  0  0999 V2000
  187.4630  177.8700  144.9000 C   0  0  2  0  0  3  0  0  0  0  0  0
  187.8500  177.1790  146.2120 C   0  0  0  0  0  2  0  0  0  0  0  0
  185.9380  177.9870  144.8000 C   0  0  2  0  0  3  0  0  0  0  0  0
  188.2230  178.2490  148.3220 O   0  0  0  0  0  1  0  0  0  0  0  0
  185.5470  179.4520  144.7880 C   0  0  2  0  0  3  0  0  0  0  0  0
  185.2940  178.6310  146.0380 C   0  0  2  0  0  3  0  0  0  0  0  0
  186.3100  179.0150  147.1140 C   0  0  0  0  0  2  0  0  0  0  0  0
  187.2190  177.8320  147.4500 C   0  0  1  0  0  3  0  0  0  0  0  0
  184.4340  179.2510  142.5760 C   0  0  0  0  0  0  0  0  0  0  0  0
  184.2480  179.6260  144.0180 C   0  0  1  0  0  3  0  0  0  0  0  0
  185.0720  179.1040  140.5610 C   0  0  0  0  0  3  0  0  0  0  0  0
  185.4550  179.5830  141.7710 N   0  0  0  0  0  0  0  0  0  0  0  0
  183.2040  178.7800  144.6210 N   0  0  0  0  0  2  0  0  0  0  0  0
  182.1870  178.1440  142.4530 C   0  0  0  0  0  2  0  0  0  0  0  0
  183.4620  178.6370  141.8540 C   0  0  2  0  0  3  0  0  0  0  0  0
  181.9770  178.8310  143.8130 C   0  0  0  0  0  2  0  0  0  0  0  0
  183.8530  178.5110  140.5770 N   0  0  0  0  0  0  0  0  0  0  0  0
  187.4660  175.8370  143.6510 F   0  0  0  0  0  0  0  0  0  0  0  0
  188.0200  177.1060  143.7030 C   0  0  1  0  0  3  0  0  0  0  0  0
  187.7000  177.8440  142.4090 C   0  0  0  0  0  2  0  0  0  0  0  0
  192.0540  177.6860  140.9690 C   0  0  0  0  0  1  0  0  0  0  0  0
  188.9720  178.1970  141.6550 C   0  0  2  0  0  3  0  0  0  0  0  0
  189.9050  176.4850  140.3390 C   0  0  1  0  0  3  0  0  0  0  0  0
  188.9120  177.6140  140.2560 C   0  0  2  0  0  3  0  0  0  0  0  0
  190.5760  176.0850  139.0260 C   0  0  0  0  0  1  0  0  0  0  0  0
  190.1030  177.7020  142.3500 O   0  0  0  0  0  0  0  0  0  0  0  0
  190.8390  176.9030  141.4560 C   0  0  2  0  0  3  0  0  0  0  0  0
  189.3300  178.6390  139.3070 N   0  0  0  0  0  2  0  0  0  0  0  0
  187.3570  178.2650  137.8510 N   0  0  0  0  0  1  0  0  0  0  0  0
  189.0030  179.8170  137.3300 O   0  0  0  0  0  0  0  0  0  0  0  0
  188.5810  178.9410  138.1290 C   0  0  0  0  0  0  0  0  0  0  0  0
  1 19  1  6  0  0  0
  1  2  1  0  0  0  0
  2  8  1  0  0  0  0
  3  1  1  0  0  0  0
  3  6  1  0  0  0  0
  5  3  1  0  0  0  0
  5  6  1  0  0  0  0
  6  7  1  0  0  0  0
  7  8  1  0  0  0  0
  8  4  1  0  0  0  0
  9 10  1  0  0  0  0
 10 13  1  0  0  0  0
 10  5  1  0  0  0  0
 11 17  2  0  0  0  0
 11 12  1  0  0  0  0
 12  9  2  0  0  0  0
 14 16  1  0  0  0  0
 15 14  1  0  0  0  0
 15  9  1  0  0  0  0
 16 13  1  0  0  0  0
 17 15  1  0  0  0  0
 18 19  1  0  0  0  0
 20 19  1  0  0  0  0
 21 27  1  0  0  0  0
 22 26  1  0  0  0  0
 22 20  1  0  0  0  0
 23 27  1  0  0  0  0
 24 23  1  0  0  0  0
 24 22  1  0  0  0  0
 25 23  1  0  0  0  0
 27 26  1  0  0  0  0
 28 24  1  0  0  0  0
 29 31  1  0  0  0  0
 30 31  2  0  0  0  0
 31 28  1  0  0  0  0
M  END
>  <MODEL>
1

>  <REMARK>
 VINA RESULT:      -9.3      0.000      0.000
  Name = 
  5 active torsions:
  status: ('A' for Active; 'I' for Inactive)
    1  A    between atoms: C_2  and  C_16
    2  A    between atoms: C_4  and  C_29
    3  A    between atoms: C_5  and  C_30
    4  A    between atoms: N_8  and  C_18
    5  A    between atoms: C_29  and  C_30
                            x       y       z     vdW  Elec       q    Type
                         _______ _______ _______ _____ _____    ______ ____

>  <TORSDO>
F 5

$$$$
=
 OpenBabel11062414313D

 31 35  0  0  1  0  0  0  0  0999 V2000
  190.2340  177.4450  142.9920 C   0  0  2  0  0  3  0  0  0  0  0  0
  191.3000  176.7140  143.8170 C   0  0  0  0  0  2  0  0  0  0  0  0
  188.8460  176.8790  143.3110 C   0  0  2  0  0  3  0  0  0  0  0  0
  192.0380  177.2980  146.0190 O   0  0  0  0  0  1  0  0  0  0  0  0
  187.9950  177.9630  143.9420 C   0  0  2  0  0  3  0  0  0  0  0  0
  188.5320  176.8450  144.8150 C   0  0  2  0  0  3  0  0  0  0  0  0
  189.6740  177.3780  145.6800 C   0  0  0  0  0  2  0  0  0  0  0  0
  190.9940  176.6930  145.3210 C   0  0  1  0  0  3  0  0  0  0  0  0
  185.6570  178.1800  144.7540 C   0  0  0  0  0  0  0  0  0  0  0  0
  186.5300  177.7080  143.6280 C   0  0  1  0  0  3  0  0  0  0  0  0
  184.7230  178.5010  146.6290 C   0  0  0  0  0  3  0  0  0  0  0  0
  185.8490  177.9940  146.0690 N   0  0  0  0  0  2  0  0  0  0  0  0
  186.1650  178.4130  142.3870 N   0  0  0  0  0  2  0  0  0  0  0  0
  183.9130  179.0680  143.1860 C   0  0  0  0  0  2  0  0  0  0  0  0
  184.4360  178.7360  144.5440 C   0  0  0  0  0  0  0  0  0  0  0  0
  184.7220  178.2890  142.1350 C   0  0  0  0  0  2  0  0  0  0  0  0
  183.8340  178.9710  145.7190 N   0  0  0  0  0  0  0  0  0  0  0  0
  190.3940  176.0100  141.0930 F   0  0  0  0  0  0  0  0  0  0  0  0
  190.5310  177.3270  141.5010 C   0  0  1  0  0  3  0  0  0  0  0  0
  189.5730  178.2000  140.7000 C   0  0  0  0  0  2  0  0  0  0  0  0
  186.6800  177.1230  137.3060 C   0  0  0  0  0  1  0  0  0  0  0  0
  188.8470  177.3840  139.6430 C   0  0  2  0  0  3  0  0  0  0  0  0
  188.9820  178.1920  137.4380 C   0  0  1  0  0  3  0  0  0  0  0  0
  189.7070  177.2870  138.3980 C   0  0  2  0  0  3  0  0  0  0  0  0
  189.1550  177.8730  135.9540 C   0  0  0  0  0  1  0  0  0  0  0  0
  187.6000  177.9820  139.3380 O   0  0  0  0  0  0  0  0  0  0  0  0
  187.5540  178.1950  137.9480 C   0  0  2  0  0  3  0  0  0  0  0  0
  189.7110  175.9010  137.9430 N   0  0  0  0  0  2  0  0  0  0  0  0
  192.1750  175.7110  138.1570 N   0  0  0  0  0  1  0  0  0  0  0  0
  190.8610  173.9590  137.3870 O   0  0  0  0  0  0  0  0  0  0  0  0
  190.9150  175.1430  137.8100 C   0  0  0  0  0  0  0  0  0  0  0  0
  1 19  1  6  0  0  0
  1  3  1  0  0  0  0
  1  2  1  0  0  0  0
  2  8  1  0  0  0  0
  3  5  1  0  0  0  0
  3  6  1  0  0  0  0
  5  6  1  0  0  0  0
  6  7  1  0  0  0  0
  8  7  1  0  0  0  0
  8  4  1  0  0  0  0
  9 12  1  0  0  0  0
 10  5  1  0  0  0  0
 10  9  1  0  0  0  0
 12 11  1  0  0  0  0
 13 10  1  0  0  0  0
 14 15  1  0  0  0  0
 15  9  2  0  0  0  0
 15 17  1  0  0  0  0
 16 13  1  0  0  0  0
 16 14  1  0  0  0  0
 17 11  2  0  0  0  0
 18 19  1  0  0  0  0
 20 19  1  0  0  0  0
 21 27  1  0  0  0  0
 22 20  1  0  0  0  0
 23 27  1  0  0  0  0
 23 24  1  0  0  0  0
 24 22  1  0  0  0  0
 25 23  1  0  0  0  0
 26 22  1  0  0  0  0
 27 26  1  0  0  0  0
 28 24  1  0  0  0  0
 30 31  2  0  0  0  0
 31 28  1  0  0  0  0
 31 29  1  0  0  0  0
M  END
>  <MODEL>
2

>  <REMARK>
 VINA RESULT:      -9.2      2.385      4.054
  Name = 
  5 active torsions:
  status: ('A' for Active; 'I' for Inactive)
    1  A    between atoms: C_2  and  C_16
    2  A    between atoms: C_4  and  C_29
    3  A    between atoms: C_5  and  C_30
    4  A    between atoms: N_8  and  C_18
    5  A    between atoms: C_29  and  C_30
                            x       y       z     vdW  Elec       q    Type
                         _______ _______ _______ _____ _____    ______ ____

>  <TORSDO>
F 5

$$$$
=
 OpenBabel11062414313D

 31 35  0  0  1  0  0  0  0  0999 V2000
  184.4000  179.0240  144.1860 C   0  0  2  0  0  3  0  0  0  0  0  0
  182.8890  178.8170  144.3470 C   0  0  0  0  0  2  0  0  0  0  0  0
  184.9510  178.0550  143.1350 C   0  0  2  0  0  3  0  0  0  0  0  0
  181.1670  179.8900  143.0750 O   0  0  0  0  0  1  0  0  0  0  0  0
  185.4990  178.8440  141.9620 C   0  0  2  0  0  3  0  0  0  0  0  0
  184.1880  178.0990  141.8030 C   0  0  2  0  0  3  0  0  0  0  0  0
  183.0310  179.0990  141.8060 C   0  0  0  0  0  2  0  0  0  0  0  0
  182.1240  178.8780  143.0170 C   0  0  1  0  0  3  0  0  0  0  0  0
  186.6450  178.3230  139.8200 C   0  0  0  0  0  0  0  0  0  0  0  0
  186.6180  178.0580  141.2980 C   0  0  1  0  0  3  0  0  0  0  0  0
  186.1790  178.5150  137.7620 C   0  0  0  0  0  3  0  0  0  0  0  0
  185.5990  178.3710  138.9800 N   0  0  0  0  0  0  0  0  0  0  0  0
  187.9080  178.4410  141.8960 N   0  0  0  0  0  2  0  0  0  0  0  0
  189.1520  178.3570  139.7540 C   0  0  0  0  0  2  0  0  0  0  0  0
  187.8030  178.3890  139.1150 C   0  0  2  0  0  3  0  0  0  0  0  0
  189.0150  177.7920  141.1780 C   0  0  0  0  0  2  0  0  0  0  0  0
  187.5340  178.5350  137.8090 N   0  0  0  0  0  0  0  0  0  0  0  0
  184.2280  178.3570  146.4700 F   0  0  0  0  0  0  0  0  0  0  0  0
  185.1160  178.8330  145.5190 C   0  0  1  0  0  3  0  0  0  0  0  0
  186.2630  177.8430  145.3660 C   0  0  0  0  0  2  0  0  0  0  0  0
  189.3390  178.5460  148.6970 C   0  0  0  0  0  1  0  0  0  0  0  0
  187.5090  178.3380  146.0830 C   0  0  2  0  0  3  0  0  0  0  0  0
  188.8860  176.6820  147.0300 C   0  0  1  0  0  3  0  0  0  0  0  0
  188.6810  177.4380  145.7430 C   0  0  2  0  0  3  0  0  0  0  0  0
  190.3030  176.1760  147.2920 C   0  0  0  0  0  1  0  0  0  0  0  0
  187.2890  178.3590  147.4820 O   0  0  0  0  0  0  0  0  0  0  0  0
  188.3080  177.6010  148.0880 C   0  0  2  0  0  3  0  0  0  0  0  0
  189.8300  178.2750  145.4140 N   0  0  0  0  0  2  0  0  0  0  0  0
  190.7240  176.6200  143.7980 N   0  0  0  0  0  1  0  0  0  0  0  0
  191.8150  178.6170  144.2550 O   0  0  0  0  0  0  0  0  0  0  0  0
  190.8310  177.8660  144.4810 C   0  0  0  0  0  0  0  0  0  0  0  0
  1  2  1  0  0  0  0
  1 19  1  1  0  0  0
  3  1  1  0  0  0  0
  5  3  1  0  0  0  0
  6  7  1  0  0  0  0
  6  5  1  0  0  0  0
  6  3  1  0  0  0  0
  7  8  1  0  0  0  0
  8  4  1  0  0  0  0
  8  2  1  0  0  0  0
  9 10  1  0  0  0  0
 10 13  1  0  0  0  0
 10  5  1  0  0  0  0
 11 17  2  0  0  0  0
 11 12  1  0  0  0  0
 12  9  2  0  0  0  0
 14 16  1  0  0  0  0
 15 14  1  0  0  0  0
 15  9  1  0  0  0  0
 16 13  1  0  0  0  0
 17 15  1  0  0  0  0
 19 18  1  0  0  0  0
 20 19  1  0  0  0  0
 20 22  1  0  0  0  0
 22 26  1  0  0  0  0
 23 25  1  0  0  0  0
 23 27  1  0  0  0  0
 24 22  1  0  0  0  0
 24 23  1  0  0  0  0
 26 27  1  0  0  0  0
 27 21  1  0  0  0  0
 28 24  1  0  0  0  0
 29 31  1  0  0  0  0
 30 31  2  0  0  0  0
 31 28  1  0  0  0  0
M  END
>  <MODEL>
3

>  <REMARK>
 VINA RESULT:      -9.2      2.777      5.787
  Name = 
  5 active torsions:
  status: ('A' for Active; 'I' for Inactive)
    1  A    between atoms: C_2  and  C_16
    2  A    between atoms: C_4  and  C_29
    3  A    between atoms: C_5  and  C_30
    4  A    between atoms: N_8  and  C_18
    5  A    between atoms: C_29  and  C_30
                            x       y       z     vdW  Elec       q    Type
                         _______ _______ _______ _____ _____    ______ ____

>  <TORSDO>
F 5

$$$$
=
 OpenBabel11062414313D

 31 35  0  0  1  0  0  0  0  0999 V2000
  190.6410  177.6370  143.6650 C   0  0  2  0  0  3  0  0  0  0  0  0
  191.6290  176.8240  144.5100 C   0  0  0  0  0  2  0  0  0  0  0  0
  189.2520  176.9900  143.7180 C   0  0  2  0  0  3  0  0  0  0  0  0
  192.0590  177.1020  146.8490 O   0  0  0  0  0  1  0  0  0  0  0  0
  188.2780  177.9450  144.3800 C   0  0  2  0  0  3  0  0  0  0  0  0
  188.7560  176.7280  145.1480 C   0  0  2  0  0  3  0  0  0  0  0  0
  189.7550  177.1620  146.2210 C   0  0  0  0  0  2  0  0  0  0  0  0
  191.1400  176.5760  145.9440 C   0  0  1  0  0  3  0  0  0  0  0  0
  185.8450  178.1800  144.8200 C   0  0  0  0  0  0  0  0  0  0  0  0
  186.8780  177.6960  143.8450 C   0  0  1  0  0  3  0  0  0  0  0  0
  184.6350  178.5190  146.5270 C   0  0  0  0  0  3  0  0  0  0  0  0
  185.8310  178.0010  146.1510 N   0  0  0  0  0  2  0  0  0  0  0  0
  186.7130  178.3950  142.5590 N   0  0  0  0  0  2  0  0  0  0  0  0
  184.3690  179.0680  142.9980 C   0  0  0  0  0  2  0  0  0  0  0  0
  184.6750  178.7410  144.4220 C   0  0  0  0  0  0  0  0  0  0  0  0
  185.3250  178.2770  142.0880 C   0  0  0  0  0  2  0  0  0  0  0  0
  183.9000  178.9880  145.4890 N   0  0  0  0  0  0  0  0  0  0  0  0
  192.3690  177.1480  142.0950 F   0  0  0  0  0  0  0  0  0  0  0  0
  191.1260  177.7470  142.2230 C   0  0  1  0  0  3  0  0  0  0  0  0
  190.1430  177.0650  141.2810 C   0  0  0  0  0  2  0  0  0  0  0  0
  191.8720  176.4740  137.0720 C   0  0  0  0  0  1  0  0  0  0  0  0
  190.5010  177.3390  139.8290 C   0  0  2  0  0  3  0  0  0  0  0  0
  189.7410  175.7600  138.2590 C   0  0  1  0  0  3  0  0  0  0  0  0
  189.3090  177.0290  138.9450 C   0  0  2  0  0  3  0  0  0  0  0  0
  189.1280  175.4980  136.8860 C   0  0  0  0  0  1  0  0  0  0  0  0
  191.6170  176.5550  139.4480 O   0  0  0  0  0  0  0  0  0  0  0  0
  191.2550  175.8200  138.3050 C   0  0  2  0  0  3  0  0  0  0  0  0
  189.1330  178.1270  138.0000 N   0  0  0  0  0  2  0  0  0  0  0  0
  186.6930  178.2590  138.4220 N   0  0  0  0  0  1  0  0  0  0  0  0
  187.7610  179.6370  136.8890 O   0  0  0  0  0  0  0  0  0  0  0  0
  187.8570  178.7110  137.7350 C   0  0  0  0  0  0  0  0  0  0  0  0
  1 19  1  6  0  0  0
  1  3  1  0  0  0  0
  1  2  1  0  0  0  0
  2  8  1  0  0  0  0
  3  5  1  0  0  0  0
  3  6  1  0  0  0  0
  5  6  1  0  0  0  0
  6  7  1  0  0  0  0
  8  7  1  0  0  0  0
  8  4  1  0  0  0  0
  9 12  1  0  0  0  0
 10  5  1  0  0  0  0
 10  9  1  0  0  0  0
 12 11  1  0  0  0  0
 13 10  1  0  0  0  0
 14 15  1  0  0  0  0
 15  9  2  0  0  0  0
 15 17  1  0  0  0  0
 16 13  1  0  0  0  0
 16 14  1  0  0  0  0
 17 11  2  0  0  0  0
 18 19  1  0  0  0  0
 20 19  1  0  0  0  0
 21 27  1  0  0  0  0
 22 20  1  0  0  0  0
 23 27  1  0  0  0  0
 23 24  1  0  0  0  0
 24 22  1  0  0  0  0
 25 23  1  0  0  0  0
 26 22  1  0  0  0  0
 27 26  1  0  0  0  0
 28 24  1  0  0  0  0
 30 31  2  0  0  0  0
 31 28  1  0  0  0  0
 31 29  1  0  0  0  0
M  END
>  <MODEL>
4

>  <REMARK>
 VINA RESULT:      -9.1      2.121      3.512
  Name = 
  5 active torsions:
  status: ('A' for Active; 'I' for Inactive)
    1  A    between atoms: C_2  and  C_16
    2  A    between atoms: C_4  and  C_29
    3  A    between atoms: C_5  and  C_30
    4  A    between atoms: N_8  and  C_18
    5  A    between atoms: C_29  and  C_30
                            x       y       z     vdW  Elec       q    Type
                         _______ _______ _______ _____ _____    ______ ____

>  <TORSDO>
F 5

$$$$
=
 OpenBabel11062414313D

 31 35  0  0  1  0  0  0  0  0999 V2000
  188.4710  178.1610  141.2610 C   0  0  2  0  0  3  0  0  0  0  0  0
  189.2960  177.4440  140.1850 C   0  0  0  0  0  2  0  0  0  0  0  0
  188.1970  177.2090  142.4300 C   0  0  2  0  0  3  0  0  0  0  0  0
  191.6850  177.3140  140.0820 O   0  0  0  0  0  1  0  0  0  0  0  0
  188.8640  177.7460  143.6820 C   0  0  2  0  0  3  0  0  0  0  0  0
  189.4640  176.5410  142.9830 C   0  0  2  0  0  3  0  0  0  0  0  0
  190.7360  176.9610  142.2460 C   0  0  0  0  0  2  0  0  0  0  0  0
  190.5710  176.7890  140.7360 C   0  0  1  0  0  3  0  0  0  0  0  0
  188.9430  177.3800  146.1370 C   0  0  0  0  0  0  0  0  0  0  0  0
  188.0870  177.2930  144.9070 C   0  0  1  0  0  3  0  0  0  0  0  0
  190.4670  177.1700  147.5940 C   0  0  0  0  0  3  0  0  0  0  0  0
  190.2200  176.9890  146.2730 N   0  0  0  0  0  0  0  0  0  0  0  0
  186.8930  178.1390  145.0700 N   0  0  0  0  0  2  0  0  0  0  0  0
  187.0420  178.2150  147.5430 C   0  0  0  0  0  2  0  0  0  0  0  0
  188.4410  177.7350  147.3480 C   0  0  2  0  0  3  0  0  0  0  0  0
  186.1990  177.8060  146.3230 C   0  0  0  0  0  2  0  0  0  0  0  0
  189.3960  177.6330  148.2850 N   0  0  0  0  0  0  0  0  0  0  0  0
  186.8530  177.9960  139.5150 F   0  0  0  0  0  0  0  0  0  0  0  0
  187.1630  178.6840  140.6780 C   0  0  1  0  0  3  0  0  0  0  0  0
  186.0290  178.5070  141.6800 C   0  0  0  0  0  2  0  0  0  0  0  0
  182.8600  180.0880  138.7610 C   0  0  0  0  0  1  0  0  0  0  0  0
  184.7440  179.1350  141.1640 C   0  0  2  0  0  3  0  0  0  0  0  0
  183.4500  177.8080  139.7160 C   0  0  1  0  0  3  0  0  0  0  0  0
  183.6320  178.1040  141.1810 C   0  0  2  0  0  3  0  0  0  0  0  0
  182.0610  177.3320  139.2960 C   0  0  0  0  0  1  0  0  0  0  0  0
  184.9380  179.6330  139.8520 O   0  0  0  0  0  0  0  0  0  0  0  0
  183.9550  179.0590  139.0260 C   0  0  2  0  0  3  0  0  0  0  0  0
  182.4420  178.7130  141.7660 N   0  0  0  0  0  2  0  0  0  0  0  0
  183.3640  178.5920  144.0650 N   0  0  0  0  0  1  0  0  0  0  0  0
  181.2480  179.4370  143.6230 O   0  0  0  0  0  0  0  0  0  0  0  0
  182.3080  178.9330  143.1710 C   0  0  0  0  0  0  0  0  0  0  0  0
  1 19  1  6  0  0  0
  1  3  1  0  0  0  0
  2  8  1  0  0  0  0
  2  1  1  0  0  0  0
  3  6  1  0  0  0  0
  3  5  1  0  0  0  0
  4  8  1  0  0  0  0
  5 10  1  0  0  0  0
  6  5  1  0  0  0  0
  7  6  1  0  0  0  0
  8  7  1  0  0  0  0
  9 12  2  0  0  0  0
  9 15  1  0  0  0  0
 10 13  1  0  0  0  0
 10  9  1  0  0  0  0
 11 17  2  0  0  0  0
 12 11  1  0  0  0  0
 13 16  1  0  0  0  0
 15 14  1  0  0  0  0
 15 17  1  0  0  0  0
 16 14  1  0  0  0  0
 18 19  1  0  0  0  0
 19 20  1  0  0  0  0
 21 27  1  0  0  0  0
 22 24  1  0  0  0  0
 22 20  1  0  0  0  0
 23 24  1  0  0  0  0
 24 28  1  0  0  0  0
 25 23  1  0  0  0  0
 26 22  1  0  0  0  0
 27 23  1  0  0  0  0
 27 26  1  0  0  0  0
 28 31  1  0  0  0  0
 31 30  2  0  0  0  0
 31 29  1  0  0  0  0
M  END
>  <MODEL>
5

>  <REMARK>
 VINA RESULT:      -9.0      3.124      6.691
  Name = 
  5 active torsions:
  status: ('A' for Active; 'I' for Inactive)
    1  A    between atoms: C_2  and  C_16
    2  A    between atoms: C_4  and  C_29
    3  A    between atoms: C_5  and  C_30
    4  A    between atoms: N_8  and  C_18
    5  A    between atoms: C_29  and  C_30
                            x       y       z     vdW  Elec       q    Type
                         _______ _______ _______ _____ _____    ______ ____

>  <TORSDO>
F 5

$$$$
=
 OpenBabel11062414313D

 31 35  0  0  1  0  0  0  0  0999 V2000
  185.8010  178.4450  143.6730 C   0  0  2  0  0  3  0  0  0  0  0  0
  185.3040  179.3230  144.8280 C   0  0  0  0  0  2  0  0  0  0  0  0
  187.3080  178.2010  143.8120 C   0  0  2  0  0  3  0  0  0  0  0  0
  184.5500  178.5560  146.9680 O   0  0  0  0  0  1  0  0  0  0  0  0
  187.5600  176.7210  144.0220 C   0  0  2  0  0  3  0  0  0  0  0  0
  187.7150  177.6710  145.1940 C   0  0  2  0  0  3  0  0  0  0  0  0
  186.5310  177.5030  146.1470 C   0  0  0  0  0  2  0  0  0  0  0  0
  185.6980  178.7830  146.2110 C   0  0  1  0  0  3  0  0  0  0  0  0
  189.1520  176.9930  142.1340 C   0  0  0  0  0  0  0  0  0  0  0  0
  188.9300  176.3550  143.4750 C   0  0  1  0  0  3  0  0  0  0  0  0
  189.0210  177.6210  140.1150 C   0  0  0  0  0  3  0  0  0  0  0  0
  188.2880  177.0620  141.1100 N   0  0  0  0  0  0  0  0  0  0  0  0
  189.9690  176.8030  144.4170 N   0  0  0  0  0  2  0  0  0  0  0  0
  191.5530  177.5070  142.6460 C   0  0  0  0  0  2  0  0  0  0  0  0
  190.3670  177.4530  141.7410 C   0  0  2  0  0  3  0  0  0  0  0  0
  191.3060  176.5780  143.8470 C   0  0  0  0  0  2  0  0  0  0  0  0
  190.3040  177.8790  140.4700 N   0  0  0  0  0  0  0  0  0  0  0  0
  186.6610  179.4060  141.6660 F   0  0  0  0  0  0  0  0  0  0  0  0
  185.4850  179.0930  142.3280 C   0  0  1  0  0  3  0  0  0  0  0  0
  184.6620  178.1460  141.4650 C   0  0  0  0  0  2  0  0  0  0  0  0
  181.9350  179.5430  138.0500 C   0  0  0  0  0  1  0  0  0  0  0  0
  183.5690  178.8970  140.7220 C   0  0  2  0  0  3  0  0  0  0  0  0
  181.9430  177.5730  139.6560 C   0  0  1  0  0  3  0  0  0  0  0  0
  182.2310  178.2320  140.9800 C   0  0  2  0  0  3  0  0  0  0  0  0
  180.4680  177.3610  139.3200 C   0  0  0  0  0  1  0  0  0  0  0  0
  183.8520  178.9200  139.3350 O   0  0  0  0  0  0  0  0  0  0  0  0
  182.7350  178.3960  138.6600 C   0  0  2  0  0  3  0  0  0  0  0  0
  181.2520  179.2650  141.2980 N   0  0  0  0  0  2  0  0  0  0  0  0
  181.5850  178.9970  143.7410 N   0  0  0  0  0  1  0  0  0  0  0  0
  180.0550  180.5030  142.8590 O   0  0  0  0  0  0  0  0  0  0  0  0
  180.9270  179.6230  142.6420 C   0  0  0  0  0  0  0  0  0  0  0  0
  1 19  1  6  0  0  0
  1  3  1  0  0  0  0
  1  2  1  0  0  0  0
  2  8  1  0  0  0  0
  3  5  1  0  0  0  0
  3  6  1  0  0  0  0
  5  6  1  0  0  0  0
  6  7  1  0  0  0  0
  7  8  1  0  0  0  0
  8  4  1  0  0  0  0
  9 10  1  0  0  0  0
 10  5  1  0  0  0  0
 10 13  1  0  0  0  0
 11 17  2  0  0  0  0
 11 12  1  0  0  0  0
 12  9  2  0  0  0  0
 14 16  1  0  0  0  0
 15  9  1  0  0  0  0
 15 14  1  0  0  0  0
 16 13  1  0  0  0  0
 17 15  1  0  0  0  0
 18 19  1  0  0  0  0
 20 19  1  0  0  0  0
 21 27  1  0  0  0  0
 22 24  1  0  0  0  0
 22 20  1  0  0  0  0
 23 24  1  0  0  0  0
 24 28  1  0  0  0  0
 25 23  1  0  0  0  0
 26 22  1  0  0  0  0
 27 26  1  0  0  0  0
 27 23  1  0  0  0  0
 28 31  1  0  0  0  0
 31 30  2  0  0  0  0
 31 29  1  0  0  0  0
M  END
>  <MODEL>
6

>  <REMARK>
 VINA RESULT:      -8.8      3.067      6.553
  Name = 
  5 active torsions:
  status: ('A' for Active; 'I' for Inactive)
    1  A    between atoms: C_2  and  C_16
    2  A    between atoms: C_4  and  C_29
    3  A    between atoms: C_5  and  C_30
    4  A    between atoms: N_8  and  C_18
    5  A    between atoms: C_29  and  C_30
                            x       y       z     vdW  Elec       q    Type
                         _______ _______ _______ _____ _____    ______ ____

>  <TORSDO>
F 5

$$$$
=
 OpenBabel11062414313D

 31 35  0  0  1  0  0  0  0  0999 V2000
  186.9640  178.2520  144.2850 C   0  0  2  0  0  3  0  0  0  0  0  0
  186.6690  177.9130  145.7510 C   0  0  0  0  0  2  0  0  0  0  0  0
  185.8110  177.7770  143.3950 C   0  0  2  0  0  3  0  0  0  0  0  0
  185.4690  179.2790  147.3090 O   0  0  0  0  0  1  0  0  0  0  0  0
  185.1580  178.9750  142.7360 C   0  0  2  0  0  3  0  0  0  0  0  0
  184.4340  178.2690  143.8660 C   0  0  2  0  0  3  0  0  0  0  0  0
  184.5020  179.1270  145.1300 C   0  0  0  0  0  2  0  0  0  0  0  0
  185.2990  178.4190  146.2260 C   0  0  1  0  0  3  0  0  0  0  0  0
  183.0910  178.8850  141.3600 C   0  0  0  0  0  0  0  0  0  0  0  0
  184.5560  178.5590  141.4040 C   0  0  1  0  0  3  0  0  0  0  0  0
  181.0100  179.0290  141.7320 C   0  0  0  0  0  3  0  0  0  0  0  0
  182.1800  178.6780  142.3230 N   0  0  0  0  0  2  0  0  0  0  0  0
  185.2540  179.2580  140.3120 N   0  0  0  0  0  2  0  0  0  0  0  0
  183.2050  179.6140  138.9630 C   0  0  0  0  0  2  0  0  0  0  0  0
  182.4730  179.3000  140.2250 C   0  0  0  0  0  0  0  0  0  0  0  0
  184.6020  178.9730  139.0250 C   0  0  0  0  0  2  0  0  0  0  0  0
  181.1540  179.4210  140.4420 N   0  0  0  0  0  0  0  0  0  0  0  0
  188.5660  176.5180  144.6270 F   0  0  0  0  0  0  0  0  0  0  0  0
  188.2800  177.6220  143.8400 C   0  0  1  0  0  3  0  0  0  0  0  0
  188.1910  177.1870  142.3820 C   0  0  0  0  0  2  0  0  0  0  0  0
  192.3780  177.7120  140.5800 C   0  0  0  0  0  1  0  0  0  0  0  0
  189.3380  177.7680  141.5710 C   0  0  2  0  0  3  0  0  0  0  0  0
  190.3280  176.3270  139.9970 C   0  0  1  0  0  3  0  0  0  0  0  0
  189.2100  177.3280  140.1250 C   0  0  2  0  0  3  0  0  0  0  0  0
  190.9120  176.1490  138.5980 C   0  0  0  0  0  1  0  0  0  0  0  0
  190.5780  177.3470  142.1100 O   0  0  0  0  0  0  0  0  0  0  0  0
  191.3110  176.7400  141.0740 C   0  0  2  0  0  3  0  0  0  0  0  0
  189.4180  178.4890  139.2660 N   0  0  0  0  0  2  0  0  0  0  0  0
  187.6470  177.7810  137.6810 N   0  0  0  0  0  1  0  0  0  0  0  0
  188.9070  179.7020  137.3510 O   0  0  0  0  0  0  0  0  0  0  0  0
  188.6680  178.6970  138.0680 C   0  0  0  0  0  0  0  0  0  0  0  0
  1 19  1  6  0  0  0
  1  2  1  0  0  0  0
  2  8  1  0  0  0  0
  3  6  1  0  0  0  0
  3  1  1  0  0  0  0
  5  3  1  0  0  0  0
  5  6  1  0  0  0  0
  6  7  1  0  0  0  0
  7  8  1  0  0  0  0
  8  4  1  0  0  0  0
  9 10  1  0  0  0  0
  9 12  1  0  0  0  0
 10  5  1  0  0  0  0
 11 12  1  0  0  0  0
 13 10  1  0  0  0  0
 14 16  1  0  0  0  0
 14 15  1  0  0  0  0
 15 17  1  0  0  0  0
 15  9  2  0  0  0  0
 16 13  1  0  0  0  0
 17 11  2  0  0  0  0
 19 18  1  0  0  0  0
 20 19  1  0  0  0  0
 21 27  1  0  0  0  0
 22 26  1  0  0  0  0
 22 20  1  0  0  0  0
 23 24  1  0  0  0  0
 23 27  1  0  0  0  0
 24 22  1  0  0  0  0
 25 23  1  0  0  0  0
 27 26  1  0  0  0  0
 28 24  1  0  0  0  0
 29 31  1  0  0  0  0
 30 31  2  0  0  0  0
 31 28  1  0  0  0  0
M  END
>  <MODEL>
7

>  <REMARK>
 VINA RESULT:      -8.8      1.365      2.311
  Name = 
  5 active torsions:
  status: ('A' for Active; 'I' for Inactive)
    1  A    between atoms: C_2  and  C_16
    2  A    between atoms: C_4  and  C_29
    3  A    between atoms: C_5  and  C_30
    4  A    between atoms: N_8  and  C_18
    5  A    between atoms: C_29  and  C_30
                            x       y       z     vdW  Elec       q    Type
                         _______ _______ _______ _____ _____    ______ ____

>  <TORSDO>
F 5

$$$$
=
 OpenBabel11062414313D

 31 35  0  0  1  0  0  0  0  0999 V2000
  185.7960  178.1280  142.6460 C   0  0  2  0  0  3  0  0  0  0  0  0
  187.1680  178.5710  142.1230 C   0  0  0  0  0  2  0  0  0  0  0  0
  184.6930  178.9750  142.0030 C   0  0  2  0  0  3  0  0  0  0  0  0
  188.2700  177.7490  140.1620 O   0  0  0  0  0  1  0  0  0  0  0  0
  183.8000  178.0840  141.1640 C   0  0  2  0  0  3  0  0  0  0  0  0
  184.7720  179.0180  140.4700 C   0  0  2  0  0  3  0  0  0  0  0  0
  185.9410  178.2100  139.9050 C   0  0  0  0  0  2  0  0  0  0  0  0
  187.2520  178.5980  140.5900 C   0  0  1  0  0  3  0  0  0  0  0  0
  181.4380  177.6920  140.4990 C   0  0  0  0  0  0  0  0  0  0  0  0
  182.3990  178.6710  141.1110 C   0  0  1  0  0  3  0  0  0  0  0  0
  180.4230  176.3400  139.2220 C   0  0  0  0  0  3  0  0  0  0  0  0
  181.6270  176.9380  139.4050 N   0  0  0  0  0  0  0  0  0  0  0  0
  181.9600  179.0130  142.4740 N   0  0  0  0  0  2  0  0  0  0  0  0
  179.6160  178.2940  142.1130 C   0  0  0  0  0  2  0  0  0  0  0  0
  180.1520  177.5780  140.9190 C   0  0  2  0  0  3  0  0  0  0  0  0
  180.5580  179.4590  142.4610 C   0  0  0  0  0  2  0  0  0  0  0  0
  179.4940  176.7070  140.1390 N   0  0  0  0  0  0  0  0  0  0  0  0
  184.4550  177.9600  144.6120 F   0  0  0  0  0  0  0  0  0  0  0  0
  185.7380  178.2370  144.1670 C   0  0  1  0  0  3  0  0  0  0  0  0
  186.7110  177.2540  144.8050 C   0  0  0  0  0  2  0  0  0  0  0  0
  189.1590  178.4490  148.4970 C   0  0  0  0  0  1  0  0  0  0  0  0
  187.7210  177.9800  145.6800 C   0  0  2  0  0  3  0  0  0  0  0  0
  189.3380  176.6320  146.7300 C   0  0  1  0  0  3  0  0  0  0  0  0
  189.1020  177.3940  145.4530 C   0  0  2  0  0  3  0  0  0  0  0  0
  190.7980  176.4500  147.1410 C   0  0  0  0  0  1  0  0  0  0  0  0
  187.3540  177.8670  147.0430 O   0  0  0  0  0  0  0  0  0  0  0  0
  188.4510  177.3300  147.7400 C   0  0  2  0  0  3  0  0  0  0  0  0
  190.0500  178.4900  145.2890 N   0  0  0  0  0  2  0  0  0  0  0  0
  190.5480  177.8680  142.9410 N   0  0  0  0  0  1  0  0  0  0  0  0
  191.5920  179.6530  143.9950 O   0  0  0  0  0  0  0  0  0  0  0  0
  190.7650  178.7070  144.0710 C   0  0  0  0  0  0  0  0  0  0  0  0
  1 19  1  1  0  0  0
  2  1  1  0  0  0  0
  3  1  1  0  0  0  0
  4  8  1  0  0  0  0
  5  3  1  0  0  0  0
  6  5  1  0  0  0  0
  6  3  1  0  0  0  0
  7  6  1  0  0  0  0
  7  8  1  0  0  0  0
  8  2  1  0  0  0  0
  9 15  1  0  0  0  0
  9 10  1  0  0  0  0
 10  5  1  0  0  0  0
 10 13  1  0  0  0  0
 11 12  1  0  0  0  0
 11 17  2  0  0  0  0
 12  9  2  0  0  0  0
 14 16  1  0  0  0  0
 15 14  1  0  0  0  0
 16 13  1  0  0  0  0
 17 15  1  0  0  0  0
 19 18  1  0  0  0  0
 19 20  1  0  0  0  0
 20 22  1  0  0  0  0
 22 26  1  0  0  0  0
 23 25  1  0  0  0  0
 23 27  1  0  0  0  0
 24 22  1  0  0  0  0
 24 23  1  0  0  0  0
 26 27  1  0  0  0  0
 27 21  1  0  0  0  0
 28 24  1  0  0  0  0
 29 31  1  0  0  0  0
 30 31  2  0  0  0  0
 31 28  1  0  0  0  0
M  END
>  <MODEL>
8

>  <REMARK>
 VINA RESULT:      -8.7      2.641      5.323
  Name = 
  5 active torsions:
  status: ('A' for Active; 'I' for Inactive)
    1  A    between atoms: C_2  and  C_16
    2  A    between atoms: C_4  and  C_29
    3  A    between atoms: C_5  and  C_30
    4  A    between atoms: N_8  and  C_18
    5  A    between atoms: C_29  and  C_30
                            x       y       z     vdW  Elec       q    Type
                         _______ _______ _______ _____ _____    ______ ____

>  <TORSDO>
F 5

$$$$
=
 OpenBabel11062414313D

 31 35  0  0  1  0  0  0  0  0999 V2000
  185.8770  178.2760  142.9710 C   0  0  2  0  0  3  0  0  0  0  0  0
  185.1070  177.9230  144.2490 C   0  0  0  0  0  2  0  0  0  0  0  0
  185.0100  177.9860  141.7410 C   0  0  2  0  0  3  0  0  0  0  0  0
  183.6430  179.3750  145.4690 O   0  0  0  0  0  1  0  0  0  0  0  0
  184.7310  179.2830  141.0070 C   0  0  2  0  0  3  0  0  0  0  0  0
  183.6190  178.6340  141.8090 C   0  0  2  0  0  3  0  0  0  0  0  0
  183.3870  179.4290  143.0940 C   0  0  0  0  0  2  0  0  0  0  0  0
  183.7220  178.5840  144.3240 C   0  0  1  0  0  3  0  0  0  0  0  0
  185.7350  178.3140  138.9510 C   0  0  0  0  0  0  0  0  0  0  0  0
  184.5290  178.9970  139.5280 C   0  0  1  0  0  3  0  0  0  0  0  0
  187.6880  177.7920  138.3150 C   0  0  0  0  0  3  0  0  0  0  0  0
  187.0250  178.6270  139.1540 N   0  0  0  0  0  2  0  0  0  0  0  0
  183.3420  178.1430  139.3520 N   0  0  0  0  0  2  0  0  0  0  0  0
  184.3400  176.7920  137.5290 C   0  0  0  0  0  2  0  0  0  0  0  0
  185.6410  177.3590  137.9920 C   0  0  0  0  0  0  0  0  0  0  0  0
  183.2050  177.7440  137.9430 C   0  0  0  0  0  2  0  0  0  0  0  0
  186.8670  176.9940  137.5880 N   0  0  0  0  0  0  0  0  0  0  0  0
  188.2410  178.3670  142.6700 F   0  0  0  0  0  0  0  0  0  0  0  0
  187.1870  177.4980  142.8990 C   0  0  1  0  0  3  0  0  0  0  0  0
  187.4300  176.7490  144.2030 C   0  0  0  0  0  2  0  0  0  0  0  0
  189.0650  178.3360  148.1850 C   0  0  0  0  0  1  0  0  0  0  0  0
  188.1880  177.6160  145.1950 C   0  0  2  0  0  3  0  0  0  0  0  0
  189.7470  176.5040  146.5610 C   0  0  1  0  0  3  0  0  0  0  0  0
  189.6450  177.1950  145.2270 C   0  0  2  0  0  3  0  0  0  0  0  0
  191.1270  176.5120  147.2160 C   0  0  0  0  0  1  0  0  0  0  0  0
  187.6100  177.4990  146.4830 O   0  0  0  0  0  0  0  0  0  0  0  0
  188.6270  177.1190  147.3770 C   0  0  2  0  0  3  0  0  0  0  0  0
  190.4760  178.3920  145.1690 N   0  0  0  0  0  2  0  0  0  0  0  0
  191.3820  177.7990  142.9380 N   0  0  0  0  0  1  0  0  0  0  0  0
  192.0480  179.7090  144.0760 O   0  0  0  0  0  0  0  0  0  0  0  0
  191.3330  178.6750  144.0620 C   0  0  0  0  0  0  0  0  0  0  0  0
  1 19  1  6  0  0  0
  1  2  1  0  0  0  0
  2  8  1  0  0  0  0
  3  6  1  0  0  0  0
  3  1  1  0  0  0  0
  5  3  1  0  0  0  0
  5  6  1  0  0  0  0
  6  7  1  0  0  0  0
  7  8  1  0  0  0  0
  8  4  1  0  0  0  0
  9 12  1  0  0  0  0
  9 10  1  0  0  0  0
 10  5  1  0  0  0  0
 11 12  1  0  0  0  0
 13 10  1  0  0  0  0
 14 16  1  0  0  0  0
 14 15  1  0  0  0  0
 15  9  2  0  0  0  0
 16 13  1  0  0  0  0
 17 15  1  0  0  0  0
 17 11  2  0  0  0  0
 18 19  1  0  0  0  0
 19 20  1  0  0  0  0
 20 22  1  0  0  0  0
 22 24  1  0  0  0  0
 22 26  1  0  0  0  0
 23 25  1  0  0  0  0
 23 27  1  0  0  0  0
 24 23  1  0  0  0  0
 26 27  1  0  0  0  0
 27 21  1  0  0  0  0
 28 24  1  0  0  0  0
 29 31  1  0  0  0  0
 31 30  2  0  0  0  0
 31 28  1  0  0  0  0
M  END
>  <MODEL>
9

>  <REMARK>
 VINA RESULT:      -8.7      2.622      5.078
  Name = 
  5 active torsions:
  status: ('A' for Active; 'I' for Inactive)
    1  A    between atoms: C_2  and  C_16
    2  A    between atoms: C_4  and  C_29
    3  A    between atoms: C_5  and  C_30
    4  A    between atoms: N_8  and  C_18
    5  A    between atoms: C_29  and  C_30
                            x       y       z     vdW  Elec       q    Type
                         _______ _______ _______ _____ _____    ______ ____

>  <TORSDO>
F 5

$$$$
