=
 OpenBabel11062417533D

 39 42  0  0  1  0  0  0  0  0999 V2000
  185.1190  178.2680  144.6070 C   0  0  2  0  0  3  0  0  0  0  0  0
  184.5960  179.4400  143.8020 C   0  0  2  0  0  3  0  0  0  0  0  0
  183.9090  179.0440  145.0910 C   0  0  0  0  0  2  0  0  0  0  0  0
  186.2470  178.6730  145.3200 O   0  0  0  0  0  0  0  0  0  0  0  0
  187.0540  177.5370  145.3820 C   0  0  0  0  0  2  0  0  0  0  0  0
  192.1310  177.2900  142.8590 O   0  0  0  0  0  1  0  0  0  0  0  0
  189.5510  178.0450  145.4110 C   0  0  2  0  0  3  0  0  0  0  0  0
  188.3120  177.7410  144.5500 C   0  0  1  0  0  3  0  0  0  0  0  0
  190.8090  177.5720  143.2030 C   0  0  2  0  0  3  0  0  0  0  0  0
  190.7810  178.3390  144.5350 C   0  0  1  0  0  3  0  0  0  0  0  0
  190.8580  179.7090  144.2790 O   0  0  0  0  0  1  0  0  0  0  0  0
  190.1290  175.5420  142.0960 O   0  0  0  0  0  1  0  0  0  0  0  0
  188.5100  176.5690  143.5710 C   0  0  2  0  0  3  0  0  0  0  0  0
  189.9940  176.2790  143.2750 C   0  0  2  0  0  3  0  0  0  0  0  0
  191.3450  176.8210  146.6520 C   0  0  0  0  0  1  0  0  0  0  0  0
  189.8510  176.9230  146.4050 C   0  0  0  0  0  2  0  0  0  0  0  0
  187.8140  176.8420  142.3880 O   0  0  0  0  0  0  0  0  0  0  0  0
  187.8880  178.2300  142.2400 C   0  0  0  0  0  2  0  0  0  0  0  0
  188.5460  178.0670  140.1440 C   0  0  0  0  0  1  0  0  0  0  0  0
  187.5240  178.5790  140.9400 O   0  0  0  0  0  0  0  0  0  0  0  0
  183.8050  178.9140  142.6160 C   0  0  0  0  0  2  0  0  0  0  0  0
  182.3740  178.5890  143.0240 C   0  0  0  0  0  2  0  0  0  0  0  0
  181.3890  179.1500  142.0490 C   0  0  0  0  0  0  0  0  0  0  0  0
  180.6980  180.1090  142.3570 O   0  0  0  0  0  0  0  0  0  0  0  0
  181.2250  178.5020  140.7090 C   0  0  0  0  0  2  0  0  0  0  0  0
  181.7420  179.3420  139.5310 C   0  0  2  0  0  3  0  0  0  0  0  0
  179.9890  182.4470  136.7290 C   0  0  0  0  0  2  0  0  0  0  0  0
  179.9460  180.9430  136.4880 C   0  0  0  0  0  2  0  0  0  0  0  0
  180.7010  180.1940  138.7880 C   0  0  1  0  0  3  0  0  0  0  0  0
  180.6030  181.5340  139.3580 N   0  0  0  0  0  2  0  0  0  0  0  0
  181.0380  180.2520  137.2990 C   0  0  0  0  0  2  0  0  0  0  0  0
  179.1280  182.8860  137.9170 C   0  0  0  0  0  2  0  0  0  0  0  0
  179.2330  181.9830  139.1470 C   0  0  0  0  0  2  0  0  0  0  0  0
  182.6670  177.1390  138.7470 C   0  0  0  0  0  2  0  0  0  0  0  0
  183.8320  176.4010  138.0720 C   0  0  0  0  0  2  0  0  0  0  0  0
  184.7030  177.3180  137.3350 N   0  0  0  0  0  2  0  0  0  0  0  0
  184.2310  179.1270  138.9650 C   0  0  0  0  0  2  0  0  0  0  0  0
  182.8010  178.6620  138.6570 C   0  0  0  0  0  3  0  0  0  0  0  0
  185.2960  178.2470  138.2950 C   0  0  0  0  0  2  0  0  0  0  0  0
  1  3  1  0  0  0  0
  1  4  1  1  0  0  0
  2 21  1  6  0  0  0
  2  1  1  0  0  0  0
  2  3  1  0  0  0  0
  4  5  1  0  0  0  0
  7 16  1  1  0  0  0
  8  5  1  1  0  0  0
  8  7  1  0  0  0  0
  9  6  1  1  0  0  0
  9 14  1  0  0  0  0
  9 10  1  0  0  0  0
 10 11  1  6  0  0  0
 10  7  1  0  0  0  0
 13 17  1  6  0  0  0
 13  8  1  0  0  0  0
 14 12  1  6  0  0  0
 14 13  1  0  0  0  0
 16 15  1  0  0  0  0
 18 17  1  0  0  0  0
 19 20  1  0  0  0  0
 20 18  1  0  0  0  0
 21 22  1  0  0  0  0
 23 24  2  0  0  0  0
 23 22  1  0  0  0  0
 25 23  1  0  0  0  0
 26 25  1  6  0  0  0
 27 32  1  0  0  0  0
 28 27  1  0  0  0  0
 28 31  1  0  0  0  0
 29 30  1  0  0  0  0
 29 26  1  1  0  0  0
 31 29  1  0  0  0  0
 32 33  1  0  0  0  0
 33 30  1  0  0  0  0
 35 34  1  0  0  0  0
 36 35  1  0  0  0  0
 36 39  1  0  0  0  0
 38 34  1  0  0  0  0
 38 37  1  0  0  0  0
 38 26  1  0  0  0  0
 39 37  1  0  0  0  0
M  END
>  <MODEL>
1

>  <REMARK>
 VINA RESULT:      -7.4      0.000      0.000
  Name = 
  14 active torsions:
  status: ('A' for Active; 'I' for Inactive)
    1  A    between atoms: C_1  and  C_6
    2  A    between atoms: C_1  and  C_32
    3  A    between atoms: C_4  and  C_37
    4  A    between atoms: C_5  and  O_24
    5  A    between atoms: C_5  and  O_38
    6  A    between atoms: C_6  and  C_11
    7  A    between atoms: C_7  and  O_9
    8  A    between atoms: O_9  and  C_35
    9  A    between atoms: C_10  and  C_35
   10  A    between atoms: C_11  and  C_21
   11  A    between atoms: C_11  and  C_30
   12  A    between atoms: C_13  and  C_18
   13  A    between atoms: C_18  and  C_32
   14  A    between atoms: C_33  and  O_38
                            x       y       z     vdW  Elec       q    Type
                         _______ _______ _______ _____ _____    ______ ____

>  <TORSDO>
F 14

$$$$
=
 OpenBabel11062417533D

 39 42  0  0  1  0  0  0  0  0999 V2000
  185.2550  178.1900  144.6540 C   0  0  2  0  0  3  0  0  0  0  0  0
  184.9700  179.1750  143.5390 C   0  0  2  0  0  3  0  0  0  0  0  0
  184.0860  179.1490  144.7680 C   0  0  0  0  0  2  0  0  0  0  0  0
  186.3210  178.6650  145.4180 O   0  0  0  0  0  0  0  0  0  0  0  0
  187.1650  177.5630  145.5730 C   0  0  0  0  0  2  0  0  0  0  0  0
  192.1700  177.1680  142.9290 O   0  0  0  0  0  1  0  0  0  0  0  0
  189.6670  178.0400  145.5210 C   0  0  2  0  0  3  0  0  0  0  0  0
  188.4030  177.7240  144.7020 C   0  0  1  0  0  3  0  0  0  0  0  0
  190.8600  177.4780  143.2970 C   0  0  2  0  0  3  0  0  0  0  0  0
  190.8770  178.2890  144.6030 C   0  0  1  0  0  3  0  0  0  0  0  0
  190.9640  179.6490  144.3010 O   0  0  0  0  0  1  0  0  0  0  0  0
  190.1260  175.4220  142.2760 O   0  0  0  0  0  1  0  0  0  0  0  0
  188.5600  176.5180  143.7580 C   0  0  2  0  0  3  0  0  0  0  0  0
  190.0320  176.1990  143.4330 C   0  0  2  0  0  3  0  0  0  0  0  0
  191.4800  176.8030  146.7210 C   0  0  0  0  0  1  0  0  0  0  0  0
  189.9790  176.9470  146.5430 C   0  0  0  0  0  2  0  0  0  0  0  0
  187.8360  176.7620  142.5860 O   0  0  0  0  0  0  0  0  0  0  0  0
  188.1910  178.0590  142.2080 C   0  0  0  0  0  2  0  0  0  0  0  0
  189.0830  178.0090  140.1950 C   0  0  0  0  0  1  0  0  0  0  0  0
  187.8840  178.2510  140.8610 O   0  0  0  0  0  0  0  0  0  0  0  0
  184.2830  178.4450  142.3970 C   0  0  0  0  0  2  0  0  0  0  0  0
  184.6810  179.0470  141.0560 C   0  0  0  0  0  2  0  0  0  0  0  0
  183.5470  179.0050  140.0820 C   0  0  0  0  0  0  0  0  0  0  0  0
  182.3940  178.9670  140.4840 O   0  0  0  0  0  0  0  0  0  0  0  0
  183.8350  178.9660  138.6130 C   0  0  0  0  0  2  0  0  0  0  0  0
  184.2670  177.5890  138.0880 C   0  0  2  0  0  3  0  0  0  0  0  0
  188.4620  176.5590  136.7060 C   0  0  0  0  0  2  0  0  0  0  0  0
  187.1860  175.9980  136.0890 C   0  0  0  0  0  2  0  0  0  0  0  0
  185.5330  177.5510  137.2190 C   0  0  1  0  0  3  0  0  0  0  0  0
  186.5760  178.4190  137.7560 N   0  0  0  0  0  2  0  0  0  0  0  0
  186.0320  176.1140  137.0790 C   0  0  0  0  0  2  0  0  0  0  0  0
  188.6370  178.0590  136.4530 C   0  0  0  0  0  2  0  0  0  0  0  0
  187.3620  178.8870  136.6230 C   0  0  0  0  0  2  0  0  0  0  0  0
  181.9800  177.4910  137.0440 C   0  0  0  0  0  2  0  0  0  0  0  0
  180.7190  176.6540  136.7870 C   0  0  0  0  0  2  0  0  0  0  0  0
  180.9610  175.2260  136.9990 N   0  0  0  0  0  2  0  0  0  0  0  0
  182.6270  175.7390  138.7640 C   0  0  0  0  0  2  0  0  0  0  0  0
  183.1230  176.6680  137.6470 C   0  0  0  0  0  3  0  0  0  0  0  0
  181.3130  175.0330  138.4050 C   0  0  0  0  0  2  0  0  0  0  0  0
  1  3  1  0  0  0  0
  1  4  1  1  0  0  0
  2 21  1  6  0  0  0
  2  1  1  0  0  0  0
  2  3  1  0  0  0  0
  4  5  1  0  0  0  0
  7 16  1  1  0  0  0
  8  7  1  0  0  0  0
  8  5  1  1  0  0  0
  9  6  1  1  0  0  0
  9 14  1  0  0  0  0
  9 10  1  0  0  0  0
 10 11  1  6  0  0  0
 10  7  1  0  0  0  0
 13 17  1  6  0  0  0
 13  8  1  0  0  0  0
 14 12  1  6  0  0  0
 14 13  1  0  0  0  0
 16 15  1  0  0  0  0
 18 17  1  0  0  0  0
 19 20  1  0  0  0  0
 20 18  1  0  0  0  0
 22 21  1  0  0  0  0
 23 24  2  0  0  0  0
 23 22  1  0  0  0  0
 25 23  1  0  0  0  0
 26 25  1  6  0  0  0
 28 27  1  0  0  0  0
 28 31  1  0  0  0  0
 29 30  1  0  0  0  0
 29 26  1  1  0  0  0
 31 29  1  0  0  0  0
 32 33  1  0  0  0  0
 32 27  1  0  0  0  0
 33 30  1  0  0  0  0
 34 38  1  0  0  0  0
 35 36  1  0  0  0  0
 35 34  1  0  0  0  0
 36 39  1  0  0  0  0
 38 26  1  0  0  0  0
 38 37  1  0  0  0  0
 39 37  1  0  0  0  0
M  END
>  <MODEL>
2

>  <REMARK>
 VINA RESULT:      -7.3      2.369      4.031
  Name = 
  14 active torsions:
  status: ('A' for Active; 'I' for Inactive)
    1  A    between atoms: C_1  and  C_6
    2  A    between atoms: C_1  and  C_32
    3  A    between atoms: C_4  and  C_37
    4  A    between atoms: C_5  and  O_24
    5  A    between atoms: C_5  and  O_38
    6  A    between atoms: C_6  and  C_11
    7  A    between atoms: C_7  and  O_9
    8  A    between atoms: O_9  and  C_35
    9  A    between atoms: C_10  and  C_35
   10  A    between atoms: C_11  and  C_21
   11  A    between atoms: C_11  and  C_30
   12  A    between atoms: C_13  and  C_18
   13  A    between atoms: C_18  and  C_32
   14  A    between atoms: C_33  and  O_38
                            x       y       z     vdW  Elec       q    Type
                         _______ _______ _______ _____ _____    ______ ____

>  <TORSDO>
F 14

$$$$
=
 OpenBabel11062417533D

 39 42  0  0  1  0  0  0  0  0999 V2000
  185.0380  178.2030  144.1850 C   0  0  2  0  0  3  0  0  0  0  0  0
  184.8620  179.0110  142.9150 C   0  0  2  0  0  3  0  0  0  0  0  0
  183.9000  179.1980  144.0680 C   0  0  0  0  0  2  0  0  0  0  0  0
  186.0680  178.7630  144.9410 O   0  0  0  0  0  0  0  0  0  0  0  0
  186.8950  177.6860  145.2660 C   0  0  0  0  0  2  0  0  0  0  0  0
  192.1570  177.1540  143.2100 O   0  0  0  0  0  1  0  0  0  0  0  0
  189.3910  178.1570  145.4650 C   0  0  2  0  0  3  0  0  0  0  0  0
  188.2220  177.8020  144.5300 C   0  0  1  0  0  3  0  0  0  0  0  0
  190.8170  177.4840  143.4170 C   0  0  2  0  0  3  0  0  0  0  0  0
  190.6950  178.3600  144.6740 C   0  0  1  0  0  3  0  0  0  0  0  0
  190.8240  179.7020  144.3160 O   0  0  0  0  0  1  0  0  0  0  0  0
  190.1870  175.3800  142.4250 O   0  0  0  0  0  1  0  0  0  0  0  0
  188.4740  176.5500  143.6700 C   0  0  2  0  0  3  0  0  0  0  0  0
  189.9710  176.2140  143.5240 C   0  0  2  0  0  3  0  0  0  0  0  0
  189.3290  177.7400  147.9300 C   0  0  0  0  0  1  0  0  0  0  0  0
  189.5820  177.1180  146.5690 C   0  0  0  0  0  2  0  0  0  0  0  0
  187.8850  176.7350  142.4140 O   0  0  0  0  0  0  0  0  0  0  0  0
  188.1510  178.0660  142.0850 C   0  0  0  0  0  2  0  0  0  0  0  0
  188.8770  177.6220  140.0530 C   0  0  0  0  0  1  0  0  0  0  0  0
  187.8580  178.2790  140.7380 O   0  0  0  0  0  0  0  0  0  0  0  0
  184.2260  178.1310  141.8530 C   0  0  0  0  0  2  0  0  0  0  0  0
  183.5360  178.9800  140.7930 C   0  0  0  0  0  2  0  0  0  0  0  0
  184.3900  179.1300  139.5750 C   0  0  0  0  0  0  0  0  0  0  0  0
  184.4570  180.2070  139.0020 O   0  0  0  0  0  0  0  0  0  0  0  0
  185.1280  177.9430  139.0380 C   0  0  0  0  0  2  0  0  0  0  0  0
  184.9310  177.7010  137.5340 C   0  0  2  0  0  3  0  0  0  0  0  0
  180.6610  176.1880  137.3160 C   0  0  0  0  0  2  0  0  0  0  0  0
  181.3640  176.9570  136.2030 C   0  0  0  0  0  2  0  0  0  0  0  0
  183.7200  176.8460  137.1300 C   0  0  1  0  0  3  0  0  0  0  0  0
  183.3620  175.8980  138.1790 N   0  0  0  0  0  2  0  0  0  0  0  0
  182.5380  177.7460  136.7740 C   0  0  0  0  0  2  0  0  0  0  0  0
  181.2510  174.7930  137.5430 C   0  0  0  0  0  2  0  0  0  0  0  0
  182.7800  174.7370  137.5190 C   0  0  0  0  0  2  0  0  0  0  0  0
  186.8540  176.1290  137.1360 C   0  0  0  0  0  2  0  0  0  0  0  0
  188.2540  175.9360  136.5350 C   0  0  0  0  0  2  0  0  0  0  0  0
  188.5790  176.9840  135.5660 N   0  0  0  0  0  2  0  0  0  0  0  0
  187.2170  178.6240  136.8350 C   0  0  0  0  0  2  0  0  0  0  0  0
  186.2170  177.4640  136.7350 C   0  0  0  0  0  3  0  0  0  0  0  0
  188.6000  178.2630  136.2750 C   0  0  0  0  0  2  0  0  0  0  0  0
  1  4  1  1  0  0  0
  2 21  1  6  0  0  0
  2  3  1  0  0  0  0
  2  1  1  0  0  0  0
  3  1  1  0  0  0  0
  4  5  1  0  0  0  0
  7 16  1  1  0  0  0
  8  5  1  1  0  0  0
  8  7  1  0  0  0  0
  9  6  1  1  0  0  0
  9 14  1  0  0  0  0
  9 10  1  0  0  0  0
 10 11  1  6  0  0  0
 10  7  1  0  0  0  0
 13 17  1  6  0  0  0
 13  8  1  0  0  0  0
 14 12  1  6  0  0  0
 14 13  1  0  0  0  0
 16 15  1  0  0  0  0
 18 17  1  0  0  0  0
 19 20  1  0  0  0  0
 20 18  1  0  0  0  0
 22 21  1  0  0  0  0
 23 22  1  0  0  0  0
 24 23  2  0  0  0  0
 25 23  1  0  0  0  0
 26 25  1  1  0  0  0
 27 32  1  0  0  0  0
 28 31  1  0  0  0  0
 28 27  1  0  0  0  0
 29 26  1  1  0  0  0
 29 30  1  0  0  0  0
 31 29  1  0  0  0  0
 33 32  1  0  0  0  0
 33 30  1  0  0  0  0
 35 34  1  0  0  0  0
 36 39  1  0  0  0  0
 36 35  1  0  0  0  0
 38 37  1  0  0  0  0
 38 34  1  0  0  0  0
 38 26  1  0  0  0  0
 39 37  1  0  0  0  0
M  END
>  <MODEL>
3

>  <REMARK>
 VINA RESULT:      -7.2      2.512      3.470
  Name = 
  14 active torsions:
  status: ('A' for Active; 'I' for Inactive)
    1  A    between atoms: C_1  and  C_6
    2  A    between atoms: C_1  and  C_32
    3  A    between atoms: C_4  and  C_37
    4  A    between atoms: C_5  and  O_24
    5  A    between atoms: C_5  and  O_38
    6  A    between atoms: C_6  and  C_11
    7  A    between atoms: C_7  and  O_9
    8  A    between atoms: O_9  and  C_35
    9  A    between atoms: C_10  and  C_35
   10  A    between atoms: C_11  and  C_21
   11  A    between atoms: C_11  and  C_30
   12  A    between atoms: C_13  and  C_18
   13  A    between atoms: C_18  and  C_32
   14  A    between atoms: C_33  and  O_38
                            x       y       z     vdW  Elec       q    Type
                         _______ _______ _______ _____ _____    ______ ____

>  <TORSDO>
F 14

$$$$
=
 OpenBabel11062417533D

 39 42  0  0  1  0  0  0  0  0999 V2000
  185.1790  178.1180  144.2640 C   0  0  2  0  0  3  0  0  0  0  0  0
  184.8720  178.9840  143.0590 C   0  0  2  0  0  3  0  0  0  0  0  0
  183.9820  179.0490  144.2820 C   0  0  0  0  0  2  0  0  0  0  0  0
  186.2260  178.6940  144.9830 O   0  0  0  0  0  0  0  0  0  0  0  0
  187.1070  177.6410  145.2330 C   0  0  0  0  0  2  0  0  0  0  0  0
  192.2170  177.2910  142.7910 O   0  0  0  0  0  1  0  0  0  0  0  0
  189.6120  178.0980  145.3020 C   0  0  2  0  0  3  0  0  0  0  0  0
  188.3820  177.8200  144.4210 C   0  0  1  0  0  3  0  0  0  0  0  0
  190.8950  177.6000  143.1140 C   0  0  2  0  0  3  0  0  0  0  0  0
  190.8620  178.3680  144.4450 C   0  0  1  0  0  3  0  0  0  0  0  0
  190.9710  179.7360  144.1910 O   0  0  0  0  0  1  0  0  0  0  0  0
  190.1920  175.5840  141.9960 O   0  0  0  0  0  1  0  0  0  0  0  0
  188.5710  176.6440  143.4450 C   0  0  2  0  0  3  0  0  0  0  0  0
  190.0530  176.3240  143.1720 C   0  0  2  0  0  3  0  0  0  0  0  0
  191.3580  176.8570  146.5920 C   0  0  0  0  0  1  0  0  0  0  0  0
  189.8730  176.9710  146.3010 C   0  0  0  0  0  2  0  0  0  0  0  0
  187.9000  176.9310  142.2520 O   0  0  0  0  0  0  0  0  0  0  0  0
  188.1080  178.2960  142.0410 C   0  0  0  0  0  2  0  0  0  0  0  0
  188.5400  177.8870  139.9210 C   0  0  0  0  0  1  0  0  0  0  0  0
  187.7070  178.6350  140.7500 O   0  0  0  0  0  0  0  0  0  0  0  0
  184.2130  178.1290  141.9890 C   0  0  0  0  0  2  0  0  0  0  0  0
  183.1550  178.9260  141.2380 C   0  0  0  0  0  2  0  0  0  0  0  0
  183.5730  179.1920  139.8270 C   0  0  0  0  0  0  0  0  0  0  0  0
  184.6190  179.7800  139.5980 O   0  0  0  0  0  0  0  0  0  0  0  0
  182.6820  178.7700  138.7000 C   0  0  0  0  0  2  0  0  0  0  0  0
  181.1810  178.8410  139.0200 C   0  0  2  0  0  3  0  0  0  0  0  0
  179.8750  174.7280  140.4150 C   0  0  0  0  0  2  0  0  0  0  0  0
  179.0410  175.9950  140.5610 C   0  0  0  0  0  2  0  0  0  0  0  0
  180.4260  177.5040  139.0680 C   0  0  1  0  0  3  0  0  0  0  0  0
  181.2480  176.4070  138.5670 N   0  0  0  0  0  2  0  0  0  0  0  0
  179.9410  177.2240  140.4900 C   0  0  0  0  0  2  0  0  0  0  0  0
  180.0460  174.2900  138.9580 C   0  0  0  0  0  2  0  0  0  0  0  0
  180.3410  175.4300  137.9820 C   0  0  0  0  0  2  0  0  0  0  0  0
  181.1210  180.4430  137.0820 C   0  0  0  0  0  2  0  0  0  0  0  0
  180.5480  181.7480  136.5090 C   0  0  0  0  0  2  0  0  0  0  0  0
  179.3510  182.1790  137.2310 N   0  0  0  0  0  2  0  0  0  0  0  0
  180.2250  181.1980  139.3350 C   0  0  0  0  0  2  0  0  0  0  0  0
  180.4290  180.0140  138.3790 C   0  0  0  0  0  3  0  0  0  0  0  0
  179.7330  182.4600  138.6130 C   0  0  0  0  0  2  0  0  0  0  0  0
  1  3  1  0  0  0  0
  1  4  1  1  0  0  0
  2 21  1  6  0  0  0
  2  1  1  0  0  0  0
  2  3  1  0  0  0  0
  4  5  1  0  0  0  0
  7 16  1  1  0  0  0
  8  5  1  1  0  0  0
  8  7  1  0  0  0  0
  9  6  1  1  0  0  0
  9 14  1  0  0  0  0
  9 10  1  0  0  0  0
 10 11  1  6  0  0  0
 10  7  1  0  0  0  0
 13 17  1  6  0  0  0
 13  8  1  0  0  0  0
 14 12  1  6  0  0  0
 14 13  1  0  0  0  0
 16 15  1  0  0  0  0
 18 17  1  0  0  0  0
 19 20  1  0  0  0  0
 20 18  1  0  0  0  0
 22 21  1  0  0  0  0
 23 22  1  0  0  0  0
 24 23  2  0  0  0  0
 25 23  1  0  0  0  0
 26 25  1  6  0  0  0
 27 28  1  0  0  0  0
 29 26  1  1  0  0  0
 29 31  1  0  0  0  0
 30 29  1  0  0  0  0
 31 28  1  0  0  0  0
 32 27  1  0  0  0  0
 33 30  1  0  0  0  0
 33 32  1  0  0  0  0
 34 38  1  0  0  0  0
 35 34  1  0  0  0  0
 35 36  1  0  0  0  0
 36 39  1  0  0  0  0
 38 26  1  0  0  0  0
 38 37  1  0  0  0  0
 39 37  1  0  0  0  0
M  END
>  <MODEL>
4

>  <REMARK>
 VINA RESULT:      -7.2      1.622      3.672
  Name = 
  14 active torsions:
  status: ('A' for Active; 'I' for Inactive)
    1  A    between atoms: C_1  and  C_6
    2  A    between atoms: C_1  and  C_32
    3  A    between atoms: C_4  and  C_37
    4  A    between atoms: C_5  and  O_24
    5  A    between atoms: C_5  and  O_38
    6  A    between atoms: C_6  and  C_11
    7  A    between atoms: C_7  and  O_9
    8  A    between atoms: O_9  and  C_35
    9  A    between atoms: C_10  and  C_35
   10  A    between atoms: C_11  and  C_21
   11  A    between atoms: C_11  and  C_30
   12  A    between atoms: C_13  and  C_18
   13  A    between atoms: C_18  and  C_32
   14  A    between atoms: C_33  and  O_38
                            x       y       z     vdW  Elec       q    Type
                         _______ _______ _______ _____ _____    ______ ____

>  <TORSDO>
F 14

$$$$
=
 OpenBabel11062417533D

 39 42  0  0  1  0  0  0  0  0999 V2000
  185.5070  178.0330  145.5110 C   0  0  2  0  0  3  0  0  0  0  0  0
  184.7290  179.2230  144.9870 C   0  0  2  0  0  3  0  0  0  0  0  0
  184.9420  179.0570  146.4770 C   0  0  0  0  0  2  0  0  0  0  0  0
  186.8700  178.2660  145.3320 O   0  0  0  0  0  0  0  0  0  0  0  0
  187.4670  177.0130  145.4790 C   0  0  0  0  0  2  0  0  0  0  0  0
  191.9380  177.8030  142.0740 O   0  0  0  0  0  1  0  0  0  0  0  0
  188.6350  176.6000  143.2530 C   0  0  2  0  0  3  0  0  0  0  0  0
  188.7950  176.9750  144.7370 C   0  0  1  0  0  3  0  0  0  0  0  0
  191.0810  177.4260  143.1090 C   0  0  2  0  0  3  0  0  0  0  0  0
  190.0030  176.4780  142.5580 C   0  0  1  0  0  3  0  0  0  0  0  0
  190.4580  175.1620  142.6460 O   0  0  0  0  0  1  0  0  0  0  0  0
  191.4620  179.5650  144.1520 O   0  0  0  0  0  1  0  0  0  0  0  0
  189.5800  178.2800  144.9650 C   0  0  2  0  0  3  0  0  0  0  0  0
  190.4670  178.6640  143.7650 C   0  0  2  0  0  3  0  0  0  0  0  0
  188.2140  177.7550  141.0750 C   0  0  0  0  0  1  0  0  0  0  0  0
  187.7330  177.5800  142.5040 C   0  0  0  0  0  2  0  0  0  0  0  0
  190.3500  178.1500  146.1260 O   0  0  0  0  0  0  0  0  0  0  0  0
  190.7040  176.8000  146.1740 C   0  0  0  0  0  2  0  0  0  0  0  0
  192.1000  175.8450  147.5850 C   0  0  0  0  0  1  0  0  0  0  0  0
  192.0600  176.6850  146.4740 O   0  0  0  0  0  0  0  0  0  0  0  0
  183.3260  178.7730  144.6160 C   0  0  0  0  0  2  0  0  0  0  0  0
  182.8910  179.3960  143.2960 C   0  0  0  0  0  2  0  0  0  0  0  0
  183.1950  178.4940  142.1420 C   0  0  0  0  0  0  0  0  0  0  0  0
  184.2890  177.9590  142.0540 O   0  0  0  0  0  0  0  0  0  0  0  0
  182.1640  178.2860  141.0760 C   0  0  0  0  0  2  0  0  0  0  0  0
  182.3640  179.1510  139.8230 C   0  0  2  0  0  3  0  0  0  0  0  0
  179.8750  182.5400  138.1250 C   0  0  0  0  0  2  0  0  0  0  0  0
  180.2180  181.2590  137.3740 C   0  0  0  0  0  2  0  0  0  0  0  0
  181.1410  179.9390  139.3300 C   0  0  1  0  0  3  0  0  0  0  0  0
  180.7030  180.9200  140.3180 N   0  0  0  0  0  2  0  0  0  0  0  0
  181.4500  180.6060  137.9910 C   0  0  0  0  0  2  0  0  0  0  0  0
  178.9310  182.3050  139.3080 C   0  0  0  0  0  2  0  0  0  0  0  0
  179.2650  181.0740  140.1520 C   0  0  0  0  0  2  0  0  0  0  0  0
  183.0420  177.0150  138.6820 C   0  0  0  0  0  2  0  0  0  0  0  0
  184.0550  176.3110  137.7670 C   0  0  0  0  0  2  0  0  0  0  0  0
  184.8610  177.2690  137.0090 N   0  0  0  0  0  2  0  0  0  0  0  0
  184.7310  178.9020  138.8730 C   0  0  0  0  0  2  0  0  0  0  0  0
  183.2480  178.5320  138.7340 C   0  0  0  0  0  3  0  0  0  0  0  0
  185.6370  178.0610  137.9630 C   0  0  0  0  0  2  0  0  0  0  0  0
  1  4  1  6  0  0  0
  1  3  1  0  0  0  0
  2 21  1  1  0  0  0
  2  1  1  0  0  0  0
  2  3  1  0  0  0  0
  4  5  1  0  0  0  0
  7 16  1  6  0  0  0
  7  8  1  0  0  0  0
  8 13  1  0  0  0  0
  8  5  1  6  0  0  0
  9  6  1  6  0  0  0
  9 14  1  0  0  0  0
 10 11  1  1  0  0  0
 10  9  1  0  0  0  0
 10  7  1  0  0  0  0
 13 17  1  1  0  0  0
 14 12  1  1  0  0  0
 14 13  1  0  0  0  0
 15 16  1  0  0  0  0
 17 18  1  0  0  0  0
 18 20  1  0  0  0  0
 20 19  1  0  0  0  0
 22 21  1  0  0  0  0
 23 22  1  0  0  0  0
 24 23  2  0  0  0  0
 25 23  1  0  0  0  0
 26 25  1  1  0  0  0
 27 32  1  0  0  0  0
 28 31  1  0  0  0  0
 28 27  1  0  0  0  0
 29 26  1  1  0  0  0
 29 30  1  0  0  0  0
 31 29  1  0  0  0  0
 32 33  1  0  0  0  0
 33 30  1  0  0  0  0
 34 38  1  0  0  0  0
 35 34  1  0  0  0  0
 36 35  1  0  0  0  0
 36 39  1  0  0  0  0
 38 37  1  0  0  0  0
 38 26  1  0  0  0  0
 39 37  1  0  0  0  0
M  END
>  <MODEL>
5

>  <REMARK>
 VINA RESULT:      -6.9      1.287      3.030
  Name = 
  14 active torsions:
  status: ('A' for Active; 'I' for Inactive)
    1  A    between atoms: C_1  and  C_6
    2  A    between atoms: C_1  and  C_32
    3  A    between atoms: C_4  and  C_37
    4  A    between atoms: C_5  and  O_24
    5  A    between atoms: C_5  and  O_38
    6  A    between atoms: C_6  and  C_11
    7  A    between atoms: C_7  and  O_9
    8  A    between atoms: O_9  and  C_35
    9  A    between atoms: C_10  and  C_35
   10  A    between atoms: C_11  and  C_21
   11  A    between atoms: C_11  and  C_30
   12  A    between atoms: C_13  and  C_18
   13  A    between atoms: C_18  and  C_32
   14  A    between atoms: C_33  and  O_38
                            x       y       z     vdW  Elec       q    Type
                         _______ _______ _______ _____ _____    ______ ____

>  <TORSDO>
F 14

$$$$
=
 OpenBabel11062417533D

 39 42  0  0  1  0  0  0  0  0999 V2000
  181.3410  179.2470  142.8760 C   0  0  2  0  0  3  0  0  0  0  0  0
  182.5710  178.5460  143.4150 C   0  0  2  0  0  3  0  0  0  0  0  0
  181.3150  178.6180  144.2560 C   0  0  0  0  0  2  0  0  0  0  0  0
  180.6980  178.4050  141.9690 O   0  0  0  0  0  0  0  0  0  0  0  0
  180.3590  179.2310  140.8970 C   0  0  0  0  0  2  0  0  0  0  0  0
  182.6470  176.3560  136.5730 O   0  0  0  0  0  1  0  0  0  0  0  0
  181.9300  179.1570  138.8920 C   0  0  2  0  0  3  0  0  0  0  0  0
  180.6960  178.5460  139.5800 C   0  0  1  0  0  3  0  0  0  0  0  0
  181.7820  177.0230  137.4410 C   0  0  2  0  0  3  0  0  0  0  0  0
  182.1850  178.5050  137.5220 C   0  0  1  0  0  3  0  0  0  0  0  0
  181.5130  179.2200  136.5290 O   0  0  0  0  0  1  0  0  0  0  0  0
  181.5410  174.9850  138.7050 O   0  0  0  0  0  1  0  0  0  0  0  0
  180.7850  177.0210  139.7710 C   0  0  2  0  0  3  0  0  0  0  0  0
  181.7940  176.3550  138.8160 C   0  0  2  0  0  3  0  0  0  0  0  0
  184.4270  179.0090  138.9090 C   0  0  0  0  0  1  0  0  0  0  0  0
  183.1790  179.0770  139.7700 C   0  0  0  0  0  2  0  0  0  0  0  0
  179.5100  176.4680  139.6070 O   0  0  0  0  0  0  0  0  0  0  0  0
  179.2620  175.7780  140.7960 C   0  0  0  0  0  2  0  0  0  0  0  0
  179.3020  173.7470  141.6470 C   0  0  0  0  0  1  0  0  0  0  0  0
  178.9310  174.4550  140.5070 O   0  0  0  0  0  0  0  0  0  0  0  0
  183.5680  179.5890  143.8910 C   0  0  0  0  0  2  0  0  0  0  0  0
  184.9820  179.2200  143.4610 C   0  0  0  0  0  2  0  0  0  0  0  0
  185.6310  178.3060  144.4500 C   0  0  0  0  0  0  0  0  0  0  0  0
  185.3970  178.4280  145.6420 O   0  0  0  0  0  0  0  0  0  0  0  0
  186.6000  177.2690  143.9730 C   0  0  0  0  0  2  0  0  0  0  0  0
  188.0670  177.7250  143.9720 C   0  0  2  0  0  3  0  0  0  0  0  0
  188.7750  177.2850  139.5140 C   0  0  0  0  0  2  0  0  0  0  0  0
  188.4220  178.5950  140.2080 C   0  0  0  0  0  2  0  0  0  0  0  0
  188.7520  177.8290  142.6000 C   0  0  1  0  0  3  0  0  0  0  0  0
  189.3550  176.5600  142.2080 N   0  0  0  0  0  2  0  0  0  0  0  0
  187.7540  178.3130  141.5500 C   0  0  0  0  0  2  0  0  0  0  0  0
  190.1660  176.7670  139.8890 C   0  0  0  0  0  2  0  0  0  0  0  0
  190.5070  176.8780  141.3750 C   0  0  0  0  0  2  0  0  0  0  0  0
  188.3870  177.6420  146.4650 C   0  0  0  0  0  2  0  0  0  0  0  0
  189.3280  177.3020  147.6300 C   0  0  0  0  0  2  0  0  0  0  0  0
  190.4300  176.4380  147.2040 N   0  0  0  0  0  2  0  0  0  0  0  0
  190.4210  177.4810  144.9530 C   0  0  0  0  0  2  0  0  0  0  0  0
  188.9260  177.1680  145.1120 C   0  0  0  0  0  3  0  0  0  0  0  0
  191.2270  177.1730  146.2230 C   0  0  0  0  0  2  0  0  0  0  0  0
  1  4  1  6  0  0  0
  1  2  1  0  0  0  0
  1  3  1  0  0  0  0
  2 21  1  1  0  0  0
  2  3  1  0  0  0  0
  5  4  1  0  0  0  0
  7  8  1  0  0  0  0
  7 16  1  1  0  0  0
  8 13  1  0  0  0  0
  8  5  1  1  0  0  0
  9  6  1  6  0  0  0
  9 10  1  0  0  0  0
  9 14  1  0  0  0  0
 10 11  1  6  0  0  0
 10  7  1  0  0  0  0
 13 17  1  6  0  0  0
 14 12  1  6  0  0  0
 14 13  1  0  0  0  0
 15 16  1  0  0  0  0
 17 18  1  0  0  0  0
 20 18  1  0  0  0  0
 20 19  1  0  0  0  0
 22 21  1  0  0  0  0
 22 23  1  0  0  0  0
 23 24  2  0  0  0  0
 25 23  1  0  0  0  0
 26 25  1  6  0  0  0
 26 38  1  0  0  0  0
 27 32  1  0  0  0  0
 27 28  1  0  0  0  0
 28 31  1  0  0  0  0
 29 26  1  1  0  0  0
 30 29  1  0  0  0  0
 31 29  1  0  0  0  0
 32 33  1  0  0  0  0
 33 30  1  0  0  0  0
 34 35  1  0  0  0  0
 36 35  1  0  0  0  0
 37 38  1  0  0  0  0
 37 39  1  0  0  0  0
 38 34  1  0  0  0  0
 39 36  1  0  0  0  0
M  END
>  <MODEL>
6

>  <REMARK>
 VINA RESULT:      -6.9      3.372      9.077
  Name = 
  14 active torsions:
  status: ('A' for Active; 'I' for Inactive)
    1  A    between atoms: C_1  and  C_6
    2  A    between atoms: C_1  and  C_32
    3  A    between atoms: C_4  and  C_37
    4  A    between atoms: C_5  and  O_24
    5  A    between atoms: C_5  and  O_38
    6  A    between atoms: C_6  and  C_11
    7  A    between atoms: C_7  and  O_9
    8  A    between atoms: O_9  and  C_35
    9  A    between atoms: C_10  and  C_35
   10  A    between atoms: C_11  and  C_21
   11  A    between atoms: C_11  and  C_30
   12  A    between atoms: C_13  and  C_18
   13  A    between atoms: C_18  and  C_32
   14  A    between atoms: C_33  and  O_38
                            x       y       z     vdW  Elec       q    Type
                         _______ _______ _______ _____ _____    ______ ____

>  <TORSDO>
F 14

$$$$
=
 OpenBabel11062417533D

 39 42  0  0  1  0  0  0  0  0999 V2000
  185.3530  178.2730  144.8950 C   0  0  2  0  0  3  0  0  0  0  0  0
  185.1480  179.1310  143.6630 C   0  0  2  0  0  3  0  0  0  0  0  0
  184.8030  179.6800  145.0310 C   0  0  0  0  0  2  0  0  0  0  0  0
  186.7080  178.2700  145.2270 O   0  0  0  0  0  0  0  0  0  0  0  0
  187.1120  176.9460  145.0550 C   0  0  0  0  0  2  0  0  0  0  0  0
  192.0960  177.6660  142.4390 O   0  0  0  0  0  1  0  0  0  0  0  0
  188.6470  176.4660  143.0790 C   0  0  2  0  0  3  0  0  0  0  0  0
  188.5480  176.8960  144.5530 C   0  0  1  0  0  3  0  0  0  0  0  0
  191.0760  177.3160  143.3250 C   0  0  2  0  0  3  0  0  0  0  0  0
  190.1140  176.3360  142.6340 C   0  0  1  0  0  3  0  0  0  0  0  0
  190.5560  175.0290  142.8480 O   0  0  0  0  0  1  0  0  0  0  0  0
  191.2610  179.4960  144.3370 O   0  0  0  0  0  1  0  0  0  0  0  0
  189.2750  178.2180  144.8630 C   0  0  2  0  0  3  0  0  0  0  0  0
  190.3520  178.5700  143.8190 C   0  0  2  0  0  3  0  0  0  0  0  0
  188.5900  177.5240  140.8140 C   0  0  0  0  0  1  0  0  0  0  0  0
  187.8810  177.4080  142.1510 C   0  0  0  0  0  2  0  0  0  0  0  0
  189.8340  178.1400  146.1430 O   0  0  0  0  0  0  0  0  0  0  0  0
  190.3550  176.8470  146.2290 C   0  0  0  0  0  2  0  0  0  0  0  0
  192.0650  175.6550  146.9420 C   0  0  0  0  0  1  0  0  0  0  0  0
  191.3290  176.8030  147.2260 O   0  0  0  0  0  0  0  0  0  0  0  0
  183.8800  178.6850  142.9550 C   0  0  0  0  0  2  0  0  0  0  0  0
  184.2110  178.0070  141.6320 C   0  0  0  0  0  2  0  0  0  0  0  0
  184.5980  179.0070  140.5890 C   0  0  0  0  0  0  0  0  0  0  0  0
  185.6830  179.5660  140.6490 O   0  0  0  0  0  0  0  0  0  0  0  0
  183.6320  179.3490  139.4980 C   0  0  0  0  0  2  0  0  0  0  0  0
  183.3350  178.1930  138.5300 C   0  0  2  0  0  3  0  0  0  0  0  0
  179.6780  176.5350  140.6390 C   0  0  0  0  0  2  0  0  0  0  0  0
  179.6470  177.6570  139.6080 C   0  0  0  0  0  2  0  0  0  0  0  0
  182.0240  177.4250  138.7610 C   0  0  1  0  0  3  0  0  0  0  0  0
  182.2560  176.1760  139.4780 N   0  0  0  0  0  2  0  0  0  0  0  0
  181.0220  178.3090  139.5030 C   0  0  0  0  0  2  0  0  0  0  0  0
  180.0710  175.1820  140.0380 C   0  0  0  0  0  2  0  0  0  0  0  0
  181.2290  175.2410  139.0420 C   0  0  0  0  0  2  0  0  0  0  0  0
  185.6830  178.2450  137.6310 C   0  0  0  0  0  2  0  0  0  0  0  0
  186.8410  177.4480  137.0110 C   0  0  0  0  0  2  0  0  0  0  0  0
  186.6780  176.0080  137.2100 N   0  0  0  0  0  2  0  0  0  0  0  0
  184.2100  176.2410  137.1190 C   0  0  0  0  0  2  0  0  0  0  0  0
  184.5480  177.3460  138.1300 C   0  0  0  0  0  3  0  0  0  0  0  0
  185.4620  175.5900  136.5150 C   0  0  0  0  0  2  0  0  0  0  0  0
  1  3  1  0  0  0  0
  1  4  1  1  0  0  0
  2 21  1  6  0  0  0
  2  1  1  0  0  0  0
  2  3  1  0  0  0  0
  5  4  1  0  0  0  0
  7 16  1  6  0  0  0
  7  8  1  0  0  0  0
  8 13  1  0  0  0  0
  8  5  1  6  0  0  0
  9  6  1  6  0  0  0
  9 14  1  0  0  0  0
 10 11  1  1  0  0  0
 10  7  1  0  0  0  0
 10  9  1  0  0  0  0
 13 17  1  1  0  0  0
 14 12  1  1  0  0  0
 14 13  1  0  0  0  0
 15 16  1  0  0  0  0
 17 18  1  0  0  0  0
 18 20  1  0  0  0  0
 19 20  1  0  0  0  0
 22 21  1  0  0  0  0
 23 24  2  0  0  0  0
 23 22  1  0  0  0  0
 25 23  1  0  0  0  0
 26 25  1  1  0  0  0
 28 27  1  0  0  0  0
 29 26  1  1  0  0  0
 29 30  1  0  0  0  0
 29 31  1  0  0  0  0
 31 28  1  0  0  0  0
 32 27  1  0  0  0  0
 33 30  1  0  0  0  0
 33 32  1  0  0  0  0
 34 38  1  0  0  0  0
 35 36  1  0  0  0  0
 35 34  1  0  0  0  0
 37 38  1  0  0  0  0
 38 26  1  0  0  0  0
 39 37  1  0  0  0  0
 39 36  1  0  0  0  0
M  END
>  <MODEL>
7

>  <REMARK>
 VINA RESULT:      -6.8      2.300      4.102
  Name = 
  14 active torsions:
  status: ('A' for Active; 'I' for Inactive)
    1  A    between atoms: C_1  and  C_6
    2  A    between atoms: C_1  and  C_32
    3  A    between atoms: C_4  and  C_37
    4  A    between atoms: C_5  and  O_24
    5  A    between atoms: C_5  and  O_38
    6  A    between atoms: C_6  and  C_11
    7  A    between atoms: C_7  and  O_9
    8  A    between atoms: O_9  and  C_35
    9  A    between atoms: C_10  and  C_35
   10  A    between atoms: C_11  and  C_21
   11  A    between atoms: C_11  and  C_30
   12  A    between atoms: C_13  and  C_18
   13  A    between atoms: C_18  and  C_32
   14  A    between atoms: C_33  and  O_38
                            x       y       z     vdW  Elec       q    Type
                         _______ _______ _______ _____ _____    ______ ____

>  <TORSDO>
F 14

$$$$
=
 OpenBabel11062417533D

 39 42  0  0  1  0  0  0  0  0999 V2000
  187.7430  177.7380  138.6450 C   0  0  2  0  0  3  0  0  0  0  0  0
  188.4070  178.2890  139.8900 C   0  0  2  0  0  3  0  0  0  0  0  0
  189.0690  178.4660  138.5400 C   0  0  0  0  0  2  0  0  0  0  0  0
  186.7100  178.5940  138.2620 O   0  0  0  0  0  0  0  0  0  0  0  0
  186.1170  177.9680  137.1650 C   0  0  0  0  0  2  0  0  0  0  0  0
  181.9440  174.1860  137.8610 O   0  0  0  0  0  1  0  0  0  0  0  0
  183.7330  177.4330  137.8870 C   0  0  2  0  0  3  0  0  0  0  0  0
  185.1510  176.8900  137.6370 C   0  0  1  0  0  3  0  0  0  0  0  0
  183.1270  174.9200  137.9510 C   0  0  2  0  0  3  0  0  0  0  0  0
  182.8100  176.3390  138.4520 C   0  0  1  0  0  3  0  0  0  0  0  0
  182.8580  176.3570  139.8460 O   0  0  0  0  0  1  0  0  0  0  0  0
  184.0140  173.6450  136.1090 O   0  0  0  0  0  1  0  0  0  0  0  0
  185.1920  175.6760  136.6900 C   0  0  2  0  0  3  0  0  0  0  0  0
  183.8400  174.9420  136.5980 C   0  0  2  0  0  3  0  0  0  0  0  0
  181.6220  178.2020  136.7890 C   0  0  0  0  0  1  0  0  0  0  0  0
  183.1260  178.0600  136.6330 C   0  0  0  0  0  2  0  0  0  0  0  0
  186.2010  174.8040  137.1130 O   0  0  0  0  0  0  0  0  0  0  0  0
  187.1420  174.8150  136.0800 C   0  0  0  0  0  2  0  0  0  0  0  0
  188.9590  175.9190  135.5050 C   0  0  0  0  0  1  0  0  0  0  0  0
  188.3710  175.2490  136.5760 O   0  0  0  0  0  0  0  0  0  0  0  0
  189.0730  177.1500  140.6430 C   0  0  0  0  0  2  0  0  0  0  0  0
  190.1640  177.6780  141.5640 C   0  0  0  0  0  2  0  0  0  0  0  0
  189.6570  177.8670  142.9580 C   0  0  0  0  0  0  0  0  0  0  0  0
  189.9510  178.8730  143.5860 O   0  0  0  0  0  0  0  0  0  0  0  0
  188.8220  176.7980  143.5920 C   0  0  0  0  0  2  0  0  0  0  0  0
  187.8050  177.3160  144.6210 C   0  0  2  0  0  3  0  0  0  0  0  0
  183.6110  178.6560  143.5340 C   0  0  0  0  0  2  0  0  0  0  0  0
  184.4350  179.2360  144.6770 C   0  0  0  0  0  2  0  0  0  0  0  0
  186.6620  178.1870  144.0770 C   0  0  1  0  0  3  0  0  0  0  0  0
  186.1890  177.7020  142.7840 N   0  0  0  0  0  2  0  0  0  0  0  0
  185.5210  178.2500  145.0920 C   0  0  0  0  0  2  0  0  0  0  0  0
  184.1850  178.9920  142.1540 C   0  0  0  0  0  2  0  0  0  0  0  0
  185.7050  178.8620  142.0490 C   0  0  0  0  0  2  0  0  0  0  0  0
  189.6480  176.9240  146.2870 C   0  0  0  0  0  2  0  0  0  0  0  0
  190.1590  177.1570  147.7170 C   0  0  0  0  0  2  0  0  0  0  0  0
  189.4490  178.2520  148.3780 N   0  0  0  0  0  2  0  0  0  0  0  0
  187.3810  177.7150  147.1160 C   0  0  0  0  0  2  0  0  0  0  0  0
  188.3980  177.7500  145.9660 C   0  0  0  0  0  3  0  0  0  0  0  0
  188.0420  177.8730  148.4930 C   0  0  0  0  0  2  0  0  0  0  0  0
  1  4  1  6  0  0  0
  1  2  1  0  0  0  0
  2 21  1  1  0  0  0
  3  1  1  0  0  0  0
  3  2  1  0  0  0  0
  5  4  1  0  0  0  0
  7 16  1  6  0  0  0
  7 10  1  0  0  0  0
  8  5  1  6  0  0  0
  8  7  1  0  0  0  0
  9  6  1  6  0  0  0
  9 10  1  0  0  0  0
 10 11  1  1  0  0  0
 13 17  1  1  0  0  0
 13  8  1  0  0  0  0
 14 12  1  1  0  0  0
 14 13  1  0  0  0  0
 14  9  1  0  0  0  0
 16 15  1  0  0  0  0
 18 20  1  0  0  0  0
 18 17  1  0  0  0  0
 19 20  1  0  0  0  0
 21 22  1  0  0  0  0
 22 23  1  0  0  0  0
 23 24  2  0  0  0  0
 23 25  1  0  0  0  0
 26 25  1  6  0  0  0
 26 38  1  0  0  0  0
 27 28  1  0  0  0  0
 28 31  1  0  0  0  0
 29 26  1  1  0  0  0
 29 31  1  0  0  0  0
 30 29  1  0  0  0  0
 32 27  1  0  0  0  0
 33 32  1  0  0  0  0
 33 30  1  0  0  0  0
 34 35  1  0  0  0  0
 35 36  1  0  0  0  0
 36 39  1  0  0  0  0
 37 39  1  0  0  0  0
 38 34  1  0  0  0  0
 38 37  1  0  0  0  0
M  END
>  <MODEL>
8

>  <REMARK>
 VINA RESULT:      -6.7      3.572      8.897
  Name = 
  14 active torsions:
  status: ('A' for Active; 'I' for Inactive)
    1  A    between atoms: C_1  and  C_6
    2  A    between atoms: C_1  and  C_32
    3  A    between atoms: C_4  and  C_37
    4  A    between atoms: C_5  and  O_24
    5  A    between atoms: C_5  and  O_38
    6  A    between atoms: C_6  and  C_11
    7  A    between atoms: C_7  and  O_9
    8  A    between atoms: O_9  and  C_35
    9  A    between atoms: C_10  and  C_35
   10  A    between atoms: C_11  and  C_21
   11  A    between atoms: C_11  and  C_30
   12  A    between atoms: C_13  and  C_18
   13  A    between atoms: C_18  and  C_32
   14  A    between atoms: C_33  and  O_38
                            x       y       z     vdW  Elec       q    Type
                         _______ _______ _______ _____ _____    ______ ____

>  <TORSDO>
F 14

$$$$
=
 OpenBabel11062417533D

 39 42  0  0  1  0  0  0  0  0999 V2000
  188.0870  177.4020  136.3670 C   0  0  2  0  0  3  0  0  0  0  0  0
  188.3940  178.8000  136.8630 C   0  0  2  0  0  3  0  0  0  0  0  0
  189.2690  178.1660  135.8020 C   0  0  0  0  0  2  0  0  0  0  0  0
  187.0220  177.4620  135.4680 O   0  0  0  0  0  0  0  0  0  0  0  0
  186.5030  176.1660  135.4470 C   0  0  0  0  0  2  0  0  0  0  0  0
  182.0050  175.2330  138.7780 O   0  0  0  0  0  1  0  0  0  0  0  0
  184.3740  177.0190  136.5550 C   0  0  2  0  0  3  0  0  0  0  0  0
  185.5090  175.9800  136.5840 C   0  0  1  0  0  3  0  0  0  0  0  0
  183.2920  175.4150  138.2690 C   0  0  2  0  0  3  0  0  0  0  0  0
  183.4430  176.8610  137.7700 C   0  0  1  0  0  3  0  0  0  0  0  0
  183.8960  177.6650  138.8170 O   0  0  0  0  0  1  0  0  0  0  0  0
  183.3140  173.0990  137.6030 O   0  0  0  0  0  1  0  0  0  0  0  0
  185.0140  174.5230  136.6370 C   0  0  2  0  0  3  0  0  0  0  0  0
  183.5700  174.3990  137.1600 C   0  0  2  0  0  3  0  0  0  0  0  0
  182.1400  177.3920  135.4940 C   0  0  0  0  0  1  0  0  0  0  0  0
  183.5770  176.9670  135.2520 C   0  0  0  0  0  2  0  0  0  0  0  0
  185.8920  173.7740  137.4280 O   0  0  0  0  0  0  0  0  0  0  0  0
  186.4200  172.8110  136.5640 C   0  0  0  0  0  2  0  0  0  0  0  0
  188.5610  173.2520  136.8340 C   0  0  0  0  0  1  0  0  0  0  0  0
  187.5930  172.2900  137.1100 O   0  0  0  0  0  0  0  0  0  0  0  0
  189.0800  178.7080  138.2160 C   0  0  0  0  0  2  0  0  0  0  0  0
  188.1850  178.0040  139.2270 C   0  0  0  0  0  2  0  0  0  0  0  0
  188.9370  177.6580  140.4720 C   0  0  0  0  0  0  0  0  0  0  0  0
  189.8220  176.8180  140.4390 O   0  0  0  0  0  0  0  0  0  0  0  0
  188.5680  178.3160  141.7650 C   0  0  0  0  0  2  0  0  0  0  0  0
  188.2770  177.3380  142.9140 C   0  0  2  0  0  3  0  0  0  0  0  0
  184.5000  179.2850  144.4990 C   0  0  0  0  0  2  0  0  0  0  0  0
  184.5440  178.3090  143.3280 C   0  0  0  0  0  2  0  0  0  0  0  0
  186.9270  177.5030  143.6290 C   0  0  1  0  0  3  0  0  0  0  0  0
  187.0850  178.1620  144.9210 N   0  0  0  0  0  2  0  0  0  0  0  0
  185.9490  178.2660  142.7370 C   0  0  0  0  0  2  0  0  0  0  0  0
  184.8430  178.6250  145.8380 C   0  0  0  0  0  2  0  0  0  0  0  0
  186.0260  177.6580  145.7850 C   0  0  0  0  0  2  0  0  0  0  0  0
  190.3540  178.2440  144.0050 C   0  0  0  0  0  2  0  0  0  0  0  0
  191.6820  177.9230  144.7070 C   0  0  0  0  0  2  0  0  0  0  0  0
  191.7200  176.5440  145.1960 N   0  0  0  0  0  2  0  0  0  0  0  0
  190.2890  175.8020  143.3100 C   0  0  0  0  0  2  0  0  0  0  0  0
  189.4750  177.0050  143.8090 C   0  0  0  0  0  3  0  0  0  0  0  0
  191.6310  175.6530  144.0410 C   0  0  0  0  0  2  0  0  0  0  0  0
  1  4  1  6  0  0  0
  1  2  1  0  0  0  0
  2 21  1  1  0  0  0
  3  1  1  0  0  0  0
  3  2  1  0  0  0  0
  5  4  1  0  0  0  0
  7 16  1  6  0  0  0
  7  8  1  0  0  0  0
  7 10  1  0  0  0  0
  8  5  1  6  0  0  0
  8 13  1  0  0  0  0
  9  6  1  6  0  0  0
 10  9  1  0  0  0  0
 10 11  1  1  0  0  0
 13 14  1  0  0  0  0
 13 17  1  1  0  0  0
 14 12  1  1  0  0  0
 14  9  1  0  0  0  0
 16 15  1  0  0  0  0
 18 20  1  0  0  0  0
 18 17  1  0  0  0  0
 19 20  1  0  0  0  0
 21 22  1  0  0  0  0
 22 23  1  0  0  0  0
 23 25  1  0  0  0  0
 24 23  2  0  0  0  0
 26 25  1  1  0  0  0
 26 38  1  0  0  0  0
 27 32  1  0  0  0  0
 28 27  1  0  0  0  0
 29 26  1  6  0  0  0
 29 30  1  0  0  0  0
 30 33  1  0  0  0  0
 31 28  1  0  0  0  0
 31 29  1  0  0  0  0
 33 32  1  0  0  0  0
 34 35  1  0  0  0  0
 35 36  1  0  0  0  0
 37 38  1  0  0  0  0
 37 39  1  0  0  0  0
 38 34  1  0  0  0  0
 39 36  1  0  0  0  0
M  END
>  <MODEL>
9

>  <REMARK>
 VINA RESULT:      -6.6      3.869      9.210
  Name = 
  14 active torsions:
  status: ('A' for Active; 'I' for Inactive)
    1  A    between atoms: C_1  and  C_6
    2  A    between atoms: C_1  and  C_32
    3  A    between atoms: C_4  and  C_37
    4  A    between atoms: C_5  and  O_24
    5  A    between atoms: C_5  and  O_38
    6  A    between atoms: C_6  and  C_11
    7  A    between atoms: C_7  and  O_9
    8  A    between atoms: O_9  and  C_35
    9  A    between atoms: C_10  and  C_35
   10  A    between atoms: C_11  and  C_21
   11  A    between atoms: C_11  and  C_30
   12  A    between atoms: C_13  and  C_18
   13  A    between atoms: C_18  and  C_32
   14  A    between atoms: C_33  and  O_38
                            x       y       z     vdW  Elec       q    Type
                         _______ _______ _______ _____ _____    ______ ____

>  <TORSDO>
F 14

$$$$
