=
 OpenBabel11062417453D

 39 42  0  0  1  0  0  0  0  0999 V2000
  184.3270  179.2600  139.9810 C   0  0  1  0  0  3  0  0  0  0  0  0
  186.6420  178.4720  139.6180 N   0  0  0  0  0  0  0  0  0  0  0  0
  186.8890  178.1980  136.1840 C   0  0  0  0  0  2  0  0  0  0  0  0
  185.2040  177.9990  137.9220 N   0  0  0  0  0  2  0  0  0  0  0  0
  187.4380  177.7390  138.6440 C   0  0  1  0  0  3  0  0  0  0  0  0
  186.4740  177.4730  137.4640 C   0  0  2  0  0  3  0  0  0  0  0  0
  185.4220  178.5530  139.2100 C   0  0  0  0  0  0  0  0  0  0  0  0
  189.3060  177.9010  136.9890 C   0  0  0  0  0  2  0  0  0  0  0  0
  188.3320  177.8620  135.8030 C   0  0  0  0  0  2  0  0  0  0  0  0
  188.6910  178.5290  138.2450 C   0  0  2  0  0  3  0  0  0  0  0  0
  189.6560  178.5090  139.3350 N   0  0  0  0  0  2  0  0  0  0  0  0
  189.7780  177.1320  139.7930 C   0  0  0  0  0  2  0  0  0  0  0  0
  190.8260  176.1330  141.8230 N   0  0  0  0  0  0  0  0  0  0  0  0
  191.7090  175.4760  143.9970 N   0  0  0  0  0  1  0  0  0  0  0  0
  190.0550  177.1010  141.2560 C   0  0  0  0  0  0  0  0  0  0  0  0
  190.1290  177.6930  143.6610 S   0  0  0  0  0  0  0  0  0  0  0  0
  190.9470  176.3260  143.1490 C   0  0  0  0  0  0  0  0  0  0  0  0
  189.5700  178.0840  142.1200 C   0  0  0  0  0  3  0  0  0  0  0  0
  179.7760  179.9110  136.6760 F   0  0  0  0  0  0  0  0  0  0  0  0
  180.8670  179.7620  137.4660 C   0  0  0  0  0  0  0  0  0  0  0  0
  182.4440  178.3270  138.6140 C   0  0  0  0  0  3  0  0  0  0  0  0
  182.6610  180.7360  138.7690 C   0  0  0  0  0  3  0  0  0  0  0  0
  181.5360  180.8890  137.9510 C   0  0  0  0  0  3  0  0  0  0  0  0
  183.1190  179.4520  139.1020 C   0  0  0  0  0  0  0  0  0  0  0  0
  181.3200  178.4820  137.7970 C   0  0  0  0  0  3  0  0  0  0  0  0
  183.9860  178.5780  141.3250 C   0  0  1  0  0  3  0  0  0  0  0  0
  184.7300  179.2630  142.4660 C   0  0  0  0  0  2  0  0  0  0  0  0
  185.6870  178.2860  144.6130 N   0  0  0  0  0  0  0  0  0  0  0  0
  184.7940  179.1270  145.3980 C   0  0  0  0  0  1  0  0  0  0  0  0
  185.6450  178.3140  143.1780 C   0  0  0  0  0  0  0  0  0  0  0  0
  186.3520  177.5090  142.5110 O   0  0  0  0  0  0  0  0  0  0  0  0
  186.6870  177.4990  145.3200 C   0  0  0  0  0  2  0  0  0  0  0  0
  186.8210  177.9830  146.7510 C   0  0  0  0  0  2  0  0  0  0  0  0
  188.0960  177.4280  147.3500 C   0  0  0  0  0  1  0  0  0  0  0  0
  182.4920  178.6380  141.6400 C   0  0  0  0  0  2  0  0  0  0  0  0
  182.2970  178.8130  143.0100 O   0  0  0  0  0  0  0  0  0  0  0  0
  180.1200  180.5240  142.8410 O   0  0  0  0  0  0  0  0  0  0  0  0
  180.6470  179.1450  143.1660 P   0  0  0  0  0  0  0  0  0  0  0  0
  179.6990  178.0640  143.6310 O   0  0  0  0  0  0  0  0  0  0  0  0
  1 26  1  1  0  0  0
  4  7  1  0  0  0  0
  5  2  1  1  0  0  0
  6  3  1  6  0  0  0
  6  4  1  0  0  0  0
  6  5  1  0  0  0  0
  7  2  2  0  0  0  0
  7  1  1  0  0  0  0
  8 10  1  0  0  0  0
  9  3  1  0  0  0  0
  9  8  1  0  0  0  0
 10  5  1  0  0  0  0
 10 11  1  1  0  0  0
 11 12  1  0  0  0  0
 12 15  1  0  0  0  0
 13 17  2  0  0  0  0
 15 13  1  0  0  0  0
 15 18  2  0  0  0  0
 17 16  1  0  0  0  0
 17 14  1  0  0  0  0
 18 16  1  0  0  0  0
 19 20  1  0  0  0  0
 20 25  2  0  0  0  0
 20 23  1  0  0  0  0
 21 24  2  0  0  0  0
 22 24  1  0  0  0  0
 23 22  2  0  0  0  0
 24  1  1  0  0  0  0
 25 21  1  0  0  0  0
 26 35  1  1  0  0  0
 26 27  1  0  0  0  0
 27 30  1  0  0  0  0
 28 32  1  0  0  0  0
 28 29  1  0  0  0  0
 30 28  1  0  0  0  0
 31 30  2  0  0  0  0
 32 33  1  0  0  0  0
 33 34  1  0  0  0  0
 35 36  1  0  0  0  0
 36 38  1  0  0  0  0
 37 38  2  0  0  0  0
 38 39  2  0  0  0  0
M  END
>  <MODEL>
1

>  <REMARK>
 VINA RESULT:      -7.3      0.000      0.000
  Name = 
  13 active torsions:
  status: ('A' for Active; 'I' for Inactive)
    1  A    between atoms: C_2  and  C_12
    2  A    between atoms: C_2  and  C_18
    3  A    between atoms: C_2  and  C_28
    4  A    between atoms: P_5  and  O_10
    5  A    between atoms: C_6  and  C_26
    6  A    between atoms: O_10  and  C_28
    7  A    between atoms: C_12  and  C_24
    8  A    between atoms: N_15  and  C_26
    9  A    between atoms: C_17  and  C_31
   10  A    between atoms: C_17  and  N_38
   11  A    between atoms: C_18  and  C_21
   12  A    between atoms: C_18  and  C_35
   13  A    between atoms: C_30  and  N_38
                            x       y       z     vdW  Elec       q    Type
                         _______ _______ _______ _____ _____    ______ ____

>  <TORSDO>
F 13

$$$$
=
 OpenBabel11062417453D

 39 42  0  0  1  0  0  0  0  0999 V2000
  185.7450  177.7860  142.9270 C   0  0  1  0  0  3  0  0  0  0  0  0
  186.9760  178.4710  140.8950 N   0  0  0  0  0  0  0  0  0  0  0  0
  189.9680  176.7620  141.1310 C   0  0  0  0  0  2  0  0  0  0  0  0
  188.2910  177.7330  142.5970 N   0  0  0  0  0  2  0  0  0  0  0  0
  188.3380  178.5980  140.3980 C   0  0  1  0  0  3  0  0  0  0  0  0
  189.2280  178.0380  141.5330 C   0  0  2  0  0  3  0  0  0  0  0  0
  186.9950  178.0400  142.1100 C   0  0  0  0  0  0  0  0  0  0  0  0
  190.0080  177.7240  138.7540 C   0  0  0  0  0  2  0  0  0  0  0  0
  190.7780  176.9740  139.8510 C   0  0  0  0  0  2  0  0  0  0  0  0
  188.5130  177.8620  139.0640 C   0  0  2  0  0  3  0  0  0  0  0  0
  187.8520  178.6050  138.0000 N   0  0  0  0  0  2  0  0  0  0  0  0
  187.7100  177.7120  136.8580 C   0  0  0  0  0  2  0  0  0  0  0  0
  186.5600  175.5060  137.0260 N   0  0  0  0  0  0  0  0  0  0  0  0
  185.1090  173.5630  137.2670 N   0  0  0  0  0  1  0  0  0  0  0  0
  186.4950  176.8650  137.0170 C   0  0  0  0  0  0  0  0  0  0  0  0
  184.1540  176.1320  137.3650 S   0  0  0  0  0  0  0  0  0  0  0  0
  185.3410  174.9640  137.2000 C   0  0  0  0  0  0  0  0  0  0  0  0
  185.2280  177.4200  137.2020 C   0  0  0  0  0  3  0  0  0  0  0  0
  186.7510  178.7700  148.4110 F   0  0  0  0  0  0  0  0  0  0  0  0
  186.5160  178.5290  147.0990 C   0  0  0  0  0  0  0  0  0  0  0  0
  185.5040  179.1800  144.9970 C   0  0  0  0  0  3  0  0  0  0  0  0
  186.7910  177.1320  145.1410 C   0  0  0  0  0  3  0  0  0  0  0  0
  187.0360  177.3810  146.4950 C   0  0  0  0  0  3  0  0  0  0  0  0
  186.0240  178.0320  144.3870 C   0  0  0  0  0  0  0  0  0  0  0  0
  185.7500  179.4280  146.3510 C   0  0  0  0  0  3  0  0  0  0  0  0
  184.5100  178.5630  142.4150 C   0  0  1  0  0  3  0  0  0  0  0  0
  183.9830  177.9250  141.1350 C   0  0  0  0  0  2  0  0  0  0  0  0
  182.3880  178.8700  139.3890 N   0  0  0  0  0  0  0  0  0  0  0  0
  181.4270  177.8190  139.6930 C   0  0  0  0  0  1  0  0  0  0  0  0
  183.6280  178.9580  140.1080 C   0  0  0  0  0  0  0  0  0  0  0  0
  184.4060  179.9310  139.9060 O   0  0  0  0  0  0  0  0  0  0  0  0
  182.1030  179.7590  138.2730 C   0  0  0  0  0  2  0  0  0  0  0  0
  181.2600  180.9320  138.7360 C   0  0  0  0  0  2  0  0  0  0  0  0
  180.9640  181.8320  137.5560 C   0  0  0  0  0  1  0  0  0  0  0  0
  183.3720  178.5730  143.4340 C   0  0  0  0  0  2  0  0  0  0  0  0
  182.6630  179.7720  143.3500 O   0  0  0  0  0  0  0  0  0  0  0  0
  180.4810  178.2350  144.1070 O   0  0  0  0  0  0  0  0  0  0  0  0
  181.0470  179.3000  143.1950 P   0  0  0  0  0  0  0  0  0  0  0  0
  180.1690  179.9400  142.1450 O   0  0  0  0  0  0  0  0  0  0  0  0
  1 26  1  6  0  0  0
  1 24  1  0  0  0  0
  2  7  2  0  0  0  0
  5  2  1  1  0  0  0
  5  6  1  0  0  0  0
  6  3  1  6  0  0  0
  6  4  1  0  0  0  0
  7  4  1  0  0  0  0
  7  1  1  0  0  0  0
  8 10  1  0  0  0  0
  8  9  1  0  0  0  0
  9  3  1  0  0  0  0
 10 11  1  6  0  0  0
 10  5  1  0  0  0  0
 12 15  1  0  0  0  0
 12 11  1  0  0  0  0
 13 17  2  0  0  0  0
 15 13  1  0  0  0  0
 15 18  2  0  0  0  0
 17 14  1  0  0  0  0
 17 16  1  0  0  0  0
 18 16  1  0  0  0  0
 20 19  1  0  0  0  0
 21 25  1  0  0  0  0
 22 23  2  0  0  0  0
 23 20  1  0  0  0  0
 24 21  2  0  0  0  0
 24 22  1  0  0  0  0
 25 20  2  0  0  0  0
 26 27  1  6  0  0  0
 26 35  1  0  0  0  0
 28 29  1  0  0  0  0
 28 30  1  0  0  0  0
 30 27  1  0  0  0  0
 31 30  2  0  0  0  0
 32 33  1  0  0  0  0
 32 28  1  0  0  0  0
 34 33  1  0  0  0  0
 36 35  1  0  0  0  0
 38 36  1  0  0  0  0
 38 37  2  0  0  0  0
 39 38  2  0  0  0  0
M  END
>  <MODEL>
2

>  <REMARK>
 VINA RESULT:      -7.2      3.116      6.584
  Name = 
  13 active torsions:
  status: ('A' for Active; 'I' for Inactive)
    1  A    between atoms: C_2  and  C_12
    2  A    between atoms: C_2  and  C_18
    3  A    between atoms: C_2  and  C_28
    4  A    between atoms: P_5  and  O_10
    5  A    between atoms: C_6  and  C_26
    6  A    between atoms: O_10  and  C_28
    7  A    between atoms: C_12  and  C_24
    8  A    between atoms: N_15  and  C_26
    9  A    between atoms: C_17  and  C_31
   10  A    between atoms: C_17  and  N_38
   11  A    between atoms: C_18  and  C_21
   12  A    between atoms: C_18  and  C_35
   13  A    between atoms: C_30  and  N_38
                            x       y       z     vdW  Elec       q    Type
                         _______ _______ _______ _____ _____    ______ ____

>  <TORSDO>
F 13

$$$$
=
 OpenBabel11062417453D

 39 42  0  0  1  0  0  0  0  0999 V2000
  186.0880  178.9700  141.1280 C   0  0  1  0  0  3  0  0  0  0  0  0
  184.2890  179.6810  139.5880 N   0  0  0  0  0  0  0  0  0  0  0  0
  181.6210  177.6660  140.4530 C   0  0  0  0  0  2  0  0  0  0  0  0
  184.0490  177.5790  140.4190 N   0  0  0  0  0  2  0  0  0  0  0  0
  183.0720  179.1720  138.9730 C   0  0  1  0  0  3  0  0  0  0  0  0
  182.8760  177.7650  139.5870 C   0  0  2  0  0  3  0  0  0  0  0  0
  184.8150  178.7690  140.3320 C   0  0  0  0  0  0  0  0  0  0  0  0
  180.5830  179.3940  138.8670 C   0  0  0  0  0  2  0  0  0  0  0  0
  180.3790  178.1050  139.6750 C   0  0  0  0  0  2  0  0  0  0  0  0
  181.8890  180.1170  139.2180 C   0  0  2  0  0  3  0  0  0  0  0  0
  182.0320  181.3110  138.3970 N   0  0  0  0  0  2  0  0  0  0  0  0
  180.9840  181.2830  137.3870 C   0  0  0  0  0  2  0  0  0  0  0  0
  180.1340  183.5960  137.7700 N   0  0  0  0  0  0  0  0  0  0  0  0
  179.4290  185.9280  137.7730 N   0  0  0  0  0  1  0  0  0  0  0  0
  180.6720  182.6670  136.9330 C   0  0  0  0  0  0  0  0  0  0  0  0
  180.4750  184.7120  135.5480 S   0  0  0  0  0  0  0  0  0  0  0  0
  179.9600  184.7720  137.1390 C   0  0  0  0  0  0  0  0  0  0  0  0
  180.9500  183.0970  135.6350 C   0  0  0  0  0  3  0  0  0  0  0  0
  185.0300  178.1850  146.6350 F   0  0  0  0  0  0  0  0  0  0  0  0
  185.2890  178.3690  145.3180 C   0  0  0  0  0  0  0  0  0  0  0  0
  184.8620  179.5380  143.2400 C   0  0  0  0  0  3  0  0  0  0  0  0
  186.5110  177.7640  143.3170 C   0  0  0  0  0  3  0  0  0  0  0  0
  186.2450  177.5760  144.6770 C   0  0  0  0  0  3  0  0  0  0  0  0
  185.8200  178.7480  142.5940 C   0  0  0  0  0  0  0  0  0  0  0  0
  184.5970  179.3490  144.6000 C   0  0  0  0  0  3  0  0  0  0  0  0
  187.2770  178.1320  140.6050 C   0  0  1  0  0  3  0  0  0  0  0  0
  187.4820  178.3860  139.1150 C   0  0  0  0  0  2  0  0  0  0  0  0
  186.8540  176.6120  137.4000 N   0  0  0  0  0  0  0  0  0  0  0  0
  185.6490  177.3570  137.0660 C   0  0  0  0  0  1  0  0  0  0  0  0
  187.7800  177.1170  138.3740 C   0  0  0  0  0  0  0  0  0  0  0  0
  188.8690  176.5150  138.5810 O   0  0  0  0  0  0  0  0  0  0  0  0
  187.0400  175.3010  136.7970 C   0  0  0  0  0  2  0  0  0  0  0  0
  185.8890  174.3840  137.1670 C   0  0  0  0  0  2  0  0  0  0  0  0
  186.4110  172.9750  137.3500 C   0  0  0  0  0  1  0  0  0  0  0  0
  188.5820  178.4730  141.3200 C   0  0  0  0  0  2  0  0  0  0  0  0
  189.3230  177.3130  141.5460 O   0  0  0  0  0  0  0  0  0  0  0  0
  191.8500  177.3420  142.6910 O   0  0  0  0  0  0  0  0  0  0  0  0
  190.3910  177.7260  142.7900 P   0  0  0  0  0  0  0  0  0  0  0  0
  189.8880  178.4760  144.0010 O   0  0  0  0  0  0  0  0  0  0  0  0
  1 26  1  6  0  0  0
  1 24  1  0  0  0  0
  2  7  2  0  0  0  0
  5 10  1  0  0  0  0
  5  6  1  0  0  0  0
  5  2  1  1  0  0  0
  6  4  1  0  0  0  0
  6  3  1  1  0  0  0
  7  4  1  0  0  0  0
  7  1  1  0  0  0  0
  8 10  1  0  0  0  0
  8  9  1  0  0  0  0
  9  3  1  0  0  0  0
 10 11  1  6  0  0  0
 12 11  1  0  0  0  0
 15 12  1  0  0  0  0
 15 13  1  0  0  0  0
 16 18  1  0  0  0  0
 16 17  1  0  0  0  0
 17 13  2  0  0  0  0
 17 14  1  0  0  0  0
 18 15  2  0  0  0  0
 20 19  1  0  0  0  0
 21 25  1  0  0  0  0
 22 23  2  0  0  0  0
 23 20  1  0  0  0  0
 24 21  2  0  0  0  0
 24 22  1  0  0  0  0
 25 20  2  0  0  0  0
 26 27  1  6  0  0  0
 26 35  1  0  0  0  0
 28 30  1  0  0  0  0
 29 28  1  0  0  0  0
 30 31  2  0  0  0  0
 30 27  1  0  0  0  0
 32 33  1  0  0  0  0
 32 28  1  0  0  0  0
 33 34  1  0  0  0  0
 35 36  1  0  0  0  0
 36 38  1  0  0  0  0
 37 38  2  0  0  0  0
 38 39  2  0  0  0  0
M  END
>  <MODEL>
3

>  <REMARK>
 VINA RESULT:      -7.1      4.861      8.893
  Name = 
  13 active torsions:
  status: ('A' for Active; 'I' for Inactive)
    1  A    between atoms: C_2  and  C_12
    2  A    between atoms: C_2  and  C_18
    3  A    between atoms: C_2  and  C_28
    4  A    between atoms: P_5  and  O_10
    5  A    between atoms: C_6  and  C_26
    6  A    between atoms: O_10  and  C_28
    7  A    between atoms: C_12  and  C_24
    8  A    between atoms: N_15  and  C_26
    9  A    between atoms: C_17  and  C_31
   10  A    between atoms: C_17  and  N_38
   11  A    between atoms: C_18  and  C_21
   12  A    between atoms: C_18  and  C_35
   13  A    between atoms: C_30  and  N_38
                            x       y       z     vdW  Elec       q    Type
                         _______ _______ _______ _____ _____    ______ ____

>  <TORSDO>
F 13

$$$$
=
 OpenBabel11062417453D

 39 42  0  0  1  0  0  0  0  0999 V2000
  185.7850  178.9770  141.1180 C   0  0  1  0  0  3  0  0  0  0  0  0
  186.7680  178.0200  139.0610 N   0  0  0  0  0  0  0  0  0  0  0  0
  190.0450  177.3740  139.9380 C   0  0  0  0  0  2  0  0  0  0  0  0
  188.2750  178.9440  140.4900 N   0  0  0  0  0  2  0  0  0  0  0  0
  188.0550  177.8640  138.4010 C   0  0  1  0  0  3  0  0  0  0  0  0
  189.0870  178.4370  139.4020 C   0  0  2  0  0  3  0  0  0  0  0  0
  186.9240  178.6530  140.1740 C   0  0  0  0  0  0  0  0  0  0  0  0
  189.7920  176.2230  137.6610 C   0  0  0  0  0  2  0  0  0  0  0  0
  190.7410  176.6320  138.7960 C   0  0  0  0  0  2  0  0  0  0  0  0
  188.3140  176.3990  138.0270 C   0  0  2  0  0  3  0  0  0  0  0  0
  187.4730  176.0200  136.9000 N   0  0  0  0  0  2  0  0  0  0  0  0
  187.4750  174.5660  136.8140 C   0  0  0  0  0  2  0  0  0  0  0  0
  185.0560  174.8480  137.3490 N   0  0  0  0  0  0  0  0  0  0  0  0
  182.6590  174.7390  137.7750 N   0  0  0  0  0  1  0  0  0  0  0  0
  186.0950  174.0390  137.0060 C   0  0  0  0  0  0  0  0  0  0  0  0
  184.1340  172.5280  137.0970 S   0  0  0  0  0  0  0  0  0  0  0  0
  183.9100  174.1490  137.4460 C   0  0  0  0  0  0  0  0  0  0  0  0
  185.7860  172.6930  136.8060 C   0  0  0  0  0  3  0  0  0  0  0  0
  180.8350  178.1640  138.4920 F   0  0  0  0  0  0  0  0  0  0  0  0
  182.0180  178.3540  139.1260 C   0  0  0  0  0  0  0  0  0  0  0  0
  184.0850  179.5890  139.3810 C   0  0  0  0  0  3  0  0  0  0  0  0
  183.6130  177.7030  140.8270 C   0  0  0  0  0  3  0  0  0  0  0  0
  182.3920  177.5080  140.1740 C   0  0  0  0  0  3  0  0  0  0  0  0
  184.4640  178.7460  140.4320 C   0  0  0  0  0  0  0  0  0  0  0  0
  182.8630  179.3940  138.7300 C   0  0  0  0  0  3  0  0  0  0  0  0
  185.8880  178.2450  142.4760 C   0  0  1  0  0  3  0  0  0  0  0  0
  187.2330  177.5360  142.5900 C   0  0  0  0  0  2  0  0  0  0  0  0
  188.9200  177.6280  144.4950 N   0  0  0  0  0  0  0  0  0  0  0  0
  189.8810  178.2800  143.6180 C   0  0  0  0  0  1  0  0  0  0  0  0
  187.6080  177.2880  144.0200 C   0  0  0  0  0  0  0  0  0  0  0  0
  186.7520  176.8160  144.8170 O   0  0  0  0  0  0  0  0  0  0  0  0
  189.3600  177.2400  145.8270 C   0  0  0  0  0  2  0  0  0  0  0  0
  190.8560  176.9870  145.8330 C   0  0  0  0  0  2  0  0  0  0  0  0
  191.2750  176.4980  147.2040 C   0  0  0  0  0  1  0  0  0  0  0  0
  185.7650  179.2040  143.6590 C   0  0  0  0  0  2  0  0  0  0  0  0
  184.5580  179.9000  143.5890 O   0  0  0  0  0  0  0  0  0  0  0  0
  183.9960  178.7750  146.0630 O   0  0  0  0  0  0  0  0  0  0  0  0
  183.5330  179.0820  144.6560 P   0  0  0  0  0  0  0  0  0  0  0  0
  182.1560  178.6540  144.2050 O   0  0  0  0  0  0  0  0  0  0  0  0
  1 26  1  1  0  0  0
  2  7  2  0  0  0  0
  5  2  1  1  0  0  0
  5  6  1  0  0  0  0
  6  3  1  1  0  0  0
  6  4  1  0  0  0  0
  7  4  1  0  0  0  0
  7  1  1  0  0  0  0
  8 10  1  0  0  0  0
  8  9  1  0  0  0  0
  9  3  1  0  0  0  0
 10 11  1  6  0  0  0
 10  5  1  0  0  0  0
 12 11  1  0  0  0  0
 12 15  1  0  0  0  0
 13 17  2  0  0  0  0
 15 13  1  0  0  0  0
 16 17  1  0  0  0  0
 17 14  1  0  0  0  0
 18 15  2  0  0  0  0
 18 16  1  0  0  0  0
 19 20  1  0  0  0  0
 20 23  1  0  0  0  0
 21 24  2  0  0  0  0
 23 22  2  0  0  0  0
 24 22  1  0  0  0  0
 24  1  1  0  0  0  0
 25 20  2  0  0  0  0
 25 21  1  0  0  0  0
 26 27  1  6  0  0  0
 26 35  1  0  0  0  0
 27 30  1  0  0  0  0
 28 32  1  0  0  0  0
 29 28  1  0  0  0  0
 30 28  1  0  0  0  0
 30 31  2  0  0  0  0
 32 33  1  0  0  0  0
 33 34  1  0  0  0  0
 36 35  1  0  0  0  0
 36 38  1  0  0  0  0
 38 37  2  0  0  0  0
 39 38  2  0  0  0  0
M  END
>  <MODEL>
4

>  <REMARK>
 VINA RESULT:      -7.1      2.870      4.627
  Name = 
  13 active torsions:
  status: ('A' for Active; 'I' for Inactive)
    1  A    between atoms: C_2  and  C_12
    2  A    between atoms: C_2  and  C_18
    3  A    between atoms: C_2  and  C_28
    4  A    between atoms: P_5  and  O_10
    5  A    between atoms: C_6  and  C_26
    6  A    between atoms: O_10  and  C_28
    7  A    between atoms: C_12  and  C_24
    8  A    between atoms: N_15  and  C_26
    9  A    between atoms: C_17  and  C_31
   10  A    between atoms: C_17  and  N_38
   11  A    between atoms: C_18  and  C_21
   12  A    between atoms: C_18  and  C_35
   13  A    between atoms: C_30  and  N_38
                            x       y       z     vdW  Elec       q    Type
                         _______ _______ _______ _____ _____    ______ ____

>  <TORSDO>
F 13

$$$$
=
 OpenBabel11062417453D

 39 42  0  0  1  0  0  0  0  0999 V2000
  189.7120  176.6140  140.2000 C   0  0  1  0  0  3  0  0  0  0  0  0
  190.5990  175.9430  137.9920 N   0  0  0  0  0  0  0  0  0  0  0  0
  193.9740  175.4840  138.5670 C   0  0  0  0  0  2  0  0  0  0  0  0
  192.1410  176.8450  139.3990 N   0  0  0  0  0  2  0  0  0  0  0  0
  191.8400  175.9560  137.2310 C   0  0  1  0  0  3  0  0  0  0  0  0
  192.9010  176.5120  138.2100 C   0  0  2  0  0  3  0  0  0  0  0  0
  190.7940  176.4760  139.1500 C   0  0  0  0  0  0  0  0  0  0  0  0
  193.6300  174.5400  136.2070 C   0  0  0  0  0  2  0  0  0  0  0  0
  194.6320  174.9140  137.3090 C   0  0  0  0  0  2  0  0  0  0  0  0
  192.1760  174.5590  136.6920 C   0  0  2  0  0  3  0  0  0  0  0  0
  191.2800  174.2240  135.5940 N   0  0  0  0  0  2  0  0  0  0  0  0
  190.5730  173.0030  135.9560 C   0  0  0  0  0  2  0  0  0  0  0  0
  188.3340  172.8660  137.0430 N   0  0  0  0  0  0  0  0  0  0  0  0
  186.0190  172.9510  137.7990 N   0  0  0  0  0  1  0  0  0  0  0  0
  189.1050  173.2520  135.9900 C   0  0  0  0  0  0  0  0  0  0  0  0
  186.8230  174.0180  135.4030 S   0  0  0  0  0  0  0  0  0  0  0  0
  187.0480  173.2140  136.8540 C   0  0  0  0  0  0  0  0  0  0  0  0
  188.4470  173.9270  134.9620 C   0  0  0  0  0  3  0  0  0  0  0  0
  192.0230  177.3520  145.3160 F   0  0  0  0  0  0  0  0  0  0  0  0
  191.4720  177.1820  144.0900 C   0  0  0  0  0  0  0  0  0  0  0  0
  190.1680  175.8500  142.5440 C   0  0  0  0  0  3  0  0  0  0  0  0
  191.0730  177.9850  141.8410 C   0  0  0  0  0  3  0  0  0  0  0  0
  191.6400  178.1610  143.1070 C   0  0  0  0  0  3  0  0  0  0  0  0
  190.3330  176.8270  141.5560 C   0  0  0  0  0  0  0  0  0  0  0  0
  190.7360  176.0270  143.8090 C   0  0  0  0  0  3  0  0  0  0  0  0
  188.6540  177.6850  139.8520 C   0  0  1  0  0  3  0  0  0  0  0  0
  188.3580  178.5470  141.0750 C   0  0  0  0  0  2  0  0  0  0  0  0
  186.3820  178.1460  142.6290 N   0  0  0  0  0  0  0  0  0  0  0  0
  187.2890  177.6800  143.6670 C   0  0  0  0  0  1  0  0  0  0  0  0
  186.8890  178.6070  141.3670 C   0  0  0  0  0  0  0  0  0  0  0  0
  186.1030  179.1030  140.5140 O   0  0  0  0  0  0  0  0  0  0  0  0
  184.9500  178.0350  142.8670 C   0  0  0  0  0  2  0  0  0  0  0  0
  184.5900  178.6480  144.2070 C   0  0  0  0  0  2  0  0  0  0  0  0
  183.0920  178.8480  144.2800 C   0  0  0  0  0  1  0  0  0  0  0  0
  189.1170  178.6110  138.7300 C   0  0  0  0  0  2  0  0  0  0  0  0
  188.0180  179.0790  138.0080 O   0  0  0  0  0  0  0  0  0  0  0  0
  188.3400  177.3270  135.8820 O   0  0  0  0  0  0  0  0  0  0  0  0
  187.5240  177.7560  137.0800 P   0  0  0  0  0  0  0  0  0  0  0  0
  186.2670  177.0030  137.4470 O   0  0  0  0  0  0  0  0  0  0  0  0
  1 26  1  6  0  0  0
  1 24  1  0  0  0  0
  2  7  2  0  0  0  0
  5  2  1  1  0  0  0
  5  6  1  0  0  0  0
  6  3  1  1  0  0  0
  6  4  1  0  0  0  0
  7  4  1  0  0  0  0
  7  1  1  0  0  0  0
  8 10  1  0  0  0  0
  8  9  1  0  0  0  0
  9  3  1  0  0  0  0
 10 11  1  6  0  0  0
 10  5  1  0  0  0  0
 11 12  1  0  0  0  0
 12 15  1  0  0  0  0
 15 13  1  0  0  0  0
 16 17  1  0  0  0  0
 17 13  2  0  0  0  0
 17 14  1  0  0  0  0
 18 16  1  0  0  0  0
 18 15  2  0  0  0  0
 20 19  1  0  0  0  0
 21 25  2  0  0  0  0
 22 23  1  0  0  0  0
 23 20  2  0  0  0  0
 24 22  2  0  0  0  0
 24 21  1  0  0  0  0
 25 20  1  0  0  0  0
 26 35  1  6  0  0  0
 26 27  1  0  0  0  0
 27 30  1  0  0  0  0
 28 32  1  0  0  0  0
 28 29  1  0  0  0  0
 30 28  1  0  0  0  0
 31 30  2  0  0  0  0
 32 33  1  0  0  0  0
 33 34  1  0  0  0  0
 36 35  1  0  0  0  0
 37 38  2  0  0  0  0
 38 39  2  0  0  0  0
 38 36  1  0  0  0  0
M  END
>  <MODEL>
5

>  <REMARK>
 VINA RESULT:      -6.9      4.843      7.626
  Name = 
  13 active torsions:
  status: ('A' for Active; 'I' for Inactive)
    1  A    between atoms: C_2  and  C_12
    2  A    between atoms: C_2  and  C_18
    3  A    between atoms: C_2  and  C_28
    4  A    between atoms: P_5  and  O_10
    5  A    between atoms: C_6  and  C_26
    6  A    between atoms: O_10  and  C_28
    7  A    between atoms: C_12  and  C_24
    8  A    between atoms: N_15  and  C_26
    9  A    between atoms: C_17  and  C_31
   10  A    between atoms: C_17  and  N_38
   11  A    between atoms: C_18  and  C_21
   12  A    between atoms: C_18  and  C_35
   13  A    between atoms: C_30  and  N_38
                            x       y       z     vdW  Elec       q    Type
                         _______ _______ _______ _____ _____    ______ ____

>  <TORSDO>
F 13

$$$$
=
 OpenBabel11062417453D

 39 42  0  0  1  0  0  0  0  0999 V2000
  185.7670  178.2550  138.1790 C   0  0  1  0  0  3  0  0  0  0  0  0
  186.6490  178.4240  140.4820 N   0  0  0  0  0  0  0  0  0  0  0  0
  183.8090  178.6570  142.4340 C   0  0  0  0  0  2  0  0  0  0  0  0
  184.5550  179.2670  140.2040 N   0  0  0  0  0  2  0  0  0  0  0  0
  186.2730  178.9360  141.7920 C   0  0  1  0  0  3  0  0  0  0  0  0
  184.8250  179.4530  141.6160 C   0  0  2  0  0  3  0  0  0  0  0  0
  185.7060  178.6640  139.6360 C   0  0  0  0  0  0  0  0  0  0  0  0
  185.6900  178.3150  144.1440 C   0  0  0  0  0  2  0  0  0  0  0  0
  184.2020  178.6140  143.9120 C   0  0  0  0  0  2  0  0  0  0  0  0
  186.4100  177.8540  142.8710 C   0  0  2  0  0  3  0  0  0  0  0  0
  187.8180  177.6150  143.1550 N   0  0  0  0  0  2  0  0  0  0  0  0
  187.9960  177.6820  144.5990 C   0  0  0  0  0  2  0  0  0  0  0  0
  189.8240  177.2960  146.2500 N   0  0  0  0  0  0  0  0  0  0  0  0
  191.8090  176.7600  147.5580 N   0  0  0  0  0  1  0  0  0  0  0  0
  189.3750  177.2550  144.9660 C   0  0  0  0  0  0  0  0  0  0  0  0
  191.6850  176.3680  144.8460 S   0  0  0  0  0  0  0  0  0  0  0  0
  191.0890  176.8450  146.3350 C   0  0  0  0  0  0  0  0  0  0  0  0
  190.2690  176.7540  144.0190 C   0  0  0  0  0  3  0  0  0  0  0  0
  191.0910  177.0030  136.7130 F   0  0  0  0  0  0  0  0  0  0  0  0
  189.8160  177.2960  137.0670 C   0  0  0  0  0  0  0  0  0  0  0  0
  187.8530  178.6990  136.8610 C   0  0  0  0  0  3  0  0  0  0  0  0
  187.8380  176.8060  138.3730 C   0  0  0  0  0  3  0  0  0  0  0  0
  189.1520  176.5020  138.0060 C   0  0  0  0  0  3  0  0  0  0  0  0
  187.1830  177.9070  137.8000 C   0  0  0  0  0  0  0  0  0  0  0  0
  189.1680  178.3940  136.4950 C   0  0  0  0  0  3  0  0  0  0  0  0
  184.7590  177.1430  137.8110 C   0  0  1  0  0  3  0  0  0  0  0  0
  183.3560  177.7260  137.6860 C   0  0  0  0  0  2  0  0  0  0  0  0
  181.0510  177.5490  138.7520 N   0  0  0  0  0  0  0  0  0  0  0  0
  180.5760  178.6420  137.9160 C   0  0  0  0  0  1  0  0  0  0  0  0
  182.3970  177.0650  138.6300 C   0  0  0  0  0  0  0  0  0  0  0  0
  182.7650  176.0530  139.2870 O   0  0  0  0  0  0  0  0  0  0  0  0
  180.1590  177.0350  139.7820 C   0  0  0  0  0  2  0  0  0  0  0  0
  180.3550  177.8000  141.0770 C   0  0  0  0  0  2  0  0  0  0  0  0
  179.1320  178.6510  141.3460 C   0  0  0  0  0  1  0  0  0  0  0  0
  185.1030  176.4670  136.4850 C   0  0  0  0  0  2  0  0  0  0  0  0
  184.3900  175.2760  136.3530 O   0  0  0  0  0  0  0  0  0  0  0  0
  186.8680  174.0380  136.5050 O   0  0  0  0  0  0  0  0  0  0  0  0
  185.4280  174.0890  136.9620 P   0  0  0  0  0  0  0  0  0  0  0  0
  184.9170  173.0780  137.9620 O   0  0  0  0  0  0  0  0  0  0  0  0
  1 26  1  1  0  0  0
  1  7  1  0  0  0  0
  3  9  1  0  0  0  0
  4  6  1  0  0  0  0
  5  2  1  6  0  0  0
  5 10  1  0  0  0  0
  6  5  1  0  0  0  0
  6  3  1  1  0  0  0
  7  4  1  0  0  0  0
  7  2  2  0  0  0  0
  9  8  1  0  0  0  0
 10 11  1  1  0  0  0
 10  8  1  0  0  0  0
 11 12  1  0  0  0  0
 12 15  1  0  0  0  0
 13 17  2  0  0  0  0
 15 13  1  0  0  0  0
 16 17  1  0  0  0  0
 17 14  1  0  0  0  0
 18 16  1  0  0  0  0
 18 15  2  0  0  0  0
 19 20  1  0  0  0  0
 20 23  1  0  0  0  0
 21 24  2  0  0  0  0
 23 22  2  0  0  0  0
 24  1  1  0  0  0  0
 24 22  1  0  0  0  0
 25 21  1  0  0  0  0
 25 20  2  0  0  0  0
 26 35  1  6  0  0  0
 27 26  1  0  0  0  0
 27 30  1  0  0  0  0
 28 32  1  0  0  0  0
 29 28  1  0  0  0  0
 30 28  1  0  0  0  0
 30 31  2  0  0  0  0
 32 33  1  0  0  0  0
 33 34  1  0  0  0  0
 36 35  1  0  0  0  0
 36 38  1  0  0  0  0
 37 38  2  0  0  0  0
 38 39  2  0  0  0  0
M  END
>  <MODEL>
6

>  <REMARK>
 VINA RESULT:      -6.9      3.653      6.691
  Name = 
  13 active torsions:
  status: ('A' for Active; 'I' for Inactive)
    1  A    between atoms: C_2  and  C_12
    2  A    between atoms: C_2  and  C_18
    3  A    between atoms: C_2  and  C_28
    4  A    between atoms: P_5  and  O_10
    5  A    between atoms: C_6  and  C_26
    6  A    between atoms: O_10  and  C_28
    7  A    between atoms: C_12  and  C_24
    8  A    between atoms: N_15  and  C_26
    9  A    between atoms: C_17  and  C_31
   10  A    between atoms: C_17  and  N_38
   11  A    between atoms: C_18  and  C_21
   12  A    between atoms: C_18  and  C_35
   13  A    between atoms: C_30  and  N_38
                            x       y       z     vdW  Elec       q    Type
                         _______ _______ _______ _____ _____    ______ ____

>  <TORSDO>
F 13

$$$$
=
 OpenBabel11062417453D

 39 42  0  0  1  0  0  0  0  0999 V2000
  188.3290  177.3010  140.1300 C   0  0  1  0  0  3  0  0  0  0  0  0
  186.8420  178.3810  141.7840 N   0  0  0  0  0  0  0  0  0  0  0  0
  183.7160  178.1870  140.3270 C   0  0  0  0  0  2  0  0  0  0  0  0
  186.0430  178.3710  139.6550 N   0  0  0  0  0  2  0  0  0  0  0  0
  185.5670  179.0790  141.8580 C   0  0  1  0  0  3  0  0  0  0  0  0
  184.9960  179.0170  140.4210 C   0  0  2  0  0  3  0  0  0  0  0  0
  187.0860  178.0510  140.5610 C   0  0  0  0  0  0  0  0  0  0  0  0
  183.2210  178.9730  142.7180 C   0  0  0  0  0  2  0  0  0  0  0  0
  182.6620  178.6860  141.3170 C   0  0  0  0  0  2  0  0  0  0  0  0
  184.6470  178.4450  142.9100 C   0  0  2  0  0  3  0  0  0  0  0  0
  185.1240  178.7740  144.2450 N   0  0  0  0  0  2  0  0  0  0  0  0
  186.1340  177.7910  144.6100 C   0  0  0  0  0  2  0  0  0  0  0  0
  187.8760  177.6690  146.3900 N   0  0  0  0  0  0  0  0  0  0  0  0
  189.3300  177.7750  148.3420 N   0  0  0  0  0  1  0  0  0  0  0  0
  186.6350  178.0560  145.9870 C   0  0  0  0  0  0  0  0  0  0  0  0
  186.8100  178.8570  148.3260 S   0  0  0  0  0  0  0  0  0  0  0  0
  188.1080  178.0350  147.6630 C   0  0  0  0  0  0  0  0  0  0  0  0
  185.8740  178.7510  146.9280 C   0  0  0  0  0  3  0  0  0  0  0  0
  189.2490  178.0540  134.5940 F   0  0  0  0  0  0  0  0  0  0  0  0
  189.0320  177.8800  135.9200 C   0  0  0  0  0  0  0  0  0  0  0  0
  188.4240  176.4470  137.7750 C   0  0  0  0  0  3  0  0  0  0  0  0
  188.9610  178.7770  138.1680 C   0  0  0  0  0  3  0  0  0  0  0  0
  189.1870  178.9550  136.8000 C   0  0  0  0  0  3  0  0  0  0  0  0
  188.5790  177.5190  138.6600 C   0  0  0  0  0  0  0  0  0  0  0  0
  188.6510  176.6270  136.4070 C   0  0  0  0  0  3  0  0  0  0  0  0
  189.5680  177.6160  141.0000 C   0  0  1  0  0  3  0  0  0  0  0  0
  189.6400  176.6500  142.1770 C   0  0  0  0  0  2  0  0  0  0  0  0
  191.1980  176.6080  144.1910 N   0  0  0  0  0  0  0  0  0  0  0  0
  191.6750  175.2900  143.7990 C   0  0  0  0  0  1  0  0  0  0  0  0
  190.2290  177.3030  143.3920 C   0  0  0  0  0  0  0  0  0  0  0  0
  189.9000  178.4850  143.6870 O   0  0  0  0  0  0  0  0  0  0  0  0
  191.6510  177.1510  145.4630 C   0  0  0  0  0  2  0  0  0  0  0  0
  191.2210  176.2490  146.6040 C   0  0  0  0  0  2  0  0  0  0  0  0
  192.4410  175.8250  147.3940 C   0  0  0  0  0  1  0  0  0  0  0  0
  190.8710  177.4910  140.2140 C   0  0  0  0  0  2  0  0  0  0  0  0
  191.0710  176.1680  139.8210 O   0  0  0  0  0  0  0  0  0  0  0  0
  193.4490  177.1360  138.7690 O   0  0  0  0  0  0  0  0  0  0  0  0
  192.2300  176.2590  138.5930 P   0  0  0  0  0  0  0  0  0  0  0  0
  192.0460  175.4670  137.3190 O   0  0  0  0  0  0  0  0  0  0  0  0
  1  7  1  0  0  0  0
  1 26  1  1  0  0  0
  3  9  1  0  0  0  0
  4  6  1  0  0  0  0
  4  7  1  0  0  0  0
  5  2  1  6  0  0  0
  5 10  1  0  0  0  0
  6  3  1  1  0  0  0
  6  5  1  0  0  0  0
  7  2  2  0  0  0  0
  8 10  1  0  0  0  0
  9  8  1  0  0  0  0
 10 11  1  1  0  0  0
 11 12  1  0  0  0  0
 12 15  1  0  0  0  0
 13 17  2  0  0  0  0
 15 13  1  0  0  0  0
 15 18  2  0  0  0  0
 17 16  1  0  0  0  0
 17 14  1  0  0  0  0
 18 16  1  0  0  0  0
 19 20  1  0  0  0  0
 20 25  2  0  0  0  0
 20 23  1  0  0  0  0
 21 24  2  0  0  0  0
 22 24  1  0  0  0  0
 23 22  2  0  0  0  0
 24  1  1  0  0  0  0
 25 21  1  0  0  0  0
 26 35  1  6  0  0  0
 26 27  1  0  0  0  0
 27 30  1  0  0  0  0
 28 32  1  0  0  0  0
 29 28  1  0  0  0  0
 30 31  2  0  0  0  0
 30 28  1  0  0  0  0
 32 33  1  0  0  0  0
 33 34  1  0  0  0  0
 36 35  1  0  0  0  0
 38 37  2  0  0  0  0
 38 36  1  0  0  0  0
 39 38  2  0  0  0  0
M  END
>  <MODEL>
7

>  <REMARK>
 VINA RESULT:      -6.9      4.220      7.082
  Name = 
  13 active torsions:
  status: ('A' for Active; 'I' for Inactive)
    1  A    between atoms: C_2  and  C_12
    2  A    between atoms: C_2  and  C_18
    3  A    between atoms: C_2  and  C_28
    4  A    between atoms: P_5  and  O_10
    5  A    between atoms: C_6  and  C_26
    6  A    between atoms: O_10  and  C_28
    7  A    between atoms: C_12  and  C_24
    8  A    between atoms: N_15  and  C_26
    9  A    between atoms: C_17  and  C_31
   10  A    between atoms: C_17  and  N_38
   11  A    between atoms: C_18  and  C_21
   12  A    between atoms: C_18  and  C_35
   13  A    between atoms: C_30  and  N_38
                            x       y       z     vdW  Elec       q    Type
                         _______ _______ _______ _____ _____    ______ ____

>  <TORSDO>
F 13

$$$$
=
 OpenBabel11062417453D

 39 42  0  0  1  0  0  0  0  0999 V2000
  188.3950  178.5610  140.8180 C   0  0  1  0  0  3  0  0  0  0  0  0
  187.3970  177.2380  138.9830 N   0  0  0  0  0  0  0  0  0  0  0  0
  189.4320  177.9190  136.2770 C   0  0  0  0  0  2  0  0  0  0  0  0
  188.6490  179.0090  138.3020 N   0  0  0  0  0  2  0  0  0  0  0  0
  187.3090  177.2230  137.5310 C   0  0  1  0  0  3  0  0  0  0  0  0
  188.2110  178.3910  137.0660 C   0  0  2  0  0  3  0  0  0  0  0  0
  188.0970  178.2510  139.3660 C   0  0  0  0  0  0  0  0  0  0  0  0
  187.9550  175.9910  135.4520 C   0  0  0  0  0  2  0  0  0  0  0  0
  189.0180  177.0390  135.0950 C   0  0  0  0  0  2  0  0  0  0  0  0
  187.7290  175.8620  136.9630 C   0  0  2  0  0  3  0  0  0  0  0  0
  186.6920  174.8740  137.2280 N   0  0  0  0  0  2  0  0  0  0  0  0
  187.2090  173.5720  136.8320 C   0  0  0  0  0  2  0  0  0  0  0  0
  184.9070  172.6840  137.1910 N   0  0  0  0  0  0  0  0  0  0  0  0
  182.7270  171.5960  137.2180 N   0  0  0  0  0  1  0  0  0  0  0  0
  186.0850  172.6490  136.5100 C   0  0  0  0  0  0  0  0  0  0  0  0
  184.6890  170.9130  135.4270 S   0  0  0  0  0  0  0  0  0  0  0  0
  184.0420  171.7730  136.7080 C   0  0  0  0  0  0  0  0  0  0  0  0
  186.1650  171.7250  135.4680 C   0  0  0  0  0  3  0  0  0  0  0  0
  183.5960  178.3200  143.8120 F   0  0  0  0  0  0  0  0  0  0  0  0
  184.7480  178.3770  143.1020 C   0  0  0  0  0  0  0  0  0  0  0  0
  185.9060  178.7840  141.0140 C   0  0  0  0  0  3  0  0  0  0  0  0
  187.1550  178.1420  142.9890 C   0  0  0  0  0  3  0  0  0  0  0  0
  185.9660  178.0840  143.7220 C   0  0  0  0  0  3  0  0  0  0  0  0
  187.1290  178.4930  141.6300 C   0  0  0  0  0  0  0  0  0  0  0  0
  184.7180  178.7260  141.7490 C   0  0  0  0  0  3  0  0  0  0  0  0
  189.5310  177.6950  141.4090 C   0  0  1  0  0  3  0  0  0  0  0  0
  188.9750  176.7550  142.4720 C   0  0  0  0  0  2  0  0  0  0  0  0
  190.5170  176.9760  144.4870 N   0  0  0  0  0  0  0  0  0  0  0  0
  189.8900  178.2430  144.8310 C   0  0  0  0  0  1  0  0  0  0  0  0
  190.0590  176.2170  143.3570 C   0  0  0  0  0  0  0  0  0  0  0  0
  190.5420  175.0740  143.1280 O   0  0  0  0  0  0  0  0  0  0  0  0
  191.6800  176.5540  145.2530 C   0  0  0  0  0  2  0  0  0  0  0  0
  191.3330  176.4610  146.7270 C   0  0  0  0  0  2  0  0  0  0  0  0
  192.3800  175.6270  147.4350 C   0  0  0  0  0  1  0  0  0  0  0  0
  190.2200  176.8430  140.3460 C   0  0  0  0  0  2  0  0  0  0  0  0
  191.4400  177.4170  139.9850 O   0  0  0  0  0  0  0  0  0  0  0  0
  193.3440  176.7520  138.0810 O   0  0  0  0  0  0  0  0  0  0  0  0
  192.0250  176.4290  138.7440 P   0  0  0  0  0  0  0  0  0  0  0  0
  191.2300  175.2250  138.2980 O   0  0  0  0  0  0  0  0  0  0  0  0
  1 26  1  1  0  0  0
  1 24  1  0  0  0  0
  2  7  2  0  0  0  0
  4  7  1  0  0  0  0
  5  2  1  1  0  0  0
  6  3  1  1  0  0  0
  6  5  1  0  0  0  0
  6  4  1  0  0  0  0
  7  1  1  0  0  0  0
  8 10  1  0  0  0  0
  9  8  1  0  0  0  0
  9  3  1  0  0  0  0
 10 11  1  6  0  0  0
 10  5  1  0  0  0  0
 12 11  1  0  0  0  0
 15 12  1  0  0  0  0
 15 13  1  0  0  0  0
 16 18  1  0  0  0  0
 16 17  1  0  0  0  0
 17 13  2  0  0  0  0
 17 14  1  0  0  0  0
 18 15  2  0  0  0  0
 20 23  1  0  0  0  0
 20 19  1  0  0  0  0
 21 24  2  0  0  0  0
 21 25  1  0  0  0  0
 22 23  2  0  0  0  0
 24 22  1  0  0  0  0
 25 20  2  0  0  0  0
 26 35  1  6  0  0  0
 26 27  1  0  0  0  0
 27 30  1  0  0  0  0
 28 29  1  0  0  0  0
 28 32  1  0  0  0  0
 30 28  1  0  0  0  0
 31 30  2  0  0  0  0
 32 33  1  0  0  0  0
 33 34  1  0  0  0  0
 36 35  1  0  0  0  0
 37 38  2  0  0  0  0
 38 36  1  0  0  0  0
 39 38  2  0  0  0  0
M  END
>  <MODEL>
8

>  <REMARK>
 VINA RESULT:      -6.8      4.997      7.085
  Name = 
  13 active torsions:
  status: ('A' for Active; 'I' for Inactive)
    1  A    between atoms: C_2  and  C_12
    2  A    between atoms: C_2  and  C_18
    3  A    between atoms: C_2  and  C_28
    4  A    between atoms: P_5  and  O_10
    5  A    between atoms: C_6  and  C_26
    6  A    between atoms: O_10  and  C_28
    7  A    between atoms: C_12  and  C_24
    8  A    between atoms: N_15  and  C_26
    9  A    between atoms: C_17  and  C_31
   10  A    between atoms: C_17  and  N_38
   11  A    between atoms: C_18  and  C_21
   12  A    between atoms: C_18  and  C_35
   13  A    between atoms: C_30  and  N_38
                            x       y       z     vdW  Elec       q    Type
                         _______ _______ _______ _____ _____    ______ ____

>  <TORSDO>
F 13

$$$$
=
 OpenBabel11062417453D

 39 42  0  0  1  0  0  0  0  0999 V2000
  183.5780  177.8360  139.4430 C   0  0  1  0  0  3  0  0  0  0  0  0
  185.1090  178.2620  141.3370 N   0  0  0  0  0  0  0  0  0  0  0  0
  182.9880  178.6480  144.0360 C   0  0  0  0  0  2  0  0  0  0  0  0
  182.9910  179.0330  141.6370 N   0  0  0  0  0  2  0  0  0  0  0  0
  185.1240  178.9020  142.6440 C   0  0  1  0  0  3  0  0  0  0  0  0
  183.6670  179.3720  142.8740 C   0  0  2  0  0  3  0  0  0  0  0  0
  183.9430  178.3940  140.8020 C   0  0  0  0  0  0  0  0  0  0  0  0
  185.3140  178.5220  145.1090 C   0  0  0  0  0  2  0  0  0  0  0  0
  183.8130  178.7680  145.3180 C   0  0  0  0  0  2  0  0  0  0  0  0
  185.6350  177.9430  143.7260 C   0  0  2  0  0  3  0  0  0  0  0  0
  187.0730  177.7600  143.5860 N   0  0  0  0  0  2  0  0  0  0  0  0
  187.6510  177.7450  144.9220 C   0  0  0  0  0  2  0  0  0  0  0  0
  189.8250  177.1440  145.9840 N   0  0  0  0  0  0  0  0  0  0  0  0
  192.0650  176.4580  146.6540 N   0  0  0  0  0  1  0  0  0  0  0  0
  189.0730  177.3070  144.8620 C   0  0  0  0  0  0  0  0  0  0  0  0
  191.2730  176.5300  144.0290 S   0  0  0  0  0  0  0  0  0  0  0  0
  191.0670  176.7270  145.6780 C   0  0  0  0  0  0  0  0  0  0  0  0
  189.7010  177.0040  143.6530 C   0  0  0  0  0  3  0  0  0  0  0  0
  180.2170  181.4300  136.6430 F   0  0  0  0  0  0  0  0  0  0  0  0
  181.0250  180.5760  137.3160 C   0  0  0  0  0  0  0  0  0  0  0  0
  181.7820  178.3190  137.7620 C   0  0  0  0  0  3  0  0  0  0  0  0
  182.7650  180.1860  138.9540 C   0  0  0  0  0  3  0  0  0  0  0  0
  181.9320  181.0680  138.2590 C   0  0  0  0  0  3  0  0  0  0  0  0
  182.6930  178.8070  138.7060 C   0  0  0  0  0  0  0  0  0  0  0  0
  180.9500  179.2020  137.0680 C   0  0  0  0  0  3  0  0  0  0  0  0
  184.8060  177.3980  138.6110 C   0  0  1  0  0  3  0  0  0  0  0  0
  184.3560  176.6060  137.3880 C   0  0  0  0  0  2  0  0  0  0  0  0
  185.1170  174.1770  137.4160 N   0  0  0  0  0  0  0  0  0  0  0  0
  186.3980  174.5680  136.8460 C   0  0  0  0  0  1  0  0  0  0  0  0
  184.1200  175.1640  137.7190 C   0  0  0  0  0  0  0  0  0  0  0  0
  183.0550  174.8240  138.3050 O   0  0  0  0  0  0  0  0  0  0  0  0
  184.8400  172.7570  137.5700 C   0  0  0  0  0  2  0  0  0  0  0  0
  184.2620  172.1910  136.2860 C   0  0  0  0  0  2  0  0  0  0  0  0
  182.9370  171.5230  136.5860 C   0  0  0  0  0  1  0  0  0  0  0  0
  185.6250  178.5900  138.1190 C   0  0  0  0  0  2  0  0  0  0  0  0
  186.6810  178.1500  137.3210 O   0  0  0  0  0  0  0  0  0  0  0  0
  188.2760  178.8900  139.4670 O   0  0  0  0  0  0  0  0  0  0  0  0
  187.9440  177.8640  138.4070 P   0  0  0  0  0  0  0  0  0  0  0  0
  188.7430  176.5850  138.3180 O   0  0  0  0  0  0  0  0  0  0  0  0
  1 26  1  6  0  0  0
  1  7  1  0  0  0  0
  3  9  1  0  0  0  0
  4  6  1  0  0  0  0
  5  2  1  6  0  0  0
  5  6  1  0  0  0  0
  5 10  1  0  0  0  0
  6  3  1  1  0  0  0
  7  2  2  0  0  0  0
  7  4  1  0  0  0  0
  8  9  1  0  0  0  0
 10 11  1  1  0  0  0
 10  8  1  0  0  0  0
 11 12  1  0  0  0  0
 15 12  1  0  0  0  0
 15 13  1  0  0  0  0
 16 17  1  0  0  0  0
 17 13  2  0  0  0  0
 17 14  1  0  0  0  0
 18 16  1  0  0  0  0
 18 15  2  0  0  0  0
 19 20  1  0  0  0  0
 20 23  1  0  0  0  0
 21 24  2  0  0  0  0
 23 22  2  0  0  0  0
 24 22  1  0  0  0  0
 24  1  1  0  0  0  0
 25 20  2  0  0  0  0
 25 21  1  0  0  0  0
 26 27  1  6  0  0  0
 27 30  1  0  0  0  0
 28 32  1  0  0  0  0
 28 30  1  0  0  0  0
 29 28  1  0  0  0  0
 30 31  2  0  0  0  0
 33 34  1  0  0  0  0
 33 32  1  0  0  0  0
 35 26  1  0  0  0  0
 36 35  1  0  0  0  0
 36 38  1  0  0  0  0
 38 37  2  0  0  0  0
 39 38  2  0  0  0  0
M  END
>  <MODEL>
9

>  <REMARK>
 VINA RESULT:      -6.8      3.277      6.341
  Name = 
  13 active torsions:
  status: ('A' for Active; 'I' for Inactive)
    1  A    between atoms: C_2  and  C_12
    2  A    between atoms: C_2  and  C_18
    3  A    between atoms: C_2  and  C_28
    4  A    between atoms: P_5  and  O_10
    5  A    between atoms: C_6  and  C_26
    6  A    between atoms: O_10  and  C_28
    7  A    between atoms: C_12  and  C_24
    8  A    between atoms: N_15  and  C_26
    9  A    between atoms: C_17  and  C_31
   10  A    between atoms: C_17  and  N_38
   11  A    between atoms: C_18  and  C_21
   12  A    between atoms: C_18  and  C_35
   13  A    between atoms: C_30  and  N_38
                            x       y       z     vdW  Elec       q    Type
                         _______ _______ _______ _____ _____    ______ ____

>  <TORSDO>
F 13

$$$$
