=
 OpenBabel11062416203D

 29 31  0  0  1  0  0  0  0  0999 V2000
  179.0540  177.7720  137.6220 C   0  0  0  0  0  2  0  0  0  0  0  0
  182.8630  176.2780  140.1370 F   0  0  0  0  0  0  0  0  0  0  0  0
  181.0600  179.0080  141.5220 C   0  0  0  0  0  3  0  0  0  0  0  0
  182.3280  174.3070  136.0860 C   0  0  0  0  0  3  0  0  0  0  0  0
  179.7680  178.4170  136.5300 N   0  0  0  0  0  2  0  0  0  0  0  0
  183.9010  177.8250  142.0990 C   0  0  0  0  0  1  0  0  0  0  0  0
  179.2790  178.8180  139.7900 C   0  0  0  0  0  3  0  0  0  0  0  0
  181.5730  178.5920  134.6030 S   0  0  0  0  0  0  0  0  0  0  0  0
  180.9070  177.0230  139.1910 C   0  0  0  0  0  3  0  0  0  0  0  0
  185.9660  179.5980  140.6620 O   0  0  0  0  0  0  0  0  0  0  0  0
  181.9560  177.2740  139.9720 C   0  0  0  0  0  0  0  0  0  0  0  0
  182.1630  178.6430  140.5810 C   0  0  2  0  0  3  0  0  0  0  0  0
  179.7890  179.1140  141.1410 C   0  0  0  0  0  3  0  0  0  0  0  0
  183.4710  178.8940  141.2040 N   0  0  0  0  0  0  0  0  0  0  0  0
  183.7040  176.4180  136.0620 C   0  0  0  0  0  3  0  0  0  0  0  0
  184.2170  180.2810  139.0850 O   0  0  0  0  0  0  0  0  0  0  0  0
  181.2780  176.4710  136.2240 N   0  0  0  0  0  2  0  0  0  0  0  0
  186.1690  178.8520  137.3960 O   0  0  0  0  0  0  0  0  0  0  0  0
  184.5020  174.3720  137.0750 C   0  0  0  0  0  0  0  0  0  0  0  0
  185.9470  176.5060  137.0940 C   0  0  0  0  0  2  0  0  0  0  0  0
  183.2870  173.7050  136.7290 N   0  0  0  0  0  0  0  0  0  0  0  0
  179.7860  177.9460  138.9070 C   0  0  0  0  0  0  0  0  0  0  0  0
  182.4110  175.7490  135.6570 C   0  0  2  0  0  3  0  0  0  0  0  0
  184.6730  175.7930  136.7360 C   0  0  0  0  0  0  0  0  0  0  0  0
  184.6860  179.1800  139.9920 S   0  0  0  0  0  0  0  0  0  0  0  0
  185.7040  177.7700  137.8430 C   0  0  0  0  0  0  0  0  0  0  0  0
  185.4300  173.7330  137.6410 O   0  0  0  0  0  0  0  0  0  0  0  0
  180.8580  177.7930  135.8450 C   0  0  0  0  0  0  0  0  0  0  0  0
  184.9760  177.7480  139.0670 N   0  0  0  0  0  2  0  0  0  0  0  0
  1 22  1  0  0  0  0
  4 21  2  0  0  0  0
  5  1  1  0  0  0  0
  7 13  1  0  0  0  0
  8 28  2  0  0  0  0
  9 11  2  0  0  0  0
 11  2  1  0  0  0  0
 11 12  1  0  0  0  0
 12 14  1  0  0  0  0
 12  3  1  1  0  0  0
 13  3  2  0  0  0  0
 14  6  1  0  0  0  0
 15 24  2  0  0  0  0
 16 25  2  0  0  0  0
 18 26  2  0  0  0  0
 19 27  2  0  0  0  0
 20 26  1  0  0  0  0
 21 19  1  0  0  0  0
 22  9  1  0  0  0  0
 22  7  2  0  0  0  0
 23 15  1  1  0  0  0
 23  4  1  0  0  0  0
 23 17  1  0  0  0  0
 24 19  1  0  0  0  0
 24 20  1  0  0  0  0
 25 10  2  0  0  0  0
 25 14  1  0  0  0  0
 26 29  1  0  0  0  0
 28 17  1  0  0  0  0
 28  5  1  0  0  0  0
 29 25  1  0  0  0  0
M  END
>  <MODEL>
1

>  <REMARK>
 VINA RESULT:      -5.5      0.000      0.000
  Name = 
  0 active torsions:
  status: ('A' for Active; 'I' for Inactive)
                            x       y       z     vdW  Elec       q    Type
                         _______ _______ _______ _____ _____    ______ ____

>  <TORSDO>
F 0

$$$$
=
 OpenBabel11062416203D

 29 31  0  0  1  0  0  0  0  0999 V2000
  182.9750  180.0210  139.0930 C   0  0  0  0  0  2  0  0  0  0  0  0
  182.9330  175.2230  139.2930 F   0  0  0  0  0  0  0  0  0  0  0  0
  185.6010  176.6780  137.4520 C   0  0  0  0  0  3  0  0  0  0  0  0
  179.3050  177.2640  141.0960 C   0  0  0  0  0  3  0  0  0  0  0  0
  181.8570  180.1990  138.1780 N   0  0  0  0  0  2  0  0  0  0  0  0
  184.4540  173.7680  137.5930 C   0  0  0  0  0  1  0  0  0  0  0  0
  184.9440  178.9760  138.1580 C   0  0  0  0  0  3  0  0  0  0  0  0
  179.4000  179.8150  137.2730 S   0  0  0  0  0  0  0  0  0  0  0  0
  183.2420  177.4980  139.2300 C   0  0  0  0  0  3  0  0  0  0  0  0
  182.6560  173.3470  135.1310 O   0  0  0  0  0  0  0  0  0  0  0  0
  183.4590  176.3090  138.6720 C   0  0  0  0  0  0  0  0  0  0  0  0
  184.1900  176.1900  137.3530 C   0  0  2  0  0  3  0  0  0  0  0  0
  185.9120  177.9300  137.7780 C   0  0  0  0  0  3  0  0  0  0  0  0
  184.1490  174.8760  136.6940 N   0  0  0  0  0  0  0  0  0  0  0  0
  179.1130  176.7400  138.6390 C   0  0  0  0  0  3  0  0  0  0  0  0
  182.3170  175.7730  135.0170 O   0  0  0  0  0  0  0  0  0  0  0  0
  180.4240  178.6200  139.4500 N   0  0  0  0  0  2  0  0  0  0  0  0
  179.6220  174.7110  135.5730 O   0  0  0  0  0  0  0  0  0  0  0  0
  179.1150  175.0090  140.3270 C   0  0  0  0  0  0  0  0  0  0  0  0
  178.9310  174.4130  137.8270 C   0  0  0  0  0  2  0  0  0  0  0  0
  179.2510  175.9890  141.3580 N   0  0  0  0  0  0  0  0  0  0  0  0
  183.7520  178.7990  138.7460 C   0  0  0  0  0  0  0  0  0  0  0  0
  179.2350  177.8140  139.6950 C   0  0  2  0  0  3  0  0  0  0  0  0
  179.0740  175.4350  138.9210 C   0  0  0  0  0  0  0  0  0  0  0  0
  182.6070  174.6180  135.9320 S   0  0  0  0  0  0  0  0  0  0  0  0
  179.9730  174.5550  136.7720 C   0  0  0  0  0  0  0  0  0  0  0  0
  179.0020  173.7900  140.6300 O   0  0  0  0  0  0  0  0  0  0  0  0
  180.6100  179.5160  138.3400 C   0  0  0  0  0  0  0  0  0  0  0  0
  181.3530  174.4870  137.1180 N   0  0  0  0  0  2  0  0  0  0  0  0
  3 13  2  0  0  0  0
  4 21  2  0  0  0  0
  5 28  1  0  0  0  0
  5  1  1  0  0  0  0
  7 22  2  0  0  0  0
  8 28  2  0  0  0  0
 10 25  2  0  0  0  0
 11  9  2  0  0  0  0
 11  2  1  0  0  0  0
 12  3  1  1  0  0  0
 12 11  1  0  0  0  0
 13  7  1  0  0  0  0
 14 12  1  0  0  0  0
 14  6  1  0  0  0  0
 15 24  2  0  0  0  0
 16 25  2  0  0  0  0
 17 23  1  0  0  0  0
 18 26  2  0  0  0  0
 19 27  2  0  0  0  0
 19 21  1  0  0  0  0
 20 24  1  0  0  0  0
 22  1  1  0  0  0  0
 22  9  1  0  0  0  0
 23 15  1  6  0  0  0
 23  4  1  0  0  0  0
 24 19  1  0  0  0  0
 25 14  1  0  0  0  0
 25 29  1  0  0  0  0
 26 29  1  0  0  0  0
 26 20  1  0  0  0  0
 28 17  1  0  0  0  0
M  END
>  <MODEL>
2

>  <REMARK>
 VINA RESULT:      -4.8      3.197      5.709
  Name = 
  0 active torsions:
  status: ('A' for Active; 'I' for Inactive)
                            x       y       z     vdW  Elec       q    Type
                         _______ _______ _______ _____ _____    ______ ____

>  <TORSDO>
F 0

$$$$
=
 OpenBabel11062416203D

 29 31  0  0  1  0  0  0  0  0999 V2000
  182.6170  178.7870  142.3320 C   0  0  0  0  0  2  0  0  0  0  0  0
  182.9600  175.5800  138.7730 F   0  0  0  0  0  0  0  0  0  0  0  0
  185.3590  178.2020  138.7390 C   0  0  0  0  0  3  0  0  0  0  0  0
  179.3350  175.1060  141.4570 C   0  0  0  0  0  3  0  0  0  0  0  0
  181.4220  179.4780  141.8720 N   0  0  0  0  0  2  0  0  0  0  0  0
  184.4540  176.1210  136.5820 C   0  0  0  0  0  1  0  0  0  0  0  0
  184.5830  179.0510  140.9500 C   0  0  0  0  0  3  0  0  0  0  0  0
  178.9400  179.6610  140.9720 S   0  0  0  0  0  0  0  0  0  0  0  0
  183.0880  177.1080  140.4830 C   0  0  0  0  0  3  0  0  0  0  0  0
  182.5110  177.5420  134.6650 O   0  0  0  0  0  0  0  0  0  0  0  0
  183.3520  176.8030  139.2140 C   0  0  0  0  0  0  0  0  0  0  0  0
  183.9870  177.8150  138.2870 C   0  0  2  0  0  3  0  0  0  0  0  0
  185.5960  178.7820  139.9140 C   0  0  0  0  0  3  0  0  0  0  0  0
  183.9960  177.4800  136.8550 N   0  0  0  0  0  0  0  0  0  0  0  0
  178.9960  176.6320  139.4810 C   0  0  0  0  0  3  0  0  0  0  0  0
  181.9780  179.1330  136.4530 O   0  0  0  0  0  0  0  0  0  0  0  0
  180.2170  177.3480  141.4580 N   0  0  0  0  0  2  0  0  0  0  0  0
  179.4230  177.7410  135.9650 O   0  0  0  0  0  0  0  0  0  0  0  0
  179.2610  174.2410  139.2310 C   0  0  0  0  0  0  0  0  0  0  0  0
  178.9320  175.7550  137.1720 C   0  0  0  0  0  2  0  0  0  0  0  0
  179.3990  174.0900  140.6450 N   0  0  0  0  0  0  0  0  0  0  0  0
  183.4570  178.3600  141.1780 C   0  0  0  0  0  0  0  0  0  0  0  0
  179.1160  176.5190  140.9830 C   0  0  2  0  0  3  0  0  0  0  0  0
  179.0790  175.5830  138.6580 C   0  0  0  0  0  0  0  0  0  0  0  0
  182.4250  177.7310  136.1540 S   0  0  0  0  0  0  0  0  0  0  0  0
  179.8760  176.7640  136.6160 C   0  0  0  0  0  0  0  0  0  0  0  0
  179.2650  173.2230  138.4870 O   0  0  0  0  0  0  0  0  0  0  0  0
  180.2480  178.7850  141.4380 C   0  0  0  0  0  0  0  0  0  0  0  0
  181.2800  176.6060  136.7990 N   0  0  0  0  0  2  0  0  0  0  0  0
  2 11  1  0  0  0  0
  3 13  2  0  0  0  0
  5  1  1  0  0  0  0
  6 14  1  0  0  0  0
  7 22  2  0  0  0  0
  8 28  2  0  0  0  0
  9 22  1  0  0  0  0
 10 25  2  0  0  0  0
 11  9  2  0  0  0  0
 12  3  1  1  0  0  0
 12 11  1  0  0  0  0
 13  7  1  0  0  0  0
 14 12  1  0  0  0  0
 18 26  2  0  0  0  0
 19 21  1  0  0  0  0
 20 24  1  0  0  0  0
 21  4  2  0  0  0  0
 22  1  1  0  0  0  0
 23 15  1  6  0  0  0
 23  4  1  0  0  0  0
 23 17  1  0  0  0  0
 24 19  1  0  0  0  0
 24 15  2  0  0  0  0
 25 16  2  0  0  0  0
 25 29  1  0  0  0  0
 25 14  1  0  0  0  0
 26 29  1  0  0  0  0
 26 20  1  0  0  0  0
 27 19  2  0  0  0  0
 28 17  1  0  0  0  0
 28  5  1  0  0  0  0
M  END
>  <MODEL>
3

>  <REMARK>
 VINA RESULT:      -4.4      3.068      5.434
  Name = 
  0 active torsions:
  status: ('A' for Active; 'I' for Inactive)
                            x       y       z     vdW  Elec       q    Type
                         _______ _______ _______ _____ _____    ______ ____

>  <TORSDO>
F 0

$$$$
=
 OpenBabel11062416203D

 29 31  0  0  1  0  0  0  0  0999 V2000
  178.9310  174.7670  138.2420 C   0  0  0  0  0  2  0  0  0  0  0  0
  183.2880  175.5990  140.0830 F   0  0  0  0  0  0  0  0  0  0  0  0
  180.7460  177.9060  141.0020 C   0  0  0  0  0  3  0  0  0  0  0  0
  183.0840  172.2390  137.0430 C   0  0  0  0  0  3  0  0  0  0  0  0
  179.2070  175.1670  136.8700 N   0  0  0  0  0  2  0  0  0  0  0  0
  183.8700  177.9970  141.1930 C   0  0  0  0  0  1  0  0  0  0  0  0
  178.9870  176.5380  139.8860 C   0  0  0  0  0  3  0  0  0  0  0  0
  180.5640  175.2060  134.5990 S   0  0  0  0  0  0  0  0  0  0  0  0
  181.1000  175.2780  139.4640 C   0  0  0  0  0  3  0  0  0  0  0  0
  184.9060  179.6950  138.8440 O   0  0  0  0  0  0  0  0  0  0  0  0
  182.0540  176.1180  139.8590 C   0  0  0  0  0  0  0  0  0  0  0  0
  181.7860  177.6030  139.9700 C   0  0  2  0  0  3  0  0  0  0  0  0
  179.4980  177.4500  140.9260 C   0  0  0  0  0  3  0  0  0  0  0  0
  182.9590  178.4700  140.1560 N   0  0  0  0  0  0  0  0  0  0  0  0
  183.5250  174.5210  136.0690 C   0  0  0  0  0  3  0  0  0  0  0  0
  182.8570  179.1580  137.6090 O   0  0  0  0  0  0  0  0  0  0  0  0
  181.3040  173.8410  136.7910 N   0  0  0  0  0  2  0  0  0  0  0  0
  184.9960  177.9280  135.9920 O   0  0  0  0  0  0  0  0  0  0  0  0
  185.1650  173.3550  137.4120 C   0  0  0  0  0  0  0  0  0  0  0  0
  185.6650  175.6950  136.4540 C   0  0  0  0  0  2  0  0  0  0  0  0
  184.2700  172.2550  137.5820 N   0  0  0  0  0  0  0  0  0  0  0  0
  179.6840  175.6200  139.2020 C   0  0  0  0  0  0  0  0  0  0  0  0
  182.5530  173.3720  136.2040 C   0  0  2  0  0  3  0  0  0  0  0  0
  184.7320  174.5300  136.6410 C   0  0  0  0  0  0  0  0  0  0  0  0
  183.8170  178.6740  138.6570 S   0  0  0  0  0  0  0  0  0  0  0  0
  185.0410  176.9930  136.8350 C   0  0  0  0  0  0  0  0  0  0  0  0
  186.3270  173.3010  137.8980 O   0  0  0  0  0  0  0  0  0  0  0  0
  180.3650  174.7260  136.1550 C   0  0  0  0  0  0  0  0  0  0  0  0
  184.5270  177.1800  138.1500 N   0  0  0  0  0  2  0  0  0  0  0  0
  1 22  1  0  0  0  0
  4 21  2  0  0  0  0
  5  1  1  0  0  0  0
  7 13  1  0  0  0  0
  8 28  2  0  0  0  0
  9 11  2  0  0  0  0
 11 12  1  0  0  0  0
 11  2  1  0  0  0  0
 12 14  1  0  0  0  0
 12  3  1  1  0  0  0
 13  3  2  0  0  0  0
 14  6  1  0  0  0  0
 15 24  2  0  0  0  0
 16 25  2  0  0  0  0
 18 26  2  0  0  0  0
 19 21  1  0  0  0  0
 19 27  2  0  0  0  0
 20 24  1  0  0  0  0
 20 26  1  0  0  0  0
 22  9  1  0  0  0  0
 22  7  2  0  0  0  0
 23 15  1  1  0  0  0
 23 17  1  0  0  0  0
 23  4  1  0  0  0  0
 24 19  1  0  0  0  0
 25 10  2  0  0  0  0
 25 14  1  0  0  0  0
 26 29  1  0  0  0  0
 28 17  1  0  0  0  0
 28  5  1  0  0  0  0
 29 25  1  0  0  0  0
M  END
>  <MODEL>
4

>  <REMARK>
 VINA RESULT:      -4.4      1.792      2.026
  Name = 
  0 active torsions:
  status: ('A' for Active; 'I' for Inactive)
                            x       y       z     vdW  Elec       q    Type
                         _______ _______ _______ _____ _____    ______ ____

>  <TORSDO>
F 0

$$$$
=
 OpenBabel11062416203D

 29 31  0  0  1  0  0  0  0  0999 V2000
  185.8860  174.1130  135.9400 C   0  0  0  0  0  2  0  0  0  0  0  0
  183.0440  175.6290  139.5030 F   0  0  0  0  0  0  0  0  0  0  0  0
  181.6560  173.1690  137.3470 C   0  0  0  0  0  3  0  0  0  0  0  0
  186.9670  177.8660  139.0750 C   0  0  0  0  0  3  0  0  0  0  0  0
  185.8220  175.3040  135.1050 N   0  0  0  0  0  2  0  0  0  0  0  0
  180.3890  175.1110  139.4510 C   0  0  0  0  0  1  0  0  0  0  0  0
  183.8250  172.8680  136.1570 C   0  0  0  0  0  3  0  0  0  0  0  0
  185.9430  177.8970  134.5940 S   0  0  0  0  0  0  0  0  0  0  0  0
  184.2980  174.6370  137.8540 C   0  0  0  0  0  3  0  0  0  0  0  0
  179.1770  177.4900  137.9220 O   0  0  0  0  0  0  0  0  0  0  0  0
  183.0940  174.9530  138.3270 C   0  0  0  0  0  0  0  0  0  0  0  0
  181.8420  174.6400  137.5380 C   0  0  2  0  0  3  0  0  0  0  0  0
  182.5340  172.4060  136.7000 C   0  0  0  0  0  3  0  0  0  0  0  0
  180.5950  175.2560  138.0140 N   0  0  0  0  0  0  0  0  0  0  0  0
  185.0590  178.8060  137.7230 C   0  0  0  0  0  3  0  0  0  0  0  0
  180.7470  177.0570  136.0890 O   0  0  0  0  0  0  0  0  0  0  0  0
  186.2610  176.8090  137.0290 N   0  0  0  0  0  2  0  0  0  0  0  0
  181.5250  179.7300  137.0660 O   0  0  0  0  0  0  0  0  0  0  0  0
  185.1170  178.9440  140.1370 C   0  0  0  0  0  0  0  0  0  0  0  0
  183.1320  179.9100  138.8070 C   0  0  0  0  0  2  0  0  0  0  0  0
  186.3690  178.2580  140.1650 N   0  0  0  0  0  0  0  0  0  0  0  0
  184.5820  173.8740  136.6180 C   0  0  0  0  0  0  0  0  0  0  0  0
  186.3930  178.0960  137.7010 C   0  0  2  0  0  3  0  0  0  0  0  0
  184.4510  179.1880  138.8490 C   0  0  0  0  0  0  0  0  0  0  0  0
  180.5300  176.9370  137.5700 S   0  0  0  0  0  0  0  0  0  0  0  0
  182.0980  179.1660  138.0360 C   0  0  0  0  0  0  0  0  0  0  0  0
  184.6060  179.3610  141.2120 O   0  0  0  0  0  0  0  0  0  0  0  0
  185.9970  176.6240  135.6270 C   0  0  0  0  0  0  0  0  0  0  0  0
  181.7430  177.8390  138.4120 N   0  0  0  0  0  2  0  0  0  0  0  0
  1 22  1  0  0  0  0
  4 21  2  0  0  0  0
  5 28  1  0  0  0  0
  5  1  1  0  0  0  0
  7 22  2  0  0  0  0
  7 13  1  0  0  0  0
  8 28  2  0  0  0  0
  9 11  2  0  0  0  0
 11  2  1  0  0  0  0
 12  3  1  1  0  0  0
 12 14  1  0  0  0  0
 12 11  1  0  0  0  0
 13  3  2  0  0  0  0
 14  6  1  0  0  0  0
 15 24  2  0  0  0  0
 16 25  2  0  0  0  0
 17 23  1  0  0  0  0
 18 26  2  0  0  0  0
 19 21  1  0  0  0  0
 19 27  2  0  0  0  0
 20 24  1  0  0  0  0
 22  9  1  0  0  0  0
 23 15  1  1  0  0  0
 23  4  1  0  0  0  0
 24 19  1  0  0  0  0
 25 10  2  0  0  0  0
 25 14  1  0  0  0  0
 25 29  1  0  0  0  0
 26 29  1  0  0  0  0
 26 20  1  0  0  0  0
 28 17  1  0  0  0  0
M  END
>  <MODEL>
5

>  <REMARK>
 VINA RESULT:      -4.4      2.924      5.683
  Name = 
  0 active torsions:
  status: ('A' for Active; 'I' for Inactive)
                            x       y       z     vdW  Elec       q    Type
                         _______ _______ _______ _____ _____    ______ ____

>  <TORSDO>
F 0

$$$$
=
 OpenBabel11062416203D

 29 31  0  0  1  0  0  0  0  0999 V2000
  185.3470  179.0030  141.0050 C   0  0  0  0  0  2  0  0  0  0  0  0
  185.1400  177.4550  136.4630 F   0  0  0  0  0  0  0  0  0  0  0  0
  182.3700  176.6080  138.5210 C   0  0  0  0  0  3  0  0  0  0  0  0
  189.0560  179.4050  137.6620 C   0  0  0  0  0  3  0  0  0  0  0  0
  186.3650  178.0820  141.4900 N   0  0  0  0  0  2  0  0  0  0  0  0
  183.3590  175.5470  135.7460 C   0  0  0  0  0  1  0  0  0  0  0  0
  183.2310  178.0060  140.3970 C   0  0  0  0  0  3  0  0  0  0  0  0
  188.6800  176.8010  141.4320 S   0  0  0  0  0  0  0  0  0  0  0  0
  184.9550  178.2540  138.6080 C   0  0  0  0  0  3  0  0  0  0  0  0
  184.8440  172.8960  136.2300 O   0  0  0  0  0  0  0  0  0  0  0  0
  184.6100  177.3360  137.7070 C   0  0  0  0  0  0  0  0  0  0  0  0
  183.7310  176.1650  138.0860 C   0  0  2  0  0  3  0  0  0  0  0  0
  182.1690  177.3990  139.5730 C   0  0  0  0  0  3  0  0  0  0  0  0
  183.6240  175.0780  137.1020 N   0  0  0  0  0  0  0  0  0  0  0  0
  188.9430  176.9200  138.0680 C   0  0  0  0  0  3  0  0  0  0  0  0
  185.3050  173.6220  138.5260 O   0  0  0  0  0  0  0  0  0  0  0  0
  187.8390  178.5110  139.5390 N   0  0  0  0  0  2  0  0  0  0  0  0
  187.9820  173.4190  137.3010 O   0  0  0  0  0  0  0  0  0  0  0  0
  189.0310  177.8590  135.8400 C   0  0  0  0  0  0  0  0  0  0  0  0
  188.9010  175.3090  136.1950 C   0  0  0  0  0  2  0  0  0  0  0  0
  189.0670  179.1810  136.3790 N   0  0  0  0  0  0  0  0  0  0  0  0
  184.4690  178.3380  140.0030 C   0  0  0  0  0  0  0  0  0  0  0  0
  189.0000  178.2990  138.6840 C   0  0  2  0  0  3  0  0  0  0  0  0
  188.9390  176.7060  136.7490 C   0  0  0  0  0  0  0  0  0  0  0  0
  185.0550  174.0890  137.1210 S   0  0  0  0  0  0  0  0  0  0  0  0
  187.7580  174.5150  136.7230 C   0  0  0  0  0  0  0  0  0  0  0  0
  189.1080  177.6860  134.5940 O   0  0  0  0  0  0  0  0  0  0  0  0
  187.5810  177.8300  140.7790 C   0  0  0  0  0  0  0  0  0  0  0  0
  186.4230  174.9820  136.5510 N   0  0  0  0  0  2  0  0  0  0  0  0
  1  5  1  0  0  0  0
  2 11  1  0  0  0  0
  3 13  2  0  0  0  0
  6 14  1  0  0  0  0
  9 22  1  0  0  0  0
 10 25  2  0  0  0  0
 11 12  1  0  0  0  0
 11  9  2  0  0  0  0
 12  3  1  6  0  0  0
 13  7  1  0  0  0  0
 14 25  1  0  0  0  0
 14 12  1  0  0  0  0
 15 23  1  0  0  0  0
 17 28  1  0  0  0  0
 19 21  1  0  0  0  0
 19 24  1  0  0  0  0
 20 26  1  0  0  0  0
 20 24  1  0  0  0  0
 21  4  2  0  0  0  0
 22  7  2  0  0  0  0
 22  1  1  0  0  0  0
 23  4  1  6  0  0  0
 23 17  1  0  0  0  0
 24 15  2  0  0  0  0
 25 16  2  0  0  0  0
 26 18  2  0  0  0  0
 27 19  2  0  0  0  0
 28  8  2  0  0  0  0
 28  5  1  0  0  0  0
 29 26  1  0  0  0  0
 29 25  1  0  0  0  0
M  END
>  <MODEL>
6

>  <REMARK>
 VINA RESULT:      -4.3      3.340      6.160
  Name = 
  0 active torsions:
  status: ('A' for Active; 'I' for Inactive)
                            x       y       z     vdW  Elec       q    Type
                         _______ _______ _______ _____ _____    ______ ____

>  <TORSDO>
F 0

$$$$
=
 OpenBabel11062416203D

 29 31  0  0  1  0  0  0  0  0999 V2000
  181.4200  173.3450  136.6010 C   0  0  0  0  0  2  0  0  0  0  0  0
  183.6050  177.5370  135.7520 F   0  0  0  0  0  0  0  0  0  0  0  0
  185.6230  174.9990  137.2050 C   0  0  0  0  0  3  0  0  0  0  0  0
  179.1300  177.5070  135.0130 C   0  0  0  0  0  3  0  0  0  0  0  0
  180.6100  173.7620  137.7370 N   0  0  0  0  0  2  0  0  0  0  0  0
  185.9940  178.0920  136.8960 C   0  0  0  0  0  1  0  0  0  0  0  0
  183.8090  173.3060  136.9700 C   0  0  0  0  0  3  0  0  0  0  0  0
  178.9310  175.3250  139.0550 S   0  0  0  0  0  0  0  0  0  0  0  0
  182.8060  175.4070  136.0660 C   0  0  0  0  0  3  0  0  0  0  0  0
  185.2670  179.3980  139.5860 O   0  0  0  0  0  0  0  0  0  0  0  0
  183.6880  176.3470  136.4000 C   0  0  0  0  0  0  0  0  0  0  0  0
  184.6830  176.1200  137.5160 C   0  0  2  0  0  3  0  0  0  0  0  0
  185.2150  173.7480  136.9990 C   0  0  0  0  0  3  0  0  0  0  0  0
  185.4290  177.2980  137.9820 N   0  0  0  0  0  0  0  0  0  0  0  0
  179.8100  178.1120  137.3630 C   0  0  0  0  0  3  0  0  0  0  0  0
  183.8600  177.4570  140.0990 O   0  0  0  0  0  0  0  0  0  0  0  0
  179.8350  175.8120  136.5730 N   0  0  0  0  0  2  0  0  0  0  0  0
  181.9440  179.6960  139.9530 O   0  0  0  0  0  0  0  0  0  0  0  0
  180.2220  179.5790  135.4850 C   0  0  0  0  0  0  0  0  0  0  0  0
  180.9530  180.2440  137.8640 C   0  0  0  0  0  2  0  0  0  0  0  0
  179.6230  178.6370  134.5940 N   0  0  0  0  0  0  0  0  0  0  0  0
  182.7400  174.0340  136.6140 C   0  0  0  0  0  0  0  0  0  0  0  0
  179.1500  177.0940  136.4620 C   0  0  2  0  0  3  0  0  0  0  0  0
  180.3260  179.2600  136.9160 C   0  0  0  0  0  0  0  0  0  0  0  0
  184.4290  178.2990  138.9940 S   0  0  0  0  0  0  0  0  0  0  0  0
  182.0250  179.6310  138.6980 C   0  0  0  0  0  0  0  0  0  0  0  0
  180.6290  180.6890  135.0450 O   0  0  0  0  0  0  0  0  0  0  0  0
  179.8380  174.9660  137.7360 C   0  0  0  0  0  0  0  0  0  0  0  0
  183.1420  179.0030  138.0770 N   0  0  0  0  0  2  0  0  0  0  0  0
  1 22  1  0  0  0  0
  1  5  1  0  0  0  0
  2 11  1  0  0  0  0
  6 14  1  0  0  0  0
  7 13  1  0  0  0  0
  9 11  2  0  0  0  0
  9 22  1  0  0  0  0
 11 12  1  0  0  0  0
 12  3  1  6  0  0  0
 12 14  1  0  0  0  0
 13  3  2  0  0  0  0
 14 25  1  0  0  0  0
 17 28  1  0  0  0  0
 19 24  1  0  0  0  0
 20 26  1  0  0  0  0
 21  4  2  0  0  0  0
 21 19  1  0  0  0  0
 22  7  2  0  0  0  0
 23  4  1  6  0  0  0
 23 17  1  0  0  0  0
 23 15  1  0  0  0  0
 24 15  2  0  0  0  0
 24 20  1  0  0  0  0
 25 10  2  0  0  0  0
 25 16  2  0  0  0  0
 26 18  2  0  0  0  0
 27 19  2  0  0  0  0
 28  5  1  0  0  0  0
 28  8  2  0  0  0  0
 29 26  1  0  0  0  0
 29 25  1  0  0  0  0
M  END
>  <MODEL>
7

>  <REMARK>
 VINA RESULT:      -4.1      2.521      5.255
  Name = 
  0 active torsions:
  status: ('A' for Active; 'I' for Inactive)
                            x       y       z     vdW  Elec       q    Type
                         _______ _______ _______ _____ _____    ______ ____

>  <TORSDO>
F 0

$$$$
=
 OpenBabel11062416203D

 29 31  0  0  1  0  0  0  0  0999 V2000
  190.8760  172.7850  135.3370 C   0  0  0  0  0  2  0  0  0  0  0  0
  187.3230  174.1970  138.2440 F   0  0  0  0  0  0  0  0  0  0  0  0
  186.3620  172.1750  135.4840 C   0  0  0  0  0  3  0  0  0  0  0  0
  191.3850  176.0050  139.1390 C   0  0  0  0  0  3  0  0  0  0  0  0
  191.1320  174.0630  134.6890 N   0  0  0  0  0  2  0  0  0  0  0  0
  184.7430  173.9950  137.4510 C   0  0  0  0  0  1  0  0  0  0  0  0
  188.7380  171.7670  134.8500 C   0  0  0  0  0  3  0  0  0  0  0  0
  191.5920  176.6670  134.5940 S   0  0  0  0  0  0  0  0  0  0  0  0
  188.8850  173.2640  136.8420 C   0  0  0  0  0  3  0  0  0  0  0  0
  184.1760  176.6570  136.0150 O   0  0  0  0  0  0  0  0  0  0  0  0
  187.6290  173.6590  137.0360 C   0  0  0  0  0  0  0  0  0  0  0  0
  186.6090  173.5840  135.9200 C   0  0  2  0  0  3  0  0  0  0  0  0
  187.3170  171.3970  134.9780 C   0  0  0  0  0  3  0  0  0  0  0  0
  185.3340  174.2800  136.1470 N   0  0  0  0  0  0  0  0  0  0  0  0
  189.9870  177.3060  137.4950 C   0  0  0  0  0  3  0  0  0  0  0  0
  186.1360  176.2610  134.5970 O   0  0  0  0  0  0  0  0  0  0  0  0
  191.1640  175.2780  136.8530 N   0  0  0  0  0  2  0  0  0  0  0  0
  186.8390  178.6970  136.1040 O   0  0  0  0  0  0  0  0  0  0  0  0
  189.4130  177.1590  139.8400 C   0  0  0  0  0  0  0  0  0  0  0  0
  187.9360  178.4910  138.2020 C   0  0  0  0  0  2  0  0  0  0  0  0
  190.5540  176.3350  140.0860 N   0  0  0  0  0  0  0  0  0  0  0  0
  189.4240  172.6200  135.6240 C   0  0  0  0  0  0  0  0  0  0  0  0
  191.2170  176.4550  137.7110 C   0  0  2  0  0  3  0  0  0  0  0  0
  189.1340  177.6230  138.4730 C   0  0  0  0  0  0  0  0  0  0  0  0
  185.5250  175.9970  135.9420 S   0  0  0  0  0  0  0  0  0  0  0  0
  187.0870  177.9640  137.0980 C   0  0  0  0  0  0  0  0  0  0  0  0
  188.6700  177.5050  140.7980 O   0  0  0  0  0  0  0  0  0  0  0  0
  191.2680  175.2860  135.4190 C   0  0  0  0  0  0  0  0  0  0  0  0
  186.5400  176.6520  137.1810 N   0  0  0  0  0  2  0  0  0  0  0  0
  1 22  1  0  0  0  0
  4 21  2  0  0  0  0
  5  1  1  0  0  0  0
  5 28  1  0  0  0  0
  7 13  1  0  0  0  0
  7 22  2  0  0  0  0
  8 28  2  0  0  0  0
  9 11  2  0  0  0  0
 11  2  1  0  0  0  0
 12  3  1  1  0  0  0
 12 14  1  0  0  0  0
 12 11  1  0  0  0  0
 13  3  2  0  0  0  0
 14  6  1  0  0  0  0
 15 24  2  0  0  0  0
 16 25  2  0  0  0  0
 17 23  1  0  0  0  0
 18 26  2  0  0  0  0
 19 21  1  0  0  0  0
 19 27  2  0  0  0  0
 20 24  1  0  0  0  0
 22  9  1  0  0  0  0
 23 15  1  1  0  0  0
 23  4  1  0  0  0  0
 24 19  1  0  0  0  0
 25 10  2  0  0  0  0
 25 14  1  0  0  0  0
 25 29  1  0  0  0  0
 26 29  1  0  0  0  0
 26 20  1  0  0  0  0
 28 17  1  0  0  0  0
M  END
>  <MODEL>
8

>  <REMARK>
 VINA RESULT:      -3.9      4.894      8.371
  Name = 
  0 active torsions:
  status: ('A' for Active; 'I' for Inactive)
                            x       y       z     vdW  Elec       q    Type
                         _______ _______ _______ _____ _____    ______ ____

>  <TORSDO>
F 0

$$$$
=
 OpenBabel11062416203D

 29 31  0  0  1  0  0  0  0  0999 V2000
  185.7830  178.2540  138.3330 C   0  0  0  0  0  2  0  0  0  0  0  0
  181.1090  179.2140  138.8750 F   0  0  0  0  0  0  0  0  0  0  0  0
  182.9590  178.7560  141.8740 C   0  0  0  0  0  3  0  0  0  0  0  0
  182.4640  178.5640  134.5960 C   0  0  0  0  0  3  0  0  0  0  0  0
  185.6580  176.8850  137.8540 N   0  0  0  0  0  2  0  0  0  0  0  0
  179.8900  178.7890  141.2540 C   0  0  0  0  0  1  0  0  0  0  0  0
  185.1120  178.6320  140.6240 C   0  0  0  0  0  3  0  0  0  0  0  0
  184.7040  174.9430  136.3300 S   0  0  0  0  0  0  0  0  0  0  0  0
  183.3880  178.9310  138.8440 C   0  0  0  0  0  3  0  0  0  0  0  0
  178.9300  175.8690  141.1080 O   0  0  0  0  0  0  0  0  0  0  0  0
  182.2350  178.7700  139.4890 C   0  0  0  0  0  0  0  0  0  0  0  0
  182.1810  178.0420  140.8150 C   0  0  2  0  0  3  0  0  0  0  0  0
  184.2690  178.9760  141.7840 C   0  0  0  0  0  3  0  0  0  0  0  0
  180.8440  177.6860  141.3150 N   0  0  0  0  0  0  0  0  0  0  0  0
  181.7410  176.4750  135.8060 C   0  0  0  0  0  3  0  0  0  0  0  0
  181.2170  175.1910  140.5390 O   0  0  0  0  0  0  0  0  0  0  0  0
  183.9060  177.5060  136.2080 N   0  0  0  0  0  2  0  0  0  0  0  0
  179.6540  174.4810  138.1390 O   0  0  0  0  0  0  0  0  0  0  0  0
  180.1710  178.1990  135.1630 C   0  0  0  0  0  0  0  0  0  0  0  0
  179.3770  176.0900  136.4140 C   0  0  0  0  0  2  0  0  0  0  0  0
  181.2270  178.9740  134.5940 N   0  0  0  0  0  0  0  0  0  0  0  0
  184.7300  178.5580  139.3410 C   0  0  0  0  0  0  0  0  0  0  0  0
  182.8870  177.2490  135.1980 C   0  0  2  0  0  3  0  0  0  0  0  0
  180.4800  176.9150  135.8110 C   0  0  0  0  0  0  0  0  0  0  0  0
  180.2160  176.3070  140.4620 S   0  0  0  0  0  0  0  0  0  0  0  0
  179.6600  175.7000  137.8230 C   0  0  0  0  0  0  0  0  0  0  0  0
  178.9800  178.6050  135.0820 O   0  0  0  0  0  0  0  0  0  0  0  0
  184.7410  176.5080  136.8220 C   0  0  0  0  0  0  0  0  0  0  0  0
  179.9080  176.7000  138.8060 N   0  0  0  0  0  2  0  0  0  0  0  0
  1 22  1  0  0  0  0
  2 11  1  0  0  0  0
  5  1  1  0  0  0  0
  6 14  1  0  0  0  0
  7 13  1  0  0  0  0
  8 28  2  0  0  0  0
  9 22  1  0  0  0  0
  9 11  2  0  0  0  0
 11 12  1  0  0  0  0
 12 14  1  0  0  0  0
 12  3  1  1  0  0  0
 13  3  2  0  0  0  0
 15 24  2  0  0  0  0
 17 28  1  0  0  0  0
 19 24  1  0  0  0  0
 20 26  1  0  0  0  0
 21  4  2  0  0  0  0
 21 19  1  0  0  0  0
 22  7  2  0  0  0  0
 23  4  1  1  0  0  0
 23 15  1  0  0  0  0
 23 17  1  0  0  0  0
 24 20  1  0  0  0  0
 25 16  2  0  0  0  0
 25 10  2  0  0  0  0
 25 14  1  0  0  0  0
 26 18  2  0  0  0  0
 26 29  1  0  0  0  0
 27 19  2  0  0  0  0
 28  5  1  0  0  0  0
 29 25  1  0  0  0  0
M  END
>  <MODEL>
9

>  <REMARK>
 VINA RESULT:      -3.4      3.228      5.145
  Name = 
  0 active torsions:
  status: ('A' for Active; 'I' for Inactive)
                            x       y       z     vdW  Elec       q    Type
                         _______ _______ _______ _____ _____    ______ ____

>  <TORSDO>
F 0

$$$$
