=
 OpenBabel11062412433D

 32 36  0  0  1  0  0  0  0  0999 V2000
  188.5280  177.3780  147.3500 C   0  0  0  0  0  3  0  0  0  0  0  0
  187.2090  177.6000  146.9480 C   0  0  0  0  0  3  0  0  0  0  0  0
  187.9310  177.4670  144.6490 C   0  0  0  0  0  3  0  0  0  0  0  0
  189.2450  177.2700  145.0840 C   0  0  0  0  0  0  0  0  0  0  0  0
  189.5080  177.2130  146.4200 N   0  0  0  0  0  0  0  0  0  0  0  0
  186.9080  177.6410  145.5850 C   0  0  0  0  0  0  0  0  0  0  0  0
  189.8930  177.4510  142.8060 N   0  0  0  0  0  0  0  0  0  0  0  0
  191.5930  179.2840  143.8320 O   0  0  0  0  0  0  0  0  0  0  0  0
  190.3330  177.0580  144.0730 C   0  0  1  0  0  3  0  0  0  0  0  0
  190.8760  178.2660  143.6500 C   0  0  0  0  0  0  0  0  0  0  0  0
  187.6850  178.4210  139.4080 N   0  0  0  0  0  0  0  0  0  0  0  0
  189.0190  177.3270  141.6500 C   0  0  1  0  0  3  0  0  0  0  0  0
  187.2160  178.7300  140.7280 C   0  0  0  0  0  3  0  0  0  0  0  0
  190.6290  177.0950  137.6310 C   0  0  0  0  0  2  0  0  0  0  0  0
  190.6730  176.4180  140.0090 C   0  0  0  0  0  3  0  0  0  0  0  0
  191.0640  176.1810  138.7460 C   0  0  0  0  0  3  0  0  0  0  0  0
  187.8510  178.2600  141.8030 C   0  0  0  0  0  3  0  0  0  0  0  0
  189.2670  177.5670  137.8680 N   0  0  0  0  0  2  0  0  0  0  0  0
  189.7930  177.5940  140.3510 C   0  0  1  0  0  3  0  0  0  0  0  0
  188.8450  177.8710  139.2010 C   0  0  0  0  0  0  0  0  0  0  0  0
  185.5630  177.8670  145.1620 N   0  0  0  0  0  2  0  0  0  0  0  0
  184.9910  179.1450  145.2190 N   0  0  0  0  0  2  0  0  0  0  0  0
  184.7360  179.5620  143.8500 C   0  0  0  0  0  2  0  0  0  0  0  0
  183.7620  178.6060  143.1830 C   0  0  1  0  0  3  0  0  0  0  0  0
  182.3880  179.2260  143.0680 C   0  0  0  0  0  2  0  0  0  0  0  0
  181.7700  178.5980  141.8390 C   0  0  0  0  0  2  0  0  0  0  0  0
  184.1970  178.3300  141.7620 C   0  0  0  0  0  2  0  0  0  0  0  0
  182.9230  178.1550  140.9540 C   0  0  2  0  0  3  0  0  0  0  0  0
  181.8010  180.0700  139.4230 O   0  0  0  0  0  0  0  0  0  0  0  0
  182.9920  179.1550  139.4790 S   0  0  0  0  0  0  0  0  0  0  0  0
  184.2510  179.9750  139.4860 O   0  0  0  0  0  0  0  0  0  0  0  0
  182.9900  178.1290  138.0900 N   0  0  0  0  0  1  0  0  0  0  0  0
  2  1  1  0  0  0  0
  3  4  2  0  0  0  0
  3  6  1  0  0  0  0
  4  5  1  0  0  0  0
  5  1  2  0  0  0  0
  6  2  2  0  0  0  0
  7 10  1  0  0  0  0
  7  9  1  0  0  0  0
  9  4  1  1  0  0  0
 10  8  2  0  0  0  0
 10  9  1  0  0  0  0
 11 13  1  0  0  0  0
 12 17  1  1  0  0  0
 12  7  1  0  0  0  0
 13 17  2  0  0  0  0
 14 18  1  0  0  0  0
 14 16  1  0  0  0  0
 16 15  2  0  0  0  0
 18 20  1  0  0  0  0
 19 15  1  6  0  0  0
 19 12  1  0  0  0  0
 20 11  2  0  0  0  0
 20 19  1  0  0  0  0
 21 22  1  0  0  0  0
 21  6  1  0  0  0  0
 23 22  1  0  0  0  0
 24 23  1  6  0  0  0
 25 24  1  0  0  0  0
 26 25  1  0  0  0  0
 27 24  1  0  0  0  0
 28 30  1  6  0  0  0
 28 27  1  0  0  0  0
 28 26  1  0  0  0  0
 29 30  2  0  0  0  0
 30 31  2  0  0  0  0
 32 30  1  0  0  0  0
M  END
>  <MODEL>
1

>  <REMARK>
 VINA RESULT:      -8.7      0.000      0.000
  Name = 
  7 active torsions:
  status: ('A' for Active; 'I' for Inactive)
    1  A    between atoms: C_1  and  N_8
    2  A    between atoms: C_1  and  C_12
    3  A    between atoms: N_3  and  C_9
    4  A    between atoms: CA_7  and  C_13
    5  A    between atoms: N_8  and  N_32
    6  A    between atoms: S_16  and  C_29
    7  A    between atoms: C_18  and  N_32
                            x       y       z     vdW  Elec       q    Type
                         _______ _______ _______ _____ _____    ______ ____

>  <TORSDO>
F 7

$$$$
=
 OpenBabel11062412433D

 32 36  0  0  1  0  0  0  0  0999 V2000
  184.7590  179.1480  142.3240 C   0  0  0  0  0  3  0  0  0  0  0  0
  185.8420  179.1710  141.4420 C   0  0  0  0  0  3  0  0  0  0  0  0
  187.1230  177.9030  143.0470 C   0  0  0  0  0  3  0  0  0  0  0  0
  186.0290  177.9190  143.9170 C   0  0  0  0  0  0  0  0  0  0  0  0
  184.8720  178.5240  143.5280 N   0  0  0  0  0  0  0  0  0  0  0  0
  187.0330  178.5380  141.8050 C   0  0  0  0  0  0  0  0  0  0  0  0
  187.2070  177.7070  145.9690 N   0  0  0  0  0  0  0  0  0  0  0  0
  184.8770  178.6460  146.9630 O   0  0  0  0  0  0  0  0  0  0  0  0
  186.1260  177.2110  145.2360 C   0  0  1  0  0  3  0  0  0  0  0  0
  185.7470  178.0400  146.2870 C   0  0  0  0  0  0  0  0  0  0  0  0
  191.1260  177.2380  147.3070 N   0  0  0  0  0  0  0  0  0  0  0  0
  188.6290  177.9350  146.1720 C   0  0  1  0  0  3  0  0  0  0  0  0
  190.1050  177.8060  148.1400 C   0  0  0  0  0  3  0  0  0  0  0  0
  191.6010  175.6090  144.0350 C   0  0  0  0  0  2  0  0  0  0  0  0
  189.4910  176.8970  144.0640 C   0  0  0  0  0  3  0  0  0  0  0  0
  190.4860  176.3520  143.3470 C   0  0  0  0  0  3  0  0  0  0  0  0
  188.9060  178.1060  147.6390 C   0  0  0  0  0  3  0  0  0  0  0  0
  191.9210  176.2470  145.3100 N   0  0  0  0  0  2  0  0  0  0  0  0
  189.4550  176.7890  145.5680 C   0  0  1  0  0  3  0  0  0  0  0  0
  190.8700  176.7940  146.1120 C   0  0  0  0  0  0  0  0  0  0  0  0
  188.1460  178.5540  140.9120 N   0  0  0  0  0  2  0  0  0  0  0  0
  187.9750  178.3490  139.5360 N   0  0  0  0  0  2  0  0  0  0  0  0
  189.2960  178.3710  138.9310 C   0  0  0  0  0  2  0  0  0  0  0  0
  189.6320  177.0050  138.3560 C   0  0  1  0  0  3  0  0  0  0  0  0
  190.0350  177.1140  136.9030 C   0  0  0  0  0  2  0  0  0  0  0  0
  190.9920  175.9660  136.6680 C   0  0  0  0  0  2  0  0  0  0  0  0
  190.8350  176.4260  139.0630 C   0  0  0  0  0  2  0  0  0  0  0  0
  191.5970  175.6260  138.0200 C   0  0  2  0  0  3  0  0  0  0  0  0
  193.6930  176.8000  136.7960 O   0  0  0  0  0  0  0  0  0  0  0  0
  193.3250  176.0650  138.0540 S   0  0  0  0  0  0  0  0  0  0  0  0
  193.5980  176.9430  139.2420 O   0  0  0  0  0  0  0  0  0  0  0  0
  194.2790  174.6300  138.1770 N   0  0  0  0  0  1  0  0  0  0  0  0
  1  5  1  0  0  0  0
  2  6  1  0  0  0  0
  2  1  2  0  0  0  0
  3  4  1  0  0  0  0
  5  4  2  0  0  0  0
  6  3  2  0  0  0  0
  7 10  1  0  0  0  0
  9  4  1  6  0  0  0
  9  7  1  0  0  0  0
  9 10  1  0  0  0  0
 10  8  2  0  0  0  0
 11 13  1  0  0  0  0
 12  7  1  1  0  0  0
 12 17  1  0  0  0  0
 14 18  1  0  0  0  0
 16 14  1  0  0  0  0
 16 15  2  0  0  0  0
 17 13  2  0  0  0  0
 18 20  1  0  0  0  0
 19 15  1  6  0  0  0
 19 20  1  0  0  0  0
 19 12  1  0  0  0  0
 20 11  2  0  0  0  0
 21  6  1  0  0  0  0
 22 21  1  0  0  0  0
 23 22  1  0  0  0  0
 24 23  1  1  0  0  0
 24 27  1  0  0  0  0
 25 24  1  0  0  0  0
 26 25  1  0  0  0  0
 26 28  1  0  0  0  0
 28 30  1  6  0  0  0
 28 27  1  0  0  0  0
 29 30  2  0  0  0  0
 30 32  1  0  0  0  0
 30 31  2  0  0  0  0
M  END
>  <MODEL>
2

>  <REMARK>
 VINA RESULT:      -8.7      3.439      7.377
  Name = 
  7 active torsions:
  status: ('A' for Active; 'I' for Inactive)
    1  A    between atoms: C_1  and  N_8
    2  A    between atoms: C_1  and  C_12
    3  A    between atoms: N_3  and  C_9
    4  A    between atoms: CA_7  and  C_13
    5  A    between atoms: N_8  and  N_32
    6  A    between atoms: S_16  and  C_29
    7  A    between atoms: C_18  and  N_32
                            x       y       z     vdW  Elec       q    Type
                         _______ _______ _______ _____ _____    ______ ____

>  <TORSDO>
F 7

$$$$
=
 OpenBabel11062412433D

 32 36  0  0  1  0  0  0  0  0999 V2000
  182.6420  179.0970  143.7930 C   0  0  0  0  0  3  0  0  0  0  0  0
  183.5650  178.9630  144.8320 C   0  0  0  0  0  3  0  0  0  0  0  0
  185.2080  178.2310  143.2230 C   0  0  0  0  0  3  0  0  0  0  0  0
  184.2540  178.3520  142.2100 C   0  0  0  0  0  0  0  0  0  0  0  0
  183.0020  178.7980  142.5150 N   0  0  0  0  0  0  0  0  0  0  0  0
  184.8610  178.5310  144.5440 C   0  0  0  0  0  0  0  0  0  0  0  0
  183.5220  177.6470  140.0620 N   0  0  0  0  0  0  0  0  0  0  0  0
  184.2010  180.1820  139.4190 O   0  0  0  0  0  0  0  0  0  0  0  0
  184.6430  178.0550  140.7910 C   0  0  1  0  0  3  0  0  0  0  0  0
  184.1660  179.0280  139.9190 C   0  0  0  0  0  0  0  0  0  0  0  0
  180.0150  176.0460  138.4800 N   0  0  0  0  0  0  0  0  0  0  0  0
  182.4330  176.7250  139.7850 C   0  0  1  0  0  3  0  0  0  0  0  0
  179.9950  176.9990  139.5530 C   0  0  0  0  0  3  0  0  0  0  0  0
  182.3260  174.4140  136.1170 C   0  0  0  0  0  2  0  0  0  0  0  0
  183.5610  175.2970  138.0680 C   0  0  0  0  0  3  0  0  0  0  0  0
  183.5070  174.4240  137.0500 C   0  0  0  0  0  3  0  0  0  0  0  0
  181.1260  177.3660  140.1580 C   0  0  0  0  0  3  0  0  0  0  0  0
  181.0990  174.7110  136.8530 N   0  0  0  0  0  2  0  0  0  0  0  0
  182.4500  176.2880  138.3120 C   0  0  1  0  0  3  0  0  0  0  0  0
  181.1240  175.6740  137.9120 C   0  0  0  0  0  0  0  0  0  0  0  0
  185.8140  178.3910  145.5980 N   0  0  0  0  0  2  0  0  0  0  0  0
  187.1510  178.0660  145.3280 N   0  0  0  0  0  2  0  0  0  0  0  0
  187.7400  177.6070  146.5750 C   0  0  0  0  0  2  0  0  0  0  0  0
  189.2390  177.8570  146.5690 C   0  0  1  0  0  3  0  0  0  0  0  0
  189.9910  176.6470  147.0740 C   0  0  0  0  0  2  0  0  0  0  0  0
  191.3320  176.6900  146.3740 C   0  0  0  0  0  2  0  0  0  0  0  0
  189.7240  178.0660  145.1530 C   0  0  0  0  0  2  0  0  0  0  0  0
  191.1220  177.4760  145.0900 C   0  0  2  0  0  3  0  0  0  0  0  0
  191.9950  177.1100  142.5650 O   0  0  0  0  0  0  0  0  0  0  0  0
  191.2690  176.4010  143.6750 S   0  0  0  0  0  0  0  0  0  0  0  0
  192.0310  175.1650  144.0590 O   0  0  0  0  0  0  0  0  0  0  0  0
  189.6930  175.9510  143.1300 N   0  0  0  0  0  1  0  0  0  0  0  0
  1  2  1  0  0  0  0
  3  6  1  0  0  0  0
  4  5  1  0  0  0  0
  4  3  2  0  0  0  0
  5  1  2  0  0  0  0
  6  2  2  0  0  0  0
  6 21  1  0  0  0  0
  7  9  1  0  0  0  0
  8 10  2  0  0  0  0
  9  4  1  1  0  0  0
 10  7  1  0  0  0  0
 10  9  1  0  0  0  0
 11 13  1  0  0  0  0
 12  7  1  6  0  0  0
 12 17  1  0  0  0  0
 13 17  2  0  0  0  0
 14 18  1  0  0  0  0
 14 16  1  0  0  0  0
 16 15  2  0  0  0  0
 18 20  1  0  0  0  0
 19 15  1  1  0  0  0
 19 12  1  0  0  0  0
 20 19  1  0  0  0  0
 20 11  2  0  0  0  0
 22 21  1  0  0  0  0
 22 23  1  0  0  0  0
 24 23  1  6  0  0  0
 24 25  1  0  0  0  0
 26 25  1  0  0  0  0
 27 24  1  0  0  0  0
 28 30  1  6  0  0  0
 28 27  1  0  0  0  0
 28 26  1  0  0  0  0
 29 30  2  0  0  0  0
 30 31  2  0  0  0  0
 32 30  1  0  0  0  0
M  END
>  <MODEL>
3

>  <REMARK>
 VINA RESULT:      -8.7      3.463      7.524
  Name = 
  7 active torsions:
  status: ('A' for Active; 'I' for Inactive)
    1  A    between atoms: C_1  and  N_8
    2  A    between atoms: C_1  and  C_12
    3  A    between atoms: N_3  and  C_9
    4  A    between atoms: CA_7  and  C_13
    5  A    between atoms: N_8  and  N_32
    6  A    between atoms: S_16  and  C_29
    7  A    between atoms: C_18  and  N_32
                            x       y       z     vdW  Elec       q    Type
                         _______ _______ _______ _____ _____    ______ ____

>  <TORSDO>
F 7

$$$$
=
 OpenBabel11062412433D

 32 36  0  0  1  0  0  0  0  0999 V2000
  187.9560  178.9240  140.9050 C   0  0  0  0  0  3  0  0  0  0  0  0
  189.0830  178.2530  140.4250 C   0  0  0  0  0  3  0  0  0  0  0  0
  188.8260  176.6360  142.1980 C   0  0  0  0  0  3  0  0  0  0  0  0
  187.7160  177.3430  142.6670 C   0  0  0  0  0  0  0  0  0  0  0  0
  187.2980  178.4570  142.0010 N   0  0  0  0  0  0  0  0  0  0  0  0
  189.5190  177.0970  141.0750 C   0  0  0  0  0  0  0  0  0  0  0  0
  187.3020  177.5600  144.9970 N   0  0  0  0  0  0  0  0  0  0  0  0
  184.8520  178.2730  144.1070 O   0  0  0  0  0  0  0  0  0  0  0  0
  186.9620  176.8270  143.8570 C   0  0  1  0  0  3  0  0  0  0  0  0
  185.9720  177.7180  144.2570 C   0  0  0  0  0  0  0  0  0  0  0  0
  189.5000  177.7860  148.5300 N   0  0  0  0  0  0  0  0  0  0  0  0
  188.2530  178.0120  146.0000 C   0  0  1  0  0  3  0  0  0  0  0  0
  188.1470  178.2580  148.4500 C   0  0  0  0  0  3  0  0  0  0  0  0
  192.0520  175.9980  146.5610 C   0  0  0  0  0  2  0  0  0  0  0  0
  190.3230  176.9560  145.0760 C   0  0  0  0  0  3  0  0  0  0  0  0
  191.5810  176.5110  145.2260 C   0  0  0  0  0  3  0  0  0  0  0  0
  187.5230  178.3360  147.2730 C   0  0  0  0  0  3  0  0  0  0  0  0
  191.4460  176.7730  147.6420 N   0  0  0  0  0  2  0  0  0  0  0  0
  189.3480  176.9590  146.2260 C   0  0  1  0  0  3  0  0  0  0  0  0
  190.0910  177.2170  147.5220 C   0  0  0  0  0  0  0  0  0  0  0  0
  190.6700  176.4030  140.5930 N   0  0  0  0  0  2  0  0  0  0  0  0
  190.7670  176.0020  139.2530 N   0  0  0  0  0  2  0  0  0  0  0  0
  191.8930  176.7160  138.6730 C   0  0  0  0  0  2  0  0  0  0  0  0
  192.4470  175.9450  137.4870 C   0  0  1  0  0  3  0  0  0  0  0  0
  193.5920  176.6920  136.8430 C   0  0  0  0  0  2  0  0  0  0  0  0
  194.4810  175.6220  136.2470 C   0  0  0  0  0  2  0  0  0  0  0  0
  193.0350  174.6320  137.9500 C   0  0  0  0  0  2  0  0  0  0  0  0
  194.2210  174.3540  137.0430 C   0  0  2  0  0  3  0  0  0  0  0  0
  196.8830  173.9400  137.1570 O   0  0  0  0  0  0  0  0  0  0  0  0
  195.6520  173.9310  138.0190 S   0  0  0  0  0  0  0  0  0  0  0  0
  195.8150  174.9280  139.1310 O   0  0  0  0  0  0  0  0  0  0  0  0
  195.4400  172.3550  138.6950 N   0  0  0  0  0  1  0  0  0  0  0  0
  1  5  1  0  0  0  0
  2  1  2  0  0  0  0
  2  6  1  0  0  0  0
  3  4  1  0  0  0  0
  5  4  2  0  0  0  0
  6  3  2  0  0  0  0
  8 10  2  0  0  0  0
  9  4  1  6  0  0  0
  9 10  1  0  0  0  0
  9  7  1  0  0  0  0
 10  7  1  0  0  0  0
 12  7  1  6  0  0  0
 12 19  1  0  0  0  0
 12 17  1  0  0  0  0
 13 11  1  0  0  0  0
 14 18  1  0  0  0  0
 15 16  2  0  0  0  0
 16 14  1  0  0  0  0
 17 13  2  0  0  0  0
 19 15  1  6  0  0  0
 19 20  1  0  0  0  0
 20 18  1  0  0  0  0
 20 11  2  0  0  0  0
 21  6  1  0  0  0  0
 22 21  1  0  0  0  0
 23 22  1  0  0  0  0
 24 27  1  0  0  0  0
 24 23  1  1  0  0  0
 25 24  1  0  0  0  0
 26 25  1  0  0  0  0
 26 28  1  0  0  0  0
 28 27  1  0  0  0  0
 28 30  1  1  0  0  0
 29 30  2  0  0  0  0
 30 32  1  0  0  0  0
 30 31  2  0  0  0  0
M  END
>  <MODEL>
4

>  <REMARK>
 VINA RESULT:      -8.6      4.190      8.985
  Name = 
  7 active torsions:
  status: ('A' for Active; 'I' for Inactive)
    1  A    between atoms: C_1  and  N_8
    2  A    between atoms: C_1  and  C_12
    3  A    between atoms: N_3  and  C_9
    4  A    between atoms: CA_7  and  C_13
    5  A    between atoms: N_8  and  N_32
    6  A    between atoms: S_16  and  C_29
    7  A    between atoms: C_18  and  N_32
                            x       y       z     vdW  Elec       q    Type
                         _______ _______ _______ _____ _____    ______ ____

>  <TORSDO>
F 7

$$$$
=
 OpenBabel11062412433D

 32 36  0  0  1  0  0  0  0  0999 V2000
  190.1520  176.3700  141.7610 C   0  0  0  0  0  3  0  0  0  0  0  0
  189.9480  177.3010  140.7400 C   0  0  0  0  0  3  0  0  0  0  0  0
  187.8270  177.8730  141.7390 C   0  0  0  0  0  3  0  0  0  0  0  0
  188.0500  176.9160  142.7330 C   0  0  0  0  0  0  0  0  0  0  0  0
  189.2110  176.2030  142.7300 N   0  0  0  0  0  0  0  0  0  0  0  0
  188.7780  178.0620  140.7310 C   0  0  0  0  0  0  0  0  0  0  0  0
  187.3190  177.6040  144.8870 N   0  0  0  0  0  0  0  0  0  0  0  0
  185.2090  178.5090  143.4620 O   0  0  0  0  0  0  0  0  0  0  0  0
  187.0370  176.7390  143.8260 C   0  0  1  0  0  3  0  0  0  0  0  0
  186.1720  177.8270  143.8980 C   0  0  0  0  0  0  0  0  0  0  0  0
  189.2190  177.8560  148.5870 N   0  0  0  0  0  0  0  0  0  0  0  0
  188.1650  178.0780  145.9710 C   0  0  1  0  0  3  0  0  0  0  0  0
  187.8550  178.2650  148.4080 C   0  0  0  0  0  3  0  0  0  0  0  0
  192.0010  176.2320  146.7960 C   0  0  0  0  0  2  0  0  0  0  0  0
  190.3500  177.1400  145.1950 C   0  0  0  0  0  3  0  0  0  0  0  0
  191.6130  176.7510  145.4370 C   0  0  0  0  0  3  0  0  0  0  0  0
  187.3220  178.3390  147.1870 C   0  0  0  0  0  3  0  0  0  0  0  0
  191.2750  176.9550  147.8390 N   0  0  0  0  0  2  0  0  0  0  0  0
  189.2890  177.0730  146.2640 C   0  0  1  0  0  3  0  0  0  0  0  0
  189.9140  177.3370  147.6190 C   0  0  0  0  0  0  0  0  0  0  0  0
  188.5590  179.0170  139.6930 N   0  0  0  0  0  2  0  0  0  0  0  0
  188.7160  178.6700  138.3440 N   0  0  0  0  0  2  0  0  0  0  0  0
  187.5650  177.8640  137.9710 C   0  0  0  0  0  2  0  0  0  0  0  0
  187.8950  177.0050  136.7620 C   0  0  1  0  0  3  0  0  0  0  0  0
  188.9230  177.6800  135.8830 C   0  0  0  0  0  2  0  0  0  0  0  0
  189.6810  176.5520  135.2180 C   0  0  0  0  0  2  0  0  0  0  0  0
  188.5360  175.7110  137.2060 C   0  0  0  0  0  2  0  0  0  0  0  0
  189.5440  175.3450  136.1300 C   0  0  2  0  0  3  0  0  0  0  0  0
  192.1330  175.9940  136.5110 O   0  0  0  0  0  0  0  0  0  0  0  0
  191.1160  174.9490  136.8730 S   0  0  0  0  0  0  0  0  0  0  0  0
  190.9660  174.8950  138.3670 O   0  0  0  0  0  0  0  0  0  0  0  0
  191.6500  173.4090  136.2990 N   0  0  0  0  0  1  0  0  0  0  0  0
  1  5  1  0  0  0  0
  2  1  2  0  0  0  0
  3  4  1  0  0  0  0
  5  4  2  0  0  0  0
  6  2  1  0  0  0  0
  6  3  2  0  0  0  0
  8 10  2  0  0  0  0
  9  4  1  6  0  0  0
  9 10  1  0  0  0  0
  9  7  1  0  0  0  0
 10  7  1  0  0  0  0
 12  7  1  6  0  0  0
 12 19  1  0  0  0  0
 12 17  1  0  0  0  0
 13 11  1  0  0  0  0
 14 18  1  0  0  0  0
 15 16  2  0  0  0  0
 16 14  1  0  0  0  0
 17 13  2  0  0  0  0
 19 15  1  6  0  0  0
 19 20  1  0  0  0  0
 20 18  1  0  0  0  0
 20 11  2  0  0  0  0
 21  6  1  0  0  0  0
 22 21  1  0  0  0  0
 23 22  1  0  0  0  0
 24 27  1  0  0  0  0
 24 23  1  1  0  0  0
 25 24  1  0  0  0  0
 26 25  1  0  0  0  0
 26 28  1  0  0  0  0
 28 30  1  1  0  0  0
 28 27  1  0  0  0  0
 29 30  2  0  0  0  0
 30 31  2  0  0  0  0
 32 30  1  0  0  0  0
M  END
>  <MODEL>
5

>  <REMARK>
 VINA RESULT:      -8.6      3.311      7.338
  Name = 
  7 active torsions:
  status: ('A' for Active; 'I' for Inactive)
    1  A    between atoms: C_1  and  N_8
    2  A    between atoms: C_1  and  C_12
    3  A    between atoms: N_3  and  C_9
    4  A    between atoms: CA_7  and  C_13
    5  A    between atoms: N_8  and  N_32
    6  A    between atoms: S_16  and  C_29
    7  A    between atoms: C_18  and  N_32
                            x       y       z     vdW  Elec       q    Type
                         _______ _______ _______ _____ _____    ______ ____

>  <TORSDO>
F 7

$$$$
=
 OpenBabel11062412433D

 32 36  0  0  1  0  0  0  0  0999 V2000
  188.7350  177.9820  141.7530 C   0  0  0  0  0  3  0  0  0  0  0  0
  187.8760  178.6280  140.8610 C   0  0  0  0  0  3  0  0  0  0  0  0
  186.0570  178.2490  142.4010 C   0  0  0  0  0  3  0  0  0  0  0  0
  186.9380  177.5870  143.2610 C   0  0  0  0  0  0  0  0  0  0  0  0
  188.2550  177.4850  142.9260 N   0  0  0  0  0  0  0  0  0  0  0  0
  186.5270  178.7670  141.1900 C   0  0  0  0  0  0  0  0  0  0  0  0
  187.0160  177.7590  145.6300 N   0  0  0  0  0  0  0  0  0  0  0  0
  184.4530  178.5400  145.2750 O   0  0  0  0  0  0  0  0  0  0  0  0
  186.4310  177.0580  144.5710 C   0  0  1  0  0  3  0  0  0  0  0  0
  185.5660  177.9600  145.1820 C   0  0  0  0  0  0  0  0  0  0  0  0
  189.8920  177.8650  148.6430 N   0  0  0  0  0  0  0  0  0  0  0  0
  188.1630  178.1690  146.4240 C   0  0  1  0  0  3  0  0  0  0  0  0
  188.5640  178.3690  148.8470 C   0  0  0  0  0  3  0  0  0  0  0  0
  191.9410  176.0570  146.1700 C   0  0  0  0  0  2  0  0  0  0  0  0
  189.9720  177.0830  145.0820 C   0  0  0  0  0  3  0  0  0  0  0  0
  191.2220  176.6060  144.9660 C   0  0  0  0  0  3  0  0  0  0  0  0
  187.7160  178.4850  147.8240 C   0  0  0  0  0  3  0  0  0  0  0  0
  191.5890  176.8250  147.3620 N   0  0  0  0  0  2  0  0  0  0  0  0
  189.2520  177.0870  146.4070 C   0  0  1  0  0  3  0  0  0  0  0  0
  190.2500  177.3020  147.5270 C   0  0  0  0  0  0  0  0  0  0  0  0
  185.6390  179.4260  140.2870 N   0  0  0  0  0  2  0  0  0  0  0  0
  184.2500  179.3650  140.4610 N   0  0  0  0  0  2  0  0  0  0  0  0
  183.6500  179.3840  139.1370 C   0  0  0  0  0  2  0  0  0  0  0  0
  182.2320  178.8420  139.1970 C   0  0  1  0  0  3  0  0  0  0  0  0
  182.1800  177.5430  139.9680 C   0  0  0  0  0  2  0  0  0  0  0  0
  180.7960  177.4970  140.5780 C   0  0  0  0  0  2  0  0  0  0  0  0
  181.3440  179.7970  139.9610 C   0  0  0  0  0  2  0  0  0  0  0  0
  180.3290  178.9380  140.6950 C   0  0  2  0  0  3  0  0  0  0  0  0
  181.5830  179.2380  143.0640 O   0  0  0  0  0  0  0  0  0  0  0  0
  180.2430  179.4240  142.4090 S   0  0  0  0  0  0  0  0  0  0  0  0
  179.8390  180.8680  142.5020 O   0  0  0  0  0  0  0  0  0  0  0  0
  179.0700  178.4520  143.2220 N   0  0  0  0  0  1  0  0  0  0  0  0
  1  5  1  0  0  0  0
  2  6  1  0  0  0  0
  2  1  2  0  0  0  0
  3  4  1  0  0  0  0
  5  4  2  0  0  0  0
  6  3  2  0  0  0  0
  9  4  1  6  0  0  0
  9 10  1  0  0  0  0
  9  7  1  0  0  0  0
 10  8  2  0  0  0  0
 10  7  1  0  0  0  0
 11 13  1  0  0  0  0
 12  7  1  6  0  0  0
 12 17  1  0  0  0  0
 14 18  1  0  0  0  0
 16 15  2  0  0  0  0
 16 14  1  0  0  0  0
 17 13  2  0  0  0  0
 18 20  1  0  0  0  0
 19 15  1  6  0  0  0
 19 12  1  0  0  0  0
 19 20  1  0  0  0  0
 20 11  2  0  0  0  0
 21 22  1  0  0  0  0
 21  6  1  0  0  0  0
 23 22  1  0  0  0  0
 24 23  1  1  0  0  0
 24 27  1  0  0  0  0
 24 25  1  0  0  0  0
 25 26  1  0  0  0  0
 26 28  1  0  0  0  0
 27 28  1  0  0  0  0
 28 30  1  1  0  0  0
 30 31  2  0  0  0  0
 30 29  2  0  0  0  0
 30 32  1  0  0  0  0
M  END
>  <MODEL>
6

>  <REMARK>
 VINA RESULT:      -8.5      2.839      5.683
  Name = 
  7 active torsions:
  status: ('A' for Active; 'I' for Inactive)
    1  A    between atoms: C_1  and  N_8
    2  A    between atoms: C_1  and  C_12
    3  A    between atoms: N_3  and  C_9
    4  A    between atoms: CA_7  and  C_13
    5  A    between atoms: N_8  and  N_32
    6  A    between atoms: S_16  and  C_29
    7  A    between atoms: C_18  and  N_32
                            x       y       z     vdW  Elec       q    Type
                         _______ _______ _______ _____ _____    ______ ____

>  <TORSDO>
F 7

$$$$
=
 OpenBabel11062412433D

 32 36  0  0  1  0  0  0  0  0999 V2000
  184.4320  178.3710  142.0470 C   0  0  0  0  0  3  0  0  0  0  0  0
  185.1340  178.2210  143.2450 C   0  0  0  0  0  3  0  0  0  0  0  0
  183.1420  178.8630  144.4460 C   0  0  0  0  0  3  0  0  0  0  0  0
  182.4740  179.0270  143.2300 C   0  0  0  0  0  0  0  0  0  0  0  0
  183.1280  178.7610  142.0640 N   0  0  0  0  0  0  0  0  0  0  0  0
  184.4820  178.4650  144.4550 C   0  0  0  0  0  0  0  0  0  0  0  0
  180.3730  178.8640  142.1330 N   0  0  0  0  0  0  0  0  0  0  0  0
  179.7200  177.5540  144.4040 O   0  0  0  0  0  0  0  0  0  0  0  0
  181.0280  179.4280  143.2300 C   0  0  1  0  0  3  0  0  0  0  0  0
  180.2050  178.3590  143.5680 C   0  0  0  0  0  0  0  0  0  0  0  0
  181.1220  178.4060  138.0590 N   0  0  0  0  0  0  0  0  0  0  0  0
  180.1600  178.7040  140.7030 C   0  0  1  0  0  3  0  0  0  0  0  0
  181.2260  179.6810  138.7090 C   0  0  0  0  0  3  0  0  0  0  0  0
  180.5730  174.8350  138.7890 C   0  0  0  0  0  2  0  0  0  0  0  0
  179.7400  176.2390  140.6470 C   0  0  0  0  0  3  0  0  0  0  0  0
  179.6860  175.0730  139.9830 C   0  0  0  0  0  3  0  0  0  0  0  0
  180.8170  179.8390  139.9690 C   0  0  0  0  0  3  0  0  0  0  0  0
  180.7340  176.0710  138.0270 N   0  0  0  0  0  2  0  0  0  0  0  0
  180.6790  177.3410  140.2240 C   0  0  1  0  0  3  0  0  0  0  0  0
  180.8410  177.3200  138.7170 C   0  0  0  0  0  0  0  0  0  0  0  0
  185.1900  178.3140  145.6860 N   0  0  0  0  0  2  0  0  0  0  0  0
  186.5310  178.7040  145.8030 N   0  0  0  0  0  2  0  0  0  0  0  0
  187.2760  177.5440  146.2640 C   0  0  0  0  0  2  0  0  0  0  0  0
  188.7560  177.8730  146.3520 C   0  0  1  0  0  3  0  0  0  0  0  0
  189.5300  176.7270  146.9620 C   0  0  0  0  0  2  0  0  0  0  0  0
  190.9140  176.8130  146.3570 C   0  0  0  0  0  2  0  0  0  0  0  0
  189.3310  178.0500  144.9660 C   0  0  0  0  0  2  0  0  0  0  0  0
  190.7580  177.5330  145.0280 C   0  0  2  0  0  3  0  0  0  0  0  0
  191.9830  175.3100  144.1180 O   0  0  0  0  0  0  0  0  0  0  0  0
  191.0610  176.4110  143.6750 S   0  0  0  0  0  0  0  0  0  0  0  0
  189.7610  175.8170  143.2130 O   0  0  0  0  0  0  0  0  0  0  0  0
  191.7890  177.2730  142.3670 N   0  0  0  0  0  1  0  0  0  0  0  0
  1  5  2  0  0  0  0
  1  2  1  0  0  0  0
  2  6  2  0  0  0  0
  3  6  1  0  0  0  0
  4  3  2  0  0  0  0
  5  4  1  0  0  0  0
  6 21  1  0  0  0  0
  7  9  1  0  0  0  0
  7 10  1  0  0  0  0
  9  4  1  6  0  0  0
  9 10  1  0  0  0  0
 10  8  2  0  0  0  0
 11 13  1  0  0  0  0
 11 20  2  0  0  0  0
 12 17  1  6  0  0  0
 12  7  1  0  0  0  0
 13 17  2  0  0  0  0
 14 16  1  0  0  0  0
 16 15  2  0  0  0  0
 18 20  1  0  0  0  0
 18 14  1  0  0  0  0
 19 15  1  6  0  0  0
 19 12  1  0  0  0  0
 20 19  1  0  0  0  0
 21 22  1  0  0  0  0
 22 23  1  0  0  0  0
 24 23  1  6  0  0  0
 24 25  1  0  0  0  0
 26 25  1  0  0  0  0
 27 28  1  0  0  0  0
 27 24  1  0  0  0  0
 28 30  1  6  0  0  0
 28 26  1  0  0  0  0
 30 29  2  0  0  0  0
 31 30  2  0  0  0  0
 32 30  1  0  0  0  0
M  END
>  <MODEL>
7

>  <REMARK>
 VINA RESULT:      -8.5      3.905      8.305
  Name = 
  7 active torsions:
  status: ('A' for Active; 'I' for Inactive)
    1  A    between atoms: C_1  and  N_8
    2  A    between atoms: C_1  and  C_12
    3  A    between atoms: N_3  and  C_9
    4  A    between atoms: CA_7  and  C_13
    5  A    between atoms: N_8  and  N_32
    6  A    between atoms: S_16  and  C_29
    7  A    between atoms: C_18  and  N_32
                            x       y       z     vdW  Elec       q    Type
                         _______ _______ _______ _____ _____    ______ ____

>  <TORSDO>
F 7

$$$$
=
 OpenBabel11062412433D

 32 36  0  0  1  0  0  0  0  0999 V2000
  187.9320  179.0020  140.9870 C   0  0  0  0  0  3  0  0  0  0  0  0
  189.0100  178.3020  140.4400 C   0  0  0  0  0  3  0  0  0  0  0  0
  188.7380  176.6240  142.1530 C   0  0  0  0  0  3  0  0  0  0  0  0
  187.6780  177.3600  142.6900 C   0  0  0  0  0  0  0  0  0  0  0  0
  187.2900  178.5180  142.0860 N   0  0  0  0  0  0  0  0  0  0  0  0
  189.4130  177.1010  141.0250 C   0  0  0  0  0  0  0  0  0  0  0  0
  187.2870  177.5560  145.0250 N   0  0  0  0  0  0  0  0  0  0  0  0
  184.8210  178.2510  144.1670 O   0  0  0  0  0  0  0  0  0  0  0  0
  186.9420  176.8270  143.8840 C   0  0  1  0  0  3  0  0  0  0  0  0
  185.9470  177.7060  144.3010 C   0  0  0  0  0  0  0  0  0  0  0  0
  189.5110  177.7840  148.5420 N   0  0  0  0  0  0  0  0  0  0  0  0
  188.2430  178.0100  146.0220 C   0  0  1  0  0  3  0  0  0  0  0  0
  188.1560  178.2500  148.4730 C   0  0  0  0  0  3  0  0  0  0  0  0
  192.0550  176.0100  146.5500 C   0  0  0  0  0  2  0  0  0  0  0  0
  190.3110  176.9640  145.0790 C   0  0  0  0  0  3  0  0  0  0  0  0
  191.5720  176.5240  145.2190 C   0  0  0  0  0  3  0  0  0  0  0  0
  187.5220  178.3280  147.3010 C   0  0  0  0  0  3  0  0  0  0  0  0
  191.4550  176.7810  147.6360 N   0  0  0  0  0  2  0  0  0  0  0  0
  189.3450  176.9610  146.2370 C   0  0  1  0  0  3  0  0  0  0  0  0
  190.0970  177.2190  147.5270 C   0  0  0  0  0  0  0  0  0  0  0  0
  190.5140  176.3770  140.4750 N   0  0  0  0  0  2  0  0  0  0  0  0
  191.1420  176.8000  139.2950 N   0  0  0  0  0  2  0  0  0  0  0  0
  191.2150  175.6480  138.4110 C   0  0  0  0  0  2  0  0  0  0  0  0
  190.8420  176.0500  136.9940 C   0  0  1  0  0  3  0  0  0  0  0  0
  189.8220  175.0990  136.4120 C   0  0  0  0  0  2  0  0  0  0  0  0
  189.0220  175.9250  135.4290 C   0  0  0  0  0  2  0  0  0  0  0  0
  190.1690  177.4040  137.0000 C   0  0  0  0  0  2  0  0  0  0  0  0
  189.1360  177.3690  135.8880 C   0  0  2  0  0  3  0  0  0  0  0  0
  187.6900  179.3760  136.9610 O   0  0  0  0  0  0  0  0  0  0  0  0
  187.5640  177.9530  136.4940 S   0  0  0  0  0  0  0  0  0  0  0  0
  186.5410  177.8760  135.3970 O   0  0  0  0  0  0  0  0  0  0  0  0
  187.0550  176.9630  137.8150 N   0  0  0  0  0  1  0  0  0  0  0  0
  1  5  1  0  0  0  0
  2  1  2  0  0  0  0
  2  6  1  0  0  0  0
  3  4  1  0  0  0  0
  5  4  2  0  0  0  0
  6  3  2  0  0  0  0
  8 10  2  0  0  0  0
  9  4  1  6  0  0  0
  9 10  1  0  0  0  0
  9  7  1  0  0  0  0
 10  7  1  0  0  0  0
 12  7  1  6  0  0  0
 12 19  1  0  0  0  0
 12 17  1  0  0  0  0
 13 11  1  0  0  0  0
 14 18  1  0  0  0  0
 15 16  2  0  0  0  0
 16 14  1  0  0  0  0
 17 13  2  0  0  0  0
 19 15  1  6  0  0  0
 19 20  1  0  0  0  0
 20 18  1  0  0  0  0
 20 11  2  0  0  0  0
 21  6  1  0  0  0  0
 22 21  1  0  0  0  0
 23 22  1  0  0  0  0
 24 27  1  0  0  0  0
 24 23  1  1  0  0  0
 25 24  1  0  0  0  0
 26 28  1  0  0  0  0
 26 25  1  0  0  0  0
 28 30  1  1  0  0  0
 28 27  1  0  0  0  0
 30 29  2  0  0  0  0
 30 32  1  0  0  0  0
 31 30  2  0  0  0  0
M  END
>  <MODEL>
8

>  <REMARK>
 VINA RESULT:      -8.5      3.002      7.023
  Name = 
  7 active torsions:
  status: ('A' for Active; 'I' for Inactive)
    1  A    between atoms: C_1  and  N_8
    2  A    between atoms: C_1  and  C_12
    3  A    between atoms: N_3  and  C_9
    4  A    between atoms: CA_7  and  C_13
    5  A    between atoms: N_8  and  N_32
    6  A    between atoms: S_16  and  C_29
    7  A    between atoms: C_18  and  N_32
                            x       y       z     vdW  Elec       q    Type
                         _______ _______ _______ _____ _____    ______ ____

>  <TORSDO>
F 7

$$$$
=
 OpenBabel11062412433D

 32 36  0  0  1  0  0  0  0  0999 V2000
  185.9270  178.6640  140.3550 C   0  0  0  0  0  3  0  0  0  0  0  0
  186.8040  178.6860  141.4410 C   0  0  0  0  0  3  0  0  0  0  0  0
  188.6380  178.3130  139.9180 C   0  0  0  0  0  3  0  0  0  0  0  0
  187.7310  178.2710  138.8550 C   0  0  0  0  0  0  0  0  0  0  0  0
  186.4040  178.4650  139.0960 N   0  0  0  0  0  0  0  0  0  0  0  0
  188.1710  178.5140  141.2200 C   0  0  0  0  0  0  0  0  0  0  0  0
  188.5530  176.7370  137.2370 N   0  0  0  0  0  0  0  0  0  0  0  0
  186.2410  177.3910  136.0010 O   0  0  0  0  0  0  0  0  0  0  0  0
  188.2430  178.0820  137.4570 C   0  0  1  0  0  3  0  0  0  0  0  0
  187.3120  177.4230  136.6600 C   0  0  0  0  0  0  0  0  0  0  0  0
  190.9050  173.3460  136.6600 N   0  0  0  0  0  0  0  0  0  0  0  0
  189.3220  175.5330  137.5070 C   0  0  1  0  0  3  0  0  0  0  0  0
  189.4960  173.3440  136.3900 C   0  0  0  0  0  3  0  0  0  0  0  0
  193.6570  175.6110  137.6000 C   0  0  0  0  0  2  0  0  0  0  0  0
  191.4740  176.5970  138.2110 C   0  0  0  0  0  3  0  0  0  0  0  0
  192.7990  176.5390  138.4190 C   0  0  0  0  0  3  0  0  0  0  0  0
  188.7340  174.3800  136.7440 C   0  0  0  0  0  3  0  0  0  0  0  0
  192.9340  174.3730  137.3170 N   0  0  0  0  0  2  0  0  0  0  0  0
  190.8040  175.7450  137.1630 C   0  0  1  0  0  3  0  0  0  0  0  0
  191.5290  174.4190  137.0470 C   0  0  0  0  0  0  0  0  0  0  0  0
  189.0780  178.5360  142.3230 N   0  0  0  0  0  2  0  0  0  0  0  0
  189.2920  177.3950  143.1080 N   0  0  0  0  0  2  0  0  0  0  0  0
  189.7050  177.8510  144.4250 C   0  0  0  0  0  2  0  0  0  0  0  0
  188.8660  177.1780  145.4990 C   0  0  1  0  0  3  0  0  0  0  0  0
  189.0180  177.8850  146.8260 C   0  0  0  0  0  2  0  0  0  0  0  0
  187.7070  177.6620  147.5480 C   0  0  0  0  0  2  0  0  0  0  0  0
  187.3990  177.2840  145.1540 C   0  0  0  0  0  2  0  0  0  0  0  0
  186.6600  177.4160  146.4740 C   0  0  2  0  0  3  0  0  0  0  0  0
  184.1480  178.3300  146.8310 O   0  0  0  0  0  0  0  0  0  0  0  0
  185.5160  178.7820  146.4000 S   0  0  0  0  0  0  0  0  0  0  0  0
  185.9860  179.8820  147.3080 O   0  0  0  0  0  0  0  0  0  0  0  0
  185.4360  179.3770  144.7810 N   0  0  0  0  0  1  0  0  0  0  0  0
  1  2  1  0  0  0  0
  3  6  1  0  0  0  0
  4  5  1  0  0  0  0
  4  3  2  0  0  0  0
  5  1  2  0  0  0  0
  6  2  2  0  0  0  0
  6 21  1  0  0  0  0
  7  9  1  0  0  0  0
  7 12  1  0  0  0  0
  8 10  2  0  0  0  0
  9  4  1  1  0  0  0
 10  7  1  0  0  0  0
 10  9  1  0  0  0  0
 11 20  2  0  0  0  0
 12 17  1  6  0  0  0
 13 11  1  0  0  0  0
 13 17  2  0  0  0  0
 14 16  1  0  0  0  0
 15 16  2  0  0  0  0
 18 14  1  0  0  0  0
 19 12  1  0  0  0  0
 19 15  1  1  0  0  0
 20 19  1  0  0  0  0
 20 18  1  0  0  0  0
 21 22  1  0  0  0  0
 22 23  1  0  0  0  0
 24 23  1  6  0  0  0
 24 25  1  0  0  0  0
 25 26  1  0  0  0  0
 27 24  1  0  0  0  0
 27 28  1  0  0  0  0
 28 30  1  6  0  0  0
 28 26  1  0  0  0  0
 30 29  2  0  0  0  0
 30 31  2  0  0  0  0
 32 30  1  0  0  0  0
M  END
>  <MODEL>
9

>  <REMARK>
 VINA RESULT:      -8.5      3.082      6.269
  Name = 
  7 active torsions:
  status: ('A' for Active; 'I' for Inactive)
    1  A    between atoms: C_1  and  N_8
    2  A    between atoms: C_1  and  C_12
    3  A    between atoms: N_3  and  C_9
    4  A    between atoms: CA_7  and  C_13
    5  A    between atoms: N_8  and  N_32
    6  A    between atoms: S_16  and  C_29
    7  A    between atoms: C_18  and  N_32
                            x       y       z     vdW  Elec       q    Type
                         _______ _______ _______ _____ _____    ______ ____

>  <TORSDO>
F 7

$$$$
