=
 OpenBabel11062414313D

 31 34  0  0  1  0  0  0  0  0999 V2000
  185.9040  178.2620  138.1960 N   0  0  0  0  0  0  0  0  0  0  0  0
  184.7970  180.5360  144.4570 O   0  0  0  0  0  0  0  0  0  0  0  0
  185.4700  179.0030  140.7920 C   0  0  1  0  0  3  0  0  0  0  0  0
  189.3850  177.2320  141.9450 C   0  0  0  0  0  2  0  0  0  0  0  0
  191.1250  177.6330  145.2480 C   0  0  0  0  0  2  0  0  0  0  0  0
  184.3650  178.3880  143.6390 N   0  0  0  0  0  2  0  0  0  0  0  0
  189.6050  176.8970  147.1670 C   0  0  0  0  0  3  0  0  0  0  0  0
  191.0130  176.9360  146.6140 C   0  0  0  0  0  2  0  0  0  0  0  0
  185.9760  178.4130  139.4790 C   0  0  0  0  0  0  0  0  0  0  0  0
  185.6030  178.7630  145.8300 C   0  0  1  0  0  3  0  0  0  0  0  0
  184.2160  178.2530  141.2030 C   0  0  0  0  0  2  0  0  0  0  0  0
  187.3600  177.5740  144.4470 C   0  0  0  0  0  2  0  0  0  0  0  0
  186.3450  177.4410  145.5890 C   0  0  1  0  0  3  0  0  0  0  0  0
  188.5550  177.3270  146.4540 C   0  0  0  0  0  0  0  0  0  0  0  0
  189.1120  178.1080  140.7340 C   0  0  0  0  0  2  0  0  0  0  0  0
  184.9170  179.2880  144.6060 C   0  0  0  0  0  0  0  0  0  0  0  0
  187.8810  178.9740  140.9620 C   0  0  0  0  0  2  0  0  0  0  0  0
  186.6110  178.1460  140.8410 C   0  0  1  0  0  3  0  0  0  0  0  0
  183.6340  178.8640  142.4730 C   0  0  1  0  0  3  0  0  0  0  0  0
  188.6850  177.9190  145.0990 C   0  0  1  0  0  3  0  0  0  0  0  0
  189.9040  177.3520  144.3720 C   0  0  1  0  0  3  0  0  0  0  0  0
  190.0840  178.0360  143.0280 C   0  0  0  0  0  2  0  0  0  0  0  0
  187.1470  177.0640  146.8340 C   0  0  0  0  0  2  0  0  0  0  0  0
  184.6620  178.6010  146.8490 O   0  0  0  0  0  1  0  0  0  0  0  0
  186.3980  176.2360  136.9030 O   0  0  0  0  0  0  0  0  0  0  0  0
  186.8160  177.4360  137.4710 C   0  0  0  0  0  0  0  0  0  0  0  0
  188.0140  177.8000  137.3390 O   0  0  0  0  0  1  0  0  0  0  0  0
  181.6860  178.8790  144.0590 C   0  0  0  0  0  1  0  0  0  0  0  0
  182.1380  178.5800  142.6380 C   0  0  1  0  0  3  0  0  0  0  0  0
  180.4190  180.2110  142.2970 O   0  0  0  0  0  1  0  0  0  0  0  0
  181.2850  179.3430  141.6290 C   0  0  0  0  0  2  0  0  0  0  0  0
  1  9  2  0  0  0  0
  2 16  2  0  0  0  0
  3 18  1  0  0  0  0
  3 11  1  1  0  0  0
  4 22  1  0  0  0  0
  5  8  1  0  0  0  0
  6 16  1  0  0  0  0
  8  7  1  0  0  0  0
  9  3  1  0  0  0  0
  9 18  1  0  0  0  0
 10 24  1  1  0  0  0
 11 19  1  0  0  0  0
 13 12  1  6  0  0  0
 13 10  1  0  0  0  0
 13 23  1  0  0  0  0
 14 23  1  0  0  0  0
 14  7  2  0  0  0  0
 15 17  1  0  0  0  0
 15  4  1  0  0  0  0
 16 10  1  0  0  0  0
 18 17  1  6  0  0  0
 19 29  1  1  0  0  0
 19  6  1  0  0  0  0
 20 12  1  6  0  0  0
 20 14  1  0  0  0  0
 21 22  1  6  0  0  0
 21 20  1  0  0  0  0
 21  5  1  0  0  0  0
 25 26  2  0  0  0  0
 26  1  1  0  0  0  0
 27 26  1  0  0  0  0
 29 28  1  1  0  0  0
 31 30  1  0  0  0  0
 31 29  1  0  0  0  0
M  END
>  <MODEL>
1

>  <REMARK>
 VINA RESULT:      -9.9      0.000      0.000
  Name = 
  3 active torsions:
  status: ('A' for Active; 'I' for Inactive)
    1  A    between atoms: N_1  and  C_22
    2  A    between atoms: C_21  and  C_28
    3  A    between atoms: C_28  and  C_30
                            x       y       z     vdW  Elec       q    Type
                         _______ _______ _______ _____ _____    ______ ____

>  <TORSDO>
F 3

$$$$
=
 OpenBabel11062414313D

 31 34  0  0  1  0  0  0  0  0999 V2000
  192.1040  176.4290  146.1250 N   0  0  0  0  0  0  0  0  0  0  0  0
  188.9860  179.8060  141.1780 O   0  0  0  0  0  0  0  0  0  0  0  0
  190.7200  177.6500  144.1070 C   0  0  1  0  0  3  0  0  0  0  0  0
  187.0030  177.4540  146.5450 C   0  0  0  0  0  2  0  0  0  0  0  0
  183.7530  179.1760  145.7940 C   0  0  0  0  0  2  0  0  0  0  0  0
  189.0110  177.4910  141.5080 N   0  0  0  0  0  2  0  0  0  0  0  0
  182.9120  178.5460  143.4630 C   0  0  0  0  0  3  0  0  0  0  0  0
  182.5450  178.8500  144.8990 C   0  0  0  0  0  2  0  0  0  0  0  0
  191.1780  176.9170  145.3650 C   0  0  0  0  0  0  0  0  0  0  0  0
  186.8490  178.7580  141.0670 C   0  0  1  0  0  3  0  0  0  0  0  0
  190.8350  176.6990  142.9300 C   0  0  0  0  0  2  0  0  0  0  0  0
  186.4280  177.8190  143.3810 C   0  0  0  0  0  2  0  0  0  0  0  0
  186.1070  177.6940  141.8870 C   0  0  1  0  0  3  0  0  0  0  0  0
  184.1890  178.4540  143.0660 C   0  0  0  0  0  0  0  0  0  0  0  0
  188.3810  177.8710  147.0310 C   0  0  0  0  0  2  0  0  0  0  0  0
  188.3340  178.7290  141.2650 C   0  0  0  0  0  0  0  0  0  0  0  0
  189.2330  178.3690  145.8720 C   0  0  0  0  0  2  0  0  0  0  0  0
  189.7180  177.2050  145.0220 C   0  0  1  0  0  3  0  0  0  0  0  0
  190.4590  177.4180  141.6390 C   0  0  1  0  0  3  0  0  0  0  0  0
  185.3390  178.6900  143.9750 C   0  0  1  0  0  3  0  0  0  0  0  0
  184.9740  178.3360  145.4160 C   0  0  1  0  0  3  0  0  0  0  0  0
  186.1230  178.6760  146.3510 C   0  0  0  0  0  2  0  0  0  0  0  0
  184.5980  177.8990  141.7540 C   0  0  0  0  0  2  0  0  0  0  0  0
  186.5650  178.5950  139.7090 O   0  0  0  0  0  1  0  0  0  0  0  0
  192.7620  175.6490  148.3560 O   0  0  0  0  0  1  0  0  0  0  0  0
  191.8100  175.7470  147.3460 C   0  0  0  0  0  0  0  0  0  0  0  0
  190.6730  175.2340  147.5120 O   0  0  0  0  0  0  0  0  0  0  0  0
  190.1110  176.8510  139.2170 C   0  0  0  0  0  1  0  0  0  0  0  0
  191.0670  176.7620  140.3950 C   0  0  1  0  0  3  0  0  0  0  0  0
  192.8770  176.8070  138.8270 O   0  0  0  0  0  1  0  0  0  0  0  0
  192.4270  177.3530  140.0310 C   0  0  0  0  0  2  0  0  0  0  0  0
  1 26  1  0  0  0  0
  2 16  2  0  0  0  0
  3 11  1  6  0  0  0
  3 18  1  0  0  0  0
  3  9  1  0  0  0  0
  4 15  1  0  0  0  0
  6 19  1  0  0  0  0
  7  8  1  0  0  0  0
  8  5  1  0  0  0  0
  9  1  2  0  0  0  0
 10 24  1  6  0  0  0
 10 16  1  0  0  0  0
 10 13  1  0  0  0  0
 13 23  1  1  0  0  0
 13 12  1  0  0  0  0
 14  7  2  0  0  0  0
 14 20  1  0  0  0  0
 16  6  1  0  0  0  0
 17 15  1  0  0  0  0
 18  9  1  0  0  0  0
 18 17  1  1  0  0  0
 19 29  1  6  0  0  0
 19 11  1  0  0  0  0
 20 12  1  6  0  0  0
 20 21  1  0  0  0  0
 21  5  1  1  0  0  0
 21 22  1  0  0  0  0
 22  4  1  0  0  0  0
 23 14  1  0  0  0  0
 26 27  2  0  0  0  0
 26 25  1  0  0  0  0
 29 28  1  6  0  0  0
 30 31  1  0  0  0  0
 31 29  1  0  0  0  0
M  END
>  <MODEL>
2

>  <REMARK>
 VINA RESULT:      -8.6      3.196      7.707
  Name = 
  3 active torsions:
  status: ('A' for Active; 'I' for Inactive)
    1  A    between atoms: N_1  and  C_22
    2  A    between atoms: C_21  and  C_28
    3  A    between atoms: C_28  and  C_30
                            x       y       z     vdW  Elec       q    Type
                         _______ _______ _______ _____ _____    ______ ____

>  <TORSDO>
F 3

$$$$
=
 OpenBabel11062414313D

 31 34  0  0  1  0  0  0  0  0999 V2000
  189.3030  177.1710  137.7290 N   0  0  0  0  0  0  0  0  0  0  0  0
  185.6040  180.4170  142.3520 O   0  0  0  0  0  0  0  0  0  0  0  0
  187.7700  178.3160  139.6820 C   0  0  1  0  0  3  0  0  0  0  0  0
  190.4710  176.6220  142.7860 C   0  0  0  0  0  2  0  0  0  0  0  0
  190.4720  177.4730  146.4420 C   0  0  0  0  0  2  0  0  0  0  0  0
  185.3940  178.1830  141.6920 N   0  0  0  0  0  2  0  0  0  0  0  0
  188.1580  177.0900  147.4620 C   0  0  0  0  0  3  0  0  0  0  0  0
  189.6560  176.9980  147.6580 C   0  0  0  0  0  2  0  0  0  0  0  0
  188.7740  177.5150  138.8580 C   0  0  0  0  0  0  0  0  0  0  0  0
  185.4790  178.8520  144.1450 C   0  0  1  0  0  3  0  0  0  0  0  0
  186.4020  177.6790  139.5230 C   0  0  0  0  0  2  0  0  0  0  0  0
  187.5500  177.4090  143.9370 C   0  0  0  0  0  2  0  0  0  0  0  0
  186.1080  177.4870  144.4530 C   0  0  1  0  0  3  0  0  0  0  0  0
  187.6210  177.4380  146.2850 C   0  0  0  0  0  0  0  0  0  0  0  0
  190.8930  177.3090  141.4990 C   0  0  0  0  0  2  0  0  0  0  0  0
  185.5110  179.2040  142.6890 C   0  0  0  0  0  0  0  0  0  0  0  0
  189.7970  178.2380  140.9970 C   0  0  0  0  0  2  0  0  0  0  0  0
  188.6590  177.4410  140.3790 C   0  0  1  0  0  3  0  0  0  0  0  0
  185.3540  178.4970  140.2710 C   0  0  1  0  0  3  0  0  0  0  0  0
  188.4350  177.8090  145.1010 C   0  0  1  0  0  3  0  0  0  0  0  0
  189.7880  177.0980  145.1270 C   0  0  1  0  0  3  0  0  0  0  0  0
  190.6520  177.5610  143.9650 C   0  0  0  0  0  2  0  0  0  0  0  0
  186.1820  177.2810  145.9660 C   0  0  0  0  0  2  0  0  0  0  0  0
  184.1560  178.8790  144.5940 O   0  0  0  0  0  1  0  0  0  0  0  0
  191.6460  176.6000  137.2740 O   0  0  0  0  0  0  0  0  0  0  0  0
  190.3600  176.2140  137.6400 C   0  0  0  0  0  0  0  0  0  0  0  0
  190.1270  175.0050  137.9020 O   0  0  0  0  0  1  0  0  0  0  0  0
  183.0220  177.7310  140.8040 C   0  0  0  0  0  1  0  0  0  0  0  0
  183.9380  178.2880  139.7260 C   0  0  1  0  0  3  0  0  0  0  0  0
  184.3460  180.5350  139.0070 O   0  0  0  0  0  1  0  0  0  0  0  0
  183.3510  179.5620  139.1260 C   0  0  0  0  0  2  0  0  0  0  0  0
  1  9  2  0  0  0  0
  2 16  2  0  0  0  0
  3 11  1  6  0  0  0
  3 18  1  0  0  0  0
  4 22  1  0  0  0  0
  5  8  1  0  0  0  0
  6 16  1  0  0  0  0
  7  8  1  0  0  0  0
  9  3  1  0  0  0  0
  9 18  1  0  0  0  0
 10 13  1  0  0  0  0
 10 24  1  6  0  0  0
 11 19  1  0  0  0  0
 13 12  1  1  0  0  0
 13 23  1  0  0  0  0
 14  7  2  0  0  0  0
 15  4  1  0  0  0  0
 16 10  1  0  0  0  0
 17 15  1  0  0  0  0
 18 17  1  1  0  0  0
 19 29  1  6  0  0  0
 19  6  1  0  0  0  0
 20 12  1  6  0  0  0
 20 21  1  0  0  0  0
 20 14  1  0  0  0  0
 21 22  1  6  0  0  0
 21  5  1  0  0  0  0
 23 14  1  0  0  0  0
 25 26  2  0  0  0  0
 26  1  1  0  0  0  0
 26 27  1  0  0  0  0
 29 28  1  1  0  0  0
 30 31  1  0  0  0  0
 31 29  1  0  0  0  0
M  END
>  <MODEL>
3

>  <REMARK>
 VINA RESULT:      -8.6      2.041      2.623
  Name = 
  3 active torsions:
  status: ('A' for Active; 'I' for Inactive)
    1  A    between atoms: N_1  and  C_22
    2  A    between atoms: C_21  and  C_28
    3  A    between atoms: C_28  and  C_30
                            x       y       z     vdW  Elec       q    Type
                         _______ _______ _______ _____ _____    ______ ____

>  <TORSDO>
F 3

$$$$
=
 OpenBabel11062414313D

 31 34  0  0  1  0  0  0  0  0999 V2000
  185.2550  178.8400  139.1220 N   0  0  0  0  0  0  0  0  0  0  0  0
  190.0150  175.2520  142.2930 O   0  0  0  0  0  0  0  0  0  0  0  0
  187.2420  177.5500  140.4870 C   0  0  1  0  0  3  0  0  0  0  0  0
  185.5350  179.0000  144.3310 C   0  0  0  0  0  2  0  0  0  0  0  0
  186.5230  177.8720  147.7730 C   0  0  0  0  0  2  0  0  0  0  0  0
  190.0820  177.5290  141.7670 N   0  0  0  0  0  2  0  0  0  0  0  0
  189.0350  178.1770  148.1400 C   0  0  0  0  0  3  0  0  0  0  0  0
  187.6510  178.2530  148.7480 C   0  0  0  0  0  2  0  0  0  0  0  0
  186.0670  178.4110  140.0330 C   0  0  0  0  0  0  0  0  0  0  0  0
  190.6610  176.6750  144.0920 C   0  0  1  0  0  3  0  0  0  0  0  0
  188.5260  178.1980  140.0040 C   0  0  0  0  0  2  0  0  0  0  0  0
  188.6430  178.1290  144.5710 C   0  0  0  0  0  2  0  0  0  0  0  0
  190.1700  178.0130  144.6610 C   0  0  1  0  0  3  0  0  0  0  0  0
  189.2210  177.9210  146.8380 C   0  0  0  0  0  0  0  0  0  0  0  0
  184.7610  178.4140  143.1640 C   0  0  0  0  0  2  0  0  0  0  0  0
  190.2230  176.4360  142.6800 C   0  0  0  0  0  0  0  0  0  0  0  0
  185.6570  177.5260  142.3120 C   0  0  0  0  0  2  0  0  0  0  0  0
  186.5980  178.3680  141.4640 C   0  0  1  0  0  3  0  0  0  0  0  0
  189.7220  177.3260  140.3710 C   0  0  1  0  0  3  0  0  0  0  0  0
  188.1040  177.6410  145.9010 C   0  0  1  0  0  3  0  0  0  0  0  0
  186.8260  178.3470  146.3510 C   0  0  1  0  0  3  0  0  0  0  0  0
  185.6670  177.9730  145.4420 C   0  0  0  0  0  2  0  0  0  0  0  0
  190.5190  178.1020  146.1470 C   0  0  0  0  0  2  0  0  0  0  0  0
  192.0550  176.6140  144.1560 O   0  0  0  0  0  1  0  0  0  0  0  0
  183.3020  179.5820  140.4090 O   0  0  0  0  0  1  0  0  0  0  0  0
  184.2340  179.8010  139.3990 C   0  0  0  0  0  0  0  0  0  0  0  0
  184.1810  180.8620  138.7250 O   0  0  0  0  0  0  0  0  0  0  0  0
  192.2260  177.5030  140.2770 C   0  0  0  0  0  1  0  0  0  0  0  0
  190.9380  177.5760  139.4730 C   0  0  1  0  0  3  0  0  0  0  0  0
  190.7630  175.3120  138.7140 O   0  0  0  0  0  1  0  0  0  0  0  0
  190.9900  176.6210  138.2840 C   0  0  0  0  0  2  0  0  0  0  0  0
  1 26  1  0  0  0  0
  1  9  2  0  0  0  0
  2 16  2  0  0  0  0
  3 11  1  6  0  0  0
  3 18  1  0  0  0  0
  4 22  1  0  0  0  0
  5  8  1  0  0  0  0
  6 16  1  0  0  0  0
  7  8  1  0  0  0  0
  9  3  1  0  0  0  0
  9 18  1  0  0  0  0
 10 24  1  6  0  0  0
 10 13  1  0  0  0  0
 11 19  1  0  0  0  0
 13 12  1  1  0  0  0
 13 23  1  0  0  0  0
 14  7  2  0  0  0  0
 15  4  1  0  0  0  0
 16 10  1  0  0  0  0
 17 15  1  0  0  0  0
 18 17  1  1  0  0  0
 19 29  1  6  0  0  0
 19  6  1  0  0  0  0
 20 12  1  6  0  0  0
 20 21  1  0  0  0  0
 20 14  1  0  0  0  0
 21 22  1  6  0  0  0
 21  5  1  0  0  0  0
 23 14  1  0  0  0  0
 26 25  1  0  0  0  0
 27 26  2  0  0  0  0
 29 28  1  1  0  0  0
 31 30  1  0  0  0  0
 31 29  1  0  0  0  0
M  END
>  <MODEL>
4

>  <REMARK>
 VINA RESULT:      -8.0      2.816      5.771
  Name = 
  3 active torsions:
  status: ('A' for Active; 'I' for Inactive)
    1  A    between atoms: N_1  and  C_22
    2  A    between atoms: C_21  and  C_28
    3  A    between atoms: C_28  and  C_30
                            x       y       z     vdW  Elec       q    Type
                         _______ _______ _______ _____ _____    ______ ____

>  <TORSDO>
F 3

$$$$
=
 OpenBabel11062414313D

 31 34  0  0  1  0  0  0  0  0999 V2000
  183.3910  178.9300  144.5900 N   0  0  0  0  0  0  0  0  0  0  0  0
  190.1210  179.3650  144.2410 O   0  0  0  0  0  0  0  0  0  0  0  0
  186.1170  178.9300  144.3750 C   0  0  1  0  0  3  0  0  0  0  0  0
  185.7650  178.2530  139.9910 C   0  0  0  0  0  2  0  0  0  0  0  0
  188.5430  178.4590  137.4750 C   0  0  0  0  0  2  0  0  0  0  0  0
  188.8380  177.4140  144.3800 N   0  0  0  0  0  2  0  0  0  0  0  0
  190.4640  176.8990  138.1170 C   0  0  0  0  0  3  0  0  0  0  0  0
  189.6350  177.4870  136.9960 C   0  0  0  0  0  2  0  0  0  0  0  0
  184.6090  178.8190  144.1680 C   0  0  0  0  0  0  0  0  0  0  0  0
  190.6930  177.6780  142.6590 C   0  0  1  0  0  3  0  0  0  0  0  0
  186.5720  177.7610  145.2280 C   0  0  0  0  0  2  0  0  0  0  0  0
  188.6570  177.4120  141.1770 C   0  0  0  0  0  2  0  0  0  0  0  0
  189.9140  176.7330  141.7340 C   0  0  1  0  0  3  0  0  0  0  0  0
  190.1710  177.1250  139.4050 C   0  0  0  0  0  0  0  0  0  0  0  0
  184.9580  179.2370  140.8200 C   0  0  0  0  0  2  0  0  0  0  0  0
  189.8690  178.2130  143.7900 C   0  0  0  0  0  0  0  0  0  0  0  0
  185.7070  179.6120  142.0920 C   0  0  0  0  0  2  0  0  0  0  0  0
  185.6490  178.4780  143.1030 C   0  0  1  0  0  3  0  0  0  0  0  0
  188.0640  177.8780  145.5220 C   0  0  1  0  0  3  0  0  0  0  0  0
  189.0550  178.0020  139.8390 C   0  0  1  0  0  3  0  0  0  0  0  0
  187.9320  178.0070  138.8020 C   0  0  1  0  0  3  0  0  0  0  0  0
  186.8410  178.9830  139.2080 C   0  0  0  0  0  2  0  0  0  0  0  0
  190.7740  176.3660  140.5250 C   0  0  0  0  0  2  0  0  0  0  0  0
  191.8110  177.0200  143.1780 O   0  0  0  0  0  1  0  0  0  0  0  0
  181.0460  178.2530  144.3430 O   0  0  0  0  0  1  0  0  0  0  0  0
  182.2670  178.6000  143.7730 C   0  0  0  0  0  0  0  0  0  0  0  0
  182.3800  178.6280  142.5190 O   0  0  0  0  0  0  0  0  0  0  0  0
  189.9960  177.0170  146.8770 C   0  0  0  0  0  1  0  0  0  0  0  0
  188.4820  177.1170  146.7850 C   0  0  1  0  0  3  0  0  0  0  0  0
  188.9330  178.2530  148.8440 O   0  0  0  0  0  1  0  0  0  0  0  0
  187.9040  177.7340  148.0540 C   0  0  0  0  0  2  0  0  0  0  0  0
  3 11  1  1  0  0  0
  4 15  1  0  0  0  0
  6 19  1  0  0  0  0
  7 14  2  0  0  0  0
  8  5  1  0  0  0  0
  8  7  1  0  0  0  0
  9  3  1  0  0  0  0
  9  1  2  0  0  0  0
 10 24  1  1  0  0  0
 10 16  1  0  0  0  0
 11 19  1  0  0  0  0
 12 13  1  0  0  0  0
 13 23  1  6  0  0  0
 13 10  1  0  0  0  0
 14 20  1  0  0  0  0
 14 23  1  0  0  0  0
 15 17  1  0  0  0  0
 16  2  2  0  0  0  0
 16  6  1  0  0  0  0
 18 17  1  6  0  0  0
 18  9  1  0  0  0  0
 18  3  1  0  0  0  0
 19 29  1  1  0  0  0
 20 12  1  1  0  0  0
 21  5  1  6  0  0  0
 21 22  1  0  0  0  0
 21 20  1  0  0  0  0
 22  4  1  0  0  0  0
 26 25  1  0  0  0  0
 26  1  1  0  0  0  0
 27 26  2  0  0  0  0
 29 28  1  1  0  0  0
 29 31  1  0  0  0  0
 31 30  1  0  0  0  0
M  END
>  <MODEL>
5

>  <REMARK>
 VINA RESULT:      -7.8      2.715      6.731
  Name = 
  3 active torsions:
  status: ('A' for Active; 'I' for Inactive)
    1  A    between atoms: N_1  and  C_22
    2  A    between atoms: C_21  and  C_28
    3  A    between atoms: C_28  and  C_30
                            x       y       z     vdW  Elec       q    Type
                         _______ _______ _______ _____ _____    ______ ____

>  <TORSDO>
F 3

$$$$
=
 OpenBabel11062414313D

 31 34  0  0  1  0  0  0  0  0999 V2000
  189.7590  177.8450  137.6250 N   0  0  0  0  0  0  0  0  0  0  0  0
  187.9310  175.6290  143.7360 O   0  0  0  0  0  0  0  0  0  0  0  0
  188.9800  177.1280  140.1460 C   0  0  1  0  0  3  0  0  0  0  0  0
  184.9710  178.9110  139.4070 C   0  0  0  0  0  2  0  0  0  0  0  0
  181.9330  178.5400  141.5820 C   0  0  0  0  0  2  0  0  0  0  0  0
  188.6930  177.7680  143.1810 N   0  0  0  0  0  2  0  0  0  0  0  0
  182.4350  179.2940  143.9730 C   0  0  0  0  0  3  0  0  0  0  0  0
  181.4230  179.2510  142.8470 C   0  0  0  0  0  2  0  0  0  0  0  0
  189.1190  177.7060  138.7410 C   0  0  0  0  0  0  0  0  0  0  0  0
  186.6030  177.4140  144.5870 C   0  0  1  0  0  3  0  0  0  0  0  0
  189.9200  177.8810  141.0700 C   0  0  0  0  0  2  0  0  0  0  0  0
  185.6570  178.5920  142.5540 C   0  0  0  0  0  2  0  0  0  0  0  0
  186.0530  178.7340  144.0280 C   0  0  1  0  0  3  0  0  0  0  0  0
  183.6900  178.8570  143.8100 C   0  0  0  0  0  0  0  0  0  0  0  0
  185.7540  178.0240  138.4540 C   0  0  0  0  0  2  0  0  0  0  0  0
  187.7630  176.8780  143.8060 C   0  0  0  0  0  0  0  0  0  0  0  0
  186.7490  177.1600  139.2170 C   0  0  0  0  0  2  0  0  0  0  0  0
  187.9410  177.9860  139.6710 C   0  0  1  0  0  3  0  0  0  0  0  0
  189.8670  177.2810  142.4710 C   0  0  1  0  0  3  0  0  0  0  0  0
  184.1800  178.2530  142.5450 C   0  0  1  0  0  3  0  0  0  0  0  0
  183.4190  178.8140  141.3440 C   0  0  1  0  0  3  0  0  0  0  0  0
  183.8580  178.1170  140.0680 C   0  0  0  0  0  2  0  0  0  0  0  0
  184.7800  179.1230  144.7790 C   0  0  0  0  0  2  0  0  0  0  0  0
  186.9880  177.5850  145.9190 O   0  0  0  0  0  1  0  0  0  0  0  0
  189.4200  178.2770  135.2340 O   0  0  0  0  0  0  0  0  0  0  0  0
  189.2730  178.6650  136.5620 C   0  0  0  0  0  0  0  0  0  0  0  0
  188.6970  179.7520  136.8290 O   0  0  0  0  0  1  0  0  0  0  0  0
  191.0380  178.9230  143.9680 C   0  0  0  0  0  1  0  0  0  0  0  0
  191.1320  177.5670  143.2870 C   0  0  1  0  0  3  0  0  0  0  0  0
  191.6800  177.0380  145.5570 O   0  0  0  0  0  1  0  0  0  0  0  0
  191.4260  176.4710  144.3070 C   0  0  0  0  0  2  0  0  0  0  0  0
  1  9  2  0  0  0  0
  2 16  2  0  0  0  0
  3 11  1  1  0  0  0
  4 22  1  0  0  0  0
  5  8  1  0  0  0  0
  6 16  1  0  0  0  0
  8  7  1  0  0  0  0
  9 18  1  0  0  0  0
  9  3  1  0  0  0  0
 10 24  1  1  0  0  0
 11 19  1  0  0  0  0
 13 12  1  6  0  0  0
 13 10  1  0  0  0  0
 13 23  1  0  0  0  0
 14  7  2  0  0  0  0
 14 23  1  0  0  0  0
 15 17  1  0  0  0  0
 15  4  1  0  0  0  0
 16 10  1  0  0  0  0
 18 17  1  6  0  0  0
 18  3  1  0  0  0  0
 19  6  1  0  0  0  0
 19 29  1  1  0  0  0
 20 12  1  6  0  0  0
 20 14  1  0  0  0  0
 21 22  1  6  0  0  0
 21  5  1  0  0  0  0
 21 20  1  0  0  0  0
 25 26  2  0  0  0  0
 26 27  1  0  0  0  0
 26  1  1  0  0  0  0
 29 28  1  1  0  0  0
 29 31  1  0  0  0  0
 31 30  1  0  0  0  0
M  END
>  <MODEL>
6

>  <REMARK>
 VINA RESULT:      -7.8      2.555      6.173
  Name = 
  3 active torsions:
  status: ('A' for Active; 'I' for Inactive)
    1  A    between atoms: N_1  and  C_22
    2  A    between atoms: C_21  and  C_28
    3  A    between atoms: C_28  and  C_30
                            x       y       z     vdW  Elec       q    Type
                         _______ _______ _______ _____ _____    ______ ____

>  <TORSDO>
F 3

$$$$
=
 OpenBabel11062414313D

 31 34  0  0  1  0  0  0  0  0999 V2000
  189.0300  177.8110  143.6300 N   0  0  0  0  0  0  0  0  0  0  0  0
  188.3410  179.5650  137.1460 O   0  0  0  0  0  0  0  0  0  0  0  0
  188.6620  178.3550  140.9760 C   0  0  1  0  0  3  0  0  0  0  0  0
  184.2630  177.9500  141.5080 C   0  0  0  0  0  2  0  0  0  0  0  0
  181.6220  178.8780  139.0070 C   0  0  0  0  0  2  0  0  0  0  0  0
  188.3820  177.3990  138.0240 N   0  0  0  0  0  2  0  0  0  0  0  0
  182.0170  177.6760  136.7850 C   0  0  0  0  0  3  0  0  0  0  0  0
  180.9990  178.1740  137.7890 C   0  0  0  0  0  2  0  0  0  0  0  0
  188.5320  177.9690  142.4470 C   0  0  0  0  0  0  0  0  0  0  0  0
  186.5890  178.1440  136.3810 C   0  0  1  0  0  3  0  0  0  0  0  0
  189.3840  177.2360  140.2480 C   0  0  0  0  0  2  0  0  0  0  0  0
  185.2070  177.6000  138.4320 C   0  0  0  0  0  2  0  0  0  0  0  0
  185.6310  177.1380  137.0330 C   0  0  1  0  0  3  0  0  0  0  0  0
  183.3340  177.7450  137.0220 C   0  0  0  0  0  0  0  0  0  0  0  0
  185.2190  178.6950  142.4240 C   0  0  0  0  0  2  0  0  0  0  0  0
  187.8060  178.4240  137.2080 C   0  0  0  0  0  0  0  0  0  0  0  0
  186.4740  179.1120  141.6710 C   0  0  0  0  0  2  0  0  0  0  0  0
  187.3850  177.9160  141.4410 C   0  0  1  0  0  3  0  0  0  0  0  0
  189.6020  177.6170  138.7880 C   0  0  1  0  0  3  0  0  0  0  0  0
  183.9050  178.3540  138.2500 C   0  0  1  0  0  3  0  0  0  0  0  0
  182.9370  178.2180  139.4250 C   0  0  1  0  0  3  0  0  0  0  0  0
  183.4870  178.9320  140.6490 C   0  0  0  0  0  2  0  0  0  0  0  0
  184.3480  177.0350  136.2080 C   0  0  0  0  0  2  0  0  0  0  0  0
  186.9850  177.6790  135.1250 O   0  0  0  0  0  1  0  0  0  0  0  0
  188.7130  177.4440  146.0350 O   0  0  0  0  0  1  0  0  0  0  0  0
  188.2520  177.3300  144.7280 C   0  0  0  0  0  0  0  0  0  0  0  0
  187.1300  176.8010  144.5100 O   0  0  0  0  0  0  0  0  0  0  0  0
  191.9640  176.8140  139.0820 C   0  0  0  0  0  1  0  0  0  0  0  0
  190.7680  176.8600  138.1440 C   0  0  1  0  0  3  0  0  0  0  0  0
  191.3850  174.5480  138.0380 O   0  0  0  0  0  1  0  0  0  0  0  0
  190.3750  175.4530  137.7030 C   0  0  0  0  0  2  0  0  0  0  0  0
  1 26  1  0  0  0  0
  2 16  2  0  0  0  0
  3 11  1  6  0  0  0
  3 18  1  0  0  0  0
  3  9  1  0  0  0  0
  4 15  1  0  0  0  0
  6 19  1  0  0  0  0
  7 14  2  0  0  0  0
  7  8  1  0  0  0  0
  8  5  1  0  0  0  0
  9  1  2  0  0  0  0
 10 24  1  6  0  0  0
 10 13  1  0  0  0  0
 10 16  1  0  0  0  0
 13 23  1  6  0  0  0
 13 12  1  0  0  0  0
 14 20  1  0  0  0  0
 16  6  1  0  0  0  0
 17 15  1  0  0  0  0
 18 17  1  1  0  0  0
 18  9  1  0  0  0  0
 19 29  1  6  0  0  0
 19 11  1  0  0  0  0
 20 12  1  1  0  0  0
 20 21  1  0  0  0  0
 21  5  1  6  0  0  0
 21 22  1  0  0  0  0
 22  4  1  0  0  0  0
 23 14  1  0  0  0  0
 26 25  1  0  0  0  0
 27 26  2  0  0  0  0
 29 28  1  1  0  0  0
 31 30  1  0  0  0  0
 31 29  1  0  0  0  0
M  END
>  <MODEL>
7

>  <REMARK>
 VINA RESULT:      -7.8      2.755      8.695
  Name = 
  3 active torsions:
  status: ('A' for Active; 'I' for Inactive)
    1  A    between atoms: N_1  and  C_22
    2  A    between atoms: C_21  and  C_28
    3  A    between atoms: C_28  and  C_30
                            x       y       z     vdW  Elec       q    Type
                         _______ _______ _______ _____ _____    ______ ____

>  <TORSDO>
F 3

$$$$
=
 OpenBabel11062414313D

 31 34  0  0  1  0  0  0  0  0999 V2000
  187.1820  177.6820  136.4280 N   0  0  0  0  0  0  0  0  0  0  0  0
  185.2970  180.2330  142.3890 O   0  0  0  0  0  0  0  0  0  0  0  0
  186.4280  178.5380  138.9130 C   0  0  1  0  0  3  0  0  0  0  0  0
  190.2100  176.9210  140.6100 C   0  0  0  0  0  2  0  0  0  0  0  0
  191.5370  177.5260  144.0700 C   0  0  0  0  0  2  0  0  0  0  0  0
  185.0040  178.0390  141.6380 N   0  0  0  0  0  2  0  0  0  0  0  0
  189.8120  176.8480  145.8320 C   0  0  0  0  0  3  0  0  0  0  0  0
  191.2760  176.8940  145.4470 C   0  0  0  0  0  2  0  0  0  0  0  0
  187.0980  177.8970  137.7010 C   0  0  0  0  0  0  0  0  0  0  0  0
  185.9650  178.5500  143.9370 C   0  0  1  0  0  3  0  0  0  0  0  0
  185.1480  177.7800  139.2110 C   0  0  0  0  0  2  0  0  0  0  0  0
  187.8960  177.3360  142.8350 C   0  0  0  0  0  2  0  0  0  0  0  0
  186.7540  177.2360  143.8530 C   0  0  1  0  0  3  0  0  0  0  0  0
  188.8470  177.2180  144.9790 C   0  0  0  0  0  0  0  0  0  0  0  0
  190.0670  177.7290  139.3320 C   0  0  0  0  0  2  0  0  0  0  0  0
  185.4200  178.9980  142.6150 C   0  0  0  0  0  0  0  0  0  0  0  0
  188.8020  178.5760  139.3670 C   0  0  0  0  0  2  0  0  0  0  0  0
  187.5710  177.7130  139.1400 C   0  0  1  0  0  3  0  0  0  0  0  0
  184.4080  178.4390  140.3710 C   0  0  1  0  0  3  0  0  0  0  0  0
  189.1260  177.7450  143.6190 C   0  0  1  0  0  3  0  0  0  0  0  0
  190.4330  177.1720  143.0710 C   0  0  1  0  0  3  0  0  0  0  0  0
  190.7600  177.7940  141.7240 C   0  0  0  0  0  2  0  0  0  0  0  0
  187.4090  176.9400  145.2030 C   0  0  0  0  0  2  0  0  0  0  0  0
  184.9120  178.4160  144.8450 O   0  0  0  0  0  1  0  0  0  0  0  0
  189.5380  177.1480  136.0020 O   0  0  0  0  0  1  0  0  0  0  0  0
  188.1890  176.8430  135.8590 C   0  0  0  0  0  0  0  0  0  0  0  0
  187.8500  175.8090  135.2250 O   0  0  0  0  0  0  0  0  0  0  0  0
  182.1270  179.2370  139.6880 C   0  0  0  0  0  1  0  0  0  0  0  0
  182.9080  178.1270  140.3730 C   0  0  1  0  0  3  0  0  0  0  0  0
  181.7030  176.9430  138.6760 O   0  0  0  0  0  1  0  0  0  0  0  0
  182.5940  176.7760  139.7370 C   0  0  0  0  0  2  0  0  0  0  0  0
  1  9  2  0  0  0  0
  2 16  2  0  0  0  0
  3 18  1  0  0  0  0
  3 11  1  1  0  0  0
  4 22  1  0  0  0  0
  5  8  1  0  0  0  0
  6 16  1  0  0  0  0
  8  7  1  0  0  0  0
  9  3  1  0  0  0  0
  9 18  1  0  0  0  0
 10 24  1  1  0  0  0
 11 19  1  0  0  0  0
 13 12  1  6  0  0  0
 13 10  1  0  0  0  0
 13 23  1  0  0  0  0
 14 23  1  0  0  0  0
 14  7  2  0  0  0  0
 15 17  1  0  0  0  0
 15  4  1  0  0  0  0
 16 10  1  0  0  0  0
 18 17  1  6  0  0  0
 19 29  1  1  0  0  0
 19  6  1  0  0  0  0
 20 12  1  6  0  0  0
 20 14  1  0  0  0  0
 21 22  1  6  0  0  0
 21 20  1  0  0  0  0
 21  5  1  0  0  0  0
 26 25  1  0  0  0  0
 26  1  1  0  0  0  0
 27 26  2  0  0  0  0
 29 28  1  6  0  0  0
 30 31  1  0  0  0  0
 31 29  1  0  0  0  0
M  END
>  <MODEL>
8

>  <REMARK>
 VINA RESULT:      -7.7      1.935      2.337
  Name = 
  3 active torsions:
  status: ('A' for Active; 'I' for Inactive)
    1  A    between atoms: N_1  and  C_22
    2  A    between atoms: C_21  and  C_28
    3  A    between atoms: C_28  and  C_30
                            x       y       z     vdW  Elec       q    Type
                         _______ _______ _______ _____ _____    ______ ____

>  <TORSDO>
F 3

$$$$
=
 OpenBabel11062414313D

 31 34  0  0  1  0  0  0  0  0999 V2000
  182.3790  179.5740  138.3490 N   0  0  0  0  0  0  0  0  0  0  0  0
  188.0410  175.9530  139.0030 O   0  0  0  0  0  0  0  0  0  0  0  0
  184.7530  178.2610  138.6930 C   0  0  1  0  0  3  0  0  0  0  0  0
  184.5210  179.0040  143.0740 C   0  0  0  0  0  2  0  0  0  0  0  0
  186.7110  177.4740  145.7120 C   0  0  0  0  0  2  0  0  0  0  0  0
  187.8630  178.2810  138.8650 N   0  0  0  0  0  2  0  0  0  0  0  0
  189.1790  177.9210  145.2110 C   0  0  0  0  0  3  0  0  0  0  0  0
  188.1070  177.7990  146.2720 C   0  0  0  0  0  2  0  0  0  0  0  0
  183.4750  179.0830  138.8320 C   0  0  0  0  0  0  0  0  0  0  0  0
  189.2630  177.1490  140.6630 C   0  0  1  0  0  3  0  0  0  0  0  0
  185.7610  179.0710  137.9000 C   0  0  0  0  0  2  0  0  0  0  0  0
  187.5240  178.3550  142.0540 C   0  0  0  0  0  2  0  0  0  0  0  0
  188.9810  178.3480  141.5790 C   0  0  1  0  0  3  0  0  0  0  0  0
  188.8860  177.8690  143.9040 C   0  0  0  0  0  0  0  0  0  0  0  0
  183.3900  178.5330  142.1770 C   0  0  0  0  0  2  0  0  0  0  0  0
  188.3490  177.0820  139.4780 C   0  0  0  0  0  0  0  0  0  0  0  0
  183.9370  177.8510  140.9320 C   0  0  0  0  0  2  0  0  0  0  0  0
  184.4880  178.8770  139.9550 C   0  0  1  0  0  3  0  0  0  0  0  0
  187.0280  178.2520  137.6730 C   0  0  1  0  0  3  0  0  0  0  0  0
  187.5130  177.6400  143.3900 C   0  0  1  0  0  3  0  0  0  0  0  0
  186.4690  178.1710  144.3720 C   0  0  1  0  0  3  0  0  0  0  0  0
  185.0680  177.8420  143.8840 C   0  0  0  0  0  2  0  0  0  0  0  0
  189.8420  178.2500  142.8380 C   0  0  0  0  0  2  0  0  0  0  0  0
  190.5870  177.1900  140.2180 O   0  0  0  0  0  1  0  0  0  0  0  0
  180.8400  179.8960  140.2330 O   0  0  0  0  0  1  0  0  0  0  0  0
  181.5070  180.4010  139.1220 C   0  0  0  0  0  0  0  0  0  0  0  0
  181.3450  181.6070  138.7960 O   0  0  0  0  0  0  0  0  0  0  0  0
  189.1900  179.2550  136.8820 C   0  0  0  0  0  1  0  0  0  0  0  0
  187.8300  178.7240  136.4570 C   0  0  1  0  0  3  0  0  0  0  0  0
  188.9970  176.7470  135.7740 O   0  0  0  0  0  1  0  0  0  0  0  0
  187.9830  177.6330  135.4010 C   0  0  0  0  0  2  0  0  0  0  0  0
  1  9  2  0  0  0  0
  1 26  1  0  0  0  0
  2 16  2  0  0  0  0
  3 11  1  6  0  0  0
  3  9  1  0  0  0  0
  3 18  1  0  0  0  0
  4 22  1  0  0  0  0
  5  8  1  0  0  0  0
  6 16  1  0  0  0  0
  7  8  1  0  0  0  0
  9 18  1  0  0  0  0
 10 24  1  6  0  0  0
 10 13  1  0  0  0  0
 13 12  1  1  0  0  0
 13 23  1  0  0  0  0
 14  7  2  0  0  0  0
 15  4  1  0  0  0  0
 16 10  1  0  0  0  0
 17 15  1  0  0  0  0
 18 17  1  1  0  0  0
 19 29  1  6  0  0  0
 19 11  1  0  0  0  0
 19  6  1  0  0  0  0
 20 12  1  6  0  0  0
 20 14  1  0  0  0  0
 20 21  1  0  0  0  0
 21 22  1  6  0  0  0
 21  5  1  0  0  0  0
 23 14  1  0  0  0  0
 26 25  1  0  0  0  0
 27 26  2  0  0  0  0
 29 28  1  1  0  0  0
 31 30  1  0  0  0  0
 31 29  1  0  0  0  0
M  END
>  <MODEL>
9

>  <REMARK>
 VINA RESULT:      -7.5      2.527      5.991
  Name = 
  3 active torsions:
  status: ('A' for Active; 'I' for Inactive)
    1  A    between atoms: N_1  and  C_22
    2  A    between atoms: C_21  and  C_28
    3  A    between atoms: C_28  and  C_30
                            x       y       z     vdW  Elec       q    Type
                         _______ _______ _______ _____ _____    ______ ____

>  <TORSDO>
F 3

$$$$
