=
 OpenBabel11062413513D

 25 26  0  0  1  0  0  0  0  0999 V2000
  191.5810  177.4190  141.1830 C   0  0  0  0  0  0  0  0  0  0  0  0
  189.0750  177.1460  141.3570 C   0  0  2  0  0  3  0  0  0  0  0  0
  192.5950  177.8870  140.6020 O   0  0  0  0  0  0  0  0  0  0  0  0
  190.5260  176.6980  143.3630 C   0  0  0  0  0  2  0  0  0  0  0  0
  191.6960  176.9480  142.5290 N   0  0  0  0  0  2  0  0  0  0  0  0
  189.3600  176.1890  142.5200 C   0  0  0  0  0  2  0  0  0  0  0  0
  190.2850  177.2840  140.4270 C   0  0  2  0  0  3  0  0  0  0  0  0
  190.3450  176.1290  139.5410 N   0  0  0  0  0  2  0  0  0  0  0  0
  189.8450  175.0930  137.5270 O   0  0  0  0  0  0  0  0  0  0  0  0
  189.7000  176.1030  138.2660 C   0  0  0  0  0  0  0  0  0  0  0  0
  188.8910  177.2080  137.8460 N   0  0  0  0  0  2  0  0  0  0  0  0
  188.2100  177.3030  136.5900 C   0  0  0  0  0  0  0  0  0  0  0  0
  188.2950  176.3860  135.7320 O   0  0  0  0  0  0  0  0  0  0  0  0
  187.3910  178.5070  136.2940 C   0  0  0  0  0  1  0  0  0  0  0  0
  188.6140  178.5210  141.8420 C   0  0  0  0  0  2  0  0  0  0  0  0
  187.1070  178.7320  141.6890 C   0  0  1  0  0  3  0  0  0  0  0  0
  186.7140  178.6470  140.2910 N   0  0  0  0  0  2  0  0  0  0  0  0
  185.5480  179.3240  140.1660 O   0  0  0  0  0  1  0  0  0  0  0  0
  186.3670  177.7540  142.4740 N   0  0  0  0  0  2  0  0  0  0  0  0
  186.6630  177.6030  144.8900 C   0  0  0  0  0  2  0  0  0  0  0  0
  186.2840  178.2350  146.2270 C   0  0  0  0  0  2  0  0  0  0  0  0
  184.1270  179.0340  145.2380 C   0  0  0  0  0  2  0  0  0  0  0  0
  186.0240  178.3810  143.7400 C   0  0  0  0  0  3  0  0  0  0  0  0
  184.7660  178.2570  146.3850 C   0  0  0  0  0  2  0  0  0  0  0  0
  184.5070  178.4030  143.9010 C   0  0  0  0  0  2  0  0  0  0  0  0
  1  5  1  0  0  0  0
  2 15  1  1  0  0  0
  2  6  1  0  0  0  0
  3  1  2  0  0  0  0
  5  4  1  0  0  0  0
  6  4  1  0  0  0  0
  7  8  1  6  0  0  0
  7  1  1  0  0  0  0
  7  2  1  0  0  0  0
  9 10  2  0  0  0  0
 10  8  1  0  0  0  0
 11 10  1  0  0  0  0
 12 11  1  0  0  0  0
 13 12  2  0  0  0  0
 14 12  1  0  0  0  0
 16 15  1  6  0  0  0
 16 19  1  0  0  0  0
 17 16  1  0  0  0  0
 18 17  1  0  0  0  0
 19 23  1  0  0  0  0
 20 21  1  0  0  0  0
 21 24  1  0  0  0  0
 22 24  1  0  0  0  0
 23 25  1  0  0  0  0
 23 20  1  0  0  0  0
 25 22  1  0  0  0  0
M  END
>  <MODEL>
1

>  <REMARK>
 VINA RESULT:      -7.5      0.000      0.000
  Name = 
  6 active torsions:
  status: ('A' for Active; 'I' for Inactive)
    1  A    between atoms: C_2  and  C_7
    2  A    between atoms: C_2  and  N_9
    3  A    between atoms: C_2  and  N_23
    4  A    between atoms: N_3  and  C_25
    5  A    between atoms: C_6  and  C_7
    6  A    between atoms: C_20  and  N_23
                            x       y       z     vdW  Elec       q    Type
                         _______ _______ _______ _____ _____    ______ ____

>  <TORSDO>
F 6

$$$$
=
 OpenBabel11062413513D

 25 26  0  0  1  0  0  0  0  0999 V2000
  190.9920  177.5100  142.7940 C   0  0  0  0  0  0  0  0  0  0  0  0
  188.6690  177.2720  141.8280 C   0  0  2  0  0  3  0  0  0  0  0  0
  192.1550  177.9910  142.7470 O   0  0  0  0  0  0  0  0  0  0  0  0
  189.0890  176.6910  144.2400 C   0  0  0  0  0  2  0  0  0  0  0  0
  190.5050  176.9650  144.0230 N   0  0  0  0  0  2  0  0  0  0  0  0
  188.4190  176.2490  142.9420 C   0  0  0  0  0  2  0  0  0  0  0  0
  190.1640  177.4390  141.5370 C   0  0  2  0  0  3  0  0  0  0  0  0
  190.6180  176.3330  140.7050 N   0  0  0  0  0  2  0  0  0  0  0  0
  190.9740  175.3780  138.6210 O   0  0  0  0  0  0  0  0  0  0  0  0
  190.5040  176.3430  139.2810 C   0  0  0  0  0  0  0  0  0  0  0  0
  189.8530  177.4350  138.6190 N   0  0  0  0  0  2  0  0  0  0  0  0
  189.6920  177.5640  137.2030 C   0  0  0  0  0  0  0  0  0  0  0  0
  190.1460  176.6950  136.4130 O   0  0  0  0  0  0  0  0  0  0  0  0
  188.9800  178.7480  136.6550 C   0  0  0  0  0  1  0  0  0  0  0  0
  188.0300  178.6270  142.1370 C   0  0  0  0  0  2  0  0  0  0  0  0
  186.7490  178.8770  141.3390 C   0  0  1  0  0  3  0  0  0  0  0  0
  186.9530  178.5780  139.9300 N   0  0  0  0  0  2  0  0  0  0  0  0
  185.7600  178.7490  139.3130 O   0  0  0  0  0  1  0  0  0  0  0  0
  185.6500  178.0780  141.8640 N   0  0  0  0  0  2  0  0  0  0  0  0
  185.5790  178.1680  144.2990 C   0  0  0  0  0  2  0  0  0  0  0  0
  184.9710  178.8970  145.4950 C   0  0  0  0  0  2  0  0  0  0  0  0
  182.9580  179.4710  144.1220 C   0  0  0  0  0  2  0  0  0  0  0  0
  185.0890  178.7970  142.9950 C   0  0  0  0  0  3  0  0  0  0  0  0
  183.4480  178.8430  145.4240 C   0  0  0  0  0  2  0  0  0  0  0  0
  183.5660  178.7430  142.9260 C   0  0  0  0  0  2  0  0  0  0  0  0
  1  5  1  0  0  0  0
  2 15  1  1  0  0  0
  2  6  1  0  0  0  0
  3  1  2  0  0  0  0
  5  4  1  0  0  0  0
  6  4  1  0  0  0  0
  7  8  1  6  0  0  0
  7  2  1  0  0  0  0
  7  1  1  0  0  0  0
  9 10  2  0  0  0  0
 10  8  1  0  0  0  0
 11 10  1  0  0  0  0
 12 11  1  0  0  0  0
 13 12  2  0  0  0  0
 14 12  1  0  0  0  0
 16 19  1  0  0  0  0
 16 15  1  1  0  0  0
 17 16  1  0  0  0  0
 18 17  1  0  0  0  0
 19 23  1  0  0  0  0
 20 21  1  0  0  0  0
 22 24  1  0  0  0  0
 23 20  1  0  0  0  0
 24 21  1  0  0  0  0
 25 23  1  0  0  0  0
 25 22  1  0  0  0  0
M  END
>  <MODEL>
2

>  <REMARK>
 VINA RESULT:      -7.2      1.308      1.422
  Name = 
  6 active torsions:
  status: ('A' for Active; 'I' for Inactive)
    1  A    between atoms: C_2  and  C_7
    2  A    between atoms: C_2  and  N_9
    3  A    between atoms: C_2  and  N_23
    4  A    between atoms: N_3  and  C_25
    5  A    between atoms: C_6  and  C_7
    6  A    between atoms: C_20  and  N_23
                            x       y       z     vdW  Elec       q    Type
                         _______ _______ _______ _____ _____    ______ ____

>  <TORSDO>
F 6

$$$$
=
 OpenBabel11062413513D

 25 26  0  0  1  0  0  0  0  0999 V2000
  191.2560  178.4450  143.9220 C   0  0  0  0  0  0  0  0  0  0  0  0
  190.7960  176.1940  142.8700 C   0  0  2  0  0  3  0  0  0  0  0  0
  191.1620  179.7000  143.9110 O   0  0  0  0  0  0  0  0  0  0  0  0
  191.3960  176.3370  145.3090 C   0  0  0  0  0  2  0  0  0  0  0  0
  191.5810  177.7740  145.1430 N   0  0  0  0  0  2  0  0  0  0  0  0
  191.6530  175.6030  143.9960 C   0  0  0  0  0  2  0  0  0  0  0  0
  191.1110  177.6750  142.6350 C   0  0  2  0  0  3  0  0  0  0  0  0
  192.3310  177.7880  141.8480 N   0  0  0  0  0  2  0  0  0  0  0  0
  193.4620  177.6230  139.8290 O   0  0  0  0  0  0  0  0  0  0  0  0
  192.3880  177.4420  140.4620 C   0  0  0  0  0  0  0  0  0  0  0  0
  191.2390  176.8850  139.8110 N   0  0  0  0  0  2  0  0  0  0  0  0
  191.1710  176.5140  138.4310 C   0  0  0  0  0  0  0  0  0  0  0  0
  192.1560  176.6750  137.6630 O   0  0  0  0  0  0  0  0  0  0  0  0
  189.9140  175.9330  137.8930 C   0  0  0  0  0  1  0  0  0  0  0  0
  189.3000  175.9980  143.1210 C   0  0  0  0  0  2  0  0  0  0  0  0
  188.4640  177.2130  142.7140 C   0  0  1  0  0  3  0  0  0  0  0  0
  188.3750  177.3150  141.2650 N   0  0  0  0  0  2  0  0  0  0  0  0
  188.1160  178.6120  140.9760 O   0  0  0  0  0  1  0  0  0  0  0  0
  187.1300  177.1380  143.2910 N   0  0  0  0  0  2  0  0  0  0  0  0
  187.8260  177.2390  145.6260 C   0  0  0  0  0  2  0  0  0  0  0  0
  187.7980  178.0920  146.8920 C   0  0  0  0  0  2  0  0  0  0  0  0
  185.6520  179.1400  146.1380 C   0  0  0  0  0  2  0  0  0  0  0  0
  187.1220  177.9700  144.4830 C   0  0  0  0  0  3  0  0  0  0  0  0
  186.3560  178.4090  147.2780 C   0  0  0  0  0  2  0  0  0  0  0  0
  185.6810  178.2880  144.8710 C   0  0  0  0  0  2  0  0  0  0  0  0
  1  5  1  0  0  0  0
  2 15  1  1  0  0  0
  2  6  1  0  0  0  0
  3  1  2  0  0  0  0
  5  4  1  0  0  0  0
  6  4  1  0  0  0  0
  7  8  1  1  0  0  0
  7  2  1  0  0  0  0
  7  1  1  0  0  0  0
  9 10  2  0  0  0  0
 10  8  1  0  0  0  0
 11 10  1  0  0  0  0
 12 11  1  0  0  0  0
 13 12  2  0  0  0  0
 14 12  1  0  0  0  0
 16 15  1  6  0  0  0
 16 19  1  0  0  0  0
 17 16  1  0  0  0  0
 18 17  1  0  0  0  0
 19 23  1  0  0  0  0
 20 21  1  0  0  0  0
 21 24  1  0  0  0  0
 22 24  1  0  0  0  0
 23 25  1  0  0  0  0
 23 20  1  0  0  0  0
 25 22  1  0  0  0  0
M  END
>  <MODEL>
3

>  <REMARK>
 VINA RESULT:      -7.1      2.042      2.885
  Name = 
  6 active torsions:
  status: ('A' for Active; 'I' for Inactive)
    1  A    between atoms: C_2  and  C_7
    2  A    between atoms: C_2  and  N_9
    3  A    between atoms: C_2  and  N_23
    4  A    between atoms: N_3  and  C_25
    5  A    between atoms: C_6  and  C_7
    6  A    between atoms: C_20  and  N_23
                            x       y       z     vdW  Elec       q    Type
                         _______ _______ _______ _____ _____    ______ ____

>  <TORSDO>
F 6

$$$$
=
 OpenBabel11062413513D

 25 26  0  0  1  0  0  0  0  0999 V2000
  190.0950  175.5810  138.0090 C   0  0  0  0  0  0  0  0  0  0  0  0
  190.5050  177.2280  139.8800 C   0  0  2  0  0  3  0  0  0  0  0  0
  190.3870  174.5180  137.4000 O   0  0  0  0  0  0  0  0  0  0  0  0
  188.2870  177.2090  138.6920 C   0  0  0  0  0  2  0  0  0  0  0  0
  188.8130  176.1820  137.8010 N   0  0  0  0  0  2  0  0  0  0  0  0
  189.4140  178.0870  139.2300 C   0  0  0  0  0  2  0  0  0  0  0  0
  191.1270  176.2490  138.8800 C   0  0  2  0  0  3  0  0  0  0  0  0
  192.0930  176.9560  138.0510 N   0  0  0  0  0  2  0  0  0  0  0  0
  194.1160  177.0360  136.9180 O   0  0  0  0  0  0  0  0  0  0  0  0
  193.3540  176.3920  137.6880 C   0  0  0  0  0  0  0  0  0  0  0  0
  193.7470  175.1140  138.2050 N   0  0  0  0  0  2  0  0  0  0  0  0
  194.9750  174.4430  137.9020 C   0  0  0  0  0  0  0  0  0  0  0  0
  195.8170  174.9480  137.1150 O   0  0  0  0  0  0  0  0  0  0  0  0
  195.2560  173.1240  138.5260 C   0  0  0  0  0  1  0  0  0  0  0  0
  189.9910  176.4810  141.1120 C   0  0  0  0  0  2  0  0  0  0  0  0
  190.4640  177.1050  142.4260 C   0  0  1  0  0  3  0  0  0  0  0  0
  191.7750  177.7170  142.2640 N   0  0  0  0  0  2  0  0  0  0  0  0
  191.8980  178.6500  143.2380 O   0  0  0  0  0  1  0  0  0  0  0  0
  189.5080  178.0950  142.9010 N   0  0  0  0  0  2  0  0  0  0  0  0
  187.2780  177.8750  143.8620 C   0  0  0  0  0  2  0  0  0  0  0  0
  186.4780  177.2660  145.0110 C   0  0  0  0  0  2  0  0  0  0  0  0
  188.5110  177.3500  146.4710 C   0  0  0  0  0  2  0  0  0  0  0  0
  188.7510  177.4860  143.9830 C   0  0  0  0  0  3  0  0  0  0  0  0
  187.0390  177.7370  146.3490 C   0  0  0  0  0  2  0  0  0  0  0  0
  189.3100  177.9580  145.3210 C   0  0  0  0  0  2  0  0  0  0  0  0
  1  7  1  0  0  0  0
  2 15  1  1  0  0  0
  3  1  2  0  0  0  0
  4  6  1  0  0  0  0
  5  1  1  0  0  0  0
  5  4  1  0  0  0  0
  6  2  1  0  0  0  0
  7  8  1  6  0  0  0
  7  2  1  0  0  0  0
  9 10  2  0  0  0  0
 10  8  1  0  0  0  0
 10 11  1  0  0  0  0
 12 11  1  0  0  0  0
 12 14  1  0  0  0  0
 13 12  2  0  0  0  0
 16 15  1  6  0  0  0
 16 19  1  0  0  0  0
 17 16  1  0  0  0  0
 17 18  1  0  0  0  0
 19 23  1  0  0  0  0
 20 23  1  0  0  0  0
 20 21  1  0  0  0  0
 21 24  1  0  0  0  0
 23 25  1  0  0  0  0
 24 22  1  0  0  0  0
 25 22  1  0  0  0  0
M  END
>  <MODEL>
4

>  <REMARK>
 VINA RESULT:      -6.8      2.824      4.833
  Name = 
  6 active torsions:
  status: ('A' for Active; 'I' for Inactive)
    1  A    between atoms: C_2  and  C_7
    2  A    between atoms: C_2  and  N_9
    3  A    between atoms: C_2  and  N_23
    4  A    between atoms: N_3  and  C_25
    5  A    between atoms: C_6  and  C_7
    6  A    between atoms: C_20  and  N_23
                            x       y       z     vdW  Elec       q    Type
                         _______ _______ _______ _____ _____    ______ ____

>  <TORSDO>
F 6

$$$$
=
 OpenBabel11062413513D

 25 26  0  0  1  0  0  0  0  0999 V2000
  190.2250  175.5170  138.0630 C   0  0  0  0  0  0  0  0  0  0  0  0
  190.6410  177.3750  139.7240 C   0  0  2  0  0  3  0  0  0  0  0  0
  190.5330  174.4020  137.5650 O   0  0  0  0  0  0  0  0  0  0  0  0
  188.3870  177.1570  138.6270 C   0  0  0  0  0  2  0  0  0  0  0  0
  188.9180  176.0520  137.8360 N   0  0  0  0  0  2  0  0  0  0  0  0
  189.5000  178.1220  139.0230 C   0  0  0  0  0  2  0  0  0  0  0  0
  191.2620  176.3090  138.8170 C   0  0  2  0  0  3  0  0  0  0  0  0
  192.1760  176.9480  137.8800 N   0  0  0  0  0  2  0  0  0  0  0  0
  194.1590  176.9630  136.6750 O   0  0  0  0  0  0  0  0  0  0  0  0
  193.4450  176.3860  137.5390 C   0  0  0  0  0  0  0  0  0  0  0  0
  193.8990  175.1890  138.1830 N   0  0  0  0  0  2  0  0  0  0  0  0
  195.1400  174.5270  137.9150 C   0  0  0  0  0  0  0  0  0  0  0  0
  195.9390  174.9660  137.0470 O   0  0  0  0  0  0  0  0  0  0  0  0
  195.4880  173.2970  138.6730 C   0  0  0  0  0  1  0  0  0  0  0  0
  190.1930  176.7550  141.0490 C   0  0  0  0  0  2  0  0  0  0  0  0
  189.2890  177.6810  141.8640 C   0  0  1  0  0  3  0  0  0  0  0  0
  188.1770  176.9400  142.4400 N   0  0  0  0  0  2  0  0  0  0  0  0
  187.1130  177.7780  142.4620 O   0  0  0  0  0  1  0  0  0  0  0  0
  190.0440  178.3450  142.9170 N   0  0  0  0  0  2  0  0  0  0  0  0
  189.3470  178.0330  145.2330 C   0  0  0  0  0  2  0  0  0  0  0  0
  189.4310  177.0990  146.4380 C   0  0  0  0  0  2  0  0  0  0  0  0
  191.6500  176.2620  145.6340 C   0  0  0  0  0  2  0  0  0  0  0  0
  190.1060  177.4350  144.0490 C   0  0  0  0  0  3  0  0  0  0  0  0
  190.8900  176.8600  146.8150 C   0  0  0  0  0  2  0  0  0  0  0  0
  191.5650  177.1960  144.4280 C   0  0  0  0  0  2  0  0  0  0  0  0
  1  7  1  0  0  0  0
  2 15  1  1  0  0  0
  3  1  2  0  0  0  0
  4  6  1  0  0  0  0
  5  1  1  0  0  0  0
  5  4  1  0  0  0  0
  6  2  1  0  0  0  0
  7  8  1  6  0  0  0
  7  2  1  0  0  0  0
  9 10  2  0  0  0  0
 10  8  1  0  0  0  0
 10 11  1  0  0  0  0
 12 11  1  0  0  0  0
 12 14  1  0  0  0  0
 13 12  2  0  0  0  0
 16 15  1  1  0  0  0
 16 17  1  0  0  0  0
 16 19  1  0  0  0  0
 17 18  1  0  0  0  0
 19 23  1  0  0  0  0
 20 21  1  0  0  0  0
 21 24  1  0  0  0  0
 22 24  1  0  0  0  0
 23 25  1  0  0  0  0
 23 20  1  0  0  0  0
 25 22  1  0  0  0  0
M  END
>  <MODEL>
5

>  <REMARK>
 VINA RESULT:      -6.8      3.034      5.114
  Name = 
  6 active torsions:
  status: ('A' for Active; 'I' for Inactive)
    1  A    between atoms: C_2  and  C_7
    2  A    between atoms: C_2  and  N_9
    3  A    between atoms: C_2  and  N_23
    4  A    between atoms: N_3  and  C_25
    5  A    between atoms: C_6  and  C_7
    6  A    between atoms: C_20  and  N_23
                            x       y       z     vdW  Elec       q    Type
                         _______ _______ _______ _____ _____    ______ ____

>  <TORSDO>
F 6

$$$$
=
 OpenBabel11062413513D

 25 26  0  0  1  0  0  0  0  0999 V2000
  191.1640  176.7250  145.8540 C   0  0  0  0  0  0  0  0  0  0  0  0
  189.2150  177.6950  144.5710 C   0  0  2  0  0  3  0  0  0  0  0  0
  191.6500  175.8400  146.6060 O   0  0  0  0  0  0  0  0  0  0  0  0
  191.5640  178.3830  143.9890 C   0  0  0  0  0  2  0  0  0  0  0  0
  192.0410  177.5690  145.1020 N   0  0  0  0  0  2  0  0  0  0  0  0
  190.1420  178.8720  144.2470 C   0  0  0  0  0  2  0  0  0  0  0  0
  189.6730  176.9400  145.8230 C   0  0  2  0  0  3  0  0  0  0  0  0
  189.2520  177.6740  147.0080 N   0  0  0  0  0  2  0  0  0  0  0  0
  187.6130  178.7470  148.2500 O   0  0  0  0  0  0  0  0  0  0  0  0
  187.9230  178.1730  147.1730 C   0  0  0  0  0  0  0  0  0  0  0  0
  186.9640  178.0300  146.1170 N   0  0  0  0  0  2  0  0  0  0  0  0
  185.6040  178.4740  146.1710 C   0  0  0  0  0  0  0  0  0  0  0  0
  185.1400  179.0290  147.2010 O   0  0  0  0  0  0  0  0  0  0  0  0
  184.7250  178.2710  144.9910 C   0  0  0  0  0  1  0  0  0  0  0  0
  189.0720  176.7340  143.3890 C   0  0  0  0  0  2  0  0  0  0  0  0
  188.2330  177.3130  142.2490 C   0  0  1  0  0  3  0  0  0  0  0  0
  187.1180  178.0870  142.7720 N   0  0  0  0  0  2  0  0  0  0  0  0
  186.5070  178.6670  141.7110 O   0  0  0  0  0  1  0  0  0  0  0  0
  189.0510  178.1440  141.3770 N   0  0  0  0  0  2  0  0  0  0  0  0
  190.5850  176.7920  140.0490 C   0  0  0  0  0  2  0  0  0  0  0  0
  190.7660  176.0720  138.7160 C   0  0  0  0  0  2  0  0  0  0  0  0
  189.2050  177.6990  137.6260 C   0  0  0  0  0  2  0  0  0  0  0  0
  189.2010  177.4380  140.1160 C   0  0  0  0  0  3  0  0  0  0  0  0
  190.5870  177.0540  137.5610 C   0  0  0  0  0  2  0  0  0  0  0  0
  189.0240  178.4180  138.9610 C   0  0  0  0  0  2  0  0  0  0  0  0
  1  3  2  0  0  0  0
  2 15  1  6  0  0  0
  2  7  1  0  0  0  0
  4  6  1  0  0  0  0
  4  5  1  0  0  0  0
  5  1  1  0  0  0  0
  6  2  1  0  0  0  0
  7  1  1  0  0  0  0
  7  8  1  1  0  0  0
  8 10  1  0  0  0  0
 10  9  2  0  0  0  0
 11 12  1  0  0  0  0
 11 10  1  0  0  0  0
 12 13  2  0  0  0  0
 14 12  1  0  0  0  0
 16 17  1  0  0  0  0
 16 15  1  1  0  0  0
 18 17  1  0  0  0  0
 19 16  1  0  0  0  0
 20 23  1  0  0  0  0
 21 20  1  0  0  0  0
 22 25  1  0  0  0  0
 23 19  1  0  0  0  0
 24 22  1  0  0  0  0
 24 21  1  0  0  0  0
 25 23  1  0  0  0  0
M  END
>  <MODEL>
6

>  <REMARK>
 VINA RESULT:      -6.7      3.271      7.003
  Name = 
  6 active torsions:
  status: ('A' for Active; 'I' for Inactive)
    1  A    between atoms: C_2  and  C_7
    2  A    between atoms: C_2  and  N_9
    3  A    between atoms: C_2  and  N_23
    4  A    between atoms: N_3  and  C_25
    5  A    between atoms: C_6  and  C_7
    6  A    between atoms: C_20  and  N_23
                            x       y       z     vdW  Elec       q    Type
                         _______ _______ _______ _____ _____    ______ ____

>  <TORSDO>
F 6

$$$$
=
 OpenBabel11062413513D

 25 26  0  0  1  0  0  0  0  0999 V2000
  189.7830  176.4200  138.4560 C   0  0  0  0  0  0  0  0  0  0  0  0
  188.7710  178.3220  139.7770 C   0  0  2  0  0  3  0  0  0  0  0  0
  190.1470  175.2180  138.3670 O   0  0  0  0  0  0  0  0  0  0  0  0
  188.8790  178.4580  137.2670 C   0  0  0  0  0  2  0  0  0  0  0  0
  189.5940  177.1880  137.2630 N   0  0  0  0  0  2  0  0  0  0  0  0
  189.1150  179.2090  138.5740 C   0  0  0  0  0  2  0  0  0  0  0  0
  189.6340  177.0570  139.8130 C   0  0  2  0  0  3  0  0  0  0  0  0
  190.9460  177.3840  140.3540 N   0  0  0  0  0  2  0  0  0  0  0  0
  192.3890  177.6420  142.1520 O   0  0  0  0  0  0  0  0  0  0  0  0
  191.2160  177.4100  141.7570 C   0  0  0  0  0  0  0  0  0  0  0  0
  190.1580  177.1850  142.6980 N   0  0  0  0  0  2  0  0  0  0  0  0
  190.3080  177.1710  144.1210 C   0  0  0  0  0  0  0  0  0  0  0  0
  191.4310  177.3480  144.6600 O   0  0  0  0  0  0  0  0  0  0  0  0
  189.1150  176.9380  144.9770 C   0  0  0  0  0  1  0  0  0  0  0  0
  187.2860  177.9580  139.8170 C   0  0  0  0  0  2  0  0  0  0  0  0
  186.5120  178.7350  140.8830 C   0  0  1  0  0  3  0  0  0  0  0  0
  185.3900  179.4470  140.2900 N   0  0  0  0  0  2  0  0  0  0  0  0
  185.3830  179.1420  138.9700 O   0  0  0  0  0  1  0  0  0  0  0  0
  186.0360  177.8410  141.9300 N   0  0  0  0  0  2  0  0  0  0  0  0
  185.9120  178.2070  144.3370 C   0  0  0  0  0  2  0  0  0  0  0  0
  185.2550  179.0450  145.4310 C   0  0  0  0  0  2  0  0  0  0  0  0
  183.2490  179.3790  143.9690 C   0  0  0  0  0  2  0  0  0  0  0  0
  185.4270  178.6630  142.9620 C   0  0  0  0  0  3  0  0  0  0  0  0
  183.7360  178.9240  145.3430 C   0  0  0  0  0  2  0  0  0  0  0  0
  183.9080  178.5420  142.8750 C   0  0  0  0  0  2  0  0  0  0  0  0
  1  7  1  0  0  0  0
  2  7  1  0  0  0  0
  2 15  1  6  0  0  0
  3  1  2  0  0  0  0
  4  6  1  0  0  0  0
  5  4  1  0  0  0  0
  5  1  1  0  0  0  0
  6  2  1  0  0  0  0
  7  8  1  6  0  0  0
  8 10  1  0  0  0  0
 10  9  2  0  0  0  0
 10 11  1  0  0  0  0
 11 12  1  0  0  0  0
 12 13  2  0  0  0  0
 12 14  1  0  0  0  0
 16 15  1  6  0  0  0
 16 19  1  0  0  0  0
 17 16  1  0  0  0  0
 18 17  1  0  0  0  0
 19 23  1  0  0  0  0
 20 21  1  0  0  0  0
 22 24  1  0  0  0  0
 23 20  1  0  0  0  0
 24 21  1  0  0  0  0
 25 23  1  0  0  0  0
 25 22  1  0  0  0  0
M  END
>  <MODEL>
7

>  <REMARK>
 VINA RESULT:      -6.7      1.612      4.326
  Name = 
  6 active torsions:
  status: ('A' for Active; 'I' for Inactive)
    1  A    between atoms: C_2  and  C_7
    2  A    between atoms: C_2  and  N_9
    3  A    between atoms: C_2  and  N_23
    4  A    between atoms: N_3  and  C_25
    5  A    between atoms: C_6  and  C_7
    6  A    between atoms: C_20  and  N_23
                            x       y       z     vdW  Elec       q    Type
                         _______ _______ _______ _____ _____    ______ ____

>  <TORSDO>
F 6

$$$$
=
 OpenBabel11062413513D

 25 26  0  0  1  0  0  0  0  0999 V2000
  181.8640  178.7150  137.8200 C   0  0  0  0  0  0  0  0  0  0  0  0
  183.1300  179.1240  139.9680 C   0  0  2  0  0  3  0  0  0  0  0  0
  181.4370  179.1170  136.7060 O   0  0  0  0  0  0  0  0  0  0  0  0
  182.6970  176.7680  139.1990 C   0  0  0  0  0  2  0  0  0  0  0  0
  181.9290  177.3110  138.0840 N   0  0  0  0  0  2  0  0  0  0  0  0
  182.6710  177.7230  140.3890 C   0  0  0  0  0  2  0  0  0  0  0  0
  182.2210  179.7170  138.8870 C   0  0  2  0  0  3  0  0  0  0  0  0
  181.0100  180.2350  139.5070 N   0  0  0  0  0  2  0  0  0  0  0  0
  179.3240  181.8220  139.6460 O   0  0  0  0  0  0  0  0  0  0  0  0
  180.4050  181.4660  139.1070 C   0  0  0  0  0  0  0  0  0  0  0  0
  181.0330  182.2870  138.1140 N   0  0  0  0  0  2  0  0  0  0  0  0
  180.5180  183.5290  137.6220 C   0  0  0  0  0  0  0  0  0  0  0  0
  179.4240  183.9910  138.0400 O   0  0  0  0  0  0  0  0  0  0  0  0
  181.2860  184.2820  136.5980 C   0  0  0  0  0  1  0  0  0  0  0  0
  184.5890  179.1390  139.5090 C   0  0  0  0  0  2  0  0  0  0  0  0
  185.5590  178.6740  140.5950 C   0  0  1  0  0  3  0  0  0  0  0  0
  186.9110  178.5680  140.0680 N   0  0  0  0  0  2  0  0  0  0  0  0
  186.8050  178.5020  138.7200 O   0  0  0  0  0  1  0  0  0  0  0  0
  185.5380  179.5850  141.7310 N   0  0  0  0  0  2  0  0  0  0  0  0
  184.5100  179.6480  143.9410 C   0  0  0  0  0  2  0  0  0  0  0  0
  184.2400  178.8370  145.2060 C   0  0  0  0  0  2  0  0  0  0  0  0
  186.3050  177.4870  144.7800 C   0  0  0  0  0  2  0  0  0  0  0  0
  185.2610  178.7950  142.9190 C   0  0  0  0  0  3  0  0  0  0  0  0
  185.5550  178.3390  145.8000 C   0  0  0  0  0  2  0  0  0  0  0  0
  186.5740  178.2970  143.5150 C   0  0  0  0  0  2  0  0  0  0  0  0
  1  5  1  0  0  0  0
  1  7  1  0  0  0  0
  2 15  1  6  0  0  0
  2  6  1  0  0  0  0
  3  1  2  0  0  0  0
  4  6  1  0  0  0  0
  5  4  1  0  0  0  0
  7  8  1  1  0  0  0
  7  2  1  0  0  0  0
 10  8  1  0  0  0  0
 10  9  2  0  0  0  0
 11 10  1  0  0  0  0
 12 13  2  0  0  0  0
 12 11  1  0  0  0  0
 14 12  1  0  0  0  0
 16 15  1  6  0  0  0
 16 19  1  0  0  0  0
 17 16  1  0  0  0  0
 18 17  1  0  0  0  0
 19 23  1  0  0  0  0
 20 21  1  0  0  0  0
 21 24  1  0  0  0  0
 22 24  1  0  0  0  0
 23 25  1  0  0  0  0
 23 20  1  0  0  0  0
 25 22  1  0  0  0  0
M  END
>  <MODEL>
8

>  <REMARK>
 VINA RESULT:      -6.6      4.910      7.622
  Name = 
  6 active torsions:
  status: ('A' for Active; 'I' for Inactive)
    1  A    between atoms: C_2  and  C_7
    2  A    between atoms: C_2  and  N_9
    3  A    between atoms: C_2  and  N_23
    4  A    between atoms: N_3  and  C_25
    5  A    between atoms: C_6  and  C_7
    6  A    between atoms: C_20  and  N_23
                            x       y       z     vdW  Elec       q    Type
                         _______ _______ _______ _____ _____    ______ ____

>  <TORSDO>
F 6

$$$$
=
 OpenBabel11062413513D

 25 26  0  0  1  0  0  0  0  0999 V2000
  190.0280  178.2340  143.4100 C   0  0  0  0  0  0  0  0  0  0  0  0
  187.8460  177.4010  142.4470 C   0  0  2  0  0  3  0  0  0  0  0  0
  191.0570  178.9550  143.3320 O   0  0  0  0  0  0  0  0  0  0  0  0
  188.3070  177.1450  144.9060 C   0  0  0  0  0  2  0  0  0  0  0  0
  189.6340  177.7060  144.6810 N   0  0  0  0  0  2  0  0  0  0  0  0
  187.7930  176.4510  143.6490 C   0  0  0  0  0  2  0  0  0  0  0  0
  189.2760  177.8690  142.1570 C   0  0  2  0  0  3  0  0  0  0  0  0
  189.9880  176.8220  141.4380 N   0  0  0  0  0  2  0  0  0  0  0  0
  190.8180  175.9220  139.4670 O   0  0  0  0  0  0  0  0  0  0  0  0
  190.1370  176.8280  140.0170 C   0  0  0  0  0  0  0  0  0  0  0  0
  189.5060  177.8480  139.2320 N   0  0  0  0  0  2  0  0  0  0  0  0
  189.5940  177.9670  137.8080 C   0  0  0  0  0  0  0  0  0  0  0  0
  190.2750  177.1560  137.1270 O   0  0  0  0  0  0  0  0  0  0  0  0
  188.8730  179.0720  137.1230 C   0  0  0  0  0  1  0  0  0  0  0  0
  186.9150  178.6020  142.6200 C   0  0  0  0  0  2  0  0  0  0  0  0
  185.4430  178.2010  142.7390 C   0  0  1  0  0  3  0  0  0  0  0  0
  184.9640  178.3960  144.0990 N   0  0  0  0  0  2  0  0  0  0  0  0
  183.6200  178.5460  144.0260 O   0  0  0  0  0  1  0  0  0  0  0  0
  184.6240  178.9640  141.8080 N   0  0  0  0  0  2  0  0  0  0  0  0
  184.8220  178.9480  139.3780 C   0  0  0  0  0  2  0  0  0  0  0  0
  184.6000  178.1090  138.1220 C   0  0  0  0  0  2  0  0  0  0  0  0
  182.7530  176.8730  139.2750 C   0  0  0  0  0  2  0  0  0  0  0  0
  184.4360  178.1470  140.6210 C   0  0  0  0  0  3  0  0  0  0  0  0
  183.1400  177.6730  138.0340 C   0  0  0  0  0  2  0  0  0  0  0  0
  182.9760  177.7120  140.5310 C   0  0  0  0  0  2  0  0  0  0  0  0
  1  5  1  0  0  0  0
  2 15  1  1  0  0  0
  2  6  1  0  0  0  0
  3  1  2  0  0  0  0
  5  4  1  0  0  0  0
  6  4  1  0  0  0  0
  7  8  1  1  0  0  0
  7  2  1  0  0  0  0
  7  1  1  0  0  0  0
  9 10  2  0  0  0  0
 10  8  1  0  0  0  0
 11 10  1  0  0  0  0
 12 11  1  0  0  0  0
 13 12  2  0  0  0  0
 14 12  1  0  0  0  0
 16 15  1  1  0  0  0
 16 17  1  0  0  0  0
 18 17  1  0  0  0  0
 19 16  1  0  0  0  0
 20 23  1  0  0  0  0
 21 20  1  0  0  0  0
 22 25  1  0  0  0  0
 23 19  1  0  0  0  0
 24 21  1  0  0  0  0
 24 22  1  0  0  0  0
 25 23  1  0  0  0  0
M  END
>  <MODEL>
9

>  <REMARK>
 VINA RESULT:      -6.6      2.697      3.854
  Name = 
  6 active torsions:
  status: ('A' for Active; 'I' for Inactive)
    1  A    between atoms: C_2  and  C_7
    2  A    between atoms: C_2  and  N_9
    3  A    between atoms: C_2  and  N_23
    4  A    between atoms: N_3  and  C_25
    5  A    between atoms: C_6  and  C_7
    6  A    between atoms: C_20  and  N_23
                            x       y       z     vdW  Elec       q    Type
                         _______ _______ _______ _____ _____    ______ ____

>  <TORSDO>
F 6

$$$$
