=
 OpenBabel11062411043D

 64 70  0  0  1  0  0  0  0  0999 V2000
  187.5520  178.3560  144.1450 C   0  0  1  0  0  3  0  0  0  0  0  0
  191.5280  174.8810  143.9700 Cl  0  0  0  0  0  0  0  0  0  0  0  0
  189.8440  177.7860  140.0210 N   0  0  0  0  0  0  0  0  0  0  0  0
  189.8360  177.3320  141.2790 C   0  0  0  0  0  0  0  0  0  0  0  0
  188.6370  177.6610  143.3490 C   0  0  0  0  0  0  0  0  0  0  0  0
  188.8690  178.7210  139.9350 C   0  0  0  0  0  3  0  0  0  0  0  0
  190.6850  176.3820  141.8490 C   0  0  0  0  0  3  0  0  0  0  0  0
  188.8460  177.9480  141.9960 C   0  0  0  0  0  0  0  0  0  0  0  0
  190.4940  176.0670  143.2040 C   0  0  0  0  0  0  0  0  0  0  0  0
  189.4810  176.7020  143.9500 C   0  0  0  0  0  3  0  0  0  0  0  0
  188.2070  178.8460  141.1590 C   0  0  0  0  0  3  0  0  0  0  0  0
  190.8140  177.4400  138.9840 C   0  0  0  0  0  2  0  0  0  0  0  0
  190.3710  176.2120  138.1870 C   0  0  2  0  0  3  0  0  0  0  0  0
  191.5180  175.4110  137.6290 C   0  0  0  0  0  0  0  0  0  0  0  0
  194.4940  175.7820  136.0810 C   0  0  0  0  0  1  0  0  0  0  0  0
  193.8610  173.5530  137.1800 C   0  0  1  0  0  3  0  0  0  0  0  0
  191.3680  174.5300  136.6650 N   0  0  0  0  0  0  0  0  0  0  0  0
  193.8070  174.9280  137.1450 C   0  0  1  0  0  0  0  0  0  0  0  0
  192.9150  175.6750  138.0370 N   0  0  0  0  0  2  0  0  0  0  0  0
  192.6960  174.2210  136.5260 N   0  0  0  0  0  0  0  0  0  0  0  0
  195.1420  171.6650  136.1540 C   0  0  0  0  0  3  0  0  0  0  0  0
  194.7520  172.9440  136.1300 C   0  0  0  0  0  3  0  0  0  0  0  0
  195.6580  170.7820  138.3310 N   0  0  0  0  0  1  0  0  0  0  0  0
  194.7200  170.7120  137.2260 C   0  0  0  0  0  2  0  0  0  0  0  0
  189.7550  177.4580  136.2750 O   0  0  0  0  0  0  0  0  0  0  0  0
  189.4090  176.6340  137.1090 C   0  0  0  0  0  0  0  0  0  0  0  0
  187.6470  175.5090  135.8000 N   0  0  0  0  0  2  0  0  0  0  0  0
  186.8980  177.0970  137.3970 C   0  0  1  0  0  3  0  0  0  0  0  0
  186.1990  175.6590  135.6990 C   0  0  0  0  0  2  0  0  0  0  0  0
  187.1880  178.5040  136.8910 C   0  0  0  0  0  1  0  0  0  0  0  0
  185.7200  176.5900  136.7210 N   0  0  0  0  0  2  0  0  0  0  0  0
  187.9960  176.1000  137.0760 C   0  0  2  0  0  3  0  0  0  0  0  0
  183.8030  178.5870  143.0680 C   0  0  1  0  0  3  0  0  0  0  0  0
  184.1830  178.4370  141.5820 C   0  0  1  0  0  3  0  0  0  0  0  0
  185.5120  180.1850  143.5930 O   0  0  0  0  0  1  0  0  0  0  0  0
  185.5560  177.7770  141.3790 C   0  0  0  0  0  2  0  0  0  0  0  0
  186.1200  177.8480  143.8310 C   0  0  1  0  0  3  0  0  0  0  0  0
  185.0090  178.9290  143.9690 C   0  0  2  0  0  0  0  0  0  0  0  0
  185.9710  176.9450  142.5920 C   0  0  0  0  0  2  0  0  0  0  0  0
  184.5380  178.9690  145.4090 C   0  0  0  0  0  0  0  0  0  0  0  0
  183.7970  177.8200  146.0200 C   0  0  0  0  0  1  0  0  0  0  0  0
  184.8000  179.9320  146.1120 O   0  0  0  0  0  0  0  0  0  0  0  0
  183.5220  177.7910  139.5650 C   0  0  0  0  0  1  0  0  0  0  0  0
  183.2080  177.6830  140.9210 O   0  0  0  0  0  0  0  0  0  0  0  0
  182.7560  179.5430  143.2310 O   0  0  0  0  0  0  0  0  0  0  0  0
  181.4480  179.1740  143.5640 C   0  0  0  0  0  0  0  0  0  0  0  0
  181.1900  178.8610  144.7570 O   0  0  0  0  0  0  0  0  0  0  0  0
  178.9500  178.9340  140.0360 C   0  0  0  0  0  3  0  0  0  0  0  0
  179.0670  181.4000  139.7290 C   0  0  0  0  0  1  0  0  0  0  0  0
  180.3780  180.3160  141.5940 C   0  0  1  0  0  3  0  0  0  0  0  0
  180.4250  177.7860  141.6980 C   0  0  0  0  0  2  0  0  0  0  0  0
  181.5310  180.3350  140.8000 O   0  0  0  0  0  1  0  0  0  0  0  0
  179.4830  177.7930  140.5090 C   0  0  0  0  0  0  0  0  0  0  0  0
  179.1170  180.2610  140.7290 C   0  0  2  0  0  3  0  0  0  0  0  0
  180.3740  179.0920  142.5110 C   0  0  1  0  0  3  0  0  0  0  0  0
  179.2390  176.5370  139.7280 C   0  0  0  0  0  2  0  0  0  0  0  0
  179.8940  176.5530  138.4910 O   0  0  0  0  0  0  0  0  0  0  0  0
  179.7330  174.3630  139.0250 C   0  0  0  0  0  1  0  0  0  0  0  0
  180.5920  175.3890  138.4570 N   0  0  0  0  0  2  0  0  0  0  0  0
  187.8380  178.3290  145.6560 C   0  0  1  0  0  3  0  0  0  0  0  0
  187.1750  177.1260  146.3190 C   0  0  0  0  0  1  0  0  0  0  0  0
  189.2160  178.2590  145.8920 O   0  0  0  0  0  0  0  0  0  0  0  0
  189.3320  178.0160  147.1840 O   0  0  0  0  0  0  0  0  0  0  0  0
  190.4400  177.1680  147.2880 C   0  0  0  0  0  1  0  0  0  0  0  0
  1 60  1  1  0  0  0
  3  4  1  0  0  0  0
  4  7  2  0  0  0  0
  4  8  1  0  0  0  0
  5 10  1  0  0  0  0
  5  1  1  0  0  0  0
  6  3  1  0  0  0  0
  6 11  2  0  0  0  0
  7  9  1  0  0  0  0
  8  5  2  0  0  0  0
  9 10  2  0  0  0  0
  9  2  1  0  0  0  0
 11  8  1  0  0  0  0
 12  3  1  0  0  0  0
 13 12  1  6  0  0  0
 14 19  1  0  0  0  0
 14 13  1  0  0  0  0
 16 22  1  6  0  0  0
 17 14  2  0  0  0  0
 18 15  1  6  0  0  0
 18 16  1  0  0  0  0
 18 19  1  0  0  0  0
 20 17  1  0  0  0  0
 20 18  1  0  0  0  0
 20 16  1  0  0  0  0
 21 24  1  0  0  0  0
 22 21  2  0  0  0  0
 24 23  1  0  0  0  0
 25 26  2  0  0  0  0
 26 13  1  0  0  0  0
 27 32  1  0  0  0  0
 28 30  1  6  0  0  0
 29 27  1  0  0  0  0
 29 31  1  0  0  0  0
 31 28  1  0  0  0  0
 32 26  1  6  0  0  0
 32 28  1  0  0  0  0
 33 45  1  6  0  0  0
 33 38  1  0  0  0  0
 34 44  1  6  0  0  0
 34 33  1  0  0  0  0
 36 34  1  0  0  0  0
 36 39  1  0  0  0  0
 37 38  1  0  0  0  0
 37  1  1  6  0  0  0
 38 35  1  6  0  0  0
 38 40  1  0  0  0  0
 39 37  1  0  0  0  0
 40 41  1  0  0  0  0
 40 42  2  0  0  0  0
 43 44  1  0  0  0  0
 45 46  1  0  0  0  0
 46 47  2  0  0  0  0
 48 53  2  0  0  0  0
 48 54  1  0  0  0  0
 50 52  1  6  0  0  0
 50 55  1  0  0  0  0
 51 55  1  0  0  0  0
 53 51  1  0  0  0  0
 54 49  1  6  0  0  0
 54 50  1  0  0  0  0
 55 46  1  1  0  0  0
 56 53  1  0  0  0  0
 57 56  1  0  0  0  0
 59 57  1  0  0  0  0
 59 58  1  0  0  0  0
 60 62  1  0  0  0  0
 60 61  1  6  0  0  0
 62 63  1  0  0  0  0
 63 64  1  0  0  0  0
M  END
>  <MODEL>
1

>  <REMARK>
 VINA RESULT:      -4.3      0.000      0.000
  Name = 
  20 active torsions:
  status: ('A' for Active; 'I' for Inactive)
    1  A    between atoms: C_3  and  C_30
    2  A    between atoms: C_5  and  O_58
    3  A    between atoms: C_6  and  C_33
    4  A    between atoms: C_7  and  C_49
    5  A    between atoms: N_9  and  C_56
    6  A    between atoms: C_12  and  C_43
    7  A    between atoms: C_12  and  O_64
    8  A    between atoms: C_14  and  O_58
    9  A    between atoms: C_14  and  C_63
   10  A    between atoms: O_15  and  O_40
   11  A    between atoms: C_19  and  O_47
   12  A    between atoms: C_20  and  C_48
   13  A    between atoms: C_26  and  C_39
   14  A    between atoms: C_30  and  C_53
   15  A    between atoms: C_30  and  C_56
   16  A    between atoms: C_31  and  C_48
   17  A    between atoms: C_38  and  O_40
   18  A    between atoms: C_38  and  C_48
   19  A    between atoms: N_45  and  O_64
   20  A    between atoms: C_53  and  C_61
                            x       y       z     vdW  Elec       q    Type
                         _______ _______ _______ _____ _____    ______ ____

>  <TORSDO>
F 20

$$$$
=
 OpenBabel11062411043D

 64 70  0  0  1  0  0  0  0  0999 V2000
  183.4590  178.5910  142.1120 C   0  0  1  0  0  3  0  0  0  0  0  0
  178.9390  181.0710  140.9600 Cl  0  0  0  0  0  0  0  0  0  0  0  0
  180.3300  176.3550  139.3200 N   0  0  0  0  0  0  0  0  0  0  0  0
  180.5000  177.5060  139.9790 C   0  0  0  0  0  0  0  0  0  0  0  0
  182.1260  178.5960  141.3930 C   0  0  0  0  0  0  0  0  0  0  0  0
  181.4290  175.6000  139.5570 C   0  0  0  0  0  3  0  0  0  0  0  0
  179.6160  178.5810  140.0600 C   0  0  0  0  0  3  0  0  0  0  0  0
  181.7120  177.5090  140.6170 C   0  0  0  0  0  0  0  0  0  0  0  0
  180.0070  179.6910  140.8260 C   0  0  0  0  0  0  0  0  0  0  0  0
  181.2500  179.6990  141.4900 C   0  0  0  0  0  3  0  0  0  0  0  0
  182.3320  176.2980  140.3630 C   0  0  0  0  0  3  0  0  0  0  0  0
  179.1260  175.9400  138.6030 C   0  0  0  0  0  2  0  0  0  0  0  0
  179.3870  175.7970  137.1030 C   0  0  2  0  0  3  0  0  0  0  0  0
  180.0370  174.4900  136.7270 C   0  0  0  0  0  0  0  0  0  0  0  0
  179.3430  171.4990  135.3260 C   0  0  0  0  0  1  0  0  0  0  0  0
  181.7690  172.2930  135.5800 C   0  0  1  0  0  3  0  0  0  0  0  0
  180.6140  173.7030  137.6080 N   0  0  0  0  0  0  0  0  0  0  0  0
  180.4360  172.5660  135.3690 C   0  0  1  0  0  0  0  0  0  0  0  0
  179.9380  173.9440  135.3560 N   0  0  0  0  0  2  0  0  0  0  0  0
  180.9120  172.6860  136.7390 N   0  0  0  0  0  0  0  0  0  0  0  0
  183.3420  170.3520  135.7160 C   0  0  0  0  0  3  0  0  0  0  0  0
  182.0920  170.8240  135.6620 C   0  0  0  0  0  3  0  0  0  0  0  0
  185.6930  170.4990  135.2280 N   0  0  0  0  0  1  0  0  0  0  0  0
  184.5420  171.2430  135.7080 C   0  0  0  0  0  2  0  0  0  0  0  0
  181.4080  176.9170  136.6010 O   0  0  0  0  0  0  0  0  0  0  0  0
  180.1870  176.9760  136.6180 C   0  0  0  0  0  0  0  0  0  0  0  0
  179.5140  178.4710  134.7740 N   0  0  0  0  0  2  0  0  0  0  0  0
  180.0530  179.5330  136.8270 C   0  0  1  0  0  3  0  0  0  0  0  0
  179.4560  179.9190  134.6060 C   0  0  0  0  0  2  0  0  0  0  0  0
  181.5630  179.5090  137.0330 C   0  0  0  0  0  1  0  0  0  0  0  0
  179.7270  180.5830  135.8820 N   0  0  0  0  0  2  0  0  0  0  0  0
  179.5060  178.2610  136.2080 C   0  0  2  0  0  3  0  0  0  0  0  0
  186.7340  178.4230  139.9850 C   0  0  1  0  0  3  0  0  0  0  0  0
  185.9290  178.1330  138.7030 C   0  0  1  0  0  3  0  0  0  0  0  0
  185.5390  176.8750  141.3730 O   0  0  0  0  0  1  0  0  0  0  0  0
  184.4640  178.5860  138.8000 C   0  0  0  0  0  2  0  0  0  0  0  0
  184.6370  179.1250  141.2540 C   0  0  1  0  0  3  0  0  0  0  0  0
  185.9070  178.2260  141.2750 C   0  0  2  0  0  0  0  0  0  0  0  0
  184.2740  179.6710  139.8600 C   0  0  0  0  0  2  0  0  0  0  0  0
  186.7660  178.6180  142.4600 C   0  0  0  0  0  0  0  0  0  0  0  0
  187.2800  177.5940  143.4260 C   0  0  0  0  0  1  0  0  0  0  0  0
  187.0940  179.7830  142.6200 O   0  0  0  0  0  0  0  0  0  0  0  0
  186.3570  177.8950  136.5400 C   0  0  0  0  0  1  0  0  0  0  0  0
  186.5350  178.7680  137.6150 O   0  0  0  0  0  0  0  0  0  0  0  0
  187.9300  177.6460  140.0220 O   0  0  0  0  0  0  0  0  0  0  0  0
  189.0070  177.8870  139.1630 C   0  0  0  0  0  0  0  0  0  0  0  0
  189.1980  179.0590  138.7420 O   0  0  0  0  0  0  0  0  0  0  0  0
  191.6340  175.0730  137.1800 C   0  0  0  0  0  3  0  0  0  0  0  0
  189.7090  174.0550  135.9760 C   0  0  0  0  0  1  0  0  0  0  0  0
  189.3250  176.0540  137.4680 C   0  0  1  0  0  3  0  0  0  0  0  0
  191.3510  177.2020  138.4620 C   0  0  0  0  0  2  0  0  0  0  0  0
  189.3560  176.8990  136.3520 O   0  0  0  0  0  1  0  0  0  0  0  0
  192.1940  176.1280  137.8000 C   0  0  0  0  0  0  0  0  0  0  0  0
  190.1540  174.7910  137.2250 C   0  0  2  0  0  3  0  0  0  0  0  0
  189.8960  176.7620  138.6980 C   0  0  1  0  0  3  0  0  0  0  0  0
  193.6790  176.2940  137.6840 C   0  0  0  0  0  2  0  0  0  0  0  0
  194.3720  175.2020  138.2200 O   0  0  0  0  0  0  0  0  0  0  0  0
  195.5230  173.4480  137.3810 C   0  0  0  0  0  1  0  0  0  0  0  0
  195.2870  174.8780  137.2710 N   0  0  0  0  0  2  0  0  0  0  0  0
  183.3860  179.3080  143.4710 C   0  0  1  0  0  3  0  0  0  0  0  0
  182.2380  178.7650  144.3160 C   0  0  0  0  0  1  0  0  0  0  0  0
  184.5790  179.1310  144.1810 O   0  0  0  0  0  0  0  0  0  0  0  0
  184.2500  179.2870  145.4500 O   0  0  0  0  0  0  0  0  0  0  0  0
  185.2470  178.6090  146.1600 C   0  0  0  0  0  1  0  0  0  0  0  0
  1 60  1  1  0  0  0
  3  6  1  0  0  0  0
  3  4  1  0  0  0  0
  4  7  2  0  0  0  0
  4  8  1  0  0  0  0
  5 10  1  0  0  0  0
  5  1  1  0  0  0  0
  6 11  2  0  0  0  0
  7  9  1  0  0  0  0
  8  5  2  0  0  0  0
  9  2  1  0  0  0  0
  9 10  2  0  0  0  0
 11  8  1  0  0  0  0
 12  3  1  0  0  0  0
 13 12  1  1  0  0  0
 14 13  1  0  0  0  0
 14 17  2  0  0  0  0
 16 22  1  1  0  0  0
 16 20  1  0  0  0  0
 18 15  1  6  0  0  0
 18 16  1  0  0  0  0
 18 20  1  0  0  0  0
 19 18  1  0  0  0  0
 19 14  1  0  0  0  0
 20 17  1  0  0  0  0
 22 21  2  0  0  0  0
 23 24  1  0  0  0  0
 24 21  1  0  0  0  0
 25 26  2  0  0  0  0
 26 13  1  0  0  0  0
 27 32  1  0  0  0  0
 28 30  1  6  0  0  0
 29 27  1  0  0  0  0
 29 31  1  0  0  0  0
 31 28  1  0  0  0  0
 32 26  1  6  0  0  0
 32 28  1  0  0  0  0
 33 45  1  1  0  0  0
 33 38  1  0  0  0  0
 34 44  1  6  0  0  0
 34 36  1  0  0  0  0
 34 33  1  0  0  0  0
 36 39  1  0  0  0  0
 37 38  1  0  0  0  0
 37  1  1  6  0  0  0
 38 35  1  1  0  0  0
 38 40  1  0  0  0  0
 39 37  1  0  0  0  0
 40 42  2  0  0  0  0
 40 41  1  0  0  0  0
 43 44  1  0  0  0  0
 46 45  1  0  0  0  0
 47 46  2  0  0  0  0
 48 54  1  0  0  0  0
 48 53  2  0  0  0  0
 50 52  1  6  0  0  0
 50 55  1  0  0  0  0
 51 55  1  0  0  0  0
 53 51  1  0  0  0  0
 54 49  1  6  0  0  0
 54 50  1  0  0  0  0
 55 46  1  6  0  0  0
 56 53  1  0  0  0  0
 56 57  1  0  0  0  0
 59 58  1  0  0  0  0
 59 57  1  0  0  0  0
 60 62  1  0  0  0  0
 60 61  1  1  0  0  0
 62 63  1  0  0  0  0
 63 64  1  0  0  0  0
M  END
>  <MODEL>
2

>  <REMARK>
 VINA RESULT:      -3.8      3.359      9.680
  Name = 
  20 active torsions:
  status: ('A' for Active; 'I' for Inactive)
    1  A    between atoms: C_3  and  C_30
    2  A    between atoms: C_5  and  O_58
    3  A    between atoms: C_6  and  C_33
    4  A    between atoms: C_7  and  C_49
    5  A    between atoms: N_9  and  C_56
    6  A    between atoms: C_12  and  C_43
    7  A    between atoms: C_12  and  O_64
    8  A    between atoms: C_14  and  O_58
    9  A    between atoms: C_14  and  C_63
   10  A    between atoms: O_15  and  O_40
   11  A    between atoms: C_19  and  O_47
   12  A    between atoms: C_20  and  C_48
   13  A    between atoms: C_26  and  C_39
   14  A    between atoms: C_30  and  C_53
   15  A    between atoms: C_30  and  C_56
   16  A    between atoms: C_31  and  C_48
   17  A    between atoms: C_38  and  O_40
   18  A    between atoms: C_38  and  C_48
   19  A    between atoms: N_45  and  O_64
   20  A    between atoms: C_53  and  C_61
                            x       y       z     vdW  Elec       q    Type
                         _______ _______ _______ _____ _____    ______ ____

>  <TORSDO>
F 20

$$$$
=
 OpenBabel11062411043D

 64 70  0  0  1  0  0  0  0  0999 V2000
  188.8230  177.1960  140.9220 C   0  0  1  0  0  3  0  0  0  0  0  0
  185.7050  179.3150  144.6240 Cl  0  0  0  0  0  0  0  0  0  0  0  0
  184.6890  179.0940  139.5460 N   0  0  0  0  0  0  0  0  0  0  0  0
  185.4270  178.8900  140.6420 C   0  0  0  0  0  0  0  0  0  0  0  0
  187.5390  177.9120  141.2860 C   0  0  0  0  0  0  0  0  0  0  0  0
  185.3760  178.5640  138.5060 C   0  0  0  0  0  3  0  0  0  0  0  0
  185.1130  179.2320  141.9580 C   0  0  0  0  0  3  0  0  0  0  0  0
  186.5950  178.2560  140.3130 C   0  0  0  0  0  0  0  0  0  0  0  0
  186.0450  178.9060  142.9560 C   0  0  0  0  0  0  0  0  0  0  0  0
  187.2470  178.2490  142.6260 C   0  0  0  0  0  3  0  0  0  0  0  0
  186.5920  178.0350  138.9470 C   0  0  0  0  0  3  0  0  0  0  0  0
  183.3400  179.6520  139.5040 C   0  0  0  0  0  2  0  0  0  0  0  0
  182.3000  178.6460  139.9970 C   0  0  2  0  0  3  0  0  0  0  0  0
  182.0750  177.4980  139.0470 C   0  0  0  0  0  0  0  0  0  0  0  0
  183.6080  174.7650  137.7940 C   0  0  0  0  0  1  0  0  0  0  0  0
  181.0690  175.0560  137.5750 C   0  0  1  0  0  3  0  0  0  0  0  0
  181.8120  177.6730  137.7710 N   0  0  0  0  0  0  0  0  0  0  0  0
  182.2390  175.2440  138.2750 C   0  0  1  0  0  0  0  0  0  0  0  0
  182.2810  176.0950  139.4680 N   0  0  0  0  0  2  0  0  0  0  0  0
  181.8090  176.3460  137.4280 N   0  0  0  0  0  0  0  0  0  0  0  0
  180.6450  173.0430  136.1510 C   0  0  0  0  0  3  0  0  0  0  0  0
  181.2250  174.2360  136.3220 C   0  0  0  0  0  3  0  0  0  0  0  0
  179.5290  171.0260  136.8400 N   0  0  0  0  0  1  0  0  0  0  0  0
  179.7750  172.4130  137.1900 C   0  0  0  0  0  2  0  0  0  0  0  0
  180.4010  179.9330  139.4250 O   0  0  0  0  0  0  0  0  0  0  0  0
  181.0160  179.3650  140.3160 C   0  0  0  0  0  0  0  0  0  0  0  0
  181.5160  179.1220  142.7190 N   0  0  0  0  0  2  0  0  0  0  0  0
  179.2980  178.5910  142.0620 C   0  0  1  0  0  3  0  0  0  0  0  0
  180.7720  178.6180  143.8680 C   0  0  0  0  0  2  0  0  0  0  0  0
  179.2880  177.2540  141.3330 C   0  0  0  0  0  1  0  0  0  0  0  0
  179.3860  178.3460  143.4880 N   0  0  0  0  0  2  0  0  0  0  0  0
  180.5040  179.4500  141.7350 C   0  0  2  0  0  3  0  0  0  0  0  0
  190.9620  177.2550  137.6520 C   0  0  1  0  0  3  0  0  0  0  0  0
  189.7050  177.0580  136.7840 C   0  0  1  0  0  3  0  0  0  0  0  0
  190.3990  175.5800  139.2740 O   0  0  0  0  0  1  0  0  0  0  0  0
  188.4110  177.4770  137.4980 C   0  0  0  0  0  2  0  0  0  0  0  0
  189.5660  177.8170  139.7090 C   0  0  1  0  0  3  0  0  0  0  0  0
  190.7210  176.9400  139.1450 C   0  0  2  0  0  0  0  0  0  0  0  0
  188.6820  178.4690  138.6290 C   0  0  0  0  0  2  0  0  0  0  0  0
  191.9910  177.2480  139.9120 C   0  0  0  0  0  0  0  0  0  0  0  0
  193.2070  176.3830  139.7900 C   0  0  0  0  0  1  0  0  0  0  0  0
  192.0560  178.2450  140.6140 O   0  0  0  0  0  0  0  0  0  0  0  0
  188.7730  177.3660  134.7940 C   0  0  0  0  0  1  0  0  0  0  0  0
  189.8330  177.7880  135.5990 O   0  0  0  0  0  0  0  0  0  0  0  0
  192.0580  176.4970  137.1410 O   0  0  0  0  0  0  0  0  0  0  0  0
  191.8980  175.2130  136.6080 C   0  0  0  0  0  0  0  0  0  0  0  0
  190.9090  174.9840  135.8620 O   0  0  0  0  0  0  0  0  0  0  0  0
  195.0130  172.2260  136.9660 C   0  0  0  0  0  3  0  0  0  0  0  0
  193.7690  170.6830  135.4620 C   0  0  0  0  0  1  0  0  0  0  0  0
  192.8510  172.9920  135.9080 C   0  0  1  0  0  3  0  0  0  0  0  0
  194.2830  174.6040  137.2350 C   0  0  0  0  0  2  0  0  0  0  0  0
  193.4000  173.4480  134.7030 O   0  0  0  0  0  1  0  0  0  0  0  0
  195.2870  173.4750  137.3840 C   0  0  0  0  0  0  0  0  0  0  0  0
  193.6520  171.8140  136.4660 C   0  0  2  0  0  3  0  0  0  0  0  0
  192.8550  174.1030  136.9590 C   0  0  1  0  0  3  0  0  0  0  0  0
  196.6790  173.7580  137.8630 C   0  0  0  0  0  2  0  0  0  0  0  0
  196.9630  175.1280  137.8700 O   0  0  0  0  0  0  0  0  0  0  0  0
  197.5310  175.5570  135.7260 C   0  0  0  0  0  1  0  0  0  0  0  0
  198.0400  175.2590  137.0540 N   0  0  0  0  0  2  0  0  0  0  0  0
  189.7590  177.0390  142.1320 C   0  0  1  0  0  3  0  0  0  0  0  0
  189.7290  178.2820  143.0160 C   0  0  0  0  0  1  0  0  0  0  0  0
  189.3760  175.9380  142.9080 O   0  0  0  0  0  0  0  0  0  0  0  0
  190.3850  175.0910  142.8260 O   0  0  0  0  0  0  0  0  0  0  0  0
  191.3890  175.6590  143.6180 C   0  0  0  0  0  1  0  0  0  0  0  0
  1  5  1  0  0  0  0
  1 60  1  1  0  0  0
  3  4  1  0  0  0  0
  4  7  1  0  0  0  0
  5 10  2  0  0  0  0
  6 11  2  0  0  0  0
  6  3  1  0  0  0  0
  7  9  2  0  0  0  0
  8  4  2  0  0  0  0
  8  5  1  0  0  0  0
  9  2  1  0  0  0  0
 10  9  1  0  0  0  0
 11  8  1  0  0  0  0
 12  3  1  0  0  0  0
 13 12  1  6  0  0  0
 13 26  1  0  0  0  0
 14 19  1  0  0  0  0
 14 13  1  0  0  0  0
 16 22  1  6  0  0  0
 16 18  1  0  0  0  0
 17 14  2  0  0  0  0
 18 15  1  6  0  0  0
 18 19  1  0  0  0  0
 20 16  1  0  0  0  0
 20 17  1  0  0  0  0
 20 18  1  0  0  0  0
 21 22  2  0  0  0  0
 21 24  1  0  0  0  0
 23 24  1  0  0  0  0
 25 26  2  0  0  0  0
 27 29  1  0  0  0  0
 28 30  1  6  0  0  0
 28 31  1  0  0  0  0
 31 29  1  0  0  0  0
 32 26  1  6  0  0  0
 32 28  1  0  0  0  0
 32 27  1  0  0  0  0
 33 45  1  6  0  0  0
 33 38  1  0  0  0  0
 34 44  1  6  0  0  0
 34 36  1  0  0  0  0
 34 33  1  0  0  0  0
 36 39  1  0  0  0  0
 37  1  1  1  0  0  0
 38 35  1  1  0  0  0
 38 37  1  0  0  0  0
 38 40  1  0  0  0  0
 39 37  1  0  0  0  0
 40 42  2  0  0  0  0
 41 40  1  0  0  0  0
 43 44  1  0  0  0  0
 46 45  1  0  0  0  0
 47 46  2  0  0  0  0
 48 53  2  0  0  0  0
 50 52  1  6  0  0  0
 50 54  1  0  0  0  0
 50 55  1  0  0  0  0
 51 53  1  0  0  0  0
 53 56  1  0  0  0  0
 54 49  1  6  0  0  0
 54 48  1  0  0  0  0
 55 46  1  6  0  0  0
 55 51  1  0  0  0  0
 56 57  1  0  0  0  0
 58 59  1  0  0  0  0
 59 57  1  0  0  0  0
 60 62  1  0  0  0  0
 60 61  1  1  0  0  0
 63 62  1  0  0  0  0
 63 64  1  0  0  0  0
M  END
>  <MODEL>
3

>  <REMARK>
 VINA RESULT:      -3.6      3.115     10.892
  Name = 
  20 active torsions:
  status: ('A' for Active; 'I' for Inactive)
    1  A    between atoms: C_3  and  C_30
    2  A    between atoms: C_5  and  O_58
    3  A    between atoms: C_6  and  C_33
    4  A    between atoms: C_7  and  C_49
    5  A    between atoms: N_9  and  C_56
    6  A    between atoms: C_12  and  C_43
    7  A    between atoms: C_12  and  O_64
    8  A    between atoms: C_14  and  O_58
    9  A    between atoms: C_14  and  C_63
   10  A    between atoms: O_15  and  O_40
   11  A    between atoms: C_19  and  O_47
   12  A    between atoms: C_20  and  C_48
   13  A    between atoms: C_26  and  C_39
   14  A    between atoms: C_30  and  C_53
   15  A    between atoms: C_30  and  C_56
   16  A    between atoms: C_31  and  C_48
   17  A    between atoms: C_38  and  O_40
   18  A    between atoms: C_38  and  C_48
   19  A    between atoms: N_45  and  O_64
   20  A    between atoms: C_53  and  C_61
                            x       y       z     vdW  Elec       q    Type
                         _______ _______ _______ _____ _____    ______ ____

>  <TORSDO>
F 20

$$$$
=
 OpenBabel11062411043D

 64 70  0  0  1  0  0  0  0  0999 V2000
  182.0200  178.1680  139.5520 C   0  0  1  0  0  3  0  0  0  0  0  0
  180.5590  179.2570  134.5940 Cl  0  0  0  0  0  0  0  0  0  0  0  0
  184.3430  176.0100  136.0110 N   0  0  0  0  0  0  0  0  0  0  0  0
  183.3580  176.8900  136.2270 C   0  0  0  0  0  0  0  0  0  0  0  0
  182.2120  177.9580  138.0650 C   0  0  0  0  0  0  0  0  0  0  0  0
  184.7970  175.6230  137.2270 C   0  0  0  0  0  3  0  0  0  0  0  0
  182.5670  177.5350  135.2760 C   0  0  0  0  0  3  0  0  0  0  0  0
  183.1930  177.0920  137.5710 C   0  0  0  0  0  0  0  0  0  0  0  0
  181.5780  178.4170  135.7410 C   0  0  0  0  0  0  0  0  0  0  0  0
  181.3990  178.6260  137.1230 C   0  0  0  0  0  3  0  0  0  0  0  0
  184.1050  176.2930  138.2390 C   0  0  0  0  0  3  0  0  0  0  0  0
  184.7470  175.4680  134.7160 C   0  0  0  0  0  2  0  0  0  0  0  0
  184.3950  173.9850  134.5940 C   0  0  2  0  0  3  0  0  0  0  0  0
  183.1800  173.5870  135.3920 C   0  0  0  0  0  0  0  0  0  0  0  0
  181.5700  170.8670  136.5750 C   0  0  0  0  0  1  0  0  0  0  0  0
  181.0440  173.2020  137.4970 C   0  0  1  0  0  3  0  0  0  0  0  0
  181.9560  173.8860  135.0200 N   0  0  0  0  0  0  0  0  0  0  0  0
  181.9370  172.2960  136.9710 C   0  0  1  0  0  0  0  0  0  0  0  0
  183.2880  172.7060  136.5750 N   0  0  0  0  0  2  0  0  0  0  0  0
  181.3160  173.2130  136.0280 N   0  0  0  0  0  0  0  0  0  0  0  0
  178.9390  172.9570  138.8270 C   0  0  0  0  0  3  0  0  0  0  0  0
  179.6720  172.6370  137.7550 C   0  0  0  0  0  3  0  0  0  0  0  0
  179.0190  175.2650  139.5000 N   0  0  0  0  0  1  0  0  0  0  0  0
  179.4110  173.9170  139.8700 C   0  0  0  0  0  2  0  0  0  0  0  0
  185.6550  171.9840  134.6010 O   0  0  0  0  0  0  0  0  0  0  0  0
  185.5970  173.1520  134.9570 C   0  0  0  0  0  0  0  0  0  0  0  0
  187.7270  174.3930  135.0310 N   0  0  0  0  0  2  0  0  0  0  0  0
  187.4350  172.7320  136.7010 C   0  0  1  0  0  3  0  0  0  0  0  0
  188.9430  174.2830  135.8300 C   0  0  0  0  0  2  0  0  0  0  0  0
  187.5890  171.3500  136.0790 C   0  0  0  0  0  1  0  0  0  0  0  0
  188.7510  173.3050  136.9020 N   0  0  0  0  0  2  0  0  0  0  0  0
  186.7070  173.7200  135.8090 C   0  0  2  0  0  3  0  0  0  0  0  0
  185.0450  178.9220  141.9090 C   0  0  1  0  0  3  0  0  0  0  0  0
  186.0440  178.4330  140.8430 C   0  0  1  0  0  3  0  0  0  0  0  0
  183.5120  177.0950  141.6580 O   0  0  0  0  0  1  0  0  0  0  0  0
  185.4650  178.4650  139.4190 C   0  0  0  0  0  2  0  0  0  0  0  0
  183.1410  179.0110  140.2170 C   0  0  1  0  0  3  0  0  0  0  0  0
  183.5900  178.4960  141.6150 C   0  0  2  0  0  0  0  0  0  0  0  0
  184.3010  179.4480  139.3020 C   0  0  0  0  0  2  0  0  0  0  0  0
  182.6890  179.0990  142.6740 C   0  0  0  0  0  0  0  0  0  0  0  0
  182.3170  178.3380  143.9090 C   0  0  0  0  0  1  0  0  0  0  0  0
  182.2870  180.2460  142.5550 O   0  0  0  0  0  0  0  0  0  0  0  0
  188.2500  178.3340  140.6340 C   0  0  0  0  0  1  0  0  0  0  0  0
  187.2000  179.2180  140.8870 O   0  0  0  0  0  0  0  0  0  0  0  0
  185.4460  178.5030  143.2130 O   0  0  0  0  0  0  0  0  0  0  0  0
  186.6370  177.8070  143.4430 C   0  0  0  0  0  0  0  0  0  0  0  0
  186.9880  176.9150  142.6270 O   0  0  0  0  0  0  0  0  0  0  0  0
  188.6600  177.9440  147.2700 C   0  0  0  0  0  3  0  0  0  0  0  0
  186.7440  179.1600  148.2910 C   0  0  0  0  0  1  0  0  0  0  0  0
  186.5930  178.3940  145.8900 C   0  0  1  0  0  3  0  0  0  0  0  0
  188.4600  176.9420  144.9870 C   0  0  0  0  0  2  0  0  0  0  0  0
  185.8680  177.2650  146.2920 O   0  0  0  0  0  1  0  0  0  0  0  0
  189.1420  177.1090  146.3320 C   0  0  0  0  0  0  0  0  0  0  0  0
  187.5110  178.8840  147.0120 C   0  0  2  0  0  3  0  0  0  0  0  0
  187.4640  178.0730  144.6750 C   0  0  1  0  0  3  0  0  0  0  0  0
  190.2920  176.2270  146.7130 C   0  0  0  0  0  2  0  0  0  0  0  0
  191.3850  176.9630  147.1860 O   0  0  0  0  0  0  0  0  0  0  0  0
  192.0170  175.1540  145.9890 C   0  0  0  0  0  1  0  0  0  0  0  0
  192.4660  176.1950  146.8990 N   0  0  0  0  0  2  0  0  0  0  0  0
  180.6260  178.7290  139.8810 C   0  0  1  0  0  3  0  0  0  0  0  0
  179.9920  177.9750  141.0450 C   0  0  0  0  0  1  0  0  0  0  0  0
  180.7130  180.0820  140.2280 O   0  0  0  0  0  0  0  0  0  0  0  0
  179.6390  180.6420  139.7030 O   0  0  0  0  0  0  0  0  0  0  0  0
  179.2560  181.6140  140.6330 C   0  0  0  0  0  1  0  0  0  0  0  0
  1 60  1  6  0  0  0
  2  9  1  0  0  0  0
  3  4  1  0  0  0  0
  3  6  1  0  0  0  0
  4  8  1  0  0  0  0
  5  1  1  0  0  0  0
  6 11  2  0  0  0  0
  7  9  1  0  0  0  0
  7  4  2  0  0  0  0
  8  5  2  0  0  0  0
  8 11  1  0  0  0  0
  9 10  2  0  0  0  0
 10  5  1  0  0  0  0
 12  3  1  0  0  0  0
 13 12  1  1  0  0  0
 13 26  1  0  0  0  0
 13 14  1  0  0  0  0
 14 19  1  0  0  0  0
 16 22  1  6  0  0  0
 17 14  2  0  0  0  0
 17 20  1  0  0  0  0
 18 15  1  6  0  0  0
 18 16  1  0  0  0  0
 19 18  1  0  0  0  0
 20 18  1  0  0  0  0
 20 16  1  0  0  0  0
 21 24  1  0  0  0  0
 22 21  2  0  0  0  0
 23 24  1  0  0  0  0
 25 26  2  0  0  0  0
 27 32  1  0  0  0  0
 27 29  1  0  0  0  0
 28 30  1  6  0  0  0
 28 31  1  0  0  0  0
 29 31  1  0  0  0  0
 32 26  1  6  0  0  0
 32 28  1  0  0  0  0
 33 45  1  1  0  0  0
 34 44  1  6  0  0  0
 34 33  1  0  0  0  0
 36 34  1  0  0  0  0
 37  1  1  6  0  0  0
 37 38  1  0  0  0  0
 38 35  1  1  0  0  0
 38 33  1  0  0  0  0
 38 40  1  0  0  0  0
 39 36  1  0  0  0  0
 39 37  1  0  0  0  0
 40 41  1  0  0  0  0
 42 40  2  0  0  0  0
 43 44  1  0  0  0  0
 45 46  1  0  0  0  0
 47 46  2  0  0  0  0
 50 52  1  1  0  0  0
 50 54  1  0  0  0  0
 51 53  1  0  0  0  0
 53 56  1  0  0  0  0
 53 48  2  0  0  0  0
 54 48  1  0  0  0  0
 54 49  1  1  0  0  0
 55 46  1  6  0  0  0
 55 51  1  0  0  0  0
 55 50  1  0  0  0  0
 56 57  1  0  0  0  0
 58 59  1  0  0  0  0
 59 57  1  0  0  0  0
 60 62  1  0  0  0  0
 60 61  1  1  0  0  0
 63 62  1  0  0  0  0
 63 64  1  0  0  0  0
M  END
>  <MODEL>
4

>  <REMARK>
 VINA RESULT:      -3.4      3.571      9.387
  Name = 
  20 active torsions:
  status: ('A' for Active; 'I' for Inactive)
    1  A    between atoms: C_3  and  C_30
    2  A    between atoms: C_5  and  O_58
    3  A    between atoms: C_6  and  C_33
    4  A    between atoms: C_7  and  C_49
    5  A    between atoms: N_9  and  C_56
    6  A    between atoms: C_12  and  C_43
    7  A    between atoms: C_12  and  O_64
    8  A    between atoms: C_14  and  O_58
    9  A    between atoms: C_14  and  C_63
   10  A    between atoms: O_15  and  O_40
   11  A    between atoms: C_19  and  O_47
   12  A    between atoms: C_20  and  C_48
   13  A    between atoms: C_26  and  C_39
   14  A    between atoms: C_30  and  C_53
   15  A    between atoms: C_30  and  C_56
   16  A    between atoms: C_31  and  C_48
   17  A    between atoms: C_38  and  O_40
   18  A    between atoms: C_38  and  C_48
   19  A    between atoms: N_45  and  O_64
   20  A    between atoms: C_53  and  C_61
                            x       y       z     vdW  Elec       q    Type
                         _______ _______ _______ _____ _____    ______ ____

>  <TORSDO>
F 20

$$$$
=
 OpenBabel11062411043D

 64 71  0  0  1  0  0  0  0  0999 V2000
  187.8580  177.5600  143.3070 C   0  0  1  0  0  3  0  0  0  0  0  0
  183.3870  179.3770  145.4560 Cl  0  0  0  0  0  0  0  0  0  0  0  0
  184.4270  179.0740  140.3870 N   0  0  0  0  0  0  0  0  0  0  0  0
  184.7010  178.9360  141.6890 C   0  0  0  0  0  0  0  0  0  0  0  0
  186.4770  178.1540  143.1260 C   0  0  0  0  0  0  0  0  0  0  0  0
  185.5040  178.6110  139.7090 C   0  0  0  0  0  3  0  0  0  0  0  0
  183.8760  179.2460  142.7710 C   0  0  0  0  0  3  0  0  0  0  0  0
  185.9550  178.4130  141.8550 C   0  0  0  0  0  0  0  0  0  0  0  0
  184.3760  179.0040  144.0610 C   0  0  0  0  0  0  0  0  0  0  0  0
  185.6640  178.4610  144.2390 C   0  0  0  0  0  3  0  0  0  0  0  0
  186.4960  178.1940  140.6000 C   0  0  0  0  0  0  0  0  0  0  0  0
  183.1550  179.5070  139.8130 C   0  0  0  0  0  2  0  0  0  0  0  0
  182.1690  178.3440  139.6920 C   0  0  2  0  0  3  0  0  0  0  0  0
  182.4330  177.4510  138.5080 C   0  0  0  0  0  0  0  0  0  0  0  0
  181.4760  176.9510  135.3100 C   0  0  0  0  0  1  0  0  0  0  0  0
  183.6360  175.8990  136.2080 C   0  0  1  0  0  3  0  0  0  0  0  0
  182.2480  176.1510  138.5420 N   0  0  0  0  0  0  0  0  0  0  0  0
  182.7210  176.9280  136.1950 C   0  0  1  0  0  0  0  0  0  0  0  0
  182.7820  178.0090  137.1830 N   0  0  0  0  0  2  0  0  0  0  0  0
  182.5400  175.9150  137.2240 N   0  0  0  0  0  0  0  0  0  0  0  0
  183.9030  173.5980  135.2610 C   0  0  0  0  0  3  0  0  0  0  0  0
  183.3690  174.8230  135.1900 C   0  0  0  0  0  3  0  0  0  0  0  0
  184.1340  172.2160  137.2170 N   0  0  0  0  0  1  0  0  0  0  0  0
  184.8140  173.1800  136.3700 C   0  0  0  0  0  2  0  0  0  0  0  0
  180.2170  179.1390  138.6210 O   0  0  0  0  0  0  0  0  0  0  0  0
  180.7620  178.8790  139.6840 C   0  0  0  0  0  0  0  0  0  0  0  0
  180.9240  179.3460  142.1010 N   0  0  0  0  0  2  0  0  0  0  0  0
  179.0140  178.1200  141.4070 C   0  0  1  0  0  3  0  0  0  0  0  0
  180.1440  178.9530  143.2690 C   0  0  0  0  0  2  0  0  0  0  0  0
  179.4210  176.6930  141.0630 C   0  0  0  0  0  1  0  0  0  0  0  0
  178.9320  178.2490  142.8490 N   0  0  0  0  0  2  0  0  0  0  0  0
  180.0300  179.1600  140.9750 C   0  0  2  0  0  3  0  0  0  0  0  0
  190.7140  177.5540  140.6390 C   0  0  1  0  0  3  0  0  0  0  0  0
  189.6880  177.5550  139.4890 C   0  0  1  0  0  3  0  0  0  0  0  0
  189.6130  175.8670  141.9400 O   0  0  0  0  0  1  0  0  0  0  0  0
  188.3090  178.0820  139.9160 C   0  0  2  0  0  3  0  0  0  0  0  0
  188.9280  178.1570  142.3550 C   0  0  1  0  0  3  0  0  0  0  0  0
  190.0910  177.1850  142.0030 C   0  0  2  0  0  0  0  0  0  0  0  0
  188.3990  178.9690  141.1570 C   0  0  0  0  0  2  0  0  0  0  0  0
  191.1650  177.2980  143.0670 C   0  0  0  0  0  0  0  0  0  0  0  0
  191.5780  178.6260  143.6230 C   0  0  0  0  0  1  0  0  0  0  0  0
  191.6810  176.2910  143.5250 O   0  0  0  0  0  0  0  0  0  0  0  0
  189.0810  178.4900  137.5700 C   0  0  0  0  0  1  0  0  0  0  0  0
  190.1690  178.3320  138.4310 O   0  0  0  0  0  0  0  0  0  0  0  0
  191.8180  176.7030  140.3350 O   0  0  0  0  0  0  0  0  0  0  0  0
  192.7800  177.0370  139.3750 C   0  0  0  0  0  0  0  0  0  0  0  0
  193.6740  177.8720  139.6760 O   0  0  0  0  0  0  0  0  0  0  0  0
  192.9560  174.7560  135.6990 C   0  0  0  0  0  3  0  0  0  0  0  0
  195.2950  175.5040  135.2930 C   0  0  0  0  0  1  0  0  0  0  0  0
  194.1180  176.1990  137.4160 C   0  0  1  0  0  3  0  0  0  0  0  0
  191.8400  175.2010  137.8930 C   0  0  0  0  0  2  0  0  0  0  0  0
  194.7520  175.1630  138.1120 O   0  0  0  0  0  1  0  0  0  0  0  0
  191.9470  174.5010  136.5510 C   0  0  0  0  0  0  0  0  0  0  0  0
  193.9640  175.8510  135.9330 C   0  0  2  0  0  3  0  0  0  0  0  0
  192.7220  176.4580  137.9850 C   0  0  1  0  0  3  0  0  0  0  0  0
  191.0070  173.3860  136.2010 C   0  0  0  0  0  2  0  0  0  0  0  0
  190.2380  173.6840  135.0710 O   0  0  0  0  0  0  0  0  0  0  0  0
  188.5900  172.7560  136.3060 C   0  0  0  0  0  1  0  0  0  0  0  0
  189.2920  172.7120  135.0340 N   0  0  0  0  0  2  0  0  0  0  0  0
  188.3210  177.6090  144.7730 C   0  0  1  0  0  3  0  0  0  0  0  0
  187.1420  177.8360  145.7140 C   0  0  0  0  0  1  0  0  0  0  0  0
  188.9440  176.4070  145.1290 O   0  0  0  0  0  0  0  0  0  0  0  0
  189.9100  176.7530  145.9600 O   0  0  0  0  0  0  0  0  0  0  0  0
  189.3090  176.7500  147.2230 C   0  0  0  0  0  1  0  0  0  0  0  0
  1 60  1  1  0  0  0
  3  4  1  0  0  0  0
  4  8  2  0  0  0  0
  4  7  1  0  0  0  0
  5  1  1  0  0  0  0
  5 10  2  0  0  0  0
  6  3  1  0  0  0  0
  6 11  2  0  0  0  0
  7  9  2  0  0  0  0
  8  5  1  0  0  0  0
  9 10  1  0  0  0  0
  9  2  1  0  0  0  0
 11  8  1  0  0  0  0
 12  3  1  0  0  0  0
 13 12  1  6  0  0  0
 14 17  2  0  0  0  0
 14 13  1  0  0  0  0
 16 22  1  6  0  0  0
 16 20  1  0  0  0  0
 18 15  1  6  0  0  0
 18 16  1  0  0  0  0
 18 19  1  0  0  0  0
 18 20  1  0  0  0  0
 19 14  1  0  0  0  0
 20 17  1  0  0  0  0
 21 24  1  0  0  0  0
 22 21  2  0  0  0  0
 24 23  1  0  0  0  0
 25 26  2  0  0  0  0
 26 13  1  0  0  0  0
 27 29  1  0  0  0  0
 28 30  1  1  0  0  0
 28 31  1  0  0  0  0
 31 29  1  0  0  0  0
 32 26  1  6  0  0  0
 32 28  1  0  0  0  0
 32 27  1  0  0  0  0
 33 45  1  6  0  0  0
 33 38  1  0  0  0  0
 34 44  1  6  0  0  0
 34 36  1  0  0  0  0
 34 33  1  0  0  0  0
 36 11  1  0  0  0  0
 36 39  1  1  0  0  0
 37 39  1  6  0  0  0
 37  1  1  0  0  0  0
 38 35  1  6  0  0  0
 38 37  1  0  0  0  0
 38 40  1  0  0  0  0
 40 42  2  0  0  0  0
 40 41  1  0  0  0  0
 43 44  1  0  0  0  0
 46 47  2  0  0  0  0
 46 45  1  0  0  0  0
 48 54  1  0  0  0  0
 48 53  2  0  0  0  0
 50 55  1  0  0  0  0
 50 52  1  1  0  0  0
 51 55  1  0  0  0  0
 53 51  1  0  0  0  0
 54 49  1  1  0  0  0
 54 50  1  0  0  0  0
 55 46  1  1  0  0  0
 56 53  1  0  0  0  0
 57 56  1  0  0  0  0
 59 57  1  0  0  0  0
 59 58  1  0  0  0  0
 60 62  1  0  0  0  0
 60 61  1  1  0  0  0
 62 63  1  0  0  0  0
 63 64  1  0  0  0  0
M  END
>  <MODEL>
5

>  <REMARK>
 VINA RESULT:      -3.3      2.976      9.364
  Name = 
  20 active torsions:
  status: ('A' for Active; 'I' for Inactive)
    1  A    between atoms: C_3  and  C_30
    2  A    between atoms: C_5  and  O_58
    3  A    between atoms: C_6  and  C_33
    4  A    between atoms: C_7  and  C_49
    5  A    between atoms: N_9  and  C_56
    6  A    between atoms: C_12  and  C_43
    7  A    between atoms: C_12  and  O_64
    8  A    between atoms: C_14  and  O_58
    9  A    between atoms: C_14  and  C_63
   10  A    between atoms: O_15  and  O_40
   11  A    between atoms: C_19  and  O_47
   12  A    between atoms: C_20  and  C_48
   13  A    between atoms: C_26  and  C_39
   14  A    between atoms: C_30  and  C_53
   15  A    between atoms: C_30  and  C_56
   16  A    between atoms: C_31  and  C_48
   17  A    between atoms: C_38  and  O_40
   18  A    between atoms: C_38  and  C_48
   19  A    between atoms: N_45  and  O_64
   20  A    between atoms: C_53  and  C_61
                            x       y       z     vdW  Elec       q    Type
                         _______ _______ _______ _____ _____    ______ ____

>  <TORSDO>
F 20

$$$$
=
 OpenBabel11062411043D

 64 70  0  0  1  0  0  0  0  0999 V2000
  188.0400  177.2900  143.1780 C   0  0  1  0  0  3  0  0  0  0  0  0
  184.4390  179.3480  146.4500 Cl  0  0  0  0  0  0  0  0  0  0  0  0
  183.8160  178.5090  141.3730 N   0  0  0  0  0  0  0  0  0  0  0  0
  184.4940  178.5060  142.5260 C   0  0  0  0  0  0  0  0  0  0  0  0
  186.6580  177.8700  143.3900 C   0  0  0  0  0  0  0  0  0  0  0  0
  184.6330  177.9710  140.4360 C   0  0  0  0  0  3  0  0  0  0  0  0
  184.0500  178.9330  143.7780 C   0  0  0  0  0  3  0  0  0  0  0  0
  185.7500  177.9970  142.3330 C   0  0  0  0  0  0  0  0  0  0  0  0
  184.9410  178.8250  144.8580 C   0  0  0  0  0  0  0  0  0  0  0  0
  186.2340  178.2960  144.6680 C   0  0  0  0  0  3  0  0  0  0  0  0
  185.8690  177.6450  141.0000 C   0  0  0  0  0  3  0  0  0  0  0  0
  182.4160  178.8860  141.1960 C   0  0  0  0  0  2  0  0  0  0  0  0
  181.5040  177.6580  141.1570 C   0  0  2  0  0  3  0  0  0  0  0  0
  181.6410  176.8460  139.8950 C   0  0  0  0  0  0  0  0  0  0  0  0
  179.8360  174.9540  137.7610 C   0  0  0  0  0  1  0  0  0  0  0  0
  182.1480  175.8400  137.0900 C   0  0  1  0  0  3  0  0  0  0  0  0
  182.4430  175.8090  139.8000 N   0  0  0  0  0  0  0  0  0  0  0  0
  180.9620  175.9870  137.7730 C   0  0  1  0  0  0  0  0  0  0  0  0
  180.7680  177.0840  138.7250 N   0  0  0  0  0  2  0  0  0  0  0  0
  182.0810  175.4460  138.5300 N   0  0  0  0  0  0  0  0  0  0  0  0
  183.3320  173.8910  136.0590 C   0  0  0  0  0  3  0  0  0  0  0  0
  182.2150  174.6060  136.2290 C   0  0  0  0  0  3  0  0  0  0  0  0
  184.9480  173.2480  137.7220 N   0  0  0  0  0  1  0  0  0  0  0  0
  184.6250  174.2470  136.7190 C   0  0  0  0  0  2  0  0  0  0  0  0
  179.3510  177.4000  142.0990 O   0  0  0  0  0  0  0  0  0  0  0  0
  180.0790  178.0840  141.3940 C   0  0  0  0  0  0  0  0  0  0  0  0
  180.4680  179.9680  139.8510 N   0  0  0  0  0  2  0  0  0  0  0  0
  178.9710  180.3870  141.6440 C   0  0  1  0  0  3  0  0  0  0  0  0
  180.0550  181.3670  139.8280 C   0  0  0  0  0  2  0  0  0  0  0  0
  179.7560  180.5280  142.9430 C   0  0  0  0  0  1  0  0  0  0  0  0
  179.0840  181.6210  140.8920 N   0  0  0  0  0  2  0  0  0  0  0  0
  179.5130  179.3120  140.7220 C   0  0  2  0  0  3  0  0  0  0  0  0
  190.0300  177.8990  139.8700 C   0  0  1  0  0  3  0  0  0  0  0  0
  188.7470  178.3350  139.1360 C   0  0  1  0  0  3  0  0  0  0  0  0
  189.0600  175.9790  140.9290 O   0  0  0  0  0  1  0  0  0  0  0  0
  187.6400  178.8060  140.0930 C   0  0  0  0  0  2  0  0  0  0  0  0
  188.8980  178.0720  142.1470 C   0  0  1  0  0  3  0  0  0  0  0  0
  189.7470  177.1720  141.2030 C   0  0  2  0  0  0  0  0  0  0  0  0
  188.2060  179.2530  141.4400 C   0  0  0  0  0  2  0  0  0  0  0  0
  191.0710  176.8670  141.8750 C   0  0  0  0  0  0  0  0  0  0  0  0
  192.2640  177.7530  141.6890 C   0  0  0  0  0  1  0  0  0  0  0  0
  191.1700  175.9080  142.6230 O   0  0  0  0  0  0  0  0  0  0  0  0
  188.4250  178.9970  137.0430 C   0  0  0  0  0  1  0  0  0  0  0  0
  189.0460  179.3640  138.2380 O   0  0  0  0  0  0  0  0  0  0  0  0
  190.8570  177.1040  139.0210 O   0  0  0  0  0  0  0  0  0  0  0  0
  190.3440  176.0740  138.2250 C   0  0  0  0  0  0  0  0  0  0  0  0
  189.0980  175.9940  138.0640 O   0  0  0  0  0  0  0  0  0  0  0  0
  192.8680  173.5070  135.8190 C   0  0  0  0  0  3  0  0  0  0  0  0
  190.8840  172.2530  134.9930 C   0  0  0  0  0  1  0  0  0  0  0  0
  190.5540  174.2400  136.5150 C   0  0  1  0  0  3  0  0  0  0  0  0
  192.5850  175.6280  137.1140 C   0  0  0  0  0  2  0  0  0  0  0  0
  190.2880  175.0510  135.4050 O   0  0  0  0  0  1  0  0  0  0  0  0
  193.4090  174.6330  136.3180 C   0  0  0  0  0  0  0  0  0  0  0  0
  191.4610  173.0680  136.1340 C   0  0  2  0  0  3  0  0  0  0  0  0
  191.2540  175.0390  137.6150 C   0  0  1  0  0  3  0  0  0  0  0  0
  194.8210  174.9560  135.9310 C   0  0  0  0  0  2  0  0  0  0  0  0
  195.3300  176.0370  136.6600 O   0  0  0  0  0  0  0  0  0  0  0  0
  196.4530  176.1820  134.7050 C   0  0  0  0  0  1  0  0  0  0  0  0
  195.7260  176.9300  135.7170 N   0  0  0  0  0  2  0  0  0  0  0  0
  188.7960  177.0980  144.5040 C   0  0  1  0  0  3  0  0  0  0  0  0
  189.8010  178.2220  144.7310 C   0  0  0  0  0  1  0  0  0  0  0  0
  187.8990  177.0850  145.5800 O   0  0  0  0  0  0  0  0  0  0  0  0
  188.5870  177.5480  146.6060 O   0  0  0  0  0  0  0  0  0  0  0  0
  188.2030  176.7410  147.6830 C   0  0  0  0  0  1  0  0  0  0  0  0
  1  5  1  0  0  0  0
  1 60  1  1  0  0  0
  3  4  1  0  0  0  0
  4  7  1  0  0  0  0
  5 10  2  0  0  0  0
  6 11  2  0  0  0  0
  6  3  1  0  0  0  0
  7  9  2  0  0  0  0
  8  4  2  0  0  0  0
  8  5  1  0  0  0  0
  9  2  1  0  0  0  0
 10  9  1  0  0  0  0
 11  8  1  0  0  0  0
 12  3  1  0  0  0  0
 13 12  1  6  0  0  0
 13 26  1  0  0  0  0
 14 13  1  0  0  0  0
 16 22  1  6  0  0  0
 16 18  1  0  0  0  0
 16 20  1  0  0  0  0
 17 14  2  0  0  0  0
 18 15  1  6  0  0  0
 18 20  1  0  0  0  0
 18 19  1  0  0  0  0
 19 14  1  0  0  0  0
 20 17  1  0  0  0  0
 21 22  2  0  0  0  0
 21 24  1  0  0  0  0
 24 23  1  0  0  0  0
 26 25  2  0  0  0  0
 27 32  1  0  0  0  0
 28 30  1  1  0  0  0
 29 27  1  0  0  0  0
 29 31  1  0  0  0  0
 31 28  1  0  0  0  0
 32 26  1  1  0  0  0
 32 28  1  0  0  0  0
 33 45  1  6  0  0  0
 33 38  1  0  0  0  0
 34 44  1  6  0  0  0
 34 33  1  0  0  0  0
 34 36  1  0  0  0  0
 36 39  1  0  0  0  0
 37  1  1  6  0  0  0
 38 35  1  6  0  0  0
 38 40  1  0  0  0  0
 38 37  1  0  0  0  0
 39 37  1  0  0  0  0
 40 42  2  0  0  0  0
 41 40  1  0  0  0  0
 43 44  1  0  0  0  0
 46 45  1  0  0  0  0
 47 46  2  0  0  0  0
 48 54  1  0  0  0  0
 48 53  2  0  0  0  0
 50 52  1  6  0  0  0
 50 55  1  0  0  0  0
 51 55  1  0  0  0  0
 53 51  1  0  0  0  0
 54 49  1  6  0  0  0
 54 50  1  0  0  0  0
 55 46  1  6  0  0  0
 56 53  1  0  0  0  0
 56 57  1  0  0  0  0
 58 59  1  0  0  0  0
 59 57  1  0  0  0  0
 60 61  1  1  0  0  0
 60 62  1  0  0  0  0
 62 63  1  0  0  0  0
 63 64  1  0  0  0  0
M  END
>  <MODEL>
6

>  <REMARK>
 VINA RESULT:      -3.3      2.725      9.855
  Name = 
  20 active torsions:
  status: ('A' for Active; 'I' for Inactive)
    1  A    between atoms: C_3  and  C_30
    2  A    between atoms: C_5  and  O_58
    3  A    between atoms: C_6  and  C_33
    4  A    between atoms: C_7  and  C_49
    5  A    between atoms: N_9  and  C_56
    6  A    between atoms: C_12  and  C_43
    7  A    between atoms: C_12  and  O_64
    8  A    between atoms: C_14  and  O_58
    9  A    between atoms: C_14  and  C_63
   10  A    between atoms: O_15  and  O_40
   11  A    between atoms: C_19  and  O_47
   12  A    between atoms: C_20  and  C_48
   13  A    between atoms: C_26  and  C_39
   14  A    between atoms: C_30  and  C_53
   15  A    between atoms: C_30  and  C_56
   16  A    between atoms: C_31  and  C_48
   17  A    between atoms: C_38  and  O_40
   18  A    between atoms: C_38  and  C_48
   19  A    between atoms: N_45  and  O_64
   20  A    between atoms: C_53  and  C_61
                            x       y       z     vdW  Elec       q    Type
                         _______ _______ _______ _____ _____    ______ ____

>  <TORSDO>
F 20

$$$$
=
 OpenBabel11062411043D

 64 70  0  0  1  0  0  0  0  0999 V2000
  189.6810  175.9480  137.9470 C   0  0  1  0  0  3  0  0  0  0  0  0
  185.8100  179.0950  139.6850 Cl  0  0  0  0  0  0  0  0  0  0  0  0
  189.9910  177.6350  142.3790 N   0  0  0  0  0  0  0  0  0  0  0  0
  189.1920  177.6650  141.3070 C   0  0  0  0  0  0  0  0  0  0  0  0
  189.0850  176.7790  139.0630 C   0  0  0  0  0  0  0  0  0  0  0  0
  191.0570  176.8660  142.0520 C   0  0  0  0  0  3  0  0  0  0  0  0
  187.9900  178.3580  141.1580 C   0  0  0  0  0  3  0  0  0  0  0  0
  189.7210  176.9010  140.3020 C   0  0  0  0  0  0  0  0  0  0  0  0
  187.3230  178.2500  139.9270 C   0  0  0  0  0  0  0  0  0  0  0  0
  187.8650  177.4690  138.8860 C   0  0  0  0  0  3  0  0  0  0  0  0
  190.9200  176.3740  140.7520 C   0  0  0  0  0  3  0  0  0  0  0  0
  189.8130  178.4010  143.6100 C   0  0  0  0  0  2  0  0  0  0  0  0
  189.1860  177.5510  144.7150 C   0  0  2  0  0  3  0  0  0  0  0  0
  187.6980  177.7460  144.8530 C   0  0  0  0  0  0  0  0  0  0  0  0
  185.3550  178.7160  147.0810 C   0  0  0  0  0  1  0  0  0  0  0  0
  184.8070  178.5890  144.5780 C   0  0  1  0  0  3  0  0  0  0  0  0
  186.8340  176.7680  144.6930 N   0  0  0  0  0  0  0  0  0  0  0  0
  185.7020  178.8270  145.5970 C   0  0  1  0  0  0  0  0  0  0  0  0
  187.1270  179.0280  145.3220 N   0  0  0  0  0  2  0  0  0  0  0  0
  185.7170  177.4900  145.0230 N   0  0  0  0  0  0  0  0  0  0  0  0
  182.3160  178.7390  144.3970 C   0  0  0  0  0  3  0  0  0  0  0  0
  183.4030  178.3050  145.0440 C   0  0  0  0  0  3  0  0  0  0  0  0
  181.8550  178.7690  142.0360 N   0  0  0  0  0  1  0  0  0  0  0  0
  182.3930  179.5440  143.1390 C   0  0  0  0  0  2  0  0  0  0  0  0
  189.4610  178.6300  146.8010 O   0  0  0  0  0  0  0  0  0  0  0  0
  189.9040  177.8060  146.0140 C   0  0  0  0  0  0  0  0  0  0  0  0
  191.6440  176.2230  145.2730 N   0  0  0  0  0  2  0  0  0  0  0  0
  191.2150  176.2740  147.6060 C   0  0  1  0  0  3  0  0  0  0  0  0
  192.4410  175.1990  145.9390 C   0  0  0  0  0  2  0  0  0  0  0  0
  189.8870  175.5840  147.8960 C   0  0  0  0  0  1  0  0  0  0  0  0
  192.2300  175.2630  147.3860 N   0  0  0  0  0  2  0  0  0  0  0  0
  191.2010  177.1020  146.3360 C   0  0  2  0  0  3  0  0  0  0  0  0
  186.7770  174.9730  135.5200 C   0  0  1  0  0  3  0  0  0  0  0  0
  185.8660  176.0660  136.1130 C   0  0  1  0  0  3  0  0  0  0  0  0
  187.5660  174.1470  137.6280 O   0  0  0  0  0  1  0  0  0  0  0  0
  186.6510  177.1830  136.8190 C   0  0  0  0  0  2  0  0  0  0  0  0
  188.8440  175.9580  136.6400 C   0  0  1  0  0  3  0  0  0  0  0  0
  188.0070  174.6680  136.4010 C   0  0  2  0  0  0  0  0  0  0  0  0
  188.0930  177.2650  136.3200 C   0  0  0  0  0  2  0  0  0  0  0  0
  188.8700  173.6490  135.6840 C   0  0  0  0  0  0  0  0  0  0  0  0
  188.8030  172.1920  136.0230 C   0  0  0  0  0  1  0  0  0  0  0  0
  189.6080  174.0010  134.7770 O   0  0  0  0  0  0  0  0  0  0  0  0
  185.4540  177.9690  135.0510 C   0  0  0  0  0  1  0  0  0  0  0  0
  185.0810  176.6250  135.1010 O   0  0  0  0  0  0  0  0  0  0  0  0
  186.0350  173.7850  135.2480 O   0  0  0  0  0  0  0  0  0  0  0  0
  184.9340  173.3950  136.0180 C   0  0  0  0  0  0  0  0  0  0  0  0
  185.1100  173.1200  137.2340 O   0  0  0  0  0  0  0  0  0  0  0  0
  180.7550  172.9620  134.9700 C   0  0  0  0  0  3  0  0  0  0  0  0
  180.8910  170.4940  135.2620 C   0  0  0  0  0  1  0  0  0  0  0  0
  182.9110  171.9190  135.7730 C   0  0  1  0  0  3  0  0  0  0  0  0
  182.6380  174.4360  135.7050 C   0  0  0  0  0  2  0  0  0  0  0  0
  182.5920  171.8900  137.1360 O   0  0  0  0  0  1  0  0  0  0  0  0
  181.2070  174.1950  135.2610 C   0  0  0  0  0  0  0  0  0  0  0  0
  181.6570  171.7560  134.9120 C   0  0  2  0  0  3  0  0  0  0  0  0
  183.5680  173.2490  135.3990 C   0  0  1  0  0  3  0  0  0  0  0  0
  180.2090  175.3130  135.2820 C   0  0  0  0  0  2  0  0  0  0  0  0
  180.5440  176.2980  136.2190 O   0  0  0  0  0  0  0  0  0  0  0  0
  180.7390  178.2170  135.0420 C   0  0  0  0  0  1  0  0  0  0  0  0
  181.4570  177.0760  135.5860 N   0  0  0  0  0  2  0  0  0  0  0  0
  191.1500  176.3140  137.6750 C   0  0  1  0  0  3  0  0  0  0  0  0
  192.0490  175.0860  137.7740 C   0  0  0  0  0  1  0  0  0  0  0  0
  191.2880  176.8590  136.3930 O   0  0  0  0  0  0  0  0  0  0  0  0
  192.0670  176.0150  135.7420 O   0  0  0  0  0  0  0  0  0  0  0  0
  192.7260  176.8020  134.7910 C   0  0  0  0  0  1  0  0  0  0  0  0
  1 60  1  6  0  0  0
  1  5  1  0  0  0  0
  2  9  1  0  0  0  0
  3 12  1  0  0  0  0
  4  3  1  0  0  0  0
  5  8  1  0  0  0  0
  6  3  1  0  0  0  0
  7  4  1  0  0  0  0
  8 11  1  0  0  0  0
  8  4  2  0  0  0  0
  9  7  2  0  0  0  0
 10  5  2  0  0  0  0
 10  9  1  0  0  0  0
 11  6  2  0  0  0  0
 13 12  1  6  0  0  0
 13 14  1  0  0  0  0
 13 26  1  0  0  0  0
 14 19  1  0  0  0  0
 16 20  1  0  0  0  0
 16 22  1  1  0  0  0
 16 18  1  0  0  0  0
 17 14  2  0  0  0  0
 17 20  1  0  0  0  0
 18 15  1  1  0  0  0
 19 18  1  0  0  0  0
 20 18  1  0  0  0  0
 21 22  2  0  0  0  0
 23 24  1  0  0  0  0
 24 21  1  0  0  0  0
 26 25  2  0  0  0  0
 27 29  1  0  0  0  0
 27 32  1  0  0  0  0
 28 30  1  6  0  0  0
 29 31  1  0  0  0  0
 31 28  1  0  0  0  0
 32 26  1  6  0  0  0
 32 28  1  0  0  0  0
 33 45  1  1  0  0  0
 33 34  1  0  0  0  0
 33 38  1  0  0  0  0
 34 44  1  6  0  0  0
 34 36  1  0  0  0  0
 37  1  1  1  0  0  0
 38 37  1  0  0  0  0
 38 35  1  1  0  0  0
 39 37  1  0  0  0  0
 39 36  1  0  0  0  0
 40 41  1  0  0  0  0
 40 38  1  0  0  0  0
 42 40  2  0  0  0  0
 43 44  1  0  0  0  0
 45 46  1  0  0  0  0
 46 47  2  0  0  0  0
 48 53  2  0  0  0  0
 50 52  1  1  0  0  0
 53 56  1  0  0  0  0
 53 51  1  0  0  0  0
 54 48  1  0  0  0  0
 54 49  1  1  0  0  0
 54 50  1  0  0  0  0
 55 51  1  0  0  0  0
 55 50  1  0  0  0  0
 55 46  1  1  0  0  0
 56 57  1  0  0  0  0
 58 59  1  0  0  0  0
 59 57  1  0  0  0  0
 60 61  1  6  0  0  0
 62 60  1  0  0  0  0
 63 62  1  0  0  0  0
 64 63  1  0  0  0  0
M  END
>  <MODEL>
7

>  <REMARK>
 VINA RESULT:      -3.1      3.800      9.575
  Name = 
  20 active torsions:
  status: ('A' for Active; 'I' for Inactive)
    1  A    between atoms: C_3  and  C_30
    2  A    between atoms: C_5  and  O_58
    3  A    between atoms: C_6  and  C_33
    4  A    between atoms: C_7  and  C_49
    5  A    between atoms: N_9  and  C_56
    6  A    between atoms: C_12  and  C_43
    7  A    between atoms: C_12  and  O_64
    8  A    between atoms: C_14  and  O_58
    9  A    between atoms: C_14  and  C_63
   10  A    between atoms: O_15  and  O_40
   11  A    between atoms: C_19  and  O_47
   12  A    between atoms: C_20  and  C_48
   13  A    between atoms: C_26  and  C_39
   14  A    between atoms: C_30  and  C_53
   15  A    between atoms: C_30  and  C_56
   16  A    between atoms: C_31  and  C_48
   17  A    between atoms: C_38  and  O_40
   18  A    between atoms: C_38  and  C_48
   19  A    between atoms: N_45  and  O_64
   20  A    between atoms: C_53  and  C_61
                            x       y       z     vdW  Elec       q    Type
                         _______ _______ _______ _____ _____    ______ ____

>  <TORSDO>
F 20

$$$$
=
 OpenBabel11062411043D

 64 70  0  0  1  0  0  0  0  0999 V2000
  184.6740  178.3140  141.8500 C   0  0  1  0  0  3  0  0  0  0  0  0
  179.9490  180.5000  142.7490 Cl  0  0  0  0  0  0  0  0  0  0  0  0
  180.8890  176.4300  139.6800 N   0  0  0  0  0  0  0  0  0  0  0  0
  181.2250  177.4200  140.5140 C   0  0  0  0  0  0  0  0  0  0  0  0
  183.1820  178.3380  141.5910 C   0  0  0  0  0  0  0  0  0  0  0  0
  182.0290  175.7610  139.3850 C   0  0  0  0  0  3  0  0  0  0  0  0
  180.3800  178.3540  141.1150 C   0  0  0  0  0  3  0  0  0  0  0  0
  182.5760  177.4100  140.7380 C   0  0  0  0  0  0  0  0  0  0  0  0
  180.9600  179.3030  141.9700 C   0  0  0  0  0  0  0  0  0  0  0  0
  182.3490  179.2950  142.2100 C   0  0  0  0  0  3  0  0  0  0  0  0
  183.1200  176.3550  140.0250 C   0  0  0  0  0  3  0  0  0  0  0  0
  179.5330  176.0590  139.2810 C   0  0  0  0  0  2  0  0  0  0  0  0
  179.3120  176.2650  137.7820 C   0  0  2  0  0  3  0  0  0  0  0  0
  179.7370  175.0870  136.9440 C   0  0  0  0  0  0  0  0  0  0  0  0
  181.9930  174.1880  134.6000 C   0  0  0  0  0  1  0  0  0  0  0  0
  180.6810  172.4100  135.9020 C   0  0  1  0  0  3  0  0  0  0  0  0
  178.9320  174.4940  136.0900 N   0  0  0  0  0  0  0  0  0  0  0  0
  181.2880  173.6440  135.8420 C   0  0  1  0  0  0  0  0  0  0  0  0
  181.1390  174.6160  136.9280 N   0  0  0  0  0  2  0  0  0  0  0  0
  179.8560  173.6160  135.5880 N   0  0  0  0  0  0  0  0  0  0  0  0
  181.6750  170.5220  134.5960 C   0  0  0  0  0  3  0  0  0  0  0  0
  180.8540  171.5750  134.6610 C   0  0  0  0  0  3  0  0  0  0  0  0
  183.9050  170.1800  135.4310 N   0  0  0  0  0  1  0  0  0  0  0  0
  182.4960  170.0660  135.7590 C   0  0  0  0  0  2  0  0  0  0  0  0
  181.1490  177.4990  136.9510 O   0  0  0  0  0  0  0  0  0  0  0  0
  179.9920  177.5350  137.3440 C   0  0  0  0  0  0  0  0  0  0  0  0
  178.9680  179.4310  136.1440 N   0  0  0  0  0  2  0  0  0  0  0  0
  180.0150  179.9530  138.2090 C   0  0  1  0  0  3  0  0  0  0  0  0
  178.9310  180.8730  136.3600 C   0  0  0  0  0  2  0  0  0  0  0  0
  181.5280  179.9080  138.0390 C   0  0  0  0  0  1  0  0  0  0  0  0
  179.5190  181.2000  137.6590 N   0  0  0  0  0  2  0  0  0  0  0  0
  179.2870  178.8670  137.4410 C   0  0  2  0  0  3  0  0  0  0  0  0
  187.2550  178.3650  138.9160 C   0  0  1  0  0  3  0  0  0  0  0  0
  186.1650  177.9620  137.9030 C   0  0  1  0  0  3  0  0  0  0  0  0
  186.6300  176.7650  140.5900 O   0  0  0  0  0  1  0  0  0  0  0  0
  184.7440  178.2870  138.3910 C   0  0  0  0  0  2  0  0  0  0  0  0
  185.5210  178.9210  140.7000 C   0  0  1  0  0  3  0  0  0  0  0  0
  186.8290  178.1400  140.3830 C   0  0  2  0  0  0  0  0  0  0  0  0
  184.7450  179.3860  139.4520 C   0  0  0  0  0  2  0  0  0  0  0  0
  187.9350  178.6460  141.2870 C   0  0  0  0  0  0  0  0  0  0  0  0
  188.4880  177.8010  142.3940 C   0  0  0  0  0  1  0  0  0  0  0  0
  188.4290  179.7460  141.0940 O   0  0  0  0  0  0  0  0  0  0  0  0
  185.8610  177.7590  135.7150 C   0  0  0  0  0  1  0  0  0  0  0  0
  186.3920  178.6100  136.6860 O   0  0  0  0  0  0  0  0  0  0  0  0
  188.4840  177.6980  138.6320 O   0  0  0  0  0  0  0  0  0  0  0  0
  189.3540  178.1270  137.6240 C   0  0  0  0  0  0  0  0  0  0  0  0
  189.3660  179.3460  137.3090 O   0  0  0  0  0  0  0  0  0  0  0  0
  191.5770  174.7870  135.9950 C   0  0  0  0  0  3  0  0  0  0  0  0
  193.3610  175.0800  137.7050 C   0  0  0  0  0  1  0  0  0  0  0  0
  191.3110  176.5530  137.7810 C   0  0  1  0  0  3  0  0  0  0  0  0
  189.4190  176.0390  136.1780 C   0  0  0  0  0  2  0  0  0  0  0  0
  190.7480  175.7250  138.7600 O   0  0  0  0  0  1  0  0  0  0  0  0
  190.2980  174.9400  135.6090 C   0  0  0  0  0  0  0  0  0  0  0  0
  192.2820  175.7710  136.8930 C   0  0  2  0  0  3  0  0  0  0  0  0
  190.2250  177.1450  136.8830 C   0  0  1  0  0  3  0  0  0  0  0  0
  189.7130  173.8930  134.7100 C   0  0  0  0  0  2  0  0  0  0  0  0
  188.4050  173.5570  135.0760 O   0  0  0  0  0  0  0  0  0  0  0  0
  187.1920  171.6850  135.4350 C   0  0  0  0  0  1  0  0  0  0  0  0
  188.2390  172.2870  134.6270 N   0  0  0  0  0  2  0  0  0  0  0  0
  185.0340  178.9460  143.2050 C   0  0  1  0  0  3  0  0  0  0  0  0
  183.9740  179.9520  143.6420 C   0  0  0  0  0  1  0  0  0  0  0  0
  185.1390  177.9590  144.1930 O   0  0  0  0  0  0  0  0  0  0  0  0
  185.4000  178.6150  145.3090 O   0  0  0  0  0  0  0  0  0  0  0  0
  186.5260  177.9770  145.8390 C   0  0  0  0  0  1  0  0  0  0  0  0
  1 60  1  1  0  0  0
  3  4  1  0  0  0  0
  4  8  2  0  0  0  0
  4  7  1  0  0  0  0
  5  1  1  0  0  0  0
  5 10  2  0  0  0  0
  6  3  1  0  0  0  0
  6 11  2  0  0  0  0
  7  9  2  0  0  0  0
  8  5  1  0  0  0  0
  9 10  1  0  0  0  0
  9  2  1  0  0  0  0
 11  8  1  0  0  0  0
 12  3  1  0  0  0  0
 13 12  1  1  0  0  0
 14 13  1  0  0  0  0
 16 22  1  6  0  0  0
 17 14  2  0  0  0  0
 18 15  1  6  0  0  0
 18 16  1  0  0  0  0
 18 19  1  0  0  0  0
 19 14  1  0  0  0  0
 20 18  1  0  0  0  0
 20 16  1  0  0  0  0
 20 17  1  0  0  0  0
 21 22  2  0  0  0  0
 21 24  1  0  0  0  0
 23 24  1  0  0  0  0
 25 26  2  0  0  0  0
 26 13  1  0  0  0  0
 27 29  1  0  0  0  0
 27 32  1  0  0  0  0
 28 30  1  6  0  0  0
 29 31  1  0  0  0  0
 31 28  1  0  0  0  0
 32 26  1  6  0  0  0
 32 28  1  0  0  0  0
 33 45  1  6  0  0  0
 33 38  1  0  0  0  0
 34 44  1  6  0  0  0
 34 36  1  0  0  0  0
 34 33  1  0  0  0  0
 36 39  1  0  0  0  0
 37  1  1  6  0  0  0
 38 35  1  1  0  0  0
 38 37  1  0  0  0  0
 38 40  1  0  0  0  0
 39 37  1  0  0  0  0
 40 41  1  0  0  0  0
 42 40  2  0  0  0  0
 43 44  1  0  0  0  0
 46 45  1  0  0  0  0
 47 46  2  0  0  0  0
 48 54  1  0  0  0  0
 50 52  1  1  0  0  0
 51 55  1  0  0  0  0
 53 48  2  0  0  0  0
 53 51  1  0  0  0  0
 54 49  1  1  0  0  0
 54 50  1  0  0  0  0
 55 46  1  1  0  0  0
 55 50  1  0  0  0  0
 56 57  1  0  0  0  0
 56 53  1  0  0  0  0
 59 57  1  0  0  0  0
 59 58  1  0  0  0  0
 60 61  1  1  0  0  0
 60 62  1  0  0  0  0
 62 63  1  0  0  0  0
 63 64  1  0  0  0  0
M  END
>  <MODEL>
8

>  <REMARK>
 VINA RESULT:      -3.1      3.352      9.460
  Name = 
  20 active torsions:
  status: ('A' for Active; 'I' for Inactive)
    1  A    between atoms: C_3  and  C_30
    2  A    between atoms: C_5  and  O_58
    3  A    between atoms: C_6  and  C_33
    4  A    between atoms: C_7  and  C_49
    5  A    between atoms: N_9  and  C_56
    6  A    between atoms: C_12  and  C_43
    7  A    between atoms: C_12  and  O_64
    8  A    between atoms: C_14  and  O_58
    9  A    between atoms: C_14  and  C_63
   10  A    between atoms: O_15  and  O_40
   11  A    between atoms: C_19  and  O_47
   12  A    between atoms: C_20  and  C_48
   13  A    between atoms: C_26  and  C_39
   14  A    between atoms: C_30  and  C_53
   15  A    between atoms: C_30  and  C_56
   16  A    between atoms: C_31  and  C_48
   17  A    between atoms: C_38  and  O_40
   18  A    between atoms: C_38  and  C_48
   19  A    between atoms: N_45  and  O_64
   20  A    between atoms: C_53  and  C_61
                            x       y       z     vdW  Elec       q    Type
                         _______ _______ _______ _____ _____    ______ ____

>  <TORSDO>
F 20

$$$$
=
 OpenBabel11062411043D

 64 70  0  0  1  0  0  0  0  0999 V2000
  188.0140  177.2480  143.1860 C   0  0  1  0  0  3  0  0  0  0  0  0
  184.5560  179.3450  146.5850 Cl  0  0  0  0  0  0  0  0  0  0  0  0
  183.6810  178.3490  141.5740 N   0  0  0  0  0  0  0  0  0  0  0  0
  184.4190  178.3910  142.6890 C   0  0  0  0  0  0  0  0  0  0  0  0
  186.6350  177.8130  143.4550 C   0  0  0  0  0  0  0  0  0  0  0  0
  184.4560  177.7970  140.6110 C   0  0  0  0  0  3  0  0  0  0  0  0
  184.0340  178.8460  143.9510 C   0  0  0  0  0  3  0  0  0  0  0  0
  185.6710  177.8950  142.4450 C   0  0  0  0  0  0  0  0  0  0  0  0
  184.9820  178.7840  144.9840 C   0  0  0  0  0  0  0  0  0  0  0  0
  186.2720  178.2700  144.7410 C   0  0  0  0  0  3  0  0  0  0  0  0
  185.7250  177.5060  141.1170 C   0  0  0  0  0  3  0  0  0  0  0  0
  182.2670  178.6990  141.4610 C   0  0  0  0  0  2  0  0  0  0  0  0
  181.5010  177.6780  140.6190 C   0  0  2  0  0  3  0  0  0  0  0  0
  181.5050  177.9900  139.1440 C   0  0  0  0  0  0  0  0  0  0  0  0
  183.3710  177.5870  136.3610 C   0  0  0  0  0  1  0  0  0  0  0  0
  180.8970  178.2430  136.1930 C   0  0  1  0  0  3  0  0  0  0  0  0
  181.4580  179.2180  138.6770 N   0  0  0  0  0  0  0  0  0  0  0  0
  181.9170  177.5720  136.8290 C   0  0  1  0  0  0  0  0  0  0  0  0
  181.7060  176.9320  138.1310 N   0  0  0  0  0  2  0  0  0  0  0  0
  181.5840  178.8870  137.3530 N   0  0  0  0  0  0  0  0  0  0  0  0
  180.9680  180.1820  134.6130 C   0  0  0  0  0  3  0  0  0  0  0  0
  181.3110  178.9250  134.9160 C   0  0  0  0  0  3  0  0  0  0  0  0
  180.4620  182.4330  135.2940 N   0  0  0  0  0  1  0  0  0  0  0  0
  180.1460  181.0360  135.5240 C   0  0  0  0  0  2  0  0  0  0  0  0
  179.5330  176.4530  141.0850 O   0  0  0  0  0  0  0  0  0  0  0  0
  180.1010  177.5340  141.1540 C   0  0  0  0  0  0  0  0  0  0  0  0
  180.0580  179.9740  141.5110 N   0  0  0  0  0  2  0  0  0  0  0  0
  179.0330  178.6600  143.2000 C   0  0  1  0  0  3  0  0  0  0  0  0
  179.6190  180.8360  142.6030 C   0  0  0  0  0  2  0  0  0  0  0  0
  180.1060  177.9700  144.0330 C   0  0  0  0  0  1  0  0  0  0  0  0
  178.9310  180.0440  143.6210 N   0  0  0  0  0  2  0  0  0  0  0  0
  179.3600  178.7210  141.7210 C   0  0  2  0  0  3  0  0  0  0  0  0
  190.0410  177.8000  139.8910 C   0  0  1  0  0  3  0  0  0  0  0  0
  188.7450  178.0260  139.0890 C   0  0  1  0  0  3  0  0  0  0  0  0
  189.2520  175.8780  141.0880 O   0  0  0  0  0  1  0  0  0  0  0  0
  187.5590  178.4460  139.9720 C   0  0  0  0  0  2  0  0  0  0  0  0
  188.8160  178.0330  142.1140 C   0  0  1  0  0  3  0  0  0  0  0  0
  189.7930  177.1600  141.2740 C   0  0  2  0  0  0  0  0  0  0  0  0
  188.0240  179.0660  141.2890 C   0  0  0  0  0  2  0  0  0  0  0  0
  191.1170  177.0640  142.0040 C   0  0  0  0  0  0  0  0  0  0  0  0
  191.3940  175.9610  142.9790 C   0  0  0  0  0  1  0  0  0  0  0  0
  192.0050  177.8680  141.7700 O   0  0  0  0  0  0  0  0  0  0  0  0
  187.7760  179.0490  137.3750 C   0  0  0  0  0  1  0  0  0  0  0  0
  188.9600  179.0040  138.1130 O   0  0  0  0  0  0  0  0  0  0  0  0
  190.9810  177.0360  139.1360 O   0  0  0  0  0  0  0  0  0  0  0  0
  190.5860  176.1010  138.1740 C   0  0  0  0  0  0  0  0  0  0  0  0
  189.4130  176.1560  137.7180 O   0  0  0  0  0  0  0  0  0  0  0  0
  193.3760  173.4000  136.2590 C   0  0  0  0  0  3  0  0  0  0  0  0
  191.5450  172.3900  134.9110 C   0  0  0  0  0  1  0  0  0  0  0  0
  191.0360  174.3310  136.4420 C   0  0  1  0  0  3  0  0  0  0  0  0
  192.9790  175.4800  137.5900 C   0  0  0  0  0  2  0  0  0  0  0  0
  191.1160  175.2130  135.3580 O   0  0  0  0  0  1  0  0  0  0  0  0
  193.8790  174.4430  136.9440 C   0  0  0  0  0  0  0  0  0  0  0  0
  191.9020  173.0920  136.2070 C   0  0  2  0  0  3  0  0  0  0  0  0
  191.5210  175.0070  137.7260 C   0  0  1  0  0  3  0  0  0  0  0  0
  195.3650  174.6380  136.9210 C   0  0  0  0  0  2  0  0  0  0  0  0
  195.8360  175.2220  138.1030 O   0  0  0  0  0  0  0  0  0  0  0  0
  196.8430  173.2070  138.2870 C   0  0  0  0  0  1  0  0  0  0  0  0
  195.9980  174.1810  138.9580 N   0  0  0  0  0  2  0  0  0  0  0  0
  188.8290  177.0740  144.4790 C   0  0  1  0  0  3  0  0  0  0  0  0
  189.6500  178.3220  144.7840 C   0  0  0  0  0  1  0  0  0  0  0  0
  187.9780  176.8310  145.5640 O   0  0  0  0  0  0  0  0  0  0  0  0
  188.5640  177.4070  146.5970 O   0  0  0  0  0  0  0  0  0  0  0  0
  189.4450  176.4390  147.0900 C   0  0  0  0  0  1  0  0  0  0  0  0
  1  5  1  0  0  0  0
  1 60  1  1  0  0  0
  3  4  1  0  0  0  0
  4  7  1  0  0  0  0
  5 10  2  0  0  0  0
  6 11  2  0  0  0  0
  6  3  1  0  0  0  0
  7  9  2  0  0  0  0
  8  4  2  0  0  0  0
  8  5  1  0  0  0  0
  9  2  1  0  0  0  0
 10  9  1  0  0  0  0
 11  8  1  0  0  0  0
 12  3  1  0  0  0  0
 13 26  1  0  0  0  0
 13 12  1  1  0  0  0
 14 13  1  0  0  0  0
 16 22  1  6  0  0  0
 16 18  1  0  0  0  0
 16 20  1  0  0  0  0
 17 14  2  0  0  0  0
 18 15  1  6  0  0  0
 18 20  1  0  0  0  0
 18 19  1  0  0  0  0
 19 14  1  0  0  0  0
 20 17  1  0  0  0  0
 21 22  2  0  0  0  0
 21 24  1  0  0  0  0
 23 24  1  0  0  0  0
 25 26  2  0  0  0  0
 27 32  1  0  0  0  0
 27 29  1  0  0  0  0
 28 31  1  0  0  0  0
 28 30  1  1  0  0  0
 29 31  1  0  0  0  0
 32 26  1  1  0  0  0
 32 28  1  0  0  0  0
 33 45  1  6  0  0  0
 33 38  1  0  0  0  0
 34 44  1  6  0  0  0
 34 33  1  0  0  0  0
 34 36  1  0  0  0  0
 36 39  1  0  0  0  0
 37  1  1  6  0  0  0
 38 35  1  6  0  0  0
 38 40  1  0  0  0  0
 38 37  1  0  0  0  0
 39 37  1  0  0  0  0
 40 41  1  0  0  0  0
 42 40  2  0  0  0  0
 43 44  1  0  0  0  0
 46 45  1  0  0  0  0
 47 46  2  0  0  0  0
 48 53  2  0  0  0  0
 50 52  1  6  0  0  0
 50 55  1  0  0  0  0
 51 55  1  0  0  0  0
 53 51  1  0  0  0  0
 54 49  1  6  0  0  0
 54 48  1  0  0  0  0
 54 50  1  0  0  0  0
 55 46  1  6  0  0  0
 56 53  1  0  0  0  0
 56 57  1  0  0  0  0
 57 59  1  0  0  0  0
 58 59  1  0  0  0  0
 60 61  1  1  0  0  0
 60 62  1  0  0  0  0
 62 63  1  0  0  0  0
 63 64  1  0  0  0  0
M  END
>  <MODEL>
9

>  <REMARK>
 VINA RESULT:      -3.0      3.105     10.471
  Name = 
  20 active torsions:
  status: ('A' for Active; 'I' for Inactive)
    1  A    between atoms: C_3  and  C_30
    2  A    between atoms: C_5  and  O_58
    3  A    between atoms: C_6  and  C_33
    4  A    between atoms: C_7  and  C_49
    5  A    between atoms: N_9  and  C_56
    6  A    between atoms: C_12  and  C_43
    7  A    between atoms: C_12  and  O_64
    8  A    between atoms: C_14  and  O_58
    9  A    between atoms: C_14  and  C_63
   10  A    between atoms: O_15  and  O_40
   11  A    between atoms: C_19  and  O_47
   12  A    between atoms: C_20  and  C_48
   13  A    between atoms: C_26  and  C_39
   14  A    between atoms: C_30  and  C_53
   15  A    between atoms: C_30  and  C_56
   16  A    between atoms: C_31  and  C_48
   17  A    between atoms: C_38  and  O_40
   18  A    between atoms: C_38  and  C_48
   19  A    between atoms: N_45  and  O_64
   20  A    between atoms: C_53  and  C_61
                            x       y       z     vdW  Elec       q    Type
                         _______ _______ _______ _____ _____    ______ ____

>  <TORSDO>
F 20

$$$$
