=
 OpenBabel11062417213D

 60 64  0  0  1  0  0  0  0  0999 V2000
  189.6820  177.0950  138.9830 C   0  0  2  0  0  0  0  0  0  0  0  0
  190.3210  177.7980  137.9860 C   0  0  0  0  0  2  0  0  0  0  0  0
  187.6840  179.5580  136.8730 O   0  0  0  0  0  0  0  0  0  0  0  0
  188.8650  178.0670  138.1960 N   0  0  0  0  0  0  0  0  0  0  0  0
  187.6670  178.7640  137.8510 C   0  0  0  0  0  0  0  0  0  0  0  0
  186.4180  178.5800  138.6260 C   0  0  0  0  0  0  0  0  0  0  0  0
  186.4520  178.0850  139.8570 C   0  0  0  0  0  2  0  0  0  0  0  0
  184.4690  179.9010  138.8560 O   0  0  0  0  0  1  0  0  0  0  0  0
  185.0790  178.9350  138.0520 C   0  0  2  0  0  3  0  0  0  0  0  0
  184.1740  177.7060  137.8800 C   0  0  1  0  0  3  0  0  0  0  0  0
  178.9370  176.0490  136.0960 O   0  0  0  0  0  0  0  0  0  0  0  0
  179.9940  175.6800  138.2100 C   0  0  0  0  0  2  0  0  0  0  0  0
  180.3360  174.2040  136.1730 N   0  0  0  0  0  2  0  0  0  0  0  0
  181.1600  177.2680  139.2140 C   0  0  0  0  0  2  0  0  0  0  0  0
  182.6590  174.0020  136.3770 O   0  0  0  0  0  0  0  0  0  0  0  0
  180.0480  177.0630  138.3960 O   0  0  0  0  0  0  0  0  0  0  0  0
  182.7490  178.1110  137.4930 C   0  0  0  0  0  2  0  0  0  0  0  0
  181.4360  173.4700  136.7970 C   0  0  2  0  0  3  0  0  0  0  0  0
  185.4810  174.4010  137.2420 C   0  0  0  0  0  2  0  0  0  0  0  0
  183.0790  174.8220  137.4290 C   0  0  0  0  0  2  0  0  0  0  0  0
  181.9350  178.4730  138.7230 C   0  0  0  0  0  2  0  0  0  0  0  0
  179.7430  175.3530  136.7700 C   0  0  0  0  0  0  0  0  0  0  0  0
  184.4820  175.2830  137.2050 C   0  0  0  0  0  0  0  0  0  0  0  0
  184.7880  176.7160  136.8750 C   0  0  1  0  0  3  0  0  0  0  0  0
  181.3680  171.9840  136.4490 C   0  0  0  0  0  3  0  0  0  0  0  0
  180.2540  171.2710  137.2020 C   0  0  0  0  0  1  0  0  0  0  0  0
  182.6960  171.3070  136.7260 C   0  0  0  0  0  1  0  0  0  0  0  0
  185.8220  177.2150  134.6630 C   0  0  0  0  0  1  0  0  0  0  0  0
  184.5150  177.0510  135.4100 C   0  0  0  0  0  2  0  0  0  0  0  0
  191.2130  177.4410  140.7380 O   0  0  0  0  0  0  0  0  0  0  0  0
  190.0510  177.5390  140.3740 C   0  0  0  0  0  0  0  0  0  0  0  0
  188.9980  178.1210  141.2960 C   0  0  0  0  0  2  0  0  0  0  0  0
  188.7180  177.3200  142.5750 C   0  0  1  0  0  3  0  0  0  0  0  0
  189.0860  175.8580  142.3650 C   0  0  0  0  0  1  0  0  0  0  0  0
  189.4200  177.9220  143.8080 C   0  0  1  0  0  3  0  0  0  0  0  0
  189.6340  179.2910  143.6430 O   0  0  0  0  0  1  0  0  0  0  0  0
  188.7510  177.6610  145.1700 C   0  0  2  0  0  3  0  0  0  0  0  0
  185.2710  177.9880  143.6910 C   0  0  0  0  0  3  0  0  0  0  0  0
  184.5660  178.5780  144.7440 C   0  0  0  0  0  0  0  0  0  0  0  0
  185.2160  178.8610  145.9490 C   0  0  0  0  0  3  0  0  0  0  0  0
  183.2210  178.8890  144.5920 O   0  0  0  0  0  1  0  0  0  0  0  0
  187.2790  177.9460  145.0540 C   0  0  0  0  0  0  0  0  0  0  0  0
  186.5710  178.5510  146.1020 C   0  0  0  0  0  3  0  0  0  0  0  0
  186.6260  177.6780  143.8440 C   0  0  0  0  0  3  0  0  0  0  0  0
  190.5900  177.8960  146.8120 C   0  0  2  0  0  3  0  0  0  0  0  0
  189.1960  177.4770  147.8000 S   0  0  0  0  0  0  0  0  0  0  0  0
  188.7060  178.3950  148.8820 O   0  0  0  0  0  0  0  0  0  0  0  0
  188.3680  176.2400  147.5730 O   0  0  0  0  0  0  0  0  0  0  0  0
  189.3630  178.4200  146.2790 N   0  0  0  0  0  0  0  0  0  0  0  0
  191.2300  176.7470  146.0560 C   0  0  0  0  0  0  0  0  0  0  0  0
  191.5380  176.7970  144.6870 C   0  0  0  0  0  3  0  0  0  0  0  0
  192.1100  175.6940  144.0480 C   0  0  0  0  0  3  0  0  0  0  0  0
  191.4760  175.5660  146.7620 C   0  0  0  0  0  3  0  0  0  0  0  0
  192.0450  174.4610  146.1240 C   0  0  0  0  0  3  0  0  0  0  0  0
  192.3670  174.5260  144.7680 C   0  0  0  0  0  3  0  0  0  0  0  0
  189.4340  175.6290  138.6290 C   0  0  0  0  0  2  0  0  0  0  0  0
  190.3600  175.0980  137.5750 C   0  0  0  0  0  0  0  0  0  0  0  0
  191.5320  174.8800  137.8350 O   0  0  0  0  0  0  0  0  0  0  0  0
  189.8380  174.7690  136.2160 C   0  0  0  0  0  2  0  0  0  0  0  0
  189.8020  173.3870  136.0360 O   0  0  0  0  0  1  0  0  0  0  0  0
  1 56  1  6  0  0  0
  1 31  1  0  0  0  0
  2  4  1  0  0  0  0
  2  1  1  0  0  0  0
  3  5  2  0  0  0  0
  4  1  1  0  0  0  0
  5  4  1  0  0  0  0
  5  6  1  0  0  0  0
  6  7  2  0  0  0  0
  9  6  1  0  0  0  0
  9  8  1  1  0  0  0
 10  9  1  6  0  0  0
 11 22  2  0  0  0  0
 12 16  1  0  0  0  0
 13 22  1  0  0  0  0
 13 18  1  0  0  0  0
 15 18  1  0  0  0  0
 15 20  1  0  0  0  0
 16 14  1  0  0  0  0
 17 10  1  0  0  0  0
 17 21  1  0  0  0  0
 18 25  1  6  0  0  0
 21 14  1  0  0  0  0
 22 12  1  0  0  0  0
 23 19  2  0  0  0  0
 23 20  1  0  0  0  0
 24 29  1  6  0  0  0
 24 23  1  0  0  0  0
 24 10  1  0  0  0  0
 25 27  1  0  0  0  0
 25 26  1  0  0  0  0
 28 29  1  0  0  0  0
 31 30  2  0  0  0  0
 31 32  1  0  0  0  0
 32 33  1  0  0  0  0
 33 34  1  6  0  0  0
 33 35  1  0  0  0  0
 35 36  1  6  0  0  0
 37 35  1  6  0  0  0
 37 49  1  0  0  0  0
 38 44  2  0  0  0  0
 38 39  1  0  0  0  0
 39 40  2  0  0  0  0
 40 43  1  0  0  0  0
 41 39  1  0  0  0  0
 42 37  1  0  0  0  0
 42 43  2  0  0  0  0
 44 42  1  0  0  0  0
 45 50  1  6  0  0  0
 45 46  1  0  0  0  0
 46 47  2  0  0  0  0
 48 46  2  0  0  0  0
 49 45  1  0  0  0  0
 49 46  1  0  0  0  0
 50 53  1  0  0  0  0
 51 50  2  0  0  0  0
 52 51  1  0  0  0  0
 52 55  2  0  0  0  0
 54 53  2  0  0  0  0
 55 54  1  0  0  0  0
 57 58  2  0  0  0  0
 57 56  1  0  0  0  0
 59 57  1  0  0  0  0
 60 59  1  0  0  0  0
M  END
>  <MODEL>
1

>  <REMARK>
 VINA RESULT:      -6.4      0.000      0.000
  Name = 
  16 active torsions:
  status: ('A' for Active; 'I' for Inactive)
    1  A    between atoms: C_1  and  C_31
    2  A    between atoms: C_1  and  C_38
    3  A    between atoms: C_2  and  C_21
    4  A    between atoms: C_3  and  C_48
    5  A    between atoms: C_7  and  C_24
    6  A    between atoms: C_8  and  C_45
    7  A    between atoms: C_8  and  C_48
    8  A    between atoms: C_15  and  C_26
    9  A    between atoms: C_15  and  C_43
   10  A    between atoms: C_17  and  C_31
   11  A    between atoms: C_17  and  C_43
   12  A    between atoms: C_18  and  C_38
   13  A    between atoms: C_24  and  C_26
   14  A    between atoms: C_29  and  C_32
   15  A    between atoms: C_38  and  N_59
   16  A    between atoms: C_52  and  C_58
                            x       y       z     vdW  Elec       q    Type
                         _______ _______ _______ _____ _____    ______ ____

>  <TORSDO>
F 16

$$$$
=
 OpenBabel11062417213D

 60 64  0  0  1  0  0  0  0  0999 V2000
  190.6930  176.7800  139.3440 C   0  0  2  0  0  0  0  0  0  0  0  0
  191.4190  177.7870  138.7490 C   0  0  0  0  0  2  0  0  0  0  0  0
  188.8760  179.3930  137.2530 O   0  0  0  0  0  0  0  0  0  0  0  0
  189.9370  177.7960  138.5520 N   0  0  0  0  0  0  0  0  0  0  0  0
  188.7590  178.3880  138.0030 C   0  0  0  0  0  0  0  0  0  0  0  0
  187.4130  177.8500  138.3070 C   0  0  0  0  0  0  0  0  0  0  0  0
  187.2190  177.0650  139.3590 C   0  0  0  0  0  2  0  0  0  0  0  0
  185.6120  179.3300  137.9020 O   0  0  0  0  0  1  0  0  0  0  0  0
  186.2290  178.1650  137.4420 C   0  0  2  0  0  3  0  0  0  0  0  0
  185.2300  176.9990  137.3750 C   0  0  1  0  0  3  0  0  0  0  0  0
  180.1360  175.4130  135.1650 O   0  0  0  0  0  0  0  0  0  0  0  0
  180.8530  175.4110  137.4470 C   0  0  0  0  0  2  0  0  0  0  0  0
  181.3090  173.5230  135.8130 N   0  0  0  0  0  2  0  0  0  0  0  0
  182.0350  177.0800  138.2900 C   0  0  0  0  0  2  0  0  0  0  0  0
  183.5480  173.1910  136.4050 O   0  0  0  0  0  0  0  0  0  0  0  0
  181.0280  176.7940  137.3670 O   0  0  0  0  0  0  0  0  0  0  0  0
  183.9220  177.4230  136.7020 C   0  0  0  0  0  2  0  0  0  0  0  0
  182.2300  172.8530  136.7280 C   0  0  2  0  0  3  0  0  0  0  0  0
  186.2540  173.5440  137.5980 C   0  0  0  0  0  2  0  0  0  0  0  0
  183.9070  174.1770  137.3300 C   0  0  0  0  0  2  0  0  0  0  0  0
  182.9920  178.0930  137.6990 C   0  0  0  0  0  2  0  0  0  0  0  0
  180.7660  174.8120  136.0760 C   0  0  0  0  0  0  0  0  0  0  0  0
  185.3690  174.4730  137.2380 C   0  0  0  0  0  0  0  0  0  0  0  0
  185.8660  175.7780  136.6870 C   0  0  1  0  0  3  0  0  0  0  0  0
  182.0540  171.3360  136.6690 C   0  0  0  0  0  3  0  0  0  0  0  0
  183.1870  170.6590  135.9120 C   0  0  0  0  0  1  0  0  0  0  0  0
  180.7220  170.9760  136.0390 C   0  0  0  0  0  1  0  0  0  0  0  0
  187.1360  175.3030  134.5960 C   0  0  0  0  0  1  0  0  0  0  0  0
  185.8300  175.8220  135.1610 C   0  0  0  0  0  2  0  0  0  0  0  0
  191.5490  177.3060  141.4740 O   0  0  0  0  0  0  0  0  0  0  0  0
  190.5810  176.9130  140.8400 C   0  0  0  0  0  0  0  0  0  0  0  0
  189.2780  176.5860  141.5420 C   0  0  0  0  0  2  0  0  0  0  0  0
  188.8020  177.6170  142.5750 C   0  0  1  0  0  3  0  0  0  0  0  0
  188.5640  178.9590  141.8990 C   0  0  0  0  0  1  0  0  0  0  0  0
  187.5650  177.1340  143.3560 C   0  0  1  0  0  3  0  0  0  0  0  0
  187.5310  175.7400  143.4290 O   0  0  0  0  0  1  0  0  0  0  0  0
  187.3680  177.7330  144.7610 C   0  0  2  0  0  3  0  0  0  0  0  0
  189.6110  177.1340  147.7620 C   0  0  0  0  0  3  0  0  0  0  0  0
  190.8780  177.1060  147.1730 C   0  0  0  0  0  0  0  0  0  0  0  0
  191.0090  177.2680  145.7900 C   0  0  0  0  0  3  0  0  0  0  0  0
  192.0070  176.9240  147.9600 O   0  0  0  0  0  1  0  0  0  0  0  0
  188.5990  177.4710  145.5810 C   0  0  0  0  0  0  0  0  0  0  0  0
  189.8740  177.4560  144.9970 C   0  0  0  0  0  3  0  0  0  0  0  0
  188.4740  177.3220  146.9690 C   0  0  0  0  0  3  0  0  0  0  0  0
  184.8950  177.6160  144.8480 C   0  0  2  0  0  3  0  0  0  0  0  0
  185.3160  178.6330  146.2210 S   0  0  0  0  0  0  0  0  0  0  0  0
  184.9430  178.2420  147.6210 O   0  0  0  0  0  0  0  0  0  0  0  0
  186.1350  179.8900  146.0930 O   0  0  0  0  0  0  0  0  0  0  0  0
  186.1510  177.2450  145.4400 N   0  0  0  0  0  0  0  0  0  0  0  0
  184.9500  178.2880  143.4890 C   0  0  0  0  0  0  0  0  0  0  0  0
  185.4370  179.5900  143.2890 C   0  0  0  0  0  3  0  0  0  0  0  0
  185.4410  180.1570  142.0120 C   0  0  0  0  0  3  0  0  0  0  0  0
  184.4400  177.5820  142.3960 C   0  0  0  0  0  3  0  0  0  0  0  0
  184.4410  178.1480  141.1200 C   0  0  0  0  0  3  0  0  0  0  0  0
  184.9460  179.4340  140.9260 C   0  0  0  0  0  3  0  0  0  0  0  0
  190.8500  175.4270  138.6500 C   0  0  0  0  0  2  0  0  0  0  0  0
  192.0190  175.3620  137.7120 C   0  0  0  0  0  0  0  0  0  0  0  0
  191.8780  174.9320  136.5790 O   0  0  0  0  0  0  0  0  0  0  0  0
  193.3500  175.8860  138.1360 C   0  0  0  0  0  2  0  0  0  0  0  0
  194.2290  175.9010  137.0540 O   0  0  0  0  0  1  0  0  0  0  0  0
  1 56  1  6  0  0  0
  1 31  1  0  0  0  0
  2  1  1  0  0  0  0
  3  5  2  0  0  0  0
  4  2  1  0  0  0  0
  4  1  1  0  0  0  0
  5  6  1  0  0  0  0
  5  4  1  0  0  0  0
  6  7  2  0  0  0  0
  9  8  1  1  0  0  0
  9  6  1  0  0  0  0
 10  9  1  6  0  0  0
 11 22  2  0  0  0  0
 13 22  1  0  0  0  0
 13 18  1  0  0  0  0
 15 18  1  0  0  0  0
 15 20  1  0  0  0  0
 16 12  1  0  0  0  0
 16 14  1  0  0  0  0
 17 10  1  0  0  0  0
 17 21  1  0  0  0  0
 18 25  1  6  0  0  0
 21 14  1  0  0  0  0
 22 12  1  0  0  0  0
 23 20  1  0  0  0  0
 23 19  2  0  0  0  0
 24 29  1  6  0  0  0
 24 23  1  0  0  0  0
 24 10  1  0  0  0  0
 26 25  1  0  0  0  0
 27 25  1  0  0  0  0
 28 29  1  0  0  0  0
 31 30  2  0  0  0  0
 31 32  1  0  0  0  0
 32 33  1  0  0  0  0
 33 34  1  6  0  0  0
 33 35  1  0  0  0  0
 35 36  1  1  0  0  0
 37 35  1  6  0  0  0
 37 49  1  0  0  0  0
 37 42  1  0  0  0  0
 39 38  1  0  0  0  0
 39 41  1  0  0  0  0
 40 39  2  0  0  0  0
 42 44  1  0  0  0  0
 43 42  2  0  0  0  0
 43 40  1  0  0  0  0
 44 38  2  0  0  0  0
 45 50  1  6  0  0  0
 45 49  1  0  0  0  0
 45 46  1  0  0  0  0
 46 47  2  0  0  0  0
 48 46  2  0  0  0  0
 49 46  1  0  0  0  0
 51 50  1  0  0  0  0
 52 51  2  0  0  0  0
 53 50  2  0  0  0  0
 54 53  1  0  0  0  0
 55 54  2  0  0  0  0
 55 52  1  0  0  0  0
 57 59  1  0  0  0  0
 57 56  1  0  0  0  0
 58 57  2  0  0  0  0
 60 59  1  0  0  0  0
M  END
>  <MODEL>
2

>  <REMARK>
 VINA RESULT:      -6.2      1.809      3.932
  Name = 
  16 active torsions:
  status: ('A' for Active; 'I' for Inactive)
    1  A    between atoms: C_1  and  C_31
    2  A    between atoms: C_1  and  C_38
    3  A    between atoms: C_2  and  C_21
    4  A    between atoms: C_3  and  C_48
    5  A    between atoms: C_7  and  C_24
    6  A    between atoms: C_8  and  C_45
    7  A    between atoms: C_8  and  C_48
    8  A    between atoms: C_15  and  C_26
    9  A    between atoms: C_15  and  C_43
   10  A    between atoms: C_17  and  C_31
   11  A    between atoms: C_17  and  C_43
   12  A    between atoms: C_18  and  C_38
   13  A    between atoms: C_24  and  C_26
   14  A    between atoms: C_29  and  C_32
   15  A    between atoms: C_38  and  N_59
   16  A    between atoms: C_52  and  C_58
                            x       y       z     vdW  Elec       q    Type
                         _______ _______ _______ _____ _____    ______ ____

>  <TORSDO>
F 16

$$$$
=
 OpenBabel11062417213D

 60 64  0  0  1  0  0  0  0  0999 V2000
  189.3050  177.9910  139.0870 C   0  0  2  0  0  0  0  0  0  0  0  0
  189.2630  179.3490  138.8670 C   0  0  0  0  0  2  0  0  0  0  0  0
  187.1830  179.3430  136.2280 O   0  0  0  0  0  0  0  0  0  0  0  0
  188.4420  178.4780  137.9700 N   0  0  0  0  0  0  0  0  0  0  0  0
  187.5310  178.3230  136.8810 C   0  0  0  0  0  0  0  0  0  0  0  0
  186.9830  176.9960  136.5190 C   0  0  0  0  0  0  0  0  0  0  0  0
  187.4150  176.3570  135.4390 C   0  0  0  0  0  2  0  0  0  0  0  0
  185.8260  174.9850  136.9880 O   0  0  0  0  0  1  0  0  0  0  0  0
  185.9230  176.3310  137.3470 C   0  0  2  0  0  3  0  0  0  0  0  0
  184.5630  177.0360  137.2270 C   0  0  1  0  0  3  0  0  0  0  0  0
  178.9590  176.0950  136.1990 O   0  0  0  0  0  0  0  0  0  0  0  0
  180.4650  177.5820  135.0850 C   0  0  0  0  0  2  0  0  0  0  0  0
  179.2120  178.1610  137.2150 N   0  0  0  0  0  2  0  0  0  0  0  0
  182.5350  176.9790  134.5940 C   0  0  0  0  0  2  0  0  0  0  0  0
  181.0170  179.1540  138.3250 O   0  0  0  0  0  0  0  0  0  0  0  0
  181.2370  176.4810  134.7120 O   0  0  0  0  0  0  0  0  0  0  0  0
  183.4830  176.0800  136.7120 C   0  0  0  0  0  2  0  0  0  0  0  0
  179.9770  179.3890  137.4200 C   0  0  2  0  0  3  0  0  0  0  0  0
  183.7640  180.0490  139.0490 C   0  0  0  0  0  2  0  0  0  0  0  0
  182.1580  178.9950  137.5340 C   0  0  0  0  0  2  0  0  0  0  0  0
  183.5130  175.9930  135.1960 C   0  0  0  0  0  2  0  0  0  0  0  0
  179.5320  177.2170  136.1990 C   0  0  0  0  0  0  0  0  0  0  0  0
  183.3850  178.9560  138.3860 C   0  0  0  0  0  0  0  0  0  0  0  0
  184.1690  177.6880  138.5640 C   0  0  1  0  0  3  0  0  0  0  0  0
  179.0790  180.5120  137.9400 C   0  0  0  0  0  3  0  0  0  0  0  0
  179.5990  181.8870  137.5460 C   0  0  0  0  0  1  0  0  0  0  0  0
  178.9310  180.4260  139.4460 C   0  0  0  0  0  1  0  0  0  0  0  0
  183.1270  177.4900  140.8190 C   0  0  0  0  0  1  0  0  0  0  0  0
  183.5230  176.7350  139.5670 C   0  0  0  0  0  2  0  0  0  0  0  0
  187.3800  177.8070  140.4310 O   0  0  0  0  0  0  0  0  0  0  0  0
  188.5710  177.5520  140.3270 C   0  0  0  0  0  0  0  0  0  0  0  0
  189.2960  176.7870  141.4160 C   0  0  0  0  0  2  0  0  0  0  0  0
  188.5670  176.6990  142.7640 C   0  0  1  0  0  3  0  0  0  0  0  0
  188.5390  175.2560  143.2480 C   0  0  0  0  0  1  0  0  0  0  0  0
  189.1670  177.6510  143.8170 C   0  0  1  0  0  3  0  0  0  0  0  0
  189.1940  178.9650  143.3460 O   0  0  0  0  0  1  0  0  0  0  0  0
  188.5250  177.6140  145.2160 C   0  0  2  0  0  3  0  0  0  0  0  0
  185.0710  178.0790  143.7150 C   0  0  0  0  0  3  0  0  0  0  0  0
  184.3770  178.6740  144.7720 C   0  0  0  0  0  0  0  0  0  0  0  0
  185.0250  178.9140  145.9870 C   0  0  0  0  0  3  0  0  0  0  0  0
  183.0440  179.0310  144.6140 O   0  0  0  0  0  1  0  0  0  0  0  0
  187.0650  177.9490  145.0930 C   0  0  0  0  0  0  0  0  0  0  0  0
  186.3680  178.5580  146.1460 C   0  0  0  0  0  3  0  0  0  0  0  0
  186.4150  177.7230  143.8730 C   0  0  0  0  0  3  0  0  0  0  0  0
  190.5210  178.0960  146.6010 C   0  0  2  0  0  3  0  0  0  0  0  0
  189.2930  177.6440  147.7780 S   0  0  0  0  0  0  0  0  0  0  0  0
  188.8610  178.5960  148.8550 O   0  0  0  0  0  0  0  0  0  0  0  0
  188.5480  176.3370  147.7280 O   0  0  0  0  0  0  0  0  0  0  0  0
  189.2010  178.4900  146.1940 N   0  0  0  0  0  0  0  0  0  0  0  0
  191.1590  176.9480  145.8420 C   0  0  0  0  0  0  0  0  0  0  0  0
  191.5000  177.0160  144.4810 C   0  0  0  0  0  3  0  0  0  0  0  0
  192.0670  175.9130  143.8370 C   0  0  0  0  0  3  0  0  0  0  0  0
  191.3670  175.7520  146.5330 C   0  0  0  0  0  3  0  0  0  0  0  0
  191.9320  174.6480  145.8900 C   0  0  0  0  0  3  0  0  0  0  0  0
  192.2870  174.7290  144.5430 C   0  0  0  0  0  3  0  0  0  0  0  0
  190.6150  177.3440  138.6380 C   0  0  0  0  0  2  0  0  0  0  0  0
  190.4240  176.1210  137.7900 C   0  0  0  0  0  0  0  0  0  0  0  0
  190.1440  175.0510  138.3040 O   0  0  0  0  0  0  0  0  0  0  0  0
  190.5110  176.2190  136.3040 C   0  0  0  0  0  2  0  0  0  0  0  0
  191.5210  175.3870  135.8240 O   0  0  0  0  0  1  0  0  0  0  0  0
  1 56  1  6  0  0  0
  1 31  1  0  0  0  0
  2  1  1  0  0  0  0
  3  5  2  0  0  0  0
  4  2  1  0  0  0  0
  4  1  1  0  0  0  0
  5  4  1  0  0  0  0
  6  5  1  0  0  0  0
  6  9  1  0  0  0  0
  7  6  2  0  0  0  0
  9  8  1  6  0  0  0
 10  9  1  1  0  0  0
 10 24  1  0  0  0  0
 12 22  1  0  0  0  0
 13 18  1  0  0  0  0
 14 16  1  0  0  0  0
 14 21  1  0  0  0  0
 16 12  1  0  0  0  0
 17 10  1  0  0  0  0
 18 25  1  1  0  0  0
 18 15  1  0  0  0  0
 20 15  1  0  0  0  0
 20 23  1  0  0  0  0
 21 17  1  0  0  0  0
 22 11  2  0  0  0  0
 22 13  1  0  0  0  0
 23 24  1  0  0  0  0
 23 19  2  0  0  0  0
 24 29  1  1  0  0  0
 25 27  1  0  0  0  0
 26 25  1  0  0  0  0
 29 28  1  0  0  0  0
 31 30  2  0  0  0  0
 31 32  1  0  0  0  0
 32 33  1  0  0  0  0
 33 34  1  1  0  0  0
 33 35  1  0  0  0  0
 35 36  1  6  0  0  0
 37 35  1  6  0  0  0
 37 49  1  0  0  0  0
 38 44  2  0  0  0  0
 38 39  1  0  0  0  0
 39 40  2  0  0  0  0
 40 43  1  0  0  0  0
 41 39  1  0  0  0  0
 42 37  1  0  0  0  0
 42 43  2  0  0  0  0
 44 42  1  0  0  0  0
 45 50  1  6  0  0  0
 45 46  1  0  0  0  0
 46 47  2  0  0  0  0
 48 46  2  0  0  0  0
 49 45  1  0  0  0  0
 49 46  1  0  0  0  0
 50 53  1  0  0  0  0
 51 50  2  0  0  0  0
 52 51  1  0  0  0  0
 52 55  2  0  0  0  0
 54 53  2  0  0  0  0
 55 54  1  0  0  0  0
 57 58  2  0  0  0  0
 57 56  1  0  0  0  0
 59 57  1  0  0  0  0
 60 59  1  0  0  0  0
M  END
>  <MODEL>
3

>  <REMARK>
 VINA RESULT:      -6.2      1.920      3.479
  Name = 
  16 active torsions:
  status: ('A' for Active; 'I' for Inactive)
    1  A    between atoms: C_1  and  C_31
    2  A    between atoms: C_1  and  C_38
    3  A    between atoms: C_2  and  C_21
    4  A    between atoms: C_3  and  C_48
    5  A    between atoms: C_7  and  C_24
    6  A    between atoms: C_8  and  C_45
    7  A    between atoms: C_8  and  C_48
    8  A    between atoms: C_15  and  C_26
    9  A    between atoms: C_15  and  C_43
   10  A    between atoms: C_17  and  C_31
   11  A    between atoms: C_17  and  C_43
   12  A    between atoms: C_18  and  C_38
   13  A    between atoms: C_24  and  C_26
   14  A    between atoms: C_29  and  C_32
   15  A    between atoms: C_38  and  N_59
   16  A    between atoms: C_52  and  C_58
                            x       y       z     vdW  Elec       q    Type
                         _______ _______ _______ _____ _____    ______ ____

>  <TORSDO>
F 16

$$$$
=
 OpenBabel11062417213D

 60 64  0  0  1  0  0  0  0  0999 V2000
  189.8950  177.3200  143.3350 C   0  0  2  0  0  0  0  0  0  0  0  0
  189.9700  175.9450  143.3240 C   0  0  0  0  0  2  0  0  0  0  0  0
  186.7130  175.2810  143.8140 O   0  0  0  0  0  0  0  0  0  0  0  0
  188.6190  176.5610  143.5030 N   0  0  0  0  0  0  0  0  0  0  0  0
  187.2080  176.4330  143.6850 C   0  0  0  0  0  0  0  0  0  0  0  0
  186.3240  177.6200  143.7110 C   0  0  0  0  0  0  0  0  0  0  0  0
  185.7440  178.0080  144.8400 C   0  0  0  0  0  2  0  0  0  0  0  0
  186.3890  179.7550  142.6930 O   0  0  0  0  0  1  0  0  0  0  0  0
  186.0460  178.4200  142.4720 C   0  0  2  0  0  3  0  0  0  0  0  0
  184.5860  178.2910  142.0120 C   0  0  1  0  0  3  0  0  0  0  0  0
  179.5610  181.1260  141.7730 O   0  0  0  0  0  0  0  0  0  0  0  0
  180.0390  178.9880  142.7320 C   0  0  0  0  0  2  0  0  0  0  0  0
  179.5120  179.3580  140.2770 N   0  0  0  0  0  2  0  0  0  0  0  0
  181.8780  178.6320  143.9080 C   0  0  0  0  0  2  0  0  0  0  0  0
  181.1950  177.9700  139.4300 O   0  0  0  0  0  0  0  0  0  0  0  0
  180.9270  179.6100  143.6130 O   0  0  0  0  0  0  0  0  0  0  0  0
  183.7430  179.4760  142.4920 C   0  0  0  0  0  2  0  0  0  0  0  0
  179.8830  177.9920  139.9140 C   0  0  2  0  0  3  0  0  0  0  0  0
  183.6030  176.2320  139.2140 C   0  0  0  0  0  2  0  0  0  0  0  0
  181.9710  177.5190  140.5020 C   0  0  0  0  0  2  0  0  0  0  0  0
  183.2580  179.2540  143.9140 C   0  0  0  0  0  2  0  0  0  0  0  0
  179.7230  179.8920  141.5800 C   0  0  0  0  0  0  0  0  0  0  0  0
  183.3690  177.2390  140.0550 C   0  0  0  0  0  0  0  0  0  0  0  0
  184.5130  178.1100  140.4850 C   0  0  1  0  0  3  0  0  0  0  0  0
  178.9310  177.4270  138.8600 C   0  0  0  0  0  3  0  0  0  0  0  0
  178.9480  175.9060  138.8320 C   0  0  0  0  0  1  0  0  0  0  0  0
  179.2650  177.9760  137.4870 C   0  0  0  0  0  1  0  0  0  0  0  0
  185.2280  179.1550  138.3390 C   0  0  0  0  0  1  0  0  0  0  0  0
  184.5910  179.4110  139.6880 C   0  0  0  0  0  2  0  0  0  0  0  0
  189.6740  179.0810  141.7870 O   0  0  0  0  0  0  0  0  0  0  0  0
  190.0970  177.9510  141.9830 C   0  0  0  0  0  0  0  0  0  0  0  0
  190.8350  177.2010  140.8910 C   0  0  0  0  0  2  0  0  0  0  0  0
  189.9830  176.7700  139.6880 C   0  0  1  0  0  3  0  0  0  0  0  0
  188.6580  177.5180  139.6930 C   0  0  0  0  0  1  0  0  0  0  0  0
  190.7350  176.9320  138.3520 C   0  0  1  0  0  3  0  0  0  0  0  0
  192.1130  176.8170  138.5360 O   0  0  0  0  0  1  0  0  0  0  0  0
  190.2850  176.0130  137.2010 C   0  0  2  0  0  3  0  0  0  0  0  0
  186.5490  176.1720  136.5580 C   0  0  0  0  0  3  0  0  0  0  0  0
  186.4570  177.2430  135.6660 C   0  0  0  0  0  0  0  0  0  0  0  0
  187.6100  177.9310  135.2780 C   0  0  0  0  0  3  0  0  0  0  0  0
  185.2200  177.6220  135.1590 O   0  0  0  0  0  1  0  0  0  0  0  0
  188.9530  176.4840  136.6910 C   0  0  0  0  0  0  0  0  0  0  0  0
  188.8560  177.5490  135.7840 C   0  0  0  0  0  3  0  0  0  0  0  0
  187.7950  175.7890  137.0660 C   0  0  0  0  0  3  0  0  0  0  0  0
  191.3650  173.7840  137.1560 C   0  0  2  0  0  3  0  0  0  0  0  0
  189.9710  173.5970  136.0970 S   0  0  0  0  0  0  0  0  0  0  0  0
  188.9030  172.5850  136.3890 O   0  0  0  0  0  0  0  0  0  0  0  0
  189.7210  174.4810  134.9040 O   0  0  0  0  0  0  0  0  0  0  0  0
  190.2470  174.5840  137.5740 N   0  0  0  0  0  0  0  0  0  0  0  0
  192.5500  174.5190  136.5600 C   0  0  0  0  0  0  0  0  0  0  0  0
  192.5440  175.0840  135.2740 C   0  0  0  0  0  3  0  0  0  0  0  0
  193.6790  175.7320  134.7800 C   0  0  0  0  0  3  0  0  0  0  0  0
  193.7190  174.5870  137.3230 C   0  0  0  0  0  3  0  0  0  0  0  0
  194.8550  175.2320  136.8290 C   0  0  0  0  0  3  0  0  0  0  0  0
  194.8340  175.8100  135.5590 C   0  0  0  0  0  3  0  0  0  0  0  0
  190.4310  177.9460  144.6210 C   0  0  0  0  0  2  0  0  0  0  0  0
  190.8860  176.9420  145.6380 C   0  0  0  0  0  0  0  0  0  0  0  0
  191.9480  176.3570  145.4960 O   0  0  0  0  0  0  0  0  0  0  0  0
  190.0750  176.6990  146.8660 C   0  0  0  0  0  2  0  0  0  0  0  0
  189.3280  177.8330  147.1830 O   0  0  0  0  0  1  0  0  0  0  0  0
  1  4  1  0  0  0  0
  1 56  1  1  0  0  0
  2  1  1  0  0  0  0
  2  4  1  0  0  0  0
  4  5  1  0  0  0  0
  5  6  1  0  0  0  0
  5  3  2  0  0  0  0
  6  7  2  0  0  0  0
  9  8  1  1  0  0  0
  9  6  1  0  0  0  0
 10  9  1  6  0  0  0
 10 17  1  0  0  0  0
 12 16  1  0  0  0  0
 13 22  1  0  0  0  0
 14 21  1  0  0  0  0
 15 18  1  0  0  0  0
 15 20  1  0  0  0  0
 16 14  1  0  0  0  0
 17 21  1  0  0  0  0
 18 25  1  6  0  0  0
 18 13  1  0  0  0  0
 19 23  2  0  0  0  0
 22 11  2  0  0  0  0
 22 12  1  0  0  0  0
 23 24  1  0  0  0  0
 23 20  1  0  0  0  0
 24 29  1  6  0  0  0
 24 10  1  0  0  0  0
 26 25  1  0  0  0  0
 27 25  1  0  0  0  0
 28 29  1  0  0  0  0
 30 31  2  0  0  0  0
 31  1  1  0  0  0  0
 32 31  1  0  0  0  0
 33 34  1  6  0  0  0
 33 32  1  0  0  0  0
 35 36  1  1  0  0  0
 35 33  1  0  0  0  0
 37 49  1  0  0  0  0
 37 35  1  1  0  0  0
 38 44  1  0  0  0  0
 39 38  2  0  0  0  0
 40 39  1  0  0  0  0
 40 43  2  0  0  0  0
 41 39  1  0  0  0  0
 42 44  2  0  0  0  0
 42 37  1  0  0  0  0
 43 42  1  0  0  0  0
 45 50  1  6  0  0  0
 45 49  1  0  0  0  0
 46 47  2  0  0  0  0
 46 45  1  0  0  0  0
 46 49  1  0  0  0  0
 48 46  2  0  0  0  0
 50 53  1  0  0  0  0
 51 50  2  0  0  0  0
 52 51  1  0  0  0  0
 52 55  2  0  0  0  0
 54 53  2  0  0  0  0
 55 54  1  0  0  0  0
 56 57  1  0  0  0  0
 57 59  1  0  0  0  0
 58 57  2  0  0  0  0
 59 60  1  0  0  0  0
M  END
>  <MODEL>
4

>  <REMARK>
 VINA RESULT:      -5.8      3.046      7.469
  Name = 
  16 active torsions:
  status: ('A' for Active; 'I' for Inactive)
    1  A    between atoms: C_1  and  C_31
    2  A    between atoms: C_1  and  C_38
    3  A    between atoms: C_2  and  C_21
    4  A    between atoms: C_3  and  C_48
    5  A    between atoms: C_7  and  C_24
    6  A    between atoms: C_8  and  C_45
    7  A    between atoms: C_8  and  C_48
    8  A    between atoms: C_15  and  C_26
    9  A    between atoms: C_15  and  C_43
   10  A    between atoms: C_17  and  C_31
   11  A    between atoms: C_17  and  C_43
   12  A    between atoms: C_18  and  C_38
   13  A    between atoms: C_24  and  C_26
   14  A    between atoms: C_29  and  C_32
   15  A    between atoms: C_38  and  N_59
   16  A    between atoms: C_52  and  C_58
                            x       y       z     vdW  Elec       q    Type
                         _______ _______ _______ _____ _____    ______ ____

>  <TORSDO>
F 16

$$$$
=
 OpenBabel11062417213D

 60 64  0  0  1  0  0  0  0  0999 V2000
  189.1520  177.5030  138.8620 C   0  0  2  0  0  0  0  0  0  0  0  0
  189.4610  178.7030  138.2600 C   0  0  0  0  0  2  0  0  0  0  0  0
  186.9030  178.8200  136.0860 O   0  0  0  0  0  0  0  0  0  0  0  0
  188.2300  177.9930  137.7940 N   0  0  0  0  0  0  0  0  0  0  0  0
  187.0800  177.9210  136.9500 C   0  0  0  0  0  0  0  0  0  0  0  0
  186.0950  176.8230  137.0820 C   0  0  0  0  0  0  0  0  0  0  0  0
  186.3050  175.8230  137.9270 C   0  0  0  0  0  2  0  0  0  0  0  0
  184.9380  177.7190  135.2220 O   0  0  0  0  0  1  0  0  0  0  0  0
  184.8360  176.7970  136.2670 C   0  0  2  0  0  3  0  0  0  0  0  0
  183.5850  177.0610  137.1180 C   0  0  1  0  0  3  0  0  0  0  0  0
  180.0380  174.6390  140.9780 O   0  0  0  0  0  0  0  0  0  0  0  0
  179.5110  175.6450  138.8740 C   0  0  0  0  0  2  0  0  0  0  0  0
  179.7770  176.9400  141.0410 N   0  0  0  0  0  2  0  0  0  0  0  0
  180.7630  175.3050  137.0820 C   0  0  0  0  0  2  0  0  0  0  0  0
  181.0520  178.6900  140.1520 O   0  0  0  0  0  0  0  0  0  0  0  0
  180.3030  174.6830  138.2440 O   0  0  0  0  0  0  0  0  0  0  0  0
  183.0970  175.7830  137.8050 C   0  0  0  0  0  2  0  0  0  0  0  0
  179.7460  178.2330  140.3590 C   0  0  2  0  0  3  0  0  0  0  0  0
  182.7070  180.3520  138.3170 C   0  0  0  0  0  2  0  0  0  0  0  0
  181.3330  178.3910  138.8150 C   0  0  0  0  0  2  0  0  0  0  0  0
  182.2230  174.9650  136.8700 C   0  0  0  0  0  2  0  0  0  0  0  0
  179.8190  175.7020  140.3390 C   0  0  0  0  0  0  0  0  0  0  0  0
  182.6200  179.0250  138.3970 C   0  0  0  0  0  0  0  0  0  0  0  0
  183.8430  178.1970  138.1240 C   0  0  1  0  0  3  0  0  0  0  0  0
  178.9590  179.2610  141.1710 C   0  0  0  0  0  3  0  0  0  0  0  0
  179.1920  180.6800  140.6750 C   0  0  0  0  0  1  0  0  0  0  0  0
  179.3080  179.1620  142.6430 C   0  0  0  0  0  1  0  0  0  0  0  0
  185.0950  178.9690  140.1350 C   0  0  0  0  0  1  0  0  0  0  0  0
  184.5520  177.7590  139.4040 C   0  0  0  0  0  2  0  0  0  0  0  0
  187.7290  178.4260  140.4960 O   0  0  0  0  0  0  0  0  0  0  0  0
  188.6410  177.6440  140.2720 C   0  0  0  0  0  0  0  0  0  0  0  0
  189.2360  176.8090  141.3890 C   0  0  0  0  0  2  0  0  0  0  0  0
  188.4420  176.7950  142.7030 C   0  0  1  0  0  3  0  0  0  0  0  0
  188.2990  175.3680  143.2100 C   0  0  0  0  0  1  0  0  0  0  0  0
  189.0550  177.7290  143.7650 C   0  0  1  0  0  3  0  0  0  0  0  0
  189.0690  179.0520  143.3200 O   0  0  0  0  0  1  0  0  0  0  0  0
  188.4340  177.6610  145.1730 C   0  0  2  0  0  3  0  0  0  0  0  0
  185.0360  178.4760  143.6930 C   0  0  0  0  0  3  0  0  0  0  0  0
  184.2570  178.6490  144.8400 C   0  0  0  0  0  0  0  0  0  0  0  0
  184.8300  178.4860  146.1050 C   0  0  0  0  0  3  0  0  0  0  0  0
  182.9150  178.9870  144.7250 O   0  0  0  0  0  1  0  0  0  0  0  0
  186.9640  177.9610  145.0740 C   0  0  0  0  0  0  0  0  0  0  0  0
  186.1820  178.1490  146.2230 C   0  0  0  0  0  3  0  0  0  0  0  0
  186.3880  178.1390  143.8100 C   0  0  0  0  0  3  0  0  0  0  0  0
  190.4430  178.1860  146.5230 C   0  0  2  0  0  3  0  0  0  0  0  0
  189.2560  177.6750  147.7180 S   0  0  0  0  0  0  0  0  0  0  0  0
  188.8170  178.5940  148.8200 O   0  0  0  0  0  0  0  0  0  0  0  0
  188.5530  176.3450  147.6620 O   0  0  0  0  0  0  0  0  0  0  0  0
  189.1020  178.5430  146.1510 N   0  0  0  0  0  0  0  0  0  0  0  0
  191.1010  177.0720  145.7300 C   0  0  0  0  0  0  0  0  0  0  0  0
  191.4220  177.1780  144.3670 C   0  0  0  0  0  3  0  0  0  0  0  0
  192.0100  176.1050  143.6930 C   0  0  0  0  0  3  0  0  0  0  0  0
  191.3480  175.8660  146.3920 C   0  0  0  0  0  3  0  0  0  0  0  0
  191.9340  174.7920  145.7190 C   0  0  0  0  0  3  0  0  0  0  0  0
  192.2700  174.9120  144.3700 C   0  0  0  0  0  3  0  0  0  0  0  0
  190.0650  176.3550  138.4320 C   0  0  0  0  0  2  0  0  0  0  0  0
  191.5230  176.7080  138.4400 C   0  0  0  0  0  0  0  0  0  0  0  0
  192.1610  176.7240  137.4000 O   0  0  0  0  0  0  0  0  0  0  0  0
  192.1900  177.1070  139.7140 C   0  0  0  0  0  2  0  0  0  0  0  0
  193.5610  177.2570  139.5130 O   0  0  0  0  0  1  0  0  0  0  0  0
  1 56  1  6  0  0  0
  1 31  1  0  0  0  0
  2  1  1  0  0  0  0
  3  5  2  0  0  0  0
  4  2  1  0  0  0  0
  4  1  1  0  0  0  0
  5  6  1  0  0  0  0
  5  4  1  0  0  0  0
  6  7  2  0  0  0  0
  9  8  1  6  0  0  0
  9  6  1  0  0  0  0
 10  9  1  1  0  0  0
 10 17  1  0  0  0  0
 10 24  1  0  0  0  0
 12 22  1  0  0  0  0
 14 16  1  0  0  0  0
 15 18  1  0  0  0  0
 16 12  1  0  0  0  0
 18 13  1  0  0  0  0
 18 25  1  1  0  0  0
 19 23  2  0  0  0  0
 20 15  1  0  0  0  0
 21 14  1  0  0  0  0
 21 17  1  0  0  0  0
 22 11  2  0  0  0  0
 22 13  1  0  0  0  0
 23 20  1  0  0  0  0
 24 23  1  0  0  0  0
 24 29  1  1  0  0  0
 25 27  1  0  0  0  0
 26 25  1  0  0  0  0
 29 28  1  0  0  0  0
 31 30  2  0  0  0  0
 31 32  1  0  0  0  0
 32 33  1  0  0  0  0
 33 34  1  1  0  0  0
 33 35  1  0  0  0  0
 35 36  1  6  0  0  0
 37 35  1  6  0  0  0
 37 49  1  0  0  0  0
 38 44  2  0  0  0  0
 38 39  1  0  0  0  0
 39 40  2  0  0  0  0
 40 43  1  0  0  0  0
 41 39  1  0  0  0  0
 42 37  1  0  0  0  0
 42 43  2  0  0  0  0
 44 42  1  0  0  0  0
 45 50  1  6  0  0  0
 45 46  1  0  0  0  0
 46 47  2  0  0  0  0
 48 46  2  0  0  0  0
 49 45  1  0  0  0  0
 49 46  1  0  0  0  0
 50 53  1  0  0  0  0
 51 50  2  0  0  0  0
 52 51  1  0  0  0  0
 52 55  2  0  0  0  0
 54 53  2  0  0  0  0
 55 54  1  0  0  0  0
 56 57  1  0  0  0  0
 57 59  1  0  0  0  0
 58 57  2  0  0  0  0
 60 59  1  0  0  0  0
M  END
>  <MODEL>
5

>  <REMARK>
 VINA RESULT:      -5.6      1.814      3.551
  Name = 
  16 active torsions:
  status: ('A' for Active; 'I' for Inactive)
    1  A    between atoms: C_1  and  C_31
    2  A    between atoms: C_1  and  C_38
    3  A    between atoms: C_2  and  C_21
    4  A    between atoms: C_3  and  C_48
    5  A    between atoms: C_7  and  C_24
    6  A    between atoms: C_8  and  C_45
    7  A    between atoms: C_8  and  C_48
    8  A    between atoms: C_15  and  C_26
    9  A    between atoms: C_15  and  C_43
   10  A    between atoms: C_17  and  C_31
   11  A    between atoms: C_17  and  C_43
   12  A    between atoms: C_18  and  C_38
   13  A    between atoms: C_24  and  C_26
   14  A    between atoms: C_29  and  C_32
   15  A    between atoms: C_38  and  N_59
   16  A    between atoms: C_52  and  C_58
                            x       y       z     vdW  Elec       q    Type
                         _______ _______ _______ _____ _____    ______ ____

>  <TORSDO>
F 16

$$$$
=
 OpenBabel11062417213D

 60 64  0  0  1  0  0  0  0  0999 V2000
  189.3850  177.8910  138.7260 C   0  0  2  0  0  0  0  0  0  0  0  0
  189.0700  179.1530  138.2730 C   0  0  0  0  0  2  0  0  0  0  0  0
  187.3690  178.2640  135.5160 O   0  0  0  0  0  0  0  0  0  0  0  0
  188.5730  177.9890  137.4760 N   0  0  0  0  0  0  0  0  0  0  0  0
  187.8530  177.4630  136.3600 C   0  0  0  0  0  0  0  0  0  0  0  0
  187.6580  176.0060  136.1870 C   0  0  0  0  0  0  0  0  0  0  0  0
  187.9890  175.4080  135.0500 C   0  0  0  0  0  2  0  0  0  0  0  0
  187.5800  173.8580  137.1780 O   0  0  0  0  0  1  0  0  0  0  0  0
  187.0760  175.1570  137.2790 C   0  0  2  0  0  3  0  0  0  0  0  0
  185.5400  175.1580  137.2620 C   0  0  1  0  0  3  0  0  0  0  0  0
  180.9510  178.1950  135.5130 O   0  0  0  0  0  0  0  0  0  0  0  0
  181.4900  177.4110  137.7070 C   0  0  0  0  0  2  0  0  0  0  0  0
  180.3010  176.0150  135.9510 N   0  0  0  0  0  2  0  0  0  0  0  0
  183.5510  177.5160  138.5000 C   0  0  0  0  0  2  0  0  0  0  0  0
  181.5260  174.0510  136.2970 O   0  0  0  0  0  0  0  0  0  0  0  0
  182.6500  178.1870  137.6720 O   0  0  0  0  0  0  0  0  0  0  0  0
  184.9890  176.4900  136.7460 C   0  0  0  0  0  2  0  0  0  0  0  0
  180.4220  174.7880  136.7370 C   0  0  2  0  0  3  0  0  0  0  0  0
  183.5930  172.1180  137.2230 C   0  0  0  0  0  2  0  0  0  0  0  0
  182.5370  174.3240  137.2240 C   0  0  0  0  0  2  0  0  0  0  0  0
  184.9240  177.5180  137.8610 C   0  0  0  0  0  2  0  0  0  0  0  0
  180.9340  177.2340  136.3270 C   0  0  0  0  0  0  0  0  0  0  0  0
  183.7100  173.4260  136.9970 C   0  0  0  0  0  0  0  0  0  0  0  0
  185.0060  173.9590  136.4580 C   0  0  1  0  0  3  0  0  0  0  0  0
  179.1540  173.9420  136.6270 C   0  0  0  0  0  3  0  0  0  0  0  0
  178.9490  173.0600  137.8500 C   0  0  0  0  0  1  0  0  0  0  0  0
  179.1850  173.0900  135.3730 C   0  0  0  0  0  1  0  0  0  0  0  0
  184.2450  175.4710  134.6290 C   0  0  0  0  0  1  0  0  0  0  0  0
  184.9660  174.1780  134.9470 C   0  0  0  0  0  2  0  0  0  0  0  0
  187.4030  177.5020  139.9360 O   0  0  0  0  0  0  0  0  0  0  0  0
  188.6250  177.4790  139.9590 C   0  0  0  0  0  0  0  0  0  0  0  0
  189.3670  177.0230  141.2000 C   0  0  0  0  0  2  0  0  0  0  0  0
  188.5110  176.8610  142.4640 C   0  0  1  0  0  3  0  0  0  0  0  0
  188.6940  175.4660  143.0420 C   0  0  0  0  0  1  0  0  0  0  0  0
  188.7940  177.9620  143.5050 C   0  0  1  0  0  3  0  0  0  0  0  0
  188.4950  179.2250  142.9930 O   0  0  0  0  0  1  0  0  0  0  0  0
  188.1250  177.7870  144.8810 C   0  0  2  0  0  3  0  0  0  0  0  0
  184.7070  178.2400  143.2970 C   0  0  0  0  0  3  0  0  0  0  0  0
  183.9190  178.5690  144.4030 C   0  0  0  0  0  0  0  0  0  0  0  0
  184.4930  178.6310  145.6760 C   0  0  0  0  0  3  0  0  0  0  0  0
  182.5670  178.8390  144.2370 O   0  0  0  0  0  1  0  0  0  0  0  0
  186.6470  178.0190  144.7390 C   0  0  0  0  0  0  0  0  0  0  0  0
  185.8540  178.3630  145.8430 C   0  0  0  0  0  3  0  0  0  0  0  0
  186.0690  177.9710  143.4630 C   0  0  0  0  0  3  0  0  0  0  0  0
  190.0540  178.3430  146.3320 C   0  0  2  0  0  3  0  0  0  0  0  0
  188.8560  177.7030  147.4520 S   0  0  0  0  0  0  0  0  0  0  0  0
  188.3300  178.5340  148.5850 O   0  0  0  0  0  0  0  0  0  0  0  0
  188.2310  176.3420  147.2980 O   0  0  0  0  0  0  0  0  0  0  0  0
  188.7080  178.6480  145.9300 N   0  0  0  0  0  0  0  0  0  0  0  0
  190.8000  177.3120  145.5060 C   0  0  0  0  0  0  0  0  0  0  0  0
  191.0130  175.9900  145.9290 C   0  0  0  0  0  3  0  0  0  0  0  0
  191.7270  175.0960  145.1260 C   0  0  0  0  0  3  0  0  0  0  0  0
  191.3390  177.7280  144.2860 C   0  0  0  0  0  3  0  0  0  0  0  0
  192.0550  176.8370  143.4840 C   0  0  0  0  0  3  0  0  0  0  0  0
  192.2450  175.5190  143.9000 C   0  0  0  0  0  3  0  0  0  0  0  0
  190.8490  177.5130  138.5010 C   0  0  0  0  0  2  0  0  0  0  0  0
  191.0610  176.0520  138.2350 C   0  0  0  0  0  0  0  0  0  0  0  0
  190.1440  175.2590  138.3750 O   0  0  0  0  0  0  0  0  0  0  0  0
  192.3790  175.5650  137.7330 C   0  0  0  0  0  2  0  0  0  0  0  0
  192.3440  174.1850  137.5450 O   0  0  0  0  0  1  0  0  0  0  0  0
  1 56  1  6  0  0  0
  1 31  1  0  0  0  0
  2  1  1  0  0  0  0
  3  5  2  0  0  0  0
  4  2  1  0  0  0  0
  4  1  1  0  0  0  0
  5  4  1  0  0  0  0
  6  5  1  0  0  0  0
  6  9  1  0  0  0  0
  7  6  2  0  0  0  0
  9  8  1  6  0  0  0
 10  9  1  6  0  0  0
 11 22  2  0  0  0  0
 13 22  1  0  0  0  0
 13 18  1  0  0  0  0
 15 18  1  0  0  0  0
 15 20  1  0  0  0  0
 16 12  1  0  0  0  0
 16 14  1  0  0  0  0
 17 10  1  0  0  0  0
 17 21  1  0  0  0  0
 18 25  1  6  0  0  0
 21 14  1  0  0  0  0
 22 12  1  0  0  0  0
 23 19  2  0  0  0  0
 23 20  1  0  0  0  0
 24 29  1  6  0  0  0
 24 23  1  0  0  0  0
 24 10  1  0  0  0  0
 25 26  1  0  0  0  0
 27 25  1  0  0  0  0
 28 29  1  0  0  0  0
 30 31  2  0  0  0  0
 31 32  1  0  0  0  0
 32 33  1  0  0  0  0
 33 34  1  1  0  0  0
 33 35  1  0  0  0  0
 35 36  1  6  0  0  0
 37 35  1  6  0  0  0
 37 49  1  0  0  0  0
 38 44  2  0  0  0  0
 38 39  1  0  0  0  0
 39 40  2  0  0  0  0
 40 43  1  0  0  0  0
 41 39  1  0  0  0  0
 42 37  1  0  0  0  0
 42 43  2  0  0  0  0
 44 42  1  0  0  0  0
 45 50  1  6  0  0  0
 45 46  1  0  0  0  0
 46 47  2  0  0  0  0
 48 46  2  0  0  0  0
 49 45  1  0  0  0  0
 49 46  1  0  0  0  0
 50 51  1  0  0  0  0
 52 51  2  0  0  0  0
 53 50  2  0  0  0  0
 54 55  2  0  0  0  0
 54 53  1  0  0  0  0
 55 52  1  0  0  0  0
 57 58  2  0  0  0  0
 57 56  1  0  0  0  0
 59 57  1  0  0  0  0
 60 59  1  0  0  0  0
M  END
>  <MODEL>
6

>  <REMARK>
 VINA RESULT:      -5.6      1.503      2.417
  Name = 
  16 active torsions:
  status: ('A' for Active; 'I' for Inactive)
    1  A    between atoms: C_1  and  C_31
    2  A    between atoms: C_1  and  C_38
    3  A    between atoms: C_2  and  C_21
    4  A    between atoms: C_3  and  C_48
    5  A    between atoms: C_7  and  C_24
    6  A    between atoms: C_8  and  C_45
    7  A    between atoms: C_8  and  C_48
    8  A    between atoms: C_15  and  C_26
    9  A    between atoms: C_15  and  C_43
   10  A    between atoms: C_17  and  C_31
   11  A    between atoms: C_17  and  C_43
   12  A    between atoms: C_18  and  C_38
   13  A    between atoms: C_24  and  C_26
   14  A    between atoms: C_29  and  C_32
   15  A    between atoms: C_38  and  N_59
   16  A    between atoms: C_52  and  C_58
                            x       y       z     vdW  Elec       q    Type
                         _______ _______ _______ _____ _____    ______ ____

>  <TORSDO>
F 16

$$$$
=
 OpenBabel11062417213D

 60 64  0  0  1  0  0  0  0  0999 V2000
  188.2100  175.0630  136.2860 C   0  0  2  0  0  0  0  0  0  0  0  0
  189.2130  174.1210  136.2790 C   0  0  0  0  0  2  0  0  0  0  0  0
  191.0110  175.3130  138.8550 O   0  0  0  0  0  0  0  0  0  0  0  0
  189.2750  175.1870  137.3260 N   0  0  0  0  0  0  0  0  0  0  0  0
  189.9160  175.7880  138.4510 C   0  0  0  0  0  0  0  0  0  0  0  0
  189.3140  176.9450  139.1530 C   0  0  0  0  0  0  0  0  0  0  0  0
  188.0010  177.1340  139.1440 C   0  0  0  0  0  2  0  0  0  0  0  0
  191.4990  177.5560  139.8250 O   0  0  0  0  0  1  0  0  0  0  0  0
  190.1590  177.9420  139.8900 C   0  0  2  0  0  3  0  0  0  0  0  0
  189.7060  178.1270  141.3460 C   0  0  1  0  0  3  0  0  0  0  0  0
  185.5070  176.7790  145.0750 O   0  0  0  0  0  0  0  0  0  0  0  0
  186.3470  178.9340  144.4680 C   0  0  0  0  0  2  0  0  0  0  0  0
  187.3850  177.4560  146.2520 N   0  0  0  0  0  2  0  0  0  0  0  0
  186.8290  179.4400  142.3700 C   0  0  0  0  0  2  0  0  0  0  0  0
  189.6100  177.7810  145.6060 O   0  0  0  0  0  0  0  0  0  0  0  0
  185.9490  178.6910  143.1520 O   0  0  0  0  0  0  0  0  0  0  0  0
  188.2880  177.5920  141.5620 C   0  0  0  0  0  2  0  0  0  0  0  0
  188.5670  178.3060  146.3740 C   0  0  2  0  0  3  0  0  0  0  0  0
  192.0370  178.5650  144.0680 C   0  0  0  0  0  2  0  0  0  0  0  0
  189.6190  178.5440  144.4340 C   0  0  0  0  0  2  0  0  0  0  0  0
  187.2510  178.6280  141.1640 C   0  0  0  0  0  2  0  0  0  0  0  0
  186.3950  177.6560  145.2470 C   0  0  0  0  0  0  0  0  0  0  0  0
  190.8290  178.2320  143.6150 C   0  0  0  0  0  0  0  0  0  0  0  0
  190.7190  177.4900  142.3150 C   0  0  1  0  0  3  0  0  0  0  0  0
  189.0060  178.4260  147.8340 C   0  0  0  0  0  3  0  0  0  0  0  0
  190.2790  177.6410  148.1120 C   0  0  0  0  0  1  0  0  0  0  0  0
  187.9010  177.9680  148.7650 C   0  0  0  0  0  1  0  0  0  0  0  0
  191.4870  175.4910  143.5900 C   0  0  0  0  0  1  0  0  0  0  0  0
  190.5460  175.9850  142.5110 C   0  0  0  0  0  2  0  0  0  0  0  0
  186.7990  173.3640  137.1020 O   0  0  0  0  0  0  0  0  0  0  0  0
  186.8860  174.5390  136.7770 C   0  0  0  0  0  0  0  0  0  0  0  0
  185.6900  175.4630  136.8880 C   0  0  0  0  0  2  0  0  0  0  0  0
  184.4240  175.0020  136.1520 C   0  0  1  0  0  3  0  0  0  0  0  0
  184.8020  174.1970  134.9170 C   0  0  0  0  0  1  0  0  0  0  0  0
  183.4600  174.2310  137.0740 C   0  0  1  0  0  3  0  0  0  0  0  0
  183.8200  174.3810  138.4140 O   0  0  0  0  0  1  0  0  0  0  0  0
  181.9600  174.5360  136.9020 C   0  0  2  0  0  3  0  0  0  0  0  0
  179.4890  171.6630  137.0980 C   0  0  0  0  0  3  0  0  0  0  0  0
  179.9330  170.8310  136.0670 C   0  0  0  0  0  0  0  0  0  0  0  0
  181.0330  171.2080  135.2900 C   0  0  0  0  0  3  0  0  0  0  0  0
  179.2860  169.6290  135.8160 O   0  0  0  0  0  1  0  0  0  0  0  0
  181.2370  173.2620  136.5670 C   0  0  0  0  0  0  0  0  0  0  0  0
  181.6870  172.4170  135.5430 C   0  0  0  0  0  3  0  0  0  0  0  0
  180.1430  172.8730  137.3520 C   0  0  0  0  0  3  0  0  0  0  0  0
  181.6900  176.9430  136.3850 C   0  0  2  0  0  3  0  0  0  0  0  0
  180.0640  176.2930  136.2170 S   0  0  0  0  0  0  0  0  0  0  0  0
  179.3210  176.3840  134.9160 O   0  0  0  0  0  0  0  0  0  0  0  0
  179.3610  175.5430  137.3170 O   0  0  0  0  0  0  0  0  0  0  0  0
  181.6880  175.5900  135.9030 N   0  0  0  0  0  0  0  0  0  0  0  0
  182.1680  177.1640  137.8080 C   0  0  0  0  0  0  0  0  0  0  0  0
  181.4330  176.7750  138.9400 C   0  0  0  0  0  3  0  0  0  0  0  0
  181.9230  177.0260  140.2240 C   0  0  0  0  0  3  0  0  0  0  0  0
  183.3800  177.8350  137.9870 C   0  0  0  0  0  3  0  0  0  0  0  0
  183.8700  178.0900  139.2700 C   0  0  0  0  0  3  0  0  0  0  0  0
  183.1440  177.6800  140.3890 C   0  0  0  0  0  3  0  0  0  0  0  0
  188.3190  176.0760  135.1470 C   0  0  0  0  0  2  0  0  0  0  0  0
  188.4370  177.4970  135.6110 C   0  0  0  0  0  0  0  0  0  0  0  0
  189.5330  177.9840  135.8360 O   0  0  0  0  0  0  0  0  0  0  0  0
  187.2170  178.3480  135.7370 C   0  0  0  0  0  2  0  0  0  0  0  0
  187.5660  179.6290  136.1600 O   0  0  0  0  0  1  0  0  0  0  0  0
  1 56  1  6  0  0  0
  1 31  1  0  0  0  0
  1  4  1  0  0  0  0
  2  1  1  0  0  0  0
  2  4  1  0  0  0  0
  4  5  1  0  0  0  0
  5  3  2  0  0  0  0
  5  6  1  0  0  0  0
  6  9  1  0  0  0  0
  7  6  2  0  0  0  0
  9  8  1  1  0  0  0
 10  9  1  6  0  0  0
 10 17  1  0  0  0  0
 10 24  1  0  0  0  0
 11 22  2  0  0  0  0
 12 22  1  0  0  0  0
 13 18  1  0  0  0  0
 14 16  1  0  0  0  0
 15 18  1  0  0  0  0
 16 12  1  0  0  0  0
 18 25  1  1  0  0  0
 20 15  1  0  0  0  0
 21 17  1  0  0  0  0
 21 14  1  0  0  0  0
 22 13  1  0  0  0  0
 23 19  2  0  0  0  0
 23 20  1  0  0  0  0
 24 29  1  1  0  0  0
 24 23  1  0  0  0  0
 25 26  1  0  0  0  0
 25 27  1  0  0  0  0
 29 28  1  0  0  0  0
 31 32  1  0  0  0  0
 31 30  2  0  0  0  0
 33 34  1  6  0  0  0
 33 32  1  0  0  0  0
 33 35  1  0  0  0  0
 35 36  1  1  0  0  0
 37 35  1  6  0  0  0
 38 44  1  0  0  0  0
 39 38  2  0  0  0  0
 40 43  2  0  0  0  0
 40 39  1  0  0  0  0
 41 39  1  0  0  0  0
 42 37  1  0  0  0  0
 42 44  2  0  0  0  0
 43 42  1  0  0  0  0
 45 50  1  1  0  0  0
 46 45  1  0  0  0  0
 46 48  2  0  0  0  0
 47 46  2  0  0  0  0
 49 46  1  0  0  0  0
 49 45  1  0  0  0  0
 49 37  1  0  0  0  0
 50 53  2  0  0  0  0
 50 51  1  0  0  0  0
 51 52  2  0  0  0  0
 52 55  1  0  0  0  0
 53 54  1  0  0  0  0
 54 55  2  0  0  0  0
 56 57  1  0  0  0  0
 57 59  1  0  0  0  0
 57 58  2  0  0  0  0
 59 60  1  0  0  0  0
M  END
>  <MODEL>
7

>  <REMARK>
 VINA RESULT:      -5.1      2.660     10.070
  Name = 
  16 active torsions:
  status: ('A' for Active; 'I' for Inactive)
    1  A    between atoms: C_1  and  C_31
    2  A    between atoms: C_1  and  C_38
    3  A    between atoms: C_2  and  C_21
    4  A    between atoms: C_3  and  C_48
    5  A    between atoms: C_7  and  C_24
    6  A    between atoms: C_8  and  C_45
    7  A    between atoms: C_8  and  C_48
    8  A    between atoms: C_15  and  C_26
    9  A    between atoms: C_15  and  C_43
   10  A    between atoms: C_17  and  C_31
   11  A    between atoms: C_17  and  C_43
   12  A    between atoms: C_18  and  C_38
   13  A    between atoms: C_24  and  C_26
   14  A    between atoms: C_29  and  C_32
   15  A    between atoms: C_38  and  N_59
   16  A    between atoms: C_52  and  C_58
                            x       y       z     vdW  Elec       q    Type
                         _______ _______ _______ _____ _____    ______ ____

>  <TORSDO>
F 16

$$$$
=
 OpenBabel11062417213D

 60 64  0  0  1  0  0  0  0  0999 V2000
  191.0340  177.1850  141.6480 C   0  0  2  0  0  0  0  0  0  0  0  0
  191.1620  175.8990  142.1260 C   0  0  0  0  0  2  0  0  0  0  0  0
  188.0130  175.4780  143.2170 O   0  0  0  0  0  0  0  0  0  0  0  0
  189.8180  176.5460  142.2340 N   0  0  0  0  0  0  0  0  0  0  0  0
  188.4440  176.5010  142.6210 C   0  0  0  0  0  0  0  0  0  0  0  0
  187.5230  177.6210  142.3230 C   0  0  0  0  0  0  0  0  0  0  0  0
  186.5990  177.9910  143.2020 C   0  0  0  0  0  2  0  0  0  0  0  0
  187.5540  179.7440  141.2780 O   0  0  0  0  0  1  0  0  0  0  0  0
  187.5920  178.3710  141.0250 C   0  0  2  0  0  3  0  0  0  0  0  0
  186.4780  177.9560  140.0520 C   0  0  1  0  0  3  0  0  0  0  0  0
  181.6210  179.8130  137.5420 O   0  0  0  0  0  0  0  0  0  0  0  0
  181.9780  177.8500  138.8610 C   0  0  0  0  0  2  0  0  0  0  0  0
  182.4380  177.9910  136.3680 N   0  0  0  0  0  2  0  0  0  0  0  0
  183.2170  177.8960  140.6920 C   0  0  0  0  0  2  0  0  0  0  0  0
  184.5020  176.8910  136.4150 O   0  0  0  0  0  0  0  0  0  0  0  0
  182.3340  178.6670  139.9350 O   0  0  0  0  0  0  0  0  0  0  0  0
  185.3500  178.9900  140.0220 C   0  0  0  0  0  2  0  0  0  0  0  0
  183.1190  176.6980  136.3450 C   0  0  2  0  0  3  0  0  0  0  0  0
  187.0190  175.6100  137.3610 C   0  0  0  0  0  2  0  0  0  0  0  0
  184.8370  176.6440  137.7500 C   0  0  0  0  0  2  0  0  0  0  0  0
  184.3700  178.7580  141.1590 C   0  0  0  0  0  2  0  0  0  0  0  0
  182.0250  178.6210  137.5770 C   0  0  0  0  0  0  0  0  0  0  0  0
  186.3210  176.5990  137.9180 C   0  0  0  0  0  0  0  0  0  0  0  0
  187.0540  177.6850  138.6510 C   0  0  1  0  0  3  0  0  0  0  0  0
  182.7660  175.9160  135.0800 C   0  0  0  0  0  3  0  0  0  0  0  0
  181.2660  175.8870  134.8280 C   0  0  0  0  0  1  0  0  0  0  0  0
  183.3070  174.5020  135.1550 C   0  0  0  0  0  1  0  0  0  0  0  0
  187.4430  178.5480  136.3450 C   0  0  0  0  0  1  0  0  0  0  0  0
  187.2550  178.9360  137.7980 C   0  0  0  0  0  2  0  0  0  0  0  0
  190.1380  177.8540  139.5760 O   0  0  0  0  0  0  0  0  0  0  0  0
  191.0540  177.2790  140.1450 C   0  0  0  0  0  0  0  0  0  0  0  0
  192.2060  176.6880  139.3560 C   0  0  0  0  0  2  0  0  0  0  0  0
  191.8500  176.1480  137.9640 C   0  0  1  0  0  3  0  0  0  0  0  0
  190.6730  176.9220  137.3890 C   0  0  0  0  0  1  0  0  0  0  0  0
  193.0610  176.1420  137.0120 C   0  0  1  0  0  3  0  0  0  0  0  0
  193.9610  177.1570  137.3410 O   0  0  0  0  0  1  0  0  0  0  0  0
  193.8130  174.8050  136.8710 C   0  0  2  0  0  3  0  0  0  0  0  0
  195.7790  175.0500  140.1070 C   0  0  0  0  0  3  0  0  0  0  0  0
  197.0930  174.8950  139.6570 C   0  0  0  0  0  0  0  0  0  0  0  0
  197.3470  174.6940  138.2970 C   0  0  0  0  0  3  0  0  0  0  0  0
  198.1470  174.9450  140.5600 O   0  0  0  0  0  1  0  0  0  0  0  0
  194.9660  174.7890  137.8350 C   0  0  0  0  0  0  0  0  0  0  0  0
  196.2870  174.6470  137.3870 C   0  0  0  0  0  3  0  0  0  0  0  0
  194.7180  175.0030  139.1970 C   0  0  0  0  0  3  0  0  0  0  0  0
  193.2880  173.9310  134.6140 C   0  0  2  0  0  3  0  0  0  0  0  0
  194.4150  172.7490  135.2710 S   0  0  0  0  0  0  0  0  0  0  0  0
  195.7240  172.4640  134.5940 O   0  0  0  0  0  0  0  0  0  0  0  0
  194.1840  172.0280  136.5720 O   0  0  0  0  0  0  0  0  0  0  0  0
  194.2580  174.5270  135.4910 N   0  0  0  0  0  0  0  0  0  0  0  0
  191.8640  173.8390  135.1280 C   0  0  0  0  0  0  0  0  0  0  0  0
  191.4400  172.8830  136.0650 C   0  0  0  0  0  3  0  0  0  0  0  0
  190.1060  172.8420  136.4810 C   0  0  0  0  0  3  0  0  0  0  0  0
  190.9260  174.7270  134.5940 C   0  0  0  0  0  3  0  0  0  0  0  0
  189.5920  174.6850  135.0080 C   0  0  0  0  0  3  0  0  0  0  0  0
  189.1830  173.7460  135.9550 C   0  0  0  0  0  3  0  0  0  0  0  0
  191.6910  178.2340  142.5440 C   0  0  0  0  0  2  0  0  0  0  0  0
  191.0380  178.3750  143.8870 C   0  0  0  0  0  0  0  0  0  0  0  0
  190.1680  179.2120  144.0660 O   0  0  0  0  0  0  0  0  0  0  0  0
  191.4000  177.4470  144.9980 C   0  0  0  0  0  2  0  0  0  0  0  0
  190.2670  177.1170  145.7390 O   0  0  0  0  0  1  0  0  0  0  0  0
  1  2  1  0  0  0  0
  1  4  1  0  0  0  0
  1 56  1  1  0  0  0
  2  4  1  0  0  0  0
  4  5  1  0  0  0  0
  5  3  2  0  0  0  0
  6  5  1  0  0  0  0
  6  7  2  0  0  0  0
  9  8  1  1  0  0  0
  9  6  1  0  0  0  0
 10  9  1  1  0  0  0
 11 22  2  0  0  0  0
 12 16  1  0  0  0  0
 13 22  1  0  0  0  0
 14 21  1  0  0  0  0
 15 20  1  0  0  0  0
 16 14  1  0  0  0  0
 17 10  1  0  0  0  0
 17 21  1  0  0  0  0
 18 25  1  6  0  0  0
 18 13  1  0  0  0  0
 18 15  1  0  0  0  0
 19 23  2  0  0  0  0
 20 23  1  0  0  0  0
 22 12  1  0  0  0  0
 23 24  1  0  0  0  0
 24 29  1  6  0  0  0
 24 10  1  0  0  0  0
 25 27  1  0  0  0  0
 26 25  1  0  0  0  0
 28 29  1  0  0  0  0
 30 31  2  0  0  0  0
 31  1  1  0  0  0  0
 32 31  1  0  0  0  0
 33 34  1  6  0  0  0
 33 32  1  0  0  0  0
 35 36  1  1  0  0  0
 35 33  1  0  0  0  0
 37 35  1  6  0  0  0
 37 42  1  0  0  0  0
 39 38  1  0  0  0  0
 39 41  1  0  0  0  0
 40 39  2  0  0  0  0
 42 44  1  0  0  0  0
 43 42  2  0  0  0  0
 43 40  1  0  0  0  0
 44 38  2  0  0  0  0
 45 50  1  1  0  0  0
 45 46  1  0  0  0  0
 45 49  1  0  0  0  0
 46 49  1  0  0  0  0
 46 48  2  0  0  0  0
 47 46  2  0  0  0  0
 49 37  1  0  0  0  0
 50 51  1  0  0  0  0
 51 52  2  0  0  0  0
 53 54  1  0  0  0  0
 53 50  2  0  0  0  0
 54 55  2  0  0  0  0
 55 52  1  0  0  0  0
 56 57  1  0  0  0  0
 57 58  2  0  0  0  0
 57 59  1  0  0  0  0
 59 60  1  0  0  0  0
M  END
>  <MODEL>
8

>  <REMARK>
 VINA RESULT:      -5.0      3.689      8.111
  Name = 
  16 active torsions:
  status: ('A' for Active; 'I' for Inactive)
    1  A    between atoms: C_1  and  C_31
    2  A    between atoms: C_1  and  C_38
    3  A    between atoms: C_2  and  C_21
    4  A    between atoms: C_3  and  C_48
    5  A    between atoms: C_7  and  C_24
    6  A    between atoms: C_8  and  C_45
    7  A    between atoms: C_8  and  C_48
    8  A    between atoms: C_15  and  C_26
    9  A    between atoms: C_15  and  C_43
   10  A    between atoms: C_17  and  C_31
   11  A    between atoms: C_17  and  C_43
   12  A    between atoms: C_18  and  C_38
   13  A    between atoms: C_24  and  C_26
   14  A    between atoms: C_29  and  C_32
   15  A    between atoms: C_38  and  N_59
   16  A    between atoms: C_52  and  C_58
                            x       y       z     vdW  Elec       q    Type
                         _______ _______ _______ _____ _____    ______ ____

>  <TORSDO>
F 16

$$$$
=
 OpenBabel11062417213D

 60 64  0  0  1  0  0  0  0  0999 V2000
  190.0540  177.2330  138.0410 C   0  0  2  0  0  0  0  0  0  0  0  0
  189.6450  178.5000  137.6880 C   0  0  0  0  0  2  0  0  0  0  0  0
  187.1460  177.6380  135.6160 O   0  0  0  0  0  0  0  0  0  0  0  0
  188.8950  177.3450  137.1050 N   0  0  0  0  0  0  0  0  0  0  0  0
  187.8500  176.8310  136.2790 C   0  0  0  0  0  0  0  0  0  0  0  0
  187.5750  175.3780  136.2010 C   0  0  0  0  0  0  0  0  0  0  0  0
  188.0330  174.6560  135.1860 C   0  0  0  0  0  2  0  0  0  0  0  0
  187.1640  173.3370  137.3260 O   0  0  0  0  0  1  0  0  0  0  0  0
  186.7670  174.6740  137.2510 C   0  0  2  0  0  3  0  0  0  0  0  0
  185.2560  174.7900  137.0000 C   0  0  1  0  0  3  0  0  0  0  0  0
  180.1140  172.9580  138.8850 O   0  0  0  0  0  0  0  0  0  0  0  0
  181.0440  172.8310  136.6850 C   0  0  0  0  0  2  0  0  0  0  0  0
  179.8210  174.8600  137.5950 N   0  0  0  0  0  2  0  0  0  0  0  0
  183.1630  172.2910  136.3530 C   0  0  0  0  0  2  0  0  0  0  0  0
  181.3270  176.4620  136.7940 O   0  0  0  0  0  0  0  0  0  0  0  0
  182.0770  172.0420  137.1940 O   0  0  0  0  0  0  0  0  0  0  0  0
  184.4700  173.7890  137.8510 C   0  0  0  0  0  2  0  0  0  0  0  0
  180.2060  175.6950  136.4600 C   0  0  2  0  0  3  0  0  0  0  0  0
  183.7360  177.7600  135.6180 C   0  0  0  0  0  2  0  0  0  0  0  0
  182.4110  175.7930  136.2160 C   0  0  0  0  0  2  0  0  0  0  0  0
  184.4240  172.4270  137.1800 C   0  0  0  0  0  2  0  0  0  0  0  0
  180.3340  173.5470  137.7930 C   0  0  0  0  0  0  0  0  0  0  0  0
  183.6490  176.6240  136.3100 C   0  0  0  0  0  0  0  0  0  0  0  0
  184.7790  176.2370  137.2200 C   0  0  1  0  0  3  0  0  0  0  0  0
  179.0570  176.6110  136.0390 C   0  0  0  0  0  3  0  0  0  0  0  0
  179.1960  177.0760  134.5970 C   0  0  0  0  0  1  0  0  0  0  0  0
  178.9610  177.8090  136.9630 C   0  0  0  0  0  1  0  0  0  0  0  0
  183.2960  177.5050  138.7710 C   0  0  0  0  0  1  0  0  0  0  0  0
  184.5060  176.5990  138.6790 C   0  0  0  0  0  2  0  0  0  0  0  0
  190.5550  176.3100  140.1490 O   0  0  0  0  0  0  0  0  0  0  0  0
  189.7080  176.8540  139.4570 C   0  0  0  0  0  0  0  0  0  0  0  0
  188.3340  177.1660  140.0180 C   0  0  0  0  0  2  0  0  0  0  0  0
  188.3170  177.9560  141.3330 C   0  0  1  0  0  3  0  0  0  0  0  0
  187.5060  179.2330  141.1640 C   0  0  0  0  0  1  0  0  0  0  0  0
  187.8200  177.1070  142.5190 C   0  0  1  0  0  3  0  0  0  0  0  0
  188.4230  175.8480  142.5200 O   0  0  0  0  0  1  0  0  0  0  0  0
  187.9460  177.7440  143.9160 C   0  0  2  0  0  3  0  0  0  0  0  0
  191.1470  179.7740  143.7290 C   0  0  0  0  0  3  0  0  0  0  0  0
  192.0520  178.9460  144.3990 C   0  0  0  0  0  0  0  0  0  0  0  0
  191.6210  177.7260  144.9300 C   0  0  0  0  0  3  0  0  0  0  0  0
  193.3790  179.3320  144.5340 O   0  0  0  0  0  1  0  0  0  0  0  0
  189.3720  178.1690  144.1330 C   0  0  0  0  0  0  0  0  0  0  0  0
  190.2860  177.3350  144.7920 C   0  0  0  0  0  3  0  0  0  0  0  0
  189.8110  179.3840  143.5900 C   0  0  0  0  0  3  0  0  0  0  0  0
  186.0900  177.0010  145.3770 C   0  0  2  0  0  3  0  0  0  0  0  0
  187.1660  177.8630  146.4710 S   0  0  0  0  0  0  0  0  0  0  0  0
  187.7840  177.1760  147.6530 O   0  0  0  0  0  0  0  0  0  0  0  0
  187.5960  179.2880  146.2470 O   0  0  0  0  0  0  0  0  0  0  0  0
  187.4710  176.8670  145.0050 N   0  0  0  0  0  0  0  0  0  0  0  0
  185.2210  177.8700  144.4880 C   0  0  0  0  0  0  0  0  0  0  0  0
  185.0860  177.6700  143.1040 C   0  0  0  0  0  3  0  0  0  0  0  0
  184.2830  178.5210  142.3400 C   0  0  0  0  0  3  0  0  0  0  0  0
  184.5660  178.9520  145.0820 C   0  0  0  0  0  3  0  0  0  0  0  0
  183.7650  179.8050  144.3190 C   0  0  0  0  0  3  0  0  0  0  0  0
  183.6190  179.5870  142.9480 C   0  0  0  0  0  3  0  0  0  0  0  0
  191.3640  176.8120  137.3770 C   0  0  0  0  0  2  0  0  0  0  0  0
  191.3730  175.3870  136.9090 C   0  0  0  0  0  0  0  0  0  0  0  0
  191.4560  174.4730  137.7140 O   0  0  0  0  0  0  0  0  0  0  0  0
  191.2120  175.0730  135.4590 C   0  0  0  0  0  2  0  0  0  0  0  0
  191.5260  173.7360  135.2180 O   0  0  0  0  0  1  0  0  0  0  0  0
  1 56  1  6  0  0  0
  1 31  1  0  0  0  0
  2  1  1  0  0  0  0
  3  5  2  0  0  0  0
  4  2  1  0  0  0  0
  4  1  1  0  0  0  0
  5  4  1  0  0  0  0
  6  5  1  0  0  0  0
  6  9  1  0  0  0  0
  7  6  2  0  0  0  0
  9  8  1  6  0  0  0
 10 24  1  0  0  0  0
 10  9  1  1  0  0  0
 10 17  1  0  0  0  0
 12 16  1  0  0  0  0
 12 22  1  0  0  0  0
 13 22  1  0  0  0  0
 14 21  1  0  0  0  0
 14 16  1  0  0  0  0
 18 25  1  1  0  0  0
 18 15  1  0  0  0  0
 18 13  1  0  0  0  0
 19 23  2  0  0  0  0
 20 23  1  0  0  0  0
 20 15  1  0  0  0  0
 21 17  1  0  0  0  0
 22 11  2  0  0  0  0
 23 24  1  0  0  0  0
 24 29  1  1  0  0  0
 25 27  1  0  0  0  0
 26 25  1  0  0  0  0
 29 28  1  0  0  0  0
 31 32  1  0  0  0  0
 31 30  2  0  0  0  0
 32 33  1  0  0  0  0
 33 34  1  6  0  0  0
 33 35  1  0  0  0  0
 35 36  1  1  0  0  0
 37 35  1  6  0  0  0
 37 42  1  0  0  0  0
 37 49  1  0  0  0  0
 38 39  1  0  0  0  0
 39 41  1  0  0  0  0
 39 40  2  0  0  0  0
 42 43  2  0  0  0  0
 43 40  1  0  0  0  0
 44 38  2  0  0  0  0
 44 42  1  0  0  0  0
 45 50  1  6  0  0  0
 45 46  1  0  0  0  0
 46 47  2  0  0  0  0
 48 46  2  0  0  0  0
 49 45  1  0  0  0  0
 49 46  1  0  0  0  0
 50 53  1  0  0  0  0
 51 50  2  0  0  0  0
 52 55  2  0  0  0  0
 52 51  1  0  0  0  0
 54 53  2  0  0  0  0
 55 54  1  0  0  0  0
 57 56  1  0  0  0  0
 57 58  2  0  0  0  0
 59 57  1  0  0  0  0
 60 59  1  0  0  0  0
M  END
>  <MODEL>
9

>  <REMARK>
 VINA RESULT:      -4.1      1.947      4.720
  Name = 
  16 active torsions:
  status: ('A' for Active; 'I' for Inactive)
    1  A    between atoms: C_1  and  C_31
    2  A    between atoms: C_1  and  C_38
    3  A    between atoms: C_2  and  C_21
    4  A    between atoms: C_3  and  C_48
    5  A    between atoms: C_7  and  C_24
    6  A    between atoms: C_8  and  C_45
    7  A    between atoms: C_8  and  C_48
    8  A    between atoms: C_15  and  C_26
    9  A    between atoms: C_15  and  C_43
   10  A    between atoms: C_17  and  C_31
   11  A    between atoms: C_17  and  C_43
   12  A    between atoms: C_18  and  C_38
   13  A    between atoms: C_24  and  C_26
   14  A    between atoms: C_29  and  C_32
   15  A    between atoms: C_38  and  N_59
   16  A    between atoms: C_52  and  C_58
                            x       y       z     vdW  Elec       q    Type
                         _______ _______ _______ _____ _____    ______ ____

>  <TORSDO>
F 16

$$$$
