=
 OpenBabel11062414253D

 50 53  0  0  1  0  0  0  0  0999 V2000
  188.1470  175.4320  137.1410 C   0  0  1  0  0  3  0  0  0  0  0  0
  184.1210  173.1450  136.3180 C   0  0  0  0  0  2  0  0  0  0  0  0
  186.3830  173.6130  137.2830 C   0  0  0  0  0  2  0  0  0  0  0  0
  183.8720  175.4010  137.4330 C   0  0  2  0  0  3  0  0  0  0  0  0
  184.2940  176.0110  136.2340 O   0  0  0  0  0  0  0  0  0  0  0  0
  187.1180  176.3350  136.7710 O   0  0  0  0  0  0  0  0  0  0  0  0
  182.0020  174.2240  136.4640 O   0  0  0  0  0  1  0  0  0  0  0  0
  185.4890  173.7710  136.0490 C   0  0  2  0  0  3  0  0  0  0  0  0
  187.8300  173.9380  136.9410 C   0  0  0  0  0  2  0  0  0  0  0  0
  183.2050  174.0470  137.1510 C   0  0  1  0  0  3  0  0  0  0  0  0
  185.3130  175.2470  135.5930 C   0  0  2  0  0  3  0  0  0  0  0  0
  186.6390  176.0020  135.4900 C   0  0  1  0  0  3  0  0  0  0  0  0
  189.5660  176.1140  135.1810 O   0  0  0  0  0  1  0  0  0  0  0  0
  190.5810  176.4920  137.3890 C   0  0  1  0  0  3  0  0  0  0  0  0
  190.6850  175.0150  137.0170 C   0  0  0  0  0  2  0  0  0  0  0  0
  189.5020  175.8280  136.5440 C   0  0  1  0  0  0  0  0  0  0  0  0
  190.2180  176.6070  138.8340 C   0  0  0  0  0  3  0  0  0  0  0  0
  191.0650  177.1880  139.6810 C   0  0  0  0  0  3  0  0  0  0  0  0
  189.5120  176.4040  143.7430 C   0  0  0  0  0  2  0  0  0  0  0  0
  191.7390  175.5010  143.9370 O   0  0  0  0  0  1  0  0  0  0  0  0
  189.4180  177.0580  141.6100 C   0  0  0  0  0  2  0  0  0  0  0  0
  190.8050  177.3380  141.1200 C   0  0  0  0  0  0  0  0  0  0  0  0
  190.9650  176.6430  144.1560 C   0  0  1  0  0  3  0  0  0  0  0  0
  189.4300  175.9230  142.4280 O   0  0  0  0  0  0  0  0  0  0  0  0
  191.7790  177.6780  141.9750 C   0  0  0  0  0  3  0  0  0  0  0  0
  191.5670  177.8650  143.4540 C   0  0  0  0  0  2  0  0  0  0  0  0
  182.7690  176.5130  138.3710 P   0  0  2  0  0  0  0  0  0  0  0  0
  182.4390  175.8100  139.8730 O   0  0  0  0  0  1  0  0  0  0  0  0
  181.4670  176.6990  137.6230 O   0  0  0  0  0  0  0  0  0  0  0  0
  183.5080  178.0180  138.6420 O   0  0  0  0  0  0  0  0  0  0  0  0
  183.0390  178.4710  139.8860 C   0  0  1  0  0  3  0  0  0  0  0  0
  184.0750  178.9200  140.7340 O   0  0  0  0  0  0  0  0  0  0  0  0
  184.0800  178.1430  141.9000 C   0  0  0  0  0  2  0  0  0  0  0  0
  184.5920  178.9750  143.0600 C   0  0  0  0  0  2  0  0  0  0  0  0
  183.4580  179.3000  144.0130 C   0  0  0  0  0  2  0  0  0  0  0  0
  183.8930  179.0810  145.3850 N   0  0  0  0  0  2  0  0  0  0  0  0
  186.0890  178.5890  146.4150 C   0  0  0  0  0  0  0  0  0  0  0  0
  185.8780  179.3920  147.3620 O   0  0  0  0  0  0  0  0  0  0  0  0
  185.1490  178.4590  145.3480 N   0  0  0  0  0  2  0  0  0  0  0  0
  187.3190  177.7400  146.4240 C   0  0  0  0  0  2  0  0  0  0  0  0
  189.6250  177.4870  147.4150 C   0  0  0  0  0  1  0  0  0  0  0  0
  187.6490  177.4330  148.8420 N   0  0  0  0  0  1  0  0  0  0  0  0
  188.2160  178.0080  147.6320 C   0  0  2  0  0  3  0  0  0  0  0  0
  181.8680  179.4590  139.7700 C   0  0  0  0  0  2  0  0  0  0  0  0
  181.7290  180.0800  138.3850 C   0  0  0  0  0  2  0  0  0  0  0  0
  180.9340  182.1270  137.2130 C   0  0  0  0  0  1  0  0  0  0  0  0
  182.8270  182.1680  138.6430 O   0  0  0  0  0  1  0  0  0  0  0  0
  181.5750  181.5850  138.4750 C   0  0  2  0  0  3  0  0  0  0  0  0
  186.5480  177.2330  134.5940 C   0  0  0  0  0  2  0  0  0  0  0  0
  187.0780  178.3580  135.2250 O   0  0  0  0  0  1  0  0  0  0  0  0
  1  9  1  6  0  0  0
  2 10  1  0  0  0  0
  4 27  1  6  0  0  0
  5  4  1  0  0  0  0
  6  1  1  0  0  0  0
  8  2  1  1  0  0  0
  8  3  1  0  0  0  0
  9  3  1  0  0  0  0
 10  7  1  6  0  0  0
 10  4  1  0  0  0  0
 11  8  1  0  0  0  0
 11  5  1  1  0  0  0
 12 49  1  6  0  0  0
 12 11  1  0  0  0  0
 12  6  1  0  0  0  0
 14 17  1  1  0  0  0
 15 14  1  0  0  0  0
 16 13  1  6  0  0  0
 16 15  1  0  0  0  0
 16  1  1  0  0  0  0
 16 14  1  0  0  0  0
 17 18  2  0  0  0  0
 18 22  1  0  0  0  0
 19 23  1  0  0  0  0
 21 24  1  0  0  0  0
 22 21  1  0  0  0  0
 22 25  2  0  0  0  0
 23 20  1  6  0  0  0
 24 19  1  0  0  0  0
 25 26  1  0  0  0  0
 26 23  1  0  0  0  0
 27 29  2  6  0  0  0
 27 30  1  0  0  0  0
 27 28  1  0  0  0  0
 30 31  1  0  0  0  0
 31 44  1  6  0  0  0
 31 32  1  0  0  0  0
 32 33  1  0  0  0  0
 33 34  1  0  0  0  0
 34 35  1  0  0  0  0
 35 36  1  0  0  0  0
 37 40  1  0  0  0  0
 37 38  2  0  0  0  0
 39 36  1  0  0  0  0
 39 37  1  0  0  0  0
 40 43  1  0  0  0  0
 43 41  1  6  0  0  0
 43 42  1  0  0  0  0
 45 48  1  0  0  0  0
 45 44  1  0  0  0  0
 48 46  1  6  0  0  0
 48 47  1  0  0  0  0
 49 50  1  0  0  0  0
M  END
>  <MODEL>
1

>  <REMARK>
 VINA RESULT:      -7.3      0.000      0.000
  Name = 
  18 active torsions:
  status: ('A' for Active; 'I' for Inactive)
    1  A    between atoms: N_1  and  C_11
    2  A    between atoms: N_1  and  N_33
    3  A    between atoms: P_2  and  C_15
    4  A    between atoms: P_2  and  O_32
    5  A    between atoms: C_4  and  C_24
    6  A    between atoms: C_6  and  C_19
    7  A    between atoms: C_9  and  C_30
    8  A    between atoms: C_11  and  C_25
    9  A    between atoms: C_23  and  O_28
   10  A    between atoms: C_23  and  O_32
   11  A    between atoms: C_23  and  C_39
   12  A    between atoms: C_24  and  C_41
   13  A    between atoms: C_25  and  C_29
   14  A    between atoms: C_26  and  C_44
   15  A    between atoms: O_28  and  C_29
   16  A    between atoms: C_31  and  C_36
   17  A    between atoms: C_31  and  C_39
   18  A    between atoms: C_35  and  C_50
                            x       y       z     vdW  Elec       q    Type
                         _______ _______ _______ _____ _____    ______ ____

>  <TORSDO>
F 18

$$$$
=
 OpenBabel11062414253D

 50 53  0  0  1  0  0  0  0  0999 V2000
  183.6110  175.3840  136.9490 C   0  0  1  0  0  3  0  0  0  0  0  0
  187.2530  177.4240  134.7830 C   0  0  0  0  0  2  0  0  0  0  0  0
  184.8900  177.0420  135.5160 C   0  0  0  0  0  2  0  0  0  0  0  0
  187.3760  177.3970  137.3090 C   0  0  2  0  0  3  0  0  0  0  0  0
  187.5510  175.9990  137.2590 O   0  0  0  0  0  0  0  0  0  0  0  0
  184.8230  175.1110  137.6320 O   0  0  0  0  0  0  0  0  0  0  0  0
  189.2810  177.9310  135.9270 O   0  0  0  0  0  1  0  0  0  0  0  0
  186.2080  176.3640  135.1280 C   0  0  2  0  0  3  0  0  0  0  0  0
  183.7570  176.0270  135.5560 C   0  0  0  0  0  2  0  0  0  0  0  0
  187.8930  178.0570  136.0220 C   0  0  1  0  0  3  0  0  0  0  0  0
  186.7630  175.4120  136.2250 C   0  0  2  0  0  3  0  0  0  0  0  0
  185.7100  174.4440  136.7660 C   0  0  1  0  0  3  0  0  0  0  0  0
  183.2340  172.8990  136.8610 O   0  0  0  0  0  1  0  0  0  0  0  0
  181.2960  174.2260  137.5910 C   0  0  1  0  0  3  0  0  0  0  0  0
  181.4400  174.3110  136.0730 C   0  0  0  0  0  2  0  0  0  0  0  0
  182.6710  174.1730  136.9380 C   0  0  1  0  0  0  0  0  0  0  0  0
  180.9430  175.5770  138.1240 C   0  0  0  0  0  3  0  0  0  0  0  0
  180.8420  175.7600  139.4380 C   0  0  0  0  0  3  0  0  0  0  0  0
  179.4310  178.7090  142.4120 C   0  0  0  0  0  2  0  0  0  0  0  0
  181.8170  178.8810  142.7130 O   0  0  0  0  0  1  0  0  0  0  0  0
  179.2330  177.1040  140.8720 C   0  0  0  0  0  2  0  0  0  0  0  0
  180.4880  177.0450  140.0580 C   0  0  0  0  0  0  0  0  0  0  0  0
  180.7250  179.4380  142.0440 C   0  0  1  0  0  3  0  0  0  0  0  0
  179.5550  177.3260  142.2150 O   0  0  0  0  0  0  0  0  0  0  0  0
  181.2760  178.1220  139.9340 C   0  0  0  0  0  3  0  0  0  0  0  0
  180.9560  179.4680  140.5300 C   0  0  0  0  0  2  0  0  0  0  0  0
  188.1760  178.0970  138.7930 P   0  0  2  0  0  0  0  0  0  0  0  0
  186.9750  178.5450  139.8950 O   0  0  0  0  0  1  0  0  0  0  0  0
  188.9760  179.3250  138.4180 O   0  0  0  0  0  0  0  0  0  0  0  0
  189.1810  176.9500  139.5420 O   0  0  0  0  0  0  0  0  0  0  0  0
  190.4910  177.4450  139.4360 C   0  0  1  0  0  3  0  0  0  0  0  0
  191.1060  177.6460  140.6920 O   0  0  0  0  0  0  0  0  0  0  0  0
  190.3740  176.9640  141.6730 C   0  0  0  0  0  2  0  0  0  0  0  0
  190.2400  177.8400  142.9040 C   0  0  0  0  0  2  0  0  0  0  0  0
  191.4670  177.6970  143.7840 C   0  0  0  0  0  2  0  0  0  0  0  0
  191.0830  177.1440  145.0750 N   0  0  0  0  0  2  0  0  0  0  0  0
  189.1200  177.2290  146.5790 C   0  0  0  0  0  0  0  0  0  0  0  0
  189.6140  176.3660  147.3510 O   0  0  0  0  0  0  0  0  0  0  0  0
  189.7890  177.5950  145.3710 N   0  0  0  0  0  2  0  0  0  0  0  0
  187.8360  177.9020  146.9440 C   0  0  0  0  0  2  0  0  0  0  0  0
  185.6770  178.9170  146.1230 C   0  0  0  0  0  1  0  0  0  0  0  0
  186.6760  177.0210  144.9620 N   0  0  0  0  0  1  0  0  0  0  0  0
  186.9680  178.2230  145.7280 C   0  0  2  0  0  3  0  0  0  0  0  0
  191.3600  176.6540  138.4470 C   0  0  0  0  0  2  0  0  0  0  0  0
  190.8170  175.2640  138.1350 C   0  0  0  0  0  2  0  0  0  0  0  0
  190.7190  173.5260  136.3550 C   0  0  0  0  0  1  0  0  0  0  0  0
  192.7680  174.1390  137.3840 O   0  0  0  0  0  1  0  0  0  0  0  0
  191.5440  174.6460  136.9570 C   0  0  2  0  0  3  0  0  0  0  0  0
  186.3250  173.2190  137.4360 C   0  0  0  0  0  2  0  0  0  0  0  0
  186.7710  172.2970  136.4890 O   0  0  0  0  0  1  0  0  0  0  0  0
  1  9  1  6  0  0  0
  1  6  1  0  0  0  0
  2 10  1  0  0  0  0
  3  9  1  0  0  0  0
  4 27  1  1  0  0  0
  5  4  1  0  0  0  0
  8  2  1  1  0  0  0
  8  3  1  0  0  0  0
  8 11  1  0  0  0  0
 10  7  1  6  0  0  0
 10  4  1  0  0  0  0
 11 12  1  0  0  0  0
 11  5  1  1  0  0  0
 12 49  1  1  0  0  0
 12  6  1  0  0  0  0
 14 17  1  1  0  0  0
 15 16  1  0  0  0  0
 15 14  1  0  0  0  0
 16 13  1  6  0  0  0
 16  1  1  0  0  0  0
 16 14  1  0  0  0  0
 17 18  2  0  0  0  0
 18 22  1  0  0  0  0
 21 24  1  0  0  0  0
 22 21  1  0  0  0  0
 23 19  1  0  0  0  0
 23 20  1  1  0  0  0
 24 19  1  0  0  0  0
 25 22  2  0  0  0  0
 25 26  1  0  0  0  0
 26 23  1  0  0  0  0
 27 29  2  6  0  0  0
 27 30  1  0  0  0  0
 27 28  1  0  0  0  0
 31 44  1  6  0  0  0
 31 30  1  0  0  0  0
 31 32  1  0  0  0  0
 32 33  1  0  0  0  0
 33 34  1  0  0  0  0
 34 35  1  0  0  0  0
 35 36  1  0  0  0  0
 36 39  1  0  0  0  0
 37 40  1  0  0  0  0
 37 38  2  0  0  0  0
 39 37  1  0  0  0  0
 42 43  1  0  0  0  0
 43 41  1  1  0  0  0
 43 40  1  0  0  0  0
 45 44  1  0  0  0  0
 48 46  1  1  0  0  0
 48 47  1  0  0  0  0
 48 45  1  0  0  0  0
 50 49  1  0  0  0  0
M  END
>  <MODEL>
2

>  <REMARK>
 VINA RESULT:      -7.1      2.512      7.648
  Name = 
  18 active torsions:
  status: ('A' for Active; 'I' for Inactive)
    1  A    between atoms: N_1  and  C_11
    2  A    between atoms: N_1  and  N_33
    3  A    between atoms: P_2  and  C_15
    4  A    between atoms: P_2  and  O_32
    5  A    between atoms: C_4  and  C_24
    6  A    between atoms: C_6  and  C_19
    7  A    between atoms: C_9  and  C_30
    8  A    between atoms: C_11  and  C_25
    9  A    between atoms: C_23  and  O_28
   10  A    between atoms: C_23  and  O_32
   11  A    between atoms: C_23  and  C_39
   12  A    between atoms: C_24  and  C_41
   13  A    between atoms: C_25  and  C_29
   14  A    between atoms: C_26  and  C_44
   15  A    between atoms: O_28  and  C_29
   16  A    between atoms: C_31  and  C_36
   17  A    between atoms: C_31  and  C_39
   18  A    between atoms: C_35  and  C_50
                            x       y       z     vdW  Elec       q    Type
                         _______ _______ _______ _____ _____    ______ ____

>  <TORSDO>
F 18

$$$$
=
 OpenBabel11062414253D

 50 53  0  0  1  0  0  0  0  0999 V2000
  184.2620  174.6800  137.0970 C   0  0  1  0  0  3  0  0  0  0  0  0
  187.1860  177.4390  134.6560 C   0  0  0  0  0  2  0  0  0  0  0  0
  185.0680  176.6740  135.7500 C   0  0  0  0  0  2  0  0  0  0  0  0
  187.8320  177.0490  137.0700 C   0  0  2  0  0  3  0  0  0  0  0  0
  188.1130  175.7050  136.7510 O   0  0  0  0  0  0  0  0  0  0  0  0
  185.6080  174.4540  137.4790 O   0  0  0  0  0  0  0  0  0  0  0  0
  189.3560  178.0060  135.4620 O   0  0  0  0  0  1  0  0  0  0  0  0
  186.3300  176.2230  135.0090 C   0  0  2  0  0  3  0  0  0  0  0  0
  184.0600  175.5370  135.8330 C   0  0  0  0  0  2  0  0  0  0  0  0
  188.0120  177.9510  135.8400 C   0  0  1  0  0  3  0  0  0  0  0  0
  187.1810  175.1900  135.8010 C   0  0  2  0  0  3  0  0  0  0  0  0
  186.3500  174.0340  136.3600 C   0  0  1  0  0  3  0  0  0  0  0  0
  184.0970  172.1850  137.3630 O   0  0  0  0  0  1  0  0  0  0  0  0
  181.9460  173.3760  137.3100 C   0  0  1  0  0  3  0  0  0  0  0  0
  182.4980  173.2410  135.8930 C   0  0  0  0  0  2  0  0  0  0  0  0
  183.4480  173.3810  137.0600 C   0  0  1  0  0  0  0  0  0  0  0  0
  181.3660  174.7430  137.4800 C   0  0  0  0  0  3  0  0  0  0  0  0
  181.0700  175.1860  138.6990 C   0  0  0  0  0  3  0  0  0  0  0  0
  180.0480  178.9490  140.7770 C   0  0  0  0  0  2  0  0  0  0  0  0
  181.8420  179.7020  139.3520 O   0  0  0  0  0  1  0  0  0  0  0  0
  179.9410  176.7620  140.3390 C   0  0  0  0  0  2  0  0  0  0  0  0
  180.4870  176.5080  138.9680 C   0  0  0  0  0  0  0  0  0  0  0  0
  180.4530  179.5890  139.4470 C   0  0  1  0  0  3  0  0  0  0  0  0
  180.7180  177.7340  140.9800 O   0  0  0  0  0  0  0  0  0  0  0  0
  180.4730  177.4690  138.0350 C   0  0  0  0  0  3  0  0  0  0  0  0
  179.8730  178.8340  138.2470 C   0  0  0  0  0  2  0  0  0  0  0  0
  188.8590  177.6090  138.4720 P   0  0  2  0  0  0  0  0  0  0  0  0
  189.0340  179.2880  138.3790 O   0  0  0  0  0  0  0  0  0  0  0  0
  190.2280  176.9710  138.3950 O   0  0  0  0  0  1  0  0  0  0  0  0
  188.1210  177.2350  139.9550 O   0  0  0  0  0  0  0  0  0  0  0  0
  188.5240  178.2320  140.8590 C   0  0  1  0  0  3  0  0  0  0  0  0
  187.5170  179.1900  141.1050 O   0  0  0  0  0  0  0  0  0  0  0  0
  186.3170  178.5270  141.3980 C   0  0  0  0  0  2  0  0  0  0  0  0
  186.0860  178.5390  142.8980 C   0  0  0  0  0  2  0  0  0  0  0  0
  184.6030  178.6370  143.1990 C   0  0  0  0  0  2  0  0  0  0  0  0
  184.3980  178.6970  144.6380 N   0  0  0  0  0  2  0  0  0  0  0  0
  186.0010  178.4770  146.5110 C   0  0  0  0  0  0  0  0  0  0  0  0
  185.6140  179.5560  147.0320 O   0  0  0  0  0  0  0  0  0  0  0  0
  185.4730  178.0430  145.2570 N   0  0  0  0  0  2  0  0  0  0  0  0
  187.0000  177.6240  147.2260 C   0  0  0  0  0  2  0  0  0  0  0  0
  189.0190  177.1180  145.8020 C   0  0  0  0  0  1  0  0  0  0  0  0
  189.2840  177.9390  148.0810 N   0  0  0  0  0  1  0  0  0  0  0  0
  188.4440  177.9990  146.8950 C   0  0  2  0  0  3  0  0  0  0  0  0
  189.1620  177.6690  142.1380 C   0  0  0  0  0  2  0  0  0  0  0  0
  190.2160  176.6000  141.8750 C   0  0  0  0  0  2  0  0  0  0  0  0
  191.5540  178.1750  143.2620 C   0  0  0  0  0  1  0  0  0  0  0  0
  192.1540  177.6730  141.0210 O   0  0  0  0  0  1  0  0  0  0  0  0
  191.6080  177.1190  142.1760 C   0  0  2  0  0  3  0  0  0  0  0  0
  187.1940  172.8040  136.6810 C   0  0  0  0  0  2  0  0  0  0  0  0
  188.2280  172.6470  135.7590 O   0  0  0  0  0  1  0  0  0  0  0  0
  1  9  1  6  0  0  0
  1  6  1  0  0  0  0
  2 10  1  0  0  0  0
  3  9  1  0  0  0  0
  4 27  1  1  0  0  0
  5  4  1  0  0  0  0
  8  2  1  1  0  0  0
  8  3  1  0  0  0  0
  8 11  1  0  0  0  0
 10  7  1  6  0  0  0
 10  4  1  0  0  0  0
 11 12  1  0  0  0  0
 11  5  1  1  0  0  0
 12 49  1  1  0  0  0
 12  6  1  0  0  0  0
 14 17  1  6  0  0  0
 15 16  1  0  0  0  0
 15 14  1  0  0  0  0
 16  1  1  0  0  0  0
 16 14  1  0  0  0  0
 16 13  1  1  0  0  0
 17 18  2  0  0  0  0
 18 22  1  0  0  0  0
 19 24  1  0  0  0  0
 21 24  1  0  0  0  0
 22 21  1  0  0  0  0
 23 20  1  6  0  0  0
 23 19  1  0  0  0  0
 25 26  1  0  0  0  0
 25 22  2  0  0  0  0
 26 23  1  0  0  0  0
 27 28  2  6  0  0  0
 27 30  1  0  0  0  0
 29 27  1  0  0  0  0
 30 31  1  0  0  0  0
 31 32  1  0  0  0  0
 31 44  1  1  0  0  0
 32 33  1  0  0  0  0
 33 34  1  0  0  0  0
 34 35  1  0  0  0  0
 35 36  1  0  0  0  0
 36 39  1  0  0  0  0
 37 38  2  0  0  0  0
 37 40  1  0  0  0  0
 39 37  1  0  0  0  0
 43 41  1  6  0  0  0
 43 40  1  0  0  0  0
 43 42  1  0  0  0  0
 45 44  1  0  0  0  0
 45 48  1  0  0  0  0
 47 48  1  0  0  0  0
 48 46  1  1  0  0  0
 50 49  1  0  0  0  0
M  END
>  <MODEL>
3

>  <REMARK>
 VINA RESULT:      -6.9      2.216      7.134
  Name = 
  18 active torsions:
  status: ('A' for Active; 'I' for Inactive)
    1  A    between atoms: N_1  and  C_11
    2  A    between atoms: N_1  and  N_33
    3  A    between atoms: P_2  and  C_15
    4  A    between atoms: P_2  and  O_32
    5  A    between atoms: C_4  and  C_24
    6  A    between atoms: C_6  and  C_19
    7  A    between atoms: C_9  and  C_30
    8  A    between atoms: C_11  and  C_25
    9  A    between atoms: C_23  and  O_28
   10  A    between atoms: C_23  and  O_32
   11  A    between atoms: C_23  and  C_39
   12  A    between atoms: C_24  and  C_41
   13  A    between atoms: C_25  and  C_29
   14  A    between atoms: C_26  and  C_44
   15  A    between atoms: O_28  and  C_29
   16  A    between atoms: C_31  and  C_36
   17  A    between atoms: C_31  and  C_39
   18  A    between atoms: C_35  and  C_50
                            x       y       z     vdW  Elec       q    Type
                         _______ _______ _______ _____ _____    ______ ____

>  <TORSDO>
F 18

$$$$
=
 OpenBabel11062414253D

 50 53  0  0  1  0  0  0  0  0999 V2000
  184.1850  178.2150  142.4130 C   0  0  1  0  0  3  0  0  0  0  0  0
  183.5270  179.5660  137.9560 C   0  0  0  0  0  2  0  0  0  0  0  0
  184.7410  179.0680  140.0890 C   0  0  0  0  0  2  0  0  0  0  0  0
  182.9720  177.1470  138.4440 C   0  0  2  0  0  3  0  0  0  0  0  0
  181.8720  177.5820  139.2110 O   0  0  0  0  0  0  0  0  0  0  0  0
  183.0410  177.5880  141.8570 O   0  0  0  0  0  0  0  0  0  0  0  0
  182.2950  178.2440  136.4040 O   0  0  0  0  0  1  0  0  0  0  0  0
  183.4300  179.5770  139.4820 C   0  0  2  0  0  3  0  0  0  0  0  0
  184.7900  179.3620  141.5810 C   0  0  0  0  0  2  0  0  0  0  0  0
  183.3160  178.1740  137.3550 C   0  0  1  0  0  3  0  0  0  0  0  0
  182.1800  178.7710  139.9360 C   0  0  2  0  0  3  0  0  0  0  0  0
  182.1180  178.5690  141.4510 C   0  0  1  0  0  3  0  0  0  0  0  0
  182.6850  178.5150  144.4090 O   0  0  0  0  0  1  0  0  0  0  0  0
  185.0940  178.4950  144.9040 C   0  0  1  0  0  3  0  0  0  0  0  0
  184.6940  179.8530  144.3340 C   0  0  0  0  0  2  0  0  0  0  0  0
  183.9720  178.6050  143.8800 C   0  0  1  0  0  0  0  0  0  0  0  0
  186.4020  178.0820  144.3110 C   0  0  0  0  0  3  0  0  0  0  0  0
  187.2640  177.3790  145.0420 C   0  0  0  0  0  3  0  0  0  0  0  0
  190.6440  176.5750  142.3120 C   0  0  0  0  0  2  0  0  0  0  0  0
  191.3840  178.6250  143.3430 O   0  0  0  0  0  1  0  0  0  0  0  0
  188.6330  176.2500  143.2250 C   0  0  0  0  0  2  0  0  0  0  0  0
  188.5780  176.9380  144.5540 C   0  0  0  0  0  0  0  0  0  0  0  0
  191.4680  177.2330  143.4200 C   0  0  1  0  0  3  0  0  0  0  0  0
  189.3250  177.0510  142.3100 O   0  0  0  0  0  0  0  0  0  0  0  0
  189.6980  177.1730  145.2510 C   0  0  0  0  0  3  0  0  0  0  0  0
  191.0680  176.7280  144.8100 C   0  0  0  0  0  2  0  0  0  0  0  0
  182.6550  175.4940  137.7370 P   0  0  2  0  0  0  0  0  0  0  0  0
  181.0300  175.4050  137.2770 O   0  0  0  0  0  0  0  0  0  0  0  0
  182.9270  174.4290  138.7760 O   0  0  0  0  0  1  0  0  0  0  0  0
  183.6110  175.2270  136.3590 O   0  0  0  0  0  0  0  0  0  0  0  0
  184.8990  174.9200  136.8260 C   0  0  1  0  0  3  0  0  0  0  0  0
  185.2250  173.5540  136.6820 O   0  0  0  0  0  0  0  0  0  0  0  0
  186.3150  173.2540  137.5110 C   0  0  0  0  0  2  0  0  0  0  0  0
  187.2780  172.3450  136.7710 C   0  0  0  0  0  2  0  0  0  0  0  0
  188.4140  173.1550  136.1780 C   0  0  0  0  0  2  0  0  0  0  0  0
  189.3470  173.5330  137.2290 N   0  0  0  0  0  2  0  0  0  0  0  0
  191.0850  175.2740  137.4970 C   0  0  0  0  0  0  0  0  0  0  0  0
  190.8710  175.3640  138.7350 O   0  0  0  0  0  0  0  0  0  0  0  0
  190.2830  174.4200  136.6800 N   0  0  0  0  0  2  0  0  0  0  0  0
  192.2090  176.0430  136.8810 C   0  0  0  0  0  2  0  0  0  0  0  0
  193.5450  173.9130  137.0880 C   0  0  0  0  0  1  0  0  0  0  0  0
  194.0710  175.8450  138.4770 N   0  0  0  0  0  1  0  0  0  0  0  0
  193.5780  175.4280  137.1730 C   0  0  2  0  0  3  0  0  0  0  0  0
  185.9810  175.8700  136.2900 C   0  0  0  0  0  2  0  0  0  0  0  0
  186.3730  176.9660  137.2740 C   0  0  0  0  0  2  0  0  0  0  0  0
  188.1800  177.6700  138.8350 C   0  0  0  0  0  1  0  0  0  0  0  0
  188.5230  177.5940  136.4880 O   0  0  0  0  0  1  0  0  0  0  0  0
  187.8660  176.9550  137.5360 C   0  0  2  0  0  3  0  0  0  0  0  0
  180.7110  178.2480  141.9450 C   0  0  0  0  0  2  0  0  0  0  0  0
  179.8880  179.3730  141.8900 O   0  0  0  0  0  1  0  0  0  0  0  0
  1  9  1  6  0  0  0
  1 16  1  0  0  0  0
  3  9  1  0  0  0  0
  4 27  1  6  0  0  0
  4  5  1  0  0  0  0
  6  1  1  0  0  0  0
  8  2  1  6  0  0  0
  8 11  1  0  0  0  0
  8  3  1  0  0  0  0
 10  7  1  6  0  0  0
 10  2  1  0  0  0  0
 10  4  1  0  0  0  0
 11  5  1  6  0  0  0
 11 12  1  0  0  0  0
 12  6  1  0  0  0  0
 12 49  1  6  0  0  0
 14 17  1  6  0  0  0
 15 14  1  0  0  0  0
 16 15  1  0  0  0  0
 16 13  1  1  0  0  0
 16 14  1  0  0  0  0
 17 18  2  0  0  0  0
 19 23  1  0  0  0  0
 21 22  1  0  0  0  0
 22 18  1  0  0  0  0
 22 25  2  0  0  0  0
 23 20  1  1  0  0  0
 23 26  1  0  0  0  0
 24 19  1  0  0  0  0
 24 21  1  0  0  0  0
 26 25  1  0  0  0  0
 27 28  2  6  0  0  0
 27 29  1  0  0  0  0
 30 31  1  0  0  0  0
 30 27  1  0  0  0  0
 31 44  1  6  0  0  0
 32 31  1  0  0  0  0
 32 33  1  0  0  0  0
 34 33  1  0  0  0  0
 35 34  1  0  0  0  0
 35 36  1  0  0  0  0
 37 38  2  0  0  0  0
 39 36  1  0  0  0  0
 39 37  1  0  0  0  0
 40 43  1  0  0  0  0
 40 37  1  0  0  0  0
 43 41  1  1  0  0  0
 43 42  1  0  0  0  0
 44 45  1  0  0  0  0
 45 48  1  0  0  0  0
 47 48  1  0  0  0  0
 48 46  1  1  0  0  0
 50 49  1  0  0  0  0
M  END
>  <MODEL>
4

>  <REMARK>
 VINA RESULT:      -6.8      3.365      7.583
  Name = 
  18 active torsions:
  status: ('A' for Active; 'I' for Inactive)
    1  A    between atoms: N_1  and  C_11
    2  A    between atoms: N_1  and  N_33
    3  A    between atoms: P_2  and  C_15
    4  A    between atoms: P_2  and  O_32
    5  A    between atoms: C_4  and  C_24
    6  A    between atoms: C_6  and  C_19
    7  A    between atoms: C_9  and  C_30
    8  A    between atoms: C_11  and  C_25
    9  A    between atoms: C_23  and  O_28
   10  A    between atoms: C_23  and  O_32
   11  A    between atoms: C_23  and  C_39
   12  A    between atoms: C_24  and  C_41
   13  A    between atoms: C_25  and  C_29
   14  A    between atoms: C_26  and  C_44
   15  A    between atoms: O_28  and  C_29
   16  A    between atoms: C_31  and  C_36
   17  A    between atoms: C_31  and  C_39
   18  A    between atoms: C_35  and  C_50
                            x       y       z     vdW  Elec       q    Type
                         _______ _______ _______ _____ _____    ______ ____

>  <TORSDO>
F 18

$$$$
=
 OpenBabel11062414253D

 50 53  0  0  1  0  0  0  0  0999 V2000
  188.0680  175.6230  137.4630 C   0  0  1  0  0  3  0  0  0  0  0  0
  183.6750  174.8070  135.9930 C   0  0  0  0  0  2  0  0  0  0  0  0
  185.9280  174.3450  136.9830 C   0  0  0  0  0  2  0  0  0  0  0  0
  183.8900  176.4870  137.8720 C   0  0  2  0  0  3  0  0  0  0  0  0
  184.5070  177.3780  136.9690 O   0  0  0  0  0  0  0  0  0  0  0  0
  187.2960  176.8110  137.4890 O   0  0  0  0  0  0  0  0  0  0  0  0
  181.8560  176.2210  136.6010 O   0  0  0  0  0  1  0  0  0  0  0  0
  185.1630  175.1490  135.9270 C   0  0  2  0  0  3  0  0  0  0  0  0
  187.4270  174.4250  136.7350 C   0  0  0  0  0  2  0  0  0  0  0  0
  182.9460  175.5280  137.1320 C   0  0  1  0  0  3  0  0  0  0  0  0
  185.3570  176.6870  136.0550 C   0  0  2  0  0  3  0  0  0  0  0  0
  186.8240  177.0950  136.1940 C   0  0  1  0  0  3  0  0  0  0  0  0
  189.7410  176.1200  135.6530 O   0  0  0  0  0  1  0  0  0  0  0  0
  190.5470  176.4740  137.9500 C   0  0  1  0  0  3  0  0  0  0  0  0
  190.5570  174.9830  137.6220 C   0  0  0  0  0  2  0  0  0  0  0  0
  189.5090  175.8810  137.0070 C   0  0  1  0  0  0  0  0  0  0  0  0
  190.0450  176.6640  139.3450 C   0  0  0  0  0  3  0  0  0  0  0  0
  190.9040  176.9460  140.3210 C   0  0  0  0  0  3  0  0  0  0  0  0
  191.1830  177.3660  144.7110 C   0  0  0  0  0  2  0  0  0  0  0  0
  191.0640  179.6820  144.0500 O   0  0  0  0  0  1  0  0  0  0  0  0
  191.1780  176.2840  142.7580 C   0  0  0  0  0  2  0  0  0  0  0  0
  190.5110  177.1380  141.7240 C   0  0  0  0  0  0  0  0  0  0  0  0
  190.3000  178.5920  144.4740 C   0  0  1  0  0  3  0  0  0  0  0  0
  191.9720  177.0850  143.5860 O   0  0  0  0  0  0  0  0  0  0  0  0
  189.6140  178.0690  142.0780 C   0  0  0  0  0  3  0  0  0  0  0  0
  189.1590  178.2980  143.4950 C   0  0  0  0  0  2  0  0  0  0  0  0
  183.0230  177.4010  139.1920 P   0  0  2  0  0  0  0  0  0  0  0  0
  184.1520  177.8630  140.3630 O   0  0  0  0  0  1  0  0  0  0  0  0
  181.9850  176.5110  139.8390 O   0  0  0  0  0  0  0  0  0  0  0  0
  182.2900  178.8060  138.5800 O   0  0  0  0  0  0  0  0  0  0  0  0
  180.9360  178.7380  138.9480 C   0  0  1  0  0  3  0  0  0  0  0  0
  180.6410  179.4960  140.1030 O   0  0  0  0  0  0  0  0  0  0  0  0
  179.6920  178.8090  140.8710 C   0  0  0  0  0  2  0  0  0  0  0  0
  180.0380  178.9440  142.3410 C   0  0  0  0  0  2  0  0  0  0  0  0
  181.5050  179.2940  142.5040 C   0  0  0  0  0  2  0  0  0  0  0  0
  182.0100  178.7240  143.7440 N   0  0  0  0  0  2  0  0  0  0  0  0
  184.1750  178.8990  144.9310 C   0  0  0  0  0  0  0  0  0  0  0  0
  183.6060  179.0320  146.0470 O   0  0  0  0  0  0  0  0  0  0  0  0
  183.4090  178.8220  143.7280 N   0  0  0  0  0  2  0  0  0  0  0  0
  185.6640  178.7890  144.8660 C   0  0  0  0  0  2  0  0  0  0  0  0
  187.1510  178.0790  146.7780 C   0  0  0  0  0  1  0  0  0  0  0  0
  186.8720  176.6470  144.8250 N   0  0  0  0  0  1  0  0  0  0  0  0
  186.2070  177.6160  145.6830 C   0  0  2  0  0  3  0  0  0  0  0  0
  179.9750  179.0000  137.7790 C   0  0  0  0  0  2  0  0  0  0  0  0
  179.5250  180.4520  137.6750 C   0  0  0  0  0  2  0  0  0  0  0  0
  181.0870  182.3760  137.9110 C   0  0  0  0  0  1  0  0  0  0  0  0
  180.0070  181.8970  135.8540 O   0  0  0  0  0  1  0  0  0  0  0  0
  180.5710  181.3000  136.9770 C   0  0  2  0  0  3  0  0  0  0  0  0
  187.0680  178.5540  135.8200 C   0  0  0  0  0  2  0  0  0  0  0  0
  187.3880  179.3160  136.9430 O   0  0  0  0  0  1  0  0  0  0  0  0
  1  9  1  6  0  0  0
  1  6  1  0  0  0  0
  2 10  1  0  0  0  0
  4 27  1  1  0  0  0
  5  4  1  0  0  0  0
  8  2  1  1  0  0  0
  8 11  1  0  0  0  0
  8  3  1  0  0  0  0
  9  3  1  0  0  0  0
 10  7  1  6  0  0  0
 10  4  1  0  0  0  0
 11 12  1  0  0  0  0
 11  5  1  1  0  0  0
 12 49  1  1  0  0  0
 12  6  1  0  0  0  0
 14 17  1  1  0  0  0
 15 14  1  0  0  0  0
 16 13  1  6  0  0  0
 16  1  1  0  0  0  0
 16 15  1  0  0  0  0
 16 14  1  0  0  0  0
 17 18  2  0  0  0  0
 18 22  1  0  0  0  0
 21 24  1  0  0  0  0
 22 25  2  0  0  0  0
 22 21  1  0  0  0  0
 23 20  1  6  0  0  0
 23 19  1  0  0  0  0
 24 19  1  0  0  0  0
 25 26  1  0  0  0  0
 26 23  1  0  0  0  0
 27 29  2  1  0  0  0
 27 28  1  0  0  0  0
 30 31  1  0  0  0  0
 30 27  1  0  0  0  0
 31 44  1  6  0  0  0
 31 32  1  0  0  0  0
 32 33  1  0  0  0  0
 33 34  1  0  0  0  0
 34 35  1  0  0  0  0
 35 36  1  0  0  0  0
 37 38  2  0  0  0  0
 39 36  1  0  0  0  0
 39 37  1  0  0  0  0
 40 37  1  0  0  0  0
 40 43  1  0  0  0  0
 42 43  1  0  0  0  0
 43 41  1  1  0  0  0
 45 44  1  0  0  0  0
 47 48  1  0  0  0  0
 48 45  1  0  0  0  0
 48 46  1  1  0  0  0
 49 50  1  0  0  0  0
M  END
>  <MODEL>
5

>  <REMARK>
 VINA RESULT:      -6.8      1.761      2.290
  Name = 
  18 active torsions:
  status: ('A' for Active; 'I' for Inactive)
    1  A    between atoms: N_1  and  C_11
    2  A    between atoms: N_1  and  N_33
    3  A    between atoms: P_2  and  C_15
    4  A    between atoms: P_2  and  O_32
    5  A    between atoms: C_4  and  C_24
    6  A    between atoms: C_6  and  C_19
    7  A    between atoms: C_9  and  C_30
    8  A    between atoms: C_11  and  C_25
    9  A    between atoms: C_23  and  O_28
   10  A    between atoms: C_23  and  O_32
   11  A    between atoms: C_23  and  C_39
   12  A    between atoms: C_24  and  C_41
   13  A    between atoms: C_25  and  C_29
   14  A    between atoms: C_26  and  C_44
   15  A    between atoms: O_28  and  C_29
   16  A    between atoms: C_31  and  C_36
   17  A    between atoms: C_31  and  C_39
   18  A    between atoms: C_35  and  C_50
                            x       y       z     vdW  Elec       q    Type
                         _______ _______ _______ _____ _____    ______ ____

>  <TORSDO>
F 18

$$$$
=
 OpenBabel11062414253D

 50 53  0  0  1  0  0  0  0  0999 V2000
  190.2880  174.3330  137.2700 C   0  0  1  0  0  3  0  0  0  0  0  0
  188.6300  178.4520  138.8180 C   0  0  0  0  0  2  0  0  0  0  0  0
  188.6270  176.1920  137.7420 C   0  0  0  0  0  2  0  0  0  0  0  0
  189.5170  176.9040  140.6100 C   0  0  2  0  0  3  0  0  0  0  0  0
  190.8180  177.1060  140.1030 O   0  0  0  0  0  0  0  0  0  0  0  0
  191.0650  174.8170  138.3520 O   0  0  0  0  0  0  0  0  0  0  0  0
  189.0530  179.2350  141.0280 O   0  0  0  0  0  1  0  0  0  0  0  0
  189.4460  177.4620  137.9880 C   0  0  2  0  0  3  0  0  0  0  0  0
  189.2810  175.3320  136.6700 C   0  0  0  0  0  2  0  0  0  0  0  0
  188.6220  178.1160  140.3120 C   0  0  1  0  0  3  0  0  0  0  0  0
  190.8140  177.1960  138.6800 C   0  0  2  0  0  3  0  0  0  0  0  0
  191.6090  176.0710  138.0170 C   0  0  1  0  0  3  0  0  0  0  0  0
  192.4020  173.1650  136.5690 O   0  0  0  0  0  1  0  0  0  0  0  0
  190.5290  172.9770  134.9870 C   0  0  1  0  0  3  0  0  0  0  0  0
  191.1820  174.3500  134.8540 C   0  0  0  0  0  2  0  0  0  0  0  0
  191.1520  173.6580  136.1970 C   0  0  1  0  0  0  0  0  0  0  0  0
  189.0440  173.1330  134.9140 C   0  0  0  0  0  3  0  0  0  0  0  0
  188.2610  172.0720  135.0910 C   0  0  0  0  0  3  0  0  0  0  0  0
  184.0260  170.8740  135.4870 C   0  0  0  0  0  2  0  0  0  0  0  0
  184.2830  172.2500  137.4500 O   0  0  0  0  0  1  0  0  0  0  0  0
  186.0730  170.8830  134.5950 C   0  0  0  0  0  2  0  0  0  0  0  0
  186.7930  172.1210  135.0270 C   0  0  0  0  0  0  0  0  0  0  0  0
  183.8740  172.2610  136.1140 C   0  0  1  0  0  3  0  0  0  0  0  0
  185.3260  170.3770  135.6640 O   0  0  0  0  0  0  0  0  0  0  0  0
  186.1150  173.2220  135.3780 C   0  0  0  0  0  3  0  0  0  0  0  0
  184.6140  173.3370  135.3140 C   0  0  0  0  0  2  0  0  0  0  0  0
  189.5700  176.5280  142.3950 P   0  0  2  0  0  0  0  0  0  0  0  0
  190.2110  177.8630  143.2110 O   0  0  0  0  0  1  0  0  0  0  0  0
  190.4600  175.3300  142.6430 O   0  0  0  0  0  0  0  0  0  0  0  0
  188.0110  176.2340  143.0020 O   0  0  0  0  0  0  0  0  0  0  0  0
  187.8140  177.1550  144.0450 C   0  0  1  0  0  3  0  0  0  0  0  0
  186.4480  177.3840  144.3240 O   0  0  0  0  0  0  0  0  0  0  0  0
  186.1520  178.7320  144.0780 C   0  0  0  0  0  2  0  0  0  0  0  0
  184.6480  178.9080  143.9780 C   0  0  0  0  0  2  0  0  0  0  0  0
  184.1270  178.2550  142.7120 C   0  0  0  0  0  2  0  0  0  0  0  0
  184.4090  179.1110  141.5690 N   0  0  0  0  0  2  0  0  0  0  0  0
  183.6720  179.2930  139.2130 C   0  0  0  0  0  0  0  0  0  0  0  0
  184.1780  180.4400  139.0940 O   0  0  0  0  0  0  0  0  0  0  0  0
  183.6920  178.6150  140.4700 N   0  0  0  0  0  2  0  0  0  0  0  0
  183.0720  178.6200  138.0200 C   0  0  0  0  0  2  0  0  0  0  0  0
  185.2140  177.5390  137.2380 C   0  0  0  0  0  1  0  0  0  0  0  0
  183.0520  176.5960  136.6230 N   0  0  0  0  0  1  0  0  0  0  0  0
  183.7750  177.3100  137.6640 C   0  0  2  0  0  3  0  0  0  0  0  0
  188.6530  176.8470  145.2940 C   0  0  0  0  0  2  0  0  0  0  0  0
  188.0980  177.4700  146.5700 C   0  0  0  0  0  2  0  0  0  0  0  0
  189.1240  178.2830  148.6870 C   0  0  0  0  0  1  0  0  0  0  0  0
  190.1830  176.6390  147.3430 O   0  0  0  0  0  1  0  0  0  0  0  0
  188.9380  177.0890  147.7730 C   0  0  2  0  0  3  0  0  0  0  0  0
  193.0990  176.1340  138.3380 C   0  0  0  0  0  2  0  0  0  0  0  0
  193.5560  177.4520  138.3540 O   0  0  0  0  0  1  0  0  0  0  0  0
  1  9  1  6  0  0  0
  1  6  1  0  0  0  0
  2 10  1  0  0  0  0
  4 27  1  1  0  0  0
  5  4  1  0  0  0  0
  8  3  1  1  0  0  0
  8 11  1  0  0  0  0
  8  2  1  0  0  0  0
  9  3  1  0  0  0  0
 10  4  1  0  0  0  0
 10  7  1  1  0  0  0
 11  5  1  1  0  0  0
 12 49  1  1  0  0  0
 12  6  1  0  0  0  0
 12 11  1  0  0  0  0
 14 17  1  1  0  0  0
 14 16  1  0  0  0  0
 15 14  1  0  0  0  0
 15 16  1  0  0  0  0
 16 13  1  1  0  0  0
 16  1  1  0  0  0  0
 17 18  2  0  0  0  0
 19 24  1  0  0  0  0
 19 23  1  0  0  0  0
 21 22  1  0  0  0  0
 21 24  1  0  0  0  0
 22 18  1  0  0  0  0
 22 25  2  0  0  0  0
 23 20  1  1  0  0  0
 26 25  1  0  0  0  0
 26 23  1  0  0  0  0
 27 29  2  1  0  0  0
 27 30  1  0  0  0  0
 27 28  1  0  0  0  0
 30 31  1  0  0  0  0
 31 32  1  0  0  0  0
 31 44  1  1  0  0  0
 33 32  1  0  0  0  0
 34 33  1  0  0  0  0
 35 34  1  0  0  0  0
 36 35  1  0  0  0  0
 37 39  1  0  0  0  0
 38 37  2  0  0  0  0
 39 36  1  0  0  0  0
 40 37  1  0  0  0  0
 42 43  1  0  0  0  0
 43 41  1  6  0  0  0
 43 40  1  0  0  0  0
 44 45  1  0  0  0  0
 45 48  1  0  0  0  0
 47 48  1  0  0  0  0
 48 46  1  1  0  0  0
 49 50  1  0  0  0  0
M  END
>  <MODEL>
6

>  <REMARK>
 VINA RESULT:      -6.6      3.022      8.185
  Name = 
  18 active torsions:
  status: ('A' for Active; 'I' for Inactive)
    1  A    between atoms: N_1  and  C_11
    2  A    between atoms: N_1  and  N_33
    3  A    between atoms: P_2  and  C_15
    4  A    between atoms: P_2  and  O_32
    5  A    between atoms: C_4  and  C_24
    6  A    between atoms: C_6  and  C_19
    7  A    between atoms: C_9  and  C_30
    8  A    between atoms: C_11  and  C_25
    9  A    between atoms: C_23  and  O_28
   10  A    between atoms: C_23  and  O_32
   11  A    between atoms: C_23  and  C_39
   12  A    between atoms: C_24  and  C_41
   13  A    between atoms: C_25  and  C_29
   14  A    between atoms: C_26  and  C_44
   15  A    between atoms: O_28  and  C_29
   16  A    between atoms: C_31  and  C_36
   17  A    between atoms: C_31  and  C_39
   18  A    between atoms: C_35  and  C_50
                            x       y       z     vdW  Elec       q    Type
                         _______ _______ _______ _____ _____    ______ ____

>  <TORSDO>
F 18

$$$$
=
 OpenBabel11062414253D

 50 53  0  0  1  0  0  0  0  0999 V2000
  184.2210  178.0870  142.3020 C   0  0  1  0  0  3  0  0  0  0  0  0
  185.1370  179.0810  137.7970 C   0  0  0  0  0  2  0  0  0  0  0  0
  185.5730  178.5730  140.2090 C   0  0  0  0  0  2  0  0  0  0  0  0
  183.9540  176.8820  138.1980 C   0  0  2  0  0  3  0  0  0  0  0  0
  182.8070  177.6020  138.5920 O   0  0  0  0  0  0  0  0  0  0  0  0
  183.1680  177.6450  141.4620 O   0  0  0  0  0  0  0  0  0  0  0  0
  184.1260  177.8770  136.0070 O   0  0  0  0  0  1  0  0  0  0  0  0
  184.6260  179.2660  139.2250 C   0  0  2  0  0  3  0  0  0  0  0  0
  185.2680  179.0020  141.6380 C   0  0  0  0  0  2  0  0  0  0  0  0
  184.8020  177.7040  137.2160 C   0  0  1  0  0  3  0  0  0  0  0  0
  183.1540  178.7740  139.3270 C   0  0  2  0  0  3  0  0  0  0  0  0
  182.6320  178.7430  140.7640 C   0  0  1  0  0  3  0  0  0  0  0  0
  182.3610  178.4530  143.9540 O   0  0  0  0  0  1  0  0  0  0  0  0
  184.6250  178.8800  144.8150 C   0  0  1  0  0  3  0  0  0  0  0  0
  184.1660  180.0570  143.9590 C   0  0  0  0  0  2  0  0  0  0  0  0
  183.7010  178.6590  143.6250 C   0  0  1  0  0  0  0  0  0  0  0  0
  186.0600  178.5880  144.5160 C   0  0  0  0  0  3  0  0  0  0  0  0
  186.6310  177.5000  145.0270 C   0  0  0  0  0  3  0  0  0  0  0  0
  190.4810  176.8020  142.9740 C   0  0  0  0  0  2  0  0  0  0  0  0
  190.8930  178.9600  143.9680 O   0  0  0  0  0  1  0  0  0  0  0  0
  188.3670  176.3770  143.5530 C   0  0  0  0  0  2  0  0  0  0  0  0
  188.0370  177.1340  144.8010 C   0  0  0  0  0  0  0  0  0  0  0  0
  191.0540  177.5850  144.1560 C   0  0  1  0  0  3  0  0  0  0  0  0
  189.1540  177.1740  142.7140 O   0  0  0  0  0  0  0  0  0  0  0  0
  189.0000  177.4950  145.6600 C   0  0  0  0  0  3  0  0  0  0  0  0
  190.4520  177.1320  145.4900 C   0  0  0  0  0  2  0  0  0  0  0  0
  183.4920  175.2610  137.4970 P   0  0  2  0  0  0  0  0  0  0  0  0
  182.0170  175.4230  136.6850 O   0  0  0  0  0  0  0  0  0  0  0  0
  183.3290  174.2470  138.6070 O   0  0  0  0  0  1  0  0  0  0  0  0
  184.6550  174.7260  136.3810 O   0  0  0  0  0  0  0  0  0  0  0  0
  185.4040  173.7350  137.0360 C   0  0  1  0  0  3  0  0  0  0  0  0
  185.2130  172.4480  136.4860 O   0  0  0  0  0  0  0  0  0  0  0  0
  184.9360  172.5740  135.1170 C   0  0  0  0  0  2  0  0  0  0  0  0
  183.7900  171.6510  134.7480 C   0  0  0  0  0  2  0  0  0  0  0  0
  182.4640  172.3670  134.9200 C   0  0  0  0  0  2  0  0  0  0  0  0
  181.5880  171.5770  135.7720 N   0  0  0  0  0  2  0  0  0  0  0  0
  180.3010  172.4720  137.6870 C   0  0  0  0  0  0  0  0  0  0  0  0
  180.8060  171.6330  138.4790 O   0  0  0  0  0  0  0  0  0  0  0  0
  180.6040  172.4300  136.2920 N   0  0  0  0  0  2  0  0  0  0  0  0
  179.4010  173.5420  138.2150 C   0  0  0  0  0  2  0  0  0  0  0  0
  179.3130  173.8060  140.7230 C   0  0  0  0  0  1  0  0  0  0  0  0
  179.8780  175.6990  139.2960 N   0  0  0  0  0  1  0  0  0  0  0  0
  179.9820  174.2550  139.4360 C   0  0  2  0  0  3  0  0  0  0  0  0
  186.8820  174.1120  137.2170 C   0  0  0  0  0  2  0  0  0  0  0  0
  187.3500  175.2140  136.2740 C   0  0  0  0  0  2  0  0  0  0  0  0
  189.6410  175.0820  137.2400 C   0  0  0  0  0  1  0  0  0  0  0  0
  188.0460  176.6510  138.0310 O   0  0  0  0  0  1  0  0  0  0  0  0
  188.4920  176.0040  136.8830 C   0  0  2  0  0  3  0  0  0  0  0  0
  181.1080  178.7580  140.8370 C   0  0  0  0  0  2  0  0  0  0  0  0
  180.6420  179.9430  141.4070 O   0  0  0  0  0  1  0  0  0  0  0  0
  1  9  1  6  0  0  0
  1 16  1  0  0  0  0
  3  9  1  0  0  0  0
  4 27  1  6  0  0  0
  4  5  1  0  0  0  0
  6  1  1  0  0  0  0
  8  2  1  6  0  0  0
  8 11  1  0  0  0  0
  8  3  1  0  0  0  0
 10  7  1  6  0  0  0
 10  2  1  0  0  0  0
 10  4  1  0  0  0  0
 11  5  1  1  0  0  0
 11 12  1  0  0  0  0
 12 49  1  6  0  0  0
 12  6  1  0  0  0  0
 14 17  1  6  0  0  0
 15 14  1  0  0  0  0
 16 13  1  1  0  0  0
 16 15  1  0  0  0  0
 16 14  1  0  0  0  0
 17 18  2  0  0  0  0
 19 23  1  0  0  0  0
 21 22  1  0  0  0  0
 22 18  1  0  0  0  0
 22 25  2  0  0  0  0
 23 20  1  6  0  0  0
 23 26  1  0  0  0  0
 24 19  1  0  0  0  0
 24 21  1  0  0  0  0
 26 25  1  0  0  0  0
 27 28  2  6  0  0  0
 27 29  1  0  0  0  0
 30 31  1  0  0  0  0
 30 27  1  0  0  0  0
 31 44  1  6  0  0  0
 32 31  1  0  0  0  0
 33 32  1  0  0  0  0
 34 35  1  0  0  0  0
 34 33  1  0  0  0  0
 35 36  1  0  0  0  0
 36 39  1  0  0  0  0
 37 40  1  0  0  0  0
 37 38  2  0  0  0  0
 39 37  1  0  0  0  0
 40 43  1  0  0  0  0
 42 43  1  0  0  0  0
 43 41  1  1  0  0  0
 45 48  1  0  0  0  0
 45 44  1  0  0  0  0
 48 46  1  1  0  0  0
 48 47  1  0  0  0  0
 49 50  1  0  0  0  0
M  END
>  <MODEL>
7

>  <REMARK>
 VINA RESULT:      -6.4      3.422      8.034
  Name = 
  18 active torsions:
  status: ('A' for Active; 'I' for Inactive)
    1  A    between atoms: N_1  and  C_11
    2  A    between atoms: N_1  and  N_33
    3  A    between atoms: P_2  and  C_15
    4  A    between atoms: P_2  and  O_32
    5  A    between atoms: C_4  and  C_24
    6  A    between atoms: C_6  and  C_19
    7  A    between atoms: C_9  and  C_30
    8  A    between atoms: C_11  and  C_25
    9  A    between atoms: C_23  and  O_28
   10  A    between atoms: C_23  and  O_32
   11  A    between atoms: C_23  and  C_39
   12  A    between atoms: C_24  and  C_41
   13  A    between atoms: C_25  and  C_29
   14  A    between atoms: C_26  and  C_44
   15  A    between atoms: O_28  and  C_29
   16  A    between atoms: C_31  and  C_36
   17  A    between atoms: C_31  and  C_39
   18  A    between atoms: C_35  and  C_50
                            x       y       z     vdW  Elec       q    Type
                         _______ _______ _______ _____ _____    ______ ____

>  <TORSDO>
F 18

$$$$
=
 OpenBabel11062414253D

 50 53  0  0  1  0  0  0  0  0999 V2000
  180.8410  176.7980  138.7890 C   0  0  1  0  0  3  0  0  0  0  0  0
  180.8670  178.9820  142.9550 C   0  0  0  0  0  2  0  0  0  0  0  0
  180.5080  177.1560  141.2800 C   0  0  0  0  0  2  0  0  0  0  0  0
  183.1410  178.6430  141.8990 C   0  0  2  0  0  3  0  0  0  0  0  0
  182.7890  179.5780  140.9050 O   0  0  0  0  0  0  0  0  0  0  0  0
  181.8360  177.8070  138.8250 O   0  0  0  0  0  0  0  0  0  0  0  0
  182.7910  180.1290  143.7680 O   0  0  0  0  0  1  0  0  0  0  0  0
  180.4880  178.6710  141.5070 C   0  0  2  0  0  3  0  0  0  0  0  0
  179.8380  176.8040  139.9590 C   0  0  0  0  0  2  0  0  0  0  0  0
  182.3780  178.9200  143.2030 C   0  0  1  0  0  3  0  0  0  0  0  0
  181.4160  179.4570  140.5380 C   0  0  2  0  0  3  0  0  0  0  0  0
  181.2310  179.0540  139.0750 C   0  0  1  0  0  3  0  0  0  0  0  0
  179.3160  177.7740  137.0450 O   0  0  0  0  0  1  0  0  0  0  0  0
  180.7480  175.9310  136.2690 C   0  0  1  0  0  3  0  0  0  0  0  0
  179.5690  175.3730  137.0620 C   0  0  0  0  0  2  0  0  0  0  0  0
  180.1470  176.7210  137.4250 C   0  0  1  0  0  0  0  0  0  0  0  0
  181.9860  175.1810  136.6410 C   0  0  0  0  0  3  0  0  0  0  0  0
  182.5950  174.4240  135.7320 C   0  0  0  0  0  3  0  0  0  0  0  0
  186.7160  172.8640  135.3940 C   0  0  0  0  0  2  0  0  0  0  0  0
  186.9920  174.4650  137.1760 O   0  0  0  0  0  1  0  0  0  0  0  0
  184.5680  173.1040  134.8310 C   0  0  0  0  0  2  0  0  0  0  0  0
  183.8090  173.6400  136.0040 C   0  0  0  0  0  0  0  0  0  0  0  0
  186.7490  173.1170  136.9020 C   0  0  1  0  0  3  0  0  0  0  0  0
  185.8170  173.7300  134.7540 O   0  0  0  0  0  0  0  0  0  0  0  0
  184.2470  173.4400  137.2550 C   0  0  0  0  0  3  0  0  0  0  0  0
  185.4710  172.6310  137.5940 C   0  0  0  0  0  2  0  0  0  0  0  0
  184.9470  178.6290  142.1650 P   0  0  2  0  0  0  0  0  0  0  0  0
  185.2850  177.7030  143.5390 O   0  0  0  0  0  1  0  0  0  0  0  0
  185.4450  180.0390  142.3930 O   0  0  0  0  0  0  0  0  0  0  0  0
  185.7520  177.9290  140.8430 O   0  0  0  0  0  0  0  0  0  0  0  0
  187.0500  178.4650  140.8440 C   0  0  1  0  0  3  0  0  0  0  0  0
  187.8130  178.0560  141.9600 O   0  0  0  0  0  0  0  0  0  0  0  0
  189.1300  177.8070  141.5470 C   0  0  0  0  0  2  0  0  0  0  0  0
  189.8250  176.9340  142.5740 C   0  0  0  0  0  2  0  0  0  0  0  0
  191.2990  177.2840  142.6470 C   0  0  0  0  0  2  0  0  0  0  0  0
  191.6280  177.7420  143.9880 N   0  0  0  0  0  2  0  0  0  0  0  0
  190.8710  176.9120  146.1930 C   0  0  0  0  0  0  0  0  0  0  0  0
  192.0550  176.7660  146.5980 O   0  0  0  0  0  0  0  0  0  0  0  0
  190.6060  177.3250  144.8520 N   0  0  0  0  0  2  0  0  0  0  0  0
  189.7320  176.6810  147.1340 C   0  0  0  0  0  2  0  0  0  0  0  0
  188.3570  178.2110  148.5940 C   0  0  0  0  0  1  0  0  0  0  0  0
  187.5630  177.5630  146.3820 N   0  0  0  0  0  1  0  0  0  0  0  0
  188.7500  177.8520  147.1730 C   0  0  2  0  0  3  0  0  0  0  0  0
  187.7800  178.2890  139.5040 C   0  0  0  0  0  2  0  0  0  0  0  0
  186.8600  177.8840  138.3580 C   0  0  0  0  0  2  0  0  0  0  0  0
  188.8660  177.4820  136.9390 C   0  0  0  0  0  1  0  0  0  0  0  0
  187.6650  179.5270  136.8450 O   0  0  0  0  0  1  0  0  0  0  0  0
  187.5090  178.1540  137.0150 C   0  0  2  0  0  3  0  0  0  0  0  0
  181.7310  180.1180  138.1030 C   0  0  0  0  0  2  0  0  0  0  0  0
  181.0590  180.0410  136.8820 O   0  0  0  0  0  1  0  0  0  0  0  0
  1  6  1  0  0  0  0
  1  9  1  1  0  0  0
  2 10  1  0  0  0  0
  4 27  1  1  0  0  0
  4 10  1  0  0  0  0
  5  4  1  0  0  0  0
  6 12  1  0  0  0  0
  8  3  1  6  0  0  0
  8  2  1  0  0  0  0
  9  3  1  0  0  0  0
 10  7  1  6  0  0  0
 11  5  1  1  0  0  0
 11  8  1  0  0  0  0
 12 49  1  6  0  0  0
 12 11  1  0  0  0  0
 14 17  1  1  0  0  0
 14 15  1  0  0  0  0
 14 16  1  0  0  0  0
 15 16  1  0  0  0  0
 16 13  1  6  0  0  0
 16  1  1  0  0  0  0
 18 22  1  0  0  0  0
 18 17  2  0  0  0  0
 19 23  1  0  0  0  0
 21 22  1  0  0  0  0
 22 25  2  0  0  0  0
 23 20  1  6  0  0  0
 23 26  1  0  0  0  0
 24 21  1  0  0  0  0
 24 19  1  0  0  0  0
 25 26  1  0  0  0  0
 27 29  2  1  0  0  0
 27 28  1  0  0  0  0
 30 31  1  0  0  0  0
 30 27  1  0  0  0  0
 31 44  1  6  0  0  0
 31 32  1  0  0  0  0
 33 32  1  0  0  0  0
 33 34  1  0  0  0  0
 34 35  1  0  0  0  0
 35 36  1  0  0  0  0
 36 39  1  0  0  0  0
 37 38  2  0  0  0  0
 37 40  1  0  0  0  0
 39 37  1  0  0  0  0
 40 43  1  0  0  0  0
 42 43  1  0  0  0  0
 43 41  1  1  0  0  0
 45 44  1  0  0  0  0
 47 48  1  0  0  0  0
 48 46  1  1  0  0  0
 48 45  1  0  0  0  0
 50 49  1  0  0  0  0
M  END
>  <MODEL>
8

>  <REMARK>
 VINA RESULT:      -6.1      2.569      7.459
  Name = 
  18 active torsions:
  status: ('A' for Active; 'I' for Inactive)
    1  A    between atoms: N_1  and  C_11
    2  A    between atoms: N_1  and  N_33
    3  A    between atoms: P_2  and  C_15
    4  A    between atoms: P_2  and  O_32
    5  A    between atoms: C_4  and  C_24
    6  A    between atoms: C_6  and  C_19
    7  A    between atoms: C_9  and  C_30
    8  A    between atoms: C_11  and  C_25
    9  A    between atoms: C_23  and  O_28
   10  A    between atoms: C_23  and  O_32
   11  A    between atoms: C_23  and  C_39
   12  A    between atoms: C_24  and  C_41
   13  A    between atoms: C_25  and  C_29
   14  A    between atoms: C_26  and  C_44
   15  A    between atoms: O_28  and  C_29
   16  A    between atoms: C_31  and  C_36
   17  A    between atoms: C_31  and  C_39
   18  A    between atoms: C_35  and  C_50
                            x       y       z     vdW  Elec       q    Type
                         _______ _______ _______ _____ _____    ______ ____

>  <TORSDO>
F 18

$$$$
=
 OpenBabel11062414253D

 50 53  0  0  1  0  0  0  0  0999 V2000
  184.2220  175.0050  137.2930 C   0  0  1  0  0  3  0  0  0  0  0  0
  187.1790  178.0940  135.3360 C   0  0  0  0  0  2  0  0  0  0  0  0
  185.0580  177.1920  136.3130 C   0  0  0  0  0  2  0  0  0  0  0  0
  187.8500  177.2610  137.6270 C   0  0  2  0  0  3  0  0  0  0  0  0
  188.0920  175.9910  137.0650 O   0  0  0  0  0  0  0  0  0  0  0  0
  185.5670  174.6840  137.6030 O   0  0  0  0  0  0  0  0  0  0  0  0
  189.3730  178.4590  136.1890 O   0  0  0  0  0  1  0  0  0  0  0  0
  186.2970  176.8540  135.4790 C   0  0  2  0  0  3  0  0  0  0  0  0
  184.0230  176.0810  136.2080 C   0  0  0  0  0  2  0  0  0  0  0  0
  188.0340  178.3660  136.5770 C   0  0  1  0  0  3  0  0  0  0  0  0
  187.1340  175.6770  136.0560 C   0  0  2  0  0  3  0  0  0  0  0  0
  186.2820  174.4570  136.4120 C   0  0  1  0  0  3  0  0  0  0  0  0
  183.9670  172.5040  137.2240 O   0  0  0  0  0  1  0  0  0  0  0  0
  181.8600  173.7720  137.1890 C   0  0  1  0  0  3  0  0  0  0  0  0
  182.5020  173.7970  135.8040 C   0  0  0  0  0  2  0  0  0  0  0  0
  183.3750  173.7530  137.0370 C   0  0  1  0  0  0  0  0  0  0  0  0
  181.3090  175.1270  137.4960 C   0  0  0  0  0  3  0  0  0  0  0  0
  181.0120  175.4470  138.7530 C   0  0  0  0  0  3  0  0  0  0  0  0
  180.2300  179.1000  141.1140 C   0  0  0  0  0  2  0  0  0  0  0  0
  181.8220  179.9400  139.5100 O   0  0  0  0  0  1  0  0  0  0  0  0
  180.0870  176.9330  140.5930 C   0  0  0  0  0  2  0  0  0  0  0  0
  180.4560  176.7480  139.1540 C   0  0  0  0  0  0  0  0  0  0  0  0
  180.4570  179.8040  139.7750 C   0  0  1  0  0  3  0  0  0  0  0  0
  180.9300  177.8860  141.1740 O   0  0  0  0  0  0  0  0  0  0  0  0
  180.3160  177.7490  138.2750 C   0  0  0  0  0  3  0  0  0  0  0  0
  179.7360  179.0950  138.6240 C   0  0  0  0  0  2  0  0  0  0  0  0
  188.9110  177.5350  139.0870 P   0  0  2  0  0  0  0  0  0  0  0  0
  188.9680  179.1940  139.4110 O   0  0  0  0  0  1  0  0  0  0  0  0
  190.3130  177.0440  138.8050 O   0  0  0  0  0  0  0  0  0  0  0  0
  188.2800  176.7500  140.4550 O   0  0  0  0  0  0  0  0  0  0  0  0
  187.9550  177.7600  141.3750 C   0  0  1  0  0  3  0  0  0  0  0  0
  189.0790  178.5060  141.7920 O   0  0  0  0  0  0  0  0  0  0  0  0
  189.8420  177.7280  142.6740 C   0  0  0  0  0  2  0  0  0  0  0  0
  190.2520  178.5710  143.8670 C   0  0  0  0  0  2  0  0  0  0  0  0
  191.3260  177.8600  144.6660 C   0  0  0  0  0  2  0  0  0  0  0  0
  190.7250  177.1950  145.8130 N   0  0  0  0  0  2  0  0  0  0  0  0
  188.6610  177.4120  147.1610 C   0  0  0  0  0  0  0  0  0  0  0  0
  188.8460  176.2940  147.7100 O   0  0  0  0  0  0  0  0  0  0  0  0
  189.5410  177.8740  146.1360 N   0  0  0  0  0  2  0  0  0  0  0  0
  187.5290  178.2800  147.6090 C   0  0  0  0  0  2  0  0  0  0  0  0
  186.6020  177.5190  145.3900 C   0  0  0  0  0  1  0  0  0  0  0  0
  185.5790  179.3780  146.5890 N   0  0  0  0  0  1  0  0  0  0  0  0
  186.2770  178.1110  146.7490 C   0  0  2  0  0  3  0  0  0  0  0  0
  186.7720  178.6310  140.9270 C   0  0  0  0  0  2  0  0  0  0  0  0
  185.9700  179.2140  142.0860 C   0  0  0  0  0  2  0  0  0  0  0  0
  183.7880  178.8080  143.2130 C   0  0  0  0  0  1  0  0  0  0  0  0
  184.2810  177.8800  141.0850 O   0  0  0  0  0  1  0  0  0  0  0  0
  184.4830  179.0040  141.8800 C   0  0  2  0  0  3  0  0  0  0  0  0
  187.0990  173.1710  136.4900 C   0  0  0  0  0  2  0  0  0  0  0  0
  187.9960  173.0780  135.4270 O   0  0  0  0  0  1  0  0  0  0  0  0
  1  9  1  6  0  0  0
  1  6  1  0  0  0  0
  2 10  1  0  0  0  0
  4 27  1  1  0  0  0
  5  4  1  0  0  0  0
  8  2  1  1  0  0  0
  8 11  1  0  0  0  0
  8  3  1  0  0  0  0
  9  3  1  0  0  0  0
 10  7  1  6  0  0  0
 10  4  1  0  0  0  0
 11 12  1  0  0  0  0
 11  5  1  1  0  0  0
 12 49  1  1  0  0  0
 12  6  1  0  0  0  0
 14 17  1  1  0  0  0
 15 16  1  0  0  0  0
 15 14  1  0  0  0  0
 16 14  1  0  0  0  0
 16 13  1  1  0  0  0
 16  1  1  0  0  0  0
 17 18  2  0  0  0  0
 18 22  1  0  0  0  0
 19 24  1  0  0  0  0
 21 24  1  0  0  0  0
 22 21  1  0  0  0  0
 23 20  1  6  0  0  0
 23 19  1  0  0  0  0
 25 26  1  0  0  0  0
 25 22  2  0  0  0  0
 26 23  1  0  0  0  0
 27 29  2  6  0  0  0
 27 28  1  0  0  0  0
 27 30  1  0  0  0  0
 30 31  1  0  0  0  0
 31 44  1  6  0  0  0
 31 32  1  0  0  0  0
 32 33  1  0  0  0  0
 33 34  1  0  0  0  0
 34 35  1  0  0  0  0
 35 36  1  0  0  0  0
 36 39  1  0  0  0  0
 37 40  1  0  0  0  0
 37 38  2  0  0  0  0
 39 37  1  0  0  0  0
 42 43  1  0  0  0  0
 43 41  1  6  0  0  0
 43 40  1  0  0  0  0
 44 45  1  0  0  0  0
 47 48  1  0  0  0  0
 48 45  1  0  0  0  0
 48 46  1  1  0  0  0
 50 49  1  0  0  0  0
M  END
>  <MODEL>
9

>  <REMARK>
 VINA RESULT:      -6.1      2.409      6.909
  Name = 
  18 active torsions:
  status: ('A' for Active; 'I' for Inactive)
    1  A    between atoms: N_1  and  C_11
    2  A    between atoms: N_1  and  N_33
    3  A    between atoms: P_2  and  C_15
    4  A    between atoms: P_2  and  O_32
    5  A    between atoms: C_4  and  C_24
    6  A    between atoms: C_6  and  C_19
    7  A    between atoms: C_9  and  C_30
    8  A    between atoms: C_11  and  C_25
    9  A    between atoms: C_23  and  O_28
   10  A    between atoms: C_23  and  O_32
   11  A    between atoms: C_23  and  C_39
   12  A    between atoms: C_24  and  C_41
   13  A    between atoms: C_25  and  C_29
   14  A    between atoms: C_26  and  C_44
   15  A    between atoms: O_28  and  C_29
   16  A    between atoms: C_31  and  C_36
   17  A    between atoms: C_31  and  C_39
   18  A    between atoms: C_35  and  C_50
                            x       y       z     vdW  Elec       q    Type
                         _______ _______ _______ _____ _____    ______ ____

>  <TORSDO>
F 18

$$$$
