=
 OpenBabel11062414083D

 53 60  0  0  1  0  0  0  0  0999 V2000
  187.2820  179.0070  141.0320 N   0  0  0  0  0  2  0  0  0  0  0  0
  183.2520  179.1550  142.2650 C   0  0  0  0  0  2  0  0  0  0  0  0
  185.5410  179.4110  142.8220 C   0  0  0  0  0  2  0  0  0  0  0  0
  185.9200  178.8870  141.4620 C   0  0  0  0  0  0  0  0  0  0  0  0
  184.9740  178.4510  140.6180 C   0  0  0  0  0  3  0  0  0  0  0  0
  183.5260  178.3040  141.0230 C   0  0  2  0  0  3  0  0  0  0  0  0
  184.2620  178.8680  143.2800 N   0  0  0  0  0  2  0  0  0  0  0  0
  181.4470  177.7590  139.9690 C   0  0  2  0  0  3  0  0  0  0  0  0
  182.6180  178.6420  139.9090 N   0  0  2  0  0  0  0  0  0  0  0  0
  178.9310  177.4720  140.1710 C   0  0  0  0  0  2  0  0  0  0  0  0
  181.4280  176.9440  138.6990 C   0  0  1  0  0  0  0  0  0  0  0  0
  180.1080  178.4630  140.2650 C   0  0  1  0  0  3  0  0  0  0  0  0
  183.1180  176.9310  136.8090 C   0  0  0  0  0  2  0  0  0  0  0  0
  180.4740  177.4720  137.5910 C   0  0  0  0  0  2  0  0  0  0  0  0
  179.9710  175.1910  139.7460 C   0  0  0  0  0  0  0  0  0  0  0  0
  182.8830  177.0840  138.3160 C   0  0  1  0  0  3  0  0  0  0  0  0
  182.3550  177.9770  135.9830 C   0  0  0  0  0  2  0  0  0  0  0  0
  181.0980  175.5890  139.0000 O   0  0  0  0  0  0  0  0  0  0  0  0
  181.1200  178.5310  136.7030 C   0  0  1  0  0  3  0  0  0  0  0  0
  179.2670  176.0890  140.7360 C   0  0  0  0  0  2  0  0  0  0  0  0
  183.2890  178.3640  138.7430 O   0  0  0  0  0  0  0  0  0  0  0  0
  179.5910  173.9950  139.6640 O   0  0  0  0  0  0  0  0  0  0  0  0
  180.3410  180.3270  135.1650 O   0  0  0  0  0  0  0  0  0  0  0  0
  179.1020  178.4180  135.4200 O   0  0  0  0  0  1  0  0  0  0  0  0
  180.1320  179.0750  135.7260 C   0  0  0  0  0  0  0  0  0  0  0  0
  180.0590  180.5260  141.4690 O   0  0  0  0  0  1  0  0  0  0  0  0
  180.1030  179.1400  141.6250 C   0  0  0  0  0  2  0  0  0  0  0  0
  188.2260  177.8960  141.0360 C   0  0  0  0  0  2  0  0  0  0  0  0
  191.1700  175.4410  137.8490 C   0  0  0  0  0  2  0  0  0  0  0  0
  187.3880  176.9570  136.0930 C   0  0  1  0  0  3  0  0  0  0  0  0
  190.5450  177.7530  136.2020 O   0  0  0  0  0  0  0  0  0  0  0  0
  186.8880  175.4590  137.9020 N   0  0  0  0  0  2  0  0  0  0  0  0
  192.6760  174.2610  135.6140 O   0  0  0  0  0  1  0  0  0  0  0  0
  190.3790  176.0280  140.5080 O   0  0  0  0  0  0  0  0  0  0  0  0
  189.1900  173.2080  134.7960 C   0  0  1  0  0  3  0  0  0  0  0  0
  189.3230  178.1340  140.0060 C   0  0  2  0  0  3  0  0  0  0  0  0
  188.8770  179.0110  138.9630 O   0  0  0  0  0  0  0  0  0  0  0  0
  188.6880  174.3630  135.5760 N   0  0  2  0  0  0  0  0  0  0  0  0
  190.7020  173.3790  134.5940 C   0  0  0  0  0  2  0  0  0  0  0  0
  186.6820  173.2590  136.2350 O   0  0  0  0  0  1  0  0  0  0  0  0
  186.6330  177.6170  135.1400 F   0  0  0  0  0  0  0  0  0  0  0  0
  187.4100  177.7590  137.3850 C   0  0  1  0  0  3  0  0  0  0  0  0
  189.2670  174.3660  136.8100 O   0  0  0  0  0  0  0  0  0  0  0  0
  186.9570  176.7960  138.4700 C   0  0  0  0  0  2  0  0  0  0  0  0
  186.7170  175.6490  136.4690 C   0  0  2  0  0  3  0  0  0  0  0  0
  190.5620  174.8540  136.5800 C   0  0  2  0  0  3  0  0  0  0  0  0
  189.9730  177.6040  137.3150 C   0  0  0  0  0  0  0  0  0  0  0  0
  190.0490  176.8570  139.6160 C   0  0  0  0  0  0  0  0  0  0  0  0
  188.7780  178.4240  137.6710 C   0  0  2  0  0  3  0  0  0  0  0  0
  187.2150  174.4260  135.6770 C   0  0  1  0  0  3  0  0  0  0  0  0
  191.4010  173.7730  135.9040 C   0  0  2  0  0  3  0  0  0  0  0  0
  190.4180  176.6320  138.2550 N   0  0  0  0  0  0  0  0  0  0  0  0
  188.9420  171.8670  135.4830 C   0  0  0  0  0  1  0  0  0  0  0  0
  1 28  1  0  0  0  0
  1  4  1  0  0  0  0
  2  7  1  0  0  0  0
  3  7  1  0  0  0  0
  4  3  1  0  0  0  0
  5  4  2  0  0  0  0
  6  5  1  6  0  0  0
  6  2  1  0  0  0  0
  8 12  1  0  0  0  0
  9  8  1  0  0  0  0
  9  6  1  0  0  0  0
 10 12  1  0  0  0  0
 10 20  1  0  0  0  0
 11 18  1  0  0  0  0
 11  8  1  0  0  0  0
 12 27  1  0  0  0  0
 13 16  1  0  0  0  0
 14 11  1  0  0  0  0
 15 20  1  0  0  0  0
 16 11  1  0  0  0  0
 16 21  1  0  0  0  0
 17 19  1  0  0  0  0
 17 13  1  0  0  0  0
 18 15  1  0  0  0  0
 19 14  1  0  0  0  0
 21  9  1  0  0  0  0
 22 15  2  0  0  0  0
 23 25  2  0  0  0  0
 24 25  1  0  0  0  0
 25 19  1  0  0  0  0
 26 27  1  0  0  0  0
 29 52  1  0  0  0  0
 30 45  1  0  0  0  0
 30 42  1  0  0  0  0
 31 47  2  0  0  0  0
 32 44  1  0  0  0  0
 33 51  1  0  0  0  0
 35 53  1  0  0  0  0
 35 38  1  0  0  0  0
 36 28  1  0  0  0  0
 37 36  1  0  0  0  0
 38 50  1  0  0  0  0
 38 43  1  0  0  0  0
 39 35  1  0  0  0  0
 39 51  1  0  0  0  0
 41 30  1  0  0  0  0
 42 49  1  0  0  0  0
 42 44  1  0  0  0  0
 45 32  1  0  0  0  0
 46 43  1  0  0  0  0
 46 29  1  0  0  0  0
 47 49  1  0  0  0  0
 47 52  1  0  0  0  0
 48 36  1  0  0  0  0
 48 34  2  0  0  0  0
 49 37  1  0  0  0  0
 50 40  1  0  0  0  0
 50 45  1  0  0  0  0
 51 46  1  0  0  0  0
 52 48  1  0  0  0  0
M  END
>  <MODEL>
1

>  <REMARK>
 VINA RESULT:      -6.4      0.000      0.000
  Name = 
  6 active torsions:
  status: ('A' for Active; 'I' for Inactive)
    1  A    between atoms: N_9  and  C_46
    2  A    between atoms: C_11  and  C_38
    3  A    between atoms: N_19  and  C_33
    4  A    between atoms: N_19  and  C_38
    5  A    between atoms: C_21  and  C_22
    6  A    between atoms: C_45  and  C_47
                            x       y       z     vdW  Elec       q    Type
                         _______ _______ _______ _____ _____    ______ ____

>  <TORSDO>
F 6

$$$$
=
 OpenBabel11062414083D

 53 60  0  0  1  0  0  0  0  0999 V2000
  187.0380  178.4000  141.8750 N   0  0  0  0  0  2  0  0  0  0  0  0
  183.3470  178.9340  143.8440 C   0  0  0  0  0  2  0  0  0  0  0  0
  185.7060  178.7640  143.9950 C   0  0  0  0  0  2  0  0  0  0  0  0
  185.7640  178.4120  142.5310 C   0  0  0  0  0  0  0  0  0  0  0  0
  184.6320  178.2570  141.8290 C   0  0  0  0  0  3  0  0  0  0  0  0
  183.2660  178.2600  142.4730 C   0  0  2  0  0  3  0  0  0  0  0  0
  184.4450  178.3470  144.6070 N   0  0  0  0  0  2  0  0  0  0  0  0
  181.3130  177.8730  141.1440 C   0  0  2  0  0  3  0  0  0  0  0  0
  182.2610  178.8970  141.6010 N   0  0  2  0  0  0  0  0  0  0  0  0
  178.9310  177.0020  141.0040 C   0  0  0  0  0  2  0  0  0  0  0  0
  181.4190  177.7960  139.6400 C   0  0  1  0  0  0  0  0  0  0  0  0
  179.8670  178.0450  141.6480 C   0  0  1  0  0  3  0  0  0  0  0  0
  182.9900  179.0600  138.1030 C   0  0  0  0  0  2  0  0  0  0  0  0
  180.3270  178.5820  138.8610 C   0  0  0  0  0  2  0  0  0  0  0  0
  180.4240  175.4940  139.6040 C   0  0  0  0  0  0  0  0  0  0  0  0
  182.7910  178.4070  139.4760 C   0  0  1  0  0  3  0  0  0  0  0  0
  181.9840  180.1890  137.8350 C   0  0  0  0  0  2  0  0  0  0  0  0
  181.4060  176.4310  139.2250 O   0  0  0  0  0  0  0  0  0  0  0  0
  180.6890  180.0490  138.6440 C   0  0  1  0  0  3  0  0  0  0  0  0
  179.5840  175.6260  140.8530 C   0  0  0  0  0  2  0  0  0  0  0  0
  182.9270  179.3710  140.4950 O   0  0  0  0  0  0  0  0  0  0  0  0
  180.3100  174.4390  138.9270 O   0  0  0  0  0  0  0  0  0  0  0  0
  179.0070  181.8830  138.6080 O   0  0  0  0  0  1  0  0  0  0  0  0
  179.1080  180.3860  136.8780 O   0  0  0  0  0  0  0  0  0  0  0  0
  179.5660  180.7770  137.9840 C   0  0  0  0  0  0  0  0  0  0  0  0
  179.5630  179.2250  143.7030 O   0  0  0  0  0  1  0  0  0  0  0  0
  179.7720  177.9560  143.1610 C   0  0  0  0  0  2  0  0  0  0  0  0
  187.3400  177.5570  140.7240 C   0  0  0  0  0  2  0  0  0  0  0  0
  191.3130  176.5720  137.8800 C   0  0  0  0  0  2  0  0  0  0  0  0
  187.4370  176.5740  135.7190 C   0  0  1  0  0  3  0  0  0  0  0  0
  190.0060  178.5280  136.1730 O   0  0  0  0  0  0  0  0  0  0  0  0
  187.3820  174.9260  137.4650 N   0  0  0  0  0  2  0  0  0  0  0  0
  193.3780  176.1630  135.8230 O   0  0  0  0  0  1  0  0  0  0  0  0
  190.0920  176.6950  140.4360 O   0  0  0  0  0  0  0  0  0  0  0  0
  190.6800  173.8760  134.6300 C   0  0  1  0  0  3  0  0  0  0  0  0
  188.3550  178.2460  139.8200 C   0  0  2  0  0  3  0  0  0  0  0  0
  187.7090  178.9240  138.7340 O   0  0  0  0  0  0  0  0  0  0  0  0
  189.6910  174.7120  135.3490 N   0  0  2  0  0  0  0  0  0  0  0  0
  192.0180  174.6280  134.5940 C   0  0  0  0  0  2  0  0  0  0  0  0
  188.2190  172.8900  135.7870 O   0  0  0  0  0  1  0  0  0  0  0  0
  186.5850  176.9300  134.6900 F   0  0  0  0  0  0  0  0  0  0  0  0
  187.0150  177.2680  137.0050 C   0  0  1  0  0  3  0  0  0  0  0  0
  190.0960  174.8880  136.6400 O   0  0  0  0  0  0  0  0  0  0  0  0
  186.8670  176.1600  138.0350 C   0  0  0  0  0  2  0  0  0  0  0  0
  187.2950  175.0940  136.0210 C   0  0  2  0  0  3  0  0  0  0  0  0
  191.1140  175.8490  136.5520 C   0  0  2  0  0  3  0  0  0  0  0  0
  189.4280  178.1220  137.2170 C   0  0  0  0  0  0  0  0  0  0  0  0
  189.5560  177.3670  139.5130 C   0  0  0  0  0  0  0  0  0  0  0  0
  187.9790  178.3990  137.4380 C   0  0  2  0  0  3  0  0  0  0  0  0
  188.3090  174.1950  135.2900 C   0  0  1  0  0  3  0  0  0  0  0  0
  192.3720  175.2070  135.9720 C   0  0  2  0  0  3  0  0  0  0  0  0
  190.1200  177.3600  138.2000 N   0  0  0  0  0  0  0  0  0  0  0  0
  190.9070  172.5160  135.2860 C   0  0  0  0  0  1  0  0  0  0  0  0
  1  4  1  0  0  0  0
  2  7  1  0  0  0  0
  3  7  1  0  0  0  0
  4  3  1  0  0  0  0
  5  4  2  0  0  0  0
  6  5  1  6  0  0  0
  6  2  1  0  0  0  0
  8  9  1  0  0  0  0
  8 12  1  0  0  0  0
  9  6  1  0  0  0  0
 10 12  1  0  0  0  0
 11  8  1  0  0  0  0
 12 27  1  0  0  0  0
 13 16  1  0  0  0  0
 14 11  1  0  0  0  0
 15 20  1  0  0  0  0
 16 11  1  0  0  0  0
 16 21  1  0  0  0  0
 17 13  1  0  0  0  0
 17 19  1  0  0  0  0
 18 15  1  0  0  0  0
 18 11  1  0  0  0  0
 19 14  1  0  0  0  0
 20 10  1  0  0  0  0
 21  9  1  0  0  0  0
 22 15  2  0  0  0  0
 24 25  2  0  0  0  0
 25 23  1  0  0  0  0
 25 19  1  0  0  0  0
 27 26  1  0  0  0  0
 28  1  1  0  0  0  0
 29 52  1  0  0  0  0
 30 45  1  0  0  0  0
 30 42  1  0  0  0  0
 31 47  2  0  0  0  0
 32 44  1  0  0  0  0
 33 51  1  0  0  0  0
 35 53  1  0  0  0  0
 35 38  1  0  0  0  0
 36 28  1  0  0  0  0
 37 36  1  0  0  0  0
 38 43  1  0  0  0  0
 39 35  1  0  0  0  0
 39 51  1  0  0  0  0
 41 30  1  0  0  0  0
 42 49  1  0  0  0  0
 42 44  1  0  0  0  0
 45 32  1  0  0  0  0
 46 43  1  0  0  0  0
 46 29  1  0  0  0  0
 47 49  1  0  0  0  0
 47 52  1  0  0  0  0
 48 36  1  0  0  0  0
 48 34  2  0  0  0  0
 49 37  1  0  0  0  0
 50 38  1  0  0  0  0
 50 40  1  0  0  0  0
 50 45  1  0  0  0  0
 51 46  1  0  0  0  0
 52 48  1  0  0  0  0
M  END
>  <MODEL>
2

>  <REMARK>
 VINA RESULT:      -5.8      1.436      1.591
  Name = 
  6 active torsions:
  status: ('A' for Active; 'I' for Inactive)
    1  A    between atoms: N_9  and  C_46
    2  A    between atoms: C_11  and  C_38
    3  A    between atoms: N_19  and  C_33
    4  A    between atoms: N_19  and  C_38
    5  A    between atoms: C_21  and  C_22
    6  A    between atoms: C_45  and  C_47
                            x       y       z     vdW  Elec       q    Type
                         _______ _______ _______ _____ _____    ______ ____

>  <TORSDO>
F 6

$$$$
=
 OpenBabel11062414083D

 53 60  0  0  1  0  0  0  0  0999 V2000
  188.9150  176.9580  136.9130 N   0  0  0  0  0  2  0  0  0  0  0  0
  192.2280  176.3740  139.4560 C   0  0  0  0  0  2  0  0  0  0  0  0
  190.1610  177.4630  139.0550 C   0  0  0  0  0  2  0  0  0  0  0  0
  190.1260  176.8650  137.6730 C   0  0  0  0  0  0  0  0  0  0  0  0
  191.1590  176.1370  137.2260 C   0  0  0  0  0  3  0  0  0  0  0  0
  192.4570  176.0090  137.9880 C   0  0  2  0  0  3  0  0  0  0  0  0
  191.5310  177.6550  139.5320 N   0  0  0  0  0  2  0  0  0  0  0  0
  194.4370  174.7960  137.4050 C   0  0  2  0  0  3  0  0  0  0  0  0
  193.0400  174.6620  137.8370 N   0  0  2  0  0  0  0  0  0  0  0  0
  196.9060  174.3630  137.8170 C   0  0  0  0  0  2  0  0  0  0  0  0
  194.5580  174.1430  136.0500 C   0  0  1  0  0  0  0  0  0  0  0  0
  195.4880  174.3040  138.4190 C   0  0  1  0  0  3  0  0  0  0  0  0
  192.7340  173.0910  134.6380 C   0  0  0  0  0  2  0  0  0  0  0  0
  195.1220  172.6940  136.0650 C   0  0  0  0  0  2  0  0  0  0  0  0
  196.6460  175.4290  135.5230 C   0  0  0  0  0  0  0  0  0  0  0  0
  193.1030  174.1870  135.6440 C   0  0  1  0  0  3  0  0  0  0  0  0
  192.9830  171.6780  135.1870 C   0  0  0  0  0  2  0  0  0  0  0  0
  195.3620  174.9540  135.1940 O   0  0  0  0  0  0  0  0  0  0  0  0
  194.0440  171.6380  136.2920 C   0  0  1  0  0  3  0  0  0  0  0  0
  197.1330  175.6000  136.9430 C   0  0  0  0  0  2  0  0  0  0  0  0
  192.3520  174.0340  136.8260 O   0  0  0  0  0  0  0  0  0  0  0  0
  197.3920  175.8320  134.5940 O   0  0  0  0  0  0  0  0  0  0  0  0
  195.0840  169.6300  135.2520 O   0  0  0  0  0  0  0  0  0  0  0  0
  194.7590  169.7090  137.5180 O   0  0  0  0  0  1  0  0  0  0  0  0
  194.6520  170.2790  136.4000 C   0  0  0  0  0  0  0  0  0  0  0  0
  196.6460  174.9290  140.4140 O   0  0  0  0  0  1  0  0  0  0  0  0
  195.4470  175.0920  139.7170 C   0  0  0  0  0  2  0  0  0  0  0  0
  187.6150  176.5340  137.4190 C   0  0  0  0  0  2  0  0  0  0  0  0
  183.7380  173.4920  136.6670 C   0  0  0  0  0  2  0  0  0  0  0  0
  182.7150  177.8080  136.7970 C   0  0  1  0  0  3  0  0  0  0  0  0
  183.1860  175.4540  134.5940 O   0  0  0  0  0  0  0  0  0  0  0  0
  183.7370  177.1630  138.8730 N   0  0  0  0  0  2  0  0  0  0  0  0
  181.2350  172.0940  136.0050 O   0  0  0  0  0  1  0  0  0  0  0  0
  186.3910  173.9110  137.5750 O   0  0  0  0  0  0  0  0  0  0  0  0
  180.0090  174.7510  138.3200 C   0  0  1  0  0  3  0  0  0  0  0  0
  186.7910  175.9140  136.2980 C   0  0  2  0  0  3  0  0  0  0  0  0
  186.1980  176.9220  135.4680 O   0  0  0  0  0  0  0  0  0  0  0  0
  181.1900  175.5710  137.9610 N   0  0  2  0  0  0  0  0  0  0  0  0
  179.9150  173.5760  137.3370 C   0  0  0  0  0  2  0  0  0  0  0  0
  181.3070  176.6360  140.0890 O   0  0  0  0  0  1  0  0  0  0  0  0
  182.1100  178.9590  136.3280 F   0  0  0  0  0  0  0  0  0  0  0  0
  184.2230  177.9070  136.6270 C   0  0  1  0  0  3  0  0  0  0  0  0
  182.3230  174.8260  138.1060 O   0  0  0  0  0  0  0  0  0  0  0  0
  184.8070  177.6200  138.0010 C   0  0  0  0  0  2  0  0  0  0  0  0
  182.5080  177.6890  138.2960 C   0  0  2  0  0  3  0  0  0  0  0  0
  182.3320  173.9920  136.9780 C   0  0  2  0  0  3  0  0  0  0  0  0
  184.1300  175.6490  135.4050 C   0  0  0  0  0  0  0  0  0  0  0  0
  185.9180  174.7660  136.7790 C   0  0  0  0  0  0  0  0  0  0  0  0
  184.7760  176.9900  135.5100 C   0  0  2  0  0  3  0  0  0  0  0  0
  181.2880  176.8430  138.7060 C   0  0  1  0  0  3  0  0  0  0  0  0
  181.2810  172.8980  137.1440 C   0  0  2  0  0  3  0  0  0  0  0  0
  184.5900  174.6180  136.2730 N   0  0  0  0  0  0  0  0  0  0  0  0
  180.0770  174.1920  139.7400 C   0  0  0  0  0  1  0  0  0  0  0  0
  1 28  1  0  0  0  0
  1  4  1  0  0  0  0
  2  7  1  0  0  0  0
  3  7  1  0  0  0  0
  4  3  1  0  0  0  0
  5  4  2  0  0  0  0
  6  5  1  6  0  0  0
  6  2  1  0  0  0  0
  8  9  1  0  0  0  0
  8 12  1  0  0  0  0
  9  6  1  0  0  0  0
 10 12  1  0  0  0  0
 11 14  1  0  0  0  0
 11  8  1  0  0  0  0
 12 27  1  0  0  0  0
 13 17  1  0  0  0  0
 13 16  1  0  0  0  0
 14 19  1  0  0  0  0
 15 20  1  0  0  0  0
 16 11  1  0  0  0  0
 16 21  1  0  0  0  0
 17 19  1  0  0  0  0
 18 15  1  0  0  0  0
 18 11  1  0  0  0  0
 19 25  1  0  0  0  0
 20 10  1  0  0  0  0
 21  9  1  0  0  0  0
 22 15  2  0  0  0  0
 23 25  2  0  0  0  0
 25 24  1  0  0  0  0
 27 26  1  0  0  0  0
 29 46  1  0  0  0  0
 30 45  1  0  0  0  0
 31 47  2  0  0  0  0
 33 51  1  0  0  0  0
 35 53  1  0  0  0  0
 36 48  1  0  0  0  0
 36 28  1  0  0  0  0
 37 49  1  0  0  0  0
 37 36  1  0  0  0  0
 38 43  1  0  0  0  0
 38 35  1  0  0  0  0
 38 50  1  0  0  0  0
 39 35  1  0  0  0  0
 41 30  1  0  0  0  0
 42 30  1  0  0  0  0
 42 44  1  0  0  0  0
 44 32  1  0  0  0  0
 45 50  1  0  0  0  0
 45 32  1  0  0  0  0
 46 51  1  0  0  0  0
 46 43  1  0  0  0  0
 47 49  1  0  0  0  0
 47 52  1  0  0  0  0
 48 34  2  0  0  0  0
 49 42  1  0  0  0  0
 50 40  1  0  0  0  0
 51 39  1  0  0  0  0
 52 29  1  0  0  0  0
 52 48  1  0  0  0  0
M  END
>  <MODEL>
3

>  <REMARK>
 VINA RESULT:      -4.9      3.271     11.042
  Name = 
  6 active torsions:
  status: ('A' for Active; 'I' for Inactive)
    1  A    between atoms: N_9  and  C_46
    2  A    between atoms: C_11  and  C_38
    3  A    between atoms: N_19  and  C_33
    4  A    between atoms: N_19  and  C_38
    5  A    between atoms: C_21  and  C_22
    6  A    between atoms: C_45  and  C_47
                            x       y       z     vdW  Elec       q    Type
                         _______ _______ _______ _____ _____    ______ ____

>  <TORSDO>
F 6

$$$$
=
 OpenBabel11062414083D

 53 60  0  0  1  0  0  0  0  0999 V2000
  186.9520  178.2840  142.0930 N   0  0  0  0  0  2  0  0  0  0  0  0
  182.8660  179.3150  142.2460 C   0  0  0  0  0  2  0  0  0  0  0  0
  185.0680  179.6790  143.0430 C   0  0  0  0  0  2  0  0  0  0  0  0
  185.5430  178.4950  142.2420 C   0  0  0  0  0  0  0  0  0  0  0  0
  184.6650  177.7420  141.5630 C   0  0  0  0  0  3  0  0  0  0  0  0
  183.1700  177.9220  141.6870 C   0  0  2  0  0  3  0  0  0  0  0  0
  183.6680  179.5390  143.4450 N   0  0  0  0  0  2  0  0  0  0  0  0
  181.8390  178.9250  139.9680 C   0  0  2  0  0  3  0  0  0  0  0  0
  182.4900  177.6820  140.3990 N   0  0  2  0  0  0  0  0  0  0  0  0
  181.5700  180.7710  138.2430 C   0  0  0  0  0  2  0  0  0  0  0  0
  180.3550  178.6620  139.9040 C   0  0  1  0  0  0  0  0  0  0  0  0
  182.4070  179.5520  138.6790 C   0  0  1  0  0  3  0  0  0  0  0  0
  179.1010  176.5460  140.5200 C   0  0  0  0  0  2  0  0  0  0  0  0
  179.8020  178.3510  138.4840 C   0  0  0  0  0  2  0  0  0  0  0  0
  179.8270  181.1090  140.0640 C   0  0  0  0  0  0  0  0  0  0  0  0
  180.2960  177.4580  140.8160 C   0  0  1  0  0  3  0  0  0  0  0  0
  179.1200  175.9950  139.0860 C   0  0  0  0  0  2  0  0  0  0  0  0
  179.6430  179.7680  140.4560 O   0  0  0  0  0  0  0  0  0  0  0  0
  179.9110  176.8750  138.1110 C   0  0  1  0  0  3  0  0  0  0  0  0
  181.0950  181.6230  139.4230 C   0  0  0  0  0  2  0  0  0  0  0  0
  181.5030  176.7540  140.6300 O   0  0  0  0  0  0  0  0  0  0  0  0
  178.9340  181.9450  140.3540 O   0  0  0  0  0  0  0  0  0  0  0  0
  179.6530  175.4110  136.1150 O   0  0  0  0  0  1  0  0  0  0  0  0
  178.9310  177.5830  136.0450 O   0  0  0  0  0  0  0  0  0  0  0  0
  179.4620  176.6520  136.7060 C   0  0  0  0  0  0  0  0  0  0  0  0
  184.6940  178.9270  138.3850 O   0  0  0  0  0  1  0  0  0  0  0  0
  183.8640  179.9550  138.8310 C   0  0  0  0  0  2  0  0  0  0  0  0
  187.5300  177.3860  141.1000 C   0  0  0  0  0  2  0  0  0  0  0  0
  191.4050  176.5870  138.0680 C   0  0  0  0  0  2  0  0  0  0  0  0
  187.4790  176.8880  136.0240 C   0  0  1  0  0  3  0  0  0  0  0  0
  190.1070  178.7280  136.5920 O   0  0  0  0  0  0  0  0  0  0  0  0
  187.4230  175.0810  137.6040 N   0  0  0  0  0  2  0  0  0  0  0  0
  193.4070  176.3290  135.9270 O   0  0  0  0  0  1  0  0  0  0  0  0
  190.2510  176.4910  140.6560 O   0  0  0  0  0  0  0  0  0  0  0  0
  190.6220  174.2310  134.5940 C   0  0  1  0  0  3  0  0  0  0  0  0
  188.5400  178.1350  140.2390 C   0  0  2  0  0  3  0  0  0  0  0  0
  187.8860  178.9290  139.2400 O   0  0  0  0  0  0  0  0  0  0  0  0
  189.6730  175.0180  135.4160 N   0  0  2  0  0  0  0  0  0  0  0  0
  191.9780  174.9520  134.5940 C   0  0  0  0  0  2  0  0  0  0  0  0
  188.1660  173.1970  135.7170 O   0  0  0  0  0  1  0  0  0  0  0  0
  186.6110  177.3600  135.0560 F   0  0  0  0  0  0  0  0  0  0  0  0
  187.1060  177.4640  137.3810 C   0  0  1  0  0  3  0  0  0  0  0  0
  190.1140  175.0590  136.7060 O   0  0  0  0  0  0  0  0  0  0  0  0
  186.9550  176.2660  138.3040 C   0  0  0  0  0  2  0  0  0  0  0  0
  187.3050  175.3900  136.1860 C   0  0  2  0  0  3  0  0  0  0  0  0
  191.1550  176.0000  136.6830 C   0  0  2  0  0  3  0  0  0  0  0  0
  189.5450  178.2370  137.6080 C   0  0  0  0  0  0  0  0  0  0  0  0
  189.7100  177.2610  139.8170 C   0  0  0  0  0  0  0  0  0  0  0  0
  188.1100  178.5250  137.8940 C   0  0  2  0  0  3  0  0  0  0  0  0
  188.2770  174.5410  135.3450 C   0  0  1  0  0  3  0  0  0  0  0  0
  192.3800  175.3870  136.0110 C   0  0  2  0  0  3  0  0  0  0  0  0
  190.2410  177.3680  138.4950 N   0  0  0  0  0  0  0  0  0  0  0  0
  190.8290  172.8100  135.1110 C   0  0  0  0  0  1  0  0  0  0  0  0
  1  4  1  0  0  0  0
  2  7  1  0  0  0  0
  3  7  1  0  0  0  0
  4  3  1  0  0  0  0
  5  4  2  0  0  0  0
  6  5  1  6  0  0  0
  6  2  1  0  0  0  0
  8  9  1  0  0  0  0
  9 21  1  0  0  0  0
  9  6  1  0  0  0  0
 10 12  1  0  0  0  0
 10 20  1  0  0  0  0
 11  8  1  0  0  0  0
 11 18  1  0  0  0  0
 11 16  1  0  0  0  0
 12 27  1  0  0  0  0
 12  8  1  0  0  0  0
 13 16  1  0  0  0  0
 14 11  1  0  0  0  0
 15 22  2  0  0  0  0
 15 18  1  0  0  0  0
 17 13  1  0  0  0  0
 19 14  1  0  0  0  0
 19 17  1  0  0  0  0
 20 15  1  0  0  0  0
 21 16  1  0  0  0  0
 23 25  1  0  0  0  0
 24 25  2  0  0  0  0
 25 19  1  0  0  0  0
 26 27  1  0  0  0  0
 28  1  1  0  0  0  0
 29 52  1  0  0  0  0
 30 45  1  0  0  0  0
 30 42  1  0  0  0  0
 31 47  2  0  0  0  0
 32 44  1  0  0  0  0
 33 51  1  0  0  0  0
 35 39  1  0  0  0  0
 35 53  1  0  0  0  0
 35 38  1  0  0  0  0
 36 28  1  0  0  0  0
 37 36  1  0  0  0  0
 38 43  1  0  0  0  0
 39 51  1  0  0  0  0
 41 30  1  0  0  0  0
 42 49  1  0  0  0  0
 42 44  1  0  0  0  0
 45 32  1  0  0  0  0
 46 43  1  0  0  0  0
 46 29  1  0  0  0  0
 47 49  1  0  0  0  0
 47 52  1  0  0  0  0
 48 36  1  0  0  0  0
 48 34  2  0  0  0  0
 49 37  1  0  0  0  0
 50 38  1  0  0  0  0
 50 40  1  0  0  0  0
 50 45  1  0  0  0  0
 51 46  1  0  0  0  0
 52 48  1  0  0  0  0
M  END
>  <MODEL>
4

>  <REMARK>
 VINA RESULT:      -4.2      1.520      2.795
  Name = 
  6 active torsions:
  status: ('A' for Active; 'I' for Inactive)
    1  A    between atoms: N_9  and  C_46
    2  A    between atoms: C_11  and  C_38
    3  A    between atoms: N_19  and  C_33
    4  A    between atoms: N_19  and  C_38
    5  A    between atoms: C_21  and  C_22
    6  A    between atoms: C_45  and  C_47
                            x       y       z     vdW  Elec       q    Type
                         _______ _______ _______ _____ _____    ______ ____

>  <TORSDO>
F 6

$$$$
=
 OpenBabel11062414083D

 53 60  0  0  1  0  0  0  0  0999 V2000
  182.4250  179.2870  140.9020 N   0  0  0  0  0  2  0  0  0  0  0  0
  185.4780  177.9510  143.4860 C   0  0  0  0  0  2  0  0  0  0  0  0
  183.2270  178.6380  143.2110 C   0  0  0  0  0  2  0  0  0  0  0  0
  183.5210  178.9940  141.7770 C   0  0  0  0  0  0  0  0  0  0  0  0
  184.7690  178.8940  141.2990 C   0  0  0  0  0  3  0  0  0  0  0  0
  185.9580  178.5900  142.1810 C   0  0  2  0  0  3  0  0  0  0  0  0
  184.4120  178.7670  144.0600 N   0  0  0  0  0  2  0  0  0  0  0  0
  188.1930  177.7350  142.2550 C   0  0  2  0  0  3  0  0  0  0  0  0
  186.9450  177.7450  141.4810 N   0  0  2  0  0  0  0  0  0  0  0  0
  189.9690  176.4370  143.5250 C   0  0  0  0  0  2  0  0  0  0  0  0
  189.2690  178.3420  141.3890 C   0  0  1  0  0  0  0  0  0  0  0  0
  188.5840  176.3690  142.8520 C   0  0  1  0  0  3  0  0  0  0  0  0
  189.0500  179.3380  139.0680 C   0  0  0  0  0  2  0  0  0  0  0  0
  190.1830  177.3180  140.6590 C   0  0  0  0  0  2  0  0  0  0  0  0
  190.6940  178.8710  143.3840 C   0  0  0  0  0  0  0  0  0  0  0  0
  188.3870  179.1070  140.4300 C   0  0  1  0  0  3  0  0  0  0  0  0
  189.4150  178.0250  138.3590 C   0  0  0  0  0  2  0  0  0  0  0  0
  190.0760  179.2240  142.1690 O   0  0  0  0  0  0  0  0  0  0  0  0
  189.6080  176.8500  139.3250 C   0  0  1  0  0  3  0  0  0  0  0  0
  190.2050  177.7510  144.2740 C   0  0  0  0  0  2  0  0  0  0  0  0
  187.2100  178.3470  140.2740 O   0  0  0  0  0  0  0  0  0  0  0  0
  191.6380  179.5870  143.8060 O   0  0  0  0  0  0  0  0  0  0  0  0
  189.8910  174.7730  137.9840 O   0  0  0  0  0  0  0  0  0  0  0  0
  191.7210  175.8160  138.8830 O   0  0  0  0  0  1  0  0  0  0  0  0
  190.4730  175.7960  138.7180 C   0  0  0  0  0  0  0  0  0  0  0  0
  187.6230  176.5970  145.0270 O   0  0  0  0  0  1  0  0  0  0  0  0
  187.5540  175.8590  143.8450 C   0  0  0  0  0  2  0  0  0  0  0  0
  181.8320  178.3050  140.0010 C   0  0  0  0  0  2  0  0  0  0  0  0
  183.8120  174.8110  137.0480 C   0  0  0  0  0  2  0  0  0  0  0  0
  179.8580  176.3330  135.7310 C   0  0  1  0  0  3  0  0  0  0  0  0
  183.0120  176.7260  135.0130 O   0  0  0  0  0  0  0  0  0  0  0  0
  179.6610  175.3840  137.9280 N   0  0  0  0  0  2  0  0  0  0  0  0
  184.6980  172.9520  134.9460 O   0  0  0  0  0  1  0  0  0  0  0  0
  183.6720  176.1080  139.5660 O   0  0  0  0  0  0  0  0  0  0  0  0
  181.0490  172.1860  135.1240 C   0  0  1  0  0  3  0  0  0  0  0  0
  182.6900  178.1520  138.7510 C   0  0  2  0  0  3  0  0  0  0  0  0
  182.0900  178.8050  137.6250 O   0  0  0  0  0  0  0  0  0  0  0  0
  180.8170  173.5480  135.6600 N   0  0  2  0  0  0  0  0  0  0  0  0
  182.4880  172.1110  134.5940 C   0  0  0  0  0  2  0  0  0  0  0  0
  178.9310  172.8950  136.9610 O   0  0  0  0  0  1  0  0  0  0  0  0
  178.9620  176.8380  134.8060 F   0  0  0  0  0  0  0  0  0  0  0  0
  180.2240  177.4100  136.7410 C   0  0  1  0  0  3  0  0  0  0  0  0
  181.6530  173.7700  136.7140 O   0  0  0  0  0  0  0  0  0  0  0  0
  179.9520  176.7970  138.1050 C   0  0  0  0  0  2  0  0  0  0  0  0
  179.1920  175.2480  136.5570 C   0  0  2  0  0  3  0  0  0  0  0  0
  182.8980  174.0210  136.1180 C   0  0  2  0  0  3  0  0  0  0  0  0
  182.6900  176.9190  136.2160 C   0  0  0  0  0  0  0  0  0  0  0  0
  183.2150  176.7370  138.5720 C   0  0  0  0  0  0  0  0  0  0  0  0
  181.6660  177.9450  136.5730 C   0  0  2  0  0  3  0  0  0  0  0  0
  179.4120  173.8190  136.0270 C   0  0  1  0  0  3  0  0  0  0  0  0
  183.4850  172.7130  135.5950 C   0  0  2  0  0  3  0  0  0  0  0  0
  183.2580  176.1490  137.2710 N   0  0  0  0  0  0  0  0  0  0  0  0
  180.8600  171.0890  136.1690 C   0  0  0  0  0  1  0  0  0  0  0  0
  1  4  1  0  0  0  0
  2  7  1  0  0  0  0
  3  7  1  0  0  0  0
  4  3  1  0  0  0  0
  5  4  2  0  0  0  0
  6  5  1  6  0  0  0
  6  2  1  0  0  0  0
  8 12  1  0  0  0  0
  9  6  1  0  0  0  0
  9  8  1  0  0  0  0
 10 20  1  0  0  0  0
 11 18  1  0  0  0  0
 11  8  1  0  0  0  0
 12 10  1  0  0  0  0
 12 27  1  0  0  0  0
 13 16  1  0  0  0  0
 14 11  1  0  0  0  0
 15 22  2  0  0  0  0
 15 20  1  0  0  0  0
 16 11  1  0  0  0  0
 17 13  1  0  0  0  0
 17 19  1  0  0  0  0
 18 15  1  0  0  0  0
 19 14  1  0  0  0  0
 21 16  1  0  0  0  0
 21  9  1  0  0  0  0
 23 25  2  0  0  0  0
 25 24  1  0  0  0  0
 25 19  1  0  0  0  0
 27 26  1  0  0  0  0
 28  1  1  0  0  0  0
 29 52  1  0  0  0  0
 30 45  1  0  0  0  0
 30 42  1  0  0  0  0
 31 47  2  0  0  0  0
 32 44  1  0  0  0  0
 33 51  1  0  0  0  0
 35 38  1  0  0  0  0
 35 53  1  0  0  0  0
 36 28  1  0  0  0  0
 37 36  1  0  0  0  0
 38 50  1  0  0  0  0
 38 43  1  0  0  0  0
 39 35  1  0  0  0  0
 39 51  1  0  0  0  0
 41 30  1  0  0  0  0
 42 44  1  0  0  0  0
 45 32  1  0  0  0  0
 46 43  1  0  0  0  0
 46 29  1  0  0  0  0
 47 49  1  0  0  0  0
 47 52  1  0  0  0  0
 48 36  1  0  0  0  0
 48 34  2  0  0  0  0
 49 42  1  0  0  0  0
 49 37  1  0  0  0  0
 50 45  1  0  0  0  0
 50 40  1  0  0  0  0
 51 46  1  0  0  0  0
 52 48  1  0  0  0  0
M  END
>  <MODEL>
5

>  <REMARK>
 VINA RESULT:      -3.5      3.065      7.994
  Name = 
  6 active torsions:
  status: ('A' for Active; 'I' for Inactive)
    1  A    between atoms: N_9  and  C_46
    2  A    between atoms: C_11  and  C_38
    3  A    between atoms: N_19  and  C_33
    4  A    between atoms: N_19  and  C_38
    5  A    between atoms: C_21  and  C_22
    6  A    between atoms: C_45  and  C_47
                            x       y       z     vdW  Elec       q    Type
                         _______ _______ _______ _____ _____    ______ ____

>  <TORSDO>
F 6

$$$$
