=
 OpenBabel11062413493D

 52 57  0  0  1  0  0  0  0  0999 V2000
  190.7320  177.2790  139.2250 C   0  0  1  0  0  3  0  0  0  0  0  0
  189.5760  177.9120  138.4540 C   0  0  0  0  0  1  0  0  0  0  0  0
  190.7230  177.6550  140.7070 C   0  0  2  0  0  3  0  0  0  0  0  0
  192.0270  177.7590  141.2040 O   0  0  0  0  0  1  0  0  0  0  0  0
  189.8970  176.6540  141.5260 C   0  0  2  0  0  3  0  0  0  0  0  0
  188.2710  178.5240  141.1810 C   0  0  0  0  0  1  0  0  0  0  0  0
  188.6050  177.3030  142.0090 C   0  0  0  0  0  2  0  0  0  0  0  0
  190.6810  176.0890  142.7130 C   0  0  0  0  0  2  0  0  0  0  0  0
  190.2770  176.6730  143.9240 O   0  0  0  0  0  0  0  0  0  0  0  0
  191.4300  177.2450  144.4860 C   0  0  1  0  0  3  0  0  0  0  0  0
  191.4610  178.7270  144.2590 C   0  0  0  0  0  0  0  0  0  0  0  0
  192.5180  179.3750  144.4880 O   0  0  0  0  0  1  0  0  0  0  0  0
  190.3300  179.3990  143.8120 O   0  0  0  0  0  0  0  0  0  0  0  0
  191.5150  176.9410  145.9870 C   0  0  2  0  0  3  0  0  0  0  0  0
  192.1070  175.2030  147.7440 C   0  0  0  0  0  1  0  0  0  0  0  0
  192.1410  175.5750  146.2690 C   0  0  0  0  0  2  0  0  0  0  0  0
  190.1780  177.1370  146.7000 C   0  0  0  0  0  2  0  0  0  0  0  0
  189.1160  176.9970  145.8010 O   0  0  0  0  0  0  0  0  0  0  0  0
  188.0670  177.7340  146.3600 C   0  0  0  0  0  2  0  0  0  0  0  0
  186.7970  177.5490  145.5400 C   0  0  0  0  0  2  0  0  0  0  0  0
  185.6590  178.3220  146.1770 C   0  0  0  0  0  2  0  0  0  0  0  0
  183.5130  179.1280  145.5170 O   0  0  0  0  0  1  0  0  0  0  0  0
  184.8520  179.0500  145.1120 C   0  0  2  0  0  3  0  0  0  0  0  0
  183.8060  178.6520  142.8750 C   0  0  0  0  0  2  0  0  0  0  0  0
  185.1660  179.2840  142.6740 C   0  0  0  0  0  2  0  0  0  0  0  0
  184.9570  178.2880  143.7970 C   0  0  0  0  0  3  0  0  0  0  0  0
  190.7590  175.7610  139.0630 C   0  0  0  0  0  2  0  0  0  0  0  0
  190.9220  175.3670  137.6290 C   0  0  0  0  0  0  0  0  0  0  0  0
  192.0260  175.5990  137.0740 O   0  0  0  0  0  0  0  0  0  0  0  0
  189.5090  173.4940  137.1550 N   0  0  0  0  0  2  0  0  0  0  0  0
  189.8400  174.7110  136.8600 C   0  0  0  0  0  0  0  0  0  0  0  0
  189.6350  176.4150  135.2170 O   0  0  0  0  0  0  0  0  0  0  0  0
  189.1170  175.4130  135.7820 C   0  0  0  0  0  0  0  0  0  0  0  0
  187.7680  174.9410  135.3250 C   0  0  0  0  0  2  0  0  0  0  0  0
  185.7000  175.9240  136.6520 C   0  0  1  0  0  3  0  0  0  0  0  0
  186.7380  177.1460  134.7640 O   0  0  0  0  0  1  0  0  0  0  0  0
  185.3610  175.4000  135.3820 O   0  0  0  0  0  0  0  0  0  0  0  0
  186.6420  175.9670  135.5020 C   0  0  1  0  0  0  0  0  0  0  0  0
  184.9820  177.2490  136.8660 C   0  0  1  0  0  3  0  0  0  0  0  0
  180.1400  176.4080  137.4480 O   0  0  0  0  0  0  0  0  0  0  0  0
  181.7380  178.3440  137.3730 C   0  0  0  0  0  2  0  0  0  0  0  0
  183.7710  177.2480  137.7940 C   0  0  2  0  0  0  0  0  0  0  0  0
  183.7680  179.4810  139.0660 C   0  0  0  0  0  1  0  0  0  0  0  0
  185.9670  178.2470  138.0500 S   0  0  0  0  0  0  0  0  0  0  0  0
  182.3330  176.9800  137.2620 C   0  0  1  0  0  0  0  0  0  0  0  0
  179.6790  177.6750  137.7210 C   0  0  0  0  0  2  0  0  0  0  0  0
  184.3600  178.0880  138.9230 C   0  0  2  0  0  3  0  0  0  0  0  0
  181.0610  177.2530  138.1310 C   0  0  2  0  0  0  0  0  0  0  0  0
  183.0270  176.0590  138.3000 C   0  0  1  0  0  3  0  0  0  0  0  0
  183.3310  174.7180  137.6430 C   0  0  0  0  0  2  0  0  0  0  0  0
  182.1560  174.1290  137.1770 O   0  0  0  0  0  0  0  0  0  0  0  0
  182.4610  172.7720  137.0790 C   0  0  0  0  0  1  0  0  0  0  0  0
  1  2  1  6  0  0  0
  1  3  1  0  0  0  0
  3  4  1  1  0  0  0
  3  5  1  0  0  0  0
  5  7  1  1  0  0  0
  5  8  1  0  0  0  0
  6  7  1  0  0  0  0
  8  9  1  0  0  0  0
 10  9  1  1  0  0  0
 10 14  1  0  0  0  0
 11 10  1  0  0  0  0
 11 12  1  0  0  0  0
 13 11  2  0  0  0  0
 14 16  1  6  0  0  0
 14 17  1  0  0  0  0
 16 15  1  0  0  0  0
 18 19  1  0  0  0  0
 18 17  1  0  0  0  0
 20 21  1  0  0  0  0
 20 19  1  0  0  0  0
 23 22  1  1  0  0  0
 23 21  1  0  0  0  0
 24 26  1  0  0  0  0
 25 24  1  0  0  0  0
 25 26  1  0  0  0  0
 26 23  1  0  0  0  0
 27  1  1  0  0  0  0
 28 27  1  0  0  0  0
 29 28  2  0  0  0  0
 31 30  2  0  0  0  0
 31 28  1  0  0  0  0
 32 33  2  0  0  0  0
 33 31  1  0  0  0  0
 34 38  1  0  0  0  0
 34 33  1  0  0  0  0
 35 37  1  6  0  0  0
 35 39  1  0  0  0  0
 37 38  1  0  0  0  0
 38 36  1  6  0  0  0
 38 35  1  0  0  0  0
 39 42  1  0  0  0  0
 39 44  1  1  0  0  0
 40 46  1  0  0  0  0
 40 48  1  0  0  0  0
 41 48  1  0  0  0  0
 42 49  1  0  0  0  0
 42 47  1  0  0  0  0
 44 47  1  0  0  0  0
 45 41  1  0  0  0  0
 45 42  1  0  0  0  0
 45 48  1  0  0  0  0
 45 49  1  0  0  0  0
 46 48  1  0  0  0  0
 47 43  1  0  0  0  0
 50 49  1  0  0  0  0
 51 50  1  0  0  0  0
 52 51  1  0  0  0  0
M  END
>  <MODEL>
1

>  <REMARK>
 VINA RESULT:      -6.5      0.000      0.000
  Name = 
  25 active torsions:
  status: ('A' for Active; 'I' for Inactive)
    1  A    between atoms: C_2  and  C_6
    2  A    between atoms: C_7  and  O_42
    3  A    between atoms: C_7  and  C_50
    4  A    between atoms: C_11  and  C_18
    5  A    between atoms: C_11  and  C_22
    6  A    between atoms: C_11  and  O_35
    7  A    between atoms: C_12  and  C_43
    8  A    between atoms: C_12  and  C_47
    9  A    between atoms: C_13  and  C_25
   10  A    between atoms: C_13  and  C_30
   11  A    between atoms: C_14  and  C_26
   12  A    between atoms: C_14  and  O_35
   13  A    between atoms: C_19  and  C_22
   14  A    between atoms: O_20  and  C_38
   15  A    between atoms: O_20  and  C_47
   16  A    between atoms: C_21  and  C_26
   17  A    between atoms: C_21  and  C_37
   18  A    between atoms: C_22  and  C_38
   19  A    between atoms: C_25  and  C_40
   20  A    between atoms: C_26  and  C_31
   21  A    between atoms: C_30  and  C_44
   22  A    between atoms: C_37  and  C_44
   23  A    between atoms: C_40  and  C_51
   24  A    between atoms: C_41  and  C_43
   25  A    between atoms: C_41  and  C_48
                            x       y       z     vdW  Elec       q    Type
                         _______ _______ _______ _____ _____    ______ ____

>  <TORSDO>
F 25

$$$$
=
 OpenBabel11062413493D

 52 57  0  0  1  0  0  0  0  0999 V2000
  181.4010  176.9380  138.0710 C   0  0  1  0  0  3  0  0  0  0  0  0
  180.3830  176.5940  136.9860 C   0  0  0  0  0  1  0  0  0  0  0  0
  180.7580  177.6040  139.2870 C   0  0  2  0  0  3  0  0  0  0  0  0
  179.3680  177.6790  139.1390 O   0  0  0  0  0  1  0  0  0  0  0  0
  181.3620  178.9920  139.5420 C   0  0  2  0  0  3  0  0  0  0  0  0
  182.1770  181.0910  138.4530 C   0  0  0  0  0  1  0  0  0  0  0  0
  181.4730  179.7700  138.2360 C   0  0  0  0  0  2  0  0  0  0  0  0
  182.7270  178.9120  140.2290 C   0  0  0  0  0  2  0  0  0  0  0  0
  182.6760  178.1240  141.3900 O   0  0  0  0  0  0  0  0  0  0  0  0
  182.7570  179.0150  142.4720 C   0  0  1  0  0  3  0  0  0  0  0  0
  181.4180  179.1930  143.1250 C   0  0  0  0  0  0  0  0  0  0  0  0
  180.8090  180.2900  143.0180 O   0  0  0  0  0  0  0  0  0  0  0  0
  180.8480  178.1610  143.8620 O   0  0  0  0  0  1  0  0  0  0  0  0
  183.7840  178.5310  143.5030 C   0  0  2  0  0  3  0  0  0  0  0  0
  184.6240  178.7620  145.8910 C   0  0  0  0  0  1  0  0  0  0  0  0
  183.5280  179.1130  144.8940 C   0  0  0  0  0  2  0  0  0  0  0  0
  185.2240  178.7340  143.0330 C   0  0  0  0  0  2  0  0  0  0  0  0
  185.7670  177.5290  142.5780 O   0  0  0  0  0  0  0  0  0  0  0  0
  187.1500  177.7360  142.5650 C   0  0  0  0  0  2  0  0  0  0  0  0
  187.6130  178.2890  143.9070 C   0  0  0  0  0  2  0  0  0  0  0  0
  188.1050  177.1550  144.7860 C   0  0  0  0  0  2  0  0  0  0  0  0
  190.2010  177.2730  145.9180 O   0  0  0  0  0  1  0  0  0  0  0  0
  188.8700  177.7050  145.9800 C   0  0  2  0  0  3  0  0  0  0  0  0
  188.8800  177.8360  148.4780 C   0  0  0  0  0  2  0  0  0  0  0  0
  187.5670  178.3830  147.9650 C   0  0  0  0  0  2  0  0  0  0  0  0
  188.2170  177.2080  147.2640 C   0  0  0  0  0  3  0  0  0  0  0  0
  182.2070  175.7150  138.5020 C   0  0  0  0  0  2  0  0  0  0  0  0
  182.8410  175.0370  137.3280 C   0  0  0  0  0  0  0  0  0  0  0  0
  182.3480  173.9470  136.9370 O   0  0  0  0  0  0  0  0  0  0  0  0
  183.8040  176.3790  135.5970 N   0  0  0  0  0  2  0  0  0  0  0  0
  184.0070  175.6090  136.6170 C   0  0  0  0  0  0  0  0  0  0  0  0
  185.7290  174.1810  137.4180 O   0  0  0  0  0  0  0  0  0  0  0  0
  185.3900  175.3410  137.0530 C   0  0  0  0  0  0  0  0  0  0  0  0
  186.4230  176.4290  137.0540 C   0  0  0  0  0  2  0  0  0  0  0  0
  188.9900  175.8220  136.8540 C   0  0  1  0  0  3  0  0  0  0  0  0
  187.4800  175.7690  134.8900 O   0  0  0  0  0  1  0  0  0  0  0  0
  188.6710  177.1040  136.3490 O   0  0  0  0  0  0  0  0  0  0  0  0
  187.6750  176.1190  136.2270 C   0  0  1  0  0  0  0  0  0  0  0  0
  189.9460  175.1200  135.8980 C   0  0  1  0  0  3  0  0  0  0  0  0
  194.4780  177.0390  136.4180 O   0  0  0  0  0  0  0  0  0  0  0  0
  193.2960  175.2980  135.0470 C   0  0  0  0  0  2  0  0  0  0  0  0
  191.3870  174.9290  136.3620 C   0  0  2  0  0  0  0  0  0  0  0  0
  192.2000  172.6680  135.4520 C   0  0  0  0  0  1  0  0  0  0  0  0
  189.6140  173.3160  135.9820 S   0  0  0  0  0  0  0  0  0  0  0  0
  192.4840  175.9970  136.0850 C   0  0  1  0  0  0  0  0  0  0  0  0
  195.2070  176.2370  135.5710 C   0  0  0  0  0  2  0  0  0  0  0  0
  191.3750  173.4100  136.4910 C   0  0  2  0  0  3  0  0  0  0  0  0
  194.0050  175.7010  136.2950 C   0  0  2  0  0  0  0  0  0  0  0  0
  192.0530  175.5920  137.5190 C   0  0  1  0  0  3  0  0  0  0  0  0
  191.3240  176.7630  138.1650 C   0  0  0  0  0  2  0  0  0  0  0  0
  191.5590  176.7840  139.5390 O   0  0  0  0  0  0  0  0  0  0  0  0
  192.8960  177.1630  139.6580 C   0  0  0  0  0  1  0  0  0  0  0  0
  1  2  1  6  0  0  0
  1 27  1  0  0  0  0
  1  3  1  0  0  0  0
  3  4  1  6  0  0  0
  3  5  1  0  0  0  0
  5  7  1  6  0  0  0
  5  8  1  0  0  0  0
  7  6  1  0  0  0  0
  8  9  1  0  0  0  0
 10  9  1  6  0  0  0
 10 11  1  0  0  0  0
 10 14  1  0  0  0  0
 11 13  1  0  0  0  0
 12 11  2  0  0  0  0
 14 17  1  6  0  0  0
 14 16  1  0  0  0  0
 16 15  1  0  0  0  0
 18 17  1  0  0  0  0
 19 18  1  0  0  0  0
 19 20  1  0  0  0  0
 20 21  1  0  0  0  0
 21 23  1  0  0  0  0
 23 22  1  6  0  0  0
 23 26  1  0  0  0  0
 25 24  1  0  0  0  0
 26 25  1  0  0  0  0
 26 24  1  0  0  0  0
 28 27  1  0  0  0  0
 29 28  2  0  0  0  0
 30 31  2  0  0  0  0
 31 33  1  0  0  0  0
 31 28  1  0  0  0  0
 33 34  1  0  0  0  0
 33 32  2  0  0  0  0
 35 37  1  6  0  0  0
 38 36  1  6  0  0  0
 38 37  1  0  0  0  0
 38 35  1  0  0  0  0
 38 34  1  0  0  0  0
 39 44  1  1  0  0  0
 39 42  1  0  0  0  0
 39 35  1  0  0  0  0
 41 45  1  0  0  0  0
 41 48  1  0  0  0  0
 42 47  1  0  0  0  0
 42 49  1  0  0  0  0
 43 47  1  0  0  0  0
 44 47  1  0  0  0  0
 45 48  1  0  0  0  0
 45 42  1  0  0  0  0
 45 49  1  0  0  0  0
 46 48  1  0  0  0  0
 46 40  1  0  0  0  0
 48 40  1  0  0  0  0
 49 50  1  0  0  0  0
 50 51  1  0  0  0  0
 51 52  1  0  0  0  0
M  END
>  <MODEL>
2

>  <REMARK>
 VINA RESULT:      -6.1      2.454      8.452
  Name = 
  25 active torsions:
  status: ('A' for Active; 'I' for Inactive)
    1  A    between atoms: C_2  and  C_6
    2  A    between atoms: C_7  and  O_42
    3  A    between atoms: C_7  and  C_50
    4  A    between atoms: C_11  and  C_18
    5  A    between atoms: C_11  and  C_22
    6  A    between atoms: C_11  and  O_35
    7  A    between atoms: C_12  and  C_43
    8  A    between atoms: C_12  and  C_47
    9  A    between atoms: C_13  and  C_25
   10  A    between atoms: C_13  and  C_30
   11  A    between atoms: C_14  and  C_26
   12  A    between atoms: C_14  and  O_35
   13  A    between atoms: C_19  and  C_22
   14  A    between atoms: O_20  and  C_38
   15  A    between atoms: O_20  and  C_47
   16  A    between atoms: C_21  and  C_26
   17  A    between atoms: C_21  and  C_37
   18  A    between atoms: C_22  and  C_38
   19  A    between atoms: C_25  and  C_40
   20  A    between atoms: C_26  and  C_31
   21  A    between atoms: C_30  and  C_44
   22  A    between atoms: C_37  and  C_44
   23  A    between atoms: C_40  and  C_51
   24  A    between atoms: C_41  and  C_43
   25  A    between atoms: C_41  and  C_48
                            x       y       z     vdW  Elec       q    Type
                         _______ _______ _______ _____ _____    ______ ____

>  <TORSDO>
F 25

$$$$
=
 OpenBabel11062413493D

 52 57  0  0  1  0  0  0  0  0999 V2000
  181.3510  176.8720  138.3940 C   0  0  1  0  0  3  0  0  0  0  0  0
  180.1440  177.0710  137.4800 C   0  0  0  0  0  1  0  0  0  0  0  0
  181.2440  177.6780  139.6880 C   0  0  2  0  0  3  0  0  0  0  0  0
  180.0300  178.3720  139.7460 O   0  0  0  0  0  1  0  0  0  0  0  0
  182.4350  178.6330  139.8450 C   0  0  2  0  0  3  0  0  0  0  0  0
  182.1990  180.7320  138.5060 C   0  0  0  0  0  1  0  0  0  0  0  0
  182.7420  179.3200  138.5200 C   0  0  0  0  0  2  0  0  0  0  0  0
  183.6830  177.9220  140.3730 C   0  0  0  0  0  2  0  0  0  0  0  0
  183.5770  177.6440  141.7460 O   0  0  0  0  0  0  0  0  0  0  0  0
  183.6470  178.8840  142.4010 C   0  0  1  0  0  3  0  0  0  0  0  0
  182.5470  179.0230  143.4100 C   0  0  0  0  0  0  0  0  0  0  0  0
  182.8120  179.4130  144.5790 O   0  0  0  0  0  1  0  0  0  0  0  0
  181.2350  178.7090  143.0750 O   0  0  0  0  0  0  0  0  0  0  0  0
  185.0100  179.0670  143.0820 C   0  0  2  0  0  3  0  0  0  0  0  0
  186.9540  178.6290  141.5050 C   0  0  0  0  0  1  0  0  0  0  0  0
  186.0510  179.6760  142.1410 C   0  0  0  0  0  2  0  0  0  0  0  0
  185.5010  177.7890  143.7590 C   0  0  0  0  0  2  0  0  0  0  0  0
  185.3800  177.8910  145.1490 O   0  0  0  0  0  0  0  0  0  0  0  0
  186.6180  178.3700  145.5880 C   0  0  0  0  0  2  0  0  0  0  0  0
  187.6130  177.2230  145.7130 C   0  0  0  0  0  2  0  0  0  0  0  0
  189.0000  177.7050  145.3340 C   0  0  0  0  0  2  0  0  0  0  0  0
  188.6030  176.1420  143.5770 O   0  0  0  0  0  1  0  0  0  0  0  0
  189.3320  177.2910  143.9080 C   0  0  2  0  0  3  0  0  0  0  0  0
  191.6120  178.3100  143.7770 C   0  0  0  0  0  2  0  0  0  0  0  0
  191.5040  177.5180  145.0610 C   0  0  0  0  0  2  0  0  0  0  0  0
  190.8260  177.0110  143.8040 C   0  0  0  0  0  3  0  0  0  0  0  0
  181.5890  175.3960  138.7060 C   0  0  0  0  0  2  0  0  0  0  0  0
  181.8850  174.6150  137.4650 C   0  0  0  0  0  0  0  0  0  0  0  0
  181.0720  173.7190  137.1210 O   0  0  0  0  0  0  0  0  0  0  0  0
  182.9330  175.1330  135.3770 N   0  0  0  0  0  2  0  0  0  0  0  0
  183.0850  174.8720  136.6350 C   0  0  0  0  0  0  0  0  0  0  0  0
  184.9180  173.7900  137.6920 O   0  0  0  0  0  0  0  0  0  0  0  0
  184.4440  174.8560  137.2090 C   0  0  0  0  0  0  0  0  0  0  0  0
  185.2930  176.0920  137.2150 C   0  0  0  0  0  2  0  0  0  0  0  0
  187.8810  175.5730  137.0340 C   0  0  1  0  0  3  0  0  0  0  0  0
  186.4730  175.9030  135.0220 O   0  0  0  0  0  1  0  0  0  0  0  0
  187.5560  176.9280  136.7850 O   0  0  0  0  0  0  0  0  0  0  0  0
  186.5920  175.9750  136.4100 C   0  0  1  0  0  0  0  0  0  0  0  0
  188.9000  175.0950  136.0090 C   0  0  1  0  0  3  0  0  0  0  0  0
  193.3720  176.8400  137.2150 O   0  0  0  0  0  0  0  0  0  0  0  0
  192.2940  175.4450  135.4260 C   0  0  0  0  0  2  0  0  0  0  0  0
  190.3120  174.8030  136.5080 C   0  0  2  0  0  0  0  0  0  0  0  0
  191.2030  172.7940  135.1770 C   0  0  0  0  0  1  0  0  0  0  0  0
  188.5830  173.3180  135.6750 S   0  0  0  0  0  0  0  0  0  0  0  0
  191.4130  175.9030  136.5390 C   0  0  1  0  0  0  0  0  0  0  0  0
  194.1590  176.2410  136.2600 C   0  0  0  0  0  2  0  0  0  0  0  0
  190.3090  173.2920  136.3000 C   0  0  2  0  0  3  0  0  0  0  0  0
  192.9210  175.5630  136.7730 C   0  0  2  0  0  0  0  0  0  0  0  0
  190.9000  175.1940  137.8210 C   0  0  1  0  0  3  0  0  0  0  0  0
  190.1200  176.1980  138.6610 C   0  0  0  0  0  2  0  0  0  0  0  0
  190.4460  177.5010  138.2870 O   0  0  0  0  0  0  0  0  0  0  0  0
  189.5700  178.3030  139.0170 C   0  0  0  0  0  1  0  0  0  0  0  0
  1  2  1  1  0  0  0
  1 27  1  0  0  0  0
  1  3  1  0  0  0  0
  3  4  1  6  0  0  0
  3  5  1  0  0  0  0
  5  7  1  6  0  0  0
  5  8  1  0  0  0  0
  6  7  1  0  0  0  0
  8  9  1  0  0  0  0
 10  9  1  1  0  0  0
 10 14  1  0  0  0  0
 10 11  1  0  0  0  0
 11 12  1  0  0  0  0
 13 11  2  0  0  0  0
 14 16  1  6  0  0  0
 14 17  1  0  0  0  0
 15 16  1  0  0  0  0
 17 18  1  0  0  0  0
 18 19  1  0  0  0  0
 19 20  1  0  0  0  0
 21 20  1  0  0  0  0
 23 22  1  1  0  0  0
 23 21  1  0  0  0  0
 24 26  1  0  0  0  0
 24 25  1  0  0  0  0
 26 23  1  0  0  0  0
 26 25  1  0  0  0  0
 28 27  1  0  0  0  0
 29 28  2  0  0  0  0
 30 31  2  0  0  0  0
 31 33  1  0  0  0  0
 31 28  1  0  0  0  0
 33 34  1  0  0  0  0
 33 32  2  0  0  0  0
 35 37  1  6  0  0  0
 38 36  1  6  0  0  0
 38 37  1  0  0  0  0
 38 35  1  0  0  0  0
 38 34  1  0  0  0  0
 39 44  1  1  0  0  0
 39 42  1  0  0  0  0
 39 35  1  0  0  0  0
 41 45  1  0  0  0  0
 41 48  1  0  0  0  0
 42 45  1  0  0  0  0
 42 49  1  0  0  0  0
 43 47  1  0  0  0  0
 44 47  1  0  0  0  0
 45 48  1  0  0  0  0
 45 49  1  0  0  0  0
 46 48  1  0  0  0  0
 46 40  1  0  0  0  0
 47 42  1  0  0  0  0
 48 40  1  0  0  0  0
 49 50  1  0  0  0  0
 51 50  1  0  0  0  0
 51 52  1  0  0  0  0
M  END
>  <MODEL>
3

>  <REMARK>
 VINA RESULT:      -6.1      2.203      7.930
  Name = 
  25 active torsions:
  status: ('A' for Active; 'I' for Inactive)
    1  A    between atoms: C_2  and  C_6
    2  A    between atoms: C_7  and  O_42
    3  A    between atoms: C_7  and  C_50
    4  A    between atoms: C_11  and  C_18
    5  A    between atoms: C_11  and  C_22
    6  A    between atoms: C_11  and  O_35
    7  A    between atoms: C_12  and  C_43
    8  A    between atoms: C_12  and  C_47
    9  A    between atoms: C_13  and  C_25
   10  A    between atoms: C_13  and  C_30
   11  A    between atoms: C_14  and  C_26
   12  A    between atoms: C_14  and  O_35
   13  A    between atoms: C_19  and  C_22
   14  A    between atoms: O_20  and  C_38
   15  A    between atoms: O_20  and  C_47
   16  A    between atoms: C_21  and  C_26
   17  A    between atoms: C_21  and  C_37
   18  A    between atoms: C_22  and  C_38
   19  A    between atoms: C_25  and  C_40
   20  A    between atoms: C_26  and  C_31
   21  A    between atoms: C_30  and  C_44
   22  A    between atoms: C_37  and  C_44
   23  A    between atoms: C_40  and  C_51
   24  A    between atoms: C_41  and  C_43
   25  A    between atoms: C_41  and  C_48
                            x       y       z     vdW  Elec       q    Type
                         _______ _______ _______ _____ _____    ______ ____

>  <TORSDO>
F 25

$$$$
=
 OpenBabel11062413493D

 52 57  0  0  1  0  0  0  0  0999 V2000
  190.9660  177.5880  142.9000 C   0  0  1  0  0  3  0  0  0  0  0  0
  190.9050  176.0780  143.1190 C   0  0  0  0  0  1  0  0  0  0  0  0
  190.5010  177.9950  141.5010 C   0  0  2  0  0  3  0  0  0  0  0  0
  189.3230  178.7480  141.5660 O   0  0  0  0  0  1  0  0  0  0  0  0
  190.3240  176.7670  140.5980 C   0  0  2  0  0  3  0  0  0  0  0  0
  192.6430  177.5240  140.0430 C   0  0  0  0  0  1  0  0  0  0  0  0
  191.4740  176.6710  139.6020 C   0  0  0  0  0  2  0  0  0  0  0  0
  188.9840  176.7790  139.8600 C   0  0  0  0  0  2  0  0  0  0  0  0
  189.0780  177.4500  138.6300 O   0  0  0  0  0  0  0  0  0  0  0  0
  187.9000  177.1450  137.9280 C   0  0  1  0  0  3  0  0  0  0  0  0
  187.0480  178.3660  137.7500 C   0  0  0  0  0  0  0  0  0  0  0  0
  187.3210  179.1960  136.8410 O   0  0  0  0  0  0  0  0  0  0  0  0
  185.9650  178.6010  138.5890 O   0  0  0  0  0  1  0  0  0  0  0  0
  188.2230  176.5260  136.5610 C   0  0  2  0  0  3  0  0  0  0  0  0
  186.3340  174.9410  137.1770 C   0  0  0  0  0  1  0  0  0  0  0  0
  187.6340  175.1230  136.4070 C   0  0  0  0  0  2  0  0  0  0  0  0
  189.7130  176.5820  136.2310 C   0  0  0  0  0  2  0  0  0  0  0  0
  190.1580  175.3450  135.7540 O   0  0  0  0  0  0  0  0  0  0  0  0
  191.5530  175.4360  135.7530 C   0  0  0  0  0  2  0  0  0  0  0  0
  192.1510  174.3890  136.6840 C   0  0  0  0  0  2  0  0  0  0  0  0
  193.6250  174.2090  136.3730 C   0  0  0  0  0  2  0  0  0  0  0  0
  194.8560  176.2470  136.5130 O   0  0  0  0  0  1  0  0  0  0  0  0
  194.4660  175.1230  137.2520 C   0  0  2  0  0  3  0  0  0  0  0  0
  195.7740  174.3840  139.2510 C   0  0  0  0  0  2  0  0  0  0  0  0
  195.2360  173.1620  138.5400 C   0  0  0  0  0  2  0  0  0  0  0  0
  195.6940  174.3610  137.7340 C   0  0  0  0  0  3  0  0  0  0  0  0
  190.1780  178.3490  143.9630 C   0  0  0  0  0  2  0  0  0  0  0  0
  189.2420  177.4440  144.7010 C   0  0  0  0  0  0  0  0  0  0  0  0
  189.6650  176.8760  145.7410 O   0  0  0  0  0  0  0  0  0  0  0  0
  187.6310  176.3820  143.2870 N   0  0  0  0  0  2  0  0  0  0  0  0
  187.8490  177.2110  144.2550 C   0  0  0  0  0  0  0  0  0  0  0  0
  186.8990  178.7990  145.7470 O   0  0  0  0  0  0  0  0  0  0  0  0
  186.7050  177.8850  144.8990 C   0  0  0  0  0  0  0  0  0  0  0  0
  185.2950  177.5140  144.5460 C   0  0  0  0  0  2  0  0  0  0  0  0
  183.6600  178.0950  142.5490 C   0  0  1  0  0  3  0  0  0  0  0  0
  184.5330  179.8440  144.0700 O   0  0  0  0  0  1  0  0  0  0  0  0
  185.0080  178.4440  142.2970 O   0  0  0  0  0  0  0  0  0  0  0  0
  184.5820  178.5200  143.6350 C   0  0  1  0  0  0  0  0  0  0  0  0
  182.7450  179.2220  142.0870 C   0  0  1  0  0  3  0  0  0  0  0  0
  182.0540  178.8660  137.1990 O   0  0  0  0  0  0  0  0  0  0  0  0
  181.3780  180.3460  139.1130 C   0  0  0  0  0  2  0  0  0  0  0  0
  181.7930  178.9230  140.9330 C   0  0  2  0  0  0  0  0  0  0  0  0
  179.6100  180.2040  141.3780 C   0  0  0  0  0  1  0  0  0  0  0  0
  181.3570  179.3540  143.2800 S   0  0  0  0  0  0  0  0  0  0  0  0
  182.2070  179.1520  139.4500 C   0  0  1  0  0  0  0  0  0  0  0  0
  181.1480  179.8780  136.9830 C   0  0  0  0  0  2  0  0  0  0  0  0
  180.4810  179.0020  141.7060 C   0  0  2  0  0  3  0  0  0  0  0  0
  181.1670  179.1250  138.2830 C   0  0  2  0  0  0  0  0  0  0  0  0
  181.8380  177.7530  140.0100 C   0  0  1  0  0  3  0  0  0  0  0  0
  183.0930  176.8890  140.0440 C   0  0  0  0  0  2  0  0  0  0  0  0
  183.0340  175.9090  139.0530 O   0  0  0  0  0  0  0  0  0  0  0  0
  181.7030  175.4920  139.0530 C   0  0  0  0  0  1  0  0  0  0  0  0
  1  2  1  1  0  0  0
  1 27  1  0  0  0  0
  3  4  1  1  0  0  0
  3  1  1  0  0  0  0
  5  7  1  6  0  0  0
  5  3  1  0  0  0  0
  7  6  1  0  0  0  0
  8  5  1  0  0  0  0
  9  8  1  0  0  0  0
 10 11  1  6  0  0  0
 10  9  1  0  0  0  0
 11 13  1  0  0  0  0
 12 11  2  0  0  0  0
 14 17  1  1  0  0  0
 14 10  1  0  0  0  0
 16 14  1  0  0  0  0
 16 15  1  0  0  0  0
 18 17  1  0  0  0  0
 19 18  1  0  0  0  0
 19 20  1  0  0  0  0
 21 20  1  0  0  0  0
 21 23  1  0  0  0  0
 23 22  1  6  0  0  0
 23 26  1  0  0  0  0
 25 24  1  0  0  0  0
 26 25  1  0  0  0  0
 26 24  1  0  0  0  0
 27 28  1  0  0  0  0
 28 29  2  0  0  0  0
 30 31  2  0  0  0  0
 31 28  1  0  0  0  0
 31 33  1  0  0  0  0
 33 32  2  0  0  0  0
 34 33  1  0  0  0  0
 35 37  1  6  0  0  0
 35 38  1  0  0  0  0
 37 38  1  0  0  0  0
 38 36  1  1  0  0  0
 38 34  1  0  0  0  0
 39 35  1  0  0  0  0
 39 44  1  1  0  0  0
 40 48  1  0  0  0  0
 41 45  1  0  0  0  0
 42 47  1  0  0  0  0
 42 39  1  0  0  0  0
 43 47  1  0  0  0  0
 45 49  1  0  0  0  0
 45 42  1  0  0  0  0
 46 40  1  0  0  0  0
 46 48  1  0  0  0  0
 47 44  1  0  0  0  0
 48 41  1  0  0  0  0
 48 45  1  0  0  0  0
 49 50  1  0  0  0  0
 49 42  1  0  0  0  0
 51 50  1  0  0  0  0
 52 51  1  0  0  0  0
M  END
>  <MODEL>
4

>  <REMARK>
 VINA RESULT:      -6.0      2.815      8.047
  Name = 
  25 active torsions:
  status: ('A' for Active; 'I' for Inactive)
    1  A    between atoms: C_2  and  C_6
    2  A    between atoms: C_7  and  O_42
    3  A    between atoms: C_7  and  C_50
    4  A    between atoms: C_11  and  C_18
    5  A    between atoms: C_11  and  C_22
    6  A    between atoms: C_11  and  O_35
    7  A    between atoms: C_12  and  C_43
    8  A    between atoms: C_12  and  C_47
    9  A    between atoms: C_13  and  C_25
   10  A    between atoms: C_13  and  C_30
   11  A    between atoms: C_14  and  C_26
   12  A    between atoms: C_14  and  O_35
   13  A    between atoms: C_19  and  C_22
   14  A    between atoms: O_20  and  C_38
   15  A    between atoms: O_20  and  C_47
   16  A    between atoms: C_21  and  C_26
   17  A    between atoms: C_21  and  C_37
   18  A    between atoms: C_22  and  C_38
   19  A    between atoms: C_25  and  C_40
   20  A    between atoms: C_26  and  C_31
   21  A    between atoms: C_30  and  C_44
   22  A    between atoms: C_37  and  C_44
   23  A    between atoms: C_40  and  C_51
   24  A    between atoms: C_41  and  C_43
   25  A    between atoms: C_41  and  C_48
                            x       y       z     vdW  Elec       q    Type
                         _______ _______ _______ _____ _____    ______ ____

>  <TORSDO>
F 25

$$$$
=
 OpenBabel11062413493D

 52 57  0  0  1  0  0  0  0  0999 V2000
  187.7640  177.5940  136.6050 C   0  0  1  0  0  3  0  0  0  0  0  0
  186.6650  177.5780  135.5450 C   0  0  0  0  0  1  0  0  0  0  0  0
  187.5210  178.6490  137.6840 C   0  0  2  0  0  3  0  0  0  0  0  0
  188.7180  179.2760  138.0490 O   0  0  0  0  0  1  0  0  0  0  0  0
  186.8210  178.0390  138.9060 C   0  0  2  0  0  3  0  0  0  0  0  0
  185.0320  178.9530  140.3960 C   0  0  0  0  0  1  0  0  0  0  0  0
  185.3790  178.5230  138.9880 C   0  0  0  0  0  2  0  0  0  0  0  0
  187.5590  178.3490  140.2110 C   0  0  0  0  0  2  0  0  0  0  0  0
  188.6140  177.4510  140.4340 O   0  0  0  0  0  0  0  0  0  0  0  0
  189.0540  177.6830  141.7470 C   0  0  1  0  0  3  0  0  0  0  0  0
  188.1670  176.9960  142.7420 C   0  0  0  0  0  0  0  0  0  0  0  0
  188.3210  175.7670  142.9760 O   0  0  0  0  0  0  0  0  0  0  0  0
  187.1640  177.6980  143.3990 O   0  0  0  0  0  1  0  0  0  0  0  0
  190.5050  177.2190  141.9280 C   0  0  2  0  0  3  0  0  0  0  0  0
  191.5380  176.8900  144.2270 C   0  0  0  0  0  1  0  0  0  0  0  0
  191.1810  177.8820  143.1290 C   0  0  0  0  0  2  0  0  0  0  0  0
  191.3240  177.3460  140.6440 C   0  0  0  0  0  2  0  0  0  0  0  0
  191.2280  176.1770  139.8820 O   0  0  0  0  0  0  0  0  0  0  0  0
  191.4420  176.5850  138.5620 C   0  0  0  0  0  2  0  0  0  0  0  0
  192.1500  175.4870  137.7790 C   0  0  0  0  0  2  0  0  0  0  0  0
  193.6520  175.6260  137.9460 C   0  0  0  0  0  2  0  0  0  0  0  0
  193.4270  173.5460  136.8000 O   0  0  0  0  0  1  0  0  0  0  0  0
  194.3590  174.3830  137.4270 C   0  0  2  0  0  3  0  0  0  0  0  0
  196.2790  172.9490  138.1430 C   0  0  0  0  0  2  0  0  0  0  0  0
  196.3680  174.2790  138.8580 C   0  0  0  0  0  2  0  0  0  0  0  0
  195.0130  173.6550  138.5960 C   0  0  0  0  0  3  0  0  0  0  0  0
  187.9590  176.2190  137.2410 C   0  0  0  0  0  2  0  0  0  0  0  0
  188.7080  175.2970  136.3310 C   0  0  0  0  0  0  0  0  0  0  0  0
  189.3920  175.8060  135.4060 O   0  0  0  0  0  0  0  0  0  0  0  0
  189.5780  173.2560  137.2270 N   0  0  0  0  0  2  0  0  0  0  0  0
  188.6760  173.8260  136.4940 C   0  0  0  0  0  0  0  0  0  0  0  0
  187.8340  171.7660  135.6600 O   0  0  0  0  0  0  0  0  0  0  0  0
  187.6340  172.9960  135.8600 C   0  0  0  0  0  0  0  0  0  0  0  0
  186.3150  173.5890  135.4600 C   0  0  0  0  0  2  0  0  0  0  0  0
  183.9580  174.3140  136.4180 C   0  0  1  0  0  3  0  0  0  0  0  0
  185.4430  172.7580  137.6480 O   0  0  0  0  0  1  0  0  0  0  0  0
  185.0480  174.9540  137.0530 O   0  0  0  0  0  0  0  0  0  0  0  0
  185.2770  173.6470  136.5860 C   0  0  1  0  0  0  0  0  0  0  0  0
  182.9440  173.8710  137.4650 C   0  0  1  0  0  3  0  0  0  0  0  0
  180.9680  177.8670  139.6150 O   0  0  0  0  0  0  0  0  0  0  0  0
  180.8210  175.3630  139.7550 C   0  0  0  0  0  2  0  0  0  0  0  0
  181.7200  174.7570  137.6730 C   0  0  2  0  0  0  0  0  0  0  0  0
  179.7280  173.2150  138.1830 C   0  0  0  0  0  1  0  0  0  0  0  0
  181.9270  172.5260  136.7420 S   0  0  0  0  0  0  0  0  0  0  0  0
  181.7180  175.9230  138.7020 C   0  0  1  0  0  0  0  0  0  0  0  0
  180.0300  177.2910  140.4400 C   0  0  0  0  0  2  0  0  0  0  0  0
  180.6630  173.7970  137.1350 C   0  0  2  0  0  3  0  0  0  0  0  0
  180.4030  176.6520  139.1320 C   0  0  2  0  0  0  0  0  0  0  0  0
  181.5240  176.1500  137.1800 C   0  0  1  0  0  3  0  0  0  0  0  0
  182.7470  176.8710  136.6280 C   0  0  0  0  0  2  0  0  0  0  0  0
  182.5610  177.1830  135.2820 O   0  0  0  0  0  0  0  0  0  0  0  0
  181.8110  178.3590  135.2970 C   0  0  0  0  0  1  0  0  0  0  0  0
  1  2  1  6  0  0  0
  1 27  1  0  0  0  0
  1  3  1  0  0  0  0
  3  4  1  1  0  0  0
  3  5  1  0  0  0  0
  5  7  1  1  0  0  0
  5  8  1  0  0  0  0
  7  6  1  0  0  0  0
  8  9  1  0  0  0  0
 10  9  1  6  0  0  0
 10 14  1  0  0  0  0
 10 11  1  0  0  0  0
 11 12  2  0  0  0  0
 11 13  1  0  0  0  0
 14 17  1  6  0  0  0
 14 16  1  0  0  0  0
 16 15  1  0  0  0  0
 18 17  1  0  0  0  0
 19 18  1  0  0  0  0
 20 21  1  0  0  0  0
 20 19  1  0  0  0  0
 23 22  1  1  0  0  0
 23 21  1  0  0  0  0
 23 26  1  0  0  0  0
 24 26  1  0  0  0  0
 24 25  1  0  0  0  0
 26 25  1  0  0  0  0
 28 31  1  0  0  0  0
 28 27  1  0  0  0  0
 29 28  2  0  0  0  0
 31 30  2  0  0  0  0
 32 33  2  0  0  0  0
 33 31  1  0  0  0  0
 34 33  1  0  0  0  0
 34 38  1  0  0  0  0
 35 38  1  0  0  0  0
 35 37  1  1  0  0  0
 35 39  1  0  0  0  0
 38 37  1  0  0  0  0
 38 36  1  1  0  0  0
 39 44  1  6  0  0  0
 39 42  1  0  0  0  0
 40 46  1  0  0  0  0
 42 45  1  0  0  0  0
 44 47  1  0  0  0  0
 45 48  1  0  0  0  0
 45 41  1  0  0  0  0
 47 42  1  0  0  0  0
 47 43  1  0  0  0  0
 48 40  1  0  0  0  0
 48 41  1  0  0  0  0
 48 46  1  0  0  0  0
 49 42  1  0  0  0  0
 49 45  1  0  0  0  0
 50 49  1  0  0  0  0
 51 52  1  0  0  0  0
 51 50  1  0  0  0  0
M  END
>  <MODEL>
5

>  <REMARK>
 VINA RESULT:      -6.0      2.644      6.123
  Name = 
  25 active torsions:
  status: ('A' for Active; 'I' for Inactive)
    1  A    between atoms: C_2  and  C_6
    2  A    between atoms: C_7  and  O_42
    3  A    between atoms: C_7  and  C_50
    4  A    between atoms: C_11  and  C_18
    5  A    between atoms: C_11  and  C_22
    6  A    between atoms: C_11  and  O_35
    7  A    between atoms: C_12  and  C_43
    8  A    between atoms: C_12  and  C_47
    9  A    between atoms: C_13  and  C_25
   10  A    between atoms: C_13  and  C_30
   11  A    between atoms: C_14  and  C_26
   12  A    between atoms: C_14  and  O_35
   13  A    between atoms: C_19  and  C_22
   14  A    between atoms: O_20  and  C_38
   15  A    between atoms: O_20  and  C_47
   16  A    between atoms: C_21  and  C_26
   17  A    between atoms: C_21  and  C_37
   18  A    between atoms: C_22  and  C_38
   19  A    between atoms: C_25  and  C_40
   20  A    between atoms: C_26  and  C_31
   21  A    between atoms: C_30  and  C_44
   22  A    between atoms: C_37  and  C_44
   23  A    between atoms: C_40  and  C_51
   24  A    between atoms: C_41  and  C_43
   25  A    between atoms: C_41  and  C_48
                            x       y       z     vdW  Elec       q    Type
                         _______ _______ _______ _____ _____    ______ ____

>  <TORSDO>
F 25

$$$$
=
 OpenBabel11062413493D

 52 57  0  0  1  0  0  0  0  0999 V2000
  189.3990  177.7250  143.1120 C   0  0  1  0  0  3  0  0  0  0  0  0
  190.2510  178.6310  143.9980 C   0  0  0  0  0  1  0  0  0  0  0  0
  190.2410  176.9080  142.1310 C   0  0  2  0  0  3  0  0  0  0  0  0
  191.5830  176.8810  142.5270 O   0  0  0  0  0  1  0  0  0  0  0  0
  190.0960  177.4430  140.7000 C   0  0  2  0  0  3  0  0  0  0  0  0
  187.8780  178.5760  140.4690 C   0  0  0  0  0  1  0  0  0  0  0  0
  188.6550  177.3010  140.2240 C   0  0  0  0  0  2  0  0  0  0  0  0
  191.0470  176.7480  139.7230 C   0  0  0  0  0  2  0  0  0  0  0  0
  190.3550  175.9020  138.8420 O   0  0  0  0  0  0  0  0  0  0  0  0
  190.8370  176.1970  137.5570 C   0  0  1  0  0  3  0  0  0  0  0  0
  191.7770  175.1320  137.0760 C   0  0  0  0  0  0  0  0  0  0  0  0
  191.7210  173.9750  137.5710 O   0  0  0  0  0  1  0  0  0  0  0  0
  192.7240  175.4130  136.0970 O   0  0  0  0  0  0  0  0  0  0  0  0
  189.6800  176.3640  136.5630 C   0  0  2  0  0  3  0  0  0  0  0  0
  188.1920  178.4090  136.8060 C   0  0  0  0  0  1  0  0  0  0  0  0
  189.4510  177.8270  136.1800 C   0  0  0  0  0  2  0  0  0  0  0  0
  188.4030  175.6680  137.0310 C   0  0  0  0  0  2  0  0  0  0  0  0
  188.1120  174.5720  136.2120 O   0  0  0  0  0  0  0  0  0  0  0  0
  187.9710  173.4910  137.0880 C   0  0  0  0  0  2  0  0  0  0  0  0
  186.5670  172.9090  136.9860 C   0  0  0  0  0  2  0  0  0  0  0  0
  185.8880  173.4280  135.7320 C   0  0  0  0  0  2  0  0  0  0  0  0
  183.6180  174.1480  135.8640 O   0  0  0  0  0  1  0  0  0  0  0  0
  184.4240  173.0130  135.7140 C   0  0  2  0  0  3  0  0  0  0  0  0
  182.7250  171.5580  136.8310 C   0  0  0  0  0  2  0  0  0  0  0  0
  183.8180  170.6830  136.2600 C   0  0  0  0  0  2  0  0  0  0  0  0
  184.1670  172.0330  136.8520 C   0  0  0  0  0  3  0  0  0  0  0  0
  188.5040  176.8040  143.9370 C   0  0  0  0  0  2  0  0  0  0  0  0
  188.5930  177.1190  145.3970 C   0  0  0  0  0  0  0  0  0  0  0  0
  189.6720  176.8660  145.9920 O   0  0  0  0  0  0  0  0  0  0  0  0
  187.5540  177.8230  147.4340 N   0  0  0  0  0  2  0  0  0  0  0  0
  187.4670  177.7210  146.1470 C   0  0  0  0  0  0  0  0  0  0  0  0
  185.4190  178.9250  146.0930 O   0  0  0  0  0  0  0  0  0  0  0  0
  186.2600  178.2240  145.4640 C   0  0  0  0  0  0  0  0  0  0  0  0
  186.0170  177.9320  144.0130 C   0  0  0  0  0  2  0  0  0  0  0  0
  183.7870  178.1780  142.6110 C   0  0  1  0  0  3  0  0  0  0  0  0
  184.7920  180.0990  143.8090 O   0  0  0  0  0  1  0  0  0  0  0  0
  184.9240  178.7170  141.9650 O   0  0  0  0  0  0  0  0  0  0  0  0
  184.9150  178.7810  143.3690 C   0  0  1  0  0  0  0  0  0  0  0  0
  182.6110  179.1340  142.4580 C   0  0  1  0  0  3  0  0  0  0  0  0
  181.1540  179.1860  137.7280 O   0  0  0  0  0  0  0  0  0  0  0  0
  180.5590  180.2730  139.9140 C   0  0  0  0  0  2  0  0  0  0  0  0
  181.5440  178.7740  141.4280 C   0  0  2  0  0  0  0  0  0  0  0  0
  179.2730  179.5160  142.3740 C   0  0  0  0  0  1  0  0  0  0  0  0
  181.4530  178.8420  143.8520 S   0  0  0  0  0  0  0  0  0  0  0  0
  181.6420  179.2470  139.9490 C   0  0  1  0  0  0  0  0  0  0  0  0
  180.0510  180.0050  137.7970 C   0  0  0  0  0  2  0  0  0  0  0  0
  180.3970  178.4920  142.3920 C   0  0  2  0  0  3  0  0  0  0  0  0
  180.4370  179.1340  138.9580 C   0  0  2  0  0  0  0  0  0  0  0  0
  181.6450  177.7480  140.3510 C   0  0  1  0  0  3  0  0  0  0  0  0
  183.0250  177.1660  140.0720 C   0  0  0  0  0  2  0  0  0  0  0  0
  183.1300  176.7820  138.7350 O   0  0  0  0  0  0  0  0  0  0  0  0
  182.7010  175.4560  138.7180 C   0  0  0  0  0  1  0  0  0  0  0  0
  1 27  1  0  0  0  0
  1  2  1  1  0  0  0
  3  4  1  1  0  0  0
  3  1  1  0  0  0  0
  5  8  1  6  0  0  0
  5  3  1  0  0  0  0
  7  6  1  0  0  0  0
  7  5  1  0  0  0  0
  9  8  1  0  0  0  0
 10 11  1  6  0  0  0
 10  9  1  0  0  0  0
 11 12  1  0  0  0  0
 13 11  2  0  0  0  0
 14 16  1  1  0  0  0
 14 17  1  0  0  0  0
 14 10  1  0  0  0  0
 16 15  1  0  0  0  0
 18 17  1  0  0  0  0
 18 19  1  0  0  0  0
 20 19  1  0  0  0  0
 21 20  1  0  0  0  0
 23 21  1  0  0  0  0
 23 22  1  1  0  0  0
 23 26  1  0  0  0  0
 24 26  1  0  0  0  0
 25 24  1  0  0  0  0
 25 26  1  0  0  0  0
 27 28  1  0  0  0  0
 28 29  2  0  0  0  0
 28 31  1  0  0  0  0
 31 30  2  0  0  0  0
 33 32  2  0  0  0  0
 33 31  1  0  0  0  0
 34 33  1  0  0  0  0
 35 37  1  6  0  0  0
 35 38  1  0  0  0  0
 37 38  1  0  0  0  0
 38 36  1  1  0  0  0
 38 34  1  0  0  0  0
 39 35  1  0  0  0  0
 39 44  1  1  0  0  0
 40 46  1  0  0  0  0
 40 48  1  0  0  0  0
 41 45  1  0  0  0  0
 42 47  1  0  0  0  0
 42 39  1  0  0  0  0
 43 47  1  0  0  0  0
 45 49  1  0  0  0  0
 45 42  1  0  0  0  0
 46 48  1  0  0  0  0
 47 44  1  0  0  0  0
 48 41  1  0  0  0  0
 48 45  1  0  0  0  0
 49 42  1  0  0  0  0
 50 49  1  0  0  0  0
 51 50  1  0  0  0  0
 52 51  1  0  0  0  0
M  END
>  <MODEL>
6

>  <REMARK>
 VINA RESULT:      -5.9      2.772      7.677
  Name = 
  25 active torsions:
  status: ('A' for Active; 'I' for Inactive)
    1  A    between atoms: C_2  and  C_6
    2  A    between atoms: C_7  and  O_42
    3  A    between atoms: C_7  and  C_50
    4  A    between atoms: C_11  and  C_18
    5  A    between atoms: C_11  and  C_22
    6  A    between atoms: C_11  and  O_35
    7  A    between atoms: C_12  and  C_43
    8  A    between atoms: C_12  and  C_47
    9  A    between atoms: C_13  and  C_25
   10  A    between atoms: C_13  and  C_30
   11  A    between atoms: C_14  and  C_26
   12  A    between atoms: C_14  and  O_35
   13  A    between atoms: C_19  and  C_22
   14  A    between atoms: O_20  and  C_38
   15  A    between atoms: O_20  and  C_47
   16  A    between atoms: C_21  and  C_26
   17  A    between atoms: C_21  and  C_37
   18  A    between atoms: C_22  and  C_38
   19  A    between atoms: C_25  and  C_40
   20  A    between atoms: C_26  and  C_31
   21  A    between atoms: C_30  and  C_44
   22  A    between atoms: C_37  and  C_44
   23  A    between atoms: C_40  and  C_51
   24  A    between atoms: C_41  and  C_43
   25  A    between atoms: C_41  and  C_48
                            x       y       z     vdW  Elec       q    Type
                         _______ _______ _______ _____ _____    ______ ____

>  <TORSDO>
F 25

$$$$
=
 OpenBabel11062413493D

 52 57  0  0  1  0  0  0  0  0999 V2000
  190.5970  177.3530  141.8670 C   0  0  1  0  0  3  0  0  0  0  0  0
  189.2730  176.9300  141.2350 C   0  0  0  0  0  1  0  0  0  0  0  0
  191.0420  176.4060  142.9820 C   0  0  2  0  0  3  0  0  0  0  0  0
  190.3350  175.1990  142.9230 O   0  0  0  0  0  1  0  0  0  0  0  0
  190.8970  177.0660  144.3600 C   0  0  2  0  0  3  0  0  0  0  0  0
  191.4730  176.3650  146.6910 C   0  0  0  0  0  1  0  0  0  0  0  0
  192.0050  176.5930  145.2930 C   0  0  0  0  0  2  0  0  0  0  0  0
  189.5270  176.8010  144.9880 C   0  0  0  0  0  2  0  0  0  0  0  0
  188.7810  177.9830  145.1170 O   0  0  0  0  0  0  0  0  0  0  0  0
  187.6940  177.6700  145.9490 C   0  0  1  0  0  3  0  0  0  0  0  0
  188.0820  177.7530  147.3960 C   0  0  0  0  0  0  0  0  0  0  0  0
  187.9660  176.7390  148.1360 O   0  0  0  0  0  1  0  0  0  0  0  0
  188.5560  178.9430  147.9340 O   0  0  0  0  0  0  0  0  0  0  0  0
  186.5060  178.5990  145.6710 C   0  0  2  0  0  3  0  0  0  0  0  0
  184.2560  177.9070  146.6280 C   0  0  0  0  0  1  0  0  0  0  0  0
  185.5440  178.6840  146.8570 C   0  0  0  0  0  2  0  0  0  0  0  0
  185.7980  178.2650  144.3590 C   0  0  0  0  0  2  0  0  0  0  0  0
  185.2430  179.4170  143.7920 O   0  0  0  0  0  0  0  0  0  0  0  0
  184.8660  179.0400  142.4990 C   0  0  0  0  0  2  0  0  0  0  0  0
  183.3950  178.6420  142.4740 C   0  0  0  0  0  2  0  0  0  0  0  0
  183.0340  178.1060  141.1020 C   0  0  0  0  0  2  0  0  0  0  0  0
  181.1200  177.0250  140.1750 O   0  0  0  0  0  1  0  0  0  0  0  0
  181.5270  178.1560  140.8940 C   0  0  2  0  0  3  0  0  0  0  0  0
  179.7620  179.3280  139.5670 C   0  0  0  0  0  2  0  0  0  0  0  0
  180.0230  180.1130  140.8340 C   0  0  0  0  0  2  0  0  0  0  0  0
  181.1710  179.4220  140.1250 C   0  0  0  0  0  3  0  0  0  0  0  0
  191.7020  177.5010  140.8240 C   0  0  0  0  0  2  0  0  0  0  0  0
  191.1600  177.3900  139.4340 C   0  0  0  0  0  0  0  0  0  0  0  0
  190.1170  178.0340  139.1520 O   0  0  0  0  0  0  0  0  0  0  0  0
  193.1000  176.6140  138.2680 N   0  0  0  0  0  2  0  0  0  0  0  0
  191.8130  176.5630  138.3940 C   0  0  0  0  0  0  0  0  0  0  0  0
  190.5500  174.5970  137.9610 O   0  0  0  0  0  0  0  0  0  0  0  0
  191.0380  175.6700  137.5110 C   0  0  0  0  0  0  0  0  0  0  0  0
  190.7980  176.0270  136.0730 C   0  0  0  0  0  2  0  0  0  0  0  0
  188.1720  176.0210  136.3960 C   0  0  1  0  0  3  0  0  0  0  0  0
  189.3370  177.8600  135.2140 O   0  0  0  0  0  1  0  0  0  0  0  0
  188.5820  175.6830  135.0850 O   0  0  0  0  0  0  0  0  0  0  0  0
  189.4020  176.5880  135.7820 C   0  0  1  0  0  0  0  0  0  0  0  0
  186.9930  176.9820  136.3310 C   0  0  1  0  0  3  0  0  0  0  0  0
  182.9760  174.5340  134.7900 O   0  0  0  0  0  0  0  0  0  0  0  0
  183.6450  176.8610  135.4590 C   0  0  0  0  0  2  0  0  0  0  0  0
  185.6130  176.4210  136.6610 C   0  0  2  0  0  0  0  0  0  0  0  0
  184.3020  178.2610  137.8850 C   0  0  0  0  0  1  0  0  0  0  0  0
  187.0080  178.0090  137.8520 S   0  0  0  0  0  0  0  0  0  0  0  0
  184.6950  175.8060  135.5650 C   0  0  1  0  0  0  0  0  0  0  0  0
  182.0140  175.5120  134.8840 C   0  0  0  0  0  2  0  0  0  0  0  0
  185.3720  177.1840  137.9590 C   0  0  2  0  0  3  0  0  0  0  0  0
  183.1860  175.4910  135.8250 C   0  0  2  0  0  0  0  0  0  0  0  0
  185.2280  174.9840  136.7680 C   0  0  1  0  0  3  0  0  0  0  0  0
  186.2310  173.9560  136.2570 C   0  0  0  0  0  2  0  0  0  0  0  0
  185.5660  172.8840  135.6620 O   0  0  0  0  0  0  0  0  0  0  0  0
  184.9160  172.2470  136.7180 C   0  0  0  0  0  1  0  0  0  0  0  0
  1  2  1  6  0  0  0
  1  3  1  0  0  0  0
  3  4  1  1  0  0  0
  3  5  1  0  0  0  0
  5  8  1  1  0  0  0
  5  7  1  0  0  0  0
  7  6  1  0  0  0  0
  8  9  1  0  0  0  0
 10  9  1  6  0  0  0
 10 11  1  0  0  0  0
 11 13  2  0  0  0  0
 11 12  1  0  0  0  0
 14 17  1  6  0  0  0
 14 10  1  0  0  0  0
 14 16  1  0  0  0  0
 15 16  1  0  0  0  0
 18 17  1  0  0  0  0
 19 18  1  0  0  0  0
 20 19  1  0  0  0  0
 21 20  1  0  0  0  0
 23 22  1  6  0  0  0
 23 21  1  0  0  0  0
 24 26  1  0  0  0  0
 24 25  1  0  0  0  0
 26 25  1  0  0  0  0
 26 23  1  0  0  0  0
 27  1  1  0  0  0  0
 28 27  1  0  0  0  0
 29 28  2  0  0  0  0
 30 31  2  0  0  0  0
 31 28  1  0  0  0  0
 33 32  2  0  0  0  0
 33 31  1  0  0  0  0
 34 33  1  0  0  0  0
 35 37  1  6  0  0  0
 37 38  1  0  0  0  0
 38 36  1  6  0  0  0
 38 34  1  0  0  0  0
 38 35  1  0  0  0  0
 39 35  1  0  0  0  0
 39 42  1  0  0  0  0
 39 44  1  1  0  0  0
 40 46  1  0  0  0  0
 40 48  1  0  0  0  0
 41 45  1  0  0  0  0
 41 48  1  0  0  0  0
 42 49  1  0  0  0  0
 42 47  1  0  0  0  0
 43 47  1  0  0  0  0
 44 47  1  0  0  0  0
 45 48  1  0  0  0  0
 45 42  1  0  0  0  0
 45 49  1  0  0  0  0
 46 48  1  0  0  0  0
 50 49  1  0  0  0  0
 51 50  1  0  0  0  0
 51 52  1  0  0  0  0
M  END
>  <MODEL>
7

>  <REMARK>
 VINA RESULT:      -5.7      1.909      4.195
  Name = 
  25 active torsions:
  status: ('A' for Active; 'I' for Inactive)
    1  A    between atoms: C_2  and  C_6
    2  A    between atoms: C_7  and  O_42
    3  A    between atoms: C_7  and  C_50
    4  A    between atoms: C_11  and  C_18
    5  A    between atoms: C_11  and  C_22
    6  A    between atoms: C_11  and  O_35
    7  A    between atoms: C_12  and  C_43
    8  A    between atoms: C_12  and  C_47
    9  A    between atoms: C_13  and  C_25
   10  A    between atoms: C_13  and  C_30
   11  A    between atoms: C_14  and  C_26
   12  A    between atoms: C_14  and  O_35
   13  A    between atoms: C_19  and  C_22
   14  A    between atoms: O_20  and  C_38
   15  A    between atoms: O_20  and  C_47
   16  A    between atoms: C_21  and  C_26
   17  A    between atoms: C_21  and  C_37
   18  A    between atoms: C_22  and  C_38
   19  A    between atoms: C_25  and  C_40
   20  A    between atoms: C_26  and  C_31
   21  A    between atoms: C_30  and  C_44
   22  A    between atoms: C_37  and  C_44
   23  A    between atoms: C_40  and  C_51
   24  A    between atoms: C_41  and  C_43
   25  A    between atoms: C_41  and  C_48
                            x       y       z     vdW  Elec       q    Type
                         _______ _______ _______ _____ _____    ______ ____

>  <TORSDO>
F 25

$$$$
=
 OpenBabel11062413493D

 52 57  0  0  1  0  0  0  0  0999 V2000
  190.0460  177.0000  141.2350 C   0  0  1  0  0  3  0  0  0  0  0  0
  191.3660  177.6090  140.7660 C   0  0  0  0  0  1  0  0  0  0  0  0
  189.4760  177.7150  142.4600 C   0  0  2  0  0  3  0  0  0  0  0  0
  189.8430  179.0660  142.4670 O   0  0  0  0  0  1  0  0  0  0  0  0
  189.9060  177.0180  143.7580 C   0  0  2  0  0  3  0  0  0  0  0  0
  191.6870  175.3030  144.1370 C   0  0  0  0  0  1  0  0  0  0  0  0
  190.3610  175.5920  143.4680 C   0  0  0  0  0  2  0  0  0  0  0  0
  188.7950  177.0150  144.8100 C   0  0  0  0  0  2  0  0  0  0  0  0
  187.8990  178.0790  144.6190 O   0  0  0  0  0  0  0  0  0  0  0  0
  186.6390  177.6060  145.0170 C   0  0  1  0  0  3  0  0  0  0  0  0
  186.3800  177.9130  146.4610 C   0  0  0  0  0  0  0  0  0  0  0  0
  185.2380  178.3050  146.8250 O   0  0  0  0  0  0  0  0  0  0  0  0
  187.3920  177.7850  147.4050 O   0  0  0  0  0  1  0  0  0  0  0  0
  185.5290  178.2060  144.1440 C   0  0  2  0  0  3  0  0  0  0  0  0
  185.8370  179.2330  141.8410 C   0  0  0  0  0  1  0  0  0  0  0  0
  185.7580  177.9490  142.6540 C   0  0  0  0  0  2  0  0  0  0  0  0
  185.2700  179.6790  144.4580 C   0  0  0  0  0  2  0  0  0  0  0  0
  183.9350  180.0090  144.2080 O   0  0  0  0  0  0  0  0  0  0  0  0
  183.2280  178.8140  144.3750 C   0  0  0  0  0  2  0  0  0  0  0  0
  181.7710  179.0020  143.9690 C   0  0  0  0  0  2  0  0  0  0  0  0
  181.5860  178.5870  142.5220 C   0  0  0  0  0  2  0  0  0  0  0  0
  180.2030  180.5250  142.6650 O   0  0  0  0  0  1  0  0  0  0  0  0
  180.8290  179.6620  141.7560 C   0  0  2  0  0  3  0  0  0  0  0  0
  180.3540  177.7400  140.2300 C   0  0  0  0  0  2  0  0  0  0  0  0
  179.4470  177.6410  141.4370 C   0  0  0  0  0  2  0  0  0  0  0  0
  179.7890  179.0000  140.8610 C   0  0  0  0  0  3  0  0  0  0  0  0
  189.0100  176.9600  140.1150 C   0  0  0  0  0  2  0  0  0  0  0  0
  189.6590  177.0080  138.7670 C   0  0  0  0  0  0  0  0  0  0  0  0
  189.8550  178.1350  138.2450 O   0  0  0  0  0  0  0  0  0  0  0  0
  191.2090  175.2310  138.3580 N   0  0  0  0  0  2  0  0  0  0  0  0
  190.0810  175.7840  138.0480 C   0  0  0  0  0  0  0  0  0  0  0  0
  188.7540  174.0180  137.1710 O   0  0  0  0  0  0  0  0  0  0  0  0
  189.2420  175.1700  137.0010 C   0  0  0  0  0  0  0  0  0  0  0  0
  188.9350  175.9050  135.7300 C   0  0  0  0  0  2  0  0  0  0  0  0
  186.5070  176.3480  136.6840 C   0  0  1  0  0  3  0  0  0  0  0  0
  187.6000  177.9250  135.1160 O   0  0  0  0  0  1  0  0  0  0  0  0
  186.5150  175.8990  135.3410 O   0  0  0  0  0  0  0  0  0  0  0  0
  187.6130  176.6800  135.7460 C   0  0  1  0  0  0  0  0  0  0  0  0
  185.5090  177.4880  136.8360 C   0  0  1  0  0  3  0  0  0  0  0  0
  180.9390  175.7820  136.0010 O   0  0  0  0  0  0  0  0  0  0  0  0
  182.0890  177.9430  136.5640 C   0  0  0  0  0  2  0  0  0  0  0  0
  184.1330  177.1450  137.3980 C   0  0  2  0  0  0  0  0  0  0  0  0
  183.3760  179.1250  138.8510 C   0  0  0  0  0  1  0  0  0  0  0  0
  185.9560  178.4400  138.3400 S   0  0  0  0  0  0  0  0  0  0  0  0
  182.9520  176.7300  136.4740 C   0  0  1  0  0  0  0  0  0  0  0  0
  180.1830  176.8990  136.2730 C   0  0  0  0  0  2  0  0  0  0  0  0
  184.2490  177.8870  138.7260 C   0  0  2  0  0  3  0  0  0  0  0  0
  181.4790  176.6520  136.9920 C   0  0  2  0  0  0  0  0  0  0  0  0
  183.5400  175.7870  137.5570 C   0  0  1  0  0  3  0  0  0  0  0  0
  184.2550  174.6310  136.8690 C   0  0  0  0  0  2  0  0  0  0  0  0
  184.0160  173.4370  137.5490 O   0  0  0  0  0  0  0  0  0  0  0  0
  185.2810  172.9990  137.9410 C   0  0  0  0  0  1  0  0  0  0  0  0
  1  2  1  6  0  0  0
  1  3  1  0  0  0  0
  3  4  1  1  0  0  0
  3  5  1  0  0  0  0
  5  7  1  6  0  0  0
  5  8  1  0  0  0  0
  7  6  1  0  0  0  0
  9  8  1  0  0  0  0
 10  9  1  6  0  0  0
 10 11  1  0  0  0  0
 11 12  2  0  0  0  0
 11 13  1  0  0  0  0
 14 16  1  6  0  0  0
 14 17  1  0  0  0  0
 14 10  1  0  0  0  0
 15 16  1  0  0  0  0
 18 19  1  0  0  0  0
 18 17  1  0  0  0  0
 20 19  1  0  0  0  0
 21 20  1  0  0  0  0
 23 21  1  0  0  0  0
 23 22  1  1  0  0  0
 24 26  1  0  0  0  0
 24 25  1  0  0  0  0
 26 25  1  0  0  0  0
 26 23  1  0  0  0  0
 27  1  1  0  0  0  0
 28 27  1  0  0  0  0
 29 28  2  0  0  0  0
 31 30  2  0  0  0  0
 31 28  1  0  0  0  0
 33 32  2  0  0  0  0
 33 31  1  0  0  0  0
 34 38  1  0  0  0  0
 34 33  1  0  0  0  0
 35 37  1  6  0  0  0
 35 39  1  0  0  0  0
 37 38  1  0  0  0  0
 38 36  1  6  0  0  0
 38 35  1  0  0  0  0
 39 42  1  0  0  0  0
 39 44  1  1  0  0  0
 40 46  1  0  0  0  0
 40 48  1  0  0  0  0
 41 48  1  0  0  0  0
 42 49  1  0  0  0  0
 42 47  1  0  0  0  0
 44 47  1  0  0  0  0
 45 41  1  0  0  0  0
 45 48  1  0  0  0  0
 45 42  1  0  0  0  0
 45 49  1  0  0  0  0
 46 48  1  0  0  0  0
 47 43  1  0  0  0  0
 50 51  1  0  0  0  0
 50 49  1  0  0  0  0
 51 52  1  0  0  0  0
M  END
>  <MODEL>
8

>  <REMARK>
 VINA RESULT:      -5.7      1.854      3.921
  Name = 
  25 active torsions:
  status: ('A' for Active; 'I' for Inactive)
    1  A    between atoms: C_2  and  C_6
    2  A    between atoms: C_7  and  O_42
    3  A    between atoms: C_7  and  C_50
    4  A    between atoms: C_11  and  C_18
    5  A    between atoms: C_11  and  C_22
    6  A    between atoms: C_11  and  O_35
    7  A    between atoms: C_12  and  C_43
    8  A    between atoms: C_12  and  C_47
    9  A    between atoms: C_13  and  C_25
   10  A    between atoms: C_13  and  C_30
   11  A    between atoms: C_14  and  C_26
   12  A    between atoms: C_14  and  O_35
   13  A    between atoms: C_19  and  C_22
   14  A    between atoms: O_20  and  C_38
   15  A    between atoms: O_20  and  C_47
   16  A    between atoms: C_21  and  C_26
   17  A    between atoms: C_21  and  C_37
   18  A    between atoms: C_22  and  C_38
   19  A    between atoms: C_25  and  C_40
   20  A    between atoms: C_26  and  C_31
   21  A    between atoms: C_30  and  C_44
   22  A    between atoms: C_37  and  C_44
   23  A    between atoms: C_40  and  C_51
   24  A    between atoms: C_41  and  C_43
   25  A    between atoms: C_41  and  C_48
                            x       y       z     vdW  Elec       q    Type
                         _______ _______ _______ _____ _____    ______ ____

>  <TORSDO>
F 25

$$$$
=
 OpenBabel11062413493D

 52 57  0  0  1  0  0  0  0  0999 V2000
  188.3670  177.3730  143.9800 C   0  0  1  0  0  3  0  0  0  0  0  0
  189.2680  177.2690  145.2090 C   0  0  0  0  0  1  0  0  0  0  0  0
  188.8700  176.5240  142.8130 C   0  0  2  0  0  3  0  0  0  0  0  0
  189.9070  175.6770  143.2210 O   0  0  0  0  0  1  0  0  0  0  0  0
  189.3090  177.4060  141.6360 C   0  0  2  0  0  3  0  0  0  0  0  0
  187.3470  178.8350  141.0290 C   0  0  0  0  0  1  0  0  0  0  0  0
  188.6780  178.7890  141.7460 C   0  0  0  0  0  2  0  0  0  0  0  0
  188.9700  176.7760  140.2830 C   0  0  0  0  0  2  0  0  0  0  0  0
  189.8520  177.2050  139.2780 O   0  0  0  0  0  0  0  0  0  0  0  0
  189.1400  177.1210  138.0710 C   0  0  1  0  0  3  0  0  0  0  0  0
  188.4350  178.4100  137.7700 C   0  0  0  0  0  0  0  0  0  0  0  0
  189.0920  179.4820  137.6960 O   0  0  0  0  0  1  0  0  0  0  0  0
  187.0570  178.4370  137.5870 O   0  0  0  0  0  0  0  0  0  0  0  0
  190.0720  176.7490  136.9100 C   0  0  2  0  0  3  0  0  0  0  0  0
  188.4230  176.2270  135.0480 C   0  0  0  0  0  1  0  0  0  0  0  0
  189.4710  175.6740  136.0040 C   0  0  0  0  0  2  0  0  0  0  0  0
  191.4830  176.4030  137.3820 C   0  0  0  0  0  2  0  0  0  0  0  0
  192.3460  176.2570  136.2910 O   0  0  0  0  0  0  0  0  0  0  0  0
  193.6130  176.0700  136.8510 C   0  0  0  0  0  2  0  0  0  0  0  0
  193.5510  175.0260  137.9590 C   0  0  0  0  0  2  0  0  0  0  0  0
  194.3100  173.7830  137.5340 C   0  0  0  0  0  2  0  0  0  0  0  0
  194.7700  173.4020  135.2250 O   0  0  0  0  0  1  0  0  0  0  0  0
  195.2200  174.0960  136.3560 C   0  0  2  0  0  3  0  0  0  0  0  0
  197.5930  174.8540  136.5730 C   0  0  0  0  0  2  0  0  0  0  0  0
  197.0890  174.4280  137.9340 C   0  0  0  0  0  2  0  0  0  0  0  0
  196.6440  173.6750  136.6970 C   0  0  0  0  0  3  0  0  0  0  0  0
  186.9180  177.0200  144.3070 C   0  0  0  0  0  2  0  0  0  0  0  0
  186.3130  178.0120  145.2490 C   0  0  0  0  0  0  0  0  0  0  0  0
  186.9700  178.3330  146.2730 O   0  0  0  0  0  0  0  0  0  0  0  0
  184.1630  178.7490  145.9980 N   0  0  0  0  0  2  0  0  0  0  0  0
  184.9880  178.6270  145.0080 C   0  0  0  0  0  0  0  0  0  0  0  0
  185.2890  179.9910  143.0850 O   0  0  0  0  0  0  0  0  0  0  0  0
  184.5910  179.1200  143.6750 C   0  0  0  0  0  0  0  0  0  0  0  0
  183.3690  178.5860  142.9880 C   0  0  0  0  0  2  0  0  0  0  0  0
  182.2730  178.2480  140.6030 C   0  0  1  0  0  3  0  0  0  0  0  0
  184.4540  179.3880  140.8860 O   0  0  0  0  0  1  0  0  0  0  0  0
  183.3460  177.3630  140.8640 O   0  0  0  0  0  0  0  0  0  0  0  0
  183.4280  178.6360  141.4570 C   0  0  1  0  0  0  0  0  0  0  0  0
  182.3900  178.7890  139.1850 C   0  0  1  0  0  3  0  0  0  0  0  0
  181.3230  175.1830  135.9680 O   0  0  0  0  0  0  0  0  0  0  0  0
  182.0180  177.5970  135.9570 C   0  0  0  0  0  2  0  0  0  0  0  0
  181.4300  178.2290  138.1400 C   0  0  2  0  0  0  0  0  0  0  0  0
  180.8210  180.1480  136.5410 C   0  0  0  0  0  1  0  0  0  0  0  0
  181.5830  180.4370  139.1350 S   0  0  0  0  0  0  0  0  0  0  0  0
  181.7840  176.9730  137.2920 C   0  0  1  0  0  0  0  0  0  0  0  0
  181.3820  175.8630  134.7740 C   0  0  0  0  0  2  0  0  0  0  0  0
  180.6100  179.4930  137.8970 C   0  0  2  0  0  3  0  0  0  0  0  0
  180.9520  176.5570  136.0350 C   0  0  2  0  0  0  0  0  0  0  0  0
  180.5750  177.0140  138.2640 C   0  0  1  0  0  3  0  0  0  0  0  0
  180.8540  176.0850  139.4380 C   0  0  0  0  0  2  0  0  0  0  0  0
  179.6760  175.4700  139.8630 O   0  0  0  0  0  0  0  0  0  0  0  0
  179.8060  174.1450  139.4510 C   0  0  0  0  0  1  0  0  0  0  0  0
  1 27  1  0  0  0  0
  1  2  1  1  0  0  0
  3  4  1  1  0  0  0
  3  1  1  0  0  0  0
  5  8  1  6  0  0  0
  5  7  1  0  0  0  0
  5  3  1  0  0  0  0
  6  7  1  0  0  0  0
  9  8  1  0  0  0  0
 10 11  1  6  0  0  0
 10  9  1  0  0  0  0
 12 11  1  0  0  0  0
 13 11  2  0  0  0  0
 14 16  1  1  0  0  0
 14 17  1  0  0  0  0
 14 10  1  0  0  0  0
 15 16  1  0  0  0  0
 18 19  1  0  0  0  0
 18 17  1  0  0  0  0
 19 20  1  0  0  0  0
 21 20  1  0  0  0  0
 23 22  1  6  0  0  0
 23 26  1  0  0  0  0
 23 21  1  0  0  0  0
 24 26  1  0  0  0  0
 24 25  1  0  0  0  0
 26 25  1  0  0  0  0
 27 28  1  0  0  0  0
 28 29  2  0  0  0  0
 31 28  1  0  0  0  0
 31 30  2  0  0  0  0
 32 33  2  0  0  0  0
 33 31  1  0  0  0  0
 34 33  1  0  0  0  0
 35 37  1  6  0  0  0
 35 38  1  0  0  0  0
 37 38  1  0  0  0  0
 38 36  1  6  0  0  0
 38 34  1  0  0  0  0
 39 44  1  1  0  0  0
 39 35  1  0  0  0  0
 40 48  1  0  0  0  0
 41 48  1  0  0  0  0
 41 45  1  0  0  0  0
 42 49  1  0  0  0  0
 42 39  1  0  0  0  0
 43 47  1  0  0  0  0
 45 42  1  0  0  0  0
 45 49  1  0  0  0  0
 46 40  1  0  0  0  0
 46 48  1  0  0  0  0
 47 42  1  0  0  0  0
 47 44  1  0  0  0  0
 48 45  1  0  0  0  0
 49 50  1  0  0  0  0
 50 51  1  0  0  0  0
 52 51  1  0  0  0  0
M  END
>  <MODEL>
9

>  <REMARK>
 VINA RESULT:      -5.6      3.201      8.221
  Name = 
  25 active torsions:
  status: ('A' for Active; 'I' for Inactive)
    1  A    between atoms: C_2  and  C_6
    2  A    between atoms: C_7  and  O_42
    3  A    between atoms: C_7  and  C_50
    4  A    between atoms: C_11  and  C_18
    5  A    between atoms: C_11  and  C_22
    6  A    between atoms: C_11  and  O_35
    7  A    between atoms: C_12  and  C_43
    8  A    between atoms: C_12  and  C_47
    9  A    between atoms: C_13  and  C_25
   10  A    between atoms: C_13  and  C_30
   11  A    between atoms: C_14  and  C_26
   12  A    between atoms: C_14  and  O_35
   13  A    between atoms: C_19  and  C_22
   14  A    between atoms: O_20  and  C_38
   15  A    between atoms: O_20  and  C_47
   16  A    between atoms: C_21  and  C_26
   17  A    between atoms: C_21  and  C_37
   18  A    between atoms: C_22  and  C_38
   19  A    between atoms: C_25  and  C_40
   20  A    between atoms: C_26  and  C_31
   21  A    between atoms: C_30  and  C_44
   22  A    between atoms: C_37  and  C_44
   23  A    between atoms: C_40  and  C_51
   24  A    between atoms: C_41  and  C_43
   25  A    between atoms: C_41  and  C_48
                            x       y       z     vdW  Elec       q    Type
                         _______ _______ _______ _____ _____    ______ ____

>  <TORSDO>
F 25

$$$$
