=
 OpenBabel11062415493D

 44 48  0  0  1  0  0  0  0  0999 V2000
  190.8070  176.8720  138.1220 C   0  0  0  0  0  3  0  0  0  0  0  0
  188.3870  178.3310  139.2000 C   0  0  0  0  0  3  0  0  0  0  0  0
  188.0000  177.9690  137.8250 C   0  0  0  0  0  3  0  0  0  0  0  0
  190.1730  177.1820  137.0330 N   0  0  0  0  0  0  0  0  0  0  0  0
  190.1100  176.5710  139.4050 C   0  0  0  0  0  2  0  0  0  0  0  0
  189.3580  177.7520  139.9180 C   0  0  0  0  0  0  0  0  0  0  0  0
  188.7520  177.3640  136.8910 C   0  0  0  0  0  0  0  0  0  0  0  0
  186.0860  175.2820  134.8970 S   0  0  0  0  0  0  0  0  0  0  0  0
  186.7680  177.7920  135.4410 C   0  0  0  0  0  2  0  0  0  0  0  0
  187.8100  175.5340  135.4300 C   0  0  0  0  0  2  0  0  0  0  0  0
  188.0840  177.0280  135.5810 C   0  0  2  0  0  3  0  0  0  0  0  0
  185.6050  176.8460  135.6780 C   0  0  2  0  0  3  0  0  0  0  0  0
  185.1210  175.2470  137.4020 O   0  0  0  0  0  1  0  0  0  0  0  0
  185.3000  176.6160  137.1720 C   0  0  2  0  0  3  0  0  0  0  0  0
  183.6870  177.1940  141.0340 F   0  0  0  0  0  0  0  0  0  0  0  0
  184.1000  177.4140  137.7250 C   0  0  1  0  0  0  0  0  0  0  0  0
  183.6670  178.3370  136.7860 F   0  0  0  0  0  0  0  0  0  0  0  0
  182.9250  176.5310  138.1030 C   0  0  0  0  0  2  0  0  0  0  0  0
  182.2050  177.3370  139.1560 C   0  0  2  0  0  3  0  0  0  0  0  0
  184.4800  178.1430  139.0230 C   0  0  2  0  0  3  0  0  0  0  0  0
  183.3020  178.0020  139.9770 C   0  0  2  0  0  3  0  0  0  0  0  0
  184.7530  179.4920  138.7910 O   0  0  0  0  0  1  0  0  0  0  0  0
  181.2560  176.4770  139.9780 C   0  0  0  0  0  3  0  0  0  0  0  0
  180.1000  177.1840  140.2260 O   0  0  0  0  0  0  0  0  0  0  0  0
  180.1030  176.2560  139.2570 O   0  0  0  0  0  0  0  0  0  0  0  0
  189.5220  178.0690  141.3440 C   0  0  0  0  0  3  0  0  0  0  0  0
  190.3960  177.4460  142.1300 C   0  0  0  0  0  3  0  0  0  0  0  0
  192.0250  177.5800  144.2370 O   0  0  0  0  0  0  0  0  0  0  0  0
  190.4850  179.4450  143.8750 O   0  0  0  0  0  0  0  0  0  0  0  0
  190.6390  177.9540  143.7930 S   0  0  0  0  0  0  0  0  0  0  0  0
  189.4100  177.1720  144.8400 C   0  0  2  0  0  3  0  0  0  0  0  0
  188.3110  176.4710  144.0760 C   0  0  0  0  0  3  0  0  0  0  0  0
  187.0280  176.8440  143.9060 C   0  0  0  0  0  3  0  0  0  0  0  0
  182.9900  178.7530  144.0270 O   0  0  0  0  0  1  0  0  0  0  0  0
  184.2310  179.2890  144.3670 C   0  0  2  0  0  3  0  0  0  0  0  0
  185.6060  177.8340  145.7480 C   0  0  0  0  0  2  0  0  0  0  0  0
  185.3070  178.6710  143.4880 C   0  0  0  0  0  2  0  0  0  0  0  0
  186.3160  178.0580  144.4400 C   0  0  2  0  0  3  0  0  0  0  0  0
  184.5630  178.9290  145.8060 C   0  0  0  0  0  2  0  0  0  0  0  0
  188.9170  178.0560  145.8020 O   0  0  0  0  0  0  0  0  0  0  0  0
  189.4310  178.5760  148.4820 O   0  0  0  0  0  1  0  0  0  0  0  0
  188.2190  176.3970  147.6980 O   0  0  0  0  0  1  0  0  0  0  0  0
  189.3070  177.3690  147.3030 P   0  0  0  0  0  0  0  0  0  0  0  0
  190.7780  176.5380  147.1900 O   0  0  0  0  0  0  0  0  0  0  0  0
  1  5  1  0  0  0  0
  2  6  2  0  0  0  0
  3  2  1  0  0  0  0
  4  1  2  0  0  0  0
  5  6  1  0  0  0  0
  6 26  1  0  0  0  0
  7  4  1  0  0  0  0
  7  3  2  0  0  0  0
  8 10  1  0  0  0  0
  8 12  1  0  0  0  0
  9 11  1  0  0  0  0
  9 12  1  0  0  0  0
 10 11  1  0  0  0  0
 11  7  1  1  0  0  0
 12 14  1  1  0  0  0
 14 13  1  6  0  0  0
 14 16  1  0  0  0  0
 16 17  1  6  0  0  0
 16 18  1  0  0  0  0
 16 20  1  0  0  0  0
 18 19  1  0  0  0  0
 19 21  1  0  0  0  0
 19 23  1  1  0  0  0
 20 22  1  6  0  0  0
 20 21  1  0  0  0  0
 21 15  1  1  0  0  0
 23 24  1  0  0  0  0
 25 23  1  0  0  0  0
 25 24  1  0  0  0  0
 26 27  2  0  0  0  0
 27 30  1  0  0  0  0
 30 29  2  0  0  0  0
 30 28  2  0  0  0  0
 30 31  1  0  0  0  0
 31 32  1  6  0  0  0
 31 40  1  0  0  0  0
 33 32  2  0  0  0  0
 35 34  1  6  0  0  0
 35 39  1  0  0  0  0
 36 39  1  0  0  0  0
 37 35  1  0  0  0  0
 37 38  1  0  0  0  0
 38 33  1  6  0  0  0
 38 36  1  0  0  0  0
 40 43  1  0  0  0  0
 43 42  1  0  0  0  0
 43 41  1  0  0  0  0
 44 43  2  0  0  0  0
M  END
>  <MODEL>
1

>  <REMARK>
 VINA RESULT:      -8.4      0.000      0.000
  Name = 
  11 active torsions:
  status: ('A' for Active; 'I' for Inactive)
    1  A    between atoms: C_1  and  C_24
    2  A    between atoms: C_2  and  C_38
    3  A    between atoms: C_6  and  C_30
    4  A    between atoms: C_8  and  S_42
    5  A    between atoms: C_11  and  C_41
    6  A    between atoms: C_17  and  C_20
    7  A    between atoms: C_24  and  O_39
    8  A    between atoms: C_24  and  S_42
    9  A    between atoms: P_27  and  O_39
   10  A    between atoms: C_37  and  C_44
   11  A    between atoms: C_41  and  C_43
                            x       y       z     vdW  Elec       q    Type
                         _______ _______ _______ _____ _____    ______ ____

>  <TORSDO>
F 11

$$$$
=
 OpenBabel11062415493D

 44 48  0  0  1  0  0  0  0  0999 V2000
  188.5110  176.6500  136.4280 C   0  0  0  0  0  3  0  0  0  0  0  0
  186.7200  178.2430  138.2740 C   0  0  0  0  0  3  0  0  0  0  0  0
  185.8200  177.8160  137.1880 C   0  0  0  0  0  3  0  0  0  0  0  0
  187.5010  176.9180  135.6580 N   0  0  0  0  0  0  0  0  0  0  0  0
  188.3730  176.4450  137.8980 C   0  0  0  0  0  2  0  0  0  0  0  0
  187.8920  177.6750  138.5880 C   0  0  0  0  0  0  0  0  0  0  0  0
  186.1390  177.1360  136.0740 C   0  0  0  0  0  0  0  0  0  0  0  0
  183.2390  174.6530  135.1550 S   0  0  0  0  0  0  0  0  0  0  0  0
  183.6710  177.2110  135.7320 C   0  0  0  0  0  2  0  0  0  0  0  0
  184.9460  175.2410  134.9090 C   0  0  0  0  0  2  0  0  0  0  0  0
  185.0070  176.7470  135.1570 C   0  0  2  0  0  3  0  0  0  0  0  0
  182.9230  176.0200  136.3040 C   0  0  2  0  0  3  0  0  0  0  0  0
  183.7260  174.2760  137.7440 O   0  0  0  0  0  1  0  0  0  0  0  0
  183.3870  175.6330  137.7230 C   0  0  2  0  0  3  0  0  0  0  0  0
  180.7140  178.8220  138.4560 F   0  0  0  0  0  0  0  0  0  0  0  0
  182.3800  175.9510  138.8500 C   0  0  1  0  0  0  0  0  0  0  0  0
  182.1210  174.8120  139.5950 F   0  0  0  0  0  0  0  0  0  0  0  0
  182.8690  177.0360  139.7910 C   0  0  0  0  0  2  0  0  0  0  0  0
  181.5930  177.6270  140.3390 C   0  0  2  0  0  3  0  0  0  0  0  0
  181.0650  176.4940  138.2690 C   0  0  2  0  0  3  0  0  0  0  0  0
  180.6170  177.6380  139.1690 C   0  0  2  0  0  3  0  0  0  0  0  0
  180.0810  175.5050  138.2210 O   0  0  0  0  0  1  0  0  0  0  0  0
  181.8230  178.9950  140.9620 C   0  0  0  0  0  3  0  0  0  0  0  0
  181.1800  179.0560  142.1790 O   0  0  0  0  0  0  0  0  0  0  0  0
  182.5040  178.8460  142.1500 O   0  0  0  0  0  0  0  0  0  0  0  0
  188.6070  178.0690  139.8110 C   0  0  0  0  0  3  0  0  0  0  0  0
  188.9630  177.2000  140.7540 C   0  0  0  0  0  3  0  0  0  0  0  0
  191.3870  177.5760  141.8000 O   0  0  0  0  0  0  0  0  0  0  0  0
  189.6200  179.1420  142.4400 O   0  0  0  0  0  0  0  0  0  0  0  0
  189.9260  177.7050  142.1310 S   0  0  0  0  0  0  0  0  0  0  0  0
  189.5110  176.6900  143.5520 C   0  0  2  0  0  3  0  0  0  0  0  0
  188.1460  176.0490  143.4690 C   0  0  0  0  0  3  0  0  0  0  0  0
  186.9610  176.5260  143.8950 C   0  0  0  0  0  3  0  0  0  0  0  0
  183.5400  178.9160  145.4920 O   0  0  0  0  0  1  0  0  0  0  0  0
  184.8630  179.3010  145.2760 C   0  0  2  0  0  3  0  0  0  0  0  0
  186.5130  177.7090  146.0850 C   0  0  0  0  0  2  0  0  0  0  0  0
  185.4220  178.5430  144.0830 C   0  0  0  0  0  2  0  0  0  0  0  0
  186.6560  177.8250  144.5910 C   0  0  2  0  0  3  0  0  0  0  0  0
  185.7050  178.9240  146.4840 C   0  0  0  0  0  2  0  0  0  0  0  0
  189.7110  177.3780  144.7510 O   0  0  0  0  0  0  0  0  0  0  0  0
  191.8520  175.6490  144.3780 O   0  0  0  0  0  0  0  0  0  0  0  0
  192.1890  178.1550  145.0400 O   0  0  0  0  0  1  0  0  0  0  0  0
  191.2760  176.9720  145.2620 P   0  0  0  0  0  0  0  0  0  0  0  0
  191.2610  176.5850  146.9100 O   0  0  0  0  0  1  0  0  0  0  0  0
  1  5  1  0  0  0  0
  2  6  2  0  0  0  0
  3  2  1  0  0  0  0
  4  7  1  0  0  0  0
  4  1  2  0  0  0  0
  5  6  1  0  0  0  0
  6 26  1  0  0  0  0
  7  3  2  0  0  0  0
  8 12  1  0  0  0  0
  9 12  1  0  0  0  0
 10  8  1  0  0  0  0
 10 11  1  0  0  0  0
 11  9  1  0  0  0  0
 11  7  1  1  0  0  0
 12 14  1  1  0  0  0
 14 13  1  6  0  0  0
 14 16  1  0  0  0  0
 16 17  1  1  0  0  0
 16 18  1  0  0  0  0
 18 19  1  0  0  0  0
 19 23  1  6  0  0  0
 20 22  1  1  0  0  0
 20 16  1  0  0  0  0
 20 21  1  0  0  0  0
 21 15  1  6  0  0  0
 21 19  1  0  0  0  0
 23 25  1  0  0  0  0
 23 24  1  0  0  0  0
 25 24  1  0  0  0  0
 26 27  2  0  0  0  0
 27 30  1  0  0  0  0
 28 30  2  0  0  0  0
 30 29  2  0  0  0  0
 30 31  1  0  0  0  0
 31 32  1  6  0  0  0
 31 40  1  0  0  0  0
 32 33  2  0  0  0  0
 35 34  1  1  0  0  0
 35 39  1  0  0  0  0
 36 39  1  0  0  0  0
 37 38  1  0  0  0  0
 37 35  1  0  0  0  0
 38 33  1  6  0  0  0
 38 36  1  0  0  0  0
 40 43  1  0  0  0  0
 41 43  2  0  0  0  0
 42 43  1  0  0  0  0
 43 44  1  0  0  0  0
M  END
>  <MODEL>
2

>  <REMARK>
 VINA RESULT:      -7.9      1.851      2.793
  Name = 
  11 active torsions:
  status: ('A' for Active; 'I' for Inactive)
    1  A    between atoms: C_1  and  C_24
    2  A    between atoms: C_2  and  C_38
    3  A    between atoms: C_6  and  C_30
    4  A    between atoms: C_8  and  S_42
    5  A    between atoms: C_11  and  C_41
    6  A    between atoms: C_17  and  C_20
    7  A    between atoms: C_24  and  O_39
    8  A    between atoms: C_24  and  S_42
    9  A    between atoms: P_27  and  O_39
   10  A    between atoms: C_37  and  C_44
   11  A    between atoms: C_41  and  C_43
                            x       y       z     vdW  Elec       q    Type
                         _______ _______ _______ _____ _____    ______ ____

>  <TORSDO>
F 11

$$$$
=
 OpenBabel11062415493D

 44 48  0  0  1  0  0  0  0  0999 V2000
  186.4790  177.2730  143.6620 C   0  0  0  0  0  3  0  0  0  0  0  0
  185.0310  178.5840  145.9710 C   0  0  0  0  0  3  0  0  0  0  0  0
  186.4130  178.4330  146.4590 C   0  0  0  0  0  3  0  0  0  0  0  0
  187.2840  177.0370  144.6530 N   0  0  0  0  0  0  0  0  0  0  0  0
  185.6420  178.5030  143.5790 C   0  0  0  0  0  2  0  0  0  0  0  0
  184.6490  178.5750  144.6880 C   0  0  0  0  0  0  0  0  0  0  0  0
  187.4450  177.8410  145.8370 C   0  0  0  0  0  0  0  0  0  0  0  0
  191.0780  176.4150  146.2700 S   0  0  0  0  0  0  0  0  0  0  0  0
  189.7940  178.6610  145.6650 C   0  0  0  0  0  2  0  0  0  0  0  0
  189.3470  176.5090  146.8300 C   0  0  0  0  0  2  0  0  0  0  0  0
  188.7870  177.8970  146.5230 C   0  0  2  0  0  3  0  0  0  0  0  0
  190.7520  177.6810  145.0140 C   0  0  2  0  0  3  0  0  0  0  0  0
  190.5920  175.6880  143.6860 O   0  0  0  0  0  1  0  0  0  0  0  0
  190.1820  177.0240  143.7410 C   0  0  2  0  0  3  0  0  0  0  0  0
  190.1770  175.8730  139.6750 F   0  0  0  0  0  0  0  0  0  0  0  0
  190.5290  177.7460  142.4210 C   0  0  1  0  0  0  0  0  0  0  0  0
  190.5660  179.1160  142.6220 F   0  0  0  0  0  0  0  0  0  0  0  0
  191.8640  177.3120  141.8430 C   0  0  0  0  0  2  0  0  0  0  0  0
  191.7100  177.5810  140.3660 C   0  0  2  0  0  3  0  0  0  0  0  0
  189.4990  177.4150  141.3290 C   0  0  2  0  0  3  0  0  0  0  0  0
  190.2710  177.2080  140.0330 C   0  0  2  0  0  3  0  0  0  0  0  0
  188.5690  178.4440  141.1770 O   0  0  0  0  0  1  0  0  0  0  0  0
  192.7460  176.8320  139.5410 C   0  0  0  0  0  3  0  0  0  0  0  0
  193.6660  177.7280  139.0430 O   0  0  0  0  0  0  0  0  0  0  0  0
  193.9870  176.9920  140.1170 O   0  0  0  0  0  0  0  0  0  0  0  0
  183.2700  178.9270  144.3180 C   0  0  0  0  0  3  0  0  0  0  0  0
  182.7380  178.6290  143.1360 C   0  0  0  0  0  3  0  0  0  0  0  0
  180.1790  178.0830  143.6560 O   0  0  0  0  0  0  0  0  0  0  0  0
  180.7580  180.3970  143.1140 O   0  0  0  0  0  0  0  0  0  0  0  0
  181.0470  178.9590  142.7960 S   0  0  0  0  0  0  0  0  0  0  0  0
  180.7210  178.6580  141.0580 C   0  0  2  0  0  3  0  0  0  0  0  0
  179.3750  179.1620  140.5910 C   0  0  0  0  0  3  0  0  0  0  0  0
  179.0990  180.1740  139.7470 C   0  0  0  0  0  3  0  0  0  0  0  0
  179.9400  181.8990  135.7120 O   0  0  0  0  0  1  0  0  0  0  0  0
  180.7300  181.9110  136.8600 C   0  0  2  0  0  3  0  0  0  0  0  0
  179.5370  182.5130  138.8910 C   0  0  0  0  0  2  0  0  0  0  0  0
  180.4780  180.6430  137.6610 C   0  0  0  0  0  2  0  0  0  0  0  0
  180.0460  181.1050  139.0390 C   0  0  2  0  0  3  0  0  0  0  0  0
  180.3330  183.0850  137.7390 C   0  0  0  0  0  2  0  0  0  0  0  0
  180.9430  177.3210  140.7170 O   0  0  0  0  0  0  0  0  0  0  0  0
  183.0190  176.0110  139.4170 O   0  0  0  0  0  1  0  0  0  0  0  0
  181.1670  177.3170  138.1140 O   0  0  0  0  0  0  0  0  0  0  0  0
  181.9880  177.3520  139.3820 P   0  0  0  0  0  0  0  0  0  0  0  0
  182.9090  178.7720  139.4060 O   0  0  0  0  0  1  0  0  0  0  0  0
  1  4  2  0  0  0  0
  2  3  1  0  0  0  0
  4  7  1  0  0  0  0
  5  1  1  0  0  0  0
  5  6  1  0  0  0  0
  6  2  2  0  0  0  0
  7  3  2  0  0  0  0
  8 10  1  0  0  0  0
  9 11  1  0  0  0  0
 11  7  1  6  0  0  0
 11 10  1  0  0  0  0
 12 14  1  6  0  0  0
 12  9  1  0  0  0  0
 12  8  1  0  0  0  0
 14 13  1  6  0  0  0
 16 17  1  1  0  0  0
 16 14  1  0  0  0  0
 18 16  1  0  0  0  0
 19 23  1  6  0  0  0
 19 18  1  0  0  0  0
 20 22  1  6  0  0  0
 20 16  1  0  0  0  0
 21 15  1  1  0  0  0
 21 19  1  0  0  0  0
 21 20  1  0  0  0  0
 23 25  1  0  0  0  0
 24 23  1  0  0  0  0
 24 25  1  0  0  0  0
 26  6  1  0  0  0  0
 27 26  2  0  0  0  0
 30 29  2  0  0  0  0
 30 27  1  0  0  0  0
 30 28  2  0  0  0  0
 31 32  1  1  0  0  0
 31 30  1  0  0  0  0
 33 32  2  0  0  0  0
 35 34  1  6  0  0  0
 35 37  1  0  0  0  0
 35 39  1  0  0  0  0
 36 38  1  0  0  0  0
 37 38  1  0  0  0  0
 38 33  1  6  0  0  0
 39 36  1  0  0  0  0
 40 31  1  0  0  0  0
 42 43  2  0  0  0  0
 43 44  1  0  0  0  0
 43 41  1  0  0  0  0
 43 40  1  0  0  0  0
M  END
>  <MODEL>
3

>  <REMARK>
 VINA RESULT:      -7.9      4.290      9.563
  Name = 
  11 active torsions:
  status: ('A' for Active; 'I' for Inactive)
    1  A    between atoms: C_1  and  C_24
    2  A    between atoms: C_2  and  C_38
    3  A    between atoms: C_6  and  C_30
    4  A    between atoms: C_8  and  S_42
    5  A    between atoms: C_11  and  C_41
    6  A    between atoms: C_17  and  C_20
    7  A    between atoms: C_24  and  O_39
    8  A    between atoms: C_24  and  S_42
    9  A    between atoms: P_27  and  O_39
   10  A    between atoms: C_37  and  C_44
   11  A    between atoms: C_41  and  C_43
                            x       y       z     vdW  Elec       q    Type
                         _______ _______ _______ _____ _____    ______ ____

>  <TORSDO>
F 11

$$$$
=
 OpenBabel11062415493D

 44 48  0  0  1  0  0  0  0  0999 V2000
  183.6800  173.2370  136.8350 C   0  0  0  0  0  3  0  0  0  0  0  0
  185.1570  175.7770  136.1200 C   0  0  0  0  0  3  0  0  0  0  0  0
  183.7600  176.2140  136.2870 C   0  0  0  0  0  3  0  0  0  0  0  0
  182.7110  174.0140  136.4600 N   0  0  0  0  0  0  0  0  0  0  0  0
  184.9100  173.7460  137.5050 C   0  0  0  0  0  2  0  0  0  0  0  0
  185.6900  174.6540  136.6170 C   0  0  0  0  0  0  0  0  0  0  0  0
  182.6840  175.4520  136.5420 C   0  0  0  0  0  0  0  0  0  0  0  0
  179.9370  176.8130  138.9950 S   0  0  0  0  0  0  0  0  0  0  0  0
  181.6070  177.6310  137.0970 C   0  0  0  0  0  2  0  0  0  0  0  0
  180.5280  175.5220  137.8540 C   0  0  0  0  0  2  0  0  0  0  0  0
  181.3700  176.1620  136.7520 C   0  0  2  0  0  3  0  0  0  0  0  0
  181.3660  177.8490  138.5800 C   0  0  2  0  0  3  0  0  0  0  0  0
  182.2510  176.3190  140.2030 O   0  0  0  0  0  1  0  0  0  0  0  0
  182.5710  177.4590  139.4590 C   0  0  2  0  0  3  0  0  0  0  0  0
  186.0610  177.9530  141.7890 F   0  0  0  0  0  0  0  0  0  0  0  0
  183.0920  178.5780  140.3870 C   0  0  1  0  0  0  0  0  0  0  0  0
  182.3910  179.7520  140.1610 F   0  0  0  0  0  0  0  0  0  0  0  0
  182.9730  178.2280  141.8590 C   0  0  0  0  0  2  0  0  0  0  0  0
  184.0570  179.0560  142.5050 C   0  0  2  0  0  3  0  0  0  0  0  0
  184.5920  178.8240  140.1590 C   0  0  2  0  0  3  0  0  0  0  0  0
  185.2250  179.0270  141.5290 C   0  0  2  0  0  3  0  0  0  0  0  0
  184.8090  179.9450  139.3570 O   0  0  0  0  0  1  0  0  0  0  0  0
  184.4050  178.5490  143.8970 C   0  0  0  0  0  3  0  0  0  0  0  0
  184.6420  179.6230  144.7270 O   0  0  0  0  0  0  0  0  0  0  0  0
  183.4590  178.9960  144.7930 O   0  0  0  0  0  0  0  0  0  0  0  0
  187.1410  174.4230  136.5470 C   0  0  0  0  0  3  0  0  0  0  0  0
  188.0380  175.3310  136.9190 C   0  0  0  0  0  3  0  0  0  0  0  0
  189.9640  173.5870  137.5250 O   0  0  0  0  0  0  0  0  0  0  0  0
  190.2670  174.9630  135.5250 O   0  0  0  0  0  0  0  0  0  0  0  0
  189.7530  174.9540  136.9350 S   0  0  0  0  0  0  0  0  0  0  0  0
  190.6260  176.1940  137.8940 C   0  0  2  0  0  3  0  0  0  0  0  0
  189.7180  177.1680  138.6080 C   0  0  0  0  0  3  0  0  0  0  0  0
  189.5950  177.3960  139.9290 C   0  0  0  0  0  3  0  0  0  0  0  0
  191.5150  178.3390  143.8520 O   0  0  0  0  0  1  0  0  0  0  0  0
  191.5800  177.1710  143.0940 C   0  0  2  0  0  3  0  0  0  0  0  0
  189.4330  176.4040  142.2490 C   0  0  0  0  0  2  0  0  0  0  0  0
  191.4950  177.5200  141.6170 C   0  0  0  0  0  2  0  0  0  0  0  0
  190.3140  176.7380  141.0760 C   0  0  2  0  0  3  0  0  0  0  0  0
  190.3860  176.2880  143.4180 C   0  0  0  0  0  2  0  0  0  0  0  0
  191.6090  176.8330  137.1340 O   0  0  0  0  0  0  0  0  0  0  0  0
  192.9630  174.5200  137.8650 O   0  0  0  0  0  1  0  0  0  0  0  0
  194.1520  176.4960  136.6340 O   0  0  0  0  0  0  0  0  0  0  0  0
  193.0880  176.1960  137.6650 P   0  0  0  0  0  0  0  0  0  0  0  0
  193.5270  176.9080  139.1360 O   0  0  0  0  0  1  0  0  0  0  0  0
  1  5  1  0  0  0  0
  2  3  1  0  0  0  0
  2  6  2  0  0  0  0
  3  7  2  0  0  0  0
  4  7  1  0  0  0  0
  4  1  2  0  0  0  0
  6  5  1  0  0  0  0
  9 12  1  0  0  0  0
 10  8  1  0  0  0  0
 11  7  1  1  0  0  0
 11  9  1  0  0  0  0
 11 10  1  0  0  0  0
 12  8  1  0  0  0  0
 12 14  1  1  0  0  0
 14 13  1  1  0  0  0
 14 16  1  0  0  0  0
 16 17  1  6  0  0  0
 16 18  1  0  0  0  0
 18 19  1  0  0  0  0
 19 23  1  1  0  0  0
 20 22  1  6  0  0  0
 20 16  1  0  0  0  0
 20 21  1  0  0  0  0
 21 15  1  1  0  0  0
 21 19  1  0  0  0  0
 23 24  1  0  0  0  0
 23 25  1  0  0  0  0
 24 25  1  0  0  0  0
 26  6  1  0  0  0  0
 26 27  2  0  0  0  0
 27 30  1  0  0  0  0
 29 30  2  0  0  0  0
 30 28  2  0  0  0  0
 30 31  1  0  0  0  0
 31 32  1  6  0  0  0
 32 33  2  0  0  0  0
 35 39  1  0  0  0  0
 35 34  1  1  0  0  0
 36 39  1  0  0  0  0
 37 35  1  0  0  0  0
 38 33  1  6  0  0  0
 38 37  1  0  0  0  0
 38 36  1  0  0  0  0
 40 43  1  0  0  0  0
 40 31  1  0  0  0  0
 42 43  2  0  0  0  0
 43 41  1  0  0  0  0
 43 44  1  0  0  0  0
M  END
>  <MODEL>
4

>  <REMARK>
 VINA RESULT:      -7.6      3.699      6.722
  Name = 
  11 active torsions:
  status: ('A' for Active; 'I' for Inactive)
    1  A    between atoms: C_1  and  C_24
    2  A    between atoms: C_2  and  C_38
    3  A    between atoms: C_6  and  C_30
    4  A    between atoms: C_8  and  S_42
    5  A    between atoms: C_11  and  C_41
    6  A    between atoms: C_17  and  C_20
    7  A    between atoms: C_24  and  O_39
    8  A    between atoms: C_24  and  S_42
    9  A    between atoms: P_27  and  O_39
   10  A    between atoms: C_37  and  C_44
   11  A    between atoms: C_41  and  C_43
                            x       y       z     vdW  Elec       q    Type
                         _______ _______ _______ _____ _____    ______ ____

>  <TORSDO>
F 11

$$$$
=
 OpenBabel11062415493D

 44 48  0  0  1  0  0  0  0  0999 V2000
  190.5250  179.0960  143.9880 C   0  0  0  0  0  3  0  0  0  0  0  0
  191.2990  176.2170  143.4800 C   0  0  0  0  0  3  0  0  0  0  0  0
  190.8560  176.2220  144.8850 C   0  0  0  0  0  3  0  0  0  0  0  0
  190.6640  178.6380  145.1940 N   0  0  0  0  0  0  0  0  0  0  0  0
  190.0470  178.2530  142.8550 C   0  0  0  0  0  2  0  0  0  0  0  0
  190.9900  177.1370  142.5580 C   0  0  0  0  0  0  0  0  0  0  0  0
  190.4720  177.2760  145.6230 C   0  0  0  0  0  0  0  0  0  0  0  0
  188.3490  178.3760  148.7370 S   0  0  0  0  0  0  0  0  0  0  0  0
  188.5770  176.3950  146.9820 C   0  0  0  0  0  2  0  0  0  0  0  0
  189.9590  178.2490  147.8950 C   0  0  0  0  0  2  0  0  0  0  0  0
  189.9790  176.9970  147.0210 C   0  0  2  0  0  3  0  0  0  0  0  0
  187.5610  177.4450  147.3950 C   0  0  2  0  0  3  0  0  0  0  0  0
  186.5760  179.5470  146.7880 O   0  0  0  0  0  1  0  0  0  0  0  0
  187.1710  178.4010  146.2500 C   0  0  2  0  0  3  0  0  0  0  0  0
  186.4540  179.2730  142.1790 F   0  0  0  0  0  0  0  0  0  0  0  0
  186.2630  177.7830  145.1640 C   0  0  1  0  0  0  0  0  0  0  0  0
  185.8350  176.5260  145.5590 F   0  0  0  0  0  0  0  0  0  0  0  0
  185.0410  178.6310  144.8630 C   0  0  0  0  0  2  0  0  0  0  0  0
  184.6920  178.2520  143.4450 C   0  0  2  0  0  3  0  0  0  0  0  0
  187.0090  177.6750  143.8260 C   0  0  2  0  0  3  0  0  0  0  0  0
  186.0280  178.0760  142.7330 C   0  0  2  0  0  3  0  0  0  0  0  0
  187.4730  176.3770  143.6030 O   0  0  0  0  0  1  0  0  0  0  0  0
  183.7770  179.2770  142.7920 C   0  0  0  0  0  3  0  0  0  0  0  0
  182.7210  178.6280  142.1910 O   0  0  0  0  0  0  0  0  0  0  0  0
  182.5330  179.2160  143.3810 O   0  0  0  0  0  0  0  0  0  0  0  0
  191.3330  176.9210  141.1440 C   0  0  0  0  0  3  0  0  0  0  0  0
  190.4980  176.3610  140.2730 C   0  0  0  0  0  3  0  0  0  0  0  0
  191.8050  177.3930  138.1900 O   0  0  0  0  0  0  0  0  0  0  0  0
  191.6430  174.9560  138.3330 O   0  0  0  0  0  0  0  0  0  0  0  0
  190.9120  176.2460  138.5710 S   0  0  0  0  0  0  0  0  0  0  0  0
  189.4080  176.2660  137.5910 C   0  0  2  0  0  3  0  0  0  0  0  0
  189.2470  175.0630  136.6920 C   0  0  0  0  0  3  0  0  0  0  0  0
  188.1700  174.2710  136.5260 C   0  0  0  0  0  3  0  0  0  0  0  0
  183.7990  174.2510  135.6020 O   0  0  0  0  0  1  0  0  0  0  0  0
  184.4490  174.5790  136.7910 C   0  0  2  0  0  3  0  0  0  0  0  0
  186.1840  173.0070  137.4490 C   0  0  0  0  0  2  0  0  0  0  0  0
  185.8020  175.1980  136.4740 C   0  0  0  0  0  2  0  0  0  0  0  0
  186.8250  174.3450  137.1970 C   0  0  2  0  0  3  0  0  0  0  0  0
  184.7090  173.3140  137.5930 C   0  0  0  0  0  2  0  0  0  0  0  0
  189.2570  177.4740  136.9060 O   0  0  0  0  0  0  0  0  0  0  0  0
  187.2350  179.3770  136.8320 O   0  0  0  0  0  0  0  0  0  0  0  0
  187.2890  177.4750  138.6260 O   0  0  0  0  0  1  0  0  0  0  0  0
  188.1860  178.4020  137.8370 P   0  0  0  0  0  0  0  0  0  0  0  0
  189.0550  179.3790  138.9120 O   0  0  0  0  0  1  0  0  0  0  0  0
  1  4  2  0  0  0  0
  2  3  1  0  0  0  0
  3  7  2  0  0  0  0
  4  7  1  0  0  0  0
  5  1  1  0  0  0  0
  6  5  1  0  0  0  0
  6  2  2  0  0  0  0
  9 11  1  0  0  0  0
  9 12  1  0  0  0  0
 10  8  1  0  0  0  0
 11  7  1  6  0  0  0
 11 10  1  0  0  0  0
 12 14  1  6  0  0  0
 12  8  1  0  0  0  0
 14 13  1  1  0  0  0
 16 17  1  1  0  0  0
 16 14  1  0  0  0  0
 18 16  1  0  0  0  0
 19 23  1  6  0  0  0
 19 18  1  0  0  0  0
 20 22  1  6  0  0  0
 20 16  1  0  0  0  0
 21 15  1  1  0  0  0
 21 19  1  0  0  0  0
 21 20  1  0  0  0  0
 23 25  1  0  0  0  0
 24 23  1  0  0  0  0
 24 25  1  0  0  0  0
 26  6  1  0  0  0  0
 27 26  2  0  0  0  0
 28 30  2  0  0  0  0
 29 30  2  0  0  0  0
 30 27  1  0  0  0  0
 31 32  1  6  0  0  0
 31 30  1  0  0  0  0
 33 32  2  0  0  0  0
 35 34  1  6  0  0  0
 35 39  1  0  0  0  0
 36 39  1  0  0  0  0
 37 35  1  0  0  0  0
 37 38  1  0  0  0  0
 38 33  1  6  0  0  0
 38 36  1  0  0  0  0
 40 31  1  0  0  0  0
 40 43  1  0  0  0  0
 41 43  2  0  0  0  0
 43 42  1  0  0  0  0
 43 44  1  0  0  0  0
M  END
>  <MODEL>
5

>  <REMARK>
 VINA RESULT:      -7.6      3.604      8.187
  Name = 
  11 active torsions:
  status: ('A' for Active; 'I' for Inactive)
    1  A    between atoms: C_1  and  C_24
    2  A    between atoms: C_2  and  C_38
    3  A    between atoms: C_6  and  C_30
    4  A    between atoms: C_8  and  S_42
    5  A    between atoms: C_11  and  C_41
    6  A    between atoms: C_17  and  C_20
    7  A    between atoms: C_24  and  O_39
    8  A    between atoms: C_24  and  S_42
    9  A    between atoms: P_27  and  O_39
   10  A    between atoms: C_37  and  C_44
   11  A    between atoms: C_41  and  C_43
                            x       y       z     vdW  Elec       q    Type
                         _______ _______ _______ _____ _____    ______ ____

>  <TORSDO>
F 11

$$$$
=
 OpenBabel11062415493D

 44 48  0  0  1  0  0  0  0  0999 V2000
  184.0360  179.0840  140.4260 C   0  0  0  0  0  3  0  0  0  0  0  0
  182.0480  179.0450  142.7050 C   0  0  0  0  0  3  0  0  0  0  0  0
  181.2050  179.1540  141.5010 C   0  0  0  0  0  3  0  0  0  0  0  0
  182.9700  179.5620  139.8610 N   0  0  0  0  0  0  0  0  0  0  0  0
  183.9850  178.0720  141.5190 C   0  0  0  0  0  2  0  0  0  0  0  0
  183.3120  178.6050  142.7380 C   0  0  0  0  0  0  0  0  0  0  0  0
  181.6060  179.2780  140.2250 C   0  0  0  0  0  0  0  0  0  0  0  0
  180.5930  178.9460  136.4460 S   0  0  0  0  0  0  0  0  0  0  0  0
  180.1110  177.8590  138.8220 C   0  0  0  0  0  2  0  0  0  0  0  0
  180.9800  179.9930  137.8860 C   0  0  0  0  0  2  0  0  0  0  0  0
  180.5330  179.2860  139.1640 C   0  0  2  0  0  3  0  0  0  0  0  0
  180.7030  177.4620  137.4820 C   0  0  2  0  0  3  0  0  0  0  0  0
  182.8550  177.3870  136.4230 O   0  0  0  0  0  1  0  0  0  0  0  0
  182.1690  176.9940  137.5760 C   0  0  2  0  0  3  0  0  0  0  0  0
  182.7300  173.6530  135.0510 F   0  0  0  0  0  0  0  0  0  0  0  0
  182.3580  175.4810  137.8240 C   0  0  1  0  0  0  0  0  0  0  0  0
  182.6920  175.2520  139.1490 F   0  0  0  0  0  0  0  0  0  0  0  0
  181.1180  174.6690  137.4970 C   0  0  0  0  0  2  0  0  0  0  0  0
  181.6700  173.3030  137.1720 C   0  0  2  0  0  3  0  0  0  0  0  0
  183.4560  174.9110  136.9130 C   0  0  2  0  0  3  0  0  0  0  0  0
  182.9660  173.5590  136.4130 C   0  0  2  0  0  3  0  0  0  0  0  0
  184.6620  174.7630  137.5980 O   0  0  0  0  0  1  0  0  0  0  0  0
  180.6670  172.4530  136.4070 C   0  0  0  0  0  3  0  0  0  0  0  0
  181.0270  171.1260  136.5000 O   0  0  0  0  0  0  0  0  0  0  0  0
  180.0400  171.5910  137.2810 O   0  0  0  0  0  0  0  0  0  0  0  0
  183.9830  178.3590  144.0230 C   0  0  0  0  0  3  0  0  0  0  0  0
  184.9300  179.1560  144.5100 C   0  0  0  0  0  3  0  0  0  0  0  0
  186.0140  180.2010  146.7110 O   0  0  0  0  0  0  0  0  0  0  0  0
  184.5600  178.2520  146.9780 O   0  0  0  0  0  0  0  0  0  0  0  0
  185.6050  178.8860  146.1080 S   0  0  0  0  0  0  0  0  0  0  0  0
  187.0180  177.7870  145.9790 C   0  0  2  0  0  3  0  0  0  0  0  0
  186.8280  176.6570  144.9940 C   0  0  0  0  0  3  0  0  0  0  0  0
  187.3600  176.5070  143.7670 C   0  0  0  0  0  3  0  0  0  0  0  0
  190.3210  176.5130  140.4200 O   0  0  0  0  0  1  0  0  0  0  0  0
  190.0710  177.4920  141.3810 C   0  0  2  0  0  3  0  0  0  0  0  0
  187.7130  177.9690  141.7340 C   0  0  0  0  0  2  0  0  0  0  0  0
  189.6370  176.8290  142.6790 C   0  0  0  0  0  2  0  0  0  0  0  0
  188.2860  177.4260  143.0150 C   0  0  2  0  0  3  0  0  0  0  0  0
  188.9220  178.3740  140.9200 C   0  0  0  0  0  2  0  0  0  0  0  0
  187.4390  177.3420  147.2340 O   0  0  0  0  0  0  0  0  0  0  0  0
  189.6290  178.3590  145.8600 O   0  0  0  0  0  0  0  0  0  0  0  0
  189.5050  178.3570  148.4720 O   0  0  0  0  0  1  0  0  0  0  0  0
  189.1230  177.5460  147.2550 P   0  0  0  0  0  0  0  0  0  0  0  0
  189.8830  176.0360  147.3360 O   0  0  0  0  0  1  0  0  0  0  0  0
  1  5  1  0  0  0  0
  2  6  2  0  0  0  0
  3  2  1  0  0  0  0
  4  7  1  0  0  0  0
  4  1  2  0  0  0  0
  5  6  1  0  0  0  0
  6 26  1  0  0  0  0
  7  3  2  0  0  0  0
  8 12  1  0  0  0  0
  8 10  1  0  0  0  0
  9 11  1  0  0  0  0
 10 11  1  0  0  0  0
 11  7  1  1  0  0  0
 12 14  1  1  0  0  0
 12  9  1  0  0  0  0
 14 13  1  6  0  0  0
 14 16  1  0  0  0  0
 16 17  1  1  0  0  0
 18 16  1  0  0  0  0
 19 23  1  6  0  0  0
 19 18  1  0  0  0  0
 20 22  1  1  0  0  0
 20 16  1  0  0  0  0
 21 15  1  6  0  0  0
 21 20  1  0  0  0  0
 21 19  1  0  0  0  0
 23 24  1  0  0  0  0
 23 25  1  0  0  0  0
 24 25  1  0  0  0  0
 26 27  2  0  0  0  0
 27 30  1  0  0  0  0
 30 28  2  0  0  0  0
 30 29  2  0  0  0  0
 31 32  1  6  0  0  0
 31 30  1  0  0  0  0
 31 40  1  0  0  0  0
 33 32  2  0  0  0  0
 35 34  1  6  0  0  0
 35 37  1  0  0  0  0
 36 38  1  0  0  0  0
 37 38  1  0  0  0  0
 38 33  1  6  0  0  0
 39 35  1  0  0  0  0
 39 36  1  0  0  0  0
 40 43  1  0  0  0  0
 41 43  2  0  0  0  0
 43 44  1  0  0  0  0
 43 42  1  0  0  0  0
M  END
>  <MODEL>
6

>  <REMARK>
 VINA RESULT:      -7.6      3.117      5.662
  Name = 
  11 active torsions:
  status: ('A' for Active; 'I' for Inactive)
    1  A    between atoms: C_1  and  C_24
    2  A    between atoms: C_2  and  C_38
    3  A    between atoms: C_6  and  C_30
    4  A    between atoms: C_8  and  S_42
    5  A    between atoms: C_11  and  C_41
    6  A    between atoms: C_17  and  C_20
    7  A    between atoms: C_24  and  O_39
    8  A    between atoms: C_24  and  S_42
    9  A    between atoms: P_27  and  O_39
   10  A    between atoms: C_37  and  C_44
   11  A    between atoms: C_41  and  C_43
                            x       y       z     vdW  Elec       q    Type
                         _______ _______ _______ _____ _____    ______ ____

>  <TORSDO>
F 11

$$$$
=
 OpenBabel11062415493D

 44 48  0  0  1  0  0  0  0  0999 V2000
  186.8520  177.1110  143.2820 C   0  0  0  0  0  3  0  0  0  0  0  0
  185.1730  178.2690  145.5160 C   0  0  0  0  0  3  0  0  0  0  0  0
  186.5340  178.2280  146.0800 C   0  0  0  0  0  3  0  0  0  0  0  0
  187.6170  176.9310  144.3150 N   0  0  0  0  0  0  0  0  0  0  0  0
  185.9200  178.2690  143.1610 C   0  0  0  0  0  2  0  0  0  0  0  0
  184.8650  178.2450  144.2130 C   0  0  0  0  0  0  0  0  0  0  0  0
  187.6450  177.7300  145.5120 C   0  0  0  0  0  0  0  0  0  0  0  0
  191.3130  176.5250  146.2230 S   0  0  0  0  0  0  0  0  0  0  0  0
  189.9530  178.6700  145.4420 C   0  0  0  0  0  2  0  0  0  0  0  0
  189.5490  176.5480  146.6740 C   0  0  0  0  0  2  0  0  0  0  0  0
  188.9370  177.8890  146.2730 C   0  0  2  0  0  3  0  0  0  0  0  0
  191.0000  177.7170  144.8930 C   0  0  2  0  0  3  0  0  0  0  0  0
  191.1050  175.6960  143.6040 O   0  0  0  0  0  1  0  0  0  0  0  0
  190.5440  176.9770  143.6200 C   0  0  2  0  0  3  0  0  0  0  0  0
  190.0140  176.0070  139.5420 F   0  0  0  0  0  0  0  0  0  0  0  0
  190.8450  177.7110  142.2950 C   0  0  1  0  0  0  0  0  0  0  0  0
  191.0600  179.0580  142.5330 F   0  0  0  0  0  0  0  0  0  0  0  0
  192.0580  177.1540  141.5730 C   0  0  0  0  0  2  0  0  0  0  0  0
  191.7950  177.5010  140.1270 C   0  0  2  0  0  3  0  0  0  0  0  0
  189.6830  177.5450  141.3030 C   0  0  2  0  0  3  0  0  0  0  0  0
  190.2970  177.3070  139.9300 C   0  0  2  0  0  3  0  0  0  0  0  0
  188.8690  178.6780  141.2760 O   0  0  0  0  0  1  0  0  0  0  0  0
  192.6530  176.6750  139.1810 C   0  0  0  0  0  3  0  0  0  0  0  0
  193.5570  177.4990  138.5480 O   0  0  0  0  0  0  0  0  0  0  0  0
  193.9700  176.7470  139.5790 O   0  0  0  0  0  0  0  0  0  0  0  0
  183.4840  178.4860  143.7690 C   0  0  0  0  0  3  0  0  0  0  0  0
  183.1750  178.8500  142.5280 C   0  0  0  0  0  3  0  0  0  0  0  0
  180.5930  178.6190  143.1540 O   0  0  0  0  0  0  0  0  0  0  0  0
  181.2340  180.4250  141.6340 O   0  0  0  0  0  0  0  0  0  0  0  0
  181.5020  178.9990  142.0190 S   0  0  0  0  0  0  0  0  0  0  0  0
  181.2140  177.9380  140.6010 C   0  0  2  0  0  3  0  0  0  0  0  0
  181.4000  178.6290  139.2700 C   0  0  0  0  0  3  0  0  0  0  0  0
  182.4840  178.6460  138.4710 C   0  0  0  0  0  3  0  0  0  0  0  0
  186.4770  178.1780  136.5220 O   0  0  0  0  0  1  0  0  0  0  0  0
  185.9360  177.4860  137.6050 C   0  0  2  0  0  3  0  0  0  0  0  0
  184.8700  178.9050  139.2670 C   0  0  0  0  0  2  0  0  0  0  0  0
  184.4290  177.3760  137.4330 C   0  0  0  0  0  2  0  0  0  0  0  0
  183.8250  177.9960  138.6780 C   0  0  2  0  0  3  0  0  0  0  0  0
  186.1870  178.2670  138.8840 C   0  0  0  0  0  2  0  0  0  0  0  0
  179.9890  177.2730  140.6950 O   0  0  0  0  0  0  0  0  0  0  0  0
  181.8160  175.3730  139.8190 O   0  0  0  0  0  1  0  0  0  0  0  0
  179.3810  174.7380  140.5250 O   0  0  0  0  0  1  0  0  0  0  0  0
  180.1840  175.8210  139.8430 P   0  0  0  0  0  0  0  0  0  0  0  0
  179.6280  176.0070  138.2550 O   0  0  0  0  0  0  0  0  0  0  0  0
  1  4  2  0  0  0  0
  2  3  1  0  0  0  0
  4  7  1  0  0  0  0
  5  1  1  0  0  0  0
  5  6  1  0  0  0  0
  6  2  2  0  0  0  0
  7  3  2  0  0  0  0
  8 10  1  0  0  0  0
  9 11  1  0  0  0  0
 11  7  1  6  0  0  0
 11 10  1  0  0  0  0
 12 14  1  6  0  0  0
 12  9  1  0  0  0  0
 12  8  1  0  0  0  0
 14 13  1  6  0  0  0
 16 17  1  1  0  0  0
 16 14  1  0  0  0  0
 18 16  1  0  0  0  0
 19 23  1  6  0  0  0
 19 18  1  0  0  0  0
 20 22  1  6  0  0  0
 20 16  1  0  0  0  0
 21 15  1  1  0  0  0
 21 19  1  0  0  0  0
 21 20  1  0  0  0  0
 23 25  1  0  0  0  0
 24 23  1  0  0  0  0
 24 25  1  0  0  0  0
 26  6  1  0  0  0  0
 27 26  2  0  0  0  0
 29 30  2  0  0  0  0
 30 27  1  0  0  0  0
 30 28  2  0  0  0  0
 31 32  1  6  0  0  0
 31 40  1  0  0  0  0
 31 30  1  0  0  0  0
 33 32  2  0  0  0  0
 35 34  1  6  0  0  0
 35 39  1  0  0  0  0
 37 35  1  0  0  0  0
 37 38  1  0  0  0  0
 38 33  1  6  0  0  0
 38 36  1  0  0  0  0
 39 36  1  0  0  0  0
 41 43  1  0  0  0  0
 43 42  1  0  0  0  0
 43 40  1  0  0  0  0
 44 43  2  0  0  0  0
M  END
>  <MODEL>
7

>  <REMARK>
 VINA RESULT:      -7.5      3.704      9.281
  Name = 
  11 active torsions:
  status: ('A' for Active; 'I' for Inactive)
    1  A    between atoms: C_1  and  C_24
    2  A    between atoms: C_2  and  C_38
    3  A    between atoms: C_6  and  C_30
    4  A    between atoms: C_8  and  S_42
    5  A    between atoms: C_11  and  C_41
    6  A    between atoms: C_17  and  C_20
    7  A    between atoms: C_24  and  O_39
    8  A    between atoms: C_24  and  S_42
    9  A    between atoms: P_27  and  O_39
   10  A    between atoms: C_37  and  C_44
   11  A    between atoms: C_41  and  C_43
                            x       y       z     vdW  Elec       q    Type
                         _______ _______ _______ _____ _____    ______ ____

>  <TORSDO>
F 11

$$$$
=
 OpenBabel11062415493D

 44 48  0  0  1  0  0  0  0  0999 V2000
  187.8320  175.7340  136.2750 C   0  0  0  0  0  3  0  0  0  0  0  0
  186.7170  178.0530  137.8650 C   0  0  0  0  0  3  0  0  0  0  0  0
  185.6100  177.6720  136.9700 C   0  0  0  0  0  3  0  0  0  0  0  0
  186.8220  176.1000  135.5450 N   0  0  0  0  0  0  0  0  0  0  0  0
  187.8390  175.8540  137.7600 C   0  0  0  0  0  2  0  0  0  0  0  0
  187.7530  177.2740  138.2030 C   0  0  0  0  0  0  0  0  0  0  0  0
  185.6150  176.7350  136.0080 C   0  0  0  0  0  0  0  0  0  0  0  0
  181.9860  175.2380  136.0140 S   0  0  0  0  0  0  0  0  0  0  0  0
  183.2780  177.5340  135.6710 C   0  0  0  0  0  2  0  0  0  0  0  0
  183.7470  175.0940  135.5720 C   0  0  0  0  0  2  0  0  0  0  0  0
  184.3160  176.4820  135.2850 C   0  0  2  0  0  3  0  0  0  0  0  0
  182.2640  176.9230  136.6220 C   0  0  2  0  0  3  0  0  0  0  0  0
  182.3580  175.6710  138.6670 O   0  0  0  0  0  1  0  0  0  0  0  0
  182.7490  176.8810  138.0850 C   0  0  2  0  0  3  0  0  0  0  0  0
  183.3100  177.9300  142.1390 F   0  0  0  0  0  0  0  0  0  0  0  0
  182.2920  178.0690  138.9590 C   0  0  1  0  0  0  0  0  0  0  0  0
  181.8640  179.1150  138.1580 F   0  0  0  0  0  0  0  0  0  0  0  0
  181.1670  177.7050  139.9100 C   0  0  0  0  0  2  0  0  0  0  0  0
  181.3250  178.6970  141.0370 C   0  0  2  0  0  3  0  0  0  0  0  0
  183.4350  178.5520  139.8650 C   0  0  2  0  0  3  0  0  0  0  0  0
  182.8280  178.8560  141.2280 C   0  0  2  0  0  3  0  0  0  0  0  0
  184.0500  179.6930  139.3470 O   0  0  0  0  0  1  0  0  0  0  0  0
  180.5880  178.2530  142.2910 C   0  0  0  0  0  3  0  0  0  0  0  0
  179.9510  179.3380  142.8530 O   0  0  0  0  0  0  0  0  0  0  0  0
  179.2370  178.4670  142.1250 O   0  0  0  0  0  0  0  0  0  0  0  0
  188.6910  177.6960  139.2540 C   0  0  0  0  0  3  0  0  0  0  0  0
  188.5380  177.3710  140.5350 C   0  0  0  0  0  3  0  0  0  0  0  0
  191.1240  177.4990  141.1760 O   0  0  0  0  0  0  0  0  0  0  0  0
  189.6560  179.2600  142.0280 O   0  0  0  0  0  0  0  0  0  0  0  0
  189.7560  177.7930  141.7260 S   0  0  0  0  0  0  0  0  0  0  0  0
  189.4680  176.8570  143.2290 C   0  0  2  0  0  3  0  0  0  0  0  0
  188.1130  176.1910  143.2860 C   0  0  0  0  0  3  0  0  0  0  0  0
  186.9980  176.5960  143.9240 C   0  0  0  0  0  3  0  0  0  0  0  0
  183.7510  178.9970  145.8370 O   0  0  0  0  0  1  0  0  0  0  0  0
  185.0960  179.3160  145.6540 C   0  0  2  0  0  3  0  0  0  0  0  0
  186.6380  177.5320  146.2460 C   0  0  0  0  0  2  0  0  0  0  0  0
  185.5990  178.6740  144.3710 C   0  0  0  0  0  2  0  0  0  0  0  0
  186.7840  177.8190  144.7750 C   0  0  2  0  0  3  0  0  0  0  0  0
  185.9150  178.7400  146.7980 C   0  0  0  0  0  2  0  0  0  0  0  0
  189.7430  177.6160  144.3690 O   0  0  0  0  0  0  0  0  0  0  0  0
  191.8050  175.7940  143.9900 O   0  0  0  0  0  0  0  0  0  0  0  0
  192.2520  178.2730  144.6890 O   0  0  0  0  0  1  0  0  0  0  0  0
  191.2830  177.1310  144.8870 P   0  0  0  0  0  0  0  0  0  0  0  0
  191.2350  176.7240  146.5300 O   0  0  0  0  0  1  0  0  0  0  0  0
  1  5  1  0  0  0  0
  2  6  2  0  0  0  0
  3  2  1  0  0  0  0
  4  7  1  0  0  0  0
  4  1  2  0  0  0  0
  5  6  1  0  0  0  0
  6 26  1  0  0  0  0
  7  3  2  0  0  0  0
  8 12  1  0  0  0  0
  9 12  1  0  0  0  0
 10  8  1  0  0  0  0
 11 10  1  0  0  0  0
 11  9  1  0  0  0  0
 11  7  1  1  0  0  0
 12 14  1  1  0  0  0
 14 13  1  1  0  0  0
 14 16  1  0  0  0  0
 16 17  1  6  0  0  0
 16 20  1  0  0  0  0
 16 18  1  0  0  0  0
 18 19  1  0  0  0  0
 19 21  1  0  0  0  0
 19 23  1  1  0  0  0
 20 22  1  6  0  0  0
 20 21  1  0  0  0  0
 21 15  1  1  0  0  0
 23 24  1  0  0  0  0
 25 23  1  0  0  0  0
 25 24  1  0  0  0  0
 26 27  2  0  0  0  0
 27 30  1  0  0  0  0
 28 30  2  0  0  0  0
 30 29  2  0  0  0  0
 30 31  1  0  0  0  0
 31 32  1  1  0  0  0
 31 40  1  0  0  0  0
 32 33  2  0  0  0  0
 35 34  1  1  0  0  0
 35 39  1  0  0  0  0
 36 39  1  0  0  0  0
 37 38  1  0  0  0  0
 37 35  1  0  0  0  0
 38 33  1  6  0  0  0
 38 36  1  0  0  0  0
 40 43  1  0  0  0  0
 41 43  2  0  0  0  0
 42 43  1  0  0  0  0
 43 44  1  0  0  0  0
M  END
>  <MODEL>
8

>  <REMARK>
 VINA RESULT:      -7.5      1.898      2.793
  Name = 
  11 active torsions:
  status: ('A' for Active; 'I' for Inactive)
    1  A    between atoms: C_1  and  C_24
    2  A    between atoms: C_2  and  C_38
    3  A    between atoms: C_6  and  C_30
    4  A    between atoms: C_8  and  S_42
    5  A    between atoms: C_11  and  C_41
    6  A    between atoms: C_17  and  C_20
    7  A    between atoms: C_24  and  O_39
    8  A    between atoms: C_24  and  S_42
    9  A    between atoms: P_27  and  O_39
   10  A    between atoms: C_37  and  C_44
   11  A    between atoms: C_41  and  C_43
                            x       y       z     vdW  Elec       q    Type
                         _______ _______ _______ _____ _____    ______ ____

>  <TORSDO>
F 11

$$$$
=
 OpenBabel11062415493D

 44 48  0  0  1  0  0  0  0  0999 V2000
  183.8440  179.6900  139.0320 C   0  0  0  0  0  3  0  0  0  0  0  0
  183.1910  177.5830  141.1020 C   0  0  0  0  0  3  0  0  0  0  0  0
  182.7750  176.9700  139.8280 C   0  0  0  0  0  3  0  0  0  0  0  0
  183.0100  178.9310  138.3890 N   0  0  0  0  0  0  0  0  0  0  0  0
  184.7810  179.1650  140.0660 C   0  0  0  0  0  2  0  0  0  0  0  0
  184.0550  178.5980  141.2370 C   0  0  0  0  0  0  0  0  0  0  0  0
  182.7900  177.5240  138.6050 C   0  0  0  0  0  0  0  0  0  0  0  0
  182.8710  176.7720  134.7520 S   0  0  0  0  0  0  0  0  0  0  0  0
  183.5200  175.6850  137.0880 C   0  0  0  0  0  2  0  0  0  0  0  0
  182.0080  177.4510  136.2050 C   0  0  0  0  0  2  0  0  0  0  0  0
  182.3880  176.6460  137.4460 C   0  0  2  0  0  3  0  0  0  0  0  0
  184.2030  176.1560  135.8170 C   0  0  2  0  0  3  0  0  0  0  0  0
  185.7520  177.7010  134.8310 O   0  0  0  0  0  1  0  0  0  0  0  0
  185.2410  177.2710  136.0590 C   0  0  2  0  0  3  0  0  0  0  0  0
  189.4510  177.2010  135.7060 F   0  0  0  0  0  0  0  0  0  0  0  0
  186.3920  176.8940  137.0180 C   0  0  1  0  0  0  0  0  0  0  0  0
  185.9320  176.8560  138.3240 F   0  0  0  0  0  0  0  0  0  0  0  0
  187.0170  175.5510  136.6920 C   0  0  0  0  0  2  0  0  0  0  0  0
  188.4180  175.6740  137.2390 C   0  0  2  0  0  3  0  0  0  0  0  0
  187.5450  177.9040  136.9090 C   0  0  2  0  0  3  0  0  0  0  0  0
  188.8420  177.1080  136.9470 C   0  0  2  0  0  3  0  0  0  0  0  0
  187.5150  178.8270  137.9560 O   0  0  0  0  0  1  0  0  0  0  0  0
  189.3510  174.6260  136.6530 C   0  0  0  0  0  3  0  0  0  0  0  0
  190.3540  174.3510  137.5570 O   0  0  0  0  0  0  0  0  0  0  0  0
  189.3250  173.4990  137.4460 O   0  0  0  0  0  0  0  0  0  0  0  0
  184.5360  178.9950  142.5680 C   0  0  0  0  0  3  0  0  0  0  0  0
  184.3890  178.2340  143.6490 C   0  0  0  0  0  3  0  0  0  0  0  0
  185.4220  180.1670  145.1680 O   0  0  0  0  0  0  0  0  0  0  0  0
  184.1050  178.4320  146.2810 O   0  0  0  0  0  0  0  0  0  0  0  0
  185.0970  178.6990  145.1860 S   0  0  0  0  0  0  0  0  0  0  0  0
  186.5790  177.7300  145.4770 C   0  0  2  0  0  3  0  0  0  0  0  0
  186.8830  176.7330  144.3840 C   0  0  0  0  0  3  0  0  0  0  0  0
  188.0770  176.3690  143.8790 C   0  0  0  0  0  3  0  0  0  0  0  0
  192.0400  177.3480  142.0610 O   0  0  0  0  0  1  0  0  0  0  0  0
  191.6970  177.1960  143.4040 C   0  0  2  0  0  3  0  0  0  0  0  0
  189.6510  178.3410  144.0510 C   0  0  0  0  0  2  0  0  0  0  0  0
  190.5890  176.1630  143.5290 C   0  0  0  0  0  2  0  0  0  0  0  0
  189.4510  176.8620  144.2460 C   0  0  2  0  0  3  0  0  0  0  0  0
  191.1510  178.5090  143.9410 C   0  0  0  0  0  2  0  0  0  0  0  0
  186.5730  177.1500  146.7480 O   0  0  0  0  0  0  0  0  0  0  0  0
  186.9520  179.6930  147.8000 O   0  0  0  0  0  1  0  0  0  0  0  0
  187.6590  177.5340  149.0930 O   0  0  0  0  0  1  0  0  0  0  0  0
  187.5790  178.1240  147.7040 P   0  0  0  0  0  0  0  0  0  0  0  0
  189.1330  178.1770  147.0340 O   0  0  0  0  0  0  0  0  0  0  0  0
  1  5  1  0  0  0  0
  2  6  2  0  0  0  0
  3  2  1  0  0  0  0
  4  7  1  0  0  0  0
  4  1  2  0  0  0  0
  5  6  1  0  0  0  0
  6 26  1  0  0  0  0
  7  3  2  0  0  0  0
  8 12  1  0  0  0  0
  8 10  1  0  0  0  0
  9 11  1  0  0  0  0
 10 11  1  0  0  0  0
 11  7  1  1  0  0  0
 12 14  1  1  0  0  0
 12  9  1  0  0  0  0
 14 13  1  6  0  0  0
 14 16  1  0  0  0  0
 16 17  1  1  0  0  0
 18 16  1  0  0  0  0
 18 19  1  0  0  0  0
 19 23  1  6  0  0  0
 20 21  1  0  0  0  0
 20 16  1  0  0  0  0
 20 22  1  1  0  0  0
 21 15  1  6  0  0  0
 21 19  1  0  0  0  0
 23 25  1  0  0  0  0
 23 24  1  0  0  0  0
 25 24  1  0  0  0  0
 26 27  2  0  0  0  0
 27 30  1  0  0  0  0
 28 30  2  0  0  0  0
 30 31  1  0  0  0  0
 30 29  2  0  0  0  0
 31 32  1  6  0  0  0
 31 40  1  0  0  0  0
 33 32  2  0  0  0  0
 35 34  1  6  0  0  0
 35 37  1  0  0  0  0
 35 39  1  0  0  0  0
 36 38  1  0  0  0  0
 37 38  1  0  0  0  0
 38 33  1  6  0  0  0
 39 36  1  0  0  0  0
 40 43  1  0  0  0  0
 43 41  1  0  0  0  0
 43 42  1  0  0  0  0
 44 43  2  0  0  0  0
M  END
>  <MODEL>
9

>  <REMARK>
 VINA RESULT:      -7.5      2.872      5.648
  Name = 
  11 active torsions:
  status: ('A' for Active; 'I' for Inactive)
    1  A    between atoms: C_1  and  C_24
    2  A    between atoms: C_2  and  C_38
    3  A    between atoms: C_6  and  C_30
    4  A    between atoms: C_8  and  S_42
    5  A    between atoms: C_11  and  C_41
    6  A    between atoms: C_17  and  C_20
    7  A    between atoms: C_24  and  O_39
    8  A    between atoms: C_24  and  S_42
    9  A    between atoms: P_27  and  O_39
   10  A    between atoms: C_37  and  C_44
   11  A    between atoms: C_41  and  C_43
                            x       y       z     vdW  Elec       q    Type
                         _______ _______ _______ _____ _____    ______ ____

>  <TORSDO>
F 11

$$$$
