=
 OpenBabel11062417383D

 65 72  0  0  1  0  0  0  0  0999 V2000
  192.2720  177.7420  140.3360 C   0  0  0  0  0  2  0  0  0  0  0  0
  189.7290  175.8110  139.1430 O   0  0  0  0  0  0  0  0  0  0  0  0
  188.4550  176.3400  136.2770 C   0  0  1  0  0  3  0  0  0  0  0  0
  188.2130  174.2410  137.1780 C   0  0  1  0  0  3  0  0  0  0  0  0
  193.1370  176.7690  139.5460 C   0  0  0  0  0  2  0  0  0  0  0  0
  190.0180  177.1290  139.5340 C   0  0  0  0  0  2  0  0  0  0  0  0
  190.2980  175.5220  137.8730 C   0  0  2  0  0  0  0  0  0  0  0  0
  187.8880  173.5810  135.9900 O   0  0  0  0  0  1  0  0  0  0  0  0
  192.6270  176.6130  138.1230 C   0  0  1  0  0  3  0  0  0  0  0  0
  189.7300  174.1690  137.4400 C   0  0  0  0  0  2  0  0  0  0  0  0
  193.7150  176.5650  137.2520 O   0  0  0  0  0  1  0  0  0  0  0  0
  191.8250  175.3220  137.9870 C   0  0  0  0  0  2  0  0  0  0  0  0
  190.7610  176.5120  135.6880 O   0  0  0  0  0  1  0  0  0  0  0  0
  190.9470  177.1040  140.7360 C   0  0  2  0  0  3  0  0  0  0  0  0
  189.8940  176.5660  136.7840 C   0  0  1  0  0  3  0  0  0  0  0  0
  187.6990  175.5620  137.1790 O   0  0  0  0  0  0  0  0  0  0  0  0
  187.7280  177.6500  135.9670 C   0  0  1  0  0  3  0  0  0  0  0  0
  187.8070  177.9410  134.6030 O   0  0  0  0  0  1  0  0  0  0  0  0
  186.2680  177.5950  136.3980 C   0  0  0  0  0  2  0  0  0  0  0  0
  185.9990  178.6130  137.4890 C   0  0  0  0  0  2  0  0  0  0  0  0
  182.5660  178.7510  137.3000 N   0  0  0  0  0  0  0  0  0  0  0  0
  184.1370  179.2160  139.0440 C   0  0  0  0  0  2  0  0  0  0  0  0
  184.9830  178.0590  138.4680 C   0  0  1  0  0  3  0  0  0  0  0  0
  182.6590  179.0040  138.7380 C   0  0  2  0  0  3  0  0  0  0  0  0
  182.8730  177.3250  137.1090 C   0  0  1  0  0  3  0  0  0  0  0  0
  184.1810  176.8960  137.8120 C   0  0  2  0  0  3  0  0  0  0  0  0
  181.2720  178.9330  136.9380 O   0  0  0  0  0  1  0  0  0  0  0  0
  182.2570  177.7140  139.4240 C   0  0  0  0  0  2  0  0  0  0  0  0
  182.8200  176.6720  138.4730 C   0  0  1  0  0  0  0  0  0  0  0  0
  180.2450  174.0580  138.5700 N   0  0  0  0  0  2  0  0  0  0  0  0
  180.8220  175.4000  138.5200 C   0  0  0  0  0  2  0  0  0  0  0  0
  180.5090  173.4020  137.2910 C   0  0  0  0  0  2  0  0  0  0  0  0
  182.2810  175.3110  138.4260 N   0  0  1  0  0  0  0  0  0  0  0  0
  182.0130  173.2930  137.0540 C   0  0  0  0  0  2  0  0  0  0  0  0
  182.6250  174.6880  137.1430 C   0  0  0  0  0  2  0  0  0  0  0  0
  190.3100  177.8180  141.9380 C   0  0  2  0  0  3  0  0  0  0  0  0
  191.2530  178.6640  142.5370 O   0  0  0  0  0  0  0  0  0  0  0  0
  191.5690  179.7940  144.6010 C   0  0  0  0  0  1  0  0  0  0  0  0
  190.5710  179.2840  143.5830 C   0  0  0  0  0  2  0  0  0  0  0  0
  189.7870  176.7810  142.9590 C   0  0  1  0  0  3  0  0  0  0  0  0
  188.2900  176.5100  142.8490 C   0  0  0  0  0  2  0  0  0  0  0  0
  187.5190  177.7920  143.1250 C   0  0  2  0  0  3  0  0  0  0  0  0
  186.1280  179.0820  147.4710 C   0  0  0  0  0  2  0  0  0  0  0  0
  188.4260  175.8150  148.5950 C   0  0  0  0  0  1  0  0  0  0  0  0
  189.3830  178.0190  148.2290 N   0  0  0  0  0  2  0  0  0  0  0  0
  188.3520  178.9050  148.3370 O   0  0  0  0  0  0  0  0  0  0  0  0
  187.6930  177.2870  146.7660 C   0  0  2  0  0  3  0  0  0  0  0  0
  185.6020  177.3970  144.7030 C   0  0  0  0  0  2  0  0  0  0  0  0
  187.9440  177.0790  145.3880 O   0  0  0  0  0  0  0  0  0  0  0  0
  185.3840  179.2090  146.2860 O   0  0  0  0  0  0  0  0  0  0  0  0
  187.0690  177.8480  144.5850 C   0  0  1  0  0  3  0  0  0  0  0  0
  187.5900  178.7470  147.1720 C   0  0  1  0  0  3  0  0  0  0  0  0
  184.9350  177.9140  145.9800 C   0  0  0  0  0  2  0  0  0  0  0  0
  188.8730  176.8310  147.5610 C   0  0  2  0  0  3  0  0  0  0  0  0
  186.3320  177.8600  142.1790 C   0  0  0  0  0  2  0  0  0  0  0  0
  185.3210  178.8060  142.7300 C   0  0  0  0  0  3  0  0  0  0  0  0
  184.0340  178.6560  142.4370 C   0  0  0  0  0  3  0  0  0  0  0  0
  183.0300  179.6090  142.9880 C   0  0  0  0  0  2  0  0  0  0  0  0
  181.6420  178.9930  142.9310 C   0  0  0  0  0  2  0  0  0  0  0  0
  179.8610  178.3520  144.0640 C   0  0  0  0  0  1  0  0  0  0  0  0
  181.2120  178.6660  144.2180 O   0  0  0  0  0  0  0  0  0  0  0  0
  190.5640  175.4650  142.9030 C   0  0  0  0  0  2  0  0  0  0  0  0
  191.9000  175.5520  143.6240 C   0  0  0  0  0  2  0  0  0  0  0  0
  191.8100  176.4740  145.8810 C   0  0  0  0  0  2  0  0  0  0  0  0
  191.6790  175.4140  145.0910 C   0  0  0  0  0  3  0  0  0  0  0  0
  1 14  1  0  0  0  0
  2  6  1  0  0  0  0
  3 17  1  1  0  0  0
  3 15  1  0  0  0  0
  3 16  1  0  0  0  0
  4  8  1  6  0  0  0
  4 16  1  0  0  0  0
  4 10  1  0  0  0  0
  5  1  1  0  0  0  0
  6 14  1  0  0  0  0
  7 10  1  6  0  0  0
  7 12  1  0  0  0  0
  7  2  1  0  0  0  0
  9 11  1  6  0  0  0
  9  5  1  0  0  0  0
 12  9  1  0  0  0  0
 14 36  1  1  0  0  0
 15 13  1  6  0  0  0
 15  7  1  0  0  0  0
 17 18  1  6  0  0  0
 17 19  1  0  0  0  0
 19 20  1  0  0  0  0
 21 24  1  0  0  0  0
 23 20  1  6  0  0  0
 23 22  1  0  0  0  0
 24 22  1  6  0  0  0
 24 28  1  0  0  0  0
 25 21  1  1  0  0  0
 25 26  1  0  0  0  0
 25 29  1  0  0  0  0
 26 23  1  0  0  0  0
 26 29  1  0  0  0  0
 27 21  1  0  0  0  0
 29 28  1  0  0  0  0
 31 30  1  0  0  0  0
 32 30  1  0  0  0  0
 33 29  1  0  0  0  0
 33 31  1  0  0  0  0
 34 35  1  0  0  0  0
 34 32  1  0  0  0  0
 35 33  1  0  0  0  0
 36 37  1  0  0  0  0
 36 40  1  0  0  0  0
 37 39  1  0  0  0  0
 39 38  1  0  0  0  0
 41 40  1  0  0  0  0
 41 42  1  0  0  0  0
 42 51  1  0  0  0  0
 45 46  1  0  0  0  0
 47 52  1  0  0  0  0
 47 54  1  0  0  0  0
 48 53  1  0  0  0  0
 49 47  1  0  0  0  0
 50 43  1  0  0  0  0
 51 48  1  0  0  0  0
 51 49  1  0  0  0  0
 52 43  1  0  0  0  0
 52 46  1  0  0  0  0
 53 50  1  0  0  0  0
 54 45  1  0  0  0  0
 54 44  1  0  0  0  0
 55 56  1  0  0  0  0
 55 42  1  0  0  0  0
 57 56  2  0  0  0  0
 57 58  1  0  0  0  0
 59 58  1  0  0  0  0
 59 61  1  0  0  0  0
 60 61  1  0  0  0  0
 62 40  1  0  0  0  0
 62 63  1  0  0  0  0
 63 65  1  0  0  0  0
 65 64  2  0  0  0  0
M  END
>  <MODEL>
1

>  <REMARK>
 VINA RESULT:      -6.2      0.000      0.000
  Name = 
  20 active torsions:
  status: ('A' for Active; 'I' for Inactive)
    1  A    between atoms: C_7  and  C_14
    2  A    between atoms: C_13  and  C_27
    3  A    between atoms: C_13  and  C_42
    4  A    between atoms: C_13  and  C_53
    5  A    between atoms: C_14  and  C_18
    6  A    between atoms: C_18  and  C_38
    7  A    between atoms: C_19  and  C_20
    8  A    between atoms: C_19  and  C_54
    9  A    between atoms: C_22  and  C_29
   10  A    between atoms: C_24  and  C_38
   11  A    between atoms: C_27  and  C_58
   12  A    between atoms: C_27  and  O_65
   13  A    between atoms: C_29  and  C_42
   14  A    between atoms: C_34  and  O_65
   15  A    between atoms: C_35  and  C_61
   16  A    between atoms: N_39  and  C_56
   17  A    between atoms: C_41  and  C_54
   18  A    between atoms: C_46  and  O_47
   19  A    between atoms: C_46  and  C_61
   20  A    between atoms: C_53  and  C_54
                            x       y       z     vdW  Elec       q    Type
                         _______ _______ _______ _____ _____    ______ ____

>  <TORSDO>
F 20

$$$$
=
 OpenBabel11062417383D

 65 72  0  0  1  0  0  0  0  0999 V2000
  183.7140  177.4330  135.2700 C   0  0  0  0  0  2  0  0  0  0  0  0
  182.2530  176.0220  138.0070 O   0  0  0  0  0  0  0  0  0  0  0  0
  180.6480  177.7790  140.1160 C   0  0  1  0  0  3  0  0  0  0  0  0
  180.1660  175.5350  140.0150 C   0  0  1  0  0  3  0  0  0  0  0  0
  182.3280  177.2580  134.6670 C   0  0  0  0  0  2  0  0  0  0  0  0
  183.2630  176.9290  137.6450 C   0  0  0  0  0  2  0  0  0  0  0  0
  180.9670  176.6050  137.8500 C   0  0  2  0  0  0  0  0  0  0  0  0
  178.9350  175.5940  140.6730 O   0  0  0  0  0  1  0  0  0  0  0  0
  181.2550  177.8170  135.5860 C   0  0  1  0  0  3  0  0  0  0  0  0
  179.9690  175.6370  138.4900 C   0  0  0  0  0  2  0  0  0  0  0  0
  180.2970  178.4790  134.8200 O   0  0  0  0  0  1  0  0  0  0  0  0
  180.5780  176.6880  136.3580 C   0  0  0  0  0  2  0  0  0  0  0  0
  179.7510  178.7080  138.1090 O   0  0  0  0  0  1  0  0  0  0  0  0
  183.9600  176.4290  136.3910 C   0  0  2  0  0  3  0  0  0  0  0  0
  180.8340  177.9700  138.5970 C   0  0  1  0  0  3  0  0  0  0  0  0
  181.0640  176.4980  140.5380 O   0  0  0  0  0  0  0  0  0  0  0  0
  181.3490  178.8630  140.9370 C   0  0  1  0  0  3  0  0  0  0  0  0
  180.8250  180.1220  140.6330 O   0  0  0  0  0  1  0  0  0  0  0  0
  181.2250  178.6000  142.4320 C   0  0  0  0  0  2  0  0  0  0  0  0
  182.3260  179.3170  143.1890 C   0  0  0  0  0  2  0  0  0  0  0  0
  185.5760  179.5410  142.0810 N   0  0  0  0  0  0  0  0  0  0  0  0
  183.9670  177.7700  142.1120 C   0  0  0  0  0  2  0  0  0  0  0  0
  183.4730  178.3620  143.4510 C   0  0  1  0  0  3  0  0  0  0  0  0
  185.4390  178.0970  141.8910 C   0  0  2  0  0  3  0  0  0  0  0  0
  185.6810  179.7600  143.5310 C   0  0  1  0  0  3  0  0  0  0  0  0
  184.5600  179.0530  144.3270 C   0  0  2  0  0  3  0  0  0  0  0  0
  186.7590  179.9120  141.5330 O   0  0  0  0  0  1  0  0  0  0  0  0
  186.2010  177.4440  143.0270 C   0  0  0  0  0  2  0  0  0  0  0  0
  185.9410  178.4120  144.1680 C   0  0  1  0  0  0  0  0  0  0  0  0
  187.0130  177.9630  147.6490 N   0  0  0  0  0  2  0  0  0  0  0  0
  186.1900  177.8250  146.4480 C   0  0  0  0  0  2  0  0  0  0  0  0
  188.2590  177.2300  147.4320 C   0  0  0  0  0  2  0  0  0  0  0  0
  186.8410  178.4950  145.3200 N   0  0  1  0  0  0  0  0  0  0  0  0
  189.0120  177.8100  146.2380 C   0  0  0  0  0  2  0  0  0  0  0  0
  188.0920  177.7880  145.0210 C   0  0  0  0  0  2  0  0  0  0  0  0
  185.4600  176.2120  136.6440 C   0  0  2  0  0  3  0  0  0  0  0  0
  186.1950  177.2160  135.9990 O   0  0  0  0  0  0  0  0  0  0  0  0
  187.7050  178.9790  136.5030 C   0  0  0  0  0  1  0  0  0  0  0  0
  186.6000  178.0780  137.0170 C   0  0  0  0  0  2  0  0  0  0  0  0
  185.8900  174.8160  136.1390 C   0  0  1  0  0  3  0  0  0  0  0  0
  187.1610  174.8320  135.2950 C   0  0  0  0  0  2  0  0  0  0  0  0
  188.2950  174.1780  136.0700 C   0  0  2  0  0  3  0  0  0  0  0  0
  192.1790  176.5470  137.4100 C   0  0  0  0  0  2  0  0  0  0  0  0
  189.4640  178.5800  139.8010 C   0  0  0  0  0  1  0  0  0  0  0  0
  190.4860  176.4830  140.4820 N   0  0  0  0  0  2  0  0  0  0  0  0
  191.6150  176.3470  139.7280 O   0  0  0  0  0  0  0  0  0  0  0  0
  189.8410  176.7230  138.2330 C   0  0  2  0  0  3  0  0  0  0  0  0
  189.6490  176.1720  135.3530 C   0  0  0  0  0  2  0  0  0  0  0  0
  188.8350  175.9090  137.6600 O   0  0  0  0  0  0  0  0  0  0  0  0
  191.9280  176.0100  136.1360 O   0  0  0  0  0  0  0  0  0  0  0  0
  189.3160  175.2240  136.5180 C   0  0  1  0  0  3  0  0  0  0  0  0
  191.1740  176.0230  138.4380 C   0  0  1  0  0  3  0  0  0  0  0  0
  190.9970  176.8730  135.5380 C   0  0  0  0  0  2  0  0  0  0  0  0
  189.4610  177.0730  139.6350 C   0  0  2  0  0  3  0  0  0  0  0  0
  188.9390  173.1200  135.1910 C   0  0  0  0  0  2  0  0  0  0  0  0
  190.3510  172.9180  135.6240 C   0  0  0  0  0  3  0  0  0  0  0  0
  191.1750  172.1770  134.8910 C   0  0  0  0  0  3  0  0  0  0  0  0
  192.5840  171.9760  135.3340 C   0  0  0  0  0  2  0  0  0  0  0  0
  193.5030  172.9340  134.5940 C   0  0  0  0  0  2  0  0  0  0  0  0
  193.9660  173.1410  136.7410 C   0  0  0  0  0  1  0  0  0  0  0  0
  194.1700  173.7550  135.5040 O   0  0  0  0  0  0  0  0  0  0  0  0
  186.0260  173.8020  137.2750 C   0  0  0  0  0  2  0  0  0  0  0  0
  185.6590  172.3920  136.8370 C   0  0  0  0  0  2  0  0  0  0  0  0
  183.2220  172.3800  136.7170 C   0  0  0  0  0  2  0  0  0  0  0  0
  184.3810  172.4320  136.0710 C   0  0  0  0  0  3  0  0  0  0  0  0
  1 14  1  0  0  0  0
  3 16  1  0  0  0  0
  3 17  1  1  0  0  0
  4 16  1  0  0  0  0
  4  8  1  1  0  0  0
  5  1  1  0  0  0  0
  5  9  1  0  0  0  0
  6  2  1  0  0  0  0
  7 12  1  6  0  0  0
  7  2  1  0  0  0  0
  7 10  1  0  0  0  0
  7 15  1  0  0  0  0
  9 11  1  6  0  0  0
  9 12  1  0  0  0  0
 10  4  1  0  0  0  0
 14 36  1  1  0  0  0
 14  6  1  0  0  0  0
 15 13  1  6  0  0  0
 15  3  1  0  0  0  0
 17 18  1  1  0  0  0
 17 19  1  0  0  0  0
 19 20  1  0  0  0  0
 22 23  1  0  0  0  0
 23 20  1  6  0  0  0
 23 26  1  0  0  0  0
 24 21  1  0  0  0  0
 24 22  1  1  0  0  0
 24 28  1  0  0  0  0
 25 21  1  6  0  0  0
 25 29  1  0  0  0  0
 25 26  1  0  0  0  0
 27 21  1  0  0  0  0
 28 29  1  0  0  0  0
 29 26  1  0  0  0  0
 29 33  1  0  0  0  0
 31 30  1  0  0  0  0
 32 30  1  0  0  0  0
 33 31  1  0  0  0  0
 34 32  1  0  0  0  0
 35 33  1  0  0  0  0
 35 34  1  0  0  0  0
 37 36  1  0  0  0  0
 37 39  1  0  0  0  0
 38 39  1  0  0  0  0
 40 36  1  0  0  0  0
 40 62  1  0  0  0  0
 41 42  1  0  0  0  0
 41 40  1  0  0  0  0
 42 51  1  0  0  0  0
 43 52  1  0  0  0  0
 46 45  1  0  0  0  0
 47 52  1  0  0  0  0
 47 54  1  0  0  0  0
 48 53  1  0  0  0  0
 48 51  1  0  0  0  0
 49 47  1  0  0  0  0
 50 43  1  0  0  0  0
 51 49  1  0  0  0  0
 52 46  1  0  0  0  0
 53 50  1  0  0  0  0
 54 44  1  0  0  0  0
 54 45  1  0  0  0  0
 55 56  1  0  0  0  0
 55 42  1  0  0  0  0
 57 58  1  0  0  0  0
 57 56  2  0  0  0  0
 59 58  1  0  0  0  0
 59 61  1  0  0  0  0
 61 60  1  0  0  0  0
 63 62  1  0  0  0  0
 65 64  2  0  0  0  0
 65 63  1  0  0  0  0
M  END
>  <MODEL>
2

>  <REMARK>
 VINA RESULT:      -6.1      2.784      9.895
  Name = 
  20 active torsions:
  status: ('A' for Active; 'I' for Inactive)
    1  A    between atoms: C_7  and  C_14
    2  A    between atoms: C_13  and  C_27
    3  A    between atoms: C_13  and  C_42
    4  A    between atoms: C_13  and  C_53
    5  A    between atoms: C_14  and  C_18
    6  A    between atoms: C_18  and  C_38
    7  A    between atoms: C_19  and  C_20
    8  A    between atoms: C_19  and  C_54
    9  A    between atoms: C_22  and  C_29
   10  A    between atoms: C_24  and  C_38
   11  A    between atoms: C_27  and  C_58
   12  A    between atoms: C_27  and  O_65
   13  A    between atoms: C_29  and  C_42
   14  A    between atoms: C_34  and  O_65
   15  A    between atoms: C_35  and  C_61
   16  A    between atoms: N_39  and  C_56
   17  A    between atoms: C_41  and  C_54
   18  A    between atoms: C_46  and  O_47
   19  A    between atoms: C_46  and  C_61
   20  A    between atoms: C_53  and  C_54
                            x       y       z     vdW  Elec       q    Type
                         _______ _______ _______ _____ _____    ______ ____

>  <TORSDO>
F 20

$$$$
=
 OpenBabel11062417383D

 65 72  0  0  1  0  0  0  0  0999 V2000
  192.5410  177.6810  140.5000 C   0  0  0  0  0  2  0  0  0  0  0  0
  189.7960  175.9990  139.3800 O   0  0  0  0  0  0  0  0  0  0  0  0
  188.3520  176.8110  136.6660 C   0  0  1  0  0  3  0  0  0  0  0  0
  188.0390  174.6710  137.4380 C   0  0  1  0  0  3  0  0  0  0  0  0
  193.2800  176.7180  139.5810 C   0  0  0  0  0  2  0  0  0  0  0  0
  190.1990  177.2650  139.8360 C   0  0  0  0  0  2  0  0  0  0  0  0
  190.2500  175.7690  138.0530 C   0  0  2  0  0  0  0  0  0  0  0  0
  187.5850  174.1200  136.2370 O   0  0  0  0  0  1  0  0  0  0  0  0
  192.6580  176.6970  138.1940 C   0  0  1  0  0  3  0  0  0  0  0  0
  189.5640  174.4880  137.5740 C   0  0  0  0  0  2  0  0  0  0  0  0
  193.6720  176.6460  137.2400 O   0  0  0  0  0  1  0  0  0  0  0  0
  191.7640  175.4700  138.0340 C   0  0  0  0  0  2  0  0  0  0  0  0
  190.6150  176.8860  135.9120 O   0  0  0  0  0  1  0  0  0  0  0  0
  191.2100  177.0960  140.9570 C   0  0  2  0  0  3  0  0  0  0  0  0
  189.8360  176.9120  137.0730 C   0  0  1  0  0  3  0  0  0  0  0  0
  187.6140  176.0160  137.5680 O   0  0  0  0  0  0  0  0  0  0  0  0
  187.6920  178.1810  136.5030 C   0  0  1  0  0  3  0  0  0  0  0  0
  188.6590  179.1870  136.4510 O   0  0  0  0  0  1  0  0  0  0  0  0
  186.8220  178.2370  135.2520 C   0  0  0  0  0  2  0  0  0  0  0  0
  186.3000  176.8560  134.9080 C   0  0  0  0  0  2  0  0  0  0  0  0
  184.4380  174.7270  136.8690 N   0  0  0  0  0  0  0  0  0  0  0  0
  184.2520  175.4560  134.5980 C   0  0  0  0  0  2  0  0  0  0  0  0
  184.7950  176.8190  135.0840 C   0  0  1  0  0  3  0  0  0  0  0  0
  183.5260  174.7350  135.7260 C   0  0  2  0  0  3  0  0  0  0  0  0
  184.2890  176.0350  137.5260 C   0  0  1  0  0  3  0  0  0  0  0  0
  184.4120  177.2180  136.5400 C   0  0  2  0  0  3  0  0  0  0  0  0
  183.9910  173.7890  137.7390 O   0  0  0  0  0  1  0  0  0  0  0  0
  182.3570  175.6160  136.1190 C   0  0  0  0  0  2  0  0  0  0  0  0
  183.0430  176.6790  136.9590 C   0  0  1  0  0  0  0  0  0  0  0  0
  182.2040  179.6130  138.9980 N   0  0  0  0  0  2  0  0  0  0  0  0
  182.8480  178.8200  137.9520 C   0  0  0  0  0  2  0  0  0  0  0  0
  180.7910  179.7600  138.6530 C   0  0  0  0  0  2  0  0  0  0  0  0
  182.3060  177.4590  137.9550 N   0  0  1  0  0  0  0  0  0  0  0  0
  180.1210  178.3900  138.5770 C   0  0  0  0  0  2  0  0  0  0  0  0
  180.8880  177.5240  137.5820 C   0  0  0  0  0  2  0  0  0  0  0  0
  190.7110  177.7570  142.2520 C   0  0  2  0  0  3  0  0  0  0  0  0
  191.7790  178.4040  142.8910 O   0  0  0  0  0  0  0  0  0  0  0  0
  191.0930  180.1510  144.3460 C   0  0  0  0  0  1  0  0  0  0  0  0
  191.3230  178.6620  144.1830 C   0  0  0  0  0  2  0  0  0  0  0  0
  190.0830  176.6970  143.1850 C   0  0  1  0  0  3  0  0  0  0  0  0
  188.5950  176.4650  142.9390 C   0  0  0  0  0  2  0  0  0  0  0  0
  187.8370  177.7680  143.1410 C   0  0  2  0  0  3  0  0  0  0  0  0
  186.2170  179.1640  147.3730 C   0  0  0  0  0  2  0  0  0  0  0  0
  188.2580  175.7920  148.6700 C   0  0  0  0  0  1  0  0  0  0  0  0
  189.3510  177.9400  148.3610 N   0  0  0  0  0  2  0  0  0  0  0  0
  188.3630  178.8790  148.3930 O   0  0  0  0  0  0  0  0  0  0  0  0
  187.7310  177.2840  146.7870 C   0  0  2  0  0  3  0  0  0  0  0  0
  185.7970  177.4860  144.5840 C   0  0  0  0  0  2  0  0  0  0  0  0
  188.0660  177.0520  145.4320 O   0  0  0  0  0  0  0  0  0  0  0  0
  185.5640  179.3200  146.1390 O   0  0  0  0  0  0  0  0  0  0  0  0
  187.2900  177.8590  144.5650 C   0  0  1  0  0  3  0  0  0  0  0  0
  187.6770  178.7510  147.1790 C   0  0  1  0  0  3  0  0  0  0  0  0
  185.0710  178.0480  145.8080 C   0  0  0  0  0  2  0  0  0  0  0  0
  188.8280  176.7740  147.6650 C   0  0  2  0  0  3  0  0  0  0  0  0
  186.7180  177.8440  142.1150 C   0  0  0  0  0  2  0  0  0  0  0  0
  185.5470  178.5400  142.7200 C   0  0  0  0  0  3  0  0  0  0  0  0
  184.4520  178.7550  141.9990 C   0  0  0  0  0  3  0  0  0  0  0  0
  183.2870  179.4560  142.6100 C   0  0  0  0  0  2  0  0  0  0  0  0
  182.0020  178.7160  142.2770 C   0  0  0  0  0  2  0  0  0  0  0  0
  179.8480  178.5660  142.7300 C   0  0  0  0  0  1  0  0  0  0  0  0
  181.0800  178.8720  143.3120 O   0  0  0  0  0  0  0  0  0  0  0  0
  190.8350  175.3670  143.1460 C   0  0  0  0  0  2  0  0  0  0  0  0
  192.0020  175.3340  144.1220 C   0  0  0  0  0  2  0  0  0  0  0  0
  192.2610  175.6340  146.5290 C   0  0  0  0  0  2  0  0  0  0  0  0
  191.4770  175.2840  145.5150 C   0  0  0  0  0  3  0  0  0  0  0  0
  1 14  1  0  0  0  0
  2  6  1  0  0  0  0
  3 17  1  1  0  0  0
  3 15  1  0  0  0  0
  3 16  1  0  0  0  0
  4  8  1  6  0  0  0
  4 16  1  0  0  0  0
  4 10  1  0  0  0  0
  5  1  1  0  0  0  0
  6 14  1  0  0  0  0
  7 10  1  6  0  0  0
  7  2  1  0  0  0  0
  9 11  1  6  0  0  0
  9  5  1  0  0  0  0
 12  7  1  0  0  0  0
 12  9  1  0  0  0  0
 14 36  1  1  0  0  0
 15 13  1  6  0  0  0
 15  7  1  0  0  0  0
 17 18  1  6  0  0  0
 19 17  1  0  0  0  0
 20 19  1  0  0  0  0
 21 27  1  0  0  0  0
 22 23  1  0  0  0  0
 23 20  1  1  0  0  0
 23 26  1  0  0  0  0
 24 22  1  6  0  0  0
 24 28  1  0  0  0  0
 24 21  1  0  0  0  0
 25 21  1  6  0  0  0
 26 29  1  0  0  0  0
 26 25  1  0  0  0  0
 28 29  1  0  0  0  0
 29 25  1  0  0  0  0
 29 33  1  0  0  0  0
 31 33  1  0  0  0  0
 31 30  1  0  0  0  0
 32 30  1  0  0  0  0
 34 32  1  0  0  0  0
 35 33  1  0  0  0  0
 35 34  1  0  0  0  0
 36 37  1  0  0  0  0
 36 40  1  0  0  0  0
 37 39  1  0  0  0  0
 39 38  1  0  0  0  0
 41 42  1  0  0  0  0
 41 40  1  0  0  0  0
 42 51  1  0  0  0  0
 45 46  1  0  0  0  0
 47 52  1  0  0  0  0
 47 54  1  0  0  0  0
 48 53  1  0  0  0  0
 49 47  1  0  0  0  0
 50 43  1  0  0  0  0
 51 48  1  0  0  0  0
 51 49  1  0  0  0  0
 52 43  1  0  0  0  0
 52 46  1  0  0  0  0
 53 50  1  0  0  0  0
 54 45  1  0  0  0  0
 54 44  1  0  0  0  0
 55 56  1  0  0  0  0
 55 42  1  0  0  0  0
 57 58  1  0  0  0  0
 57 56  2  0  0  0  0
 59 58  1  0  0  0  0
 59 61  1  0  0  0  0
 60 61  1  0  0  0  0
 62 40  1  0  0  0  0
 62 63  1  0  0  0  0
 63 65  1  0  0  0  0
 65 64  2  0  0  0  0
M  END
>  <MODEL>
3

>  <REMARK>
 VINA RESULT:      -5.1      1.365      2.233
  Name = 
  20 active torsions:
  status: ('A' for Active; 'I' for Inactive)
    1  A    between atoms: C_7  and  C_14
    2  A    between atoms: C_13  and  C_27
    3  A    between atoms: C_13  and  C_42
    4  A    between atoms: C_13  and  C_53
    5  A    between atoms: C_14  and  C_18
    6  A    between atoms: C_18  and  C_38
    7  A    between atoms: C_19  and  C_20
    8  A    between atoms: C_19  and  C_54
    9  A    between atoms: C_22  and  C_29
   10  A    between atoms: C_24  and  C_38
   11  A    between atoms: C_27  and  C_58
   12  A    between atoms: C_27  and  O_65
   13  A    between atoms: C_29  and  C_42
   14  A    between atoms: C_34  and  O_65
   15  A    between atoms: C_35  and  C_61
   16  A    between atoms: N_39  and  C_56
   17  A    between atoms: C_41  and  C_54
   18  A    between atoms: C_46  and  O_47
   19  A    between atoms: C_46  and  C_61
   20  A    between atoms: C_53  and  C_54
                            x       y       z     vdW  Elec       q    Type
                         _______ _______ _______ _____ _____    ______ ____

>  <TORSDO>
F 20

$$$$
=
 OpenBabel11062417383D

 65 72  0  0  1  0  0  0  0  0999 V2000
  192.1780  177.7770  140.6430 C   0  0  0  0  0  2  0  0  0  0  0  0
  189.8030  175.8060  139.1970 O   0  0  0  0  0  0  0  0  0  0  0  0
  188.8180  176.3190  136.2170 C   0  0  1  0  0  3  0  0  0  0  0  0
  188.5210  174.2150  137.0880 C   0  0  1  0  0  3  0  0  0  0  0  0
  193.1350  176.8210  139.9460 C   0  0  0  0  0  2  0  0  0  0  0  0
  190.0280  177.1280  139.6160 C   0  0  0  0  0  2  0  0  0  0  0  0
  190.5030  175.5290  137.9920 C   0  0  2  0  0  0  0  0  0  0  0  0
  188.3300  173.5520  135.8730 O   0  0  0  0  0  1  0  0  0  0  0  0
  192.7750  176.6590  138.4780 C   0  0  1  0  0  3  0  0  0  0  0  0
  190.0050  174.1670  137.5020 C   0  0  0  0  0  2  0  0  0  0  0  0
  193.9460  176.6310  137.7220 O   0  0  0  0  0  1  0  0  0  0  0  0
  192.0130  175.3550  138.2600 C   0  0  0  0  0  2  0  0  0  0  0  0
  191.1690  176.5310  135.8660 O   0  0  0  0  0  1  0  0  0  0  0  0
  190.8300  177.1160  140.9060 C   0  0  2  0  0  3  0  0  0  0  0  0
  190.1940  176.5680  136.8680 C   0  0  1  0  0  3  0  0  0  0  0  0
  187.9870  175.5260  137.0370 O   0  0  0  0  0  0  0  0  0  0  0  0
  188.1040  177.6170  135.8340 C   0  0  1  0  0  3  0  0  0  0  0  0
  188.5530  178.0750  134.5940 O   0  0  0  0  0  1  0  0  0  0  0  0
  186.5920  177.4340  135.8000 C   0  0  0  0  0  2  0  0  0  0  0  0
  185.9560  178.0440  137.0340 C   0  0  0  0  0  2  0  0  0  0  0  0
  182.8940  177.4730  135.5710 N   0  0  0  0  0  0  0  0  0  0  0  0
  183.5770  178.0080  137.8010 C   0  0  0  0  0  2  0  0  0  0  0  0
  184.8340  177.1520  137.5260 C   0  0  1  0  0  3  0  0  0  0  0  0
  182.4070  177.5320  136.9490 C   0  0  2  0  0  3  0  0  0  0  0  0
  183.5960  176.1880  135.4350 C   0  0  1  0  0  3  0  0  0  0  0  0
  184.6340  175.9510  136.5550 C   0  0  2  0  0  3  0  0  0  0  0  0
  181.8100  177.4240  134.7590 O   0  0  0  0  0  1  0  0  0  0  0  0
  182.1260  176.1010  137.3630 C   0  0  0  0  0  2  0  0  0  0  0  0
  183.2300  175.3500  136.6410 C   0  0  1  0  0  0  0  0  0  0  0  0
  183.5020  172.3150  134.5940 N   0  0  0  0  0  2  0  0  0  0  0  0
  183.6880  173.7080  134.9960 C   0  0  0  0  0  2  0  0  0  0  0  0
  184.2790  171.4730  135.5010 C   0  0  0  0  0  2  0  0  0  0  0  0
  183.1030  173.9260  136.3220 N   0  0  1  0  0  0  0  0  0  0  0  0
  183.7910  171.6510  136.9370 C   0  0  0  0  0  2  0  0  0  0  0  0
  183.8590  173.1320  137.2970 C   0  0  0  0  0  2  0  0  0  0  0  0
  190.0620  177.8160  142.0380 C   0  0  2  0  0  3  0  0  0  0  0  0
  190.7500  178.9740  142.4270 O   0  0  0  0  0  0  0  0  0  0  0  0
  191.7000  179.6950  144.4800 C   0  0  0  0  0  1  0  0  0  0  0  0
  190.4850  179.1100  143.7890 C   0  0  0  0  0  2  0  0  0  0  0  0
  189.8900  176.8580  143.2390 C   0  0  1  0  0  3  0  0  0  0  0  0
  188.4460  176.4230  143.4760 C   0  0  0  0  0  2  0  0  0  0  0  0
  187.7200  177.4880  144.2840 C   0  0  2  0  0  3  0  0  0  0  0  0
  189.1820  178.4750  148.6850 C   0  0  0  0  0  2  0  0  0  0  0  0
  191.0750  174.8030  148.3070 C   0  0  0  0  0  1  0  0  0  0  0  0
  192.0640  176.8690  147.4960 N   0  0  0  0  0  2  0  0  0  0  0  0
  191.4420  177.8790  148.1690 O   0  0  0  0  0  0  0  0  0  0  0  0
  189.7500  176.5600  147.2090 C   0  0  2  0  0  3  0  0  0  0  0  0
  186.9370  177.2040  146.6560 C   0  0  0  0  0  2  0  0  0  0  0  0
  189.1690  176.4720  145.9220 O   0  0  0  0  0  0  0  0  0  0  0  0
  187.9510  178.8410  148.1150 O   0  0  0  0  0  0  0  0  0  0  0  0
  188.1560  177.4460  145.7480 C   0  0  1  0  0  3  0  0  0  0  0  0
  190.1550  177.9650  147.6220 C   0  0  1  0  0  3  0  0  0  0  0  0
  187.1800  177.6680  148.0940 C   0  0  0  0  0  2  0  0  0  0  0  0
  191.0650  175.8500  147.2110 C   0  0  2  0  0  3  0  0  0  0  0  0
  186.2230  177.2660  144.1470 C   0  0  0  0  0  2  0  0  0  0  0  0
  185.7520  177.8780  142.8730 C   0  0  0  0  0  3  0  0  0  0  0  0
  184.4910  178.2790  142.7490 C   0  0  0  0  0  3  0  0  0  0  0  0
  184.0270  178.8860  141.4700 C   0  0  0  0  0  2  0  0  0  0  0  0
  182.6410  178.3690  141.1210 C   0  0  0  0  0  2  0  0  0  0  0  0
  180.7790  178.5640  142.2870 C   0  0  0  0  0  1  0  0  0  0  0  0
  181.6740  179.2980  141.5080 O   0  0  0  0  0  0  0  0  0  0  0  0
  190.7980  175.6320  143.1420 C   0  0  0  0  0  2  0  0  0  0  0  0
  191.9690  175.7030  144.1110 C   0  0  0  0  0  2  0  0  0  0  0  0
  191.7210  173.3590  144.7420 C   0  0  0  0  0  2  0  0  0  0  0  0
  192.5180  174.3350  144.3200 C   0  0  0  0  0  3  0  0  0  0  0  0
  1 14  1  0  0  0  0
  2  6  1  0  0  0  0
  3 17  1  1  0  0  0
  3 15  1  0  0  0  0
  3 16  1  0  0  0  0
  4  8  1  6  0  0  0
  4 10  1  0  0  0  0
  5  1  1  0  0  0  0
  6 14  1  0  0  0  0
  7 10  1  6  0  0  0
  7 12  1  0  0  0  0
  7  2  1  0  0  0  0
  9 11  1  6  0  0  0
  9  5  1  0  0  0  0
 12  9  1  0  0  0  0
 14 36  1  1  0  0  0
 15 13  1  6  0  0  0
 15  7  1  0  0  0  0
 16  4  1  0  0  0  0
 17 18  1  6  0  0  0
 19 17  1  0  0  0  0
 19 20  1  0  0  0  0
 21 24  1  0  0  0  0
 23 20  1  6  0  0  0
 23 22  1  0  0  0  0
 24 28  1  1  0  0  0
 24 22  1  0  0  0  0
 25 21  1  1  0  0  0
 25 26  1  0  0  0  0
 25 29  1  0  0  0  0
 26 29  1  0  0  0  0
 26 23  1  0  0  0  0
 27 21  1  0  0  0  0
 29 28  1  0  0  0  0
 30 31  1  0  0  0  0
 30 32  1  0  0  0  0
 31 33  1  0  0  0  0
 32 34  1  0  0  0  0
 33 29  1  0  0  0  0
 33 35  1  0  0  0  0
 34 35  1  0  0  0  0
 36 37  1  0  0  0  0
 36 40  1  0  0  0  0
 37 39  1  0  0  0  0
 39 38  1  0  0  0  0
 40 41  1  0  0  0  0
 41 42  1  0  0  0  0
 42 51  1  0  0  0  0
 45 46  1  0  0  0  0
 47 54  1  0  0  0  0
 47 52  1  0  0  0  0
 48 53  1  0  0  0  0
 49 47  1  0  0  0  0
 50 43  1  0  0  0  0
 51 49  1  0  0  0  0
 51 48  1  0  0  0  0
 52 46  1  0  0  0  0
 52 43  1  0  0  0  0
 53 50  1  0  0  0  0
 54 45  1  0  0  0  0
 54 44  1  0  0  0  0
 55 42  1  0  0  0  0
 56 55  1  0  0  0  0
 57 56  2  0  0  0  0
 58 57  1  0  0  0  0
 59 58  1  0  0  0  0
 59 61  1  0  0  0  0
 61 60  1  0  0  0  0
 62 40  1  0  0  0  0
 62 63  1  0  0  0  0
 63 65  1  0  0  0  0
 65 64  2  0  0  0  0
M  END
>  <MODEL>
4

>  <REMARK>
 VINA RESULT:      -5.1      1.553      2.025
  Name = 
  20 active torsions:
  status: ('A' for Active; 'I' for Inactive)
    1  A    between atoms: C_7  and  C_14
    2  A    between atoms: C_13  and  C_27
    3  A    between atoms: C_13  and  C_42
    4  A    between atoms: C_13  and  C_53
    5  A    between atoms: C_14  and  C_18
    6  A    between atoms: C_18  and  C_38
    7  A    between atoms: C_19  and  C_20
    8  A    between atoms: C_19  and  C_54
    9  A    between atoms: C_22  and  C_29
   10  A    between atoms: C_24  and  C_38
   11  A    between atoms: C_27  and  C_58
   12  A    between atoms: C_27  and  O_65
   13  A    between atoms: C_29  and  C_42
   14  A    between atoms: C_34  and  O_65
   15  A    between atoms: C_35  and  C_61
   16  A    between atoms: N_39  and  C_56
   17  A    between atoms: C_41  and  C_54
   18  A    between atoms: C_46  and  O_47
   19  A    between atoms: C_46  and  C_61
   20  A    between atoms: C_53  and  C_54
                            x       y       z     vdW  Elec       q    Type
                         _______ _______ _______ _____ _____    ______ ____

>  <TORSDO>
F 20

$$$$
=
 OpenBabel11062417383D

 65 72  0  0  1  0  0  0  0  0999 V2000
  182.6260  178.7740  144.2820 C   0  0  0  0  0  2  0  0  0  0  0  0
  181.8600  179.3000  141.0020 O   0  0  0  0  0  0  0  0  0  0  0  0
  180.4310  177.0580  139.2580 C   0  0  1  0  0  3  0  0  0  0  0  0
  180.2360  179.2360  138.5560 C   0  0  1  0  0  3  0  0  0  0  0  0
  181.1910  179.2310  144.5010 C   0  0  0  0  0  2  0  0  0  0  0  0
  182.6650  178.4970  141.8280 C   0  0  0  0  0  2  0  0  0  0  0  0
  180.5010  178.8890  141.0620 C   0  0  2  0  0  0  0  0  0  0  0  0
  179.1410  179.0460  137.7100 O   0  0  0  0  0  1  0  0  0  0  0  0
  180.2300  178.4730  143.5990 C   0  0  1  0  0  3  0  0  0  0  0  0
  179.7640  179.6560  139.9630 C   0  0  0  0  0  2  0  0  0  0  0  0
  179.0760  178.1670  144.3170 O   0  0  0  0  0  1  0  0  0  0  0  0
  179.8510  179.3280  142.3930 C   0  0  0  0  0  2  0  0  0  0  0  0
  179.0850  176.9040  141.2230 O   0  0  0  0  0  1  0  0  0  0  0  0
  183.1910  179.3340  142.9820 C   0  0  2  0  0  3  0  0  0  0  0  0
  180.3230  177.3660  140.7650 C   0  0  1  0  0  3  0  0  0  0  0  0
  181.0770  178.0970  138.5560 O   0  0  0  0  0  0  0  0  0  0  0  0
  181.1160  175.7190  138.9770 C   0  0  1  0  0  3  0  0  0  0  0  0
  180.3400  174.6620  139.4570 O   0  0  0  0  0  1  0  0  0  0  0  0
  181.3840  175.5300  137.4890 C   0  0  0  0  0  2  0  0  0  0  0  0
  181.9340  174.1420  137.2230 C   0  0  0  0  0  2  0  0  0  0  0  0
  184.7700  176.0560  136.8510 N   0  0  0  0  0  0  0  0  0  0  0  0
  182.8930  175.6060  135.4380 C   0  0  0  0  0  2  0  0  0  0  0  0
  182.8880  174.1860  136.0460 C   0  0  1  0  0  3  0  0  0  0  0  0
  184.2940  176.2010  135.4760 C   0  0  2  0  0  3  0  0  0  0  0  0
  185.2830  174.6820  136.9690 C   0  0  1  0  0  3  0  0  0  0  0  0
  184.2800  173.6220  136.4590 C   0  0  2  0  0  3  0  0  0  0  0  0
  185.8260  176.8910  137.0070 O   0  0  0  0  0  1  0  0  0  0  0  0
  185.1680  175.3010  134.6250 C   0  0  0  0  0  2  0  0  0  0  0  0
  185.4120  174.1330  135.5640 C   0  0  1  0  0  0  0  0  0  0  0  0
  188.3020  172.1380  136.6310 N   0  0  0  0  0  2  0  0  0  0  0  0
  187.0850  172.9410  136.7420 C   0  0  0  0  0  2  0  0  0  0  0  0
  187.9440  170.8480  136.0440 C   0  0  0  0  0  2  0  0  0  0  0  0
  186.5720  173.2540  135.4060 N   0  0  1  0  0  0  0  0  0  0  0  0
  187.3450  171.0480  134.6530 C   0  0  0  0  0  2  0  0  0  0  0  0
  186.1580  172.0010  134.7640 C   0  0  0  0  0  2  0  0  0  0  0  0
  184.7280  179.3550  142.9890 C   0  0  2  0  0  3  0  0  0  0  0  0
  185.1990  179.7170  141.7200 O   0  0  0  0  0  0  0  0  0  0  0  0
  185.8750  178.6850  139.6900 C   0  0  0  0  0  1  0  0  0  0  0  0
  185.0040  178.5870  140.9260 C   0  0  0  0  0  2  0  0  0  0  0  0
  185.2780  177.9680  143.3970 C   0  0  1  0  0  3  0  0  0  0  0  0
  186.4730  177.5120  142.5640 C   0  0  0  0  0  2  0  0  0  0  0  0
  187.7480  177.6650  143.3780 C   0  0  2  0  0  3  0  0  0  0  0  0
  191.9790  177.1810  141.2920 C   0  0  0  0  0  2  0  0  0  0  0  0
  189.6850  175.6060  138.2140 C   0  0  0  0  0  1  0  0  0  0  0  0
  190.0650  177.9930  138.4690 N   0  0  0  0  0  2  0  0  0  0  0  0
  191.1810  178.1210  139.2410 O   0  0  0  0  0  0  0  0  0  0  0  0
  189.7050  176.7150  140.4100 C   0  0  2  0  0  3  0  0  0  0  0  0
  189.6310  176.0030  143.2600 C   0  0  0  0  0  2  0  0  0  0  0  0
  188.5760  176.9260  141.2370 O   0  0  0  0  0  0  0  0  0  0  0  0
  191.7120  177.0770  142.6680 O   0  0  0  0  0  0  0  0  0  0  0  0
  188.9620  177.2050  142.5710 C   0  0  1  0  0  3  0  0  0  0  0  0
  190.7870  177.7730  140.5400 C   0  0  1  0  0  3  0  0  0  0  0  0
  191.0930  175.8300  142.8400 C   0  0  0  0  0  2  0  0  0  0  0  0
  189.3060  176.8600  138.9770 C   0  0  2  0  0  3  0  0  0  0  0  0
  187.6050  176.8660  144.6620 C   0  0  0  0  0  2  0  0  0  0  0  0
  188.7680  177.1550  145.5490 C   0  0  0  0  0  3  0  0  0  0  0  0
  188.5920  177.2870  146.8600 C   0  0  0  0  0  3  0  0  0  0  0  0
  189.7580  177.5810  147.7400 C   0  0  0  0  0  2  0  0  0  0  0  0
  191.0400  177.0970  147.0820 C   0  0  0  0  0  2  0  0  0  0  0  0
  192.5180  175.4620  146.9880 C   0  0  0  0  0  1  0  0  0  0  0  0
  191.6210  176.0890  147.8530 O   0  0  0  0  0  0  0  0  0  0  0  0
  185.6150  177.8890  144.8860 C   0  0  0  0  0  2  0  0  0  0  0  0
  184.8800  178.9430  145.7000 C   0  0  0  0  0  2  0  0  0  0  0  0
  186.2670  179.7830  147.5240 C   0  0  0  0  0  2  0  0  0  0  0  0
  185.3630  178.9020  147.1090 C   0  0  0  0  0  3  0  0  0  0  0  0
  1  5  1  0  0  0  0
  2  7  1  0  0  0  0
  2  6  1  0  0  0  0
  3 17  1  1  0  0  0
  3 15  1  0  0  0  0
  4  8  1  6  0  0  0
  4 10  1  0  0  0  0
  6 14  1  0  0  0  0
  7 10  1  6  0  0  0
  7 12  1  0  0  0  0
  9 11  1  1  0  0  0
  9  5  1  0  0  0  0
 12  9  1  0  0  0  0
 14 36  1  1  0  0  0
 14  1  1  0  0  0  0
 15  7  1  0  0  0  0
 15 13  1  6  0  0  0
 16  4  1  0  0  0  0
 16  3  1  0  0  0  0
 17 18  1  6  0  0  0
 19 17  1  0  0  0  0
 20 19  1  0  0  0  0
 21 27  1  0  0  0  0
 22 24  1  0  0  0  0
 22 23  1  0  0  0  0
 23 26  1  0  0  0  0
 23 20  1  1  0  0  0
 24 28  1  6  0  0  0
 24 21  1  0  0  0  0
 25 21  1  6  0  0  0
 26 25  1  0  0  0  0
 28 29  1  0  0  0  0
 29 26  1  0  0  0  0
 29 25  1  0  0  0  0
 30 31  1  0  0  0  0
 32 30  1  0  0  0  0
 33 29  1  0  0  0  0
 33 31  1  0  0  0  0
 34 35  1  0  0  0  0
 34 32  1  0  0  0  0
 35 33  1  0  0  0  0
 36 40  1  0  0  0  0
 37 36  1  0  0  0  0
 38 39  1  0  0  0  0
 39 37  1  0  0  0  0
 40 62  1  0  0  0  0
 41 42  1  0  0  0  0
 41 40  1  0  0  0  0
 42 55  1  0  0  0  0
 43 50  1  0  0  0  0
 44 54  1  0  0  0  0
 45 54  1  0  0  0  0
 45 46  1  0  0  0  0
 46 52  1  0  0  0  0
 47 52  1  0  0  0  0
 47 49  1  0  0  0  0
 49 51  1  0  0  0  0
 50 53  1  0  0  0  0
 51 48  1  0  0  0  0
 51 42  1  0  0  0  0
 52 43  1  0  0  0  0
 53 48  1  0  0  0  0
 54 47  1  0  0  0  0
 55 56  1  0  0  0  0
 56 57  2  0  0  0  0
 57 58  1  0  0  0  0
 59 58  1  0  0  0  0
 59 61  1  0  0  0  0
 60 61  1  0  0  0  0
 62 63  1  0  0  0  0
 63 65  1  0  0  0  0
 65 64  2  0  0  0  0
M  END
>  <MODEL>
5

>  <REMARK>
 VINA RESULT:      -4.3      2.606      8.157
  Name = 
  20 active torsions:
  status: ('A' for Active; 'I' for Inactive)
    1  A    between atoms: C_7  and  C_14
    2  A    between atoms: C_13  and  C_27
    3  A    between atoms: C_13  and  C_42
    4  A    between atoms: C_13  and  C_53
    5  A    between atoms: C_14  and  C_18
    6  A    between atoms: C_18  and  C_38
    7  A    between atoms: C_19  and  C_20
    8  A    between atoms: C_19  and  C_54
    9  A    between atoms: C_22  and  C_29
   10  A    between atoms: C_24  and  C_38
   11  A    between atoms: C_27  and  C_58
   12  A    between atoms: C_27  and  O_65
   13  A    between atoms: C_29  and  C_42
   14  A    between atoms: C_34  and  O_65
   15  A    between atoms: C_35  and  C_61
   16  A    between atoms: N_39  and  C_56
   17  A    between atoms: C_41  and  C_54
   18  A    between atoms: C_46  and  O_47
   19  A    between atoms: C_46  and  C_61
   20  A    between atoms: C_53  and  C_54
                            x       y       z     vdW  Elec       q    Type
                         _______ _______ _______ _____ _____    ______ ____

>  <TORSDO>
F 20

$$$$
=
 OpenBabel11062417383D

 65 72  0  0  1  0  0  0  0  0999 V2000
  186.7300  174.3480  135.5080 C   0  0  0  0  0  2  0  0  0  0  0  0
  189.7060  176.0030  135.3470 O   0  0  0  0  0  0  0  0  0  0  0  0
  191.8820  175.7200  137.6480 C   0  0  1  0  0  3  0  0  0  0  0  0
  192.6090  176.3840  135.5730 C   0  0  1  0  0  3  0  0  0  0  0  0
  187.5360  173.2150  134.8880 C   0  0  0  0  0  2  0  0  0  0  0  0
  188.5280  175.9320  136.1090 C   0  0  0  0  0  2  0  0  0  0  0  0
  190.5500  174.8900  135.6120 C   0  0  2  0  0  0  0  0  0  0  0  0
  193.9620  176.0940  135.7650 O   0  0  0  0  0  1  0  0  0  0  0  0
  188.8220  172.9700  135.6600 C   0  0  1  0  0  3  0  0  0  0  0  0
  191.8860  175.1850  134.9270 C   0  0  0  0  0  2  0  0  0  0  0  0
  189.0420  171.5960  135.7540 O   0  0  0  0  0  1  0  0  0  0  0  0
  190.0030  173.6130  134.9390 C   0  0  0  0  0  2  0  0  0  0  0  0
  191.3040  173.4170  137.4090 O   0  0  0  0  0  1  0  0  0  0  0  0
  187.3450  175.7050  135.1830 C   0  0  2  0  0  3  0  0  0  0  0  0
  190.8380  174.7080  137.1350 C   0  0  1  0  0  3  0  0  0  0  0  0
  192.0120  176.8240  136.7800 O   0  0  0  0  0  0  0  0  0  0  0  0
  191.5910  176.1960  139.0730 C   0  0  1  0  0  3  0  0  0  0  0  0
  192.2810  177.3790  139.3450 O   0  0  0  0  0  1  0  0  0  0  0  0
  190.0990  176.4070  139.2970 C   0  0  0  0  0  2  0  0  0  0  0  0
  189.8660  177.3860  140.4310 C   0  0  0  0  0  2  0  0  0  0  0  0
  190.9180  178.3280  143.5700 N   0  0  0  0  0  0  0  0  0  0  0  0
  191.1090  176.3030  142.3100 C   0  0  0  0  0  2  0  0  0  0  0  0
  189.7130  176.6320  141.7370 C   0  0  1  0  0  3  0  0  0  0  0  0
  191.2790  176.9170  143.6940 C   0  0  2  0  0  3  0  0  0  0  0  0
  189.4500  178.3900  143.6550 C   0  0  1  0  0  3  0  0  0  0  0  0
  188.7530  177.4010  142.6930 C   0  0  2  0  0  3  0  0  0  0  0  0
  191.4080  178.9720  144.6570 O   0  0  0  0  0  1  0  0  0  0  0  0
  190.2240  176.2840  144.5790 C   0  0  0  0  0  2  0  0  0  0  0  0
  188.9780  177.0450  144.1640 C   0  0  1  0  0  0  0  0  0  0  0  0
  187.1890  177.5160  147.3350 N   0  0  0  0  0  2  0  0  0  0  0  0
  188.3060  177.4870  146.3920 C   0  0  0  0  0  2  0  0  0  0  0  0
  186.3070  178.6200  146.9600 C   0  0  0  0  0  2  0  0  0  0  0  0
  187.8180  177.1540  145.0520 N   0  0  1  0  0  0  0  0  0  0  0  0
  185.7670  178.4090  145.5480 C   0  0  0  0  0  2  0  0  0  0  0  0
  186.9450  178.2410  144.5930 C   0  0  0  0  0  2  0  0  0  0  0  0
  186.3190  176.8410  135.3120 C   0  0  2  0  0  3  0  0  0  0  0  0
  186.6830  177.6840  136.3720 O   0  0  0  0  0  0  0  0  0  0  0  0
  187.8610  179.7450  136.4530 C   0  0  0  0  0  1  0  0  0  0  0  0
  186.7300  178.9620  135.8160 C   0  0  0  0  0  2  0  0  0  0  0  0
  184.9050  176.2600  135.5440 C   0  0  1  0  0  3  0  0  0  0  0  0
  184.4530  176.3030  137.0010 C   0  0  0  0  0  2  0  0  0  0  0  0
  183.0460  176.8740  137.0810 C   0  0  2  0  0  3  0  0  0  0  0  0
  182.8000  178.6220  141.4830 C   0  0  0  0  0  2  0  0  0  0  0  0
  179.7580  180.9100  139.8310 C   0  0  0  0  0  1  0  0  0  0  0  0
  179.3860  178.6650  140.6830 N   0  0  0  0  0  2  0  0  0  0  0  0
  180.4170  178.4050  141.5370 O   0  0  0  0  0  0  0  0  0  0  0  0
  181.3750  179.0860  139.5020 C   0  0  2  0  0  3  0  0  0  0  0  0
  184.0970  178.6890  138.4680 C   0  0  0  0  0  2  0  0  0  0  0  0
  181.6560  178.4450  138.2720 O   0  0  0  0  0  0  0  0  0  0  0  0
  183.9600  178.1800  140.8260 O   0  0  0  0  0  0  0  0  0  0  0  0
  182.8880  177.7480  138.3260 C   0  0  1  0  0  3  0  0  0  0  0  0
  181.5400  178.2000  140.7240 C   0  0  1  0  0  3  0  0  0  0  0  0
  184.2810  179.1880  139.9040 C   0  0  0  0  0  2  0  0  0  0  0  0
  179.9210  179.4260  139.5640 C   0  0  2  0  0  3  0  0  0  0  0  0
  182.0540  175.7240  137.0860 C   0  0  0  0  0  2  0  0  0  0  0  0
  182.8000  174.4350  137.0310 C   0  0  0  0  0  3  0  0  0  0  0  0
  182.1720  173.2880  137.2710 C   0  0  0  0  0  3  0  0  0  0  0  0
  182.9270  172.0040  137.2180 C   0  0  0  0  0  2  0  0  0  0  0  0
  182.5880  171.2540  135.9410 C   0  0  0  0  0  2  0  0  0  0  0  0
  180.7450  171.2640  134.7280 C   0  0  0  0  0  1  0  0  0  0  0  0
  181.2510  170.8540  135.9620 O   0  0  0  0  0  0  0  0  0  0  0  0
  183.8520  176.9150  134.6490 C   0  0  0  0  0  2  0  0  0  0  0  0
  183.8860  178.4330  134.7330 C   0  0  0  0  0  2  0  0  0  0  0  0
  181.4710  178.1080  134.8490 C   0  0  0  0  0  2  0  0  0  0  0  0
  182.4920  178.9550  134.7830 C   0  0  0  0  0  3  0  0  0  0  0  0
  2  7  1  0  0  0  0
  2  6  1  0  0  0  0
  3 17  1  1  0  0  0
  4  8  1  1  0  0  0
  4 16  1  0  0  0  0
  5  1  1  0  0  0  0
  5  9  1  0  0  0  0
  7 10  1  6  0  0  0
  7 15  1  0  0  0  0
  9 11  1  6  0  0  0
 10  4  1  0  0  0  0
 12  7  1  0  0  0  0
 12  9  1  0  0  0  0
 14 36  1  1  0  0  0
 14  1  1  0  0  0  0
 14  6  1  0  0  0  0
 15 13  1  6  0  0  0
 15  3  1  0  0  0  0
 16  3  1  0  0  0  0
 17 19  1  0  0  0  0
 17 18  1  6  0  0  0
 19 20  1  0  0  0  0
 21 24  1  0  0  0  0
 21 27  1  0  0  0  0
 23 20  1  6  0  0  0
 23 22  1  0  0  0  0
 23 26  1  0  0  0  0
 24 22  1  6  0  0  0
 24 28  1  0  0  0  0
 25 21  1  6  0  0  0
 25 29  1  0  0  0  0
 26 25  1  0  0  0  0
 26 29  1  0  0  0  0
 29 28  1  0  0  0  0
 29 33  1  0  0  0  0
 31 30  1  0  0  0  0
 32 30  1  0  0  0  0
 33 31  1  0  0  0  0
 34 32  1  0  0  0  0
 35 33  1  0  0  0  0
 35 34  1  0  0  0  0
 36 40  1  0  0  0  0
 36 37  1  0  0  0  0
 39 37  1  0  0  0  0
 39 38  1  0  0  0  0
 40 41  1  0  0  0  0
 41 42  1  0  0  0  0
 42 55  1  0  0  0  0
 42 51  1  0  0  0  0
 45 46  1  0  0  0  0
 47 54  1  0  0  0  0
 47 52  1  0  0  0  0
 48 53  1  0  0  0  0
 49 51  1  0  0  0  0
 49 47  1  0  0  0  0
 50 43  1  0  0  0  0
 51 48  1  0  0  0  0
 52 43  1  0  0  0  0
 52 46  1  0  0  0  0
 53 50  1  0  0  0  0
 54 44  1  0  0  0  0
 54 45  1  0  0  0  0
 56 55  1  0  0  0  0
 56 57  2  0  0  0  0
 58 57  1  0  0  0  0
 59 61  1  0  0  0  0
 59 58  1  0  0  0  0
 60 61  1  0  0  0  0
 62 63  1  0  0  0  0
 62 40  1  0  0  0  0
 63 65  1  0  0  0  0
 65 64  2  0  0  0  0
M  END
>  <MODEL>
6

>  <REMARK>
 VINA RESULT:      -3.8      2.321      8.685
  Name = 
  20 active torsions:
  status: ('A' for Active; 'I' for Inactive)
    1  A    between atoms: C_7  and  C_14
    2  A    between atoms: C_13  and  C_27
    3  A    between atoms: C_13  and  C_42
    4  A    between atoms: C_13  and  C_53
    5  A    between atoms: C_14  and  C_18
    6  A    between atoms: C_18  and  C_38
    7  A    between atoms: C_19  and  C_20
    8  A    between atoms: C_19  and  C_54
    9  A    between atoms: C_22  and  C_29
   10  A    between atoms: C_24  and  C_38
   11  A    between atoms: C_27  and  C_58
   12  A    between atoms: C_27  and  O_65
   13  A    between atoms: C_29  and  C_42
   14  A    between atoms: C_34  and  O_65
   15  A    between atoms: C_35  and  C_61
   16  A    between atoms: N_39  and  C_56
   17  A    between atoms: C_41  and  C_54
   18  A    between atoms: C_46  and  O_47
   19  A    between atoms: C_46  and  C_61
   20  A    between atoms: C_53  and  C_54
                            x       y       z     vdW  Elec       q    Type
                         _______ _______ _______ _____ _____    ______ ____

>  <TORSDO>
F 20

$$$$
=
 OpenBabel11062417383D

 65 73  0  0  1  0  0  0  0  0999 V2000
  182.1970  178.2010  144.0220 C   0  0  0  0  0  2  0  0  0  0  0  0
  182.7350  179.5840  140.9540 O   0  0  0  0  0  0  0  0  0  0  0  0
  182.1760  177.9520  138.2820 C   0  0  1  0  0  3  0  0  0  0  0  0
  182.1830  180.2440  138.1460 C   0  0  1  0  0  3  0  0  0  0  0  0
  180.7710  178.6810  143.7860 C   0  0  0  0  0  2  0  0  0  0  0  0
  183.1890  178.5490  141.7880 C   0  0  2  0  0  3  0  0  0  0  0  0
  181.4750  179.2600  140.3820 C   0  0  2  0  0  0  0  0  0  0  0  0
  181.5080  180.3460  136.9270 O   0  0  0  0  0  1  0  0  0  0  0  0
  180.2630  178.2390  142.4230 C   0  0  1  0  0  3  0  0  0  0  0  0
  181.1900  180.3260  139.3220 C   0  0  0  0  0  2  0  0  0  0  0  0
  178.9330  177.8370  142.5410 O   0  0  0  0  0  1  0  0  0  0  0  0
  180.3460  179.3920  141.4280 C   0  0  0  0  0  2  0  0  0  0  0  0
  180.1830  177.3960  139.4730 O   0  0  0  0  0  1  0  0  0  0  0  0
  183.1980  179.0320  143.2280 C   0  0  2  0  0  3  0  0  0  0  0  0
  181.4840  177.8760  139.6590 C   0  0  1  0  0  3  0  0  0  0  0  0
  183.0030  179.0890  138.1740 O   0  0  0  0  0  0  0  0  0  0  0  0
  182.9670  176.6850  137.9510 C   0  0  1  0  0  3  0  0  0  0  0  0
  182.1010  175.6340  137.6410 O   0  0  0  0  0  1  0  0  0  0  0  0
  183.9330  176.9160  136.7960 C   0  0  0  0  0  2  0  0  0  0  0  0
  185.1970  176.1010  136.9920 C   0  0  0  0  0  2  0  0  0  0  0  0
  187.1080  173.2390  137.0270 N   0  0  0  0  0  0  0  0  0  0  0  0
  186.7120  174.9320  135.3830 C   0  0  0  0  0  2  0  0  0  0  0  0
  185.2730  175.0120  135.9410 C   0  0  1  0  0  3  0  0  0  0  0  0
  187.2990  173.5450  135.6090 C   0  0  2  0  0  3  0  0  0  0  0  0
  185.7290  172.7460  137.1620 C   0  0  1  0  0  3  0  0  0  0  0  0
  184.6910  173.6810  136.5010 C   0  0  2  0  0  3  0  0  0  0  0  0
  187.9330  172.2100  137.3360 O   0  0  0  0  0  1  0  0  0  0  0  0
  186.4210  172.5750  134.8430 C   0  0  0  0  0  2  0  0  0  0  0  0
  185.2230  172.4480  135.7670 C   0  0  1  0  0  0  0  0  0  0  0  0
  182.7580  170.0330  137.0160 N   0  0  0  0  0  2  0  0  0  0  0  0
  183.5850  171.2380  136.9750 C   0  0  0  0  0  2  0  0  0  0  0  0
  181.7530  170.1350  135.9600 C   0  0  0  0  0  2  0  0  0  0  0  0
  184.3440  171.2780  135.7230 N   0  0  1  0  0  0  0  0  0  0  0  0
  182.4300  170.2340  134.5950 C   0  0  0  0  0  2  0  0  0  0  0  0
  183.3960  171.4150  134.6110 C   0  0  0  0  0  2  0  0  0  0  0  0
  184.6100  178.9490  143.8270 C   0  0  2  0  0  3  0  0  0  0  0  0
  184.8930  180.1290  144.5290 O   0  0  0  0  0  0  0  0  0  0  0  0
  185.0720  178.9710  146.5950 C   0  0  0  0  0  1  0  0  0  0  0  0
  185.8000  179.7520  145.5190 C   0  0  0  0  0  2  0  0  0  0  0  0
  185.6520  178.7220  142.7070 C   0  0  1  0  0  3  0  0  0  0  0  0
  186.4400  177.4230  142.8550 C   0  0  0  0  0  2  0  0  0  0  0  0
  187.7300  177.6930  143.6140 C   0  0  2  0  0  3  0  0  0  0  0  0
  191.9580  177.1890  141.5260 C   0  0  0  0  0  2  0  0  0  0  0  0
  189.6520  175.6640  138.4320 C   0  0  0  0  0  1  0  0  0  0  0  0
  190.0530  178.0450  138.7090 N   0  0  0  0  0  2  0  0  0  0  0  0
  191.1700  178.1560  139.4830 O   0  0  0  0  0  0  0  0  0  0  0  0
  189.6800  176.7520  140.6380 C   0  0  2  0  0  3  0  0  0  0  0  0
  189.5980  176.0150  143.4820 C   0  0  0  0  0  2  0  0  0  0  0  0
  188.5530  176.9660  141.4670 O   0  0  0  0  0  0  0  0  0  0  0  0
  191.6890  177.0760  142.9010 O   0  0  0  0  0  0  0  0  0  0  0  0
  188.9400  177.2300  142.8030 C   0  0  1  0  0  3  0  0  0  0  0  0
  190.7710  177.7990  140.7790 C   0  0  1  0  0  3  0  0  0  0  0  0
  191.0580  175.8320  143.0610 C   0  0  0  0  0  2  0  0  0  0  0  0
  189.2830  176.9150  139.2070 C   0  0  2  0  0  3  0  0  0  0  0  0
  187.6630  176.9870  144.9570 C   0  0  0  0  0  2  0  0  0  0  0  0
  188.4480  177.7640  145.9580 C   0  0  0  0  0  3  0  0  0  0  0  0
  189.1350  177.1320  146.9040 C   0  0  0  0  0  3  0  0  0  0  0  0
  189.9130  177.9170  147.9040 C   0  0  0  0  0  2  0  0  0  0  0  0
  191.2950  177.3090  148.0800 C   0  0  0  0  0  2  0  0  0  0  0  0
  192.5900  175.5840  147.6160 C   0  0  0  0  0  1  0  0  0  0  0  0
  191.5000  176.3070  147.1300 O   0  0  0  0  0  0  0  0  0  0  0  0
  185.0360  178.8050  141.3110 C   0  0  1  0  0  3  0  0  0  0  0  0
  185.9770  178.2890  140.2330 C   0  0  0  0  0  2  0  0  0  0  0  0
  186.6060  179.0390  137.9980 C   0  0  0  0  0  2  0  0  0  0  0  0
  185.6780  178.9800  138.9470 C   0  0  0  0  0  3  0  0  0  0  0  0
  3 17  1  1  0  0  0
  3 15  1  0  0  0  0
  4  8  1  6  0  0  0
  4 16  1  0  0  0  0
  4 10  1  0  0  0  0
  5  1  1  0  0  0  0
  6  2  1  6  0  0  0
  6 14  1  0  0  0  0
  7 10  1  6  0  0  0
  7  2  1  0  0  0  0
  7 12  1  0  0  0  0
  9 11  1  1  0  0  0
  9  5  1  0  0  0  0
 12  9  1  0  0  0  0
 14 36  1  0  0  0  0
 14  1  1  1  0  0  0
 15 13  1  6  0  0  0
 15  7  1  0  0  0  0
 16  3  1  0  0  0  0
 17 18  1  6  0  0  0
 19 20  1  0  0  0  0
 19 17  1  0  0  0  0
 21 27  1  0  0  0  0
 22 24  1  0  0  0  0
 22 23  1  0  0  0  0
 23 26  1  0  0  0  0
 23 20  1  1  0  0  0
 24 28  1  6  0  0  0
 24 21  1  0  0  0  0
 25 21  1  6  0  0  0
 26 25  1  0  0  0  0
 28 29  1  0  0  0  0
 29 26  1  0  0  0  0
 29 25  1  0  0  0  0
 31 30  1  0  0  0  0
 32 30  1  0  0  0  0
 33 29  1  0  0  0  0
 33 31  1  0  0  0  0
 34 35  1  0  0  0  0
 34 32  1  0  0  0  0
 35 33  1  0  0  0  0
 36 37  1  0  0  0  0
 37 39  1  0  0  0  0
 39 38  1  0  0  0  0
 40 41  1  0  0  0  0
 40 36  1  0  0  0  0
 41 42  1  0  0  0  0
 42 55  1  0  0  0  0
 43 50  1  0  0  0  0
 44 54  1  0  0  0  0
 45 54  1  0  0  0  0
 45 46  1  0  0  0  0
 46 52  1  0  0  0  0
 47 52  1  0  0  0  0
 47 49  1  0  0  0  0
 49 51  1  0  0  0  0
 50 53  1  0  0  0  0
 51 48  1  0  0  0  0
 51 42  1  0  0  0  0
 52 43  1  0  0  0  0
 53 48  1  0  0  0  0
 54 47  1  0  0  0  0
 55 56  1  0  0  0  0
 56 57  2  0  0  0  0
 57 58  1  0  0  0  0
 58 59  1  0  0  0  0
 61 60  1  0  0  0  0
 61 59  1  0  0  0  0
 62  6  1  0  0  0  0
 62 40  1  0  0  0  0
 63 62  1  0  0  0  0
 64 65  2  0  0  0  0
 65 63  1  0  0  0  0
M  END
>  <MODEL>
7

>  <REMARK>
 VINA RESULT:      -3.8      2.747      7.887
  Name = 
  20 active torsions:
  status: ('A' for Active; 'I' for Inactive)
    1  A    between atoms: C_7  and  C_14
    2  A    between atoms: C_13  and  C_27
    3  A    between atoms: C_13  and  C_42
    4  A    between atoms: C_13  and  C_53
    5  A    between atoms: C_14  and  C_18
    6  A    between atoms: C_18  and  C_38
    7  A    between atoms: C_19  and  C_20
    8  A    between atoms: C_19  and  C_54
    9  A    between atoms: C_22  and  C_29
   10  A    between atoms: C_24  and  C_38
   11  A    between atoms: C_27  and  C_58
   12  A    between atoms: C_27  and  O_65
   13  A    between atoms: C_29  and  C_42
   14  A    between atoms: C_34  and  O_65
   15  A    between atoms: C_35  and  C_61
   16  A    between atoms: N_39  and  C_56
   17  A    between atoms: C_41  and  C_54
   18  A    between atoms: C_46  and  O_47
   19  A    between atoms: C_46  and  C_61
   20  A    between atoms: C_53  and  C_54
                            x       y       z     vdW  Elec       q    Type
                         _______ _______ _______ _____ _____    ______ ____

>  <TORSDO>
F 20

$$$$
=
 OpenBabel11062417383D

 65 72  0  0  1  0  0  0  0  0999 V2000
  182.4570  178.2780  144.2560 C   0  0  0  0  0  2  0  0  0  0  0  0
  182.4850  179.2390  140.9860 O   0  0  0  0  0  0  0  0  0  0  0  0
  180.8110  177.6670  138.7860 C   0  0  1  0  0  3  0  0  0  0  0  0
  181.3840  179.8430  138.3310 C   0  0  1  0  0  3  0  0  0  0  0  0
  181.2000  179.1350  144.3070 C   0  0  0  0  0  2  0  0  0  0  0  0
  182.8590  178.1730  141.8220 C   0  0  0  0  0  2  0  0  0  0  0  0
  181.0780  179.2580  140.7880 C   0  0  2  0  0  0  0  0  0  0  0  0
  180.4540  180.0560  137.3110 O   0  0  0  0  0  1  0  0  0  0  0  0
  180.2420  178.7710  143.1840 C   0  0  1  0  0  3  0  0  0  0  0  0
  180.8060  180.2880  139.6900 C   0  0  0  0  0  2  0  0  0  0  0  0
  178.9380  178.7820  143.6760 O   0  0  0  0  0  1  0  0  0  0  0  0
  180.3520  179.7820  142.0460 C   0  0  0  0  0  2  0  0  0  0  0  0
  179.1450  177.7940  140.4890 O   0  0  0  0  0  1  0  0  0  0  0  0
  183.3860  178.7280  143.1350 C   0  0  2  0  0  3  0  0  0  0  0  0
  180.5250  177.8870  140.2850 C   0  0  1  0  0  3  0  0  0  0  0  0
  181.8460  178.5050  138.3220 O   0  0  0  0  0  0  0  0  0  0  0  0
  181.1200  176.2050  138.4540 C   0  0  1  0  0  3  0  0  0  0  0  0
  182.4900  175.9580  138.5650 O   0  0  0  0  0  1  0  0  0  0  0  0
  180.3490  175.2520  139.3580 C   0  0  0  0  0  2  0  0  0  0  0  0
  179.5160  174.2930  138.5290 C   0  0  0  0  0  2  0  0  0  0  0  0
  179.2660  172.2290  135.7870 N   0  0  0  0  0  0  0  0  0  0  0  0
  179.3900  171.8260  138.1420 C   0  0  0  0  0  2  0  0  0  0  0  0
  180.3270  173.0520  138.2130 C   0  0  1  0  0  3  0  0  0  0  0  0
  179.4710  171.1660  136.7710 C   0  0  2  0  0  3  0  0  0  0  0  0
  180.5690  172.8900  135.6140 C   0  0  1  0  0  3  0  0  0  0  0  0
  181.2170  173.2960  136.9570 C   0  0  2  0  0  3  0  0  0  0  0  0
  178.9590  171.6360  134.6070 O   0  0  0  0  0  1  0  0  0  0  0  0
  180.9030  170.6990  136.6020 C   0  0  0  0  0  2  0  0  0  0  0  0
  181.6100  171.9960  136.2520 C   0  0  1  0  0  0  0  0  0  0  0  0
  184.5670  173.4550  134.6400 N   0  0  0  0  0  2  0  0  0  0  0  0
  183.3450  173.3880  135.4390 C   0  0  0  0  0  2  0  0  0  0  0  0
  185.6200  172.7390  135.3580 C   0  0  0  0  0  2  0  0  0  0  0  0
  182.8810  172.0010  135.5240 N   0  0  1  0  0  0  0  0  0  0  0  0
  185.2260  171.2770  135.5530 C   0  0  0  0  0  2  0  0  0  0  0  0
  183.8790  171.2230  136.2670 C   0  0  0  0  0  2  0  0  0  0  0  0
  184.8350  178.2780  143.3790 C   0  0  2  0  0  3  0  0  0  0  0  0
  185.4230  179.0960  144.3540 O   0  0  0  0  0  0  0  0  0  0  0  0
  185.3020  178.9840  146.7230 C   0  0  0  0  0  1  0  0  0  0  0  0
  185.6510  178.2540  145.4420 C   0  0  0  0  0  2  0  0  0  0  0  0
  185.6420  178.3380  142.0620 C   0  0  1  0  0  3  0  0  0  0  0  0
  186.9770  177.6020  142.1240 C   0  0  0  0  0  2  0  0  0  0  0  0
  188.0910  178.5240  141.6510 C   0  0  2  0  0  3  0  0  0  0  0  0
  191.4180  177.3070  138.5000 C   0  0  0  0  0  2  0  0  0  0  0  0
  188.2830  175.1740  136.8140 C   0  0  0  0  0  1  0  0  0  0  0  0
  188.6660  177.5260  136.3370 N   0  0  0  0  0  2  0  0  0  0  0  0
  189.9700  177.7720  136.6510 O   0  0  0  0  0  0  0  0  0  0  0  0
  188.9920  176.7750  138.5410 C   0  0  2  0  0  3  0  0  0  0  0  0
  189.8710  176.7750  141.3450 C   0  0  0  0  0  2  0  0  0  0  0  0
  188.1910  177.2450  139.6100 O   0  0  0  0  0  0  0  0  0  0  0  0
  191.6170  177.5530  139.8680 O   0  0  0  0  0  0  0  0  0  0  0  0
  188.9850  177.8140  140.6350 C   0  0  1  0  0  3  0  0  0  0  0  0
  190.0310  177.7690  138.0510 C   0  0  1  0  0  3  0  0  0  0  0  0
  191.1200  176.4220  140.5330 C   0  0  0  0  0  2  0  0  0  0  0  0
  188.1430  176.5950  137.3250 C   0  0  2  0  0  3  0  0  0  0  0  0
  188.8880  178.9850  142.8600 C   0  0  0  0  0  2  0  0  0  0  0  0
  189.1550  177.8140  143.7440 C   0  0  0  0  0  3  0  0  0  0  0  0
  189.2340  177.9760  145.0610 C   0  0  0  0  0  3  0  0  0  0  0  0
  189.5060  176.8020  145.9370 C   0  0  0  0  0  2  0  0  0  0  0  0
  190.9990  176.6760  146.1890 C   0  0  0  0  0  2  0  0  0  0  0  0
  190.1000  177.6400  147.9570 C   0  0  0  0  0  1  0  0  0  0  0  0
  191.3260  177.2430  147.4210 O   0  0  0  0  0  0  0  0  0  0  0  0
  184.8320  177.8550  140.8590 C   0  0  0  0  0  2  0  0  0  0  0  0
  185.1120  178.6740  139.6080 C   0  0  0  0  0  2  0  0  0  0  0  0
  184.7400  178.1180  137.2610 C   0  0  0  0  0  2  0  0  0  0  0  0
  185.2410  177.7600  138.4390 C   0  0  0  0  0  3  0  0  0  0  0  0
  1  5  1  0  0  0  0
  2  6  1  0  0  0  0
  3 17  1  1  0  0  0
  3 15  1  0  0  0  0
  4  8  1  6  0  0  0
  4 10  1  0  0  0  0
  6 14  1  0  0  0  0
  7 10  1  6  0  0  0
  7  2  1  0  0  0  0
  7 12  1  0  0  0  0
  9 11  1  1  0  0  0
  9  5  1  0  0  0  0
 12  9  1  0  0  0  0
 14 36  1  1  0  0  0
 14  1  1  0  0  0  0
 15 13  1  6  0  0  0
 15  7  1  0  0  0  0
 16  4  1  0  0  0  0
 16  3  1  0  0  0  0
 17 18  1  1  0  0  0
 17 19  1  0  0  0  0
 20 19  1  0  0  0  0
 21 24  1  0  0  0  0
 22 23  1  0  0  0  0
 23 20  1  6  0  0  0
 24 28  1  6  0  0  0
 24 22  1  0  0  0  0
 25 21  1  1  0  0  0
 25 29  1  0  0  0  0
 25 26  1  0  0  0  0
 26 23  1  0  0  0  0
 27 21  1  0  0  0  0
 29 28  1  0  0  0  0
 29 26  1  0  0  0  0
 30 32  1  0  0  0  0
 30 31  1  0  0  0  0
 31 33  1  0  0  0  0
 32 34  1  0  0  0  0
 33 29  1  0  0  0  0
 33 35  1  0  0  0  0
 34 35  1  0  0  0  0
 36 37  1  0  0  0  0
 37 39  1  0  0  0  0
 39 38  1  0  0  0  0
 40 41  1  0  0  0  0
 40 36  1  0  0  0  0
 42 41  1  0  0  0  0
 42 55  1  0  0  0  0
 43 50  1  0  0  0  0
 44 54  1  0  0  0  0
 45 46  1  0  0  0  0
 45 54  1  0  0  0  0
 46 52  1  0  0  0  0
 47 49  1  0  0  0  0
 49 51  1  0  0  0  0
 50 53  1  0  0  0  0
 51 48  1  0  0  0  0
 51 42  1  0  0  0  0
 52 43  1  0  0  0  0
 52 47  1  0  0  0  0
 53 48  1  0  0  0  0
 54 47  1  0  0  0  0
 55 56  1  0  0  0  0
 56 57  2  0  0  0  0
 57 58  1  0  0  0  0
 58 59  1  0  0  0  0
 59 61  1  0  0  0  0
 61 60  1  0  0  0  0
 62 40  1  0  0  0  0
 63 62  1  0  0  0  0
 64 65  2  0  0  0  0
 65 63  1  0  0  0  0
M  END
>  <MODEL>
8

>  <REMARK>
 VINA RESULT:      -3.4      2.619      8.473
  Name = 
  20 active torsions:
  status: ('A' for Active; 'I' for Inactive)
    1  A    between atoms: C_7  and  C_14
    2  A    between atoms: C_13  and  C_27
    3  A    between atoms: C_13  and  C_42
    4  A    between atoms: C_13  and  C_53
    5  A    between atoms: C_14  and  C_18
    6  A    between atoms: C_18  and  C_38
    7  A    between atoms: C_19  and  C_20
    8  A    between atoms: C_19  and  C_54
    9  A    between atoms: C_22  and  C_29
   10  A    between atoms: C_24  and  C_38
   11  A    between atoms: C_27  and  C_58
   12  A    between atoms: C_27  and  O_65
   13  A    between atoms: C_29  and  C_42
   14  A    between atoms: C_34  and  O_65
   15  A    between atoms: C_35  and  C_61
   16  A    between atoms: N_39  and  C_56
   17  A    between atoms: C_41  and  C_54
   18  A    between atoms: C_46  and  O_47
   19  A    between atoms: C_46  and  C_61
   20  A    between atoms: C_53  and  C_54
                            x       y       z     vdW  Elec       q    Type
                         _______ _______ _______ _____ _____    ______ ____

>  <TORSDO>
F 20

$$$$
