=
 OpenBabel11062415313D

 37 42  0  0  1  0  0  0  0  0999 V2000
  188.7420  178.5130  140.0280 C   0  0  0  0  0  0  0  0  0  0  0  0
  189.8500  178.7140  143.5340 O   0  0  0  0  0  0  0  0  0  0  0  0
  187.9680  179.5440  136.9840 N   0  0  0  0  0  1  0  0  0  0  0  0
  185.9310  178.0660  138.0900 C   0  0  0  0  0  2  0  0  0  0  0  0
  186.3190  178.3150  140.3820 C   0  0  0  0  0  3  0  0  0  0  0  0
  188.4700  178.4290  137.7750 C   0  0  2  0  0  3  0  0  0  0  0  0
  187.3480  177.5510  138.3690 C   0  0  1  0  0  3  0  0  0  0  0  0
  189.2180  178.9320  138.9090 N   0  0  0  0  0  0  0  0  0  0  0  0
  187.5450  177.6330  139.8880 C   0  0  1  0  0  3  0  0  0  0  0  0
  185.4540  178.5310  139.4100 C   0  0  0  0  0  0  0  0  0  0  0  0
  189.4000  178.8360  141.2620 N   0  0  0  0  0  2  0  0  0  0  0  0
  189.0890  178.3820  142.5870 C   0  0  0  0  0  0  0  0  0  0  0  0
  187.9090  177.5060  142.8740 C   0  0  1  0  0  3  0  0  0  0  0  0
  189.6690  175.9510  142.5330 F   0  0  0  0  0  0  0  0  0  0  0  0
  188.3410  176.0520  142.9030 C   0  0  0  0  0  2  0  0  0  0  0  0
  187.3020  177.8530  144.1190 O   0  0  0  0  0  0  0  0  0  0  0  0
  185.4560  178.4910  145.5330 C   0  0  0  0  0  3  0  0  0  0  0  0
  185.9540  178.2060  144.2560 C   0  0  0  0  0  0  0  0  0  0  0  0
  185.0920  178.2810  143.1500 C   0  0  0  0  0  3  0  0  0  0  0  0
  184.1150  178.8470  145.7040 C   0  0  0  0  0  3  0  0  0  0  0  0
  183.2630  178.9200  144.5990 C   0  0  0  0  0  3  0  0  0  0  0  0
  183.7520  178.6380  143.3220 C   0  0  0  0  0  3  0  0  0  0  0  0
  184.2070  179.1350  139.5890 O   0  0  0  0  0  0  0  0  0  0  0  0
  181.0460  177.2180  140.1790 C   0  0  0  0  0  2  0  0  0  0  0  0
  181.3630  178.5870  137.2170 C   0  0  0  0  0  1  0  0  0  0  0  0
  179.6020  179.4560  142.8380 C   0  0  2  0  0  3  0  0  0  0  0  0
  181.2650  181.4740  137.5490 O   0  0  0  0  0  1  0  0  0  0  0  0
  181.7850  180.6880  138.5790 C   0  0  1  0  0  3  0  0  0  0  0  0
  179.9380  177.4840  141.1900 C   0  0  0  0  0  2  0  0  0  0  0  0
  182.9870  178.5450  139.1450 C   0  0  1  0  0  3  0  0  0  0  0  0
  178.9310  179.6670  141.6120 O   0  0  0  0  0  0  0  0  0  0  0  0
  180.2570  180.6290  143.2150 O   0  0  0  0  0  1  0  0  0  0  0  0
  180.1320  178.9360  141.5560 C   0  0  1  0  0  0  0  0  0  0  0  0
  180.7000  180.3830  139.5990 C   0  0  0  0  0  2  0  0  0  0  0  0
  182.0480  178.3590  140.3460 C   0  0  1  0  0  3  0  0  0  0  0  0
  182.3750  179.3920  138.0210 C   0  0  1  0  0  3  0  0  0  0  0  0
  181.2640  179.5980  140.7920 C   0  0  2  0  0  3  0  0  0  0  0  0
  1 11  1  0  0  0  0
  4 10  1  0  0  0  0
  6  3  1  1  0  0  0
  6  7  1  0  0  0  0
  6  8  1  0  0  0  0
  7  4  1  1  0  0  0
  7  9  1  0  0  0  0
  8  1  2  0  0  0  0
  9  1  1  0  0  0  0
  9  5  1  1  0  0  0
 10 23  1  0  0  0  0
 10  5  2  0  0  0  0
 11 12  1  0  0  0  0
 12 13  1  0  0  0  0
 12  2  2  0  0  0  0
 13 15  1  1  0  0  0
 13 16  1  0  0  0  0
 14 15  1  0  0  0  0
 16 18  1  0  0  0  0
 17 20  1  0  0  0  0
 18 17  2  0  0  0  0
 19 22  2  0  0  0  0
 19 18  1  0  0  0  0
 21 20  2  0  0  0  0
 22 21  1  0  0  0  0
 24 29  1  0  0  0  0
 26 32  1  6  0  0  0
 28 27  1  6  0  0  0
 28 34  1  0  0  0  0
 30 23  1  1  0  0  0
 30 35  1  0  0  0  0
 31 26  1  0  0  0  0
 33 29  1  6  0  0  0
 33 31  1  0  0  0  0
 33 26  1  0  0  0  0
 35 24  1  6  0  0  0
 35 37  1  0  0  0  0
 36 25  1  1  0  0  0
 36 28  1  0  0  0  0
 36 30  1  0  0  0  0
 37 34  1  6  0  0  0
 37 33  1  0  0  0  0
M  END
>  <MODEL>
1

>  <REMARK>
 VINA RESULT:      -7.8      0.000      0.000
  Name = 
  6 active torsions:
  status: ('A' for Active; 'I' for Inactive)
    1  A    between atoms: C_8  and  O_20
    2  A    between atoms: C_8  and  C_24
    3  A    between atoms: C_8  and  C_34
    4  A    between atoms: C_9  and  O_20
    5  A    between atoms: O_16  and  C_17
    6  A    between atoms: O_16  and  C_29
                            x       y       z     vdW  Elec       q    Type
                         _______ _______ _______ _____ _____    ______ ____

>  <TORSDO>
F 6

$$$$
=
 OpenBabel11062415313D

 37 42  0  0  1  0  0  0  0  0999 V2000
  187.1180  177.7610  145.1510 C   0  0  0  0  0  0  0  0  0  0  0  0
  190.0540  175.9310  143.8890 O   0  0  0  0  0  0  0  0  0  0  0  0
  184.2040  178.2530  146.6340 N   0  0  0  0  0  1  0  0  0  0  0  0
  184.2350  179.3230  144.1020 C   0  0  0  0  0  2  0  0  0  0  0  0
  185.8920  178.0590  143.0440 C   0  0  0  0  0  3  0  0  0  0  0  0
  185.4930  178.8480  146.3080 C   0  0  2  0  0  3  0  0  0  0  0  0
  185.5250  179.5010  144.9100 C   0  0  1  0  0  3  0  0  0  0  0  0
  186.5140  177.8200  146.2850 N   0  0  0  0  0  0  0  0  0  0  0  0
  186.6190  178.7440  144.1460 C   0  0  1  0  0  3  0  0  0  0  0  0
  184.6150  178.3870  143.0220 C   0  0  0  0  0  0  0  0  0  0  0  0
  188.2200  176.8620  144.9630 N   0  0  0  0  0  2  0  0  0  0  0  0
  189.0790  176.7260  143.8220 C   0  0  0  0  0  0  0  0  0  0  0  0
  188.8710  177.5170  142.5670 C   0  0  1  0  0  3  0  0  0  0  0  0
  190.2230  179.0670  143.7510 F   0  0  0  0  0  0  0  0  0  0  0  0
  189.9020  178.6270  142.4800 C   0  0  0  0  0  2  0  0  0  0  0  0
  188.9620  176.6830  141.4120 O   0  0  0  0  0  0  0  0  0  0  0  0
  190.1510  176.7850  139.3170 C   0  0  0  0  0  3  0  0  0  0  0  0
  189.0610  177.1730  140.1040 C   0  0  0  0  0  0  0  0  0  0  0  0
  188.0970  178.0400  139.5630 C   0  0  0  0  0  3  0  0  0  0  0  0
  190.2800  177.2560  138.0070 C   0  0  0  0  0  3  0  0  0  0  0  0
  189.3170  178.1180  137.4750 C   0  0  0  0  0  3  0  0  0  0  0  0
  188.2250  178.5090  138.2530 C   0  0  0  0  0  3  0  0  0  0  0  0
  183.6980  177.9120  142.0810 O   0  0  0  0  0  0  0  0  0  0  0  0
  184.4240  178.6980  138.4940 C   0  0  0  0  0  2  0  0  0  0  0  0
  181.5890  179.8510  139.6710 C   0  0  0  0  0  1  0  0  0  0  0  0
  184.3040  175.1730  137.1830 C   0  0  2  0  0  3  0  0  0  0  0  0
  179.8590  177.5810  140.2260 O   0  0  0  0  0  1  0  0  0  0  0  0
  181.2420  177.4270  140.3400 C   0  0  1  0  0  3  0  0  0  0  0  0
  184.5990  177.7440  137.3200 C   0  0  0  0  0  2  0  0  0  0  0  0
  183.4200  178.5870  140.8560 C   0  0  1  0  0  3  0  0  0  0  0  0
  183.1260  175.8640  136.8190 O   0  0  0  0  0  0  0  0  0  0  0  0
  183.9760  174.1100  138.0250 O   0  0  0  0  0  1  0  0  0  0  0  0
  183.9390  176.4720  137.7940 C   0  0  1  0  0  0  0  0  0  0  0  0
  181.8120  176.8680  139.0460 C   0  0  0  0  0  2  0  0  0  0  0  0
  184.0790  177.8230  139.6970 C   0  0  1  0  0  3  0  0  0  0  0  0
  181.9050  178.7610  140.6860 C   0  0  1  0  0  3  0  0  0  0  0  0
  183.3180  176.5990  139.1730 C   0  0  2  0  0  3  0  0  0  0  0  0
  1  8  2  0  0  0  0
  6  3  1  6  0  0  0
  7  4  1  6  0  0  0
  7  6  1  0  0  0  0
  8  6  1  0  0  0  0
  9  5  1  6  0  0  0
  9  7  1  0  0  0  0
  9  1  1  0  0  0  0
 10  5  2  0  0  0  0
 10  4  1  0  0  0  0
 11  1  1  0  0  0  0
 12  2  2  0  0  0  0
 12 11  1  0  0  0  0
 13 15  1  6  0  0  0
 13 12  1  0  0  0  0
 15 14  1  0  0  0  0
 16 13  1  0  0  0  0
 17 18  1  0  0  0  0
 18 16  1  0  0  0  0
 19 18  2  0  0  0  0
 20 17  2  0  0  0  0
 21 20  1  0  0  0  0
 21 22  2  0  0  0  0
 22 19  1  0  0  0  0
 23 10  1  0  0  0  0
 26 33  1  0  0  0  0
 26 32  1  1  0  0  0
 28 27  1  6  0  0  0
 28 36  1  0  0  0  0
 29 24  1  0  0  0  0
 30 23  1  1  0  0  0
 31 26  1  0  0  0  0
 31 33  1  0  0  0  0
 33 29  1  6  0  0  0
 33 37  1  0  0  0  0
 34 28  1  0  0  0  0
 35 24  1  6  0  0  0
 35 30  1  0  0  0  0
 36 25  1  6  0  0  0
 36 30  1  0  0  0  0
 37 34  1  6  0  0  0
 37 35  1  0  0  0  0
M  END
>  <MODEL>
2

>  <REMARK>
 VINA RESULT:      -7.8      2.728      5.753
  Name = 
  6 active torsions:
  status: ('A' for Active; 'I' for Inactive)
    1  A    between atoms: C_8  and  O_20
    2  A    between atoms: C_8  and  C_24
    3  A    between atoms: C_8  and  C_34
    4  A    between atoms: C_9  and  O_20
    5  A    between atoms: O_16  and  C_17
    6  A    between atoms: O_16  and  C_29
                            x       y       z     vdW  Elec       q    Type
                         _______ _______ _______ _____ _____    ______ ____

>  <TORSDO>
F 6

$$$$
=
 OpenBabel11062415313D

 37 42  0  0  1  0  0  0  0  0999 V2000
  189.1970  178.2670  140.3510 C   0  0  0  0  0  0  0  0  0  0  0  0
  189.9880  178.4530  143.9430 O   0  0  0  0  0  0  0  0  0  0  0  0
  188.8030  179.2900  137.2320 N   0  0  0  0  0  1  0  0  0  0  0  0
  186.5510  178.0180  138.1630 C   0  0  0  0  0  2  0  0  0  0  0  0
  186.7440  178.2860  140.4770 C   0  0  0  0  0  3  0  0  0  0  0  0
  189.1300  178.1550  138.0830 C   0  0  2  0  0  3  0  0  0  0  0  0
  187.8850  177.3900  138.5810 C   0  0  1  0  0  3  0  0  0  0  0  0
  189.8100  178.6180  139.2760 N   0  0  0  0  0  0  0  0  0  0  0  0
  187.9460  177.4900  140.1110 C   0  0  1  0  0  3  0  0  0  0  0  0
  185.9960  178.5520  139.4250 C   0  0  0  0  0  0  0  0  0  0  0  0
  189.7630  178.5600  141.6370 N   0  0  0  0  0  2  0  0  0  0  0  0
  189.2920  178.1650  142.9330 C   0  0  0  0  0  0  0  0  0  0  0  0
  188.0180  177.4010  143.1200 C   0  0  1  0  0  3  0  0  0  0  0  0
  189.6050  175.6800  142.7310 F   0  0  0  0  0  0  0  0  0  0  0  0
  188.3100  175.9120  143.1550 C   0  0  0  0  0  2  0  0  0  0  0  0
  187.3570  177.7900  144.3240 O   0  0  0  0  0  0  0  0  0  0  0  0
  185.4540  178.4930  145.6280 C   0  0  0  0  0  3  0  0  0  0  0  0
  186.0090  178.1650  144.3860 C   0  0  0  0  0  0  0  0  0  0  0  0
  185.2020  178.2210  143.2370 C   0  0  0  0  0  3  0  0  0  0  0  0
  184.1120  178.8720  145.7240 C   0  0  0  0  0  3  0  0  0  0  0  0
  183.3150  178.9250  144.5770 C   0  0  0  0  0  3  0  0  0  0  0  0
  183.8610  178.6010  143.3330 C   0  0  0  0  0  3  0  0  0  0  0  0
  184.7940  179.2650  139.4750 O   0  0  0  0  0  0  0  0  0  0  0  0
  181.2740  179.4010  140.7420 C   0  0  0  0  0  2  0  0  0  0  0  0
  182.1960  176.5730  139.3640 C   0  0  0  0  0  1  0  0  0  0  0  0
  179.9920  182.0110  138.3520 C   0  0  2  0  0  3  0  0  0  0  0  0
  182.6230  177.0540  136.5280 O   0  0  0  0  0  1  0  0  0  0  0  0
  182.8560  178.0880  137.4370 C   0  0  1  0  0  3  0  0  0  0  0  0
  180.1290  180.3000  140.2940 C   0  0  0  0  0  2  0  0  0  0  0  0
  183.5440  178.6590  139.7940 C   0  0  1  0  0  3  0  0  0  0  0  0
  179.5220  180.7330  137.9700 O   0  0  0  0  0  0  0  0  0  0  0  0
  180.8130  182.5210  137.3470 O   0  0  0  0  0  1  0  0  0  0  0  0
  180.5570  180.7660  138.9240 C   0  0  1  0  0  0  0  0  0  0  0  0
  181.6210  178.9670  137.5530 C   0  0  0  0  0  2  0  0  0  0  0  0
  182.4520  179.7400  139.8300 C   0  0  1  0  0  3  0  0  0  0  0  0
  183.2440  177.5250  138.8050 C   0  0  1  0  0  3  0  0  0  0  0  0
  181.8770  180.1670  138.4750 C   0  0  2  0  0  3  0  0  0  0  0  0
  1 11  1  0  0  0  0
  4 10  1  0  0  0  0
  6  3  1  6  0  0  0
  6  7  1  0  0  0  0
  6  8  1  0  0  0  0
  7  4  1  6  0  0  0
  7  9  1  0  0  0  0
  8  1  2  0  0  0  0
  9  1  1  0  0  0  0
  9  5  1  6  0  0  0
 10 23  1  0  0  0  0
 10  5  2  0  0  0  0
 11 12  1  0  0  0  0
 12 13  1  0  0  0  0
 12  2  2  0  0  0  0
 13 15  1  1  0  0  0
 13 16  1  0  0  0  0
 14 15  1  0  0  0  0
 16 18  1  0  0  0  0
 17 20  1  0  0  0  0
 18 17  2  0  0  0  0
 19 22  2  0  0  0  0
 19 18  1  0  0  0  0
 21 20  2  0  0  0  0
 22 21  1  0  0  0  0
 26 32  1  6  0  0  0
 26 33  1  0  0  0  0
 28 27  1  6  0  0  0
 28 34  1  0  0  0  0
 28 36  1  0  0  0  0
 29 24  1  0  0  0  0
 30 23  1  6  0  0  0
 30 35  1  0  0  0  0
 31 26  1  0  0  0  0
 31 33  1  0  0  0  0
 33 29  1  1  0  0  0
 35 24  1  1  0  0  0
 36 25  1  1  0  0  0
 36 30  1  0  0  0  0
 37 34  1  6  0  0  0
 37 33  1  0  0  0  0
 37 35  1  0  0  0  0
M  END
>  <MODEL>
3

>  <REMARK>
 VINA RESULT:      -7.7      1.394      2.154
  Name = 
  6 active torsions:
  status: ('A' for Active; 'I' for Inactive)
    1  A    between atoms: C_8  and  O_20
    2  A    between atoms: C_8  and  C_24
    3  A    between atoms: C_8  and  C_34
    4  A    between atoms: C_9  and  O_20
    5  A    between atoms: O_16  and  C_17
    6  A    between atoms: O_16  and  C_29
                            x       y       z     vdW  Elec       q    Type
                         _______ _______ _______ _____ _____    ______ ____

>  <TORSDO>
F 6

$$$$
=
 OpenBabel11062415313D

 37 42  0  0  1  0  0  0  0  0999 V2000
  186.8550  177.6380  144.6370 C   0  0  0  0  0  0  0  0  0  0  0  0
  189.4770  175.7890  142.8290 O   0  0  0  0  0  0  0  0  0  0  0  0
  184.1910  178.1340  146.5320 N   0  0  0  0  0  1  0  0  0  0  0  0
  183.9780  179.4600  144.1330 C   0  0  0  0  0  2  0  0  0  0  0  0
  185.3990  178.2230  142.7480 C   0  0  0  0  0  3  0  0  0  0  0  0
  185.4670  178.6870  146.0970 C   0  0  2  0  0  3  0  0  0  0  0  0
  185.3680  179.4800  144.7770 C   0  0  1  0  0  3  0  0  0  0  0  0
  186.4040  177.6120  145.8420 N   0  0  0  0  0  0  0  0  0  0  0  0
  186.3040  178.7470  143.8060 C   0  0  1  0  0  3  0  0  0  0  0  0
  184.1550  178.6230  142.9270 C   0  0  0  0  0  0  0  0  0  0  0  0
  187.8610  176.7030  144.2200 N   0  0  0  0  0  2  0  0  0  0  0  0
  188.5580  176.6400  142.9680 C   0  0  0  0  0  0  0  0  0  0  0  0
  188.2490  177.5690  141.8330 C   0  0  1  0  0  3  0  0  0  0  0  0
  190.0170  178.7250  142.9160 F   0  0  0  0  0  0  0  0  0  0  0  0
  188.9560  178.8940  142.0460 C   0  0  0  0  0  2  0  0  0  0  0  0
  188.6480  177.0050  140.5840 O   0  0  0  0  0  0  0  0  0  0  0  0
  189.4280  177.9570  138.5110 C   0  0  0  0  0  3  0  0  0  0  0  0
  188.3650  177.5860  139.3420 C   0  0  0  0  0  0  0  0  0  0  0  0
  187.0470  177.8060  138.9100 C   0  0  0  0  0  3  0  0  0  0  0  0
  189.1810  178.5400  137.2650 C   0  0  0  0  0  3  0  0  0  0  0  0
  187.8660  178.7550  136.8410 C   0  0  0  0  0  3  0  0  0  0  0  0
  186.7990  178.3860  137.6640 C   0  0  0  0  0  3  0  0  0  0  0  0
  183.0960  178.3000  142.0730 O   0  0  0  0  0  0  0  0  0  0  0  0
  183.2100  176.3700  138.8670 C   0  0  0  0  0  2  0  0  0  0  0  0
  183.1730  179.6360  138.5780 C   0  0  0  0  0  1  0  0  0  0  0  0
  179.8280  174.7450  139.1510 C   0  0  2  0  0  3  0  0  0  0  0  0
  180.5790  180.5880  139.4820 O   0  0  0  0  0  1  0  0  0  0  0  0
  181.1150  179.4310  140.0500 C   0  0  1  0  0  3  0  0  0  0  0  0
  182.1870  175.3960  138.2980 C   0  0  0  0  0  2  0  0  0  0  0  0
  183.2370  178.2130  140.6570 C   0  0  1  0  0  3  0  0  0  0  0  0
  179.7810  175.7950  138.2070 O   0  0  0  0  0  0  0  0  0  0  0  0
  178.9800  175.0440  140.2190 O   0  0  0  0  0  1  0  0  0  0  0  0
  180.9160  175.7430  139.0360 C   0  0  1  0  0  0  0  0  0  0  0  0
  180.5820  178.2020  139.3310 C   0  0  0  0  0  2  0  0  0  0  0  0
  182.6040  176.9030  140.1650 C   0  0  1  0  0  3  0  0  0  0  0  0
  182.6430  179.4630  139.9940 C   0  0  1  0  0  3  0  0  0  0  0  0
  181.0810  176.9100  139.9920 C   0  0  2  0  0  3  0  0  0  0  0  0
  1  8  2  0  0  0  0
  2 12  2  0  0  0  0
  5 10  2  0  0  0  0
  6  3  1  6  0  0  0
  7  4  1  6  0  0  0
  7  6  1  0  0  0  0
  8  6  1  0  0  0  0
  9  5  1  6  0  0  0
  9  1  1  0  0  0  0
  9  7  1  0  0  0  0
 10  4  1  0  0  0  0
 11  1  1  0  0  0  0
 12 11  1  0  0  0  0
 13 15  1  1  0  0  0
 13 12  1  0  0  0  0
 15 14  1  0  0  0  0
 16 13  1  0  0  0  0
 17 18  1  0  0  0  0
 18 16  1  0  0  0  0
 19 18  2  0  0  0  0
 20 17  2  0  0  0  0
 21 20  1  0  0  0  0
 21 22  2  0  0  0  0
 22 19  1  0  0  0  0
 23 10  1  0  0  0  0
 26 32  1  1  0  0  0
 28 27  1  6  0  0  0
 29 24  1  0  0  0  0
 30 23  1  1  0  0  0
 31 33  1  0  0  0  0
 31 26  1  0  0  0  0
 33 29  1  6  0  0  0
 33 26  1  0  0  0  0
 33 37  1  0  0  0  0
 34 28  1  0  0  0  0
 35 24  1  6  0  0  0
 35 30  1  0  0  0  0
 36 25  1  6  0  0  0
 36 28  1  0  0  0  0
 36 30  1  0  0  0  0
 37 34  1  6  0  0  0
 37 35  1  0  0  0  0
M  END
>  <MODEL>
4

>  <REMARK>
 VINA RESULT:      -7.5      2.572      5.173
  Name = 
  6 active torsions:
  status: ('A' for Active; 'I' for Inactive)
    1  A    between atoms: C_8  and  O_20
    2  A    between atoms: C_8  and  C_24
    3  A    between atoms: C_8  and  C_34
    4  A    between atoms: C_9  and  O_20
    5  A    between atoms: O_16  and  C_17
    6  A    between atoms: O_16  and  C_29
                            x       y       z     vdW  Elec       q    Type
                         _______ _______ _______ _____ _____    ______ ____

>  <TORSDO>
F 6

$$$$
=
 OpenBabel11062415313D

 37 42  0  0  1  0  0  0  0  0999 V2000
  180.1780  177.0410  139.5900 C   0  0  0  0  0  0  0  0  0  0  0  0
  179.6120  177.6170  143.1830 O   0  0  0  0  0  0  0  0  0  0  0  0
  180.8570  175.3850  136.8110 N   0  0  0  0  0  1  0  0  0  0  0  0
  182.4650  177.5980  137.0780 C   0  0  0  0  0  2  0  0  0  0  0  0
  182.4490  177.9530  139.3890 C   0  0  0  0  0  3  0  0  0  0  0  0
  180.1380  176.5160  137.3810 C   0  0  2  0  0  3  0  0  0  0  0  0
  181.0030  177.7890  137.4970 C   0  0  1  0  0  3  0  0  0  0  0  0
  179.7200  176.2000  138.7320 N   0  0  0  0  0  0  0  0  0  0  0  0
  181.0240  178.1160  138.9960 C   0  0  1  0  0  3  0  0  0  0  0  0
  183.2150  177.6880  138.3490 C   0  0  0  0  0  0  0  0  0  0  0  0
  179.8010  176.9430  140.9720 N   0  0  0  0  0  2  0  0  0  0  0  0
  180.1160  177.8360  142.0500 C   0  0  0  0  0  0  0  0  0  0  0  0
  181.0010  179.0310  141.8650 C   0  0  1  0  0  3  0  0  0  0  0  0
  179.6660  180.8920  142.4880 F   0  0  0  0  0  0  0  0  0  0  0  0
  180.1750  180.2150  141.3960 C   0  0  0  0  0  2  0  0  0  0  0  0
  181.6750  179.3640  143.0780 O   0  0  0  0  0  0  0  0  0  0  0  0
  183.4310  179.0030  144.6910 C   0  0  0  0  0  3  0  0  0  0  0  0
  182.9960  178.9940  143.3600 C   0  0  0  0  0  0  0  0  0  0  0  0
  183.8920  178.6170  142.3470 C   0  0  0  0  0  3  0  0  0  0  0  0
  184.7430  178.6390  145.0070 C   0  0  0  0  0  3  0  0  0  0  0  0
  185.6300  178.2630  143.9940 C   0  0  0  0  0  3  0  0  0  0  0  0
  185.2030  178.2520  142.6640 C   0  0  0  0  0  3  0  0  0  0  0  0
  184.6000  177.5070  138.4180 O   0  0  0  0  0  0  0  0  0  0  0  0
  187.6010  179.0180  136.7660 C   0  0  0  0  0  2  0  0  0  0  0  0
  186.0590  176.6700  135.0750 C   0  0  0  0  0  1  0  0  0  0  0  0
  190.1790  177.7990  139.2220 C   0  0  2  0  0  3  0  0  0  0  0  0
  186.4270  174.1560  136.4900 O   0  0  0  0  0  1  0  0  0  0  0  0
  186.3850  175.3470  137.2170 C   0  0  1  0  0  3  0  0  0  0  0  0
  189.0540  179.0040  137.2220 C   0  0  0  0  0  2  0  0  0  0  0  0
  185.4650  177.6930  137.3000 C   0  0  1  0  0  3  0  0  0  0  0  0
  190.2430  177.0340  138.0350 O   0  0  0  0  0  0  0  0  0  0  0  0
  189.8160  176.9740  140.2870 O   0  0  0  0  0  1  0  0  0  0  0  0
  189.1100  177.8530  138.1980 C   0  0  1  0  0  0  0  0  0  0  0  0
  187.7960  175.8610  137.4560 C   0  0  0  0  0  2  0  0  0  0  0  0
  186.8320  178.1910  137.7950 C   0  0  1  0  0  3  0  0  0  0  0  0
  185.5500  176.3970  136.4830 C   0  0  1  0  0  3  0  0  0  0  0  0
  187.7880  177.1200  138.3330 C   0  0  2  0  0  3  0  0  0  0  0  0
  1 11  1  0  0  0  0
  4 10  1  0  0  0  0
  6  3  1  1  0  0  0
  6  7  1  0  0  0  0
  6  8  1  0  0  0  0
  7  4  1  1  0  0  0
  7  9  1  0  0  0  0
  8  1  2  0  0  0  0
  9  5  1  1  0  0  0
  9  1  1  0  0  0  0
 10 23  1  0  0  0  0
 10  5  2  0  0  0  0
 11 12  1  0  0  0  0
 12  2  2  0  0  0  0
 13 15  1  1  0  0  0
 13 12  1  0  0  0  0
 13 16  1  0  0  0  0
 15 14  1  0  0  0  0
 16 18  1  0  0  0  0
 17 20  1  0  0  0  0
 18 17  2  0  0  0  0
 19 22  2  0  0  0  0
 19 18  1  0  0  0  0
 21 20  2  0  0  0  0
 22 21  1  0  0  0  0
 24 29  1  0  0  0  0
 26 32  1  1  0  0  0
 28 27  1  6  0  0  0
 28 34  1  0  0  0  0
 30 35  1  0  0  0  0
 30 23  1  1  0  0  0
 31 33  1  0  0  0  0
 31 26  1  0  0  0  0
 33 29  1  6  0  0  0
 33 37  1  0  0  0  0
 33 26  1  0  0  0  0
 35 24  1  6  0  0  0
 35 37  1  0  0  0  0
 36 25  1  6  0  0  0
 36 28  1  0  0  0  0
 36 30  1  0  0  0  0
 37 34  1  6  0  0  0
M  END
>  <MODEL>
5

>  <REMARK>
 VINA RESULT:      -7.3      3.796      7.429
  Name = 
  6 active torsions:
  status: ('A' for Active; 'I' for Inactive)
    1  A    between atoms: C_8  and  O_20
    2  A    between atoms: C_8  and  C_24
    3  A    between atoms: C_8  and  C_34
    4  A    between atoms: C_9  and  O_20
    5  A    between atoms: O_16  and  C_17
    6  A    between atoms: O_16  and  C_29
                            x       y       z     vdW  Elec       q    Type
                         _______ _______ _______ _____ _____    ______ ____

>  <TORSDO>
F 6

$$$$
=
 OpenBabel11062415313D

 37 42  0  0  1  0  0  0  0  0999 V2000
  181.6530  178.9900  141.2000 C   0  0  0  0  0  0  0  0  0  0  0  0
  182.5440  178.3460  144.7140 O   0  0  0  0  0  0  0  0  0  0  0  0
  180.2760  178.4940  138.2350 N   0  0  0  0  0  1  0  0  0  0  0  0
  182.9720  178.9850  138.0200 C   0  0  0  0  0  2  0  0  0  0  0  0
  183.7670  178.3510  140.1250 C   0  0  0  0  0  3  0  0  0  0  0  0
  180.7260  179.4980  139.1890 C   0  0  2  0  0  3  0  0  0  0  0  0
  182.2270  179.8310  139.0580 C   0  0  1  0  0  3  0  0  0  0  0  0
  180.5490  179.0040  140.5400 N   0  0  0  0  0  0  0  0  0  0  0  0
  182.8320  179.4700  140.4220 C   0  0  1  0  0  3  0  0  0  0  0  0
  183.8440  178.1090  138.8310 C   0  0  0  0  0  0  0  0  0  0  0  0
  181.6650  178.6130  142.5850 N   0  0  0  0  0  2  0  0  0  0  0  0
  182.7630  178.6360  143.5080 C   0  0  0  0  0  0  0  0  0  0  0  0
  184.1500  179.0190  143.0910 C   0  0  1  0  0  3  0  0  0  0  0  0
  185.1340  179.5960  145.1720 F   0  0  0  0  0  0  0  0  0  0  0  0
  184.6670  180.1300  143.9850 C   0  0  0  0  0  2  0  0  0  0  0  0
  185.0330  177.8990  143.1530 O   0  0  0  0  0  0  0  0  0  0  0  0
  187.3000  177.4550  143.8450 C   0  0  0  0  0  3  0  0  0  0  0  0
  186.4080  177.9770  142.9010 C   0  0  0  0  0  0  0  0  0  0  0  0
  186.9140  178.5640  141.7290 C   0  0  0  0  0  3  0  0  0  0  0  0
  188.6790  177.5170  143.6240 C   0  0  0  0  0  3  0  0  0  0  0  0
  189.1750  178.1020  142.4560 C   0  0  0  0  0  3  0  0  0  0  0  0
  188.2920  178.6240  141.5080 C   0  0  0  0  0  3  0  0  0  0  0  0
  184.6620  177.1280  138.2620 O   0  0  0  0  0  0  0  0  0  0  0  0
  187.5900  178.6360  136.4830 C   0  0  0  0  0  2  0  0  0  0  0  0
  185.8400  176.4510  134.7750 C   0  0  0  0  0  1  0  0  0  0  0  0
  190.2920  177.1800  138.6610 C   0  0  2  0  0  3  0  0  0  0  0  0
  186.2130  173.8440  136.0060 O   0  0  0  0  0  1  0  0  0  0  0  0
  186.2700  174.9880  136.8040 C   0  0  1  0  0  3  0  0  0  0  0  0
  189.0710  178.5450  136.8270 C   0  0  0  0  0  2  0  0  0  0  0  0
  185.4500  177.3540  137.0960 C   0  0  1  0  0  3  0  0  0  0  0  0
  190.2390  176.4880  137.4290 O   0  0  0  0  0  0  0  0  0  0  0  0
  189.9750  176.3020  139.6990 O   0  0  0  0  0  1  0  0  0  0  0  0
  189.1540  177.3340  137.7250 C   0  0  1  0  0  0  0  0  0  0  0  0
  187.7140  175.4380  136.9660 C   0  0  0  0  0  2  0  0  0  0  0  0
  186.8670  177.7730  137.5160 C   0  0  1  0  0  3  0  0  0  0  0  0
  185.4250  176.1090  136.1990 C   0  0  1  0  0  3  0  0  0  0  0  0
  187.8180  176.6390  137.9150 C   0  0  2  0  0  3  0  0  0  0  0  0
  1 11  1  0  0  0  0
  4 10  1  0  0  0  0
  6  3  1  6  0  0  0
  6  8  1  0  0  0  0
  7  4  1  6  0  0  0
  7  6  1  0  0  0  0
  7  9  1  0  0  0  0
  8  1  2  0  0  0  0
  9  5  1  6  0  0  0
  9  1  1  0  0  0  0
 10  5  2  0  0  0  0
 11 12  1  0  0  0  0
 12  2  2  0  0  0  0
 13 16  1  0  0  0  0
 13 12  1  0  0  0  0
 13 15  1  1  0  0  0
 15 14  1  0  0  0  0
 18 16  1  0  0  0  0
 18 17  2  0  0  0  0
 19 18  1  0  0  0  0
 20 17  1  0  0  0  0
 21 20  2  0  0  0  0
 22 19  2  0  0  0  0
 22 21  1  0  0  0  0
 23 10  1  0  0  0  0
 24 29  1  0  0  0  0
 26 32  1  1  0  0  0
 28 27  1  6  0  0  0
 28 34  1  0  0  0  0
 30 35  1  0  0  0  0
 30 23  1  1  0  0  0
 31 33  1  0  0  0  0
 31 26  1  0  0  0  0
 33 29  1  6  0  0  0
 33 37  1  0  0  0  0
 33 26  1  0  0  0  0
 35 24  1  6  0  0  0
 35 37  1  0  0  0  0
 36 25  1  6  0  0  0
 36 28  1  0  0  0  0
 36 30  1  0  0  0  0
 37 34  1  6  0  0  0
M  END
>  <MODEL>
6

>  <REMARK>
 VINA RESULT:      -7.3      3.445      6.883
  Name = 
  6 active torsions:
  status: ('A' for Active; 'I' for Inactive)
    1  A    between atoms: C_8  and  O_20
    2  A    between atoms: C_8  and  C_24
    3  A    between atoms: C_8  and  C_34
    4  A    between atoms: C_9  and  O_20
    5  A    between atoms: O_16  and  C_17
    6  A    between atoms: O_16  and  C_29
                            x       y       z     vdW  Elec       q    Type
                         _______ _______ _______ _____ _____    ______ ____

>  <TORSDO>
F 6

$$$$
=
 OpenBabel11062415313D

 37 42  0  0  1  0  0  0  0  0999 V2000
  186.1540  178.1240  144.9050 C   0  0  0  0  0  0  0  0  0  0  0  0
  189.4220  176.4420  145.1280 O   0  0  0  0  0  0  0  0  0  0  0  0
  182.8710  178.4970  145.0420 N   0  0  0  0  0  1  0  0  0  0  0  0
  183.8780  179.3440  142.6290 C   0  0  0  0  0  2  0  0  0  0  0  0
  185.8730  178.1360  142.4650 C   0  0  0  0  0  3  0  0  0  0  0  0
  184.1560  179.1670  145.1910 C   0  0  2  0  0  3  0  0  0  0  0  0
  184.7230  179.6980  143.8570 C   0  0  1  0  0  3  0  0  0  0  0  0
  185.1410  178.2290  145.6920 N   0  0  0  0  0  0  0  0  0  0  0  0
  186.0630  178.9720  143.6810 C   0  0  1  0  0  3  0  0  0  0  0  0
  184.7010  178.3540  141.9010 C   0  0  0  0  0  0  0  0  0  0  0  0
  187.2740  177.3060  145.2730 N   0  0  0  0  0  2  0  0  0  0  0  0
  188.5260  177.1450  144.5900 C   0  0  0  0  0  0  0  0  0  0  0  0
  188.8090  177.8050  143.2760 C   0  0  1  0  0  3  0  0  0  0  0  0
  190.2160  179.1290  144.6560 F   0  0  0  0  0  0  0  0  0  0  0  0
  190.0820  178.6240  143.3750 C   0  0  0  0  0  2  0  0  0  0  0  0
  188.9380  176.8390  142.2330 O   0  0  0  0  0  0  0  0  0  0  0  0
  188.4030  178.0210  140.2000 C   0  0  0  0  0  3  0  0  0  0  0  0
  189.2530  177.1630  140.9070 C   0  0  0  0  0  0  0  0  0  0  0  0
  190.3960  176.6510  140.2710 C   0  0  0  0  0  3  0  0  0  0  0  0
  188.6880  178.3650  138.8750 C   0  0  0  0  0  3  0  0  0  0  0  0
  189.8280  177.8520  138.2490 C   0  0  0  0  0  3  0  0  0  0  0  0
  190.6820  176.9960  138.9480 C   0  0  0  0  0  3  0  0  0  0  0  0
  184.2620  177.7250  140.7330 O   0  0  0  0  0  0  0  0  0  0  0  0
  180.5750  178.3550  140.8910 C   0  0  0  0  0  2  0  0  0  0  0  0
  181.5050  175.6730  139.2500 C   0  0  0  0  0  1  0  0  0  0  0  0
  180.5330  181.5350  138.8790 C   0  0  2  0  0  3  0  0  0  0  0  0
  182.9130  176.5300  136.8550 O   0  0  0  0  0  1  0  0  0  0  0  0
  182.9700  177.3270  138.0000 C   0  0  1  0  0  3  0  0  0  0  0  0
  179.7790  179.5290  140.3360 C   0  0  0  0  0  2  0  0  0  0  0  0
  182.9060  177.3400  140.5200 C   0  0  1  0  0  3  0  0  0  0  0  0
  180.0460  180.4630  138.0970 O   0  0  0  0  0  0  0  0  0  0  0  0
  181.7040  182.0320  138.3060 O   0  0  0  0  0  1  0  0  0  0  0  0
  180.6980  180.1240  139.2970 C   0  0  1  0  0  0  0  0  0  0  0  0
  181.9000  178.4050  137.9380 C   0  0  0  0  0  2  0  0  0  0  0  0
  182.0240  178.5970  140.4710 C   0  0  1  0  0  3  0  0  0  0  0  0
  182.7990  176.4740  139.2580 C   0  0  1  0  0  3  0  0  0  0  0  0
  181.9980  179.3550  139.1390 C   0  0  2  0  0  3  0  0  0  0  0  0
  1 11  1  0  0  0  0
  1  8  2  0  0  0  0
  6  3  1  6  0  0  0
  6  8  1  0  0  0  0
  7  4  1  6  0  0  0
  7  6  1  0  0  0  0
  9  5  1  6  0  0  0
  9  7  1  0  0  0  0
  9  1  1  0  0  0  0
 10  5  2  0  0  0  0
 10  4  1  0  0  0  0
 12  2  2  0  0  0  0
 12 11  1  0  0  0  0
 13 15  1  1  0  0  0
 13 12  1  0  0  0  0
 15 14  1  0  0  0  0
 16 13  1  0  0  0  0
 17 18  1  0  0  0  0
 18 16  1  0  0  0  0
 19 18  2  0  0  0  0
 20 17  2  0  0  0  0
 21 20  1  0  0  0  0
 21 22  2  0  0  0  0
 22 19  1  0  0  0  0
 23 10  1  0  0  0  0
 26 32  1  6  0  0  0
 26 33  1  0  0  0  0
 28 27  1  6  0  0  0
 28 36  1  0  0  0  0
 29 24  1  0  0  0  0
 30 23  1  6  0  0  0
 31 26  1  0  0  0  0
 31 33  1  0  0  0  0
 33 29  1  1  0  0  0
 34 28  1  0  0  0  0
 35 30  1  0  0  0  0
 35 24  1  6  0  0  0
 36 25  1  6  0  0  0
 36 30  1  0  0  0  0
 37 34  1  6  0  0  0
 37 33  1  0  0  0  0
 37 35  1  0  0  0  0
M  END
>  <MODEL>
7

>  <REMARK>
 VINA RESULT:      -7.2      2.703      4.954
  Name = 
  6 active torsions:
  status: ('A' for Active; 'I' for Inactive)
    1  A    between atoms: C_8  and  O_20
    2  A    between atoms: C_8  and  C_24
    3  A    between atoms: C_8  and  C_34
    4  A    between atoms: C_9  and  O_20
    5  A    between atoms: O_16  and  C_17
    6  A    between atoms: O_16  and  C_29
                            x       y       z     vdW  Elec       q    Type
                         _______ _______ _______ _____ _____    ______ ____

>  <TORSDO>
F 6

$$$$
=
 OpenBabel11062415313D

 37 42  0  0  1  0  0  0  0  0999 V2000
  181.7540  179.0780  141.8440 C   0  0  0  0  0  0  0  0  0  0  0  0
  183.5190  178.6390  145.0450 O   0  0  0  0  0  0  0  0  0  0  0  0
  179.3910  178.7160  139.5590 N   0  0  0  0  0  1  0  0  0  0  0  0
  181.8780  178.1640  138.5270 C   0  0  0  0  0  2  0  0  0  0  0  0
  183.0940  177.5770  140.4350 C   0  0  0  0  0  3  0  0  0  0  0  0
  180.4120  179.6090  140.0890 C   0  0  2  0  0  3  0  0  0  0  0  0
  181.8120  179.3540  139.4890 C   0  0  1  0  0  3  0  0  0  0  0  0
  180.5530  179.4010  141.5160 N   0  0  0  0  0  0  0  0  0  0  0  0
  182.6950  178.9880  140.6890 C   0  0  1  0  0  3  0  0  0  0  0  0
  182.6610  177.1500  139.2650 C   0  0  0  0  0  0  0  0  0  0  0  0
  182.1090  178.9140  143.2240 N   0  0  0  0  0  2  0  0  0  0  0  0
  183.4030  178.6630  143.7910 C   0  0  0  0  0  0  0  0  0  0  0  0
  184.6200  178.4570  142.9430 C   0  0  1  0  0  3  0  0  0  0  0  0
  186.0860  179.8580  141.7090 F   0  0  0  0  0  0  0  0  0  0  0  0
  185.4610  179.7200  142.9350 C   0  0  0  0  0  2  0  0  0  0  0  0
  185.4000  177.3620  143.4210 O   0  0  0  0  0  0  0  0  0  0  0  0
  186.7060  177.6490  145.4270 C   0  0  0  0  0  3  0  0  0  0  0  0
  186.6500  177.5060  144.0360 C   0  0  0  0  0  0  0  0  0  0  0  0
  187.8440  177.5090  143.2960 C   0  0  0  0  0  3  0  0  0  0  0  0
  187.9380  177.7950  146.0730 C   0  0  0  0  0  3  0  0  0  0  0  0
  189.1220  177.7970  145.3300 C   0  0  0  0  0  3  0  0  0  0  0  0
  189.0740  177.6530  143.9420 C   0  0  0  0  0  3  0  0  0  0  0  0
  182.9080  175.8720  138.7550 O   0  0  0  0  0  0  0  0  0  0  0  0
  184.3750  176.7200  135.4170 C   0  0  0  0  0  2  0  0  0  0  0  0
  182.9440  173.7790  135.6520 C   0  0  0  0  0  1  0  0  0  0  0  0
  187.9820  176.8420  136.4820 C   0  0  2  0  0  3  0  0  0  0  0  0
  184.5440  172.1440  137.4470 O   0  0  0  0  0  1  0  0  0  0  0  0
  184.5040  173.5270  137.6390 C   0  0  1  0  0  3  0  0  0  0  0  0
  185.8270  176.9970  135.0510 C   0  0  0  0  0  2  0  0  0  0  0  0
  183.1200  175.6160  137.3690 C   0  0  1  0  0  3  0  0  0  0  0  0
  187.7290  175.6470  135.7700 O   0  0  0  0  0  0  0  0  0  0  0  0
  188.3500  176.5300  137.7920 O   0  0  0  0  0  1  0  0  0  0  0  0
  186.6050  176.3820  136.1900 C   0  0  1  0  0  0  0  0  0  0  0  0
  185.6850  174.1830  136.9420 C   0  0  0  0  0  2  0  0  0  0  0  0
  184.3780  176.3660  136.9030 C   0  0  1  0  0  3  0  0  0  0  0  0
  183.1870  174.1040  137.1190 C   0  0  1  0  0  3  0  0  0  0  0  0
  185.7210  175.6940  137.2130 C   0  0  2  0  0  3  0  0  0  0  0  0
  1 11  1  0  0  0  0
  4 10  1  0  0  0  0
  6  3  1  6  0  0  0
  6  8  1  0  0  0  0
  7  4  1  6  0  0  0
  7  6  1  0  0  0  0
  7  9  1  0  0  0  0
  8  1  2  0  0  0  0
  9  5  1  6  0  0  0
  9  1  1  0  0  0  0
 10  5  2  0  0  0  0
 11 12  1  0  0  0  0
 12  2  2  0  0  0  0
 13 15  1  1  0  0  0
 13 16  1  0  0  0  0
 13 12  1  0  0  0  0
 14 15  1  0  0  0  0
 16 18  1  0  0  0  0
 17 20  1  0  0  0  0
 18 17  2  0  0  0  0
 19 22  2  0  0  0  0
 19 18  1  0  0  0  0
 21 20  2  0  0  0  0
 22 21  1  0  0  0  0
 23 10  1  0  0  0  0
 26 32  1  1  0  0  0
 28 27  1  6  0  0  0
 29 24  1  0  0  0  0
 30 23  1  1  0  0  0
 31 33  1  0  0  0  0
 31 26  1  0  0  0  0
 33 29  1  6  0  0  0
 33 26  1  0  0  0  0
 33 37  1  0  0  0  0
 34 28  1  0  0  0  0
 35 24  1  6  0  0  0
 35 37  1  0  0  0  0
 35 30  1  0  0  0  0
 36 25  1  6  0  0  0
 36 30  1  0  0  0  0
 36 28  1  0  0  0  0
 37 34  1  6  0  0  0
M  END
>  <MODEL>
8

>  <REMARK>
 VINA RESULT:      -7.1      3.951      6.573
  Name = 
  6 active torsions:
  status: ('A' for Active; 'I' for Inactive)
    1  A    between atoms: C_8  and  O_20
    2  A    between atoms: C_8  and  C_24
    3  A    between atoms: C_8  and  C_34
    4  A    between atoms: C_9  and  O_20
    5  A    between atoms: O_16  and  C_17
    6  A    between atoms: O_16  and  C_29
                            x       y       z     vdW  Elec       q    Type
                         _______ _______ _______ _____ _____    ______ ____

>  <TORSDO>
F 6

$$$$
=
 OpenBabel11062415313D

 37 42  0  0  1  0  0  0  0  0999 V2000
  188.7150  178.3480  140.1560 C   0  0  0  0  0  0  0  0  0  0  0  0
  189.8200  178.4890  143.6660 O   0  0  0  0  0  0  0  0  0  0  0  0
  188.0660  179.4060  137.0910 N   0  0  0  0  0  1  0  0  0  0  0  0
  185.8850  178.1570  138.2050 C   0  0  0  0  0  2  0  0  0  0  0  0
  186.2840  178.4000  140.4960 C   0  0  0  0  0  3  0  0  0  0  0  0
  188.4490  178.2580  137.9020 C   0  0  2  0  0  3  0  0  0  0  0  0
  187.2410  177.5070  138.5000 C   0  0  1  0  0  3  0  0  0  0  0  0
  189.2380  178.7000  139.0340 N   0  0  0  0  0  0  0  0  0  0  0  0
  187.4380  177.5910  140.0200 C   0  0  1  0  0  3  0  0  0  0  0  0
  185.4500  178.6870  139.5150 C   0  0  0  0  0  0  0  0  0  0  0  0
  189.3960  178.6220  141.3890 N   0  0  0  0  0  2  0  0  0  0  0  0
  189.0340  178.2210  142.7180 C   0  0  0  0  0  0  0  0  0  0  0  0
  187.7700  177.4720  143.0100 C   0  0  1  0  0  3  0  0  0  0  0  0
  189.3950  175.7480  142.8810 F   0  0  0  0  0  0  0  0  0  0  0  0
  188.0780  176.0010  143.2170 C   0  0  0  0  0  2  0  0  0  0  0  0
  187.1190  177.9960  144.1680 O   0  0  0  0  0  0  0  0  0  0  0  0
  185.1880  178.6750  145.4430 C   0  0  0  0  0  3  0  0  0  0  0  0
  185.7570  178.3190  144.2150 C   0  0  0  0  0  0  0  0  0  0  0  0
  184.9500  178.2970  143.0650 C   0  0  0  0  0  3  0  0  0  0  0  0
  183.8320  179.0030  145.5250 C   0  0  0  0  0  3  0  0  0  0  0  0
  183.0350  178.9800  144.3770 C   0  0  0  0  0  3  0  0  0  0  0  0
  183.5950  178.6270  143.1470 C   0  0  0  0  0  3  0  0  0  0  0  0
  184.2680  179.4160  139.6760 O   0  0  0  0  0  0  0  0  0  0  0  0
  182.1860  177.9980  136.9070 C   0  0  0  0  0  2  0  0  0  0  0  0
  181.4100  181.0320  137.8790 C   0  0  0  0  0  1  0  0  0  0  0  0
  180.5780  175.2210  138.8740 C   0  0  2  0  0  3  0  0  0  0  0  0
  180.3480  180.8650  140.5810 O   0  0  0  0  0  1  0  0  0  0  0  0
  181.3040  179.9360  140.1660 C   0  0  1  0  0  3  0  0  0  0  0  0
  181.2740  176.7780  136.9220 C   0  0  0  0  0  2  0  0  0  0  0  0
  183.2810  179.5310  138.6540 C   0  0  1  0  0  3  0  0  0  0  0  0
  179.6520  176.2700  138.6740 O   0  0  0  0  0  0  0  0  0  0  0  0
  180.8270  175.0780  140.2400 O   0  0  0  0  0  1  0  0  0  0  0  0
  181.0000  176.5560  138.3910 C   0  0  1  0  0  0  0  0  0  0  0  0
  180.6210  178.6760  139.6590 C   0  0  0  0  0  2  0  0  0  0  0  0
  182.7230  178.1360  138.3310 C   0  0  1  0  0  3  0  0  0  0  0  0
  182.2000  180.5340  139.0810 C   0  0  1  0  0  3  0  0  0  0  0  0
  181.6480  177.5990  139.2830 C   0  0  2  0  0  3  0  0  0  0  0  0
  1 11  1  0  0  0  0
  4 10  1  0  0  0  0
  6  3  1  1  0  0  0
  6  7  1  0  0  0  0
  6  8  1  0  0  0  0
  7  4  1  1  0  0  0
  7  9  1  0  0  0  0
  8  1  2  0  0  0  0
  9  1  1  0  0  0  0
  9  5  1  1  0  0  0
 10 23  1  0  0  0  0
 10  5  2  0  0  0  0
 11 12  1  0  0  0  0
 12 13  1  0  0  0  0
 12  2  2  0  0  0  0
 13 15  1  1  0  0  0
 13 16  1  0  0  0  0
 14 15  1  0  0  0  0
 16 18  1  0  0  0  0
 17 20  1  0  0  0  0
 18 17  2  0  0  0  0
 19 22  2  0  0  0  0
 19 18  1  0  0  0  0
 21 20  2  0  0  0  0
 22 21  1  0  0  0  0
 24 29  1  0  0  0  0
 26 32  1  1  0  0  0
 28 27  1  6  0  0  0
 30 36  1  0  0  0  0
 30 23  1  1  0  0  0
 31 26  1  0  0  0  0
 33 29  1  6  0  0  0
 33 31  1  0  0  0  0
 33 26  1  0  0  0  0
 33 37  1  0  0  0  0
 34 28  1  0  0  0  0
 35 24  1  6  0  0  0
 35 30  1  0  0  0  0
 35 37  1  0  0  0  0
 36 25  1  6  0  0  0
 36 28  1  0  0  0  0
 37 34  1  6  0  0  0
M  END
>  <MODEL>
9

>  <REMARK>
 VINA RESULT:      -7.1      1.424      2.231
  Name = 
  6 active torsions:
  status: ('A' for Active; 'I' for Inactive)
    1  A    between atoms: C_8  and  O_20
    2  A    between atoms: C_8  and  C_24
    3  A    between atoms: C_8  and  C_34
    4  A    between atoms: C_9  and  O_20
    5  A    between atoms: O_16  and  C_17
    6  A    between atoms: O_16  and  C_29
                            x       y       z     vdW  Elec       q    Type
                         _______ _______ _______ _____ _____    ______ ____

>  <TORSDO>
F 6

$$$$
