=
 OpenBabel11062417183D

 26 29  0  0  1  0  0  0  0  0999 V2000
  191.1470  176.4660  144.2850 C   0  0  1  0  0  3  0  0  0  0  0  0
  188.4160  177.2080  141.7380 C   0  0  0  0  0  0  0  0  0  0  0  0
  183.8910  179.4670  144.3950 C   0  0  0  0  0  0  0  0  0  0  0  0
  184.5610  178.3930  146.4090 C   0  0  0  0  0  3  0  0  0  0  0  0
  185.8630  178.0530  144.4030 C   0  0  0  0  0  0  0  0  0  0  0  0
  186.5690  176.9180  146.5700 C   0  0  0  0  0  2  0  0  0  0  0  0
  184.9770  178.9020  143.7080 C   0  0  0  0  0  0  0  0  0  0  0  0
  190.3240  177.2930  143.3130 C   0  0  0  0  0  2  0  0  0  0  0  0
  188.4740  178.3040  146.0760 O   0  0  0  0  0  0  0  0  0  0  0  0
  191.4760  176.7810  146.7340 C   0  0  0  0  0  2  0  0  0  0  0  0
  187.2000  177.7820  142.3720 C   0  0  0  0  0  0  0  0  0  0  0  0
  192.1630  175.7980  143.6020 O   0  0  0  0  0  1  0  0  0  0  0  0
  187.7720  177.6770  147.1230 C   0  0  2  0  0  3  0  0  0  0  0  0
  186.3040  178.6250  141.6740 C   0  0  0  0  0  0  0  0  0  0  0  0
  183.0760  180.2240  143.8030 O   0  0  0  0  0  0  0  0  0  0  0  0
  188.9980  177.0860  146.5420 C   0  0  2  0  0  3  0  0  0  0  0  0
  190.2320  177.3940  147.3690 C   0  0  0  0  0  2  0  0  0  0  0  0
  191.7530  177.3620  145.3520 C   0  0  0  0  0  2  0  0  0  0  0  0
  188.6750  177.4210  140.5240 O   0  0  0  0  0  0  0  0  0  0  0  0
  189.3840  176.3890  142.5340 C   0  0  0  0  0  2  0  0  0  0  0  0
  183.7140  179.2010  145.7170 N   0  0  0  0  0  0  0  0  0  0  0  0
  186.9520  177.4990  143.7220 C   0  0  0  0  0  3  0  0  0  0  0  0
  185.6520  177.7990  145.7720 C   0  0  1  0  0  3  0  0  0  0  0  0
  185.2010  179.1730  142.3520 C   0  0  0  0  0  3  0  0  0  0  0  0
  185.5860  178.5760  139.3020 C   0  0  0  0  0  1  0  0  0  0  0  0
  186.5160  178.9160  140.3210 O   0  0  0  0  0  0  0  0  0  0  0  0
  1 12  1  6  0  0  0
  1 18  1  0  0  0  0
  2 11  1  0  0  0  0
  2 20  1  0  0  0  0
  3 21  1  0  0  0  0
  5 23  1  0  0  0  0
  7  3  1  0  0  0  0
  7  5  2  0  0  0  0
  8  1  1  0  0  0  0
  9 16  1  0  0  0  0
  9 13  1  0  0  0  0
 10 17  1  0  0  0  0
 11 22  2  0  0  0  0
 13  6  1  6  0  0  0
 14 24  2  0  0  0  0
 14 11  1  0  0  0  0
 15  3  2  0  0  0  0
 16 13  1  0  0  0  0
 16 17  1  1  0  0  0
 18 10  1  0  0  0  0
 19  2  2  0  0  0  0
 20  8  1  0  0  0  0
 21  4  2  0  0  0  0
 22  5  1  0  0  0  0
 23  4  1  1  0  0  0
 23  6  1  0  0  0  0
 24  7  1  0  0  0  0
 25 26  1  0  0  0  0
 26 14  1  0  0  0  0
M  END
>  <MODEL>
1

>  <REMARK>
 VINA RESULT:      -9.7      0.000      0.000
  Name = 
  1 active torsions:
  status: ('A' for Active; 'I' for Inactive)
    1  A    between atoms: O_10  and  C_16
                            x       y       z     vdW  Elec       q    Type
                         _______ _______ _______ _____ _____    ______ ____

>  <TORSDO>
F 1

$$$$
=
 OpenBabel11062417183D

 26 29  0  0  1  0  0  0  0  0999 V2000
  190.0570  177.0120  146.9770 C   0  0  1  0  0  3  0  0  0  0  0  0
  189.9870  176.8280  143.1750 C   0  0  0  0  0  0  0  0  0  0  0  0
  185.1330  179.1390  141.2420 C   0  0  0  0  0  0  0  0  0  0  0  0
  184.0930  178.6500  143.3250 C   0  0  0  0  0  3  0  0  0  0  0  0
  186.3900  177.9920  142.9720 C   0  0  0  0  0  0  0  0  0  0  0  0
  185.2620  177.4850  145.1980 C   0  0  0  0  0  2  0  0  0  0  0  0
  186.3310  178.5500  141.6780 C   0  0  0  0  0  0  0  0  0  0  0  0
  190.2350  177.4920  145.5470 C   0  0  0  0  0  2  0  0  0  0  0  0
  187.0810  178.9160  145.8620 O   0  0  0  0  0  0  0  0  0  0  0  0
  188.5980  177.9300  148.7750 C   0  0  0  0  0  2  0  0  0  0  0  0
  188.7360  177.3980  142.6100 C   0  0  0  0  0  0  0  0  0  0  0  0
  191.1930  176.3180  147.3930 O   0  0  0  0  0  1  0  0  0  0  0  0
  185.7920  178.4800  146.2260 C   0  0  2  0  0  3  0  0  0  0  0  0
  188.6710  177.9490  141.3090 C   0  0  0  0  0  0  0  0  0  0  0  0
  185.0430  179.6400  140.0900 O   0  0  0  0  0  0  0  0  0  0  0  0
  187.0120  177.9080  146.8380 C   0  0  2  0  0  3  0  0  0  0  0  0
  187.3300  178.5360  148.1820 C   0  0  0  0  0  2  0  0  0  0  0  0
  189.8170  178.1960  147.8990 C   0  0  0  0  0  2  0  0  0  0  0  0
  191.0420  176.7750  142.4890 O   0  0  0  0  0  0  0  0  0  0  0  0
  190.0360  176.3310  144.5870 C   0  0  0  0  0  2  0  0  0  0  0  0
  184.0550  179.1740  142.0710 N   0  0  0  0  0  0  0  0  0  0  0  0
  187.5870  177.4160  143.4120 C   0  0  0  0  0  3  0  0  0  0  0  0
  185.2560  178.0470  143.8050 C   0  0  1  0  0  3  0  0  0  0  0  0
  187.4660  178.5170  140.8590 C   0  0  0  0  0  3  0  0  0  0  0  0
  189.7200  177.7340  139.0730 C   0  0  0  0  0  1  0  0  0  0  0  0
  189.7980  177.9340  140.4780 O   0  0  0  0  0  0  0  0  0  0  0  0
  1 12  1  1  0  0  0
  1 18  1  0  0  0  0
  2 20  1  0  0  0  0
  3  7  1  0  0  0  0
  3 21  1  0  0  0  0
  5 22  1  0  0  0  0
  5 23  1  0  0  0  0
  7  5  2  0  0  0  0
  8  1  1  0  0  0  0
  9 13  1  0  0  0  0
  9 16  1  0  0  0  0
 11  2  1  0  0  0  0
 11 22  2  0  0  0  0
 13  6  1  6  0  0  0
 13 16  1  0  0  0  0
 14 11  1  0  0  0  0
 15  3  2  0  0  0  0
 16 17  1  1  0  0  0
 17 10  1  0  0  0  0
 18 10  1  0  0  0  0
 19  2  2  0  0  0  0
 20  8  1  0  0  0  0
 21  4  2  0  0  0  0
 23  4  1  1  0  0  0
 23  6  1  0  0  0  0
 24 14  2  0  0  0  0
 24  7  1  0  0  0  0
 25 26  1  0  0  0  0
 26 14  1  0  0  0  0
M  END
>  <MODEL>
2

>  <REMARK>
 VINA RESULT:      -9.5      1.604      2.855
  Name = 
  1 active torsions:
  status: ('A' for Active; 'I' for Inactive)
    1  A    between atoms: O_10  and  C_16
                            x       y       z     vdW  Elec       q    Type
                         _______ _______ _______ _____ _____    ______ ____

>  <TORSDO>
F 1

$$$$
=
 OpenBabel11062417183D

 26 29  0  0  1  0  0  0  0  0999 V2000
  191.1970  176.2950  145.6980 C   0  0  1  0  0  3  0  0  0  0  0  0
  190.2850  176.4680  142.0060 C   0  0  0  0  0  0  0  0  0  0  0  0
  185.2830  179.1620  141.4000 C   0  0  0  0  0  0  0  0  0  0  0  0
  184.6950  178.5290  143.6160 C   0  0  0  0  0  3  0  0  0  0  0  0
  186.8130  177.8050  142.7060 C   0  0  0  0  0  0  0  0  0  0  0  0
  186.1690  177.1430  145.0800 C   0  0  0  0  0  2  0  0  0  0  0  0
  186.5070  178.4820  141.5080 C   0  0  0  0  0  0  0  0  0  0  0  0
  191.0870  176.8970  144.3090 C   0  0  0  0  0  2  0  0  0  0  0  0
  188.1760  178.4240  145.4340 O   0  0  0  0  0  0  0  0  0  0  0  0
  190.2280  177.1060  147.8450 C   0  0  0  0  0  2  0  0  0  0  0  0
  188.9790  177.1430  141.7830 C   0  0  0  0  0  0  0  0  0  0  0  0
  192.3490  175.5150  145.7920 O   0  0  0  0  0  1  0  0  0  0  0  0
  186.9730  178.0140  146.0410 C   0  0  2  0  0  3  0  0  0  0  0  0
  188.6670  177.8150  140.5780 C   0  0  0  0  0  0  0  0  0  0  0  0
  184.9760  179.7720  140.3410 O   0  0  0  0  0  0  0  0  0  0  0  0
  188.2590  177.3340  146.3170 C   0  0  2  0  0  3  0  0  0  0  0  0
  188.9020  177.8200  147.6010 C   0  0  0  0  0  2  0  0  0  0  0  0
  191.2400  177.3970  146.7430 C   0  0  0  0  0  2  0  0  0  0  0  0
  191.1590  176.4320  141.1000 O   0  0  0  0  0  0  0  0  0  0  0  0
  190.6100  175.8410  143.3260 C   0  0  0  0  0  2  0  0  0  0  0  0
  184.4170  179.1680  142.4490 N   0  0  0  0  0  0  0  0  0  0  0  0
  188.0370  177.1380  142.8200 C   0  0  0  0  0  3  0  0  0  0  0  0
  185.8940  177.8320  143.7740 C   0  0  1  0  0  3  0  0  0  0  0  0
  187.4310  178.4750  140.4560 C   0  0  0  0  0  3  0  0  0  0  0  0
  189.2900  178.4030  138.2510 C   0  0  0  0  0  1  0  0  0  0  0  0
  189.5810  177.8270  139.5180 O   0  0  0  0  0  0  0  0  0  0  0  0
  1 12  1  6  0  0  0
  1 18  1  0  0  0  0
  2 20  1  0  0  0  0
  3  7  1  0  0  0  0
  3 21  1  0  0  0  0
  5 22  1  0  0  0  0
  5 23  1  0  0  0  0
  7  5  2  0  0  0  0
  8  1  1  0  0  0  0
  9 13  1  0  0  0  0
  9 16  1  0  0  0  0
 11  2  1  0  0  0  0
 11 22  2  0  0  0  0
 13  6  1  6  0  0  0
 13 16  1  0  0  0  0
 14 11  1  0  0  0  0
 15  3  2  0  0  0  0
 16 17  1  1  0  0  0
 17 10  1  0  0  0  0
 18 10  1  0  0  0  0
 19  2  2  0  0  0  0
 20  8  1  0  0  0  0
 21  4  2  0  0  0  0
 23  4  1  1  0  0  0
 23  6  1  0  0  0  0
 24 14  2  0  0  0  0
 24  7  1  0  0  0  0
 25 26  1  0  0  0  0
 26 14  1  0  0  0  0
M  END
>  <MODEL>
3

>  <REMARK>
 VINA RESULT:      -9.4      1.563      2.362
  Name = 
  1 active torsions:
  status: ('A' for Active; 'I' for Inactive)
    1  A    between atoms: O_10  and  C_16
                            x       y       z     vdW  Elec       q    Type
                         _______ _______ _______ _____ _____    ______ ____

>  <TORSDO>
F 1

$$$$
=
 OpenBabel11062417183D

 26 29  0  0  1  0  0  0  0  0999 V2000
  187.8270  178.0260  146.7450 C   0  0  1  0  0  3  0  0  0  0  0  0
  184.5000  179.0270  145.1890 C   0  0  0  0  0  0  0  0  0  0  0  0
  184.7260  178.2460  139.5340 C   0  0  0  0  0  0  0  0  0  0  0  0
  187.0910  178.4860  139.6140 C   0  0  0  0  0  3  0  0  0  0  0  0
  185.8140  178.7100  141.6530 C   0  0  0  0  0  0  0  0  0  0  0  0
  188.3480  178.9550  141.7200 C   0  0  0  0  0  2  0  0  0  0  0  0
  184.6360  178.4650  140.9180 C   0  0  0  0  0  0  0  0  0  0  0  0
  186.4290  177.8360  146.1830 C   0  0  0  0  0  2  0  0  0  0  0  0
  187.9790  177.0680  143.1690 O   0  0  0  0  0  0  0  0  0  0  0  0
  189.9860  177.0710  145.9500 C   0  0  0  0  0  2  0  0  0  0  0  0
  184.5010  178.8650  143.7110 C   0  0  0  0  0  0  0  0  0  0  0  0
  187.7570  178.3630  148.0970 O   0  0  0  0  0  1  0  0  0  0  0  0
  188.9240  177.6750  142.3200 C   0  0  2  0  0  3  0  0  0  0  0  0
  183.3190  178.6290  142.9710 C   0  0  0  0  0  0  0  0  0  0  0  0
  183.6920  178.0320  138.8460 O   0  0  0  0  0  0  0  0  0  0  0  0
  188.9790  177.8360  143.7900 C   0  0  2  0  0  3  0  0  0  0  0  0
  189.9660  176.8840  144.4360 C   0  0  0  0  0  2  0  0  0  0  0  0
  188.6350  176.7500  146.5790 C   0  0  0  0  0  2  0  0  0  0  0  0
  183.4230  179.0030  145.8420 O   0  0  0  0  0  0  0  0  0  0  0  0
  185.7810  179.1900  145.9450 C   0  0  0  0  0  2  0  0  0  0  0  0
  185.9420  178.2610  138.9240 N   0  0  0  0  0  0  0  0  0  0  0  0
  185.7270  178.9160  143.0340 C   0  0  0  0  0  3  0  0  0  0  0  0
  187.0570  178.7170  140.9910 C   0  0  1  0  0  3  0  0  0  0  0  0
  183.4020  178.4350  141.5810 C   0  0  0  0  0  3  0  0  0  0  0  0
  180.9390  179.3000  143.1530 C   0  0  0  0  0  1  0  0  0  0  0  0
  182.0770  178.5860  143.6170 O   0  0  0  0  0  0  0  0  0  0  0  0
  1 12  1  1  0  0  0
  2 19  2  0  0  0  0
  2 20  1  0  0  0  0
  3  7  1  0  0  0  0
  5 22  1  0  0  0  0
  7 24  1  0  0  0  0
  7  5  2  0  0  0  0
  8  1  1  0  0  0  0
  9 16  1  0  0  0  0
 10 18  1  0  0  0  0
 11  2  1  0  0  0  0
 13  6  1  6  0  0  0
 13  9  1  0  0  0  0
 13 16  1  0  0  0  0
 14 26  1  0  0  0  0
 14 11  1  0  0  0  0
 15  3  2  0  0  0  0
 16 17  1  1  0  0  0
 17 10  1  0  0  0  0
 18  1  1  0  0  0  0
 20  8  1  0  0  0  0
 21  3  1  0  0  0  0
 21  4  2  0  0  0  0
 22 11  2  0  0  0  0
 23  4  1  1  0  0  0
 23  5  1  0  0  0  0
 23  6  1  0  0  0  0
 24 14  2  0  0  0  0
 25 26  1  0  0  0  0
M  END
>  <MODEL>
4

>  <REMARK>
 VINA RESULT:      -9.1      2.233      4.830
  Name = 
  1 active torsions:
  status: ('A' for Active; 'I' for Inactive)
    1  A    between atoms: O_10  and  C_16
                            x       y       z     vdW  Elec       q    Type
                         _______ _______ _______ _____ _____    ______ ____

>  <TORSDO>
F 1

$$$$
=
 OpenBabel11062417183D

 26 29  0  0  1  0  0  0  0  0999 V2000
  185.6750  178.6660  145.3810 C   0  0  1  0  0  3  0  0  0  0  0  0
  185.7480  179.1490  141.6050 C   0  0  0  0  0  0  0  0  0  0  0  0
  190.6770  177.1470  139.5210 C   0  0  0  0  0  0  0  0  0  0  0  0
  191.6960  177.5030  141.6410 C   0  0  0  0  0  3  0  0  0  0  0  0
  189.3800  178.1160  141.3290 C   0  0  0  0  0  0  0  0  0  0  0  0
  190.4860  178.4820  143.5930 C   0  0  0  0  0  2  0  0  0  0  0  0
  189.4600  177.6630  139.9960 C   0  0  0  0  0  0  0  0  0  0  0  0
  185.5160  178.2940  143.9170 C   0  0  0  0  0  2  0  0  0  0  0  0
  188.7120  176.9480  144.1340 O   0  0  0  0  0  0  0  0  0  0  0  0
  187.1570  177.6550  147.1090 C   0  0  0  0  0  2  0  0  0  0  0  0
  187.0180  178.6640  141.0030 C   0  0  0  0  0  0  0  0  0  0  0  0
  184.5160  179.2900  145.8430 O   0  0  0  0  0  1  0  0  0  0  0  0
  189.9850  177.3930  144.5380 C   0  0  2  0  0  3  0  0  0  0  0  0
  187.1040  178.2180  139.6630 C   0  0  0  0  0  0  0  0  0  0  0  0
  190.7850  176.7400  138.3340 O   0  0  0  0  0  0  0  0  0  0  0  0
  188.7460  177.8780  145.1870 C   0  0  2  0  0  3  0  0  0  0  0  0
  188.4450  177.1370  146.4760 C   0  0  0  0  0  2  0  0  0  0  0  0
  185.9490  177.4220  146.2090 C   0  0  0  0  0  2  0  0  0  0  0  0
  184.6940  179.2230  140.9200 O   0  0  0  0  0  0  0  0  0  0  0  0
  185.6800  179.5320  143.0500 C   0  0  0  0  0  2  0  0  0  0  0  0
  191.7530  177.0800  140.3500 N   0  0  0  0  0  0  0  0  0  0  0  0
  188.1650  178.6180  141.8070 C   0  0  0  0  0  3  0  0  0  0  0  0
  190.5140  178.0310  142.1610 C   0  0  1  0  0  3  0  0  0  0  0  0
  188.3270  177.7250  139.1760 C   0  0  0  0  0  3  0  0  0  0  0  0
  186.0130  177.8770  137.4630 C   0  0  0  0  0  1  0  0  0  0  0  0
  185.9790  178.2640  138.8300 O   0  0  0  0  0  0  0  0  0  0  0  0
  1 12  1  1  0  0  0
  1 18  1  0  0  0  0
  2 20  1  0  0  0  0
  3  7  1  0  0  0  0
  3 21  1  0  0  0  0
  5 22  1  0  0  0  0
  5 23  1  0  0  0  0
  7  5  2  0  0  0  0
  8  1  1  0  0  0  0
  9 13  1  0  0  0  0
  9 16  1  0  0  0  0
 11  2  1  0  0  0  0
 11 22  2  0  0  0  0
 13  6  1  6  0  0  0
 13 16  1  0  0  0  0
 14 11  1  0  0  0  0
 15  3  2  0  0  0  0
 16 17  1  1  0  0  0
 17 10  1  0  0  0  0
 18 10  1  0  0  0  0
 19  2  2  0  0  0  0
 20  8  1  0  0  0  0
 21  4  2  0  0  0  0
 23  4  1  1  0  0  0
 23  6  1  0  0  0  0
 24 14  2  0  0  0  0
 24  7  1  0  0  0  0
 25 26  1  0  0  0  0
 26 14  1  0  0  0  0
M  END
>  <MODEL>
5

>  <REMARK>
 VINA RESULT:      -9.1      2.633      5.479
  Name = 
  1 active torsions:
  status: ('A' for Active; 'I' for Inactive)
    1  A    between atoms: O_10  and  C_16
                            x       y       z     vdW  Elec       q    Type
                         _______ _______ _______ _____ _____    ______ ____

>  <TORSDO>
F 1

$$$$
=
 OpenBabel11062417183D

 26 29  0  0  1  0  0  0  0  0999 V2000
  185.9140  178.0020  138.2640 C   0  0  1  0  0  3  0  0  0  0  0  0
  183.2990  178.1870  141.0250 C   0  0  0  0  0  0  0  0  0  0  0  0
  185.8990  178.7600  146.0800 C   0  0  0  0  0  0  0  0  0  0  0  0
  187.8400  177.7210  145.1790 C   0  0  0  0  0  3  0  0  0  0  0  0
  185.8850  177.9800  143.7820 C   0  0  0  0  0  0  0  0  0  0  0  0
  187.9750  176.8780  142.8320 C   0  0  0  0  0  2  0  0  0  0  0  0
  185.2230  178.6050  144.8590 C   0  0  0  0  0  0  0  0  0  0  0  0
  184.9780  178.6540  139.2670 C   0  0  0  0  0  2  0  0  0  0  0  0
  187.7160  178.7970  141.4020 O   0  0  0  0  0  0  0  0  0  0  0  0
  188.3960  178.1430  138.1050 C   0  0  0  0  0  2  0  0  0  0  0  0
  183.9150  178.3170  142.3720 C   0  0  0  0  0  0  0  0  0  0  0  0
  185.2300  177.7290  137.0800 O   0  0  0  0  0  1  0  0  0  0  0  0
  188.6610  177.8890  141.9180 C   0  0  2  0  0  3  0  0  0  0  0  0
  183.2490  178.9350  143.4560 C   0  0  0  0  0  0  0  0  0  0  0  0
  185.3340  179.3080  147.0640 O   0  0  0  0  0  0  0  0  0  0  0  0
  188.0970  177.7410  140.5580 C   0  0  2  0  0  3  0  0  0  0  0  0
  189.0150  178.3030  139.4900 C   0  0  0  0  0  2  0  0  0  0  0  0
  187.0900  178.9190  137.9740 C   0  0  0  0  0  2  0  0  0  0  0  0
  182.1250  178.5900  140.8080 O   0  0  0  0  0  0  0  0  0  0  0  0
  184.0690  177.6030  139.8810 C   0  0  0  0  0  2  0  0  0  0  0  0
  187.1790  178.3180  146.2060 N   0  0  0  0  0  0  0  0  0  0  0  0
  185.2180  177.8370  142.5610 C   0  0  0  0  0  3  0  0  0  0  0  0
  187.2120  177.5360  143.9460 C   0  0  1  0  0  3  0  0  0  0  0  0
  183.9130  179.0690  144.6880 C   0  0  0  0  0  3  0  0  0  0  0  0
  180.8150  178.7890  143.9040 C   0  0  0  0  0  1  0  0  0  0  0  0
  181.9420  179.4130  143.3030 O   0  0  0  0  0  0  0  0  0  0  0  0
  1 12  1  6  0  0  0
  1  8  1  0  0  0  0
  2 11  1  0  0  0  0
  3 21  1  0  0  0  0
  3 15  2  0  0  0  0
  4 21  2  0  0  0  0
  5 23  1  0  0  0  0
  5  7  1  0  0  0  0
  7  3  1  0  0  0  0
  8 20  1  0  0  0  0
  9 13  1  0  0  0  0
 10 17  1  0  0  0  0
 11 22  1  0  0  0  0
 11 14  2  0  0  0  0
 13  6  1  1  0  0  0
 14 24  1  0  0  0  0
 16 17  1  6  0  0  0
 16  9  1  0  0  0  0
 16 13  1  0  0  0  0
 18 10  1  0  0  0  0
 18  1  1  0  0  0  0
 19  2  2  0  0  0  0
 20  2  1  0  0  0  0
 22  5  2  0  0  0  0
 23  6  1  6  0  0  0
 23  4  1  0  0  0  0
 24  7  2  0  0  0  0
 26 14  1  0  0  0  0
 26 25  1  0  0  0  0
M  END
>  <MODEL>
6

>  <REMARK>
 VINA RESULT:      -9.0      2.426      5.599
  Name = 
  1 active torsions:
  status: ('A' for Active; 'I' for Inactive)
    1  A    between atoms: O_10  and  C_16
                            x       y       z     vdW  Elec       q    Type
                         _______ _______ _______ _____ _____    ______ ____

>  <TORSDO>
F 1

$$$$
=
 OpenBabel11062417183D

 26 29  0  0  1  0  0  0  0  0999 V2000
  184.5730  179.0060  141.5840 C   0  0  1  0  0  3  0  0  0  0  0  0
  188.2740  178.1770  141.9240 C   0  0  0  0  0  0  0  0  0  0  0  0
  189.4260  176.7830  147.3440 C   0  0  0  0  0  0  0  0  0  0  0  0
  187.5520  178.0650  148.0520 C   0  0  0  0  0  3  0  0  0  0  0  0
  188.1020  177.9820  145.7010 C   0  0  0  0  0  0  0  0  0  0  0  0
  186.0940  179.3430  146.4780 C   0  0  0  0  0  2  0  0  0  0  0  0
  189.1860  177.1330  146.0050 C   0  0  0  0  0  0  0  0  0  0  0  0
  185.8130  178.1320  141.6510 C   0  0  0  0  0  2  0  0  0  0  0  0
  185.0770  177.7190  145.0210 O   0  0  0  0  0  0  0  0  0  0  0  0
  182.5740  179.0170  143.0690 C   0  0  0  0  0  2  0  0  0  0  0  0
  188.6420  177.8240  143.3200 C   0  0  0  0  0  0  0  0  0  0  0  0
  184.3820  179.4650  140.2810 O   0  0  0  0  0  1  0  0  0  0  0  0
  184.8340  178.5570  146.1270 C   0  0  2  0  0  3  0  0  0  0  0  0
  189.7360  176.9810  143.6290 C   0  0  0  0  0  0  0  0  0  0  0  0
  190.3900  176.0320  147.6510 O   0  0  0  0  0  0  0  0  0  0  0  0
  184.4210  178.9330  144.7570 C   0  0  2  0  0  3  0  0  0  0  0  0
  182.9590  178.6280  144.4930 C   0  0  0  0  0  2  0  0  0  0  0  0
  183.3540  178.2190  142.0310 C   0  0  0  0  0  2  0  0  0  0  0  0
  188.9590  177.7670  140.9500 O   0  0  0  0  0  0  0  0  0  0  0  0
  187.0590  179.0030  141.6360 C   0  0  0  0  0  2  0  0  0  0  0  0
  188.6080  177.2540  148.3230 N   0  0  0  0  0  0  0  0  0  0  0  0
  187.8540  178.3210  144.3670 C   0  0  0  0  0  3  0  0  0  0  0  0
  187.2730  178.4500  146.7400 C   0  0  1  0  0  3  0  0  0  0  0  0
  189.9950  176.6480  144.9700 C   0  0  0  0  0  3  0  0  0  0  0  0
  191.8400  177.0010  142.3180 C   0  0  0  0  0  1  0  0  0  0  0  0
  190.5500  176.4780  142.6060 O   0  0  0  0  0  0  0  0  0  0  0  0
  1 12  1  6  0  0  0
  1  8  1  0  0  0  0
  1 18  1  0  0  0  0
  2 11  1  0  0  0  0
  3 15  2  0  0  0  0
  3 21  1  0  0  0  0
  4 21  2  0  0  0  0
  5  7  1  0  0  0  0
  5 23  1  0  0  0  0
  7  3  1  0  0  0  0
  9 13  1  0  0  0  0
 10 17  1  0  0  0  0
 11 14  2  0  0  0  0
 11 22  1  0  0  0  0
 13  6  1  6  0  0  0
 14 24  1  0  0  0  0
 16 17  1  1  0  0  0
 16  9  1  0  0  0  0
 16 13  1  0  0  0  0
 18 10  1  0  0  0  0
 19  2  2  0  0  0  0
 20  8  1  0  0  0  0
 20  2  1  0  0  0  0
 22  5  2  0  0  0  0
 23  6  1  6  0  0  0
 23  4  1  0  0  0  0
 24  7  2  0  0  0  0
 25 26  1  0  0  0  0
 26 14  1  0  0  0  0
M  END
>  <MODEL>
7

>  <REMARK>
 VINA RESULT:      -8.9      1.988      5.660
  Name = 
  1 active torsions:
  status: ('A' for Active; 'I' for Inactive)
    1  A    between atoms: O_10  and  C_16
                            x       y       z     vdW  Elec       q    Type
                         _______ _______ _______ _____ _____    ______ ____

>  <TORSDO>
F 1

$$$$
=
 OpenBabel11062417183D

 26 29  0  0  1  0  0  0  0  0999 V2000
  185.0910  179.0960  142.6600 C   0  0  1  0  0  3  0  0  0  0  0  0
  188.6880  178.2860  141.7100 C   0  0  0  0  0  0  0  0  0  0  0  0
  191.4320  176.1730  146.2540 C   0  0  0  0  0  0  0  0  0  0  0  0
  189.9100  177.3150  147.6810 C   0  0  0  0  0  3  0  0  0  0  0  0
  189.6970  177.5670  145.2880 C   0  0  0  0  0  0  0  0  0  0  0  0
  188.0710  178.7760  146.8310 C   0  0  0  0  0  2  0  0  0  0  0  0
  190.7970  176.7010  145.1180 C   0  0  0  0  0  0  0  0  0  0  0  0
  186.2650  178.2410  142.2160 C   0  0  0  0  0  2  0  0  0  0  0  0
  186.6040  177.3540  145.5580 O   0  0  0  0  0  0  0  0  0  0  0  0
  183.6560  178.8710  144.6830 C   0  0  0  0  0  2  0  0  0  0  0  0
  189.4630  177.7480  142.8590 C   0  0  0  0  0  0  0  0  0  0  0  0
  184.5170  179.7280  141.5570 O   0  0  0  0  0  1  0  0  0  0  0  0
  186.7420  178.0260  146.7880 C   0  0  2  0  0  3  0  0  0  0  0  0
  190.5740  176.8880  142.6920 C   0  0  0  0  0  0  0  0  0  0  0  0
  192.4220  175.4020  146.1380 O   0  0  0  0  0  0  0  0  0  0  0  0
  185.9340  178.5820  145.6800 C   0  0  2  0  0  3  0  0  0  0  0  0
  184.4550  178.2940  145.8470 C   0  0  0  0  0  2  0  0  0  0  0  0
  184.0500  178.2360  143.3540 C   0  0  0  0  0  2  0  0  0  0  0  0
  189.0230  178.0250  140.5240 O   0  0  0  0  0  0  0  0  0  0  0  0
  187.4680  179.1250  141.9310 C   0  0  0  0  0  2  0  0  0  0  0  0
  190.9740  176.4900  147.4940 N   0  0  0  0  0  0  0  0  0  0  0  0
  189.0550  178.0840  144.1570 C   0  0  0  0  0  3  0  0  0  0  0  0
  189.2470  177.8740  146.5870 C   0  0  1  0  0  3  0  0  0  0  0  0
  191.2280  176.3770  143.8260 C   0  0  0  0  0  3  0  0  0  0  0  0
  192.0910  177.2060  140.7570 C   0  0  0  0  0  1  0  0  0  0  0  0
  191.0140  176.5450  141.4070 O   0  0  0  0  0  0  0  0  0  0  0  0
  1 12  1  6  0  0  0
  1 18  1  0  0  0  0
  2 20  1  0  0  0  0
  2 11  1  0  0  0  0
  3 21  1  0  0  0  0
  5 23  1  0  0  0  0
  7  5  1  0  0  0  0
  7  3  1  0  0  0  0
  8  1  1  0  0  0  0
  9 16  1  0  0  0  0
  9 13  1  0  0  0  0
 10 17  1  0  0  0  0
 11 22  1  0  0  0  0
 13  6  1  6  0  0  0
 14 11  2  0  0  0  0
 14 24  1  0  0  0  0
 15  3  2  0  0  0  0
 16 17  1  1  0  0  0
 16 13  1  0  0  0  0
 18 10  1  0  0  0  0
 19  2  2  0  0  0  0
 20  8  1  0  0  0  0
 21  4  2  0  0  0  0
 22  5  2  0  0  0  0
 23  6  1  6  0  0  0
 23  4  1  0  0  0  0
 24  7  2  0  0  0  0
 25 26  1  0  0  0  0
 26 14  1  0  0  0  0
M  END
>  <MODEL>
8

>  <REMARK>
 VINA RESULT:      -8.9      2.116      5.733
  Name = 
  1 active torsions:
  status: ('A' for Active; 'I' for Inactive)
    1  A    between atoms: O_10  and  C_16
                            x       y       z     vdW  Elec       q    Type
                         _______ _______ _______ _____ _____    ______ ____

>  <TORSDO>
F 1

$$$$
=
 OpenBabel11062417183D

 26 29  0  0  1  0  0  0  0  0999 V2000
  188.1720  177.8640  140.0390 C   0  0  1  0  0  3  0  0  0  0  0  0
  186.4160  178.0130  143.4140 C   0  0  0  0  0  0  0  0  0  0  0  0
  190.2640  177.4090  147.5940 C   0  0  0  0  0  0  0  0  0  0  0  0
  191.6890  176.2420  146.0890 C   0  0  0  0  0  3  0  0  0  0  0  0
  189.5290  177.0020  145.3180 C   0  0  0  0  0  0  0  0  0  0  0  0
  191.0720  175.7580  143.7180 C   0  0  0  0  0  2  0  0  0  0  0  0
  189.2860  177.5460  146.5960 C   0  0  0  0  0  0  0  0  0  0  0  0
  187.6560  178.4870  141.3240 C   0  0  0  0  0  2  0  0  0  0  0  0
  190.8200  177.8900  142.6300 O   0  0  0  0  0  0  0  0  0  0  0  0
  190.5150  177.6540  139.2220 C   0  0  0  0  0  2  0  0  0  0  0  0
  187.3640  177.8420  144.5460 C   0  0  0  0  0  0  0  0  0  0  0  0
  187.1730  177.8820  139.0650 O   0  0  0  0  0  1  0  0  0  0  0  0
  191.6800  176.7830  142.7660 C   0  0  2  0  0  3  0  0  0  0  0  0
  187.1190  178.3780  145.8320 C   0  0  0  0  0  0  0  0  0  0  0  0
  190.0770  177.8780  148.7490 O   0  0  0  0  0  0  0  0  0  0  0  0
  190.7740  176.9310  141.6040 C   0  0  2  0  0  3  0  0  0  0  0  0
  191.4820  177.5060  140.3930 C   0  0  0  0  0  2  0  0  0  0  0  0
  189.3860  178.6280  139.5380 C   0  0  0  0  0  2  0  0  0  0  0  0
  185.3210  178.6150  143.5720 O   0  0  0  0  0  0  0  0  0  0  0  0
  186.7520  177.5030  142.0470 C   0  0  0  0  0  2  0  0  0  0  0  0
  191.4300  176.7670  147.3160 N   0  0  0  0  0  0  0  0  0  0  0  0
  188.5610  177.1490  144.3180 C   0  0  0  0  0  3  0  0  0  0  0  0
  190.7480  176.3440  145.0630 C   0  0  1  0  0  3  0  0  0  0  0  0
  188.0840  178.2210  146.8420 C   0  0  0  0  0  3  0  0  0  0  0  0
  184.9230  178.5640  146.9680 C   0  0  0  0  0  1  0  0  0  0  0  0
  185.9270  179.0650  146.0950 O   0  0  0  0  0  0  0  0  0  0  0  0
  1 12  1  6  0  0  0
  1  8  1  0  0  0  0
  2 19  2  0  0  0  0
  2 11  1  0  0  0  0
  3 15  2  0  0  0  0
  4 21  2  0  0  0  0
  5  7  1  0  0  0  0
  7 24  2  0  0  0  0
  7  3  1  0  0  0  0
  8 20  1  0  0  0  0
  9 13  1  0  0  0  0
 10 18  1  0  0  0  0
 10 17  1  0  0  0  0
 11 14  2  0  0  0  0
 13  6  1  1  0  0  0
 14 26  1  0  0  0  0
 14 24  1  0  0  0  0
 16 17  1  6  0  0  0
 16  9  1  0  0  0  0
 16 13  1  0  0  0  0
 18  1  1  0  0  0  0
 20  2  1  0  0  0  0
 21  3  1  0  0  0  0
 22 11  1  0  0  0  0
 22  5  2  0  0  0  0
 23  6  1  6  0  0  0
 23  5  1  0  0  0  0
 23  4  1  0  0  0  0
 26 25  1  0  0  0  0
M  END
>  <MODEL>
9

>  <REMARK>
 VINA RESULT:      -8.7      2.443      5.774
  Name = 
  1 active torsions:
  status: ('A' for Active; 'I' for Inactive)
    1  A    between atoms: O_10  and  C_16
                            x       y       z     vdW  Elec       q    Type
                         _______ _______ _______ _____ _____    ______ ____

>  <TORSDO>
F 1

$$$$
