=
 OpenBabel11062414103D

 32 35  0  0  1  0  0  0  0  0999 V2000
  188.6050  176.9660  137.2200 C   0  0  1  0  0  3  0  0  0  0  0  0
  191.5220  177.1060  138.1140 C   0  0  2  0  0  3  0  0  0  0  0  0
  190.2540  177.2100  138.8820 C   0  0  2  0  0  0  0  0  0  0  0  0
  190.1580  176.8180  140.3010 N   0  0  0  0  0  0  0  0  0  0  0  0
  187.2940  178.9320  137.6590 O   0  0  0  0  0  1  0  0  0  0  0  0
  187.5510  177.6430  138.1260 C   0  0  2  0  0  3  0  0  0  0  0  0
  190.7920  176.2150  137.2670 O   0  0  0  0  0  0  0  0  0  0  0  0
  189.6260  176.2620  138.0090 N   0  0  2  0  0  0  0  0  0  0  0  0
  187.9640  177.7000  139.6040 C   0  0  0  0  0  2  0  0  0  0  0  0
  189.4500  178.0210  139.7810 C   0  0  2  0  0  3  0  0  0  0  0  0
  188.5820  176.0750  135.0050 F   0  0  0  0  0  0  0  0  0  0  0  0
  188.0020  174.7170  136.6950 F   0  0  0  0  0  0  0  0  0  0  0  0
  186.6050  176.3640  136.0520 F   0  0  0  0  0  0  0  0  0  0  0  0
  187.9330  176.0160  136.2250 C   0  0  0  0  0  0  0  0  0  0  0  0
  192.6660  176.3480  138.7970 C   0  0  2  0  0  3  0  0  0  0  0  0
  193.5570  177.2590  139.3690 O   0  0  0  0  0  1  0  0  0  0  0  0
  193.4070  175.4720  137.8380 C   0  0  0  0  0  0  0  0  0  0  0  0
  193.1700  174.2340  137.7980 O   0  0  0  0  0  0  0  0  0  0  0  0
  194.1570  176.2080  135.6140 C   0  0  0  0  0  1  0  0  0  0  0  0
  194.3720  176.0420  137.0080 O   0  0  0  0  0  0  0  0  0  0  0  0
  191.2130  177.3910  141.1270 C   0  0  0  0  0  2  0  0  0  0  0  0
  191.2850  176.7190  142.5000 C   0  0  2  0  0  3  0  0  0  0  0  0
  190.0370  175.9000  142.8460 C   0  0  0  0  0  2  0  0  0  0  0  0
  191.6840  177.6760  143.6290 C   0  0  0  0  0  2  0  0  0  0  0  0
  188.8820  176.7890  143.3100 C   0  0  0  0  0  2  0  0  0  0  0  0
  189.3020  177.6780  144.4820 C   0  0  2  0  0  3  0  0  0  0  0  0
  190.5080  178.5370  144.0950 C   0  0  0  0  0  2  0  0  0  0  0  0
  189.6000  176.8970  145.6130 O   0  0  0  0  0  0  0  0  0  0  0  0
  188.6350  176.3080  147.6170 F   0  0  0  0  0  0  0  0  0  0  0  0
  187.4980  177.6480  146.1820 F   0  0  0  0  0  0  0  0  0  0  0  0
  189.3060  178.4190  147.2650 F   0  0  0  0  0  0  0  0  0  0  0  0
  188.7540  177.3060  146.6630 C   0  0  0  0  0  0  0  0  0  0  0  0
  1 14  1  6  0  0  0
  1  8  1  0  0  0  0
  1  6  1  0  0  0  0
  2 15  1  1  0  0  0
  2  3  1  0  0  0  0
  3 10  1  0  0  0  0
  3  4  1  1  0  0  0
  4 21  1  0  0  0  0
  6  5  1  6  0  0  0
  6  9  1  0  0  0  0
  7  2  1  0  0  0  0
  8  7  1  6  0  0  0
  8  3  1  0  0  0  0
 10  9  1  6  0  0  0
 10  4  1  0  0  0  0
 11 14  1  0  0  0  0
 13 14  1  0  0  0  0
 14 12  1  0  0  0  0
 15 16  1  6  0  0  0
 17 15  1  0  0  0  0
 18 17  2  0  0  0  0
 19 20  1  0  0  0  0
 20 17  1  0  0  0  0
 22 21  1  6  0  0  0
 22 23  1  0  0  0  0
 22 24  1  0  0  0  0
 23 25  1  0  0  0  0
 24 27  1  0  0  0  0
 25 26  1  0  0  0  0
 26 28  1  1  0  0  0
 27 26  1  0  0  0  0
 28 32  1  0  0  0  0
 30 32  1  0  0  0  0
 32 31  1  0  0  0  0
 32 29  1  0  0  0  0
M  END
>  <MODEL>
1

>  <REMARK>
 VINA RESULT:      -7.5      0.000      0.000
  Name = 
  8 active torsions:
  status: ('A' for Active; 'I' for Inactive)
    1  A    between atoms: C_1  and  C_2
    2  A    between atoms: C_1  and  O_30
    3  A    between atoms: C_2  and  C_7
    4  A    between atoms: C_5  and  C_28
    5  A    between atoms: C_6  and  C_31
    6  A    between atoms: N_15  and  C_31
    7  A    between atoms: C_19  and  O_32
    8  A    between atoms: C_22  and  O_32
                            x       y       z     vdW  Elec       q    Type
                         _______ _______ _______ _____ _____    ______ ____

>  <TORSDO>
F 8

$$$$
=
 OpenBabel11062414103D

 32 35  0  0  1  0  0  0  0  0999 V2000
  188.9270  177.7370  138.0660 C   0  0  1  0  0  3  0  0  0  0  0  0
  187.1280  177.8350  140.5330 C   0  0  2  0  0  3  0  0  0  0  0  0
  188.6080  177.7630  140.3980 C   0  0  2  0  0  0  0  0  0  0  0  0
  189.5200  178.3110  141.4200 N   0  0  0  0  0  0  0  0  0  0  0  0
  190.3030  175.7770  137.8670 O   0  0  0  0  0  1  0  0  0  0  0  0
  190.3340  177.1210  138.2370 C   0  0  2  0  0  3  0  0  0  0  0  0
  187.1790  178.5880  139.3190 O   0  0  0  0  0  0  0  0  0  0  0  0
  188.5570  178.5730  139.2170 N   0  0  2  0  0  0  0  0  0  0  0  0
  190.8890  177.2540  139.6630 C   0  0  0  0  0  2  0  0  0  0  0  0
  189.8150  177.0240  140.7290 C   0  0  2  0  0  3  0  0  0  0  0  0
  189.5690  177.9000  135.7730 F   0  0  0  0  0  0  0  0  0  0  0  0
  187.5220  178.6170  136.3490 F   0  0  0  0  0  0  0  0  0  0  0  0
  189.3360  179.8120  136.9480 F   0  0  0  0  0  0  0  0  0  0  0  0
  188.8390  178.5340  136.7620 C   0  0  0  0  0  0  0  0  0  0  0  0
  186.5960  178.7200  141.6680 C   0  0  2  0  0  3  0  0  0  0  0  0
  186.5880  177.9960  142.8620 O   0  0  0  0  0  1  0  0  0  0  0  0
  185.2150  179.2180  141.3860 C   0  0  0  0  0  0  0  0  0  0  0  0
  184.3150  179.1210  142.2640 O   0  0  0  0  0  0  0  0  0  0  0  0
  183.7690  179.4270  139.4080 C   0  0  0  0  0  1  0  0  0  0  0  0
  184.9370  179.7720  140.1370 O   0  0  0  0  0  0  0  0  0  0  0  0
  189.1870  177.8860  142.7730 C   0  0  0  0  0  2  0  0  0  0  0  0
  190.2570  178.3150  143.7800 C   0  0  2  0  0  3  0  0  0  0  0  0
  191.5760  177.5480  143.6330 C   0  0  0  0  0  2  0  0  0  0  0  0
  189.7580  178.3400  145.2300 C   0  0  0  0  0  2  0  0  0  0  0  0
  191.5000  176.1560  144.2620 C   0  0  0  0  0  2  0  0  0  0  0  0
  191.0650  176.2320  145.7270 C   0  0  2  0  0  3  0  0  0  0  0  0
  189.7150  176.9400  145.8470 C   0  0  0  0  0  2  0  0  0  0  0  0
  192.0370  176.8960  146.4970 O   0  0  0  0  0  0  0  0  0  0  0  0
  191.2650  175.1690  147.8070 F   0  0  0  0  0  0  0  0  0  0  0  0
  192.1070  177.0300  148.7950 F   0  0  0  0  0  0  0  0  0  0  0  0
  193.4620  175.6110  147.7040 F   0  0  0  0  0  0  0  0  0  0  0  0
  192.2040  176.1830  147.7010 C   0  0  0  0  0  0  0  0  0  0  0  0
  1 14  1  6  0  0  0
  1  6  1  0  0  0  0
  1  8  1  0  0  0  0
  2 15  1  1  0  0  0
  3  2  1  0  0  0  0
  3 10  1  0  0  0  0
  3  4  1  1  0  0  0
  4 21  1  0  0  0  0
  6  5  1  1  0  0  0
  6  9  1  0  0  0  0
  7  2  1  0  0  0  0
  8  7  1  6  0  0  0
  8  3  1  0  0  0  0
 10  9  1  6  0  0  0
 10  4  1  0  0  0  0
 11 14  1  0  0  0  0
 12 14  1  0  0  0  0
 14 13  1  0  0  0  0
 15 16  1  1  0  0  0
 17 15  1  0  0  0  0
 17 18  2  0  0  0  0
 19 20  1  0  0  0  0
 20 17  1  0  0  0  0
 22 21  1  6  0  0  0
 22 24  1  0  0  0  0
 23 22  1  0  0  0  0
 23 25  1  0  0  0  0
 24 27  1  0  0  0  0
 25 26  1  0  0  0  0
 26 27  1  0  0  0  0
 26 28  1  1  0  0  0
 28 32  1  0  0  0  0
 32 31  1  0  0  0  0
 32 29  1  0  0  0  0
 32 30  1  0  0  0  0
M  END
>  <MODEL>
2

>  <REMARK>
 VINA RESULT:      -7.4      2.698      5.170
  Name = 
  8 active torsions:
  status: ('A' for Active; 'I' for Inactive)
    1  A    between atoms: C_1  and  C_2
    2  A    between atoms: C_1  and  O_30
    3  A    between atoms: C_2  and  C_7
    4  A    between atoms: C_5  and  C_28
    5  A    between atoms: C_6  and  C_31
    6  A    between atoms: N_15  and  C_31
    7  A    between atoms: C_19  and  O_32
    8  A    between atoms: C_22  and  O_32
                            x       y       z     vdW  Elec       q    Type
                         _______ _______ _______ _____ _____    ______ ____

>  <TORSDO>
F 8

$$$$
=
 OpenBabel11062414103D

 32 35  0  0  1  0  0  0  0  0999 V2000
  186.2340  178.1210  138.2270 C   0  0  1  0  0  3  0  0  0  0  0  0
  189.2070  177.9760  138.9160 C   0  0  2  0  0  3  0  0  0  0  0  0
  187.9970  177.9650  139.7800 C   0  0  2  0  0  0  0  0  0  0  0  0
  187.9750  177.2960  141.0950 N   0  0  0  0  0  0  0  0  0  0  0  0
  185.0520  180.0010  139.1450 O   0  0  0  0  0  1  0  0  0  0  0  0
  185.2760  178.6370  139.3250 C   0  0  2  0  0  3  0  0  0  0  0  0
  188.3810  177.3010  137.9640 O   0  0  0  0  0  0  0  0  0  0  0  0
  187.2700  177.2370  138.7830 N   0  0  2  0  0  0  0  0  0  0  0  0
  185.7850  178.3770  140.7510 C   0  0  0  0  0  2  0  0  0  0  0  0
  187.2940  178.6040  140.8790 C   0  0  2  0  0  3  0  0  0  0  0  0
  185.5150  176.0460  137.2920 F   0  0  0  0  0  0  0  0  0  0  0  0
  184.1280  177.8050  137.1510 F   0  0  0  0  0  0  0  0  0  0  0  0
  185.9860  177.7410  135.8790 F   0  0  0  0  0  0  0  0  0  0  0  0
  185.4550  177.4170  137.1150 C   0  0  0  0  0  0  0  0  0  0  0  0
  190.3550  177.0550  139.3480 C   0  0  2  0  0  3  0  0  0  0  0  0
  191.4420  177.8250  139.7670 O   0  0  0  0  0  1  0  0  0  0  0  0
  190.7910  176.1490  138.2410 C   0  0  0  0  0  0  0  0  0  0  0  0
  190.5130  174.9190  138.2820 O   0  0  0  0  0  0  0  0  0  0  0  0
  191.8250  175.9180  136.0220 C   0  0  0  0  0  1  0  0  0  0  0  0
  191.5230  176.6810  137.1800 O   0  0  0  0  0  0  0  0  0  0  0  0
  189.1070  177.6530  141.9390 C   0  0  0  0  0  2  0  0  0  0  0  0
  189.2000  176.7510  143.1720 C   0  0  2  0  0  3  0  0  0  0  0  0
  187.8500  176.5100  143.8560 C   0  0  0  0  0  2  0  0  0  0  0  0
  190.2860  177.1830  144.1650 C   0  0  0  0  0  2  0  0  0  0  0  0
  187.4280  177.6970  144.7210 C   0  0  0  0  0  2  0  0  0  0  0  0
  188.5090  178.0510  145.7430 C   0  0  2  0  0  3  0  0  0  0  0  0
  189.8330  178.3550  145.0380 C   0  0  0  0  0  2  0  0  0  0  0  0
  188.6760  177.0050  146.6680 O   0  0  0  0  0  0  0  0  0  0  0  0
  187.9590  176.5690  148.8110 F   0  0  0  0  0  0  0  0  0  0  0  0
  187.6520  178.6380  147.9300 F   0  0  0  0  0  0  0  0  0  0  0  0
  189.7120  177.9240  148.4620 F   0  0  0  0  0  0  0  0  0  0  0  0
  188.4870  177.5300  147.9620 C   0  0  0  0  0  0  0  0  0  0  0  0
  1 14  1  6  0  0  0
  1  8  1  0  0  0  0
  1  6  1  0  0  0  0
  2 15  1  1  0  0  0
  2  3  1  0  0  0  0
  3 10  1  0  0  0  0
  3  4  1  1  0  0  0
  4 21  1  0  0  0  0
  6  5  1  6  0  0  0
  6  9  1  0  0  0  0
  7  2  1  0  0  0  0
  8  7  1  6  0  0  0
  8  3  1  0  0  0  0
 10  9  1  6  0  0  0
 10  4  1  0  0  0  0
 13 14  1  0  0  0  0
 14 12  1  0  0  0  0
 14 11  1  0  0  0  0
 15 16  1  6  0  0  0
 17 18  2  0  0  0  0
 17 15  1  0  0  0  0
 19 20  1  0  0  0  0
 20 17  1  0  0  0  0
 22 21  1  6  0  0  0
 22 23  1  0  0  0  0
 22 24  1  0  0  0  0
 23 25  1  0  0  0  0
 24 27  1  0  0  0  0
 25 26  1  0  0  0  0
 26 28  1  1  0  0  0
 27 26  1  0  0  0  0
 28 32  1  0  0  0  0
 30 32  1  0  0  0  0
 32 31  1  0  0  0  0
 32 29  1  0  0  0  0
M  END
>  <MODEL>
3

>  <REMARK>
 VINA RESULT:      -7.3      1.926      2.501
  Name = 
  8 active torsions:
  status: ('A' for Active; 'I' for Inactive)
    1  A    between atoms: C_1  and  C_2
    2  A    between atoms: C_1  and  O_30
    3  A    between atoms: C_2  and  C_7
    4  A    between atoms: C_5  and  C_28
    5  A    between atoms: C_6  and  C_31
    6  A    between atoms: N_15  and  C_31
    7  A    between atoms: C_19  and  O_32
    8  A    between atoms: C_22  and  O_32
                            x       y       z     vdW  Elec       q    Type
                         _______ _______ _______ _____ _____    ______ ____

>  <TORSDO>
F 8

$$$$
=
 OpenBabel11062414103D

 32 35  0  0  1  0  0  0  0  0999 V2000
  182.2780  178.9040  141.4270 C   0  0  1  0  0  3  0  0  0  0  0  0
  185.3140  179.2240  141.2960 C   0  0  2  0  0  3  0  0  0  0  0  0
  184.4180  178.7950  142.4030 C   0  0  2  0  0  0  0  0  0  0  0  0
  184.8690  177.8840  143.4720 N   0  0  0  0  0  0  0  0  0  0  0  0
  181.1640  180.2820  143.0500 O   0  0  0  0  0  1  0  0  0  0  0  0
  181.6160  178.9830  142.8220 C   0  0  2  0  0  3  0  0  0  0  0  0
  184.3490  178.6030  140.4420 O   0  0  0  0  0  0  0  0  0  0  0  0
  183.5410  178.1520  141.4680 N   0  0  2  0  0  0  0  0  0  0  0  0
  182.5460  178.5480  143.9650 C   0  0  0  0  0  2  0  0  0  0  0  0
  183.9810  179.0440  143.7660 C   0  0  2  0  0  3  0  0  0  0  0  0
  181.6520  176.9770  140.1670 F   0  0  0  0  0  0  0  0  0  0  0  0
  180.0220  178.3390  140.8920 F   0  0  0  0  0  0  0  0  0  0  0  0
  181.3740  179.0030  139.2150 F   0  0  0  0  0  0  0  0  0  0  0  0
  181.3160  178.2970  140.4040 C   0  0  0  0  0  0  0  0  0  0  0  0
  186.6530  178.4850  141.1850 C   0  0  2  0  0  3  0  0  0  0  0  0
  187.6440  179.2080  141.8510 O   0  0  0  0  0  1  0  0  0  0  0  0
  187.0640  178.2840  139.7620 C   0  0  0  0  0  0  0  0  0  0  0  0
  186.3300  178.7060  138.8250 O   0  0  0  0  0  0  0  0  0  0  0  0
  189.3080  178.2210  138.7580 C   0  0  0  0  0  1  0  0  0  0  0  0
  188.2540  177.6120  139.4880 O   0  0  0  0  0  0  0  0  0  0  0  0
  186.1360  178.2820  144.0690 C   0  0  0  0  0  2  0  0  0  0  0  0
  186.8220  177.1110  144.7760 C   0  0  2  0  0  3  0  0  0  0  0  0
  186.9010  177.2760  146.2980 C   0  0  0  0  0  2  0  0  0  0  0  0
  188.1760  176.7340  144.1620 C   0  0  0  0  0  2  0  0  0  0  0  0
  188.0270  178.2230  146.7120 C   0  0  0  0  0  2  0  0  0  0  0  0
  189.3710  177.7730  146.1350 C   0  0  2  0  0  3  0  0  0  0  0  0
  189.2930  177.6790  144.6100 C   0  0  0  0  0  2  0  0  0  0  0  0
  189.7540  176.5360  146.6830 O   0  0  0  0  0  0  0  0  0  0  0  0
  191.9190  177.0820  146.1280 F   0  0  0  0  0  0  0  0  0  0  0  0
  191.5360  175.4440  147.6510 F   0  0  0  0  0  0  0  0  0  0  0  0
  191.1130  177.5890  148.1590 F   0  0  0  0  0  0  0  0  0  0  0  0
  191.0800  176.6530  147.1440 C   0  0  0  0  0  0  0  0  0  0  0  0
  1 14  1  6  0  0  0
  1  8  1  0  0  0  0
  1  6  1  0  0  0  0
  2 15  1  1  0  0  0
  2  3  1  0  0  0  0
  3  4  1  1  0  0  0
  3 10  1  0  0  0  0
  4 10  1  0  0  0  0
  4 21  1  0  0  0  0
  6  5  1  1  0  0  0
  6  9  1  0  0  0  0
  7  2  1  0  0  0  0
  8  7  1  6  0  0  0
  8  3  1  0  0  0  0
 10  9  1  6  0  0  0
 11 14  1  0  0  0  0
 13 14  1  0  0  0  0
 14 12  1  0  0  0  0
 15 16  1  1  0  0  0
 17 15  1  0  0  0  0
 18 17  2  0  0  0  0
 19 20  1  0  0  0  0
 20 17  1  0  0  0  0
 22 21  1  6  0  0  0
 22 23  1  0  0  0  0
 23 25  1  0  0  0  0
 24 27  1  0  0  0  0
 24 22  1  0  0  0  0
 26 28  1  1  0  0  0
 26 25  1  0  0  0  0
 27 26  1  0  0  0  0
 28 32  1  0  0  0  0
 29 32  1  0  0  0  0
 32 30  1  0  0  0  0
 32 31  1  0  0  0  0
M  END
>  <MODEL>
4

>  <REMARK>
 VINA RESULT:      -7.3      4.531      6.319
  Name = 
  8 active torsions:
  status: ('A' for Active; 'I' for Inactive)
    1  A    between atoms: C_1  and  C_2
    2  A    between atoms: C_1  and  O_30
    3  A    between atoms: C_2  and  C_7
    4  A    between atoms: C_5  and  C_28
    5  A    between atoms: C_6  and  C_31
    6  A    between atoms: N_15  and  C_31
    7  A    between atoms: C_19  and  O_32
    8  A    between atoms: C_22  and  O_32
                            x       y       z     vdW  Elec       q    Type
                         _______ _______ _______ _____ _____    ______ ____

>  <TORSDO>
F 8

$$$$
=
 OpenBabel11062414103D

 32 35  0  0  1  0  0  0  0  0999 V2000
  190.2120  177.6990  139.6570 C   0  0  1  0  0  3  0  0  0  0  0  0
  190.2590  178.1880  142.6720 C   0  0  2  0  0  3  0  0  0  0  0  0
  189.1280  178.0540  141.7160 C   0  0  2  0  0  0  0  0  0  0  0  0
  187.8030  177.5520  142.1280 N   0  0  0  0  0  0  0  0  0  0  0  0
  189.1680  179.4220  138.3470 O   0  0  0  0  0  1  0  0  0  0  0  0
  188.9530  178.1530  138.8830 C   0  0  2  0  0  3  0  0  0  0  0  0
  190.9320  177.2650  141.8120 O   0  0  0  0  0  0  0  0  0  0  0  0
  189.8650  177.0920  140.9500 N   0  0  2  0  0  0  0  0  0  0  0  0
  187.6790  178.1610  139.7420 C   0  0  0  0  0  2  0  0  0  0  0  0
  187.9380  178.6770  141.1600 C   0  0  2  0  0  3  0  0  0  0  0  0
  190.5590  175.4500  138.9360 F   0  0  0  0  0  0  0  0  0  0  0  0
  190.9850  177.1030  137.4790 F   0  0  0  0  0  0  0  0  0  0  0  0
  192.3710  176.7640  139.2230 F   0  0  0  0  0  0  0  0  0  0  0  0
  191.0500  176.7370  138.8110 C   0  0  0  0  0  0  0  0  0  0  0  0
  190.0550  177.5520  144.0530 C   0  0  2  0  0  3  0  0  0  0  0  0
  189.9250  178.5550  145.0160 O   0  0  0  0  0  1  0  0  0  0  0  0
  191.1910  176.6550  144.4270 C   0  0  0  0  0  0  0  0  0  0  0  0
  191.4630  175.6480  143.7180 O   0  0  0  0  0  0  0  0  0  0  0  0
  192.0560  176.0000  146.6350 C   0  0  0  0  0  1  0  0  0  0  0  0
  191.9270  176.9380  145.5770 O   0  0  0  0  0  0  0  0  0  0  0  0
  187.2870  178.2080  143.3220 C   0  0  0  0  0  2  0  0  0  0  0  0
  185.9660  177.5860  143.7830 C   0  0  2  0  0  3  0  0  0  0  0  0
  184.8700  177.6160  142.7130 C   0  0  0  0  0  2  0  0  0  0  0  0
  185.4760  178.1240  145.1330 C   0  0  0  0  0  2  0  0  0  0  0  0
  184.2160  178.9940  142.6040 C   0  0  0  0  0  2  0  0  0  0  0  0
  183.6800  179.4620  143.9580 C   0  0  2  0  0  3  0  0  0  0  0  0
  184.8030  179.4910  144.9960 C   0  0  0  0  0  2  0  0  0  0  0  0
  182.6330  178.6270  144.3900 O   0  0  0  0  0  0  0  0  0  0  0  0
  180.3330  178.6530  144.3590 F   0  0  0  0  0  0  0  0  0  0  0  0
  181.4710  178.2580  142.4360 F   0  0  0  0  0  0  0  0  0  0  0  0
  181.4920  180.2980  143.3700 F   0  0  0  0  0  0  0  0  0  0  0  0
  181.4820  178.9450  143.6420 C   0  0  0  0  0  0  0  0  0  0  0  0
  1 14  1  6  0  0  0
  1  8  1  0  0  0  0
  2 15  1  1  0  0  0
  3  4  1  1  0  0  0
  3  2  1  0  0  0  0
  4 21  1  0  0  0  0
  6  5  1  1  0  0  0
  6  1  1  0  0  0  0
  6  9  1  0  0  0  0
  7  2  1  0  0  0  0
  8  3  1  0  0  0  0
  8  7  1  1  0  0  0
 10  9  1  6  0  0  0
 10  3  1  0  0  0  0
 10  4  1  0  0  0  0
 12 14  1  0  0  0  0
 14 11  1  0  0  0  0
 14 13  1  0  0  0  0
 15 17  1  0  0  0  0
 15 16  1  1  0  0  0
 17 20  1  0  0  0  0
 18 17  2  0  0  0  0
 20 19  1  0  0  0  0
 22 21  1  6  0  0  0
 22 24  1  0  0  0  0
 23 22  1  0  0  0  0
 25 23  1  0  0  0  0
 25 26  1  0  0  0  0
 26 28  1  1  0  0  0
 26 27  1  0  0  0  0
 27 24  1  0  0  0  0
 30 32  1  0  0  0  0
 31 32  1  0  0  0  0
 32 29  1  0  0  0  0
 32 28  1  0  0  0  0
M  END
>  <MODEL>
5

>  <REMARK>
 VINA RESULT:      -7.1      4.044      5.918
  Name = 
  8 active torsions:
  status: ('A' for Active; 'I' for Inactive)
    1  A    between atoms: C_1  and  C_2
    2  A    between atoms: C_1  and  O_30
    3  A    between atoms: C_2  and  C_7
    4  A    between atoms: C_5  and  C_28
    5  A    between atoms: C_6  and  C_31
    6  A    between atoms: N_15  and  C_31
    7  A    between atoms: C_19  and  O_32
    8  A    between atoms: C_22  and  O_32
                            x       y       z     vdW  Elec       q    Type
                         _______ _______ _______ _____ _____    ______ ____

>  <TORSDO>
F 8

$$$$
=
 OpenBabel11062414103D

 32 35  0  0  1  0  0  0  0  0999 V2000
  184.4160  178.8840  141.9390 C   0  0  1  0  0  3  0  0  0  0  0  0
  187.0200  179.0380  140.3500 C   0  0  2  0  0  3  0  0  0  0  0  0
  186.7350  178.5410  141.7220 C   0  0  2  0  0  0  0  0  0  0  0  0
  187.5480  177.4910  142.3640 N   0  0  0  0  0  0  0  0  0  0  0  0
  184.3820  180.1340  143.9920 O   0  0  0  0  0  1  0  0  0  0  0  0
  184.5260  178.8440  143.4810 C   0  0  2  0  0  3  0  0  0  0  0  0
  185.7030  178.5750  140.0430 O   0  0  0  0  0  0  0  0  0  0  0  0
  185.4530  178.0600  141.3000 N   0  0  2  0  0  0  0  0  0  0  0  0
  185.8420  178.2310  143.9830 C   0  0  0  0  0  2  0  0  0  0  0  0
  187.0440  178.6600  143.1380 C   0  0  2  0  0  3  0  0  0  0  0  0
  182.1450  178.4850  142.5560 F   0  0  0  0  0  0  0  0  0  0  0  0
  182.5530  179.3190  140.5120 F   0  0  0  0  0  0  0  0  0  0  0  0
  183.0590  177.1710  140.9670 F   0  0  0  0  0  0  0  0  0  0  0  0
  183.0200  178.4530  141.4850 C   0  0  0  0  0  0  0  0  0  0  0  0
  188.0510  178.2390  139.5430 C   0  0  2  0  0  3  0  0  0  0  0  0
  189.1890  179.0200  139.3320 O   0  0  0  0  0  1  0  0  0  0  0  0
  187.5050  177.7990  138.2220 C   0  0  0  0  0  0  0  0  0  0  0  0
  187.0300  178.6490  137.4190 O   0  0  0  0  0  0  0  0  0  0  0  0
  187.8650  175.9780  136.6090 C   0  0  0  0  0  1  0  0  0  0  0  0
  187.5130  176.4420  137.9040 O   0  0  0  0  0  0  0  0  0  0  0  0
  188.9800  177.7450  142.2850 C   0  0  0  0  0  2  0  0  0  0  0  0
  189.7920  176.6170  142.9270 C   0  0  2  0  0  3  0  0  0  0  0  0
  189.2460  176.1690  144.2870 C   0  0  0  0  0  2  0  0  0  0  0  0
  191.2990  176.8960  142.9690 C   0  0  0  0  0  2  0  0  0  0  0  0
  189.6430  177.1310  145.4070 C   0  0  0  0  0  2  0  0  0  0  0  0
  191.1590  177.3280  145.4580 C   0  0  2  0  0  3  0  0  0  0  0  0
  191.6770  177.8400  144.1120 C   0  0  0  0  0  2  0  0  0  0  0  0
  191.8020  176.1260  145.8050 O   0  0  0  0  0  0  0  0  0  0  0  0
  190.9550  175.1570  147.7130 F   0  0  0  0  0  0  0  0  0  0  0  0
  191.6700  177.3100  147.7760 F   0  0  0  0  0  0  0  0  0  0  0  0
  193.1430  175.6300  147.5630 F   0  0  0  0  0  0  0  0  0  0  0  0
  191.8790  176.0600  147.2100 C   0  0  0  0  0  0  0  0  0  0  0  0
  1 14  1  1  0  0  0
  1  6  1  0  0  0  0
  2 15  1  6  0  0  0
  2  3  1  0  0  0  0
  3  4  1  6  0  0  0
  3 10  1  0  0  0  0
  4 10  1  0  0  0  0
  6  9  1  0  0  0  0
  6  5  1  6  0  0  0
  7  2  1  0  0  0  0
  8  7  1  6  0  0  0
  8  3  1  0  0  0  0
  8  1  1  0  0  0  0
 10  9  1  1  0  0  0
 12 14  1  0  0  0  0
 13 14  1  0  0  0  0
 14 11  1  0  0  0  0
 15 16  1  6  0  0  0
 17 15  1  0  0  0  0
 18 17  2  0  0  0  0
 19 20  1  0  0  0  0
 20 17  1  0  0  0  0
 21  4  1  0  0  0  0
 22 21  1  1  0  0  0
 22 24  1  0  0  0  0
 22 23  1  0  0  0  0
 23 25  1  0  0  0  0
 24 27  1  0  0  0  0
 25 26  1  0  0  0  0
 26 28  1  6  0  0  0
 27 26  1  0  0  0  0
 28 32  1  0  0  0  0
 32 31  1  0  0  0  0
 32 29  1  0  0  0  0
 32 30  1  0  0  0  0
M  END
>  <MODEL>
6

>  <REMARK>
 VINA RESULT:      -6.8      3.835      5.295
  Name = 
  8 active torsions:
  status: ('A' for Active; 'I' for Inactive)
    1  A    between atoms: C_1  and  C_2
    2  A    between atoms: C_1  and  O_30
    3  A    between atoms: C_2  and  C_7
    4  A    between atoms: C_5  and  C_28
    5  A    between atoms: C_6  and  C_31
    6  A    between atoms: N_15  and  C_31
    7  A    between atoms: C_19  and  O_32
    8  A    between atoms: C_22  and  O_32
                            x       y       z     vdW  Elec       q    Type
                         _______ _______ _______ _____ _____    ______ ____

>  <TORSDO>
F 8

$$$$
=
 OpenBabel11062414103D

 32 35  0  0  1  0  0  0  0  0999 V2000
  187.2310  177.8870  146.5630 C   0  0  1  0  0  3  0  0  0  0  0  0
  188.9310  176.3360  144.5550 C   0  0  2  0  0  3  0  0  0  0  0  0
  187.8490  177.3360  144.3590 C   0  0  2  0  0  0  0  0  0  0  0  0
  187.7850  178.2050  143.1690 N   0  0  0  0  0  0  0  0  0  0  0  0
  184.8630  177.5010  146.4280 O   0  0  0  0  0  1  0  0  0  0  0  0
  185.8590  178.4110  146.0780 C   0  0  2  0  0  3  0  0  0  0  0  0
  189.2350  177.0800  145.7380 O   0  0  0  0  0  0  0  0  0  0  0  0
  188.2680  178.0450  145.5330 N   0  0  2  0  0  0  0  0  0  0  0  0
  185.8100  178.6790  144.5660 C   0  0  0  0  0  2  0  0  0  0  0  0
  186.5530  177.6100  143.7610 C   0  0  2  0  0  3  0  0  0  0  0  0
  187.5410  177.6940  148.9220 F   0  0  0  0  0  0  0  0  0  0  0  0
  188.9590  179.0020  147.7750 F   0  0  0  0  0  0  0  0  0  0  0  0
  186.8330  179.6740  148.1030 F   0  0  0  0  0  0  0  0  0  0  0  0
  187.6450  178.5790  147.8640 C   0  0  0  0  0  0  0  0  0  0  0  0
  190.1110  176.4160  143.5780 C   0  0  2  0  0  3  0  0  0  0  0  0
  190.1930  175.2320  142.8430 O   0  0  0  0  0  1  0  0  0  0  0  0
  191.4070  176.6460  144.2860 C   0  0  0  0  0  0  0  0  0  0  0  0
  192.0040  175.6840  144.8430 O   0  0  0  0  0  0  0  0  0  0  0  0
  191.2970  179.0300  143.6890 C   0  0  0  0  0  1  0  0  0  0  0  0
  191.9330  177.9370  144.3350 O   0  0  0  0  0  0  0  0  0  0  0  0
  187.9310  177.4730  141.9170 C   0  0  0  0  0  2  0  0  0  0  0  0
  188.4650  178.3690  140.7970 C   0  0  2  0  0  3  0  0  0  0  0  0
  187.4460  178.6280  139.6820 C   0  0  0  0  0  2  0  0  0  0  0  0
  189.8240  177.9180  140.2490 C   0  0  0  0  0  2  0  0  0  0  0  0
  187.3370  177.4430  138.7220 C   0  0  0  0  0  2  0  0  0  0  0  0
  188.7040  177.0690  138.1450 C   0  0  2  0  0  3  0  0  0  0  0  0
  189.6900  176.7490  139.2710 C   0  0  0  0  0  2  0  0  0  0  0  0
  189.2010  178.1100  137.3400 O   0  0  0  0  0  0  0  0  0  0  0  0
  189.7830  178.1870  135.1150 F   0  0  0  0  0  0  0  0  0  0  0  0
  187.6420  178.6280  135.7260 F   0  0  0  0  0  0  0  0  0  0  0  0
  188.4610  176.5440  135.8790 F   0  0  0  0  0  0  0  0  0  0  0  0
  188.7750  177.8810  136.0160 C   0  0  0  0  0  0  0  0  0  0  0  0
  1 14  1  1  0  0  0
  2 15  1  6  0  0  0
  2  7  1  0  0  0  0
  3  4  1  6  0  0  0
  3  2  1  0  0  0  0
  3  8  1  0  0  0  0
  4 10  1  0  0  0  0
  6  5  1  6  0  0  0
  6  1  1  0  0  0  0
  8  7  1  1  0  0  0
  8  1  1  0  0  0  0
  9  6  1  0  0  0  0
 10  3  1  0  0  0  0
 10  9  1  1  0  0  0
 12 14  1  0  0  0  0
 14 13  1  0  0  0  0
 14 11  1  0  0  0  0
 15 16  1  1  0  0  0
 15 17  1  0  0  0  0
 17 20  1  0  0  0  0
 17 18  2  0  0  0  0
 19 20  1  0  0  0  0
 21  4  1  0  0  0  0
 22 21  1  1  0  0  0
 23 22  1  0  0  0  0
 24 22  1  0  0  0  0
 25 23  1  0  0  0  0
 26 28  1  1  0  0  0
 26 25  1  0  0  0  0
 26 27  1  0  0  0  0
 27 24  1  0  0  0  0
 29 32  1  0  0  0  0
 30 32  1  0  0  0  0
 31 32  1  0  0  0  0
 32 28  1  0  0  0  0
M  END
>  <MODEL>
7

>  <REMARK>
 VINA RESULT:      -6.7      2.815      8.324
  Name = 
  8 active torsions:
  status: ('A' for Active; 'I' for Inactive)
    1  A    between atoms: C_1  and  C_2
    2  A    between atoms: C_1  and  O_30
    3  A    between atoms: C_2  and  C_7
    4  A    between atoms: C_5  and  C_28
    5  A    between atoms: C_6  and  C_31
    6  A    between atoms: N_15  and  C_31
    7  A    between atoms: C_19  and  O_32
    8  A    between atoms: C_22  and  O_32
                            x       y       z     vdW  Elec       q    Type
                         _______ _______ _______ _____ _____    ______ ____

>  <TORSDO>
F 8

$$$$
=
 OpenBabel11062414103D

 32 35  0  0  1  0  0  0  0  0999 V2000
  185.8990  178.2630  144.8640 C   0  0  1  0  0  3  0  0  0  0  0  0
  187.9580  176.4000  143.5910 C   0  0  2  0  0  3  0  0  0  0  0  0
  187.1740  177.5290  143.0260 C   0  0  2  0  0  0  0  0  0  0  0  0
  187.6640  178.3410  141.8960 N   0  0  0  0  0  0  0  0  0  0  0  0
  183.7040  178.1990  143.8860 O   0  0  0  0  0  1  0  0  0  0  0  0
  184.8810  178.9460  143.9220 C   0  0  2  0  0  3  0  0  0  0  0  0
  187.9250  177.1500  144.8080 O   0  0  0  0  0  0  0  0  0  0  0  0
  187.2450  178.2280  144.2750 N   0  0  2  0  0  0  0  0  0  0  0  0
  185.4120  179.1480  142.4940 C   0  0  0  0  0  2  0  0  0  0  0  0
  186.2300  177.9500  142.0030 C   0  0  2  0  0  3  0  0  0  0  0  0
  185.7110  180.3100  146.0760 F   0  0  0  0  0  0  0  0  0  0  0  0
  184.9100  178.4430  147.0290 F   0  0  0  0  0  0  0  0  0  0  0  0
  187.1360  178.7440  146.8540 F   0  0  0  0  0  0  0  0  0  0  0  0
  185.9180  178.9520  146.2300 C   0  0  0  0  0  0  0  0  0  0  0  0
  189.4070  176.2720  143.1030 C   0  0  2  0  0  3  0  0  0  0  0  0
  189.7620  174.9230  143.0370 O   0  0  0  0  0  1  0  0  0  0  0  0
  190.3640  176.9890  144.0000 C   0  0  0  0  0  0  0  0  0  0  0  0
  190.5380  178.2320  143.8750 O   0  0  0  0  0  0  0  0  0  0  0  0
  191.2720  176.7550  146.2730 C   0  0  0  0  0  1  0  0  0  0  0  0
  191.0690  176.2610  144.9580 O   0  0  0  0  0  0  0  0  0  0  0  0
  188.1380  177.5390  140.7760 C   0  0  0  0  0  2  0  0  0  0  0  0
  189.3730  178.1590  140.1180 C   0  0  2  0  0  3  0  0  0  0  0  0
  189.2540  178.2870  138.5950 C   0  0  0  0  0  2  0  0  0  0  0  0
  190.6900  177.5000  140.5450 C   0  0  0  0  0  2  0  0  0  0  0  0
  189.5110  176.9560  137.8890 C   0  0  0  0  0  2  0  0  0  0  0  0
  190.8650  176.3670  138.2900 C   0  0  2  0  0  3  0  0  0  0  0  0
  190.9390  176.1830  139.8080 C   0  0  0  0  0  2  0  0  0  0  0  0
  191.9140  177.1910  137.8450 O   0  0  0  0  0  0  0  0  0  0  0  0
  193.7550  176.1130  138.7080 F   0  0  0  0  0  0  0  0  0  0  0  0
  193.8410  176.9600  136.6050 F   0  0  0  0  0  0  0  0  0  0  0  0
  192.5670  175.1690  137.0570 F   0  0  0  0  0  0  0  0  0  0  0  0
  193.0240  176.3710  137.5590 C   0  0  0  0  0  0  0  0  0  0  0  0
  1 14  1  1  0  0  0
  2 15  1  6  0  0  0
  2  7  1  0  0  0  0
  3  4  1  6  0  0  0
  3  2  1  0  0  0  0
  3  8  1  0  0  0  0
  4 10  1  0  0  0  0
  6  5  1  6  0  0  0
  6  1  1  0  0  0  0
  8  7  1  1  0  0  0
  8  1  1  0  0  0  0
  9  6  1  0  0  0  0
 10  9  1  1  0  0  0
 10  3  1  0  0  0  0
 11 14  1  0  0  0  0
 14 13  1  0  0  0  0
 14 12  1  0  0  0  0
 15 16  1  1  0  0  0
 15 17  1  0  0  0  0
 17 20  1  0  0  0  0
 18 17  2  0  0  0  0
 20 19  1  0  0  0  0
 21  4  1  0  0  0  0
 22 24  1  0  0  0  0
 22 21  1  6  0  0  0
 23 22  1  0  0  0  0
 25 26  1  0  0  0  0
 25 23  1  0  0  0  0
 26 28  1  1  0  0  0
 26 27  1  0  0  0  0
 27 24  1  0  0  0  0
 30 32  1  0  0  0  0
 31 32  1  0  0  0  0
 32 28  1  0  0  0  0
 32 29  1  0  0  0  0
M  END
>  <MODEL>
8

>  <REMARK>
 VINA RESULT:      -6.4      3.094      7.819
  Name = 
  8 active torsions:
  status: ('A' for Active; 'I' for Inactive)
    1  A    between atoms: C_1  and  C_2
    2  A    between atoms: C_1  and  O_30
    3  A    between atoms: C_2  and  C_7
    4  A    between atoms: C_5  and  C_28
    5  A    between atoms: C_6  and  C_31
    6  A    between atoms: N_15  and  C_31
    7  A    between atoms: C_19  and  O_32
    8  A    between atoms: C_22  and  O_32
                            x       y       z     vdW  Elec       q    Type
                         _______ _______ _______ _____ _____    ______ ____

>  <TORSDO>
F 8

$$$$
=
 OpenBabel11062414103D

 32 35  0  0  1  0  0  0  0  0999 V2000
  182.7100  178.6160  141.3160 C   0  0  1  0  0  3  0  0  0  0  0  0
  185.3640  179.0020  139.8520 C   0  0  2  0  0  3  0  0  0  0  0  0
  185.0640  178.6170  141.2570 C   0  0  2  0  0  0  0  0  0  0  0  0
  185.9790  177.7830  142.0580 N   0  0  0  0  0  0  0  0  0  0  0  0
  182.3510  180.0600  143.2030 O   0  0  0  0  0  1  0  0  0  0  0  0
  182.7200  178.7610  142.8550 C   0  0  2  0  0  3  0  0  0  0  0  0
  184.1540  178.3080  139.5360 O   0  0  0  0  0  0  0  0  0  0  0  0
  183.8990  177.8990  140.8310 N   0  0  2  0  0  0  0  0  0  0  0  0
  184.0760  178.4190  143.4910 C   0  0  0  0  0  2  0  0  0  0  0  0
  185.2550  178.9370  142.6620 C   0  0  2  0  0  3  0  0  0  0  0  0
  180.7810  178.7170  139.9140 F   0  0  0  0  0  0  0  0  0  0  0  0
  181.7350  176.7140  140.2530 F   0  0  0  0  0  0  0  0  0  0  0  0
  180.5830  177.7020  141.9190 F   0  0  0  0  0  0  0  0  0  0  0  0
  181.4280  177.9250  140.8460 C   0  0  0  0  0  0  0  0  0  0  0  0
  186.5540  178.2900  139.1970 C   0  0  2  0  0  3  0  0  0  0  0  0
  187.7290  178.9930  139.4710 O   0  0  0  0  0  1  0  0  0  0  0  0
  186.3870  178.1720  137.7160 C   0  0  0  0  0  0  0  0  0  0  0  0
  187.0150  178.9470  136.9430 O   0  0  0  0  0  0  0  0  0  0  0  0
  185.8150  176.4760  136.0280 C   0  0  0  0  0  1  0  0  0  0  0  0
  185.5160  177.2080  137.2070 O   0  0  0  0  0  0  0  0  0  0  0  0
  187.3600  178.2480  142.0210 C   0  0  0  0  0  2  0  0  0  0  0  0
  188.3120  177.2490  142.6830 C   0  0  2  0  0  3  0  0  0  0  0  0
  187.6770  176.4780  143.8450 C   0  0  0  0  0  2  0  0  0  0  0  0
  189.6690  177.8540  143.0600 C   0  0  0  0  0  2  0  0  0  0  0  0
  187.6220  177.3160  145.1230 C   0  0  0  0  0  2  0  0  0  0  0  0
  189.0070  177.8430  145.5010 C   0  0  2  0  0  3  0  0  0  0  0  0
  189.5960  178.6670  144.3540 C   0  0  0  0  0  2  0  0  0  0  0  0
  189.8660  176.7800  145.8340 O   0  0  0  0  0  0  0  0  0  0  0  0
  189.9210  177.9450  147.8170 F   0  0  0  0  0  0  0  0  0  0  0  0
  191.0520  175.9860  147.6420 F   0  0  0  0  0  0  0  0  0  0  0  0
  188.8080  176.0030  147.6800 F   0  0  0  0  0  0  0  0  0  0  0  0
  189.9230  176.6860  147.2380 C   0  0  0  0  0  0  0  0  0  0  0  0
  1 14  1  1  0  0  0
  1  6  1  0  0  0  0
  2 15  1  6  0  0  0
  2  3  1  0  0  0  0
  3  4  1  1  0  0  0
  3 10  1  0  0  0  0
  4 10  1  0  0  0  0
  6  5  1  6  0  0  0
  6  9  1  0  0  0  0
  7  2  1  0  0  0  0
  8  7  1  6  0  0  0
  8  3  1  0  0  0  0
  8  1  1  0  0  0  0
 10  9  1  1  0  0  0
 11 14  1  0  0  0  0
 12 14  1  0  0  0  0
 14 13  1  0  0  0  0
 15 16  1  6  0  0  0
 17 15  1  0  0  0  0
 18 17  2  0  0  0  0
 19 20  1  0  0  0  0
 20 17  1  0  0  0  0
 21  4  1  0  0  0  0
 22 21  1  1  0  0  0
 22 24  1  0  0  0  0
 22 23  1  0  0  0  0
 23 25  1  0  0  0  0
 24 27  1  0  0  0  0
 25 26  1  0  0  0  0
 26 28  1  6  0  0  0
 27 26  1  0  0  0  0
 28 32  1  0  0  0  0
 32 30  1  0  0  0  0
 32 31  1  0  0  0  0
 32 29  1  0  0  0  0
M  END
>  <MODEL>
9

>  <REMARK>
 VINA RESULT:      -6.3      4.480      5.916
  Name = 
  8 active torsions:
  status: ('A' for Active; 'I' for Inactive)
    1  A    between atoms: C_1  and  C_2
    2  A    between atoms: C_1  and  O_30
    3  A    between atoms: C_2  and  C_7
    4  A    between atoms: C_5  and  C_28
    5  A    between atoms: C_6  and  C_31
    6  A    between atoms: N_15  and  C_31
    7  A    between atoms: C_19  and  O_32
    8  A    between atoms: C_22  and  O_32
                            x       y       z     vdW  Elec       q    Type
                         _______ _______ _______ _____ _____    ______ ____

>  <TORSDO>
F 8

$$$$
