=
 OpenBabel11062415533D

 41 44  0  0  1  0  0  0  0  0999 V2000
  187.6080  178.2160  138.6800 C   0  0  0  0  0  3  0  0  0  0  0  0
  187.8040  178.1670  140.0690 C   0  0  0  0  0  0  0  0  0  0  0  0
  188.3230  177.6880  137.3310 C   0  0  0  0  0  2  0  0  0  0  0  0
  189.0200  177.4030  140.6970 C   0  0  1  0  0  3  0  0  0  0  0  0
  189.3190  176.7120  137.5270 N   0  0  0  0  0  2  0  0  0  0  0  0
  190.0720  177.6600  139.6940 N   0  0  0  0  0  2  0  0  0  0  0  0
  190.1760  176.5830  138.6750 C   0  0  0  0  0  0  0  0  0  0  0  0
  190.8020  175.6070  138.9260 O   0  0  0  0  0  0  0  0  0  0  0  0
  189.7530  177.2690  142.0520 N   0  0  0  0  0  0  0  0  0  0  0  0
  188.7780  177.5460  143.1030 C   0  0  0  0  0  2  0  0  0  0  0  0
  187.9740  176.3010  143.3920 C   0  0  0  0  0  2  0  0  0  0  0  0
  187.0090  176.8650  144.4500 C   0  0  0  0  0  2  0  0  0  0  0  0
  187.5920  178.0240  145.1530 C   0  0  0  0  0  2  0  0  0  0  0  0
  187.7290  177.6190  146.6180 C   0  0  0  0  0  2  0  0  0  0  0  0
  186.5360  178.1740  147.3700 C   0  0  0  0  0  2  0  0  0  0  0  0
  185.8150  179.2340  146.5200 C   0  0  0  0  0  2  0  0  0  0  0  0
  184.4810  178.8780  145.9870 N   0  0  0  0  0  2  0  0  0  0  0  0
  183.8720  179.2080  144.7260 C   0  0  0  0  0  0  0  0  0  0  0  0
  182.6110  178.7400  144.4120 O   0  0  0  0  0  1  0  0  0  0  0  0
  184.5600  179.8430  143.8150 O   0  0  0  0  0  0  0  0  0  0  0  0
  191.1520  177.6880  142.4050 C   0  0  0  0  0  2  0  0  0  0  0  0
  191.5680  178.0410  143.8760 C   0  0  0  0  0  2  0  0  0  0  0  0
  191.6430  176.9850  146.1210 N   0  0  0  0  0  2  0  0  0  0  0  0
  191.7760  176.8900  144.8320 C   0  0  0  0  0  0  0  0  0  0  0  0
  191.7660  175.5410  144.2240 C   0  0  0  0  0  1  0  0  0  0  0  0
  186.6320  178.7660  140.8630 C   0  0  0  0  0  2  0  0  0  0  0  0
  184.6280  179.8140  140.1110 O   0  0  0  0  0  0  0  0  0  0  0  0
  183.6970  179.7580  139.0030 C   0  0  0  0  0  2  0  0  0  0  0  0
  184.0250  177.8240  141.0900 C   0  0  0  0  0  2  0  0  0  0  0  0
  182.6360  178.6150  139.1330 C   0  0  1  0  0  3  0  0  0  0  0  0
  185.1720  178.5780  140.3240 C   0  0  2  0  0  3  0  0  0  0  0  0
  182.8590  177.9210  140.4350 C   0  0  0  0  0  2  0  0  0  0  0  0
  180.0080  179.0030  141.2320 N   0  0  0  0  0  2  0  0  0  0  0  0
  180.6610  182.0010  138.5250 O   0  0  0  0  0  0  0  0  0  0  0  0
  181.1060  180.4000  136.7420 O   0  0  0  0  0  0  0  0  0  0  0  0
  179.3270  178.1610  140.2530 C   0  0  0  0  0  2  0  0  0  0  0  0
  179.3750  179.7260  138.3140 C   0  0  0  0  0  2  0  0  0  0  0  0
  181.0230  179.5410  140.7370 N   0  0  0  0  0  2  0  0  0  0  0  0
  181.1490  179.2660  139.2200 C   0  0  2  0  0  0  0  0  0  0  0  0
  179.8690  178.5170  139.1260 C   0  0  1  0  0  3  0  0  0  0  0  0
  180.8550  180.5890  138.1750 S   0  0  0  0  0  0  0  0  0  0  0  0
  1  2  2  0  0  0  0
  2  4  1  0  0  0  0
  2 26  1  0  0  0  0
  3  5  1  0  0  0  0
  3  1  1  0  0  0  0
  4  9  1  1  0  0  0
  5  7  1  0  0  0  0
  6  4  1  0  0  0  0
  7  8  2  0  0  0  0
  7  6  1  0  0  0  0
  9 21  1  0  0  0  0
  9 10  1  0  0  0  0
 10 11  1  0  0  0  0
 11 12  1  0  0  0  0
 12 13  1  0  0  0  0
 13 14  1  0  0  0  0
 14 15  1  0  0  0  0
 16 15  1  0  0  0  0
 17 16  1  0  0  0  0
 18 17  1  0  0  0  0
 19 18  1  0  0  0  0
 20 18  2  0  0  0  0
 21 22  1  0  0  0  0
 22 24  1  0  0  0  0
 24 23  2  0  0  0  0
 25 24  1  0  0  0  0
 27 31  1  0  0  0  0
 28 27  1  0  0  0  0
 30 28  1  1  0  0  0
 30 39  1  0  0  0  0
 30 32  1  0  0  0  0
 31 26  1  1  0  0  0
 31 29  1  0  0  0  0
 32 29  1  0  0  0  0
 35 41  2  0  0  0  0
 36 33  1  0  0  0  0
 38 33  1  0  0  0  0
 39 38  1  1  0  0  0
 40 37  1  1  0  0  0
 40 39  1  0  0  0  0
 40 36  1  0  0  0  0
 41 37  1  0  0  0  0
 41 34  2  0  0  0  0
 41 39  1  0  0  0  0
M  END
>  <MODEL>
1

>  <REMARK>
 VINA RESULT:      -8.0      0.000      0.000
  Name = 
  15 active torsions:
  status: ('A' for Active; 'I' for Inactive)
    1  A    between atoms: C_1  and  C_19
    2  A    between atoms: C_1  and  C_29
    3  A    between atoms: C_3  and  C_17
    4  A    between atoms: C_7  and  N_8
    5  A    between atoms: N_8  and  C_10
    6  A    between atoms: N_8  and  C_26
    7  A    between atoms: C_10  and  C_25
    8  A    between atoms: C_12  and  N_15
    9  A    between atoms: C_12  and  C_28
   10  A    between atoms: C_17  and  C_40
   11  A    between atoms: C_19  and  C_28
   12  A    between atoms: C_20  and  C_32
   13  A    between atoms: C_25  and  C_29
   14  A    between atoms: C_26  and  C_32
   15  A    between atoms: C_27  and  C_33
                            x       y       z     vdW  Elec       q    Type
                         _______ _______ _______ _____ _____    ______ ____

>  <TORSDO>
F 15

$$$$
=
 OpenBabel11062415533D

 41 44  0  0  1  0  0  0  0  0999 V2000
  190.3310  176.5460  136.8790 C   0  0  0  0  0  3  0  0  0  0  0  0
  190.5460  176.9140  138.2170 C   0  0  0  0  0  0  0  0  0  0  0  0
  189.1610  176.6260  135.7690 C   0  0  0  0  0  2  0  0  0  0  0  0
  189.4430  177.6510  139.0510 C   0  0  1  0  0  3  0  0  0  0  0  0
  188.0940  177.4870  136.0890 N   0  0  0  0  0  2  0  0  0  0  0  0
  188.2150  177.0210  138.5240 N   0  0  0  0  0  2  0  0  0  0  0  0
  187.6040  177.7890  137.4070 C   0  0  0  0  0  0  0  0  0  0  0  0
  186.8980  178.7090  137.6560 O   0  0  0  0  0  0  0  0  0  0  0  0
  189.1290  178.0250  140.5180 N   0  0  0  0  0  0  0  0  0  0  0  0
  189.2950  176.8150  141.3200 C   0  0  0  0  0  2  0  0  0  0  0  0
  190.6460  176.8330  141.9940 C   0  0  0  0  0  2  0  0  0  0  0  0
  190.2460  177.4580  143.3410 C   0  0  0  0  0  2  0  0  0  0  0  0
  190.8860  176.7620  144.4740 C   0  0  0  0  0  2  0  0  0  0  0  0
  190.1080  177.1590  145.7250 C   0  0  0  0  0  2  0  0  0  0  0  0
  188.8330  177.8500  145.2830 C   0  0  0  0  0  2  0  0  0  0  0  0
  187.6790  177.5050  146.2400 C   0  0  0  0  0  2  0  0  0  0  0  0
  186.3080  177.8280  145.7870 N   0  0  0  0  0  2  0  0  0  0  0  0
  185.3550  178.7650  146.3200 C   0  0  0  0  0  0  0  0  0  0  0  0
  184.1250  178.9360  145.7160 O   0  0  0  0  0  0  0  0  0  0  0  0
  185.6970  179.5570  147.3010 O   0  0  0  0  0  1  0  0  0  0  0  0
  188.0690  178.9510  141.0420 C   0  0  0  0  0  2  0  0  0  0  0  0
  186.8970  178.4450  141.9520 C   0  0  0  0  0  2  0  0  0  0  0  0
  185.2040  179.5180  140.4870 N   0  0  0  0  0  2  0  0  0  0  0  0
  185.4930  178.8410  141.5580 C   0  0  0  0  0  0  0  0  0  0  0  0
  184.4040  178.1030  142.2350 C   0  0  0  0  0  1  0  0  0  0  0  0
  191.9950  176.6840  138.6780 C   0  0  0  0  0  2  0  0  0  0  0  0
  194.1200  175.6270  138.4580 O   0  0  0  0  0  0  0  0  0  0  0  0
  194.6880  174.3540  138.0700 C   0  0  0  0  0  2  0  0  0  0  0  0
  193.4810  176.3060  136.3580 C   0  0  0  0  0  2  0  0  0  0  0  0
  194.8320  174.1770  136.5210 C   0  0  1  0  0  3  0  0  0  0  0  0
  192.9610  175.8490  137.7690 C   0  0  2  0  0  3  0  0  0  0  0  0
  194.3780  175.4390  135.8670 C   0  0  0  0  0  2  0  0  0  0  0  0
  197.7250  175.9220  136.3090 N   0  0  0  0  0  2  0  0  0  0  0  0
  198.0290  171.9660  137.3090 O   0  0  0  0  0  0  0  0  0  0  0  0
  196.3750  171.3350  135.6350 O   0  0  0  0  0  0  0  0  0  0  0  0
  197.5910  175.6320  134.8850 C   0  0  0  0  0  2  0  0  0  0  0  0
  197.8510  173.1550  134.9790 C   0  0  0  0  0  2  0  0  0  0  0  0
  197.0440  175.1300  136.9980 N   0  0  0  0  0  2  0  0  0  0  0  0
  196.4030  174.0130  136.1410 C   0  0  2  0  0  0  0  0  0  0  0  0
  197.0370  174.4560  134.8720 C   0  0  1  0  0  3  0  0  0  0  0  0
  197.0520  172.4400  136.3230 S   0  0  0  0  0  0  0  0  0  0  0  0
  1  2  2  0  0  0  0
  2 26  1  0  0  0  0
  2  4  1  0  0  0  0
  3  5  1  0  0  0  0
  3  1  1  0  0  0  0
  4  9  1  1  0  0  0
  5  7  1  0  0  0  0
  6  4  1  0  0  0  0
  7  8  2  0  0  0  0
  7  6  1  0  0  0  0
  9 21  1  0  0  0  0
  9 10  1  0  0  0  0
 10 11  1  0  0  0  0
 11 12  1  0  0  0  0
 12 13  1  0  0  0  0
 13 14  1  0  0  0  0
 15 14  1  0  0  0  0
 15 16  1  0  0  0  0
 17 16  1  0  0  0  0
 17 18  1  0  0  0  0
 18 20  1  0  0  0  0
 19 18  2  0  0  0  0
 21 22  1  0  0  0  0
 23 24  2  0  0  0  0
 24 22  1  0  0  0  0
 24 25  1  0  0  0  0
 28 27  1  0  0  0  0
 29 31  1  0  0  0  0
 30 32  1  6  0  0  0
 30 28  1  0  0  0  0
 31 27  1  0  0  0  0
 31 26  1  1  0  0  0
 32 29  1  0  0  0  0
 33 38  1  0  0  0  0
 35 41  2  0  0  0  0
 36 33  1  0  0  0  0
 37 41  1  0  0  0  0
 39 41  1  0  0  0  0
 39 30  1  0  0  0  0
 39 38  1  1  0  0  0
 40 36  1  1  0  0  0
 40 37  1  0  0  0  0
 40 39  1  0  0  0  0
 41 34  2  0  0  0  0
M  END
>  <MODEL>
2

>  <REMARK>
 VINA RESULT:      -7.6      5.132     10.222
  Name = 
  15 active torsions:
  status: ('A' for Active; 'I' for Inactive)
    1  A    between atoms: C_1  and  C_19
    2  A    between atoms: C_1  and  C_29
    3  A    between atoms: C_3  and  C_17
    4  A    between atoms: C_7  and  N_8
    5  A    between atoms: N_8  and  C_10
    6  A    between atoms: N_8  and  C_26
    7  A    between atoms: C_10  and  C_25
    8  A    between atoms: C_12  and  N_15
    9  A    between atoms: C_12  and  C_28
   10  A    between atoms: C_17  and  C_40
   11  A    between atoms: C_19  and  C_28
   12  A    between atoms: C_20  and  C_32
   13  A    between atoms: C_25  and  C_29
   14  A    between atoms: C_26  and  C_32
   15  A    between atoms: C_27  and  C_33
                            x       y       z     vdW  Elec       q    Type
                         _______ _______ _______ _____ _____    ______ ____

>  <TORSDO>
F 15

$$$$
=
 OpenBabel11062415533D

 41 44  0  0  1  0  0  0  0  0999 V2000
  184.6330  178.8450  143.7620 C   0  0  0  0  0  3  0  0  0  0  0  0
  185.9460  178.6290  143.3150 C   0  0  0  0  0  0  0  0  0  0  0  0
  183.7980  178.8140  145.1450 C   0  0  0  0  0  2  0  0  0  0  0  0
  187.0970  178.2500  144.3090 C   0  0  1  0  0  3  0  0  0  0  0  0
  184.5830  178.7750  146.3140 N   0  0  0  0  0  2  0  0  0  0  0  0
  186.3740  177.4040  145.2790 N   0  0  0  0  0  2  0  0  0  0  0  0
  185.8770  178.1650  146.4550 C   0  0  0  0  0  0  0  0  0  0  0  0
  186.6150  178.3830  147.3570 O   0  0  0  0  0  0  0  0  0  0  0  0
  188.5480  177.7150  144.2820 N   0  0  0  0  0  0  0  0  0  0  0  0
  188.5010  176.3590  143.7420 C   0  0  0  0  0  2  0  0  0  0  0  0
  189.7570  176.0830  142.9510 C   0  0  0  0  0  2  0  0  0  0  0  0
  189.6190  177.1720  141.8730 C   0  0  0  0  0  2  0  0  0  0  0  0
  190.7520  177.1480  140.9280 C   0  0  0  0  0  2  0  0  0  0  0  0
  190.1510  177.2150  139.5270 C   0  0  0  0  0  2  0  0  0  0  0  0
  188.9660  178.1570  139.5710 C   0  0  0  0  0  2  0  0  0  0  0  0
  188.1660  178.0720  138.2600 C   0  0  0  0  0  2  0  0  0  0  0  0
  187.7820  176.7210  137.7910 N   0  0  0  0  0  2  0  0  0  0  0  0
  186.5950  176.2860  137.1020 C   0  0  0  0  0  0  0  0  0  0  0  0
  186.4500  174.9660  136.7220 O   0  0  0  0  0  1  0  0  0  0  0  0
  185.7070  177.1610  136.7140 O   0  0  0  0  0  0  0  0  0  0  0  0
  189.6410  177.9220  145.2920 C   0  0  0  0  0  2  0  0  0  0  0  0
  189.8740  176.9270  146.4810 C   0  0  0  0  0  2  0  0  0  0  0  0
  191.8200  177.0730  148.0160 N   0  0  0  0  0  2  0  0  0  0  0  0
  191.3030  176.6650  146.8960 C   0  0  0  0  0  0  0  0  0  0  0  0
  192.0010  175.5940  146.1510 C   0  0  0  0  0  1  0  0  0  0  0  0
  186.1410  178.9790  141.8310 C   0  0  0  0  0  2  0  0  0  0  0  0
  184.5740  179.7950  140.2320 O   0  0  0  0  0  0  0  0  0  0  0  0
  184.1420  179.5380  138.8740 C   0  0  0  0  0  2  0  0  0  0  0  0
  183.6530  177.9160  141.1830 C   0  0  0  0  0  2  0  0  0  0  0  0
  183.1190  178.3590  138.7540 C   0  0  1  0  0  3  0  0  0  0  0  0
  185.0020  178.6330  140.8110 C   0  0  2  0  0  3  0  0  0  0  0  0
  182.8290  177.8550  140.1280 C   0  0  0  0  0  2  0  0  0  0  0  0
  180.9750  180.9650  139.0210 N   0  0  0  0  0  2  0  0  0  0  0  0
  181.2190  179.1480  135.3630 O   0  0  0  0  0  0  0  0  0  0  0  0
  181.2320  176.9320  136.3770 O   0  0  0  0  0  0  0  0  0  0  0  0
  180.0780  179.9450  139.5540 C   0  0  0  0  0  2  0  0  0  0  0  0
  179.8150  178.5620  137.4980 C   0  0  0  0  0  2  0  0  0  0  0  0
  181.8960  180.4500  138.3490 N   0  0  0  0  0  2  0  0  0  0  0  0
  181.7100  178.9240  138.1740 C   0  0  2  0  0  0  0  0  0  0  0  0
  180.4040  178.8810  138.8820 C   0  0  1  0  0  3  0  0  0  0  0  0
  181.2770  178.3800  136.6110 S   0  0  0  0  0  0  0  0  0  0  0  0
  1  3  1  0  0  0  0
  2  1  2  0  0  0  0
  2  4  1  0  0  0  0
  3  5  1  0  0  0  0
  4  9  1  6  0  0  0
  4  6  1  0  0  0  0
  5  7  1  0  0  0  0
  6  7  1  0  0  0  0
  7  8  2  0  0  0  0
  9 21  1  0  0  0  0
 10  9  1  0  0  0  0
 11 10  1  0  0  0  0
 12 11  1  0  0  0  0
 13 12  1  0  0  0  0
 14 15  1  0  0  0  0
 14 13  1  0  0  0  0
 16 15  1  0  0  0  0
 17 16  1  0  0  0  0
 18 17  1  0  0  0  0
 19 18  1  0  0  0  0
 20 18  2  0  0  0  0
 21 22  1  0  0  0  0
 22 24  1  0  0  0  0
 24 23  2  0  0  0  0
 25 24  1  0  0  0  0
 26  2  1  0  0  0  0
 27 31  1  0  0  0  0
 28 27  1  0  0  0  0
 30 28  1  1  0  0  0
 30 32  1  0  0  0  0
 31 29  1  0  0  0  0
 31 26  1  1  0  0  0
 32 29  1  0  0  0  0
 33 36  1  0  0  0  0
 34 41  2  0  0  0  0
 35 41  2  0  0  0  0
 38 33  1  0  0  0  0
 39 38  1  6  0  0  0
 39 30  1  0  0  0  0
 39 40  1  0  0  0  0
 40 37  1  6  0  0  0
 40 36  1  0  0  0  0
 41 37  1  0  0  0  0
 41 39  1  0  0  0  0
M  END
>  <MODEL>
3

>  <REMARK>
 VINA RESULT:      -7.4      2.030      5.254
  Name = 
  15 active torsions:
  status: ('A' for Active; 'I' for Inactive)
    1  A    between atoms: C_1  and  C_19
    2  A    between atoms: C_1  and  C_29
    3  A    between atoms: C_3  and  C_17
    4  A    between atoms: C_7  and  N_8
    5  A    between atoms: N_8  and  C_10
    6  A    between atoms: N_8  and  C_26
    7  A    between atoms: C_10  and  C_25
    8  A    between atoms: C_12  and  N_15
    9  A    between atoms: C_12  and  C_28
   10  A    between atoms: C_17  and  C_40
   11  A    between atoms: C_19  and  C_28
   12  A    between atoms: C_20  and  C_32
   13  A    between atoms: C_25  and  C_29
   14  A    between atoms: C_26  and  C_32
   15  A    between atoms: C_27  and  C_33
                            x       y       z     vdW  Elec       q    Type
                         _______ _______ _______ _____ _____    ______ ____

>  <TORSDO>
F 15

$$$$
=
 OpenBabel11062415533D

 41 44  0  0  1  0  0  0  0  0999 V2000
  184.2640  178.8860  143.4690 C   0  0  0  0  0  3  0  0  0  0  0  0
  185.5930  178.6050  143.1170 C   0  0  0  0  0  0  0  0  0  0  0  0
  183.3470  178.9640  144.7970 C   0  0  0  0  0  2  0  0  0  0  0  0
  186.6700  178.2540  144.2010 C   0  0  1  0  0  3  0  0  0  0  0  0
  184.0590  178.9730  146.0120 N   0  0  0  0  0  2  0  0  0  0  0  0
  185.8630  177.4890  145.1730 N   0  0  0  0  0  2  0  0  0  0  0  0
  185.3210  178.3350  146.2690 C   0  0  0  0  0  0  0  0  0  0  0  0
  186.0110  178.5850  147.2000 O   0  0  0  0  0  0  0  0  0  0  0  0
  188.1010  177.6760  144.2950 N   0  0  0  0  0  0  0  0  0  0  0  0
  188.4320  177.1200  142.9860 C   0  0  0  0  0  2  0  0  0  0  0  0
  189.5580  177.9130  142.3660 C   0  0  0  0  0  2  0  0  0  0  0  0
  190.3750  176.7580  141.7620 C   0  0  0  0  0  2  0  0  0  0  0  0
  191.1490  177.1980  140.5850 C   0  0  0  0  0  2  0  0  0  0  0  0
  190.4690  176.5860  139.3640 C   0  0  0  0  0  2  0  0  0  0  0  0
  189.6120  177.6570  138.7200 C   0  0  0  0  0  2  0  0  0  0  0  0
  189.7330  177.5890  137.1880 C   0  0  0  0  0  2  0  0  0  0  0  0
  188.4880  177.3490  136.4230 N   0  0  0  0  0  2  0  0  0  0  0  0
  187.3280  178.1840  136.2620 C   0  0  0  0  0  0  0  0  0  0  0  0
  186.2750  177.7760  135.4660 O   0  0  0  0  0  0  0  0  0  0  0  0
  187.3180  179.3910  136.7590 O   0  0  0  0  0  1  0  0  0  0  0  0
  188.7410  176.9420  145.4390 C   0  0  0  0  0  2  0  0  0  0  0  0
  189.8080  177.6180  146.3690 C   0  0  0  0  0  2  0  0  0  0  0  0
  191.8260  176.7310  147.5100 N   0  0  0  0  0  2  0  0  0  0  0  0
  191.1840  176.9950  146.4120 C   0  0  0  0  0  0  0  0  0  0  0  0
  191.6300  176.3370  145.1630 C   0  0  0  0  0  1  0  0  0  0  0  0
  185.8880  178.8580  141.6300 C   0  0  0  0  0  2  0  0  0  0  0  0
  184.1730  179.7280  140.2220 O   0  0  0  0  0  0  0  0  0  0  0  0
  183.7370  179.6700  138.8440 C   0  0  0  0  0  2  0  0  0  0  0  0
  183.5500  177.5950  140.8080 C   0  0  0  0  0  2  0  0  0  0  0  0
  182.8820  178.4020  138.5090 C   0  0  1  0  0  3  0  0  0  0  0  0
  184.7750  178.5510  140.5700 C   0  0  2  0  0  3  0  0  0  0  0  0
  182.7080  177.6160  139.7660 C   0  0  0  0  0  2  0  0  0  0  0  0
  180.6850  178.1790  135.9440 N   0  0  0  0  0  2  0  0  0  0  0  0
  179.1020  178.3930  139.7110 O   0  0  0  0  0  0  0  0  0  0  0  0
  180.6840  180.1280  140.3610 O   0  0  0  0  0  0  0  0  0  0  0  0
  180.8970  179.6210  135.8670 C   0  0  0  0  0  2  0  0  0  0  0  0
  179.9050  180.2650  138.0600 C   0  0  0  0  0  2  0  0  0  0  0  0
  181.0110  177.7330  137.0660 N   0  0  0  0  0  2  0  0  0  0  0  0
  181.3900  178.8610  138.0550 C   0  0  2  0  0  0  0  0  0  0  0  0
  181.0740  179.9620  137.1090 C   0  0  1  0  0  3  0  0  0  0  0  0
  180.2870  179.1670  139.3260 S   0  0  0  0  0  0  0  0  0  0  0  0
  1  3  1  0  0  0  0
  2  1  2  0  0  0  0
  2  4  1  0  0  0  0
  3  5  1  0  0  0  0
  4  9  1  6  0  0  0
  4  6  1  0  0  0  0
  5  7  1  0  0  0  0
  6  7  1  0  0  0  0
  7  8  2  0  0  0  0
  9 21  1  0  0  0  0
 10  9  1  0  0  0  0
 11 10  1  0  0  0  0
 12 11  1  0  0  0  0
 13 12  1  0  0  0  0
 14 13  1  0  0  0  0
 15 14  1  0  0  0  0
 16 15  1  0  0  0  0
 17 16  1  0  0  0  0
 18 17  1  0  0  0  0
 18 20  1  0  0  0  0
 19 18  2  0  0  0  0
 21 22  1  0  0  0  0
 22 24  1  0  0  0  0
 24 23  2  0  0  0  0
 25 24  1  0  0  0  0
 26  2  1  0  0  0  0
 27 31  1  0  0  0  0
 28 27  1  0  0  0  0
 30 28  1  1  0  0  0
 30 32  1  0  0  0  0
 31 29  1  0  0  0  0
 31 26  1  1  0  0  0
 32 29  1  0  0  0  0
 33 38  1  0  0  0  0
 36 33  1  0  0  0  0
 37 41  1  0  0  0  0
 39 38  1  6  0  0  0
 39 30  1  0  0  0  0
 39 41  1  0  0  0  0
 40 36  1  6  0  0  0
 40 39  1  0  0  0  0
 40 37  1  0  0  0  0
 41 34  2  0  0  0  0
 41 35  2  0  0  0  0
M  END
>  <MODEL>
4

>  <REMARK>
 VINA RESULT:      -7.3      2.234      5.629
  Name = 
  15 active torsions:
  status: ('A' for Active; 'I' for Inactive)
    1  A    between atoms: C_1  and  C_19
    2  A    between atoms: C_1  and  C_29
    3  A    between atoms: C_3  and  C_17
    4  A    between atoms: C_7  and  N_8
    5  A    between atoms: N_8  and  C_10
    6  A    between atoms: N_8  and  C_26
    7  A    between atoms: C_10  and  C_25
    8  A    between atoms: C_12  and  N_15
    9  A    between atoms: C_12  and  C_28
   10  A    between atoms: C_17  and  C_40
   11  A    between atoms: C_19  and  C_28
   12  A    between atoms: C_20  and  C_32
   13  A    between atoms: C_25  and  C_29
   14  A    between atoms: C_26  and  C_32
   15  A    between atoms: C_27  and  C_33
                            x       y       z     vdW  Elec       q    Type
                         _______ _______ _______ _____ _____    ______ ____

>  <TORSDO>
F 15

$$$$
=
 OpenBabel11062415533D

 41 44  0  0  1  0  0  0  0  0999 V2000
  189.4460  175.8410  136.4150 C   0  0  0  0  0  3  0  0  0  0  0  0
  189.8290  176.1470  137.7310 C   0  0  0  0  0  0  0  0  0  0  0  0
  188.4150  176.3760  135.2930 C   0  0  0  0  0  2  0  0  0  0  0  0
  189.1880  177.3460  138.5110 C   0  0  1  0  0  3  0  0  0  0  0  0
  187.8530  177.6400  135.5540 N   0  0  0  0  0  2  0  0  0  0  0  0
  187.7990  177.3050  138.0130 N   0  0  0  0  0  2  0  0  0  0  0  0
  187.5750  178.2010  136.8480 C   0  0  0  0  0  0  0  0  0  0  0  0
  187.3610  179.3530  137.0360 O   0  0  0  0  0  0  0  0  0  0  0  0
  189.1020  177.9020  139.9520 N   0  0  0  0  0  0  0  0  0  0  0  0
  189.4630  176.8160  140.8590 C   0  0  0  0  0  2  0  0  0  0  0  0
  190.4460  177.3190  141.8890 C   0  0  0  0  0  2  0  0  0  0  0  0
  190.2900  176.2120  142.9460 C   0  0  0  0  0  2  0  0  0  0  0  0
  188.9970  176.3130  143.6510 C   0  0  0  0  0  2  0  0  0  0  0  0
  189.0060  177.6490  144.3880 C   0  0  0  0  0  2  0  0  0  0  0  0
  188.1830  177.4920  145.6500 C   0  0  0  0  0  2  0  0  0  0  0  0
  189.0370  177.8170  146.8880 C   0  0  0  0  0  2  0  0  0  0  0  0
  189.9440  176.7550  147.3790 N   0  0  0  0  0  2  0  0  0  0  0  0
  191.2830  176.4220  146.9690 C   0  0  0  0  0  0  0  0  0  0  0  0
  191.9730  175.3990  147.5900 O   0  0  0  0  0  1  0  0  0  0  0  0
  191.9050  177.1700  146.0980 O   0  0  0  0  0  0  0  0  0  0  0  0
  188.0970  178.8570  140.5290 C   0  0  0  0  0  2  0  0  0  0  0  0
  186.9540  178.3810  141.4920 C   0  0  0  0  0  2  0  0  0  0  0  0
  185.2080  179.4350  140.0770 N   0  0  0  0  0  2  0  0  0  0  0  0
  185.5500  178.8470  141.1840 C   0  0  0  0  0  0  0  0  0  0  0  0
  184.4830  178.2690  142.0300 C   0  0  0  0  0  1  0  0  0  0  0  0
  191.0290  175.3200  138.2160 C   0  0  0  0  0  2  0  0  0  0  0  0
  193.1070  174.2220  137.8190 O   0  0  0  0  0  0  0  0  0  0  0  0
  193.8000  173.5110  136.7650 C   0  0  0  0  0  2  0  0  0  0  0  0
  193.2640  176.3220  136.8980 C   0  0  0  0  0  2  0  0  0  0  0  0
  194.5010  174.4540  135.7290 C   0  0  1  0  0  3  0  0  0  0  0  0
  192.2750  175.1610  137.2770 C   0  0  2  0  0  3  0  0  0  0  0  0
  194.2930  175.8640  136.1720 C   0  0  0  0  0  2  0  0  0  0  0  0
  197.4440  176.0480  136.2370 N   0  0  0  0  0  2  0  0  0  0  0  0
  197.2620  172.1150  137.3540 O   0  0  0  0  0  0  0  0  0  0  0  0
  196.0600  171.5130  135.3220 O   0  0  0  0  0  0  0  0  0  0  0  0
  197.6630  175.7200  134.8320 C   0  0  0  0  0  2  0  0  0  0  0  0
  197.7530  173.2370  135.0350 C   0  0  0  0  0  2  0  0  0  0  0  0
  196.5670  175.3120  136.7420 N   0  0  0  0  0  2  0  0  0  0  0  0
  196.1060  174.2010  135.7690 C   0  0  2  0  0  0  0  0  0  0  0  0
  197.0670  174.5720  134.6980 C   0  0  1  0  0  3  0  0  0  0  0  0
  196.5980  172.6050  136.1410 S   0  0  0  0  0  0  0  0  0  0  0  0
  1  2  2  0  0  0  0
  2 26  1  0  0  0  0
  2  4  1  0  0  0  0
  3  5  1  0  0  0  0
  3  1  1  0  0  0  0
  4  9  1  1  0  0  0
  5  7  1  0  0  0  0
  6  4  1  0  0  0  0
  7  8  2  0  0  0  0
  7  6  1  0  0  0  0
  9 21  1  0  0  0  0
  9 10  1  0  0  0  0
 10 11  1  0  0  0  0
 11 12  1  0  0  0  0
 12 13  1  0  0  0  0
 13 14  1  0  0  0  0
 14 15  1  0  0  0  0
 15 16  1  0  0  0  0
 16 17  1  0  0  0  0
 18 17  1  0  0  0  0
 18 19  1  0  0  0  0
 20 18  2  0  0  0  0
 21 22  1  0  0  0  0
 23 24  2  0  0  0  0
 24 22  1  0  0  0  0
 24 25  1  0  0  0  0
 28 27  1  0  0  0  0
 29 31  1  0  0  0  0
 30 39  1  0  0  0  0
 30 32  1  1  0  0  0
 30 28  1  0  0  0  0
 31 27  1  0  0  0  0
 31 26  1  1  0  0  0
 32 29  1  0  0  0  0
 33 38  1  0  0  0  0
 35 41  2  0  0  0  0
 36 33  1  0  0  0  0
 37 41  1  0  0  0  0
 39 41  1  0  0  0  0
 39 38  1  1  0  0  0
 40 36  1  1  0  0  0
 40 37  1  0  0  0  0
 40 39  1  0  0  0  0
 41 34  2  0  0  0  0
M  END
>  <MODEL>
5

>  <REMARK>
 VINA RESULT:      -7.2      5.303     10.409
  Name = 
  15 active torsions:
  status: ('A' for Active; 'I' for Inactive)
    1  A    between atoms: C_1  and  C_19
    2  A    between atoms: C_1  and  C_29
    3  A    between atoms: C_3  and  C_17
    4  A    between atoms: C_7  and  N_8
    5  A    between atoms: N_8  and  C_10
    6  A    between atoms: N_8  and  C_26
    7  A    between atoms: C_10  and  C_25
    8  A    between atoms: C_12  and  N_15
    9  A    between atoms: C_12  and  C_28
   10  A    between atoms: C_17  and  C_40
   11  A    between atoms: C_19  and  C_28
   12  A    between atoms: C_20  and  C_32
   13  A    between atoms: C_25  and  C_29
   14  A    between atoms: C_26  and  C_32
   15  A    between atoms: C_27  and  C_33
                            x       y       z     vdW  Elec       q    Type
                         _______ _______ _______ _____ _____    ______ ____

>  <TORSDO>
F 15

$$$$
=
 OpenBabel11062415533D

 41 44  0  0  1  0  0  0  0  0999 V2000
  184.0390  178.8380  143.5390 C   0  0  0  0  0  3  0  0  0  0  0  0
  185.3770  178.6340  143.1650 C   0  0  0  0  0  0  0  0  0  0  0  0
  183.1480  178.8960  144.8850 C   0  0  0  0  0  2  0  0  0  0  0  0
  186.4970  178.3890  144.2340 C   0  0  1  0  0  3  0  0  0  0  0  0
  183.8820  178.9890  146.0830 N   0  0  0  0  0  2  0  0  0  0  0  0
  185.7630  177.6030  145.2460 N   0  0  0  0  0  2  0  0  0  0  0  0
  185.1900  178.4440  146.3290 C   0  0  0  0  0  0  0  0  0  0  0  0
  185.8810  178.7690  147.2360 O   0  0  0  0  0  0  0  0  0  0  0  0
  187.9650  177.9100  144.3120 N   0  0  0  0  0  0  0  0  0  0  0  0
  187.9960  176.5250  143.8500 C   0  0  0  0  0  2  0  0  0  0  0  0
  189.1720  176.3230  142.9240 C   0  0  0  0  0  2  0  0  0  0  0  0
  189.0230  177.5810  142.0520 C   0  0  0  0  0  2  0  0  0  0  0  0
  188.6610  177.2400  140.6630 C   0  0  0  0  0  2  0  0  0  0  0  0
  189.0640  178.4340  139.8020 C   0  0  0  0  0  2  0  0  0  0  0  0
  189.6660  177.9030  138.5170 C   0  0  0  0  0  2  0  0  0  0  0  0
  190.4760  176.6250  138.7950 C   0  0  0  0  0  2  0  0  0  0  0  0
  191.9450  176.7700  138.9190 N   0  0  0  0  0  2  0  0  0  0  0  0
  192.7410  177.1760  140.0470 C   0  0  0  0  0  0  0  0  0  0  0  0
  194.1180  177.2130  139.9560 O   0  0  0  0  0  0  0  0  0  0  0  0
  192.1740  177.3840  141.2050 O   0  0  0  0  0  1  0  0  0  0  0  0
  188.9950  178.2160  145.3620 C   0  0  0  0  0  2  0  0  0  0  0  0
  189.5700  177.1080  146.3120 C   0  0  0  0  0  2  0  0  0  0  0  0
  191.8460  177.3780  145.3590 N   0  0  0  0  0  2  0  0  0  0  0  0
  191.0400  176.7810  146.1840 C   0  0  0  0  0  0  0  0  0  0  0  0
  191.6250  176.0120  147.3040 C   0  0  0  0  0  1  0  0  0  0  0  0
  185.6230  178.8600  141.6650 C   0  0  0  0  0  2  0  0  0  0  0  0
  183.9150  177.6070  140.5710 O   0  0  0  0  0  0  0  0  0  0  0  0
  182.4850  177.6410  140.3540 C   0  0  0  0  0  2  0  0  0  0  0  0
  184.4530  179.3660  139.1920 C   0  0  0  0  0  2  0  0  0  0  0  0
  182.0490  178.5890  139.1870 C   0  0  1  0  0  3  0  0  0  0  0  0
  184.3980  178.8810  140.6870 C   0  0  2  0  0  3  0  0  0  0  0  0
  183.2820  179.1650  138.5740 C   0  0  0  0  0  2  0  0  0  0  0  0
  179.2500  178.4550  137.2880 N   0  0  0  0  0  2  0  0  0  0  0  0
  182.6940  177.0370  135.5940 O   0  0  0  0  0  0  0  0  0  0  0  0
  183.3280  175.8960  137.6520 O   0  0  0  0  0  0  0  0  0  0  0  0
  179.0150  177.2220  138.0320 C   0  0  0  0  0  2  0  0  0  0  0  0
  180.9420  175.8940  137.1750 C   0  0  0  0  0  2  0  0  0  0  0  0
  180.4560  178.7850  137.3290 N   0  0  0  0  0  2  0  0  0  0  0  0
  181.3320  177.7140  138.0200 C   0  0  2  0  0  0  0  0  0  0  0  0
  180.2140  176.7550  138.2200 C   0  0  1  0  0  3  0  0  0  0  0  0
  182.3830  176.8170  137.0110 S   0  0  0  0  0  0  0  0  0  0  0  0
  1  3  1  0  0  0  0
  2  1  2  0  0  0  0
  2  4  1  0  0  0  0
  3  5  1  0  0  0  0
  4  9  1  6  0  0  0
  4  6  1  0  0  0  0
  5  7  1  0  0  0  0
  6  7  1  0  0  0  0
  7  8  2  0  0  0  0
  9 21  1  0  0  0  0
 10  9  1  0  0  0  0
 11 10  1  0  0  0  0
 12 11  1  0  0  0  0
 13 12  1  0  0  0  0
 14 13  1  0  0  0  0
 15 16  1  0  0  0  0
 15 14  1  0  0  0  0
 16 17  1  0  0  0  0
 17 18  1  0  0  0  0
 18 20  1  0  0  0  0
 19 18  2  0  0  0  0
 21 22  1  0  0  0  0
 23 24  2  0  0  0  0
 24 22  1  0  0  0  0
 24 25  1  0  0  0  0
 26  2  1  0  0  0  0
 27 31  1  0  0  0  0
 28 27  1  0  0  0  0
 29 31  1  0  0  0  0
 30 32  1  6  0  0  0
 30 28  1  0  0  0  0
 31 26  1  6  0  0  0
 32 29  1  0  0  0  0
 33 38  1  0  0  0  0
 33 36  1  0  0  0  0
 34 41  2  0  0  0  0
 36 40  1  0  0  0  0
 39 38  1  6  0  0  0
 39 40  1  0  0  0  0
 39 30  1  0  0  0  0
 40 37  1  6  0  0  0
 41 37  1  0  0  0  0
 41 35  2  0  0  0  0
 41 39  1  0  0  0  0
M  END
>  <MODEL>
6

>  <REMARK>
 VINA RESULT:      -7.2      2.375      5.891
  Name = 
  15 active torsions:
  status: ('A' for Active; 'I' for Inactive)
    1  A    between atoms: C_1  and  C_19
    2  A    between atoms: C_1  and  C_29
    3  A    between atoms: C_3  and  C_17
    4  A    between atoms: C_7  and  N_8
    5  A    between atoms: N_8  and  C_10
    6  A    between atoms: N_8  and  C_26
    7  A    between atoms: C_10  and  C_25
    8  A    between atoms: C_12  and  N_15
    9  A    between atoms: C_12  and  C_28
   10  A    between atoms: C_17  and  C_40
   11  A    between atoms: C_19  and  C_28
   12  A    between atoms: C_20  and  C_32
   13  A    between atoms: C_25  and  C_29
   14  A    between atoms: C_26  and  C_32
   15  A    between atoms: C_27  and  C_33
                            x       y       z     vdW  Elec       q    Type
                         _______ _______ _______ _____ _____    ______ ____

>  <TORSDO>
F 15

$$$$
=
 OpenBabel11062415533D

 41 44  0  0  1  0  0  0  0  0999 V2000
  188.2700  178.2330  140.3390 C   0  0  0  0  0  3  0  0  0  0  0  0
  187.5980  178.3010  141.5690 C   0  0  0  0  0  0  0  0  0  0  0  0
  189.5950  177.5550  139.7120 C   0  0  0  0  0  2  0  0  0  0  0  0
  188.1290  177.5430  142.8340 C   0  0  1  0  0  3  0  0  0  0  0  0
  190.1870  176.5570  140.5090 N   0  0  0  0  0  2  0  0  0  0  0  0
  189.5890  177.6620  142.6500 N   0  0  0  0  0  2  0  0  0  0  0  0
  190.1800  176.4940  141.9460 C   0  0  0  0  0  0  0  0  0  0  0  0
  190.4450  175.5180  142.5660 O   0  0  0  0  0  0  0  0  0  0  0  0
  187.8990  177.4980  144.3630 N   0  0  0  0  0  0  0  0  0  0  0  0
  186.5100  177.8810  144.6050 C   0  0  0  0  0  2  0  0  0  0  0  0
  186.2220  177.8380  146.0870 C   0  0  0  0  0  2  0  0  0  0  0  0
  184.8540  178.5420  146.0960 C   0  0  0  0  0  2  0  0  0  0  0  0
  184.3810  178.8270  144.7280 C   0  0  0  0  0  2  0  0  0  0  0  0
  182.8680  178.6290  144.7410 C   0  0  0  0  0  2  0  0  0  0  0  0
  182.2880  179.3770  143.5580 C   0  0  0  0  0  2  0  0  0  0  0  0
  180.8540  178.8960  143.2730 C   0  0  0  0  0  2  0  0  0  0  0  0
  180.4140  178.8880  141.8590 N   0  0  0  0  0  2  0  0  0  0  0  0
  179.7080  177.8770  141.1180 C   0  0  0  0  0  0  0  0  0  0  0  0
  179.3610  178.0880  139.7980 O   0  0  0  0  0  0  0  0  0  0  0  0
  179.2720  176.8060  141.7260 O   0  0  0  0  0  1  0  0  0  0  0  0
  188.8360  177.9100  145.4630 C   0  0  0  0  0  2  0  0  0  0  0  0
  189.4280  176.8750  146.4820 C   0  0  0  0  0  2  0  0  0  0  0  0
  191.5590  175.9590  147.3640 N   0  0  0  0  0  2  0  0  0  0  0  0
  190.9320  176.7490  146.5460 C   0  0  0  0  0  0  0  0  0  0  0  0
  191.6700  177.2790  145.3780 C   0  0  0  0  0  1  0  0  0  0  0  0
  186.2420  179.0200  141.4760 C   0  0  0  0  0  2  0  0  0  0  0  0
  184.3640  177.9010  140.5270 O   0  0  0  0  0  0  0  0  0  0  0  0
  183.1650  178.1960  139.7710 C   0  0  0  0  0  2  0  0  0  0  0  0
  185.8690  178.2580  138.8270 C   0  0  0  0  0  2  0  0  0  0  0  0
  183.4140  178.3380  138.2320 C   0  0  1  0  0  3  0  0  0  0  0  0
  185.3470  178.7960  140.2090 C   0  0  2  0  0  3  0  0  0  0  0  0
  184.8580  178.0640  137.9690 C   0  0  0  0  0  2  0  0  0  0  0  0
  182.4550  177.3920  135.1270 N   0  0  0  0  0  2  0  0  0  0  0  0
  183.1310  174.4020  137.8370 O   0  0  0  0  0  0  0  0  0  0  0  0
  181.9810  175.6320  139.5980 O   0  0  0  0  0  0  0  0  0  0  0  0
  181.1190  177.6670  135.6460 C   0  0  0  0  0  2  0  0  0  0  0  0
  181.0140  175.8790  137.3790 C   0  0  0  0  0  2  0  0  0  0  0  0
  183.2720  177.2090  136.0560 N   0  0  0  0  0  2  0  0  0  0  0  0
  182.5860  177.1850  137.4420 C   0  0  2  0  0  0  0  0  0  0  0  0
  181.2100  177.3260  136.8970 C   0  0  1  0  0  3  0  0  0  0  0  0
  182.4960  175.6660  138.2250 S   0  0  0  0  0  0  0  0  0  0  0  0
  1  2  2  0  0  0  0
  2  4  1  0  0  0  0
  3  1  1  0  0  0  0
  3  5  1  0  0  0  0
  4  9  1  1  0  0  0
  5  7  1  0  0  0  0
  6  4  1  0  0  0  0
  7  8  2  0  0  0  0
  7  6  1  0  0  0  0
  9 10  1  0  0  0  0
  9 21  1  0  0  0  0
 10 11  1  0  0  0  0
 11 12  1  0  0  0  0
 13 14  1  0  0  0  0
 13 12  1  0  0  0  0
 15 14  1  0  0  0  0
 16 15  1  0  0  0  0
 17 16  1  0  0  0  0
 18 20  1  0  0  0  0
 18 17  1  0  0  0  0
 19 18  2  0  0  0  0
 21 22  1  0  0  0  0
 22 24  1  0  0  0  0
 24 23  2  0  0  0  0
 25 24  1  0  0  0  0
 26  2  1  0  0  0  0
 28 27  1  0  0  0  0
 29 31  1  0  0  0  0
 30 32  1  1  0  0  0
 30 28  1  0  0  0  0
 31 27  1  0  0  0  0
 31 26  1  1  0  0  0
 32 29  1  0  0  0  0
 33 36  1  0  0  0  0
 33 38  1  0  0  0  0
 34 41  2  0  0  0  0
 37 41  1  0  0  0  0
 39 38  1  6  0  0  0
 39 41  1  0  0  0  0
 39 30  1  0  0  0  0
 40 36  1  6  0  0  0
 40 37  1  0  0  0  0
 40 39  1  0  0  0  0
 41 35  2  0  0  0  0
M  END
>  <MODEL>
7

>  <REMARK>
 VINA RESULT:      -6.9      2.787      4.062
  Name = 
  15 active torsions:
  status: ('A' for Active; 'I' for Inactive)
    1  A    between atoms: C_1  and  C_19
    2  A    between atoms: C_1  and  C_29
    3  A    between atoms: C_3  and  C_17
    4  A    between atoms: C_7  and  N_8
    5  A    between atoms: N_8  and  C_10
    6  A    between atoms: N_8  and  C_26
    7  A    between atoms: C_10  and  C_25
    8  A    between atoms: C_12  and  N_15
    9  A    between atoms: C_12  and  C_28
   10  A    between atoms: C_17  and  C_40
   11  A    between atoms: C_19  and  C_28
   12  A    between atoms: C_20  and  C_32
   13  A    between atoms: C_25  and  C_29
   14  A    between atoms: C_26  and  C_32
   15  A    between atoms: C_27  and  C_33
                            x       y       z     vdW  Elec       q    Type
                         _______ _______ _______ _____ _____    ______ ____

>  <TORSDO>
F 15

$$$$
=
 OpenBabel11062415533D

 41 44  0  0  1  0  0  0  0  0999 V2000
  184.1650  179.0140  143.6930 C   0  0  0  0  0  3  0  0  0  0  0  0
  185.4440  178.7120  143.1980 C   0  0  0  0  0  0  0  0  0  0  0  0
  183.3780  179.0240  145.1030 C   0  0  0  0  0  2  0  0  0  0  0  0
  186.5990  178.2430  144.1470 C   0  0  1  0  0  3  0  0  0  0  0  0
  184.1980  178.9160  146.2430 N   0  0  0  0  0  2  0  0  0  0  0  0
  185.8530  177.4360  145.1330 N   0  0  0  0  0  2  0  0  0  0  0  0
  185.4500  178.2160  146.3330 C   0  0  0  0  0  0  0  0  0  0  0  0
  186.2320  178.3710  147.2110 O   0  0  0  0  0  0  0  0  0  0  0  0
  188.0070  177.6090  144.0640 N   0  0  0  0  0  0  0  0  0  0  0  0
  188.0020  176.6840  142.9340 C   0  0  0  0  0  2  0  0  0  0  0  0
  189.2650  176.8610  142.1250 C   0  0  0  0  0  2  0  0  0  0  0  0
  189.0090  178.2700  141.5650 C   0  0  0  0  0  2  0  0  0  0  0  0
  188.6180  178.2260  140.1420 C   0  0  0  0  0  2  0  0  0  0  0  0
  189.7110  177.4500  139.4140 C   0  0  0  0  0  2  0  0  0  0  0  0
  189.5250  177.6640  137.9260 C   0  0  0  0  0  2  0  0  0  0  0  0
  188.4550  176.7040  137.3780 C   0  0  0  0  0  2  0  0  0  0  0  0
  188.8790  175.7530  136.3240 N   0  0  0  0  0  2  0  0  0  0  0  0
  189.7200  174.5890  136.4150 C   0  0  0  0  0  0  0  0  0  0  0  0
  189.9640  173.8120  135.2990 O   0  0  0  0  0  0  0  0  0  0  0  0
  190.1510  174.1840  137.5790 O   0  0  0  0  0  1  0  0  0  0  0  0
  188.9080  177.1790  145.1870 C   0  0  0  0  0  2  0  0  0  0  0  0
  190.3510  177.7670  145.3670 C   0  0  0  0  0  2  0  0  0  0  0  0
  192.0550  176.5120  146.6650 N   0  0  0  0  0  2  0  0  0  0  0  0
  191.4850  176.7810  145.5290 C   0  0  0  0  0  0  0  0  0  0  0  0
  191.6810  175.8390  144.4050 C   0  0  0  0  0  1  0  0  0  0  0  0
  185.6120  179.0660  141.7110 C   0  0  0  0  0  2  0  0  0  0  0  0
  184.6900  179.0830  139.5130 O   0  0  0  0  0  0  0  0  0  0  0  0
  184.5870  178.2290  138.3490 C   0  0  0  0  0  2  0  0  0  0  0  0
  183.2290  177.9180  140.8510 C   0  0  0  0  0  2  0  0  0  0  0  0
  183.4340  177.1740  138.4450 C   0  0  1  0  0  3  0  0  0  0  0  0
  184.7350  178.3210  140.6470 C   0  0  2  0  0  3  0  0  0  0  0  0
  182.7110  177.3950  139.7320 C   0  0  0  0  0  2  0  0  0  0  0  0
  181.8140  175.6420  135.8980 N   0  0  0  0  0  2  0  0  0  0  0  0
  179.8140  178.6610  137.8040 O   0  0  0  0  0  0  0  0  0  0  0  0
  181.8140  180.0510  137.8670 O   0  0  0  0  0  0  0  0  0  0  0  0
  182.5910  176.5680  135.0800 C   0  0  0  0  0  2  0  0  0  0  0  0
  181.5680  178.7040  135.8560 C   0  0  0  0  0  2  0  0  0  0  0  0
  181.7360  176.0420  137.0810 N   0  0  0  0  0  2  0  0  0  0  0  0
  182.3510  177.4490  137.2660 C   0  0  2  0  0  0  0  0  0  0  0  0
  182.6680  177.6310  135.8250 C   0  0  1  0  0  3  0  0  0  0  0  0
  181.2560  178.7330  137.5460 S   0  0  0  0  0  0  0  0  0  0  0  0
  1  3  1  0  0  0  0
  2  1  2  0  0  0  0
  2  4  1  0  0  0  0
  3  5  1  0  0  0  0
  4  9  1  6  0  0  0
  4  6  1  0  0  0  0
  5  7  1  0  0  0  0
  6  7  1  0  0  0  0
  7  8  2  0  0  0  0
  9 21  1  0  0  0  0
 10  9  1  0  0  0  0
 11 10  1  0  0  0  0
 12 11  1  0  0  0  0
 13 12  1  0  0  0  0
 14 13  1  0  0  0  0
 15 14  1  0  0  0  0
 16 15  1  0  0  0  0
 17 18  1  0  0  0  0
 17 16  1  0  0  0  0
 18 20  1  0  0  0  0
 19 18  2  0  0  0  0
 21 22  1  0  0  0  0
 22 24  1  0  0  0  0
 24 23  2  0  0  0  0
 25 24  1  0  0  0  0
 26  2  1  0  0  0  0
 27 31  1  0  0  0  0
 28 27  1  0  0  0  0
 30 28  1  6  0  0  0
 30 32  1  0  0  0  0
 31 29  1  0  0  0  0
 31 26  1  1  0  0  0
 32 29  1  0  0  0  0
 33 38  1  0  0  0  0
 36 33  1  0  0  0  0
 37 41  1  0  0  0  0
 39 38  1  1  0  0  0
 39 41  1  0  0  0  0
 39 30  1  0  0  0  0
 40 36  1  6  0  0  0
 40 37  1  0  0  0  0
 40 39  1  0  0  0  0
 41 34  2  0  0  0  0
 41 35  2  0  0  0  0
M  END
>  <MODEL>
8

>  <REMARK>
 VINA RESULT:      -6.8      2.339      6.059
  Name = 
  15 active torsions:
  status: ('A' for Active; 'I' for Inactive)
    1  A    between atoms: C_1  and  C_19
    2  A    between atoms: C_1  and  C_29
    3  A    between atoms: C_3  and  C_17
    4  A    between atoms: C_7  and  N_8
    5  A    between atoms: N_8  and  C_10
    6  A    between atoms: N_8  and  C_26
    7  A    between atoms: C_10  and  C_25
    8  A    between atoms: C_12  and  N_15
    9  A    between atoms: C_12  and  C_28
   10  A    between atoms: C_17  and  C_40
   11  A    between atoms: C_19  and  C_28
   12  A    between atoms: C_20  and  C_32
   13  A    between atoms: C_25  and  C_29
   14  A    between atoms: C_26  and  C_32
   15  A    between atoms: C_27  and  C_33
                            x       y       z     vdW  Elec       q    Type
                         _______ _______ _______ _____ _____    ______ ____

>  <TORSDO>
F 15

$$$$
=
 OpenBabel11062415533D

 41 44  0  0  1  0  0  0  0  0999 V2000
  183.8660  178.8670  143.4490 C   0  0  0  0  0  3  0  0  0  0  0  0
  184.0690  178.7170  142.0680 C   0  0  0  0  0  0  0  0  0  0  0  0
  182.6390  178.9460  144.4960 C   0  0  0  0  0  2  0  0  0  0  0  0
  182.8660  178.5450  141.0780 C   0  0  1  0  0  3  0  0  0  0  0  0
  181.3900  178.5470  143.9830 N   0  0  0  0  0  2  0  0  0  0  0  0
  181.8500  179.4150  141.7030 N   0  0  0  0  0  2  0  0  0  0  0  0
  180.9430  178.6790  142.6220 C   0  0  0  0  0  0  0  0  0  0  0  0
  180.0130  178.0960  142.1730 O   0  0  0  0  0  0  0  0  0  0  0  0
  182.5760  178.5820  139.5590 N   0  0  0  0  0  0  0  0  0  0  0  0
  183.8510  178.4100  138.8690 C   0  0  0  0  0  2  0  0  0  0  0  0
  183.7840  177.1970  137.9720 C   0  0  0  0  0  2  0  0  0  0  0  0
  185.2830  177.0240  137.6730 C   0  0  0  0  0  2  0  0  0  0  0  0
  186.0440  178.2500  137.9790 C   0  0  0  0  0  2  0  0  0  0  0  0
  186.9980  178.4750  136.8100 C   0  0  0  0  0  2  0  0  0  0  0  0
  188.4040  178.1820  137.2910 C   0  0  0  0  0  2  0  0  0  0  0  0
  188.4580  178.2040  138.8280 C   0  0  0  0  0  2  0  0  0  0  0  0
  189.7980  178.2500  139.4560 N   0  0  0  0  0  2  0  0  0  0  0  0
  190.7580  177.1980  139.6640 C   0  0  0  0  0  0  0  0  0  0  0  0
  191.9790  177.4680  140.2490 O   0  0  0  0  0  1  0  0  0  0  0  0
  190.5340  176.0060  139.1810 O   0  0  0  0  0  0  0  0  0  0  0  0
  181.6010  179.4480  138.8130 C   0  0  0  0  0  2  0  0  0  0  0  0
  181.9670  180.9000  138.3440 C   0  0  0  0  0  2  0  0  0  0  0  0
  179.8300  181.9040  139.1100 N   0  0  0  0  0  2  0  0  0  0  0  0
  180.8510  181.9180  138.3070 C   0  0  0  0  0  0  0  0  0  0  0  0
  181.1450  183.1650  137.5680 C   0  0  0  0  0  1  0  0  0  0  0  0
  185.5510  178.5620  141.6910 C   0  0  0  0  0  2  0  0  0  0  0  0
  186.8140  178.7820  143.7000 O   0  0  0  0  0  0  0  0  0  0  0  0
  187.0370  178.0860  144.9490 C   0  0  0  0  0  2  0  0  0  0  0  0
  187.9470  177.3110  142.3470 C   0  0  0  0  0  2  0  0  0  0  0  0
  188.0760  176.9190  144.8400 C   0  0  1  0  0  3  0  0  0  0  0  0
  186.5290  177.8830  142.7110 C   0  0  2  0  0  3  0  0  0  0  0  0
  188.5970  176.8940  143.4410 C   0  0  0  0  0  2  0  0  0  0  0  0
  191.1660  178.2990  144.7850 N   0  0  0  0  0  2  0  0  0  0  0  0
  189.0630  178.6280  148.2790 O   0  0  0  0  0  0  0  0  0  0  0  0
  188.3030  176.3180  148.1300 O   0  0  0  0  0  0  0  0  0  0  0  0
  191.5900  176.9330  145.0770 C   0  0  0  0  0  2  0  0  0  0  0  0
  190.5720  176.7010  147.3400 C   0  0  0  0  0  2  0  0  0  0  0  0
  189.9620  178.4720  145.0790 N   0  0  0  0  0  2  0  0  0  0  0  0
  189.3520  177.2410  145.7910 C   0  0  2  0  0  0  0  0  0  0  0  0
  190.6260  176.4760  145.8200 C   0  0  1  0  0  3  0  0  0  0  0  0
  189.0120  177.4130  147.4590 S   0  0  0  0  0  0  0  0  0  0  0  0
  1  3  1  0  0  0  0
  2  1  2  0  0  0  0
  4  9  1  6  0  0  0
  4  6  1  0  0  0  0
  4  2  1  0  0  0  0
  5  3  1  0  0  0  0
  6  7  1  0  0  0  0
  7  5  1  0  0  0  0
  8  7  2  0  0  0  0
 10  9  1  0  0  0  0
 11 10  1  0  0  0  0
 12 11  1  0  0  0  0
 12 13  1  0  0  0  0
 14 15  1  0  0  0  0
 14 13  1  0  0  0  0
 15 16  1  0  0  0  0
 16 17  1  0  0  0  0
 17 18  1  0  0  0  0
 18 19  1  0  0  0  0
 20 18  2  0  0  0  0
 21  9  1  0  0  0  0
 22 21  1  0  0  0  0
 24 22  1  0  0  0  0
 24 23  2  0  0  0  0
 25 24  1  0  0  0  0
 26  2  1  0  0  0  0
 27 28  1  0  0  0  0
 29 31  1  0  0  0  0
 29 32  1  0  0  0  0
 30 32  1  6  0  0  0
 30 28  1  0  0  0  0
 30 39  1  0  0  0  0
 31 26  1  6  0  0  0
 31 27  1  0  0  0  0
 33 36  1  0  0  0  0
 33 38  1  0  0  0  0
 37 41  1  0  0  0  0
 39 38  1  6  0  0  0
 39 40  1  0  0  0  0
 39 41  1  0  0  0  0
 40 36  1  6  0  0  0
 40 37  1  0  0  0  0
 41 35  2  0  0  0  0
 41 34  2  0  0  0  0
M  END
>  <MODEL>
9

>  <REMARK>
 VINA RESULT:      -6.8      3.116      9.820
  Name = 
  15 active torsions:
  status: ('A' for Active; 'I' for Inactive)
    1  A    between atoms: C_1  and  C_19
    2  A    between atoms: C_1  and  C_29
    3  A    between atoms: C_3  and  C_17
    4  A    between atoms: C_7  and  N_8
    5  A    between atoms: N_8  and  C_10
    6  A    between atoms: N_8  and  C_26
    7  A    between atoms: C_10  and  C_25
    8  A    between atoms: C_12  and  N_15
    9  A    between atoms: C_12  and  C_28
   10  A    between atoms: C_17  and  C_40
   11  A    between atoms: C_19  and  C_28
   12  A    between atoms: C_20  and  C_32
   13  A    between atoms: C_25  and  C_29
   14  A    between atoms: C_26  and  C_32
   15  A    between atoms: C_27  and  C_33
                            x       y       z     vdW  Elec       q    Type
                         _______ _______ _______ _____ _____    ______ ____

>  <TORSDO>
F 15

$$$$
