=
 OpenBabel11062413313D

 28 30  0  0  1  0  0  0  0  0999 V2000
  185.7880  178.8580  146.5980 C   0  0  0  0  0  3  0  0  0  0  0  0
  185.1960  179.0280  145.3450 C   0  0  0  0  0  3  0  0  0  0  0  0
  186.9260  178.0600  146.7280 C   0  0  0  0  0  0  0  0  0  0  0  0
  186.8780  177.6000  144.3440 C   0  0  0  0  0  0  0  0  0  0  0  0
  187.4700  177.4350  145.6060 C   0  0  0  0  0  3  0  0  0  0  0  0
  187.6700  177.8450  148.2980 Cl  0  0  0  0  0  0  0  0  0  0  0  0
  185.7300  178.3990  144.2080 C   0  0  0  0  0  0  0  0  0  0  0  0
  185.1730  178.5560  142.9260 O   0  0  0  0  0  0  0  0  0  0  0  0
  180.4340  178.7690  144.1430 N   0  0  0  0  0  1  0  0  0  0  0  0
  182.7970  178.6670  143.5530 C   0  0  0  0  0  3  0  0  0  0  0  0
  181.7130  179.0720  139.5180 N   0  0  0  0  0  1  0  0  0  0  0  0
  182.1050  178.9360  140.8820 C   0  0  0  0  0  0  0  0  0  0  0  0
  183.8130  178.6880  142.5880 C   0  0  0  0  0  0  0  0  0  0  0  0
  183.4610  178.8180  141.2330 C   0  0  0  0  0  0  0  0  0  0  0  0
  181.1490  178.9180  141.8480 N   0  0  0  0  0  0  0  0  0  0  0  0
  181.4640  178.7870  143.1630 C   0  0  0  0  0  0  0  0  0  0  0  0
  185.3070  178.8410  139.4010 N   0  0  0  0  0  0  0  0  0  0  0  0
  184.4850  178.8290  140.2160 C   0  0  0  0  0  0  0  0  0  0  0  0
  187.4350  176.9700  143.1860 N   0  0  0  0  0  2  0  0  0  0  0  0
  188.8520  177.0380  142.8240 C   0  0  1  0  0  3  0  0  0  0  0  0
  189.5420  175.9620  143.3880 O   0  0  0  0  0  1  0  0  0  0  0  0
  188.9180  178.5300  139.3430 C   0  0  0  0  0  2  0  0  0  0  0  0
  188.4460  178.2660  140.7830 C   0  0  0  0  0  2  0  0  0  0  0  0
  190.7270  176.7910  139.5910 C   0  0  0  0  0  2  0  0  0  0  0  0
  190.4750  177.0040  141.0880 C   0  0  0  0  0  2  0  0  0  0  0  0
  190.0170  177.5790  137.4550 F   0  0  0  0  0  0  0  0  0  0  0  0
  189.0390  177.0490  141.3690 N   0  0  0  0  0  0  0  0  0  0  0  0
  189.5640  177.2920  138.7290 C   0  0  2  0  0  3  0  0  0  0  0  0
  1  3  1  0  0  0  0
  2  1  2  0  0  0  0
  3  6  1  0  0  0  0
  4  5  1  0  0  0  0
  5  3  2  0  0  0  0
  7  4  2  0  0  0  0
  7  2  1  0  0  0  0
  8  7  1  0  0  0  0
 11 12  1  0  0  0  0
 12 14  2  0  0  0  0
 12 15  1  0  0  0  0
 13  8  1  0  0  0  0
 13 10  2  0  0  0  0
 14 13  1  0  0  0  0
 15 16  2  0  0  0  0
 16 10  1  0  0  0  0
 16  9  1  0  0  0  0
 17 18  3  0  0  0  0
 18 14  1  0  0  0  0
 19  4  1  0  0  0  0
 20 19  1  0  0  0  0
 20 21  1  6  0  0  0
 22 23  1  0  0  0  0
 23 27  1  0  0  0  0
 24 25  1  0  0  0  0
 25 27  1  0  0  0  0
 27 20  1  0  0  0  0
 28 26  1  6  0  0  0
 28 22  1  0  0  0  0
 28 24  1  0  0  0  0
M  END
>  <MODEL>
1

>  <REMARK>
 VINA RESULT:      -8.4      0.000      0.000
  Name = 
  6 active torsions:
  status: ('A' for Active; 'I' for Inactive)
    1  A    between atoms: C_1  and  N_21
    2  A    between atoms: C_1  and  N_27
    3  A    between atoms: O_9  and  C_13
    4  A    between atoms: O_9  and  C_26
    5  A    between atoms: C_16  and  N_27
    6  A    between atoms: C_20  and  C_23
                            x       y       z     vdW  Elec       q    Type
                         _______ _______ _______ _____ _____    ______ ____

>  <TORSDO>
F 6

$$$$
=
 OpenBabel11062413313D

 28 30  0  0  1  0  0  0  0  0999 V2000
  183.8090  178.5500  144.9580 C   0  0  0  0  0  3  0  0  0  0  0  0
  185.1700  178.2470  145.0340 C   0  0  0  0  0  3  0  0  0  0  0  0
  183.2380  178.8880  143.7310 C   0  0  0  0  0  0  0  0  0  0  0  0
  185.3970  178.6190  142.6510 C   0  0  0  0  0  0  0  0  0  0  0  0
  184.0280  178.9210  142.5810 C   0  0  0  0  0  3  0  0  0  0  0  0
  181.5330  179.2680  143.6320 Cl  0  0  0  0  0  0  0  0  0  0  0  0
  185.9780  178.2820  143.8860 C   0  0  0  0  0  0  0  0  0  0  0  0
  187.3490  177.9690  143.9170 O   0  0  0  0  0  0  0  0  0  0  0  0
  187.9770  177.6350  148.7620 N   0  0  0  0  0  1  0  0  0  0  0  0
  187.6480  177.8000  146.3520 C   0  0  0  0  0  3  0  0  0  0  0  0
  191.6970  176.8270  145.8250 N   0  0  0  0  0  1  0  0  0  0  0  0
  190.3190  177.1570  145.9800 C   0  0  0  0  0  0  0  0  0  0  0  0
  188.1500  177.7170  145.0460 C   0  0  0  0  0  0  0  0  0  0  0  0
  189.5060  177.3980  144.8590 C   0  0  0  0  0  0  0  0  0  0  0  0
  189.7930  177.2410  147.2310 N   0  0  0  0  0  0  0  0  0  0  0  0
  188.4870  177.5540  147.4380 C   0  0  0  0  0  0  0  0  0  0  0  0
  190.4920  177.2520  142.4570 N   0  0  0  0  0  0  0  0  0  0  0  0
  190.0530  177.3180  143.5260 C   0  0  0  0  0  0  0  0  0  0  0  0
  186.2130  178.6420  141.4750 N   0  0  0  0  0  2  0  0  0  0  0  0
  185.6770  178.6530  140.1130 C   0  0  1  0  0  3  0  0  0  0  0  0
  184.8400  179.7570  139.9380 O   0  0  0  0  0  1  0  0  0  0  0  0
  189.0360  177.7620  138.6050 C   0  0  0  0  0  2  0  0  0  0  0  0
  187.9940  178.1190  139.6780 C   0  0  0  0  0  2  0  0  0  0  0  0
  187.3000  178.0260  136.7960 C   0  0  0  0  0  2  0  0  0  0  0  0
  186.3200  177.8660  137.9640 C   0  0  0  0  0  2  0  0  0  0  0  0
  189.6350  178.0320  136.3150 F   0  0  0  0  0  0  0  0  0  0  0  0
  186.7480  178.6700  139.1110 N   0  0  0  0  0  0  0  0  0  0  0  0
  188.7060  178.4110  137.2650 C   0  0  2  0  0  3  0  0  0  0  0  0
  1  2  1  0  0  0  0
  3  1  2  0  0  0  0
  4  7  1  0  0  0  0
  5  4  2  0  0  0  0
  5  3  1  0  0  0  0
  6  3  1  0  0  0  0
  7  8  1  0  0  0  0
  7  2  2  0  0  0  0
  8 13  1  0  0  0  0
 10 16  1  0  0  0  0
 11 12  1  0  0  0  0
 12 15  1  0  0  0  0
 13 10  2  0  0  0  0
 14 13  1  0  0  0  0
 14 12  2  0  0  0  0
 15 16  2  0  0  0  0
 16  9  1  0  0  0  0
 17 18  3  0  0  0  0
 18 14  1  0  0  0  0
 19  4  1  0  0  0  0
 20 21  1  1  0  0  0
 20 19  1  0  0  0  0
 22 23  1  0  0  0  0
 24 28  1  0  0  0  0
 24 25  1  0  0  0  0
 25 27  1  0  0  0  0
 27 23  1  0  0  0  0
 27 20  1  0  0  0  0
 28 26  1  6  0  0  0
 28 22  1  0  0  0  0
M  END
>  <MODEL>
2

>  <REMARK>
 VINA RESULT:      -8.4      2.809      5.863
  Name = 
  6 active torsions:
  status: ('A' for Active; 'I' for Inactive)
    1  A    between atoms: C_1  and  N_21
    2  A    between atoms: C_1  and  N_27
    3  A    between atoms: O_9  and  C_13
    4  A    between atoms: O_9  and  C_26
    5  A    between atoms: C_16  and  N_27
    6  A    between atoms: C_20  and  C_23
                            x       y       z     vdW  Elec       q    Type
                         _______ _______ _______ _____ _____    ______ ____

>  <TORSDO>
F 6

$$$$
=
 OpenBabel11062413313D

 28 30  0  0  1  0  0  0  0  0999 V2000
  185.9690  178.6340  146.8460 C   0  0  0  0  0  3  0  0  0  0  0  0
  185.2530  179.1990  145.7890 C   0  0  0  0  0  3  0  0  0  0  0  0
  186.9700  177.6970  146.5860 C   0  0  0  0  0  0  0  0  0  0  0  0
  186.5370  177.8920  144.2040 C   0  0  0  0  0  0  0  0  0  0  0  0
  187.2550  177.3290  145.2710 C   0  0  0  0  0  3  0  0  0  0  0  0
  187.8700  176.9870  147.9090 Cl  0  0  0  0  0  0  0  0  0  0  0  0
  185.5250  178.8320  144.4610 C   0  0  0  0  0  0  0  0  0  0  0  0
  184.8370  179.3890  143.3670 O   0  0  0  0  0  0  0  0  0  0  0  0
  180.0730  178.5750  144.1570 N   0  0  0  0  0  1  0  0  0  0  0  0
  182.4450  178.9880  143.7790 C   0  0  0  0  0  3  0  0  0  0  0  0
  181.8360  178.2090  139.6990 N   0  0  0  0  0  1  0  0  0  0  0  0
  182.0650  178.4800  141.0790 C   0  0  0  0  0  0  0  0  0  0  0  0
  183.5430  179.0730  142.9120 C   0  0  0  0  0  0  0  0  0  0  0  0
  183.3510  178.8090  141.5440 C   0  0  0  0  0  0  0  0  0  0  0  0
  181.0250  178.4130  141.9520 N   0  0  0  0  0  0  0  0  0  0  0  0
  181.1870  178.6580  143.2780 C   0  0  0  0  0  0  0  0  0  0  0  0
  185.3600  178.9290  139.8970 N   0  0  0  0  0  0  0  0  0  0  0  0
  184.4660  178.8770  140.6300 C   0  0  0  0  0  0  0  0  0  0  0  0
  186.8290  177.5260  142.8520 N   0  0  0  0  0  2  0  0  0  0  0  0
  188.1820  177.4770  142.2950 C   0  0  1  0  0  3  0  0  0  0  0  0
  188.4930  178.6960  141.6880 O   0  0  0  0  0  1  0  0  0  0  0  0
  191.2360  175.7860  143.7670 C   0  0  0  0  0  2  0  0  0  0  0  0
  189.9500  175.9620  142.9410 C   0  0  0  0  0  2  0  0  0  0  0  0
  190.9970  178.1240  144.6810 C   0  0  0  0  0  2  0  0  0  0  0  0
  190.0740  178.3080  143.4710 C   0  0  0  0  0  2  0  0  0  0  0  0
  192.4030  176.5000  145.7170 F   0  0  0  0  0  0  0  0  0  0  0  0
  189.1780  177.1590  143.3240 N   0  0  0  0  0  0  0  0  0  0  0  0
  191.2160  176.6480  145.0250 C   0  0  2  0  0  3  0  0  0  0  0  0
  2  1  2  0  0  0  0
  3  1  1  0  0  0  0
  3  6  1  0  0  0  0
  4  7  2  0  0  0  0
  4  5  1  0  0  0  0
  5  3  2  0  0  0  0
  7  2  1  0  0  0  0
  8  7  1  0  0  0  0
 11 12  1  0  0  0  0
 12 14  2  0  0  0  0
 12 15  1  0  0  0  0
 13  8  1  0  0  0  0
 13 10  2  0  0  0  0
 14 13  1  0  0  0  0
 15 16  2  0  0  0  0
 16 10  1  0  0  0  0
 16  9  1  0  0  0  0
 17 18  3  0  0  0  0
 18 14  1  0  0  0  0
 19  4  1  0  0  0  0
 20 21  1  1  0  0  0
 20 19  1  0  0  0  0
 20 27  1  0  0  0  0
 22 28  1  0  0  0  0
 23 27  1  0  0  0  0
 23 22  1  0  0  0  0
 24 28  1  0  0  0  0
 25 24  1  0  0  0  0
 27 25  1  0  0  0  0
 28 26  1  6  0  0  0
M  END
>  <MODEL>
3

>  <REMARK>
 VINA RESULT:      -8.3      2.263      2.808
  Name = 
  6 active torsions:
  status: ('A' for Active; 'I' for Inactive)
    1  A    between atoms: C_1  and  N_21
    2  A    between atoms: C_1  and  N_27
    3  A    between atoms: O_9  and  C_13
    4  A    between atoms: O_9  and  C_26
    5  A    between atoms: C_16  and  N_27
    6  A    between atoms: C_20  and  C_23
                            x       y       z     vdW  Elec       q    Type
                         _______ _______ _______ _____ _____    ______ ____

>  <TORSDO>
F 6

$$$$
=
 OpenBabel11062413313D

 28 30  0  0  1  0  0  0  0  0999 V2000
  188.2050  176.9140  137.6600 C   0  0  0  0  0  3  0  0  0  0  0  0
  187.5690  177.8060  138.5260 C   0  0  0  0  0  3  0  0  0  0  0  0
  189.4120  176.3220  138.0340 C   0  0  0  0  0  0  0  0  0  0  0  0
  189.3460  177.5200  140.1470 C   0  0  0  0  0  0  0  0  0  0  0  0
  189.9800  176.6230  139.2730 C   0  0  0  0  0  3  0  0  0  0  0  0
  190.2130  175.2040  136.9520 Cl  0  0  0  0  0  0  0  0  0  0  0  0
  188.1330  178.1210  139.7730 C   0  0  0  0  0  0  0  0  0  0  0  0
  187.5160  179.0030  140.6800 O   0  0  0  0  0  0  0  0  0  0  0  0
  186.3910  177.3680  145.1570 N   0  0  0  0  0  1  0  0  0  0  0  0
  186.9670  178.1840  142.9330 C   0  0  0  0  0  3  0  0  0  0  0  0
  182.8740  178.7170  142.1690 N   0  0  0  0  0  1  0  0  0  0  0  0
  184.2690  178.5460  142.4080 C   0  0  0  0  0  0  0  0  0  0  0  0
  186.5810  178.6900  141.6840 C   0  0  0  0  0  0  0  0  0  0  0  0
  185.2130  178.8670  141.4160 C   0  0  0  0  0  0  0  0  0  0  0  0
  184.6830  178.0630  143.6090 N   0  0  0  0  0  0  0  0  0  0  0  0
  185.9990  177.8780  143.8890 C   0  0  0  0  0  0  0  0  0  0  0  0
  184.4420  179.7820  139.1070 N   0  0  0  0  0  0  0  0  0  0  0  0
  184.7860  179.3750  140.1340 C   0  0  0  0  0  0  0  0  0  0  0  0
  189.9180  177.8260  141.4230 N   0  0  0  0  0  2  0  0  0  0  0  0
  190.8540  176.9490  142.1270 C   0  0  1  0  0  3  0  0  0  0  0  0
  192.1650  177.3860  141.9230 O   0  0  0  0  0  1  0  0  0  0  0  0
  191.6170  176.4880  145.8090 C   0  0  0  0  0  2  0  0  0  0  0  0
  191.6800  176.2560  144.2900 C   0  0  0  0  0  2  0  0  0  0  0  0
  189.8300  178.2380  145.4910 C   0  0  0  0  0  2  0  0  0  0  0  0
  190.3540  178.2520  144.0510 C   0  0  0  0  0  2  0  0  0  0  0  0
  190.2300  177.2110  147.6060 F   0  0  0  0  0  0  0  0  0  0  0  0
  190.5620  176.8870  143.5630 N   0  0  0  0  0  0  0  0  0  0  0  0
  190.2370  176.9690  146.2450 C   0  0  2  0  0  3  0  0  0  0  0  0
  1  3  2  0  0  0  0
  1  2  1  0  0  0  0
  2  7  2  0  0  0  0
  3  5  1  0  0  0  0
  4 19  1  0  0  0  0
  5  4  2  0  0  0  0
  6  3  1  0  0  0  0
  7  4  1  0  0  0  0
  7  8  1  0  0  0  0
  8 13  1  0  0  0  0
 10 16  1  0  0  0  0
 11 12  1  0  0  0  0
 12 15  1  0  0  0  0
 13 10  2  0  0  0  0
 14 13  1  0  0  0  0
 14 12  2  0  0  0  0
 15 16  2  0  0  0  0
 16  9  1  0  0  0  0
 17 18  3  0  0  0  0
 18 14  1  0  0  0  0
 19 20  1  0  0  0  0
 20 21  1  1  0  0  0
 20 27  1  0  0  0  0
 22 28  1  0  0  0  0
 23 22  1  0  0  0  0
 24 28  1  0  0  0  0
 25 24  1  0  0  0  0
 27 25  1  0  0  0  0
 27 23  1  0  0  0  0
 28 26  1  1  0  0  0
M  END
>  <MODEL>
4

>  <REMARK>
 VINA RESULT:      -8.3      3.606      5.739
  Name = 
  6 active torsions:
  status: ('A' for Active; 'I' for Inactive)
    1  A    between atoms: C_1  and  N_21
    2  A    between atoms: C_1  and  N_27
    3  A    between atoms: O_9  and  C_13
    4  A    between atoms: O_9  and  C_26
    5  A    between atoms: C_16  and  N_27
    6  A    between atoms: C_20  and  C_23
                            x       y       z     vdW  Elec       q    Type
                         _______ _______ _______ _____ _____    ______ ____

>  <TORSDO>
F 6

$$$$
=
 OpenBabel11062413313D

 28 30  0  0  1  0  0  0  0  0999 V2000
  184.0230  179.0720  140.8610 C   0  0  0  0  0  3  0  0  0  0  0  0
  185.2660  179.0470  140.2250 C   0  0  0  0  0  3  0  0  0  0  0  0
  183.9190  178.6920  142.2000 C   0  0  0  0  0  0  0  0  0  0  0  0
  186.3080  178.2590  142.2650 C   0  0  0  0  0  0  0  0  0  0  0  0
  185.0560  178.2880  142.9000 C   0  0  0  0  0  3  0  0  0  0  0  0
  182.3630  178.7230  143.0000 Cl  0  0  0  0  0  0  0  0  0  0  0  0
  186.4180  178.6360  140.9170 C   0  0  0  0  0  0  0  0  0  0  0  0
  187.6900  178.6110  140.3170 O   0  0  0  0  0  0  0  0  0  0  0  0
  187.0880  176.5020  135.9380 N   0  0  0  0  0  1  0  0  0  0  0  0
  187.3760  177.5630  138.1140 C   0  0  0  0  0  3  0  0  0  0  0  0
  191.0640  175.5930  138.4840 N   0  0  0  0  0  1  0  0  0  0  0  0
  189.8170  176.2740  138.3790 C   0  0  0  0  0  0  0  0  0  0  0  0
  188.1340  177.7780  139.2730 C   0  0  0  0  0  0  0  0  0  0  0  0
  189.3690  177.1190  139.4090 C   0  0  0  0  0  0  0  0  0  0  0  0
  189.0540  176.0960  137.2670 N   0  0  0  0  0  0  0  0  0  0  0  0
  187.8560  176.7170  137.1150 C   0  0  0  0  0  0  0  0  0  0  0  0
  190.8020  177.4650  141.5520 N   0  0  0  0  0  0  0  0  0  0  0  0
  190.1650  177.3120  140.5980 C   0  0  0  0  0  0  0  0  0  0  0  0
  187.4810  177.8550  142.9790 N   0  0  0  0  0  2  0  0  0  0  0  0
  187.5880  176.5990  143.7230 C   0  0  1  0  0  3  0  0  0  0  0  0
  188.4040  175.7010  143.0320 O   0  0  0  0  0  1  0  0  0  0  0  0
  190.0120  177.8600  146.3480 C   0  0  0  0  0  2  0  0  0  0  0  0
  189.5170  177.2640  145.0200 C   0  0  0  0  0  2  0  0  0  0  0  0
  187.6470  177.9410  147.2200 C   0  0  0  0  0  2  0  0  0  0  0  0
  187.2880  177.8310  145.7340 C   0  0  0  0  0  2  0  0  0  0  0  0
  189.5340  178.0870  148.6710 F   0  0  0  0  0  0  0  0  0  0  0  0
  188.1120  176.8160  145.0770 N   0  0  0  0  0  0  0  0  0  0  0  0
  189.0850  177.4980  147.5040 C   0  0  2  0  0  3  0  0  0  0  0  0
  1  3  1  0  0  0  0
  2  1  2  0  0  0  0
  2  7  1  0  0  0  0
  3  5  2  0  0  0  0
  3  6  1  0  0  0  0
  4  5  1  0  0  0  0
  4 19  1  0  0  0  0
  7  4  2  0  0  0  0
  8  7  1  0  0  0  0
  9 16  1  0  0  0  0
 10 13  1  0  0  0  0
 12 11  1  0  0  0  0
 12 14  1  0  0  0  0
 13 14  2  0  0  0  0
 13  8  1  0  0  0  0
 14 18  1  0  0  0  0
 15 12  2  0  0  0  0
 16 15  1  0  0  0  0
 16 10  2  0  0  0  0
 18 17  3  0  0  0  0
 19 20  1  0  0  0  0
 20 21  1  6  0  0  0
 20 27  1  0  0  0  0
 22 28  1  0  0  0  0
 23 27  1  0  0  0  0
 23 22  1  0  0  0  0
 24 28  1  0  0  0  0
 25 24  1  0  0  0  0
 27 25  1  0  0  0  0
 28 26  1  1  0  0  0
M  END
>  <MODEL>
5

>  <REMARK>
 VINA RESULT:      -8.3      3.783      6.671
  Name = 
  6 active torsions:
  status: ('A' for Active; 'I' for Inactive)
    1  A    between atoms: C_1  and  N_21
    2  A    between atoms: C_1  and  N_27
    3  A    between atoms: O_9  and  C_13
    4  A    between atoms: O_9  and  C_26
    5  A    between atoms: C_16  and  N_27
    6  A    between atoms: C_20  and  C_23
                            x       y       z     vdW  Elec       q    Type
                         _______ _______ _______ _____ _____    ______ ____

>  <TORSDO>
F 6

$$$$
=
 OpenBabel11062413313D

 28 30  0  0  1  0  0  0  0  0999 V2000
  188.6990  177.5280  138.7640 C   0  0  0  0  0  3  0  0  0  0  0  0
  187.6800  178.2060  139.4370 C   0  0  0  0  0  3  0  0  0  0  0  0
  189.7750  177.0010  139.4790 C   0  0  0  0  0  0  0  0  0  0  0  0
  188.8100  177.8320  141.5470 C   0  0  0  0  0  0  0  0  0  0  0  0
  189.8310  177.1510  140.8650 C   0  0  0  0  0  3  0  0  0  0  0  0
  191.0540  176.1520  138.6390 Cl  0  0  0  0  0  0  0  0  0  0  0  0
  187.7270  178.3690  140.8310 C   0  0  0  0  0  0  0  0  0  0  0  0
  186.7140  179.0310  141.5480 O   0  0  0  0  0  0  0  0  0  0  0  0
  182.7960  178.9400  138.6120 N   0  0  0  0  0  1  0  0  0  0  0  0
  184.7550  178.9810  140.0610 C   0  0  0  0  0  3  0  0  0  0  0  0
  182.1950  178.7460  143.3780 N   0  0  0  0  0  1  0  0  0  0  0  0
  183.0830  178.8240  142.2670 C   0  0  0  0  0  0  0  0  0  0  0  0
  185.3230  178.9580  141.3420 C   0  0  0  0  0  0  0  0  0  0  0  0
  184.4740  178.8840  142.4600 C   0  0  0  0  0  0  0  0  0  0  0  0
  182.5710  178.8430  141.0070 N   0  0  0  0  0  0  0  0  0  0  0  0
  183.3710  178.9200  139.9120 C   0  0  0  0  0  0  0  0  0  0  0  0
  185.4760  178.8590  144.8600 N   0  0  0  0  0  0  0  0  0  0  0  0
  185.0310  178.8710  143.7920 C   0  0  0  0  0  0  0  0  0  0  0  0
  188.8550  177.9830  142.9700 N   0  0  0  0  0  2  0  0  0  0  0  0
  188.3010  177.0060  143.9090 C   0  0  1  0  0  3  0  0  0  0  0  0
  188.0010  175.8160  143.2410 O   0  0  0  0  0  1  0  0  0  0  0  0
  191.6130  177.0050  145.7480 C   0  0  0  0  0  2  0  0  0  0  0  0
  190.6210  176.9010  144.5770 C   0  0  0  0  0  2  0  0  0  0  0  0
  189.7060  177.3110  147.3680 C   0  0  0  0  0  2  0  0  0  0  0  0
  188.9270  177.6810  146.1000 C   0  0  0  0  0  2  0  0  0  0  0  0
  191.8890  176.6840  148.0920 F   0  0  0  0  0  0  0  0  0  0  0  0
  189.2230  176.7400  145.0190 N   0  0  0  0  0  0  0  0  0  0  0  0
  190.9870  176.5330  147.0560 C   0  0  2  0  0  3  0  0  0  0  0  0
  1  2  2  0  0  0  0
  1  3  1  0  0  0  0
  2  7  1  0  0  0  0
  3  5  2  0  0  0  0
  4 19  1  0  0  0  0
  5  4  1  0  0  0  0
  6  3  1  0  0  0  0
  7  4  2  0  0  0  0
  7  8  1  0  0  0  0
  9 16  1  0  0  0  0
 10 13  1  0  0  0  0
 12 14  1  0  0  0  0
 12 11  1  0  0  0  0
 13  8  1  0  0  0  0
 13 14  2  0  0  0  0
 14 18  1  0  0  0  0
 15 12  2  0  0  0  0
 16 10  2  0  0  0  0
 16 15  1  0  0  0  0
 18 17  3  0  0  0  0
 19 20  1  0  0  0  0
 20 21  1  6  0  0  0
 20 27  1  0  0  0  0
 22 28  1  0  0  0  0
 23 27  1  0  0  0  0
 23 22  1  0  0  0  0
 25 24  1  0  0  0  0
 27 25  1  0  0  0  0
 28 24  1  0  0  0  0
 28 26  1  1  0  0  0
M  END
>  <MODEL>
6

>  <REMARK>
 VINA RESULT:      -8.2      3.382      5.511
  Name = 
  6 active torsions:
  status: ('A' for Active; 'I' for Inactive)
    1  A    between atoms: C_1  and  N_21
    2  A    between atoms: C_1  and  N_27
    3  A    between atoms: O_9  and  C_13
    4  A    between atoms: O_9  and  C_26
    5  A    between atoms: C_16  and  N_27
    6  A    between atoms: C_20  and  C_23
                            x       y       z     vdW  Elec       q    Type
                         _______ _______ _______ _____ _____    ______ ____

>  <TORSDO>
F 6

$$$$
=
 OpenBabel11062413313D

 28 30  0  0  1  0  0  0  0  0999 V2000
  190.4440  177.5140  141.2090 C   0  0  0  0  0  3  0  0  0  0  0  0
  189.9690  177.5270  142.5210 C   0  0  0  0  0  3  0  0  0  0  0  0
  189.5570  177.6870  140.1450 C   0  0  0  0  0  0  0  0  0  0  0  0
  187.7130  177.8850  141.7140 C   0  0  0  0  0  0  0  0  0  0  0  0
  188.1970  177.8730  140.3970 C   0  0  0  0  0  3  0  0  0  0  0  0
  190.1490  177.6710  138.4990 Cl  0  0  0  0  0  0  0  0  0  0  0  0
  188.6020  177.7070  142.7880 C   0  0  0  0  0  0  0  0  0  0  0  0
  188.0850  177.7420  144.0960 O   0  0  0  0  0  0  0  0  0  0  0  0
  192.0560  176.3320  146.5920 N   0  0  0  0  0  1  0  0  0  0  0  0
  190.0890  177.0350  145.3360 C   0  0  0  0  0  3  0  0  0  0  0  0
  188.1840  177.8930  148.9760 N   0  0  0  0  0  1  0  0  0  0  0  0
  188.8120  177.6110  147.7290 C   0  0  0  0  0  0  0  0  0  0  0  0
  188.7810  177.5380  145.3020 C   0  0  0  0  0  0  0  0  0  0  0  0
  188.1320  177.8230  146.5160 C   0  0  0  0  0  0  0  0  0  0  0  0
  190.0820  177.1280  147.7180 N   0  0  0  0  0  0  0  0  0  0  0  0
  190.7280  176.8380  146.5590 C   0  0  0  0  0  0  0  0  0  0  0  0
  185.6970  178.7380  146.5080 N   0  0  0  0  0  0  0  0  0  0  0  0
  186.7800  178.3300  146.5130 C   0  0  0  0  0  0  0  0  0  0  0  0
  186.3210  178.0850  141.9810 N   0  0  0  0  0  2  0  0  0  0  0  0
  185.5900  179.3010  141.6220 C   0  0  1  0  0  3  0  0  0  0  0  0
  185.4400  179.3780  140.2350 O   0  0  0  0  0  1  0  0  0  0  0  0
  181.8840  178.6280  142.0270 C   0  0  0  0  0  2  0  0  0  0  0  0
  183.2170  178.9520  141.3310 C   0  0  0  0  0  2  0  0  0  0  0  0
  183.0310  178.6280  144.2730 C   0  0  0  0  0  2  0  0  0  0  0  0
  184.2950  178.4500  143.4250 C   0  0  0  0  0  2  0  0  0  0  0  0
  180.6630  178.8150  144.0640 F   0  0  0  0  0  0  0  0  0  0  0  0
  184.2770  179.3550  142.2740 N   0  0  0  0  0  0  0  0  0  0  0  0
  181.8530  179.1640  143.4540 C   0  0  2  0  0  3  0  0  0  0  0  0
  1  2  1  0  0  0  0
  2  7  2  0  0  0  0
  3  5  1  0  0  0  0
  3  1  2  0  0  0  0
  4 19  1  0  0  0  0
  4  7  1  0  0  0  0
  5  4  2  0  0  0  0
  6  3  1  0  0  0  0
  7  8  1  0  0  0  0
  8 13  1  0  0  0  0
 10 16  1  0  0  0  0
 12 11  1  0  0  0  0
 13 10  2  0  0  0  0
 13 14  1  0  0  0  0
 14 12  2  0  0  0  0
 15 12  1  0  0  0  0
 16  9  1  0  0  0  0
 16 15  2  0  0  0  0
 17 18  3  0  0  0  0
 18 14  1  0  0  0  0
 20 21  1  6  0  0  0
 20 19  1  0  0  0  0
 20 27  1  0  0  0  0
 22 28  1  0  0  0  0
 23 22  1  0  0  0  0
 23 27  1  0  0  0  0
 25 24  1  0  0  0  0
 27 25  1  0  0  0  0
 28 26  1  1  0  0  0
 28 24  1  0  0  0  0
M  END
>  <MODEL>
7

>  <REMARK>
 VINA RESULT:      -8.2      3.851      7.670
  Name = 
  6 active torsions:
  status: ('A' for Active; 'I' for Inactive)
    1  A    between atoms: C_1  and  N_21
    2  A    between atoms: C_1  and  N_27
    3  A    between atoms: O_9  and  C_13
    4  A    between atoms: O_9  and  C_26
    5  A    between atoms: C_16  and  N_27
    6  A    between atoms: C_20  and  C_23
                            x       y       z     vdW  Elec       q    Type
                         _______ _______ _______ _____ _____    ______ ____

>  <TORSDO>
F 6

$$$$
=
 OpenBabel11062413313D

 28 30  0  0  1  0  0  0  0  0999 V2000
  189.0880  177.3190  140.9570 C   0  0  0  0  0  3  0  0  0  0  0  0
  188.7810  177.1220  142.3050 C   0  0  0  0  0  3  0  0  0  0  0  0
  188.2330  178.0720  140.1510 C   0  0  0  0  0  0  0  0  0  0  0  0
  186.7590  178.4320  142.0480 C   0  0  0  0  0  0  0  0  0  0  0  0
  187.0740  178.6280  140.6940 C   0  0  0  0  0  3  0  0  0  0  0  0
  188.6150  178.3200  138.4610 Cl  0  0  0  0  0  0  0  0  0  0  0  0
  187.6140  177.6710  142.8620 C   0  0  0  0  0  0  0  0  0  0  0  0
  187.2770  177.5100  144.2180 O   0  0  0  0  0  0  0  0  0  0  0  0
  191.6650  176.7440  146.2540 N   0  0  0  0  0  1  0  0  0  0  0  0
  189.4880  177.1260  145.2260 C   0  0  0  0  0  3  0  0  0  0  0  0
  188.0070  178.2390  148.9920 N   0  0  0  0  0  1  0  0  0  0  0  0
  188.4890  177.8670  147.7040 C   0  0  0  0  0  0  0  0  0  0  0  0
  188.1430  177.5080  145.3280 C   0  0  0  0  0  0  0  0  0  0  0  0
  187.6360  177.8780  146.5860 C   0  0  0  0  0  0  0  0  0  0  0  0
  189.7890  177.4960  147.5620 N   0  0  0  0  0  0  0  0  0  0  0  0
  190.3000  177.1280  146.3590 C   0  0  0  0  0  0  0  0  0  0  0  0
  185.1420  178.5750  146.8340 N   0  0  0  0  0  0  0  0  0  0  0  0
  186.2520  178.2640  146.7230 C   0  0  0  0  0  0  0  0  0  0  0  0
  185.5770  179.0070  142.6150 N   0  0  0  0  0  2  0  0  0  0  0  0
  184.2980  178.3030  142.7140 C   0  0  1  0  0  3  0  0  0  0  0  0
  183.6690  178.6200  143.9210 O   0  0  0  0  0  1  0  0  0  0  0  0
  182.2710  177.6240  139.5860 C   0  0  0  0  0  2  0  0  0  0  0  0
  183.4300  177.5350  140.5930 C   0  0  0  0  0  2  0  0  0  0  0  0
  181.1350  179.3660  141.0110 C   0  0  0  0  0  2  0  0  0  0  0  0
  182.0580  178.8130  142.1040 C   0  0  0  0  0  2  0  0  0  0  0  0
  180.5530  179.0300  138.7240 F   0  0  0  0  0  0  0  0  0  0  0  0
  183.4150  178.6250  141.5870 N   0  0  0  0  0  0  0  0  0  0  0  0
  181.6170  179.0010  139.6050 C   0  0  2  0  0  3  0  0  0  0  0  0
  1  2  1  0  0  0  0
  2  7  2  0  0  0  0
  3  5  1  0  0  0  0
  3  1  2  0  0  0  0
  4 19  1  0  0  0  0
  4  7  1  0  0  0  0
  5  4  2  0  0  0  0
  6  3  1  0  0  0  0
  7  8  1  0  0  0  0
  8 13  1  0  0  0  0
  9 16  1  0  0  0  0
 10 13  2  0  0  0  0
 10 16  1  0  0  0  0
 12 11  1  0  0  0  0
 13 14  1  0  0  0  0
 14 18  1  0  0  0  0
 14 12  2  0  0  0  0
 15 12  1  0  0  0  0
 16 15  2  0  0  0  0
 18 17  3  0  0  0  0
 19 20  1  0  0  0  0
 20 21  1  1  0  0  0
 22 28  1  0  0  0  0
 22 23  1  0  0  0  0
 23 27  1  0  0  0  0
 24 25  1  0  0  0  0
 27 25  1  0  0  0  0
 27 20  1  0  0  0  0
 28 26  1  6  0  0  0
 28 24  1  0  0  0  0
M  END
>  <MODEL>
8

>  <REMARK>
 VINA RESULT:      -8.1      3.600      7.442
  Name = 
  6 active torsions:
  status: ('A' for Active; 'I' for Inactive)
    1  A    between atoms: C_1  and  N_21
    2  A    between atoms: C_1  and  N_27
    3  A    between atoms: O_9  and  C_13
    4  A    between atoms: O_9  and  C_26
    5  A    between atoms: C_16  and  N_27
    6  A    between atoms: C_20  and  C_23
                            x       y       z     vdW  Elec       q    Type
                         _______ _______ _______ _____ _____    ______ ____

>  <TORSDO>
F 6

$$$$
=
 OpenBabel11062413313D

 28 30  0  0  1  0  0  0  0  0999 V2000
  184.9500  178.2560  143.6690 C   0  0  0  0  0  3  0  0  0  0  0  0
  186.2160  177.9380  144.1650 C   0  0  0  0  0  3  0  0  0  0  0  0
  184.7890  178.5630  142.3170 C   0  0  0  0  0  0  0  0  0  0  0  0
  187.1680  178.2320  141.9570 C   0  0  0  0  0  0  0  0  0  0  0  0
  185.8930  178.5500  141.4640 C   0  0  0  0  0  3  0  0  0  0  0  0
  183.2040  178.9620  141.6920 Cl  0  0  0  0  0  0  0  0  0  0  0  0
  187.3370  177.9270  143.3180 C   0  0  0  0  0  0  0  0  0  0  0  0
  188.6250  177.5970  143.7740 O   0  0  0  0  0  0  0  0  0  0  0  0
  187.9630  178.1230  148.5980 N   0  0  0  0  0  1  0  0  0  0  0  0
  188.2760  177.8630  146.1950 C   0  0  0  0  0  3  0  0  0  0  0  0
  192.0430  176.1770  146.9610 N   0  0  0  0  0  1  0  0  0  0  0  0
  190.7670  176.7440  146.6770 C   0  0  0  0  0  0  0  0  0  0  0  0
  189.0560  177.4480  145.1060 C   0  0  0  0  0  0  0  0  0  0  0  0
  190.3210  176.8870  145.3520 C   0  0  0  0  0  0  0  0  0  0  0  0
  189.9790  177.1540  147.7060 N   0  0  0  0  0  0  0  0  0  0  0  0
  188.7550  177.7050  147.4940 C   0  0  0  0  0  0  0  0  0  0  0  0
  191.8140  176.1220  143.3640 N   0  0  0  0  0  0  0  0  0  0  0  0
  191.1510  176.4620  144.2490 C   0  0  0  0  0  0  0  0  0  0  0  0
  188.3040  178.2080  141.0860 N   0  0  0  0  0  2  0  0  0  0  0  0
  188.2360  177.8470  139.6690 C   0  0  1  0  0  3  0  0  0  0  0  0
  188.1260  179.0000  138.8870 O   0  0  0  0  0  1  0  0  0  0  0  0
  190.8940  176.5770  137.2870 C   0  0  0  0  0  2  0  0  0  0  0  0
  189.5160  177.0480  137.7810 C   0  0  0  0  0  2  0  0  0  0  0  0
  191.8270  176.7830  139.6210 C   0  0  0  0  0  2  0  0  0  0  0  0
  190.6010  177.6770  139.8370 C   0  0  0  0  0  2  0  0  0  0  0  0
  192.9250  175.5110  137.9300 F   0  0  0  0  0  0  0  0  0  0  0  0
  189.4060  177.0660  139.2520 N   0  0  0  0  0  0  0  0  0  0  0  0
  191.6770  175.8780  138.3950 C   0  0  2  0  0  3  0  0  0  0  0  0
  1  2  1  0  0  0  0
  3  1  2  0  0  0  0
  4  7  1  0  0  0  0
  5  4  2  0  0  0  0
  5  3  1  0  0  0  0
  6  3  1  0  0  0  0
  7  8  1  0  0  0  0
  7  2  2  0  0  0  0
  8 13  1  0  0  0  0
 10 16  1  0  0  0  0
 12 11  1  0  0  0  0
 12 15  1  0  0  0  0
 13 14  1  0  0  0  0
 13 10  2  0  0  0  0
 14 12  2  0  0  0  0
 16 15  2  0  0  0  0
 16  9  1  0  0  0  0
 17 18  3  0  0  0  0
 18 14  1  0  0  0  0
 19  4  1  0  0  0  0
 20 21  1  6  0  0  0
 20 19  1  0  0  0  0
 22 23  1  0  0  0  0
 22 28  1  0  0  0  0
 23 27  1  0  0  0  0
 24 25  1  0  0  0  0
 27 20  1  0  0  0  0
 27 25  1  0  0  0  0
 28 26  1  6  0  0  0
 28 24  1  0  0  0  0
M  END
>  <MODEL>
9

>  <REMARK>
 VINA RESULT:      -7.9      3.508      6.178
  Name = 
  6 active torsions:
  status: ('A' for Active; 'I' for Inactive)
    1  A    between atoms: C_1  and  N_21
    2  A    between atoms: C_1  and  N_27
    3  A    between atoms: O_9  and  C_13
    4  A    between atoms: O_9  and  C_26
    5  A    between atoms: C_16  and  N_27
    6  A    between atoms: C_20  and  C_23
                            x       y       z     vdW  Elec       q    Type
                         _______ _______ _______ _____ _____    ______ ____

>  <TORSDO>
F 6

$$$$
