=
 OpenBabel11062415063D

 66 74  0  0  1  0  0  0  0  0999 V2000
  189.7690  178.8520  139.4410 C   0  0  0  0  0  2  0  0  0  0  0  0
  188.8320  177.9480  138.6480 C   0  0  0  0  0  2  0  0  0  0  0  0
  191.4900  176.9740  139.5250 C   0  0  0  0  0  2  0  0  0  0  0  0
  189.5830  176.8910  137.8380 C   0  0  1  0  0  3  0  0  0  0  0  0
  190.5450  176.0760  138.7280 C   0  0  1  0  0  3  0  0  0  0  0  0
  190.7380  178.0500  140.3090 C   0  0  2  0  0  3  0  0  0  0  0  0
  190.2020  177.6280  141.6890 C   0  0  1  0  0  3  0  0  0  0  0  0
  191.3410  179.5200  144.4070 C   0  0  0  0  0  2  0  0  0  0  0  0
  189.2760  175.4800  141.1670 O   0  0  0  0  0  1  0  0  0  0  0  0
  187.9310  176.7980  142.6340 C   0  0  0  0  0  2  0  0  0  0  0  0
  190.0300  178.7870  142.7010 C   0  0  1  0  0  3  0  0  0  0  0  0
  189.3620  178.3600  144.0080 C   0  0  2  0  0  3  0  0  0  0  0  0
  190.4440  178.4920  145.0520 C   0  0  1  0  0  3  0  0  0  0  0  0
  191.2850  179.3530  143.0120 O   0  0  0  0  0  0  0  0  0  0  0  0
  188.6460  176.9980  143.9640 C   0  0  1  0  0  3  0  0  0  0  0  0
  188.9240  176.7960  141.4700 C   0  0  1  0  0  3  0  0  0  0  0  0
  191.1990  177.2110  145.3330 C   0  0  0  0  0  0  0  0  0  0  0  0
  191.1300  176.7120  146.5780 C   0  0  0  0  0  3  0  0  0  0  0  0
  191.7540  175.4130  146.9880 C   0  0  0  0  0  2  0  0  0  0  0  0
  192.8700  175.2110  149.1440 N   0  0  0  0  0  2  0  0  0  0  0  0
  193.0350  175.6710  147.7570 C   0  0  2  0  0  3  0  0  0  0  0  0
  192.7690  176.6400  148.8150 C   0  0  0  0  0  2  0  0  0  0  0  0
  191.8600  176.4460  144.2170 C   0  0  0  0  0  2  0  0  0  0  0  0
  192.1070  174.3190  144.1110 O   0  0  0  0  0  1  0  0  0  0  0  0
  191.1810  175.2460  143.9960 O   0  0  0  0  0  0  0  0  0  0  0  0
  187.8190  176.7650  145.0850 O   0  0  0  0  0  0  0  0  0  0  0  0
  187.4050  177.9950  145.6290 C   0  0  0  0  0  2  0  0  0  0  0  0
  185.1130  178.5890  146.2670 C   0  0  0  0  0  3  0  0  0  0  0  0
  185.9710  178.2340  145.3020 C   0  0  0  0  0  0  0  0  0  0  0  0
  185.4780  177.9920  143.9010 C   0  0  0  0  0  2  0  0  0  0  0  0
  183.2880  178.9350  144.6840 C   0  0  0  0  0  3  0  0  0  0  0  0
  184.2820  178.8940  143.5540 C   0  0  1  0  0  3  0  0  0  0  0  0
  184.7310  180.1800  143.2930 F   0  0  0  0  0  0  0  0  0  0  0  0
  183.6930  178.8350  145.9530 C   0  0  0  0  0  3  0  0  0  0  0  0
  188.7840  175.3210  136.0490 N   0  0  0  0  0  0  0  0  0  0  0  0
  188.5590  176.0080  137.1910 C   0  0  0  0  0  0  0  0  0  0  0  0
  186.8260  174.8410  136.9160 C   0  0  0  0  0  0  0  0  0  0  0  0
  187.6800  174.5730  135.8720 C   0  0  0  0  0  2  0  0  0  0  0  0
  187.3740  175.7250  137.7660 N   0  0  0  0  0  0  0  0  0  0  0  0
  185.5580  174.1010  137.1900 C   0  0  0  0  0  2  0  0  0  0  0  0
  184.1730  176.0380  137.5580 N   0  0  0  0  0  0  0  0  0  0  0  0
  184.3780  174.9560  136.8670 C   0  0  0  0  0  0  0  0  0  0  0  0
  182.4420  173.7940  135.9720 N   0  0  0  0  0  0  0  0  0  0  0  0
  183.4960  174.5160  135.7740 C   0  0  0  0  0  3  0  0  0  0  0  0
  181.6230  173.3580  134.8510 C   0  0  0  0  0  2  0  0  0  0  0  0
  180.8850  171.0840  134.6030 O   0  0  0  0  0  1  0  0  0  0  0  0
  180.6430  172.2770  135.2910 C   0  0  1  0  0  3  0  0  0  0  0  0
  180.6950  172.0570  136.8040 C   0  0  0  0  0  2  0  0  0  0  0  0
  179.3640  172.3510  137.5020 C   0  0  0  0  0  2  0  0  0  0  0  0
  179.2410  173.8260  137.8640 C   0  0  0  0  0  2  0  0  0  0  0  0
  180.3660  174.2360  138.5820 O   0  0  0  0  0  1  0  0  0  0  0  0
  183.1560  176.9300  137.3080 O   0  0  0  0  0  0  0  0  0  0  0  0
  180.6080  178.8850  139.2370 C   0  0  1  0  0  0  0  0  0  0  0  0
  179.6260  177.7860  138.7470 C   0  0  0  0  0  2  0  0  0  0  0  0
  182.8490  177.9360  138.2610 C   0  0  2  0  0  3  0  0  0  0  0  0
  179.4120  178.3540  140.0610 C   0  0  1  0  0  3  0  0  0  0  0  0
  181.5650  178.3330  140.2690 C   0  0  1  0  0  3  0  0  0  0  0  0
  180.3990  177.7370  141.0440 C   0  0  1  0  0  3  0  0  0  0  0  0
  182.4280  177.2980  139.5720 C   0  0  0  0  0  2  0  0  0  0  0  0
  181.4780  178.9860  137.6480 S   0  0  0  0  0  0  0  0  0  0  0  0
  180.6310  179.5640  142.5880 O   0  0  0  0  0  0  0  0  0  0  0  0
  179.7860  177.6200  143.4570 O   0  0  0  0  0  1  0  0  0  0  0  0
  180.2770  178.3690  142.3960 C   0  0  0  0  0  0  0  0  0  0  0  0
  192.4210  175.5040  137.3750 O   0  0  0  0  0  0  0  0  0  0  0  0
  191.3570  175.1140  137.9200 C   0  0  0  0  0  0  0  0  0  0  0  0
  190.9280  173.8050  137.7410 O   0  0  0  0  0  1  0  0  0  0  0  0
  2  1  1  0  0  0  0
  3  6  1  0  0  0  0
  4 36  1  1  0  0  0
  4  2  1  0  0  0  0
  4  5  1  0  0  0  0
  5 65  1  6  0  0  0
  5  3  1  0  0  0  0
  6  1  1  6  0  0  0
  7  6  1  6  0  0  0
  7 11  1  0  0  0  0
  8 13  1  0  0  0  0
  9 16  1  0  0  0  0
 10 15  1  0  0  0  0
 11 14  1  1  0  0  0
 11 12  1  0  0  0  0
 12 13  1  0  0  0  0
 13 17  1  0  0  0  0
 14  8  1  0  0  0  0
 15 12  1  0  0  0  0
 15 26  1  0  0  0  0
 16  7  1  0  0  0  0
 16 10  1  0  0  0  0
 17 18  2  0  0  0  0
 18 19  1  0  0  0  0
 19 21  1  0  0  0  0
 21 22  1  0  0  0  0
 21 20  1  0  0  0  0
 22 20  1  0  0  0  0
 23 17  1  0  0  0  0
 25 24  1  0  0  0  0
 25 23  1  0  0  0  0
 26 27  1  0  0  0  0
 29 27  1  0  0  0  0
 29 28  2  0  0  0  0
 30 29  1  0  0  0  0
 31 34  2  0  0  0  0
 32 30  1  0  0  0  0
 32 31  1  0  0  0  0
 33 32  1  0  0  0  0
 34 28  1  0  0  0  0
 35 36  2  0  0  0  0
 36 39  1  0  0  0  0
 37 40  1  0  0  0  0
 37 39  2  0  0  0  0
 38 35  1  0  0  0  0
 38 37  1  0  0  0  0
 42 40  1  0  0  0  0
 42 41  2  0  0  0  0
 44 43  2  0  0  0  0
 44 42  1  0  0  0  0
 45 47  1  0  0  0  0
 45 43  1  0  0  0  0
 46 47  1  0  0  0  0
 47 48  1  0  0  0  0
 48 49  1  0  0  0  0
 49 50  1  0  0  0  0
 50 51  1  0  0  0  0
 52 41  1  0  0  0  0
 52 55  1  0  0  0  0
 53 56  1  0  0  0  0
 53 57  1  0  0  0  0
 54 53  1  0  0  0  0
 54 56  1  0  0  0  0
 55 59  1  0  0  0  0
 56 58  1  0  0  0  0
 57 58  1  0  0  0  0
 58 63  1  0  0  0  0
 59 57  1  0  0  0  0
 60 55  1  0  0  0  0
 60 53  1  0  0  0  0
 63 61  2  0  0  0  0
 63 62  1  0  0  0  0
 64 65  2  0  0  0  0
 66 65  1  0  0  0  0
M  END
>  <MODEL>
1

>  <REMARK>
 VINA RESULT:      -5.5      0.000      0.000
  Name = 
  22 active torsions:
  status: ('A' for Active; 'I' for Inactive)
    1  A    between atoms: C_5  and  C_66
    2  A    between atoms: O_8  and  N_25
    3  A    between atoms: O_8  and  C_38
    4  A    between atoms: C_9  and  C_43
    5  A    between atoms: C_9  and  C_57
    6  A    between atoms: C_11  and  C_50
    7  A    between atoms: N_12  and  C_22
    8  A    between atoms: C_13  and  C_47
    9  A    between atoms: C_17  and  C_21
   10  A    between atoms: C_17  and  O_34
   11  A    between atoms: C_18  and  C_19
   12  A    between atoms: C_18  and  C_46
   13  A    between atoms: C_20  and  C_62
   14  A    between atoms: C_22  and  C_60
   15  A    between atoms: C_27  and  C_55
   16  A    between atoms: O_34  and  C_48
   17  A    between atoms: C_35  and  C_51
   18  A    between atoms: C_39  and  C_55
   19  A    between atoms: C_46  and  C_58
   20  A    between atoms: C_47  and  C_52
   21  A    between atoms: C_52  and  C_60
   22  A    between atoms: C_57  and  O_65
                            x       y       z     vdW  Elec       q    Type
                         _______ _______ _______ _____ _____    ______ ____

>  <TORSDO>
F 22

$$$$
=
 OpenBabel11062415063D

 66 74  0  0  1  0  0  0  0  0999 V2000
  186.8050  179.2660  138.1050 C   0  0  0  0  0  2  0  0  0  0  0  0
  185.9210  178.9970  139.3170 C   0  0  0  0  0  2  0  0  0  0  0  0
  185.1660  177.9760  136.6400 C   0  0  0  0  0  2  0  0  0  0  0  0
  184.4520  178.8020  138.9410 C   0  0  1  0  0  3  0  0  0  0  0  0
  184.2860  177.7130  137.8610 C   0  0  1  0  0  3  0  0  0  0  0  0
  186.6290  178.2020  137.0220 C   0  0  2  0  0  3  0  0  0  0  0  0
  187.4850  176.9330  137.1900 C   0  0  1  0  0  3  0  0  0  0  0  0
  187.2500  174.5830  134.6060 C   0  0  0  0  0  2  0  0  0  0  0  0
  188.0900  177.1110  139.5030 O   0  0  0  0  0  1  0  0  0  0  0  0
  189.8650  176.3950  138.0780 C   0  0  0  0  0  2  0  0  0  0  0  0
  188.0010  176.3180  135.8670 C   0  0  1  0  0  3  0  0  0  0  0  0
  188.9650  175.1490  136.0740 C   0  0  2  0  0  3  0  0  0  0  0  0
  188.2150  173.9410  135.5710 C   0  0  1  0  0  3  0  0  0  0  0  0
  186.9170  175.8620  135.0870 O   0  0  0  0  0  0  0  0  0  0  0  0
  189.5490  175.0240  137.4920 C   0  0  1  0  0  3  0  0  0  0  0  0
  188.5990  177.2420  138.2110 C   0  0  1  0  0  3  0  0  0  0  0  0
  187.4780  173.1720  136.6460 C   0  0  0  0  0  0  0  0  0  0  0  0
  186.2900  173.6520  137.0480 C   0  0  0  0  0  3  0  0  0  0  0  0
  185.4070  172.9610  138.0420 C   0  0  0  0  0  2  0  0  0  0  0  0
  183.7100  171.6000  136.9450 N   0  0  0  0  0  2  0  0  0  0  0  0
  183.9810  172.9210  137.5320 C   0  0  2  0  0  3  0  0  0  0  0  0
  183.9970  172.7550  136.0820 C   0  0  0  0  0  2  0  0  0  0  0  0
  187.9850  171.8360  137.1210 C   0  0  0  0  0  2  0  0  0  0  0  0
  188.4820  170.2180  135.8060 O   0  0  0  0  0  1  0  0  0  0  0  0
  187.4390  170.8150  136.3410 O   0  0  0  0  0  0  0  0  0  0  0  0
  190.6290  174.1170  137.5740 O   0  0  0  0  0  0  0  0  0  0  0  0
  191.8110  174.8180  137.8730 C   0  0  0  0  0  2  0  0  0  0  0  0
  192.8140  173.3800  136.1590 C   0  0  0  0  0  3  0  0  0  0  0  0
  192.9780  174.1250  137.2590 C   0  0  0  0  0  0  0  0  0  0  0  0
  194.3240  174.2000  137.9300 C   0  0  0  0  0  2  0  0  0  0  0  0
  195.2110  172.9890  135.9190 C   0  0  0  0  0  3  0  0  0  0  0  0
  195.4730  174.0870  136.9150 C   0  0  1  0  0  3  0  0  0  0  0  0
  195.6180  175.2900  136.2420 F   0  0  0  0  0  0  0  0  0  0  0  0
  193.9640  172.6960  135.5390 C   0  0  0  0  0  3  0  0  0  0  0  0
  183.2800  177.1950  140.4730 N   0  0  0  0  0  0  0  0  0  0  0  0
  183.7100  178.4450  140.1940 C   0  0  0  0  0  0  0  0  0  0  0  0
  182.9210  178.5720  142.1450 C   0  0  0  0  0  0  0  0  0  0  0  0
  182.7770  177.2720  141.7190 C   0  0  0  0  0  2  0  0  0  0  0  0
  183.5260  179.3170  141.2050 N   0  0  0  0  0  0  0  0  0  0  0  0
  182.6420  179.0480  143.5310 C   0  0  0  0  0  2  0  0  0  0  0  0
  183.6140  178.4060  145.6400 N   0  0  0  0  0  0  0  0  0  0  0  0
  183.8180  178.7910  144.4150 C   0  0  0  0  0  0  0  0  0  0  0  0
  185.8550  178.0400  143.3280 N   0  0  0  0  0  0  0  0  0  0  0  0
  185.1580  178.9980  143.8440 C   0  0  0  0  0  3  0  0  0  0  0  0
  187.1890  178.2940  142.8070 C   0  0  0  0  0  2  0  0  0  0  0  0
  187.6000  175.9370  143.0470 O   0  0  0  0  0  1  0  0  0  0  0  0
  188.1560  177.2030  143.2540 C   0  0  1  0  0  3  0  0  0  0  0  0
  189.5080  177.3310  142.5500 C   0  0  0  0  0  2  0  0  0  0  0  0
  190.6730  177.5550  143.5180 C   0  0  0  0  0  2  0  0  0  0  0  0
  191.9420  177.9580  142.7760 C   0  0  0  0  0  2  0  0  0  0  0  0
  192.1570  177.0970  141.6970 O   0  0  0  0  0  1  0  0  0  0  0  0
  184.6200  178.0810  146.5220 O   0  0  0  0  0  0  0  0  0  0  0  0
  188.0870  178.8570  147.7060 C   0  0  1  0  0  0  0  0  0  0  0  0
  187.5980  178.2390  149.0450 C   0  0  0  0  0  2  0  0  0  0  0  0
  185.9590  178.4460  146.2310 C   0  0  2  0  0  3  0  0  0  0  0  0
  188.9800  178.0370  148.6660 C   0  0  1  0  0  3  0  0  0  0  0  0
  188.2480  177.7910  146.6460 C   0  0  1  0  0  3  0  0  0  0  0  0
  189.0600  176.9400  147.6120 C   0  0  1  0  0  3  0  0  0  0  0  0
  186.8660  177.2360  146.3560 C   0  0  0  0  0  2  0  0  0  0  0  0
  186.5300  179.7360  147.4020 S   0  0  0  0  0  0  0  0  0  0  0  0
  190.7440  175.9000  146.2490 O   0  0  0  0  0  0  0  0  0  0  0  0
  191.4730  177.5610  147.6470 O   0  0  0  0  0  1  0  0  0  0  0  0
  190.4640  176.7670  147.1210 C   0  0  0  0  0  0  0  0  0  0  0  0
  182.2660  178.6080  136.9680 O   0  0  0  0  0  0  0  0  0  0  0  0
  182.8630  177.5960  137.4150 C   0  0  0  0  0  0  0  0  0  0  0  0
  182.1870  176.3860  137.5240 O   0  0  0  0  0  1  0  0  0  0  0  0
  1  2  1  0  0  0  0
  3  5  1  0  0  0  0
  4  2  1  0  0  0  0
  4 36  1  1  0  0  0
  5 65  1  6  0  0  0
  5  4  1  0  0  0  0
  6  3  1  1  0  0  0
  6  1  1  0  0  0  0
  7  6  1  6  0  0  0
  7 16  1  0  0  0  0
  8 14  1  0  0  0  0
  8 13  1  0  0  0  0
 10 16  1  0  0  0  0
 11 14  1  6  0  0  0
 11 12  1  0  0  0  0
 11  7  1  0  0  0  0
 12 15  1  0  0  0  0
 13 12  1  0  0  0  0
 13 17  1  0  0  0  0
 15 26  1  0  0  0  0
 15 10  1  0  0  0  0
 16  9  1  0  0  0  0
 17 18  2  0  0  0  0
 17 23  1  0  0  0  0
 18 19  1  0  0  0  0
 20 21  1  0  0  0  0
 21 19  1  0  0  0  0
 22 20  1  0  0  0  0
 22 21  1  0  0  0  0
 24 25  1  0  0  0  0
 25 23  1  0  0  0  0
 26 27  1  0  0  0  0
 28 29  2  0  0  0  0
 29 27  1  0  0  0  0
 29 30  1  0  0  0  0
 31 32  1  0  0  0  0
 32 30  1  0  0  0  0
 33 32  1  0  0  0  0
 34 31  2  0  0  0  0
 34 28  1  0  0  0  0
 35 38  1  0  0  0  0
 36 35  2  0  0  0  0
 36 39  1  0  0  0  0
 37 40  1  0  0  0  0
 38 37  1  0  0  0  0
 39 37  2  0  0  0  0
 40 42  1  0  0  0  0
 41 52  1  0  0  0  0
 42 41  2  0  0  0  0
 43 44  2  0  0  0  0
 44 42  1  0  0  0  0
 45 47  1  0  0  0  0
 45 43  1  0  0  0  0
 46 47  1  0  0  0  0
 48 47  1  0  0  0  0
 48 49  1  0  0  0  0
 50 49  1  0  0  0  0
 51 50  1  0  0  0  0
 53 56  1  0  0  0  0
 53 54  1  0  0  0  0
 55 59  1  0  0  0  0
 55 52  1  0  0  0  0
 55 60  1  0  0  0  0
 56 54  1  0  0  0  0
 57 58  1  0  0  0  0
 57 53  1  0  0  0  0
 58 56  1  0  0  0  0
 59 57  1  0  0  0  0
 60 53  1  0  0  0  0
 61 63  2  0  0  0  0
 63 58  1  0  0  0  0
 63 62  1  0  0  0  0
 64 65  2  0  0  0  0
 65 66  1  0  0  0  0
M  END
>  <MODEL>
2

>  <REMARK>
 VINA RESULT:      -4.9      3.623     10.320
  Name = 
  22 active torsions:
  status: ('A' for Active; 'I' for Inactive)
    1  A    between atoms: C_5  and  C_66
    2  A    between atoms: O_8  and  N_25
    3  A    between atoms: O_8  and  C_38
    4  A    between atoms: C_9  and  C_43
    5  A    between atoms: C_9  and  C_57
    6  A    between atoms: C_11  and  C_50
    7  A    between atoms: N_12  and  C_22
    8  A    between atoms: C_13  and  C_47
    9  A    between atoms: C_17  and  C_21
   10  A    between atoms: C_17  and  O_34
   11  A    between atoms: C_18  and  C_19
   12  A    between atoms: C_18  and  C_46
   13  A    between atoms: C_20  and  C_62
   14  A    between atoms: C_22  and  C_60
   15  A    between atoms: C_27  and  C_55
   16  A    between atoms: O_34  and  C_48
   17  A    between atoms: C_35  and  C_51
   18  A    between atoms: C_39  and  C_55
   19  A    between atoms: C_46  and  C_58
   20  A    between atoms: C_47  and  C_52
   21  A    between atoms: C_52  and  C_60
   22  A    between atoms: C_57  and  O_65
                            x       y       z     vdW  Elec       q    Type
                         _______ _______ _______ _____ _____    ______ ____

>  <TORSDO>
F 22

$$$$
=
 OpenBabel11062415063D

 66 74  0  0  1  0  0  0  0  0999 V2000
  187.1850  173.4530  136.6780 C   0  0  0  0  0  2  0  0  0  0  0  0
  187.9410  174.3030  137.6930 C   0  0  0  0  0  2  0  0  0  0  0  0
  187.6270  175.2160  134.8920 C   0  0  0  0  0  2  0  0  0  0  0  0
  188.9940  175.1990  137.0410 C   0  0  1  0  0  3  0  0  0  0  0  0
  188.3840  176.0600  135.9160 C   0  0  1  0  0  3  0  0  0  0  0  0
  186.5960  174.2990  135.5500 C   0  0  2  0  0  3  0  0  0  0  0  0
  185.2210  174.9280  135.8380 C   0  0  1  0  0  3  0  0  0  0  0  0
  185.2540  178.3030  136.7670 C   0  0  0  0  0  2  0  0  0  0  0  0
  183.8600  172.9610  135.9970 O   0  0  0  0  0  1  0  0  0  0  0  0
  182.8430  174.7640  134.8080 C   0  0  0  0  0  2  0  0  0  0  0  0
  185.1070  176.4310  135.4870 C   0  0  1  0  0  3  0  0  0  0  0  0
  183.6920  176.9880  135.6470 C   0  0  2  0  0  3  0  0  0  0  0  0
  183.7880  177.9470  136.8090 C   0  0  1  0  0  3  0  0  0  0  0  0
  185.9740  177.1890  136.3030 O   0  0  0  0  0  0  0  0  0  0  0  0
  182.5790  175.9310  135.7500 C   0  0  1  0  0  3  0  0  0  0  0  0
  184.1460  174.0480  135.1700 C   0  0  1  0  0  3  0  0  0  0  0  0
  183.4120  177.3460  138.1460 C   0  0  0  0  0  0  0  0  0  0  0  0
  182.4080  176.4540  138.1640 C   0  0  0  0  0  3  0  0  0  0  0  0
  181.9750  175.7150  139.3930 C   0  0  0  0  0  2  0  0  0  0  0  0
  179.7680  176.1690  140.3180 N   0  0  0  0  0  2  0  0  0  0  0  0
  180.4980  175.3870  139.3090 C   0  0  2  0  0  3  0  0  0  0  0  0
  180.0790  174.7510  140.5550 C   0  0  0  0  0  2  0  0  0  0  0  0
  184.2420  177.6170  139.3720 C   0  0  0  0  0  2  0  0  0  0  0  0
  185.5750  179.0420  140.2590 O   0  0  0  0  0  1  0  0  0  0  0  0
  184.5310  178.9800  139.4600 O   0  0  0  0  0  0  0  0  0  0  0  0
  181.2810  176.4730  135.6210 O   0  0  0  0  0  0  0  0  0  0  0  0
  181.3460  177.6910  134.9200 C   0  0  0  0  0  2  0  0  0  0  0  0
  179.6950  178.3840  136.5950 C   0  0  0  0  0  3  0  0  0  0  0  0
  180.5760  178.7360  135.6500 C   0  0  0  0  0  0  0  0  0  0  0  0
  180.7330  180.1820  135.2610 C   0  0  0  0  0  2  0  0  0  0  0  0
  179.2690  180.7010  137.2320 C   0  0  0  0  0  3  0  0  0  0  0  0
  180.4860  181.1220  136.4520 C   0  0  1  0  0  3  0  0  0  0  0  0
  181.5910  181.1120  137.2880 F   0  0  0  0  0  0  0  0  0  0  0  0
  178.9330  179.4110  137.3290 C   0  0  0  0  0  3  0  0  0  0  0  0
  190.8900  176.4220  138.1420 N   0  0  0  0  0  0  0  0  0  0  0  0
  189.5900  176.0520  138.1200 C   0  0  0  0  0  0  0  0  0  0  0  0
  189.7450  177.3670  139.7590 C   0  0  0  0  0  0  0  0  0  0  0  0
  190.9920  177.2630  139.1870 C   0  0  0  0  0  2  0  0  0  0  0  0
  188.8480  176.6280  139.0850 N   0  0  0  0  0  0  0  0  0  0  0  0
  189.3840  178.3270  140.8430 C   0  0  0  0  0  2  0  0  0  0  0  0
  187.8310  177.4380  142.4560 N   0  0  0  0  0  0  0  0  0  0  0  0
  189.0730  177.5930  142.1050 C   0  0  0  0  0  0  0  0  0  0  0  0
  190.5110  177.5480  144.0620 N   0  0  0  0  0  0  0  0  0  0  0  0
  190.2070  177.0850  142.8950 C   0  0  0  0  0  3  0  0  0  0  0  0
  191.6630  177.0320  144.7860 C   0  0  0  0  0  2  0  0  0  0  0  0
  192.4320  176.6890  147.0370 O   0  0  0  0  0  1  0  0  0  0  0  0
  191.2910  176.7130  146.2290 C   0  0  1  0  0  3  0  0  0  0  0  0
  190.2550  177.6990  146.7720 C   0  0  0  0  0  2  0  0  0  0  0  0
  189.0590  177.0120  147.4370 C   0  0  0  0  0  2  0  0  0  0  0  0
  188.5010  177.8530  148.5780 C   0  0  0  0  0  2  0  0  0  0  0  0
  187.4500  177.1760  149.2010 O   0  0  0  0  0  1  0  0  0  0  0  0
  187.4270  176.7270  143.5630 O   0  0  0  0  0  0  0  0  0  0  0  0
  184.8350  179.2360  144.5710 C   0  0  1  0  0  0  0  0  0  0  0  0
  185.6090  180.1850  143.6150 C   0  0  0  0  0  2  0  0  0  0  0  0
  186.1820  177.0220  144.1760 C   0  0  2  0  0  3  0  0  0  0  0  0
  184.1720  180.3330  143.7050 C   0  0  1  0  0  3  0  0  0  0  0  0
  184.0920  178.1740  143.7920 C   0  0  1  0  0  3  0  0  0  0  0  0
  183.4990  179.2410  142.8840 C   0  0  1  0  0  3  0  0  0  0  0  0
  185.1350  177.3050  143.1150 C   0  0  0  0  0  2  0  0  0  0  0  0
  186.3430  178.4960  145.2540 S   0  0  0  0  0  0  0  0  0  0  0  0
  181.2860  179.7750  142.1140 O   0  0  0  0  0  0  0  0  0  0  0  0
  181.4210  178.8370  144.1990 O   0  0  0  0  0  1  0  0  0  0  0  0
  182.0100  179.2980  143.0300 C   0  0  0  0  0  0  0  0  0  0  0  0
  189.2380  178.0790  134.9820 O   0  0  0  0  0  1  0  0  0  0  0  0
  189.4320  176.8580  135.2070 C   0  0  0  0  0  0  0  0  0  0  0  0
  190.6020  176.2510  134.7660 O   0  0  0  0  0  0  0  0  0  0  0  0
  1  2  1  0  0  0  0
  3  5  1  0  0  0  0
  4  2  1  0  0  0  0
  4 36  1  1  0  0  0
  5 65  1  6  0  0  0
  5  4  1  0  0  0  0
  6  3  1  1  0  0  0
  6  1  1  0  0  0  0
  7  6  1  6  0  0  0
  8 13  1  0  0  0  0
 10 16  1  0  0  0  0
 10 15  1  0  0  0  0
 11 12  1  0  0  0  0
 11  7  1  0  0  0  0
 11 14  1  1  0  0  0
 12 15  1  0  0  0  0
 12 13  1  0  0  0  0
 13 17  1  0  0  0  0
 14  8  1  0  0  0  0
 16  7  1  0  0  0  0
 16  9  1  0  0  0  0
 17 18  2  0  0  0  0
 17 23  1  0  0  0  0
 18 19  1  0  0  0  0
 20 22  1  0  0  0  0
 21 19  1  0  0  0  0
 21 20  1  0  0  0  0
 21 22  1  0  0  0  0
 23 25  1  0  0  0  0
 25 24  1  0  0  0  0
 26 15  1  0  0  0  0
 27 26  1  0  0  0  0
 27 29  1  0  0  0  0
 28 34  1  0  0  0  0
 29 28  2  0  0  0  0
 30 29  1  0  0  0  0
 30 32  1  0  0  0  0
 31 34  2  0  0  0  0
 32 31  1  0  0  0  0
 32 33  1  0  0  0  0
 35 38  1  0  0  0  0
 36 35  2  0  0  0  0
 36 39  1  0  0  0  0
 37 40  1  0  0  0  0
 38 37  1  0  0  0  0
 39 37  2  0  0  0  0
 40 42  1  0  0  0  0
 41 52  1  0  0  0  0
 42 41  2  0  0  0  0
 42 44  1  0  0  0  0
 43 45  1  0  0  0  0
 44 43  2  0  0  0  0
 45 47  1  0  0  0  0
 47 48  1  0  0  0  0
 47 46  1  0  0  0  0
 48 49  1  0  0  0  0
 49 50  1  0  0  0  0
 50 51  1  0  0  0  0
 52 55  1  0  0  0  0
 53 60  1  0  0  0  0
 54 56  1  0  0  0  0
 54 53  1  0  0  0  0
 55 60  1  0  0  0  0
 56 53  1  0  0  0  0
 57 53  1  0  0  0  0
 58 63  1  0  0  0  0
 58 56  1  0  0  0  0
 58 57  1  0  0  0  0
 59 57  1  0  0  0  0
 59 55  1  0  0  0  0
 61 63  2  0  0  0  0
 63 62  1  0  0  0  0
 64 65  1  0  0  0  0
 66 65  2  0  0  0  0
M  END
>  <MODEL>
3

>  <REMARK>
 VINA RESULT:      -4.8      2.875      9.410
  Name = 
  22 active torsions:
  status: ('A' for Active; 'I' for Inactive)
    1  A    between atoms: C_5  and  C_66
    2  A    between atoms: O_8  and  N_25
    3  A    between atoms: O_8  and  C_38
    4  A    between atoms: C_9  and  C_43
    5  A    between atoms: C_9  and  C_57
    6  A    between atoms: C_11  and  C_50
    7  A    between atoms: N_12  and  C_22
    8  A    between atoms: C_13  and  C_47
    9  A    between atoms: C_17  and  C_21
   10  A    between atoms: C_17  and  O_34
   11  A    between atoms: C_18  and  C_19
   12  A    between atoms: C_18  and  C_46
   13  A    between atoms: C_20  and  C_62
   14  A    between atoms: C_22  and  C_60
   15  A    between atoms: C_27  and  C_55
   16  A    between atoms: O_34  and  C_48
   17  A    between atoms: C_35  and  C_51
   18  A    between atoms: C_39  and  C_55
   19  A    between atoms: C_46  and  C_58
   20  A    between atoms: C_47  and  C_52
   21  A    between atoms: C_52  and  C_60
   22  A    between atoms: C_57  and  O_65
                            x       y       z     vdW  Elec       q    Type
                         _______ _______ _______ _____ _____    ______ ____

>  <TORSDO>
F 22

$$$$
=
 OpenBabel11062415063D

 66 74  0  0  1  0  0  0  0  0999 V2000
  182.8950  179.9420  139.8690 C   0  0  0  0  0  2  0  0  0  0  0  0
  184.3180  179.5450  139.4930 C   0  0  0  0  0  2  0  0  0  0  0  0
  183.0730  178.5290  141.9830 C   0  0  0  0  0  2  0  0  0  0  0  0
  185.1750  179.2060  140.7140 C   0  0  1  0  0  3  0  0  0  0  0  0
  184.4990  178.1380  141.5990 C   0  0  1  0  0  3  0  0  0  0  0  0
  182.2280  178.8970  140.7630 C   0  0  2  0  0  3  0  0  0  0  0  0
  181.5570  177.7230  140.0270 C   0  0  1  0  0  3  0  0  0  0  0  0
  183.6220  175.9030  137.8630 C   0  0  0  0  0  2  0  0  0  0  0  0
  179.2450  178.2090  140.4340 O   0  0  0  0  0  1  0  0  0  0  0  0
  179.8110  175.8980  140.6300 C   0  0  0  0  0  2  0  0  0  0  0  0
  182.4900  176.5220  139.7340 C   0  0  1  0  0  3  0  0  0  0  0  0
  181.7620  175.3180  139.1350 C   0  0  2  0  0  3  0  0  0  0  0  0
  182.2850  175.2180  137.7240 C   0  0  1  0  0  3  0  0  0  0  0  0
  183.5120  176.9070  138.8400 O   0  0  0  0  0  0  0  0  0  0  0  0
  180.2290  175.3430  139.2750 C   0  0  1  0  0  3  0  0  0  0  0  0
  180.2780  177.3450  140.8000 C   0  0  1  0  0  3  0  0  0  0  0  0
  181.4240  175.9110  136.6890 C   0  0  0  0  0  0  0  0  0  0  0  0
  180.6290  176.9070  137.1110 C   0  0  0  0  0  3  0  0  0  0  0  0
  179.7820  177.7390  136.1960 C   0  0  0  0  0  2  0  0  0  0  0  0
  180.9400  179.7190  135.3740 N   0  0  0  0  0  2  0  0  0  0  0  0
  180.0540  179.2120  136.4330 C   0  0  2  0  0  3  0  0  0  0  0  0
  181.4750  179.3970  136.7050 C   0  0  0  0  0  2  0  0  0  0  0  0
  181.5820  175.6000  135.2240 C   0  0  0  0  0  2  0  0  0  0  0  0
  183.3900  176.7480  135.3050 O   0  0  0  0  0  1  0  0  0  0  0  0
  182.2900  176.6250  134.5940 O   0  0  0  0  0  0  0  0  0  0  0  0
  179.6200  174.1070  138.9640 O   0  0  0  0  0  0  0  0  0  0  0  0
  179.0660  174.1670  137.6720 C   0  0  0  0  0  2  0  0  0  0  0  0
  178.9310  172.7300  135.6900 C   0  0  0  0  0  3  0  0  0  0  0  0
  179.4700  172.9630  136.8930 C   0  0  0  0  0  0  0  0  0  0  0  0
  180.4200  171.9680  137.5030 C   0  0  0  0  0  2  0  0  0  0  0  0
  180.3870  170.8170  135.2730 C   0  0  0  0  0  3  0  0  0  0  0  0
  181.2500  171.2420  136.4310 C   0  0  1  0  0  3  0  0  0  0  0  0
  182.2510  172.0840  135.9700 F   0  0  0  0  0  0  0  0  0  0  0  0
  179.3290  171.5450  134.9070 C   0  0  0  0  0  3  0  0  0  0  0  0
  187.6840  179.1350  140.7430 N   0  0  0  0  0  0  0  0  0  0  0  0
  186.5070  178.7360  140.2120 C   0  0  0  0  0  0  0  0  0  0  0  0
  187.9640  177.5960  139.2030 C   0  0  0  0  0  0  0  0  0  0  0  0
  188.6170  178.4080  140.1010 C   0  0  0  0  0  2  0  0  0  0  0  0
  186.6350  177.7760  139.2760 N   0  0  0  0  0  0  0  0  0  0  0  0
  188.6140  176.5150  138.4060 C   0  0  0  0  0  2  0  0  0  0  0  0
  190.8300  176.2520  137.4980 N   0  0  0  0  0  0  0  0  0  0  0  0
  190.1000  176.6130  138.5110 C   0  0  0  0  0  0  0  0  0  0  0  0
  190.6210  176.4390  140.8760 N   0  0  0  0  0  0  0  0  0  0  0  0
  190.6620  177.1150  139.7750 C   0  0  0  0  0  3  0  0  0  0  0  0
  191.1620  176.9970  142.1070 C   0  0  0  0  0  2  0  0  0  0  0  0
  190.4420  174.9440  143.1290 O   0  0  0  0  0  1  0  0  0  0  0  0
  190.5320  176.3260  143.3220 C   0  0  1  0  0  3  0  0  0  0  0  0
  191.3020  176.6510  144.6030 C   0  0  0  0  0  2  0  0  0  0  0  0
  190.3940  177.0770  145.7600 C   0  0  0  0  0  2  0  0  0  0  0  0
  189.3150  178.0450  145.2910 C   0  0  0  0  0  2  0  0  0  0  0  0
  188.0530  177.4670  145.4510 O   0  0  0  0  0  1  0  0  0  0  0  0
  192.2020  176.3580  137.4610 O   0  0  0  0  0  0  0  0  0  0  0  0
  195.2700  174.2420  137.0970 C   0  0  1  0  0  0  0  0  0  0  0  0
  195.4790  174.5630  138.6020 C   0  0  0  0  0  2  0  0  0  0  0  0
  192.9630  175.4250  136.7120 C   0  0  2  0  0  3  0  0  0  0  0  0
  195.8880  173.2610  138.1210 C   0  0  1  0  0  3  0  0  0  0  0  0
  194.1020  173.3020  136.9020 C   0  0  1  0  0  3  0  0  0  0  0  0
  194.6610  172.3710  137.9680 C   0  0  1  0  0  3  0  0  0  0  0  0
  192.8530  174.0460  137.3350 C   0  0  0  0  0  2  0  0  0  0  0  0
  194.7260  175.9230  136.6880 S   0  0  0  0  0  0  0  0  0  0  0  0
  195.8720  170.9610  136.4440 O   0  0  0  0  0  0  0  0  0  0  0  0
  194.4200  169.8930  137.8570 O   0  0  0  0  0  1  0  0  0  0  0  0
  195.0300  171.0450  137.3790 C   0  0  0  0  0  0  0  0  0  0  0  0
  184.8530  178.3060  143.9490 O   0  0  0  0  0  1  0  0  0  0  0  0
  185.2840  177.8830  142.8460 C   0  0  0  0  0  0  0  0  0  0  0  0
  186.5000  177.2130  142.7900 O   0  0  0  0  0  0  0  0  0  0  0  0
  2  1  1  0  0  0  0
  2  4  1  0  0  0  0
  4 36  1  6  0  0  0
  4  5  1  0  0  0  0
  5  3  1  0  0  0  0
  5 65  1  1  0  0  0
  6  1  1  6  0  0  0
  6  3  1  0  0  0  0
  7  6  1  1  0  0  0
  7 16  1  0  0  0  0
  8 14  1  0  0  0  0
  9 16  1  0  0  0  0
 10 16  1  0  0  0  0
 11 14  1  6  0  0  0
 11  7  1  0  0  0  0
 12 15  1  0  0  0  0
 12 11  1  0  0  0  0
 13  8  1  0  0  0  0
 13 12  1  0  0  0  0
 15 10  1  0  0  0  0
 17 18  2  0  0  0  0
 17 13  1  0  0  0  0
 19 21  1  0  0  0  0
 19 18  1  0  0  0  0
 20 21  1  0  0  0  0
 20 22  1  0  0  0  0
 21 22  1  0  0  0  0
 23 17  1  0  0  0  0
 25 23  1  0  0  0  0
 25 24  1  0  0  0  0
 26 15  1  0  0  0  0
 27 26  1  0  0  0  0
 28 29  2  0  0  0  0
 29 30  1  0  0  0  0
 29 27  1  0  0  0  0
 31 32  1  0  0  0  0
 32 30  1  0  0  0  0
 33 32  1  0  0  0  0
 34 31  2  0  0  0  0
 34 28  1  0  0  0  0
 36 35  2  0  0  0  0
 37 39  2  0  0  0  0
 37 38  1  0  0  0  0
 38 35  1  0  0  0  0
 39 36  1  0  0  0  0
 40 42  1  0  0  0  0
 40 37  1  0  0  0  0
 41 42  2  0  0  0  0
 42 44  1  0  0  0  0
 43 45  1  0  0  0  0
 44 43  2  0  0  0  0
 45 47  1  0  0  0  0
 46 47  1  0  0  0  0
 47 48  1  0  0  0  0
 48 49  1  0  0  0  0
 50 51  1  0  0  0  0
 50 49  1  0  0  0  0
 52 41  1  0  0  0  0
 53 56  1  0  0  0  0
 53 54  1  0  0  0  0
 55 59  1  0  0  0  0
 55 52  1  0  0  0  0
 56 54  1  0  0  0  0
 57 53  1  0  0  0  0
 57 59  1  0  0  0  0
 57 58  1  0  0  0  0
 58 56  1  0  0  0  0
 60 55  1  0  0  0  0
 60 53  1  0  0  0  0
 61 63  2  0  0  0  0
 63 62  1  0  0  0  0
 63 58  1  0  0  0  0
 65 64  1  0  0  0  0
 66 65  2  0  0  0  0
M  END
>  <MODEL>
4

>  <REMARK>
 VINA RESULT:      -4.6      3.375     11.762
  Name = 
  22 active torsions:
  status: ('A' for Active; 'I' for Inactive)
    1  A    between atoms: C_5  and  C_66
    2  A    between atoms: O_8  and  N_25
    3  A    between atoms: O_8  and  C_38
    4  A    between atoms: C_9  and  C_43
    5  A    between atoms: C_9  and  C_57
    6  A    between atoms: C_11  and  C_50
    7  A    between atoms: N_12  and  C_22
    8  A    between atoms: C_13  and  C_47
    9  A    between atoms: C_17  and  C_21
   10  A    between atoms: C_17  and  O_34
   11  A    between atoms: C_18  and  C_19
   12  A    between atoms: C_18  and  C_46
   13  A    between atoms: C_20  and  C_62
   14  A    between atoms: C_22  and  C_60
   15  A    between atoms: C_27  and  C_55
   16  A    between atoms: O_34  and  C_48
   17  A    between atoms: C_35  and  C_51
   18  A    between atoms: C_39  and  C_55
   19  A    between atoms: C_46  and  C_58
   20  A    between atoms: C_47  and  C_52
   21  A    between atoms: C_52  and  C_60
   22  A    between atoms: C_57  and  O_65
                            x       y       z     vdW  Elec       q    Type
                         _______ _______ _______ _____ _____    ______ ____

>  <TORSDO>
F 22

$$$$
=
 OpenBabel11062415063D

 66 74  0  0  1  0  0  0  0  0999 V2000
  189.6490  178.6050  139.2050 C   0  0  0  0  0  2  0  0  0  0  0  0
  188.9530  177.4830  138.4440 C   0  0  0  0  0  2  0  0  0  0  0  0
  191.7100  177.1300  139.4700 C   0  0  0  0  0  2  0  0  0  0  0  0
  189.9390  176.5560  137.7320 C   0  0  1  0  0  3  0  0  0  0  0  0
  191.0050  176.0110  138.7050 C   0  0  1  0  0  3  0  0  0  0  0  0
  190.7210  178.0720  140.1550 C   0  0  2  0  0  3  0  0  0  0  0  0
  190.2200  177.6320  141.5430 C   0  0  1  0  0  3  0  0  0  0  0  0
  191.4200  179.4910  144.2560 C   0  0  0  0  0  2  0  0  0  0  0  0
  189.2860  175.4880  141.0160 O   0  0  0  0  0  1  0  0  0  0  0  0
  187.9740  176.7830  142.5320 C   0  0  0  0  0  2  0  0  0  0  0  0
  190.0700  178.7770  142.5730 C   0  0  1  0  0  3  0  0  0  0  0  0
  189.4350  178.3310  143.8900 C   0  0  2  0  0  3  0  0  0  0  0  0
  190.5420  178.4530  144.9090 C   0  0  1  0  0  3  0  0  0  0  0  0
  191.3310  179.3420  142.8610 O   0  0  0  0  0  0  0  0  0  0  0  0
  188.7210  176.9690  143.8460 C   0  0  1  0  0  3  0  0  0  0  0  0
  188.9380  176.7980  141.3440 C   0  0  1  0  0  3  0  0  0  0  0  0
  191.3060  177.1700  145.1560 C   0  0  0  0  0  0  0  0  0  0  0  0
  191.3040  176.6780  146.4050 C   0  0  0  0  0  3  0  0  0  0  0  0
  191.9440  175.3790  146.7880 C   0  0  0  0  0  2  0  0  0  0  0  0
  193.0610  174.7340  148.8550 N   0  0  0  0  0  2  0  0  0  0  0  0
  193.1340  175.6320  147.6920 C   0  0  2  0  0  3  0  0  0  0  0  0
  192.6580  176.1430  148.9740 C   0  0  0  0  0  2  0  0  0  0  0  0
  191.9010  176.3970  144.0090 C   0  0  0  0  0  2  0  0  0  0  0  0
  192.0570  174.2590  143.9950 O   0  0  0  0  0  1  0  0  0  0  0  0
  191.1790  175.2200  143.8030 O   0  0  0  0  0  0  0  0  0  0  0  0
  187.9220  176.7190  144.9850 O   0  0  0  0  0  0  0  0  0  0  0  0
  187.5640  177.9400  145.5860 C   0  0  0  0  0  2  0  0  0  0  0  0
  185.2830  178.3740  146.3700 C   0  0  0  0  0  3  0  0  0  0  0  0
  186.1220  178.2210  145.3390 C   0  0  0  0  0  0  0  0  0  0  0  0
  185.6020  178.2470  143.9270 C   0  0  0  0  0  2  0  0  0  0  0  0
  183.4220  178.9970  144.9190 C   0  0  0  0  0  3  0  0  0  0  0  0
  184.3920  179.1850  143.7830 C   0  0  1  0  0  3  0  0  0  0  0  0
  184.8260  180.5020  143.7660 F   0  0  0  0  0  0  0  0  0  0  0  0
  183.8550  178.6600  146.1370 C   0  0  0  0  0  3  0  0  0  0  0  0
  188.8120  174.3130  137.7710 N   0  0  0  0  0  0  0  0  0  0  0  0
  189.1460  175.4450  137.1120 C   0  0  0  0  0  0  0  0  0  0  0  0
  187.9030  174.3930  135.7750 C   0  0  0  0  0  0  0  0  0  0  0  0
  188.0170  173.6400  136.9200 C   0  0  0  0  0  2  0  0  0  0  0  0
  188.5900  175.5420  135.8890 N   0  0  0  0  0  0  0  0  0  0  0  0
  186.9780  174.0870  134.6440 C   0  0  0  0  0  2  0  0  0  0  0  0
  184.8280  175.1670  134.7630 N   0  0  0  0  0  0  0  0  0  0  0  0
  185.5580  174.1470  135.1020 C   0  0  0  0  0  0  0  0  0  0  0  0
  184.9690  171.8240  135.4910 N   0  0  0  0  0  0  0  0  0  0  0  0
  185.0620  173.0360  135.9290 C   0  0  0  0  0  3  0  0  0  0  0  0
  184.4390  170.7690  136.3410 C   0  0  0  0  0  2  0  0  0  0  0  0
  182.3640  171.6430  137.1820 O   0  0  0  0  0  1  0  0  0  0  0  0
  182.9170  170.7370  136.2710 C   0  0  1  0  0  3  0  0  0  0  0  0
  182.4150  171.0120  134.8520 C   0  0  0  0  0  2  0  0  0  0  0  0
  180.9900  170.5060  134.6080 C   0  0  0  0  0  2  0  0  0  0  0  0
  180.1160  170.6960  135.8410 C   0  0  0  0  0  2  0  0  0  0  0  0
  179.1020  171.6180  135.5700 O   0  0  0  0  0  1  0  0  0  0  0  0
  183.4950  175.2970  135.0750 O   0  0  0  0  0  0  0  0  0  0  0  0
  181.4660  177.1730  137.6050 C   0  0  1  0  0  0  0  0  0  0  0  0
  181.4820  175.8280  138.3820 C   0  0  0  0  0  2  0  0  0  0  0  0
  183.0050  176.5280  135.5820 C   0  0  2  0  0  3  0  0  0  0  0  0
  181.5070  177.0560  139.1460 C   0  0  1  0  0  3  0  0  0  0  0  0
  182.8320  177.8200  137.6180 C   0  0  1  0  0  3  0  0  0  0  0  0
  182.9160  177.6360  139.1260 C   0  0  1  0  0  3  0  0  0  0  0  0
  183.7650  176.9120  136.8380 C   0  0  0  0  0  2  0  0  0  0  0  0
  181.2250  176.3780  135.9920 S   0  0  0  0  0  0  0  0  0  0  0  0
  181.9150  179.4870  140.2850 O   0  0  0  0  0  1  0  0  0  0  0  0
  184.1770  179.6220  139.9480 O   0  0  0  0  0  0  0  0  0  0  0  0
  182.9630  178.9590  139.8240 C   0  0  0  0  0  0  0  0  0  0  0  0
  193.0530  175.7500  137.5150 O   0  0  0  0  0  0  0  0  0  0  0  0
  192.0320  175.1910  137.9900 C   0  0  0  0  0  0  0  0  0  0  0  0
  191.8490  173.8240  137.8190 O   0  0  0  0  0  1  0  0  0  0  0  0
  2  1  1  0  0  0  0
  3  6  1  0  0  0  0
  4 36  1  1  0  0  0
  4  2  1  0  0  0  0
  4  5  1  0  0  0  0
  5 65  1  6  0  0  0
  5  3  1  0  0  0  0
  6  1  1  6  0  0  0
  7  6  1  6  0  0  0
  7 11  1  0  0  0  0
  8 13  1  0  0  0  0
  9 16  1  0  0  0  0
 10 15  1  0  0  0  0
 11 14  1  1  0  0  0
 11 12  1  0  0  0  0
 12 13  1  0  0  0  0
 13 17  1  0  0  0  0
 14  8  1  0  0  0  0
 15 12  1  0  0  0  0
 15 26  1  0  0  0  0
 16  7  1  0  0  0  0
 16 10  1  0  0  0  0
 17 18  2  0  0  0  0
 18 19  1  0  0  0  0
 19 21  1  0  0  0  0
 20 22  1  0  0  0  0
 21 20  1  0  0  0  0
 21 22  1  0  0  0  0
 23 17  1  0  0  0  0
 25 24  1  0  0  0  0
 25 23  1  0  0  0  0
 26 27  1  0  0  0  0
 29 27  1  0  0  0  0
 29 28  2  0  0  0  0
 30 29  1  0  0  0  0
 31 34  2  0  0  0  0
 32 30  1  0  0  0  0
 32 31  1  0  0  0  0
 33 32  1  0  0  0  0
 34 28  1  0  0  0  0
 36 35  2  0  0  0  0
 37 39  2  0  0  0  0
 37 38  1  0  0  0  0
 38 35  1  0  0  0  0
 39 36  1  0  0  0  0
 40 42  1  0  0  0  0
 40 37  1  0  0  0  0
 41 52  1  0  0  0  0
 41 42  2  0  0  0  0
 42 44  1  0  0  0  0
 43 44  2  0  0  0  0
 43 45  1  0  0  0  0
 47 45  1  0  0  0  0
 47 46  1  0  0  0  0
 48 47  1  0  0  0  0
 49 48  1  0  0  0  0
 49 50  1  0  0  0  0
 51 50  1  0  0  0  0
 52 55  1  0  0  0  0
 53 57  1  0  0  0  0
 53 54  1  0  0  0  0
 53 56  1  0  0  0  0
 54 56  1  0  0  0  0
 55 60  1  0  0  0  0
 55 59  1  0  0  0  0
 57 58  1  0  0  0  0
 58 56  1  0  0  0  0
 58 63  1  0  0  0  0
 59 57  1  0  0  0  0
 60 53  1  0  0  0  0
 63 62  2  0  0  0  0
 63 61  1  0  0  0  0
 64 65  2  0  0  0  0
 66 65  1  0  0  0  0
M  END
>  <MODEL>
5

>  <REMARK>
 VINA RESULT:      -4.4      1.591      2.054
  Name = 
  22 active torsions:
  status: ('A' for Active; 'I' for Inactive)
    1  A    between atoms: C_5  and  C_66
    2  A    between atoms: O_8  and  N_25
    3  A    between atoms: O_8  and  C_38
    4  A    between atoms: C_9  and  C_43
    5  A    between atoms: C_9  and  C_57
    6  A    between atoms: C_11  and  C_50
    7  A    between atoms: N_12  and  C_22
    8  A    between atoms: C_13  and  C_47
    9  A    between atoms: C_17  and  C_21
   10  A    between atoms: C_17  and  O_34
   11  A    between atoms: C_18  and  C_19
   12  A    between atoms: C_18  and  C_46
   13  A    between atoms: C_20  and  C_62
   14  A    between atoms: C_22  and  C_60
   15  A    between atoms: C_27  and  C_55
   16  A    between atoms: O_34  and  C_48
   17  A    between atoms: C_35  and  C_51
   18  A    between atoms: C_39  and  C_55
   19  A    between atoms: C_46  and  C_58
   20  A    between atoms: C_47  and  C_52
   21  A    between atoms: C_52  and  C_60
   22  A    between atoms: C_57  and  O_65
                            x       y       z     vdW  Elec       q    Type
                         _______ _______ _______ _____ _____    ______ ____

>  <TORSDO>
F 22

$$$$
=
 OpenBabel11062415063D

 66 74  0  0  1  0  0  0  0  0999 V2000
  184.9870  180.2330  142.9590 C   0  0  0  0  0  2  0  0  0  0  0  0
  186.2710  179.9510  142.1870 C   0  0  0  0  0  2  0  0  0  0  0  0
  184.9280  177.8030  143.7240 C   0  0  0  0  0  2  0  0  0  0  0  0
  187.0780  178.8010  142.7900 C   0  0  1  0  0  3  0  0  0  0  0  0
  186.2160  177.5300  142.9490 C   0  0  1  0  0  3  0  0  0  0  0  0
  184.1400  178.9750  143.1380 C   0  0  2  0  0  3  0  0  0  0  0  0
  183.1970  178.6350  141.9700 C   0  0  1  0  0  3  0  0  0  0  0  0
  179.8200  178.2370  142.8040 C   0  0  0  0  0  2  0  0  0  0  0  0
  184.7860  178.0320  140.2800 O   0  0  0  0  0  1  0  0  0  0  0  0
  182.9690  179.3610  139.4870 C   0  0  0  0  0  2  0  0  0  0  0  0
  181.7610  179.1950  142.1100 C   0  0  1  0  0  3  0  0  0  0  0  0
  180.8940  178.9670  140.8710 C   0  0  2  0  0  3  0  0  0  0  0  0
  179.8420  177.9810  141.3170 C   0  0  1  0  0  3  0  0  0  0  0  0
  181.1130  178.6030  143.2160 O   0  0  0  0  0  0  0  0  0  0  0  0
  181.6640  178.5830  139.5950 C   0  0  1  0  0  3  0  0  0  0  0  0
  183.8990  179.0400  140.6580 C   0  0  1  0  0  3  0  0  0  0  0  0
  180.1750  176.5350  141.0190 C   0  0  0  0  0  0  0  0  0  0  0  0
  180.7840  176.2670  139.8520 C   0  0  0  0  0  3  0  0  0  0  0  0
  181.2490  174.9000  139.4520 C   0  0  0  0  0  2  0  0  0  0  0  0
  181.0940  173.2860  137.6340 N   0  0  0  0  0  2  0  0  0  0  0  0
  180.3760  174.3600  138.3370 C   0  0  2  0  0  3  0  0  0  0  0  0
  181.0140  174.6360  137.0540 C   0  0  0  0  0  2  0  0  0  0  0  0
  179.9790  175.4690  142.0640 C   0  0  0  0  0  2  0  0  0  0  0  0
  179.3490  173.4200  142.0700 O   0  0  0  0  0  1  0  0  0  0  0  0
  178.9470  174.6110  141.6800 O   0  0  0  0  0  0  0  0  0  0  0  0
  180.8740  178.6490  138.4250 O   0  0  0  0  0  0  0  0  0  0  0  0
  179.8260  179.5670  138.6160 C   0  0  0  0  0  2  0  0  0  0  0  0
  180.7160  181.7960  138.1140 C   0  0  0  0  0  3  0  0  0  0  0  0
  180.0060  180.7360  137.7090 C   0  0  0  0  0  0  0  0  0  0  0  0
  179.3160  180.7510  136.3720 C   0  0  0  0  0  2  0  0  0  0  0  0
  180.5790  182.8740  135.9290 C   0  0  0  0  0  3  0  0  0  0  0  0
  180.0980  181.5760  135.3360 C   0  0  1  0  0  3  0  0  0  0  0  0
  181.1890  180.8460  134.8900 F   0  0  0  0  0  0  0  0  0  0  0  0
  180.9070  182.9540  137.2220 C   0  0  0  0  0  3  0  0  0  0  0  0
  189.3790  177.9270  142.2940 N   0  0  0  0  0  0  0  0  0  0  0  0
  188.2520  178.5540  141.8900 C   0  0  0  0  0  0  0  0  0  0  0  0
  189.4150  178.3650  140.1430 C   0  0  0  0  0  0  0  0  0  0  0  0
  190.1240  177.8040  141.1800 C   0  0  0  0  0  2  0  0  0  0  0  0
  188.2260  178.8230  140.5700 N   0  0  0  0  0  0  0  0  0  0  0  0
  189.8100  178.2920  138.7060 C   0  0  0  0  0  2  0  0  0  0  0  0
  190.5030  176.0270  138.2650 N   0  0  0  0  0  0  0  0  0  0  0  0
  189.5640  176.9210  138.1680 C   0  0  0  0  0  0  0  0  0  0  0  0
  187.6600  177.5140  136.7830 N   0  0  0  0  0  0  0  0  0  0  0  0
  188.2570  176.6580  137.5460 C   0  0  0  0  0  3  0  0  0  0  0  0
  186.3520  177.2160  136.2200 C   0  0  0  0  0  2  0  0  0  0  0  0
  184.6190  175.8930  137.2340 O   0  0  0  0  0  1  0  0  0  0  0  0
  185.8870  175.8280  136.6480 C   0  0  1  0  0  3  0  0  0  0  0  0
  185.8990  174.8470  135.4740 C   0  0  0  0  0  2  0  0  0  0  0  0
  185.4280  173.4420  135.8590 C   0  0  0  0  0  2  0  0  0  0  0  0
  186.0120  173.0080  137.1970 C   0  0  0  0  0  2  0  0  0  0  0  0
  184.9850  172.6530  138.0750 O   0  0  0  0  0  1  0  0  0  0  0  0
  190.3640  174.7190  137.8610 O   0  0  0  0  0  0  0  0  0  0  0  0
  193.0600  174.3850  135.2820 C   0  0  1  0  0  0  0  0  0  0  0  0
  192.6700  175.8430  134.9140 C   0  0  0  0  0  2  0  0  0  0  0  0
  191.4840  174.0170  137.3440 C   0  0  2  0  0  3  0  0  0  0  0  0
  194.0600  175.4590  134.7930 C   0  0  1  0  0  3  0  0  0  0  0  0
  193.7670  174.3360  136.6180 C   0  0  1  0  0  3  0  0  0  0  0  0
  194.7040  175.4500  136.1740 C   0  0  1  0  0  3  0  0  0  0  0  0
  192.7620  174.7660  137.6710 C   0  0  0  0  0  2  0  0  0  0  0  0
  191.3420  173.8570  135.5230 S   0  0  0  0  0  0  0  0  0  0  0  0
  197.0860  175.7660  136.1910 O   0  0  0  0  0  1  0  0  0  0  0  0
  196.3640  173.6080  135.9250 O   0  0  0  0  0  0  0  0  0  0  0  0
  196.1180  174.9620  136.1050 C   0  0  0  0  0  0  0  0  0  0  0  0
  186.8410  176.2740  144.8750 O   0  0  0  0  0  1  0  0  0  0  0  0
  186.9730  176.4380  143.6350 C   0  0  0  0  0  0  0  0  0  0  0  0
  187.8430  175.6250  142.9190 O   0  0  0  0  0  0  0  0  0  0  0  0
  2  4  1  0  0  0  0
  2  1  1  0  0  0  0
  4 36  1  6  0  0  0
  4  5  1  0  0  0  0
  5 65  1  1  0  0  0
  5  3  1  0  0  0  0
  6  1  1  6  0  0  0
  6  3  1  0  0  0  0
  7 11  1  0  0  0  0
  7  6  1  1  0  0  0
  8 14  1  0  0  0  0
  9 16  1  0  0  0  0
 10 15  1  0  0  0  0
 10 16  1  0  0  0  0
 11 14  1  1  0  0  0
 12 13  1  0  0  0  0
 12 11  1  0  0  0  0
 13  8  1  0  0  0  0
 15 12  1  0  0  0  0
 16  7  1  0  0  0  0
 17 13  1  0  0  0  0
 17 23  1  0  0  0  0
 18 17  2  0  0  0  0
 19 18  1  0  0  0  0
 20 21  1  0  0  0  0
 21 19  1  0  0  0  0
 22 20  1  0  0  0  0
 22 21  1  0  0  0  0
 25 23  1  0  0  0  0
 25 24  1  0  0  0  0
 26 27  1  0  0  0  0
 26 15  1  0  0  0  0
 29 28  2  0  0  0  0
 29 27  1  0  0  0  0
 30 29  1  0  0  0  0
 31 34  2  0  0  0  0
 32 31  1  0  0  0  0
 32 30  1  0  0  0  0
 33 32  1  0  0  0  0
 34 28  1  0  0  0  0
 36 35  2  0  0  0  0
 37 39  2  0  0  0  0
 37 38  1  0  0  0  0
 38 35  1  0  0  0  0
 39 36  1  0  0  0  0
 40 37  1  0  0  0  0
 42 41  2  0  0  0  0
 42 40  1  0  0  0  0
 43 44  2  0  0  0  0
 44 42  1  0  0  0  0
 45 47  1  0  0  0  0
 45 43  1  0  0  0  0
 47 46  1  0  0  0  0
 48 49  1  0  0  0  0
 48 47  1  0  0  0  0
 49 50  1  0  0  0  0
 50 51  1  0  0  0  0
 52 41  1  0  0  0  0
 53 60  1  0  0  0  0
 53 57  1  0  0  0  0
 54 53  1  0  0  0  0
 55 59  1  0  0  0  0
 55 52  1  0  0  0  0
 56 54  1  0  0  0  0
 56 53  1  0  0  0  0
 56 58  1  0  0  0  0
 57 59  1  0  0  0  0
 58 57  1  0  0  0  0
 60 55  1  0  0  0  0
 62 63  2  0  0  0  0
 63 58  1  0  0  0  0
 63 61  1  0  0  0  0
 65 64  1  0  0  0  0
 66 65  2  0  0  0  0
M  END
>  <MODEL>
6

>  <REMARK>
 VINA RESULT:      -4.3      3.453     10.163
  Name = 
  22 active torsions:
  status: ('A' for Active; 'I' for Inactive)
    1  A    between atoms: C_5  and  C_66
    2  A    between atoms: O_8  and  N_25
    3  A    between atoms: O_8  and  C_38
    4  A    between atoms: C_9  and  C_43
    5  A    between atoms: C_9  and  C_57
    6  A    between atoms: C_11  and  C_50
    7  A    between atoms: N_12  and  C_22
    8  A    between atoms: C_13  and  C_47
    9  A    between atoms: C_17  and  C_21
   10  A    between atoms: C_17  and  O_34
   11  A    between atoms: C_18  and  C_19
   12  A    between atoms: C_18  and  C_46
   13  A    between atoms: C_20  and  C_62
   14  A    between atoms: C_22  and  C_60
   15  A    between atoms: C_27  and  C_55
   16  A    between atoms: O_34  and  C_48
   17  A    between atoms: C_35  and  C_51
   18  A    between atoms: C_39  and  C_55
   19  A    between atoms: C_46  and  C_58
   20  A    between atoms: C_47  and  C_52
   21  A    between atoms: C_52  and  C_60
   22  A    between atoms: C_57  and  O_65
                            x       y       z     vdW  Elec       q    Type
                         _______ _______ _______ _____ _____    ______ ____

>  <TORSDO>
F 22

$$$$
=
 OpenBabel11062415063D

 66 74  0  0  1  0  0  0  0  0999 V2000
  189.3900  178.8440  139.4430 C   0  0  0  0  0  2  0  0  0  0  0  0
  188.6020  177.8030  138.6560 C   0  0  0  0  0  2  0  0  0  0  0  0
  191.3910  177.2670  139.5000 C   0  0  0  0  0  2  0  0  0  0  0  0
  189.5030  176.8820  137.8340 C   0  0  1  0  0  3  0  0  0  0  0  0
  190.5940  176.2300  138.7100 C   0  0  1  0  0  3  0  0  0  0  0  0
  190.4850  178.2060  140.2960 C   0  0  2  0  0  3  0  0  0  0  0  0
  190.0400  177.7010  141.6810 C   0  0  1  0  0  3  0  0  0  0  0  0
  191.5520  179.2580  144.4280 C   0  0  0  0  0  2  0  0  0  0  0  0
  188.9090  175.6780  141.0710 O   0  0  0  0  0  1  0  0  0  0  0  0
  187.8010  176.9490  142.7600 C   0  0  0  0  0  2  0  0  0  0  0  0
  190.0460  178.7740  142.7970 C   0  0  1  0  0  3  0  0  0  0  0  0
  189.4620  178.2790  144.1200 C   0  0  2  0  0  3  0  0  0  0  0  0
  190.6370  178.2420  145.0660 C   0  0  1  0  0  3  0  0  0  0  0  0
  191.3630  179.2210  143.0360 O   0  0  0  0  0  0  0  0  0  0  0  0
  188.6420  176.9800  144.0300 C   0  0  1  0  0  3  0  0  0  0  0  0
  188.6870  176.9820  141.5130 C   0  0  1  0  0  3  0  0  0  0  0  0
  191.3120  176.8910  145.1700 C   0  0  0  0  0  0  0  0  0  0  0  0
  191.6970  176.3010  144.0260 C   0  0  0  0  0  3  0  0  0  0  0  0
  192.4480  175.0060  143.9710 C   0  0  0  0  0  2  0  0  0  0  0  0
  192.8710  172.9430  145.1970 N   0  0  0  0  0  2  0  0  0  0  0  0
  191.9220  174.0540  145.0270 C   0  0  2  0  0  3  0  0  0  0  0  0
  191.6430  172.7620  144.4080 C   0  0  0  0  0  2  0  0  0  0  0  0
  191.6820  176.3160  146.5110 C   0  0  0  0  0  2  0  0  0  0  0  0
  190.4330  177.2030  148.0110 O   0  0  0  0  0  1  0  0  0  0  0  0
  191.6350  177.3140  147.4860 O   0  0  0  0  0  0  0  0  0  0  0  0
  187.9000  176.7050  145.2000 O   0  0  0  0  0  0  0  0  0  0  0  0
  187.4820  177.9130  145.7880 C   0  0  0  0  0  2  0  0  0  0  0  0
  185.1380  178.3460  146.3590 C   0  0  0  0  0  3  0  0  0  0  0  0
  186.0700  178.1980  145.4100 C   0  0  0  0  0  0  0  0  0  0  0  0
  185.6830  178.2340  143.9550 C   0  0  0  0  0  2  0  0  0  0  0  0
  183.4210  178.9800  144.7440 C   0  0  0  0  0  3  0  0  0  0  0  0
  184.4930  179.1740  143.7050 C   0  0  1  0  0  3  0  0  0  0  0  0
  184.9270  180.4910  143.7370 F   0  0  0  0  0  0  0  0  0  0  0  0
  183.7380  178.6350  145.9950 C   0  0  0  0  0  3  0  0  0  0  0  0
  188.6020  174.5520  137.5800 N   0  0  0  0  0  0  0  0  0  0  0  0
  188.6270  175.8470  137.1940 C   0  0  0  0  0  0  0  0  0  0  0  0
  187.0860  174.9760  136.0500 C   0  0  0  0  0  0  0  0  0  0  0  0
  187.6190  173.9930  136.8510 C   0  0  0  0  0  2  0  0  0  0  0  0
  187.6960  176.1530  136.2690 N   0  0  0  0  0  0  0  0  0  0  0  0
  185.8650  174.8170  135.2060 C   0  0  0  0  0  2  0  0  0  0  0  0
  184.1790  175.1500  136.8950 N   0  0  0  0  0  0  0  0  0  0  0  0
  184.7200  174.3380  136.0360 C   0  0  0  0  0  0  0  0  0  0  0  0
  183.3040  172.6400  135.0310 N   0  0  0  0  0  0  0  0  0  0  0  0
  184.2660  172.9530  135.8350 C   0  0  0  0  0  3  0  0  0  0  0  0
  182.8730  171.2570  134.8950 C   0  0  0  0  0  2  0  0  0  0  0  0
  181.0150  169.7730  135.2470 O   0  0  0  0  0  1  0  0  0  0  0  0
  181.3970  171.1190  135.2470 C   0  0  1  0  0  3  0  0  0  0  0  0
  181.0760  171.7800  136.5880 C   0  0  0  0  0  2  0  0  0  0  0  0
  179.5950  171.6880  136.9670 C   0  0  0  0  0  2  0  0  0  0  0  0
  178.9340  173.0600  136.9580 C   0  0  0  0  0  2  0  0  0  0  0  0
  179.4590  173.8500  137.9830 O   0  0  0  0  0  1  0  0  0  0  0  0
  183.0830  174.8370  137.6650 O   0  0  0  0  0  0  0  0  0  0  0  0
  182.1030  177.7890  139.7520 C   0  0  1  0  0  0  0  0  0  0  0  0
  183.6010  177.7990  140.1590 C   0  0  0  0  0  2  0  0  0  0  0  0
  182.1400  175.8440  137.9940 C   0  0  2  0  0  3  0  0  0  0  0  0
  182.9180  179.0690  140.0480 C   0  0  1  0  0  3  0  0  0  0  0  0
  181.9310  178.2300  138.3160 C   0  0  1  0  0  3  0  0  0  0  0  0
  182.8000  179.4520  138.5770 C   0  0  1  0  0  3  0  0  0  0  0  0
  182.5950  177.1830  137.4430 C   0  0  0  0  0  2  0  0  0  0  0  0
  181.9720  175.9810  139.8140 S   0  0  0  0  0  0  0  0  0  0  0  0
  180.8270  180.6870  137.9800 O   0  0  0  0  0  0  0  0  0  0  0  0
  182.6020  181.9320  138.7190 O   0  0  0  0  0  1  0  0  0  0  0  0
  182.0110  180.7140  138.4110 C   0  0  0  0  0  0  0  0  0  0  0  0
  191.5120  174.1590  137.9730 O   0  0  0  0  0  1  0  0  0  0  0  0
  191.5400  175.4130  137.8900 C   0  0  0  0  0  0  0  0  0  0  0  0
  192.4710  176.0300  137.0620 O   0  0  0  0  0  0  0  0  0  0  0  0
  2  1  1  0  0  0  0
  3  6  1  0  0  0  0
  4 36  1  1  0  0  0
  4  2  1  0  0  0  0
  4  5  1  0  0  0  0
  5 65  1  6  0  0  0
  5  3  1  0  0  0  0
  6  1  1  6  0  0  0
  7  6  1  6  0  0  0
  7 11  1  0  0  0  0
  8 13  1  0  0  0  0
  9 16  1  0  0  0  0
 10 15  1  0  0  0  0
 11 14  1  1  0  0  0
 11 12  1  0  0  0  0
 12 13  1  0  0  0  0
 13 17  1  0  0  0  0
 14  8  1  0  0  0  0
 15 12  1  0  0  0  0
 15 26  1  0  0  0  0
 16  7  1  0  0  0  0
 16 10  1  0  0  0  0
 17 23  1  0  0  0  0
 18 17  2  0  0  0  0
 19 18  1  0  0  0  0
 19 21  1  0  0  0  0
 21 20  1  0  0  0  0
 22 21  1  0  0  0  0
 22 20  1  0  0  0  0
 23 25  1  0  0  0  0
 25 24  1  0  0  0  0
 26 27  1  0  0  0  0
 29 27  1  0  0  0  0
 29 28  2  0  0  0  0
 30 29  1  0  0  0  0
 31 34  2  0  0  0  0
 32 33  1  0  0  0  0
 32 30  1  0  0  0  0
 32 31  1  0  0  0  0
 34 28  1  0  0  0  0
 36 35  2  0  0  0  0
 37 39  2  0  0  0  0
 37 38  1  0  0  0  0
 38 35  1  0  0  0  0
 39 36  1  0  0  0  0
 40 42  1  0  0  0  0
 40 37  1  0  0  0  0
 41 52  1  0  0  0  0
 42 41  2  0  0  0  0
 43 44  2  0  0  0  0
 44 42  1  0  0  0  0
 45 43  1  0  0  0  0
 45 47  1  0  0  0  0
 46 47  1  0  0  0  0
 47 48  1  0  0  0  0
 48 49  1  0  0  0  0
 50 49  1  0  0  0  0
 50 51  1  0  0  0  0
 52 55  1  0  0  0  0
 53 60  1  0  0  0  0
 53 56  1  0  0  0  0
 53 54  1  0  0  0  0
 55 60  1  0  0  0  0
 56 54  1  0  0  0  0
 57 58  1  0  0  0  0
 57 53  1  0  0  0  0
 58 56  1  0  0  0  0
 59 55  1  0  0  0  0
 59 57  1  0  0  0  0
 61 63  2  0  0  0  0
 63 58  1  0  0  0  0
 63 62  1  0  0  0  0
 65 64  1  0  0  0  0
 66 65  2  0  0  0  0
M  END
>  <MODEL>
7

>  <REMARK>
 VINA RESULT:      -4.0      1.799      2.326
  Name = 
  22 active torsions:
  status: ('A' for Active; 'I' for Inactive)
    1  A    between atoms: C_5  and  C_66
    2  A    between atoms: O_8  and  N_25
    3  A    between atoms: O_8  and  C_38
    4  A    between atoms: C_9  and  C_43
    5  A    between atoms: C_9  and  C_57
    6  A    between atoms: C_11  and  C_50
    7  A    between atoms: N_12  and  C_22
    8  A    between atoms: C_13  and  C_47
    9  A    between atoms: C_17  and  C_21
   10  A    between atoms: C_17  and  O_34
   11  A    between atoms: C_18  and  C_19
   12  A    between atoms: C_18  and  C_46
   13  A    between atoms: C_20  and  C_62
   14  A    between atoms: C_22  and  C_60
   15  A    between atoms: C_27  and  C_55
   16  A    between atoms: O_34  and  C_48
   17  A    between atoms: C_35  and  C_51
   18  A    between atoms: C_39  and  C_55
   19  A    between atoms: C_46  and  C_58
   20  A    between atoms: C_47  and  C_52
   21  A    between atoms: C_52  and  C_60
   22  A    between atoms: C_57  and  O_65
                            x       y       z     vdW  Elec       q    Type
                         _______ _______ _______ _____ _____    ______ ____

>  <TORSDO>
F 22

$$$$
=
 OpenBabel11062415063D

 66 74  0  0  1  0  0  0  0  0999 V2000
  185.3180  180.4670  142.3530 C   0  0  0  0  0  2  0  0  0  0  0  0
  186.4530  179.8830  141.5210 C   0  0  0  0  0  2  0  0  0  0  0  0
  185.1990  178.3000  143.6890 C   0  0  0  0  0  2  0  0  0  0  0  0
  187.2550  178.8270  142.2810 C   0  0  1  0  0  3  0  0  0  0  0  0
  186.3380  177.7240  142.8500 C   0  0  1  0  0  3  0  0  0  0  0  0
  184.4190  179.3790  142.9370 C   0  0  2  0  0  3  0  0  0  0  0  0
  183.2950  178.8770  142.0120 C   0  0  1  0  0  3  0  0  0  0  0  0
  184.2740  177.9860  138.7710 C   0  0  0  0  0  2  0  0  0  0  0  0
  181.3620  179.5470  143.2610 O   0  0  0  0  0  1  0  0  0  0  0  0
  181.1910  177.3790  142.2780 C   0  0  0  0  0  2  0  0  0  0  0  0
  183.7340  177.8180  140.9720 C   0  0  1  0  0  3  0  0  0  0  0  0
  182.5710  177.2340  140.1690 C   0  0  2  0  0  3  0  0  0  0  0  0
  182.7860  177.7390  138.7630 C   0  0  1  0  0  3  0  0  0  0  0  0
  184.6570  178.3800  140.0650 O   0  0  0  0  0  0  0  0  0  0  0  0
  181.1730  177.4910  140.7590 C   0  0  1  0  0  3  0  0  0  0  0  0
  182.1140  178.4300  142.8970 C   0  0  1  0  0  3  0  0  0  0  0  0
  182.0250  179.0050  138.4320 C   0  0  0  0  0  0  0  0  0  0  0  0
  181.8480  179.8980  139.4200 C   0  0  0  0  0  3  0  0  0  0  0  0
  181.1900  181.2300  139.2280 C   0  0  0  0  0  2  0  0  0  0  0  0
  181.9280  183.3810  138.3530 N   0  0  0  0  0  2  0  0  0  0  0  0
  181.8050  181.9490  138.0430 C   0  0  2  0  0  3  0  0  0  0  0  0
  180.8340  182.8930  137.5000 C   0  0  0  0  0  2  0  0  0  0  0  0
  181.6320  179.3180  137.0130 C   0  0  0  0  0  2  0  0  0  0  0  0
  180.6860  178.2870  135.3890 O   0  0  0  0  0  1  0  0  0  0  0  0
  181.6820  178.1580  136.2380 O   0  0  0  0  0  0  0  0  0  0  0  0
  180.1600  176.7160  140.1520 O   0  0  0  0  0  0  0  0  0  0  0  0
  180.5320  175.3590  140.1660 C   0  0  0  0  0  2  0  0  0  0  0  0
  180.3820  175.4790  137.7220 C   0  0  0  0  0  3  0  0  0  0  0  0
  180.2600  174.7470  138.8350 C   0  0  0  0  0  0  0  0  0  0  0  0
  179.7660  173.3270  138.7590 C   0  0  0  0  0  2  0  0  0  0  0  0
  179.9890  173.5570  136.2700 C   0  0  0  0  0  3  0  0  0  0  0  0
  180.1950  172.6450  137.4490 C   0  0  1  0  0  3  0  0  0  0  0  0
  181.5330  172.2920  137.5270 F   0  0  0  0  0  0  0  0  0  0  0  0
  180.1230  174.8810  136.3990 C   0  0  0  0  0  3  0  0  0  0  0  0
  189.2020  177.3530  141.6940 N   0  0  0  0  0  0  0  0  0  0  0  0
  188.2670  178.2590  141.3310 C   0  0  0  0  0  0  0  0  0  0  0  0
  189.2360  177.7390  139.5330 C   0  0  0  0  0  0  0  0  0  0  0  0
  189.8220  177.0180  140.5480 C   0  0  0  0  0  2  0  0  0  0  0  0
  188.2420  178.5080  140.0070 N   0  0  0  0  0  0  0  0  0  0  0  0
  189.5150  177.5440  138.0800 C   0  0  0  0  0  2  0  0  0  0  0  0
  188.1140  175.7110  137.3890 N   0  0  0  0  0  0  0  0  0  0  0  0
  189.3090  176.1150  137.6980 C   0  0  0  0  0  0  0  0  0  0  0  0
  191.6310  175.5910  137.2150 N   0  0  0  0  0  0  0  0  0  0  0  0
  190.4870  175.2330  137.7000 C   0  0  0  0  0  3  0  0  0  0  0  0
  192.7540  174.6670  137.2120 C   0  0  0  0  0  2  0  0  0  0  0  0
  194.6420  175.6200  138.3550 O   0  0  0  0  0  1  0  0  0  0  0  0
  194.0720  175.4240  137.0930 C   0  0  1  0  0  3  0  0  0  0  0  0
  195.0460  174.7080  136.1560 C   0  0  0  0  0  2  0  0  0  0  0  0
  196.4710  175.2660  136.2280 C   0  0  0  0  0  2  0  0  0  0  0  0
  197.4310  174.2590  136.8480 C   0  0  0  0  0  2  0  0  0  0  0  0
  196.8170  173.0070  136.9380 O   0  0  0  0  0  1  0  0  0  0  0  0
  187.8180  174.4360  136.9640 O   0  0  0  0  0  0  0  0  0  0  0  0
  184.2960  173.5630  136.0360 C   0  0  1  0  0  0  0  0  0  0  0  0
  184.7560  173.9150  134.5940 C   0  0  0  0  0  2  0  0  0  0  0  0
  186.5730  173.8480  137.3040 C   0  0  2  0  0  3  0  0  0  0  0  0
  183.7870  172.8530  134.7600 C   0  0  1  0  0  3  0  0  0  0  0  0
  184.9260  172.2710  136.5040 C   0  0  1  0  0  3  0  0  0  0  0  0
  184.4990  171.5850  135.2140 C   0  0  1  0  0  3  0  0  0  0  0  0
  186.4200  172.5110  136.6020 C   0  0  0  0  0  2  0  0  0  0  0  0
  185.1970  174.9450  136.7910 S   0  0  0  0  0  0  0  0  0  0  0  0
  183.7110  169.6680  136.4300 O   0  0  0  0  0  1  0  0  0  0  0  0
  182.3900  170.3630  134.6920 O   0  0  0  0  0  0  0  0  0  0  0  0
  183.5180  170.4880  135.4920 C   0  0  0  0  0  0  0  0  0  0  0  0
  187.3810  175.6130  143.2170 O   0  0  0  0  0  0  0  0  0  0  0  0
  187.1080  176.7480  143.6830 C   0  0  0  0  0  0  0  0  0  0  0  0
  187.4920  177.0740  144.9780 O   0  0  0  0  0  1  0  0  0  0  0  0
  2  4  1  0  0  0  0
  2  1  1  0  0  0  0
  4 36  1  6  0  0  0
  4  5  1  0  0  0  0
  5 65  1  1  0  0  0
  5  3  1  0  0  0  0
  6  1  1  6  0  0  0
  6  3  1  0  0  0  0
  7 16  1  0  0  0  0
  7  6  1  1  0  0  0
  8 14  1  0  0  0  0
 10 16  1  0  0  0  0
 11 14  1  6  0  0  0
 11  7  1  0  0  0  0
 12 15  1  0  0  0  0
 12 11  1  0  0  0  0
 13  8  1  0  0  0  0
 13 12  1  0  0  0  0
 15 10  1  0  0  0  0
 16  9  1  0  0  0  0
 17 13  1  0  0  0  0
 17 18  2  0  0  0  0
 19 18  1  0  0  0  0
 21 20  1  0  0  0  0
 21 19  1  0  0  0  0
 22 21  1  0  0  0  0
 22 20  1  0  0  0  0
 23 17  1  0  0  0  0
 24 25  1  0  0  0  0
 25 23  1  0  0  0  0
 26 27  1  0  0  0  0
 26 15  1  0  0  0  0
 28 29  2  0  0  0  0
 29 27  1  0  0  0  0
 30 29  1  0  0  0  0
 31 34  2  0  0  0  0
 31 32  1  0  0  0  0
 32 33  1  0  0  0  0
 32 30  1  0  0  0  0
 34 28  1  0  0  0  0
 36 35  2  0  0  0  0
 37 39  2  0  0  0  0
 37 38  1  0  0  0  0
 38 35  1  0  0  0  0
 39 36  1  0  0  0  0
 40 37  1  0  0  0  0
 41 42  2  0  0  0  0
 42 44  1  0  0  0  0
 42 40  1  0  0  0  0
 43 44  2  0  0  0  0
 45 43  1  0  0  0  0
 47 45  1  0  0  0  0
 47 46  1  0  0  0  0
 48 49  1  0  0  0  0
 48 47  1  0  0  0  0
 49 50  1  0  0  0  0
 50 51  1  0  0  0  0
 52 55  1  0  0  0  0
 52 41  1  0  0  0  0
 53 57  1  0  0  0  0
 53 60  1  0  0  0  0
 54 56  1  0  0  0  0
 54 53  1  0  0  0  0
 56 58  1  0  0  0  0
 56 53  1  0  0  0  0
 57 59  1  0  0  0  0
 58 63  1  0  0  0  0
 58 57  1  0  0  0  0
 59 55  1  0  0  0  0
 60 55  1  0  0  0  0
 62 63  2  0  0  0  0
 63 61  1  0  0  0  0
 64 65  2  0  0  0  0
 65 66  1  0  0  0  0
M  END
>  <MODEL>
8

>  <REMARK>
 VINA RESULT:      -3.7      3.310     10.085
  Name = 
  22 active torsions:
  status: ('A' for Active; 'I' for Inactive)
    1  A    between atoms: C_5  and  C_66
    2  A    between atoms: O_8  and  N_25
    3  A    between atoms: O_8  and  C_38
    4  A    between atoms: C_9  and  C_43
    5  A    between atoms: C_9  and  C_57
    6  A    between atoms: C_11  and  C_50
    7  A    between atoms: N_12  and  C_22
    8  A    between atoms: C_13  and  C_47
    9  A    between atoms: C_17  and  C_21
   10  A    between atoms: C_17  and  O_34
   11  A    between atoms: C_18  and  C_19
   12  A    between atoms: C_18  and  C_46
   13  A    between atoms: C_20  and  C_62
   14  A    between atoms: C_22  and  C_60
   15  A    between atoms: C_27  and  C_55
   16  A    between atoms: O_34  and  C_48
   17  A    between atoms: C_35  and  C_51
   18  A    between atoms: C_39  and  C_55
   19  A    between atoms: C_46  and  C_58
   20  A    between atoms: C_47  and  C_52
   21  A    between atoms: C_52  and  C_60
   22  A    between atoms: C_57  and  O_65
                            x       y       z     vdW  Elec       q    Type
                         _______ _______ _______ _____ _____    ______ ____

>  <TORSDO>
F 22

$$$$
=
 OpenBabel11062415063D

 66 74  0  0  1  0  0  0  0  0999 V2000
  191.3520  178.4390  140.6070 C   0  0  0  0  0  2  0  0  0  0  0  0
  190.1790  178.7560  139.6870 C   0  0  0  0  0  2  0  0  0  0  0  0
  190.9740  175.9500  140.2110 C   0  0  0  0  0  2  0  0  0  0  0  0
  189.9440  177.6690  138.6380 C   0  0  1  0  0  3  0  0  0  0  0  0
  189.8000  176.2780  139.2900 C   0  0  1  0  0  3  0  0  0  0  0  0
  191.2250  177.0540  141.2380 C   0  0  2  0  0  3  0  0  0  0  0  0
  190.3810  176.9840  142.5240 C   0  0  1  0  0  3  0  0  0  0  0  0
  191.1510  179.3530  144.9830 C   0  0  0  0  0  2  0  0  0  0  0  0
  189.3480  174.8370  142.2570 O   0  0  0  0  0  1  0  0  0  0  0  0
  187.8890  176.5300  143.0950 C   0  0  0  0  0  2  0  0  0  0  0  0
  190.1370  178.3470  143.2160 C   0  0  1  0  0  3  0  0  0  0  0  0
  189.1770  178.2630  144.4030 C   0  0  2  0  0  3  0  0  0  0  0  0
  190.0350  178.5540  145.6100 C   0  0  1  0  0  3  0  0  0  0  0  0
  191.3580  178.8860  143.6740 O   0  0  0  0  0  0  0  0  0  0  0  0
  188.3400  176.9740  144.4800 C   0  0  1  0  0  3  0  0  0  0  0  0
  189.0890  176.2070  142.2030 C   0  0  1  0  0  3  0  0  0  0  0  0
  190.5730  177.3210  146.3040 C   0  0  0  0  0  0  0  0  0  0  0  0
  191.6850  176.7610  145.8010 C   0  0  0  0  0  3  0  0  0  0  0  0
  192.3810  175.5890  146.4240 C   0  0  0  0  0  2  0  0  0  0  0  0
  192.9780  173.9350  144.7380 N   0  0  0  0  0  2  0  0  0  0  0  0
  191.9610  174.3070  145.7330 C   0  0  2  0  0  3  0  0  0  0  0  0
  191.7260  174.5820  144.3190 C   0  0  0  0  0  2  0  0  0  0  0  0
  189.9760  176.8470  147.6030 C   0  0  0  0  0  2  0  0  0  0  0  0
  189.1930  178.2430  149.0290 O   0  0  0  0  0  1  0  0  0  0  0  0
  188.8560  177.6180  147.9210 O   0  0  0  0  0  0  0  0  0  0  0  0
  187.2840  177.0490  145.4160 O   0  0  0  0  0  0  0  0  0  0  0  0
  186.7920  178.3650  145.4670 C   0  0  0  0  0  2  0  0  0  0  0  0
  184.4050  178.9170  145.5710 C   0  0  0  0  0  3  0  0  0  0  0  0
  185.4290  178.4190  144.8670 C   0  0  0  0  0  0  0  0  0  0  0  0
  185.1960  177.8320  143.5010 C   0  0  0  0  0  2  0  0  0  0  0  0
  182.8720  178.7630  143.6780 C   0  0  0  0  0  3  0  0  0  0  0  0
  184.0480  178.5430  142.7640 C   0  0  1  0  0  3  0  0  0  0  0  0
  184.4900  179.7660  142.2860 F   0  0  0  0  0  0  0  0  0  0  0  0
  183.0540  178.9810  144.9840 C   0  0  0  0  0  3  0  0  0  0  0  0
  188.7030  178.2510  136.5350 N   0  0  0  0  0  0  0  0  0  0  0  0
  188.7120  178.0420  137.8700 C   0  0  0  0  0  0  0  0  0  0  0  0
  186.6830  178.3450  137.3880 C   0  0  0  0  0  0  0  0  0  0  0  0
  187.4080  178.4440  136.2230 C   0  0  0  0  0  2  0  0  0  0  0  0
  187.4870  178.0710  138.4290 N   0  0  0  0  0  0  0  0  0  0  0  0
  185.1920  178.3320  137.4630 C   0  0  0  0  0  2  0  0  0  0  0  0
  185.3790  176.0450  136.7290 N   0  0  0  0  0  0  0  0  0  0  0  0
  184.6800  176.9320  137.3700 C   0  0  0  0  0  0  0  0  0  0  0  0
  183.2330  176.6290  139.2970 N   0  0  0  0  0  0  0  0  0  0  0  0
  183.3900  176.6350  138.0140 C   0  0  0  0  0  3  0  0  0  0  0  0
  181.9430  176.2960  139.8820 C   0  0  0  0  0  2  0  0  0  0  0  0
  179.7170  175.9620  139.0400 O   0  0  0  0  0  1  0  0  0  0  0  0
  180.8080  176.8370  139.0210 C   0  0  1  0  0  3  0  0  0  0  0  0
  180.3920  178.2420  139.4610 C   0  0  0  0  0  2  0  0  0  0  0  0
  179.2670  178.2400  140.4990 C   0  0  0  0  0  2  0  0  0  0  0  0
  179.7740  177.7970  141.8660 C   0  0  0  0  0  2  0  0  0  0  0  0
  178.9570  178.3200  142.8710 O   0  0  0  0  0  1  0  0  0  0  0  0
  185.0350  174.7160  136.6330 O   0  0  0  0  0  0  0  0  0  0  0  0
  182.8860  172.0460  135.1220 C   0  0  1  0  0  0  0  0  0  0  0  0
  183.8070  171.0770  135.9140 C   0  0  0  0  0  2  0  0  0  0  0  0
  183.8540  174.3400  135.9430 C   0  0  2  0  0  3  0  0  0  0  0  0
  182.4140  170.7180  135.7590 C   0  0  1  0  0  3  0  0  0  0  0  0
  181.9810  172.8170  136.0570 C   0  0  1  0  0  3  0  0  0  0  0  0
  181.5720  171.5210  136.7430 C   0  0  1  0  0  3  0  0  0  0  0  0
  182.8690  173.7050  136.9070 C   0  0  0  0  0  2  0  0  0  0  0  0
  184.2520  173.1310  134.6240 S   0  0  0  0  0  0  0  0  0  0  0  0
  179.2410  171.9300  137.1560 O   0  0  0  0  0  1  0  0  0  0  0  0
  179.7160  170.2270  135.7000 O   0  0  0  0  0  0  0  0  0  0  0  0
  180.1130  171.2520  136.5480 C   0  0  0  0  0  0  0  0  0  0  0  0
  188.5650  174.6470  138.0680 O   0  0  0  0  0  1  0  0  0  0  0  0
  189.6770  175.2000  138.2600 C   0  0  0  0  0  0  0  0  0  0  0  0
  190.7900  174.7830  137.5380 O   0  0  0  0  0  0  0  0  0  0  0  0
  1  6  1  0  0  0  0
  2  1  1  0  0  0  0
  4 36  1  1  0  0  0
  4  5  1  0  0  0  0
  4  2  1  0  0  0  0
  5 65  1  6  0  0  0
  5  3  1  0  0  0  0
  6  3  1  6  0  0  0
  7  6  1  6  0  0  0
  7 11  1  0  0  0  0
  8 13  1  0  0  0  0
 10 15  1  0  0  0  0
 11 14  1  1  0  0  0
 11 12  1  0  0  0  0
 12 15  1  0  0  0  0
 12 13  1  0  0  0  0
 13 17  1  0  0  0  0
 14  8  1  0  0  0  0
 15 26  1  0  0  0  0
 16  9  1  0  0  0  0
 16  7  1  0  0  0  0
 16 10  1  0  0  0  0
 17 23  1  0  0  0  0
 18 17  2  0  0  0  0
 18 19  1  0  0  0  0
 20 21  1  0  0  0  0
 21 19  1  0  0  0  0
 22 20  1  0  0  0  0
 22 21  1  0  0  0  0
 23 25  1  0  0  0  0
 25 24  1  0  0  0  0
 26 27  1  0  0  0  0
 29 27  1  0  0  0  0
 29 28  2  0  0  0  0
 30 29  1  0  0  0  0
 31 34  2  0  0  0  0
 32 30  1  0  0  0  0
 32 31  1  0  0  0  0
 33 32  1  0  0  0  0
 34 28  1  0  0  0  0
 35 36  2  0  0  0  0
 36 39  1  0  0  0  0
 37 40  1  0  0  0  0
 37 39  2  0  0  0  0
 38 35  1  0  0  0  0
 38 37  1  0  0  0  0
 41 42  2  0  0  0  0
 42 40  1  0  0  0  0
 42 44  1  0  0  0  0
 43 45  1  0  0  0  0
 44 43  2  0  0  0  0
 47 46  1  0  0  0  0
 47 48  1  0  0  0  0
 47 45  1  0  0  0  0
 48 49  1  0  0  0  0
 49 50  1  0  0  0  0
 50 51  1  0  0  0  0
 52 41  1  0  0  0  0
 53 56  1  0  0  0  0
 53 54  1  0  0  0  0
 53 57  1  0  0  0  0
 55 52  1  0  0  0  0
 55 59  1  0  0  0  0
 56 54  1  0  0  0  0
 56 58  1  0  0  0  0
 57 58  1  0  0  0  0
 57 59  1  0  0  0  0
 60 53  1  0  0  0  0
 60 55  1  0  0  0  0
 62 63  2  0  0  0  0
 63 58  1  0  0  0  0
 63 61  1  0  0  0  0
 64 65  1  0  0  0  0
 66 65  2  0  0  0  0
M  END
>  <MODEL>
9

>  <REMARK>
 VINA RESULT:      -3.3      1.936      4.417
  Name = 
  22 active torsions:
  status: ('A' for Active; 'I' for Inactive)
    1  A    between atoms: C_5  and  C_66
    2  A    between atoms: O_8  and  N_25
    3  A    between atoms: O_8  and  C_38
    4  A    between atoms: C_9  and  C_43
    5  A    between atoms: C_9  and  C_57
    6  A    between atoms: C_11  and  C_50
    7  A    between atoms: N_12  and  C_22
    8  A    between atoms: C_13  and  C_47
    9  A    between atoms: C_17  and  C_21
   10  A    between atoms: C_17  and  O_34
   11  A    between atoms: C_18  and  C_19
   12  A    between atoms: C_18  and  C_46
   13  A    between atoms: C_20  and  C_62
   14  A    between atoms: C_22  and  C_60
   15  A    between atoms: C_27  and  C_55
   16  A    between atoms: O_34  and  C_48
   17  A    between atoms: C_35  and  C_51
   18  A    between atoms: C_39  and  C_55
   19  A    between atoms: C_46  and  C_58
   20  A    between atoms: C_47  and  C_52
   21  A    between atoms: C_52  and  C_60
   22  A    between atoms: C_57  and  O_65
                            x       y       z     vdW  Elec       q    Type
                         _______ _______ _______ _____ _____    ______ ____

>  <TORSDO>
F 22

$$$$
