=
 OpenBabel11062417013D

 26 29  0  0  0  0  0  0  0  0999 V2000
  186.1460  178.2160  144.4140 C   0  0  0  0  0  0  0  0  0  0  0  0
  189.2110  176.9050  147.0520 O   0  0  0  0  0  0  0  0  0  0  0  0
  186.9480  177.9300  145.4890 C   0  0  0  0  0  0  0  0  0  0  0  0
  184.9100  178.8410  144.5750 C   0  0  0  0  0  3  0  0  0  0  0  0
  190.6290  176.7620  145.1790 C   0  0  0  0  0  0  0  0  0  0  0  0
  185.3410  178.8720  146.9470 N   0  0  0  0  0  0  0  0  0  0  0  0
  189.1450  178.9890  139.8110 C   0  0  0  0  0  3  0  0  0  0  0  0
  187.0210  178.2260  140.8090 N   0  0  0  0  0  0  0  0  0  0  0  0
  187.3350  178.1240  138.4270 C   0  0  0  0  0  3  0  0  0  0  0  0
  188.1010  177.3330  145.0110 C   0  0  0  0  0  0  0  0  0  0  0  0
  186.1880  177.9230  141.9370 C   0  0  0  0  0  0  0  0  0  0  0  0
  189.5640  178.6080  137.5570 F   0  0  0  0  0  0  0  0  0  0  0  0
  186.7400  177.8400  143.2630 N   0  0  0  0  0  0  0  0  0  0  0  0
  188.2200  179.0550  140.9960 C   0  0  0  0  0  2  0  0  0  0  0  0
  187.9250  177.2850  143.6270 C   0  0  0  0  0  0  0  0  0  0  0  0
  184.5230  179.1620  145.8870 C   0  0  0  0  0  3  0  0  0  0  0  0
  188.7810  176.6000  142.7130 N   0  0  0  0  0  2  0  0  0  0  0  0
  189.2970  176.9560  145.7960 C   0  0  0  0  0  0  0  0  0  0  0  0
  186.5420  177.9430  139.4830 C   0  0  0  0  0  3  0  0  0  0  0  0
  186.5520  178.2640  146.7820 C   0  0  0  0  0  3  0  0  0  0  0  0
  184.9520  177.7320  141.7700 O   0  0  0  0  0  0  0  0  0  0  0  0
  188.7120  178.6030  138.6090 C   0  0  0  0  0  0  0  0  0  0  0  0
  189.7230  175.5860  143.1540 C   0  0  0  0  0  2  0  0  0  0  0  0
  190.8100  176.1830  143.9850 C   0  0  0  0  0  3  0  0  0  0  0  0
  192.3560  176.4080  146.7940 O   0  0  0  0  0  1  0  0  0  0  0  0
  191.7420  177.1990  145.9020 O   0  0  0  0  0  0  0  0  0  0  0  0
  1  4  2  0  0  0  0
  1  3  1  0  0  0  0
  3 20  2  0  0  0  0
  4 16  1  0  0  0  0
  5 18  1  0  0  0  0
  5 26  1  0  0  0  0
  7 14  1  0  0  0  0
  8 14  1  0  0  0  0
  8 11  1  0  0  0  0
  9 22  1  0  0  0  0
  9 19  2  0  0  0  0
 10  3  1  0  0  0  0
 10 18  1  0  0  0  0
 11 13  1  0  0  0  0
 12 22  1  0  0  0  0
 13 15  1  0  0  0  0
 13  1  1  0  0  0  0
 15 10  2  0  0  0  0
 16  6  2  0  0  0  0
 17 23  1  0  0  0  0
 17 15  1  0  0  0  0
 18  2  2  0  0  0  0
 19  8  1  0  0  0  0
 20  6  1  0  0  0  0
 21 11  2  0  0  0  0
 22  7  2  0  0  0  0
 23 24  1  0  0  0  0
 24  5  2  0  0  0  0
 26 25  1  0  0  0  0
M  END
>  <MODEL>
1

>  <REMARK>
 VINA RESULT:      -8.1      0.000      0.000
  Name = 
  1 active torsions:
  status: ('A' for Active; 'I' for Inactive)
    1  A    between atoms: C_5  and  O_18
                            x       y       z     vdW  Elec       q    Type
                         _______ _______ _______ _____ _____    ______ ____

>  <TORSDO>
F 1

$$$$
=
 OpenBabel11062417013D

 26 29  0  0  0  0  0  0  0  0999 V2000
  187.8270  177.9770  139.9650 C   0  0  0  0  0  0  0  0  0  0  0  0
  191.9100  176.9790  140.5950 O   0  0  0  0  0  0  0  0  0  0  0  0
  189.1260  177.5500  139.8630 C   0  0  0  0  0  0  0  0  0  0  0  0
  186.9580  177.9240  138.8760 C   0  0  0  0  0  3  0  0  0  0  0  0
  191.4760  177.0650  142.9060 C   0  0  0  0  0  0  0  0  0  0  0  0
  188.7730  176.9900  137.5930 N   0  0  0  0  0  0  0  0  0  0  0  0
  185.9250  177.4410  145.1490 C   0  0  0  0  0  3  0  0  0  0  0  0
  185.8550  178.6930  143.0240 N   0  0  0  0  0  0  0  0  0  0  0  0
  184.4670  179.3730  144.8660 C   0  0  0  0  0  3  0  0  0  0  0  0
  189.7230  177.7110  141.1010 C   0  0  0  0  0  0  0  0  0  0  0  0
  186.3270  178.9640  141.6960 C   0  0  0  0  0  0  0  0  0  0  0  0
  184.8220  178.2730  147.0170 F   0  0  0  0  0  0  0  0  0  0  0  0
  187.5580  178.3940  141.2190 N   0  0  0  0  0  0  0  0  0  0  0  0
  186.1990  177.4190  143.6700 C   0  0  0  0  0  2  0  0  0  0  0  0
  188.7190  178.2490  141.9090 C   0  0  0  0  0  0  0  0  0  0  0  0
  187.4730  177.4160  137.6710 C   0  0  0  0  0  3  0  0  0  0  0  0
  188.9080  178.7450  143.2340 N   0  0  0  0  0  2  0  0  0  0  0  0
  191.0830  177.2810  141.4950 C   0  0  0  0  0  0  0  0  0  0  0  0
  184.8490  179.5430  143.6010 C   0  0  0  0  0  3  0  0  0  0  0  0
  189.6170  177.0410  138.6640 C   0  0  0  0  0  3  0  0  0  0  0  0
  185.6520  179.7050  140.9310 O   0  0  0  0  0  0  0  0  0  0  0  0
  185.0800  178.3200  145.6890 C   0  0  0  0  0  0  0  0  0  0  0  0
  190.2250  179.0710  143.7530 C   0  0  0  0  0  2  0  0  0  0  0  0
  191.0620  177.8450  143.9130 C   0  0  0  0  0  3  0  0  0  0  0  0
  192.0750  175.1170  144.1560 O   0  0  0  0  0  1  0  0  0  0  0  0
  192.3350  175.9980  143.1780 O   0  0  0  0  0  0  0  0  0  0  0  0
  1 13  1  0  0  0  0
  2 18  2  0  0  0  0
  3  1  1  0  0  0  0
  3 10  1  0  0  0  0
  4  1  2  0  0  0  0
  5 26  1  0  0  0  0
  5 24  2  0  0  0  0
  6 16  2  0  0  0  0
  6 20  1  0  0  0  0
  7 22  2  0  0  0  0
  8 19  1  0  0  0  0
  8 14  1  0  0  0  0
  9 22  1  0  0  0  0
 10 18  1  0  0  0  0
 10 15  2  0  0  0  0
 11  8  1  0  0  0  0
 13 11  1  0  0  0  0
 13 15  1  0  0  0  0
 14  7  1  0  0  0  0
 15 17  1  0  0  0  0
 16  4  1  0  0  0  0
 17 23  1  0  0  0  0
 18  5  1  0  0  0  0
 19  9  2  0  0  0  0
 20  3  2  0  0  0  0
 21 11  2  0  0  0  0
 22 12  1  0  0  0  0
 23 24  1  0  0  0  0
 26 25  1  0  0  0  0
M  END
>  <MODEL>
2

>  <REMARK>
 VINA RESULT:      -7.7      2.941      5.601
  Name = 
  1 active torsions:
  status: ('A' for Active; 'I' for Inactive)
    1  A    between atoms: C_5  and  O_18
                            x       y       z     vdW  Elec       q    Type
                         _______ _______ _______ _____ _____    ______ ____

>  <TORSDO>
F 1

$$$$
=
 OpenBabel11062417013D

 26 29  0  0  0  0  0  0  0  0999 V2000
  187.8000  177.9330  146.6670 C   0  0  0  0  0  0  0  0  0  0  0  0
  191.6330  176.4760  145.5490 O   0  0  0  0  0  0  0  0  0  0  0  0
  189.1190  177.5640  146.6020 C   0  0  0  0  0  0  0  0  0  0  0  0
  187.2540  178.4750  147.8300 C   0  0  0  0  0  3  0  0  0  0  0  0
  190.9280  176.6200  143.3080 C   0  0  0  0  0  0  0  0  0  0  0  0
  189.4310  178.2530  148.8430 N   0  0  0  0  0  0  0  0  0  0  0  0
  185.8570  179.3780  141.6750 C   0  0  0  0  0  3  0  0  0  0  0  0
  185.3830  178.4030  143.8920 N   0  0  0  0  0  0  0  0  0  0  0  0
  183.6260  178.5910  142.2620 C   0  0  0  0  0  3  0  0  0  0  0  0
  189.3610  177.0830  145.3270 C   0  0  0  0  0  0  0  0  0  0  0  0
  185.7950  177.9310  145.1830 C   0  0  0  0  0  0  0  0  0  0  0  0
  184.2470  179.2800  140.0030 F   0  0  0  0  0  0  0  0  0  0  0  0
  187.1860  177.7230  145.4850 N   0  0  0  0  0  0  0  0  0  0  0  0
  186.2860  179.2610  143.1130 C   0  0  0  0  0  2  0  0  0  0  0  0
  188.1320  177.1870  144.6720 C   0  0  0  0  0  0  0  0  0  0  0  0
  188.1150  178.6240  148.9310 C   0  0  0  0  0  3  0  0  0  0  0  0
  187.8430  176.6550  143.3790 N   0  0  0  0  0  2  0  0  0  0  0  0
  190.6670  176.6770  144.7640 C   0  0  0  0  0  0  0  0  0  0  0  0
  184.0100  178.2520  143.4910 C   0  0  0  0  0  3  0  0  0  0  0  0
  189.9600  177.7270  147.7000 C   0  0  0  0  0  3  0  0  0  0  0  0
  184.9290  177.7010  146.0710 O   0  0  0  0  0  0  0  0  0  0  0  0
  184.6060  179.1130  141.2970 C   0  0  0  0  0  0  0  0  0  0  0  0
  188.6800  175.6430  142.7590 C   0  0  0  0  0  2  0  0  0  0  0  0
  190.0260  176.1920  142.4160 C   0  0  0  0  0  3  0  0  0  0  0  0
  192.3790  177.5010  141.6250 O   0  0  0  0  0  1  0  0  0  0  0  0
  192.1890  177.0230  142.8640 O   0  0  0  0  0  0  0  0  0  0  0  0
  1  4  1  0  0  0  0
  3  1  2  0  0  0  0
  3 20  1  0  0  0  0
  4 16  2  0  0  0  0
  5 18  1  0  0  0  0
  6 16  1  0  0  0  0
  7 14  1  0  0  0  0
  8 11  1  0  0  0  0
  9 19  2  0  0  0  0
 10  3  1  0  0  0  0
 11 13  1  0  0  0  0
 11 21  2  0  0  0  0
 12 22  1  0  0  0  0
 13  1  1  0  0  0  0
 14  8  1  0  0  0  0
 15 10  2  0  0  0  0
 15 13  1  0  0  0  0
 17 15  1  0  0  0  0
 18 10  1  0  0  0  0
 18  2  2  0  0  0  0
 19  8  1  0  0  0  0
 20  6  2  0  0  0  0
 22  7  2  0  0  0  0
 22  9  1  0  0  0  0
 23 17  1  0  0  0  0
 24 23  1  0  0  0  0
 24  5  2  0  0  0  0
 25 26  1  0  0  0  0
 26  5  1  0  0  0  0
M  END
>  <MODEL>
3

>  <REMARK>
 VINA RESULT:      -7.5      2.483      3.544
  Name = 
  1 active torsions:
  status: ('A' for Active; 'I' for Inactive)
    1  A    between atoms: C_5  and  O_18
                            x       y       z     vdW  Elec       q    Type
                         _______ _______ _______ _____ _____    ______ ____

>  <TORSDO>
F 1

$$$$
=
 OpenBabel11062417013D

 26 29  0  0  0  0  0  0  0  0999 V2000
  189.5810  177.5060  141.3270 C   0  0  0  0  0  0  0  0  0  0  0  0
  185.7520  178.8700  140.0840 O   0  0  0  0  0  0  0  0  0  0  0  0
  188.2740  177.9090  141.2380 C   0  0  0  0  0  0  0  0  0  0  0  0
  190.1610  177.1840  142.5530 C   0  0  0  0  0  3  0  0  0  0  0  0
  186.3490  178.2530  137.8930 C   0  0  0  0  0  0  0  0  0  0  0  0
  188.0410  177.6950  143.5820 N   0  0  0  0  0  0  0  0  0  0  0  0
  191.2450  175.0150  136.6570 C   0  0  0  0  0  3  0  0  0  0  0  0
  191.8520  176.3910  138.6120 N   0  0  0  0  0  0  0  0  0  0  0  0
  193.5260  175.8080  136.9880 C   0  0  0  0  0  3  0  0  0  0  0  0
  187.9900  178.1360  139.9030 C   0  0  0  0  0  0  0  0  0  0  0  0
  191.5150  177.1280  139.7970 C   0  0  0  0  0  0  0  0  0  0  0  0
  192.7800  174.7090  134.9390 F   0  0  0  0  0  0  0  0  0  0  0  0
  190.1470  177.4510  140.1040 N   0  0  0  0  0  0  0  0  0  0  0  0
  190.8860  175.4340  138.0570 C   0  0  0  0  0  2  0  0  0  0  0  0
  189.1830  177.8520  139.2360 C   0  0  0  0  0  0  0  0  0  0  0  0
  189.3460  177.2940  143.6930 C   0  0  0  0  0  3  0  0  0  0  0  0
  189.4310  178.1040  137.8530 N   0  0  0  0  0  2  0  0  0  0  0  0
  186.6730  178.4770  139.3200 C   0  0  0  0  0  0  0  0  0  0  0  0
  193.2090  176.4020  138.1380 C   0  0  0  0  0  3  0  0  0  0  0  0
  187.4780  178.0040  142.3780 C   0  0  0  0  0  3  0  0  0  0  0  0
  192.4280  177.4940  140.5870 O   0  0  0  0  0  0  0  0  0  0  0  0
  192.4860  175.1460  136.1860 C   0  0  0  0  0  0  0  0  0  0  0  0
  188.6000  179.0050  137.0740 C   0  0  0  0  0  2  0  0  0  0  0  0
  187.2230  178.4560  136.8990 C   0  0  0  0  0  3  0  0  0  0  0  0
  184.7340  176.5210  137.5660 O   0  0  0  0  0  1  0  0  0  0  0  0
  185.0560  177.8220  137.5870 O   0  0  0  0  0  0  0  0  0  0  0  0
  1  4  1  0  0  0  0
  3  1  2  0  0  0  0
  3 20  1  0  0  0  0
  4 16  2  0  0  0  0
  5 18  1  0  0  0  0
  6 16  1  0  0  0  0
  7 14  1  0  0  0  0
  8 11  1  0  0  0  0
  9 19  2  0  0  0  0
 10  3  1  0  0  0  0
 11 13  1  0  0  0  0
 11 21  2  0  0  0  0
 12 22  1  0  0  0  0
 13  1  1  0  0  0  0
 14  8  1  0  0  0  0
 15 10  2  0  0  0  0
 15 13  1  0  0  0  0
 17 15  1  0  0  0  0
 18 10  1  0  0  0  0
 18  2  2  0  0  0  0
 19  8  1  0  0  0  0
 20  6  2  0  0  0  0
 22  7  2  0  0  0  0
 22  9  1  0  0  0  0
 23 17  1  0  0  0  0
 24 23  1  0  0  0  0
 24  5  2  0  0  0  0
 25 26  1  0  0  0  0
 26  5  1  0  0  0  0
M  END
>  <MODEL>
4

>  <REMARK>
 VINA RESULT:      -7.4      3.484      6.648
  Name = 
  1 active torsions:
  status: ('A' for Active; 'I' for Inactive)
    1  A    between atoms: C_5  and  O_18
                            x       y       z     vdW  Elec       q    Type
                         _______ _______ _______ _____ _____    ______ ____

>  <TORSDO>
F 1

$$$$
=
 OpenBabel11062417013D

 26 29  0  0  0  0  0  0  0  0999 V2000
  187.1620  177.9680  145.2370 C   0  0  0  0  0  0  0  0  0  0  0  0
  188.8650  177.8000  149.1270 O   0  0  0  0  0  0  0  0  0  0  0  0
  187.4380  178.0630  146.5770 C   0  0  0  0  0  0  0  0  0  0  0  0
  185.9420  178.3960  144.7150 C   0  0  0  0  0  3  0  0  0  0  0  0
  190.9570  177.4920  148.0940 C   0  0  0  0  0  0  0  0  0  0  0  0
  185.3080  179.0170  146.9560 N   0  0  0  0  0  0  0  0  0  0  0  0
  191.7980  178.2100  142.1990 C   0  0  0  0  0  3  0  0  0  0  0  0
  189.5020  177.3370  142.4270 N   0  0  0  0  0  0  0  0  0  0  0  0
  190.8150  176.7700  140.4950 C   0  0  0  0  0  3  0  0  0  0  0  0
  188.7180  177.5780  146.7800 C   0  0  0  0  0  0  0  0  0  0  0  0
  188.2840  177.1520  143.1640 C   0  0  0  0  0  0  0  0  0  0  0  0
  193.1690  177.4210  140.4950 F   0  0  0  0  0  0  0  0  0  0  0  0
  188.2150  177.4550  144.5680 N   0  0  0  0  0  0  0  0  0  0  0  0
  190.4510  178.3760  142.8490 C   0  0  0  0  0  2  0  0  0  0  0  0
  189.1590  177.2010  145.5110 C   0  0  0  0  0  0  0  0  0  0  0  0
  185.0100  178.9260  145.6220 C   0  0  0  0  0  3  0  0  0  0  0  0
  190.3640  176.4860  145.2380 N   0  0  0  0  0  2  0  0  0  0  0  0
  189.4810  177.5890  148.0490 C   0  0  0  0  0  0  0  0  0  0  0  0
  189.6580  176.6940  141.1510 C   0  0  0  0  0  3  0  0  0  0  0  0
  186.5050  178.6000  147.4600 C   0  0  0  0  0  3  0  0  0  0  0  0
  187.2540  176.7240  142.5730 O   0  0  0  0  0  0  0  0  0  0  0  0
  191.9490  177.5030  141.0770 C   0  0  0  0  0  0  0  0  0  0  0  0
  191.0830  175.7670  146.2750 C   0  0  0  0  0  2  0  0  0  0  0  0
  191.6690  176.7050  147.2770 C   0  0  0  0  0  3  0  0  0  0  0  0
  192.8060  177.8780  149.5600 O   0  0  0  0  0  1  0  0  0  0  0  0
  191.6230  178.2570  149.0560 O   0  0  0  0  0  0  0  0  0  0  0  0
  1  3  1  0  0  0  0
  3 10  1  0  0  0  0
  3 20  2  0  0  0  0
  4  1  2  0  0  0  0
  4 16  1  0  0  0  0
  5 26  1  0  0  0  0
  6 20  1  0  0  0  0
  7 14  1  0  0  0  0
  8 14  1  0  0  0  0
  8 11  1  0  0  0  0
  9 22  1  0  0  0  0
  9 19  2  0  0  0  0
 10 18  1  0  0  0  0
 11 13  1  0  0  0  0
 12 22  1  0  0  0  0
 13  1  1  0  0  0  0
 13 15  1  0  0  0  0
 15 10  2  0  0  0  0
 16  6  2  0  0  0  0
 17 15  1  0  0  0  0
 17 23  1  0  0  0  0
 18  5  1  0  0  0  0
 18  2  2  0  0  0  0
 19  8  1  0  0  0  0
 21 11  2  0  0  0  0
 22  7  2  0  0  0  0
 23 24  1  0  0  0  0
 24  5  2  0  0  0  0
 26 25  1  0  0  0  0
M  END
>  <MODEL>
5

>  <REMARK>
 VINA RESULT:      -7.3      2.387      2.840
  Name = 
  1 active torsions:
  status: ('A' for Active; 'I' for Inactive)
    1  A    between atoms: C_5  and  O_18
                            x       y       z     vdW  Elec       q    Type
                         _______ _______ _______ _____ _____    ______ ____

>  <TORSDO>
F 1

$$$$
=
 OpenBabel11062417013D

 26 29  0  0  0  0  0  0  0  0999 V2000
  188.9580  177.5460  140.9630 C   0  0  0  0  0  0  0  0  0  0  0  0
  184.9830  178.9780  141.4250 O   0  0  0  0  0  0  0  0  0  0  0  0
  187.7150  178.1030  140.8060 C   0  0  0  0  0  0  0  0  0  0  0  0
  189.8630  177.4800  139.9040 C   0  0  0  0  0  3  0  0  0  0  0  0
  185.3310  178.9090  143.7510 C   0  0  0  0  0  0  0  0  0  0  0  0
  188.1990  178.5630  138.5370 N   0  0  0  0  0  0  0  0  0  0  0  0
  190.7350  178.0200  146.1970 C   0  0  0  0  0  3  0  0  0  0  0  0
  190.7440  176.7110  144.1060 N   0  0  0  0  0  0  0  0  0  0  0  0
  191.9920  175.9400  146.0110 C   0  0  0  0  0  3  0  0  0  0  0  0
  187.0650  178.0370  142.0250 C   0  0  0  0  0  0  0  0  0  0  0  0
  190.2890  176.4560  142.7690 C   0  0  0  0  0  0  0  0  0  0  0  0
  191.6840  177.1270  148.1220 F   0  0  0  0  0  0  0  0  0  0  0  0
  189.1410  177.1370  142.2350 N   0  0  0  0  0  0  0  0  0  0  0  0
  190.5140  178.0310  144.7090 C   0  0  0  0  0  2  0  0  0  0  0  0
  187.9800  177.4200  142.8800 C   0  0  0  0  0  0  0  0  0  0  0  0
  189.4440  178.0070  138.6710 C   0  0  0  0  0  3  0  0  0  0  0  0
  187.6970  176.9820  144.2090 N   0  0  0  0  0  2  0  0  0  0  0  0
  185.7450  178.6160  142.3610 C   0  0  0  0  0  0  0  0  0  0  0  0
  191.6360  175.7770  144.7370 C   0  0  0  0  0  3  0  0  0  0  0  0
  187.3190  178.6280  139.5780 C   0  0  0  0  0  3  0  0  0  0  0  0
  190.9080  175.6280  142.0450 O   0  0  0  0  0  0  0  0  0  0  0  0
  191.4650  177.0720  146.7870 C   0  0  0  0  0  0  0  0  0  0  0  0
  186.3370  176.8080  144.6880 C   0  0  0  0  0  2  0  0  0  0  0  0
  185.6280  178.1180  144.7900 C   0  0  0  0  0  3  0  0  0  0  0  0
  183.2400  180.0370  144.0180 O   0  0  0  0  0  1  0  0  0  0  0  0
  184.5790  180.0670  143.9690 O   0  0  0  0  0  0  0  0  0  0  0  0
  1 13  1  0  0  0  0
  2 18  2  0  0  0  0
  3  1  1  0  0  0  0
  3 10  1  0  0  0  0
  4  1  2  0  0  0  0
  5 26  1  0  0  0  0
  5 24  2  0  0  0  0
  6 16  2  0  0  0  0
  6 20  1  0  0  0  0
  7 22  2  0  0  0  0
  8 14  1  0  0  0  0
  8 19  1  0  0  0  0
  9 22  1  0  0  0  0
 10 18  1  0  0  0  0
 10 15  2  0  0  0  0
 11  8  1  0  0  0  0
 13 11  1  0  0  0  0
 13 15  1  0  0  0  0
 14  7  1  0  0  0  0
 15 17  1  0  0  0  0
 16  4  1  0  0  0  0
 17 23  1  0  0  0  0
 18  5  1  0  0  0  0
 19  9  2  0  0  0  0
 20  3  2  0  0  0  0
 21 11  2  0  0  0  0
 22 12  1  0  0  0  0
 23 24  1  0  0  0  0
 26 25  1  0  0  0  0
M  END
>  <MODEL>
6

>  <REMARK>
 VINA RESULT:      -7.2      3.107      6.622
  Name = 
  1 active torsions:
  status: ('A' for Active; 'I' for Inactive)
    1  A    between atoms: C_5  and  O_18
                            x       y       z     vdW  Elec       q    Type
                         _______ _______ _______ _____ _____    ______ ____

>  <TORSDO>
F 1

$$$$
=
 OpenBabel11062417013D

 26 29  0  0  0  0  0  0  0  0999 V2000
  188.6100  177.5490  139.0120 C   0  0  0  0  0  0  0  0  0  0  0  0
  191.4450  176.3120  136.0960 O   0  0  0  0  0  0  0  0  0  0  0  0
  189.2650  177.1330  137.8810 C   0  0  0  0  0  0  0  0  0  0  0  0
  187.2430  177.8180  139.0020 C   0  0  0  0  0  3  0  0  0  0  0  0
  192.8930  175.7750  137.8720 C   0  0  0  0  0  0  0  0  0  0  0  0
  187.2380  177.2230  136.6650 N   0  0  0  0  0  0  0  0  0  0  0  0
  191.1050  175.6670  143.5960 C   0  0  0  0  0  3  0  0  0  0  0  0
  189.7760  177.4540  142.5330 N   0  0  0  0  0  0  0  0  0  0  0  0
  190.4070  177.6410  144.8450 C   0  0  0  0  0  3  0  0  0  0  0  0
  190.5940  176.9340  138.2100 C   0  0  0  0  0  0  0  0  0  0  0  0
  189.1580  178.0640  141.3900 C   0  0  0  0  0  0  0  0  0  0  0  0
  191.9710  175.9860  145.7290 F   0  0  0  0  0  0  0  0  0  0  0  0
  189.4590  177.6150  140.0580 N   0  0  0  0  0  0  0  0  0  0  0  0
  190.1820  176.0430  142.4690 C   0  0  0  0  0  2  0  0  0  0  0  0
  190.6740  177.2560  139.5660 C   0  0  0  0  0  0  0  0  0  0  0  0
  186.5660  177.6450  137.7820 C   0  0  0  0  0  3  0  0  0  0  0  0
  191.8840  177.3670  140.3150 N   0  0  0  0  0  2  0  0  0  0  0  0
  191.6520  176.3780  137.3380 C   0  0  0  0  0  0  0  0  0  0  0  0
  189.7550  178.1400  143.7960 C   0  0  0  0  0  3  0  0  0  0  0  0
  188.5770  176.9580  136.6830 C   0  0  0  0  0  3  0  0  0  0  0  0
  188.3320  179.0040  141.5530 O   0  0  0  0  0  0  0  0  0  0  0  0
  191.1660  176.3880  144.7170 C   0  0  0  0  0  0  0  0  0  0  0  0
  193.1780  177.5040  139.6700 C   0  0  0  0  0  2  0  0  0  0  0  0
  193.5500  176.2600  138.9330 C   0  0  0  0  0  3  0  0  0  0  0  0
  194.2500  173.8070  137.8130 O   0  0  0  0  0  1  0  0  0  0  0  0
  193.3990  174.6510  137.2120 O   0  0  0  0  0  0  0  0  0  0  0  0
  1 13  1  0  0  0  0
  2 18  2  0  0  0  0
  3 10  1  0  0  0  0
  3  1  2  0  0  0  0
  4  1  1  0  0  0  0
  5 24  2  0  0  0  0
  6 20  2  0  0  0  0
  6 16  1  0  0  0  0
  7 22  2  0  0  0  0
  8 19  1  0  0  0  0
 10 15  2  0  0  0  0
 11 21  2  0  0  0  0
 11  8  1  0  0  0  0
 13 11  1  0  0  0  0
 14  8  1  0  0  0  0
 14  7  1  0  0  0  0
 15 13  1  0  0  0  0
 15 17  1  0  0  0  0
 16  4  2  0  0  0  0
 18  5  1  0  0  0  0
 18 10  1  0  0  0  0
 19  9  2  0  0  0  0
 20  3  1  0  0  0  0
 22  9  1  0  0  0  0
 22 12  1  0  0  0  0
 23 17  1  0  0  0  0
 24 23  1  0  0  0  0
 26 25  1  0  0  0  0
 26  5  1  0  0  0  0
M  END
>  <MODEL>
7

>  <REMARK>
 VINA RESULT:      -7.2      4.385      7.135
  Name = 
  1 active torsions:
  status: ('A' for Active; 'I' for Inactive)
    1  A    between atoms: C_5  and  O_18
                            x       y       z     vdW  Elec       q    Type
                         _______ _______ _______ _____ _____    ______ ____

>  <TORSDO>
F 1

$$$$
=
 OpenBabel11062417013D

 26 29  0  0  0  0  0  0  0  0999 V2000
  189.0690  177.6070  145.0530 C   0  0  0  0  0  0  0  0  0  0  0  0
  184.9010  178.3260  144.6310 O   0  0  0  0  0  0  0  0  0  0  0  0
  187.7140  177.7380  145.2230 C   0  0  0  0  0  0  0  0  0  0  0  0
  189.8980  177.2190  146.1030 C   0  0  0  0  0  3  0  0  0  0  0  0
  185.2140  178.2110  142.3010 C   0  0  0  0  0  0  0  0  0  0  0  0
  187.9300  177.1020  147.4910 N   0  0  0  0  0  0  0  0  0  0  0  0
  190.3270  176.3100  139.8070 C   0  0  0  0  0  3  0  0  0  0  0  0
  191.0030  177.4470  141.8900 N   0  0  0  0  0  0  0  0  0  0  0  0
  192.4500  177.4980  139.9710 C   0  0  0  0  0  3  0  0  0  0  0  0
  187.1690  178.1150  144.0080 C   0  0  0  0  0  0  0  0  0  0  0  0
  190.7470  177.8950  143.2300 C   0  0  0  0  0  0  0  0  0  0  0  0
  191.5740  176.6150  137.8690 F   0  0  0  0  0  0  0  0  0  0  0  0
  189.4170  177.8710  143.7770 N   0  0  0  0  0  0  0  0  0  0  0  0
  190.1440  176.4120  141.2970 C   0  0  0  0  0  2  0  0  0  0  0  0
  188.2620  178.1980  143.1420 C   0  0  0  0  0  0  0  0  0  0  0  0
  189.2860  176.9700  147.3430 C   0  0  0  0  0  3  0  0  0  0  0  0
  188.2190  178.7170  141.8130 N   0  0  0  0  0  2  0  0  0  0  0  0
  185.7330  178.2630  143.6860 C   0  0  0  0  0  0  0  0  0  0  0  0
  192.2340  177.8170  141.2460 C   0  0  0  0  0  3  0  0  0  0  0  0
  187.1230  177.4780  146.4560 C   0  0  0  0  0  3  0  0  0  0  0  0
  191.7010  178.3100  143.9440 O   0  0  0  0  0  0  0  0  0  0  0  0
  191.4250  176.7730  139.2060 C   0  0  0  0  0  0  0  0  0  0  0  0
  187.1170  179.5400  141.3430 C   0  0  0  0  0  2  0  0  0  0  0  0
  185.8530  178.7510  141.2550 C   0  0  0  0  0  3  0  0  0  0  0  0
  183.4260  177.5030  140.8810 O   0  0  0  0  0  1  0  0  0  0  0  0
  183.9870  177.5760  142.0970 O   0  0  0  0  0  0  0  0  0  0  0  0
  1  3  2  0  0  0  0
  1  4  1  0  0  0  0
  3 20  1  0  0  0  0
  4 16  2  0  0  0  0
  5 18  1  0  0  0  0
  7 14  1  0  0  0  0
  8 11  1  0  0  0  0
  9 19  2  0  0  0  0
 10  3  1  0  0  0  0
 11 13  1  0  0  0  0
 11 21  2  0  0  0  0
 12 22  1  0  0  0  0
 13  1  1  0  0  0  0
 14  8  1  0  0  0  0
 15 13  1  0  0  0  0
 15 10  2  0  0  0  0
 16  6  1  0  0  0  0
 17 15  1  0  0  0  0
 18 10  1  0  0  0  0
 18  2  2  0  0  0  0
 19  8  1  0  0  0  0
 20  6  2  0  0  0  0
 22  7  2  0  0  0  0
 22  9  1  0  0  0  0
 23 17  1  0  0  0  0
 24 23  1  0  0  0  0
 24  5  2  0  0  0  0
 25 26  1  0  0  0  0
 26  5  1  0  0  0  0
M  END
>  <MODEL>
8

>  <REMARK>
 VINA RESULT:      -7.2      2.164      4.926
  Name = 
  1 active torsions:
  status: ('A' for Active; 'I' for Inactive)
    1  A    between atoms: C_5  and  O_18
                            x       y       z     vdW  Elec       q    Type
                         _______ _______ _______ _____ _____    ______ ____

>  <TORSDO>
F 1

$$$$
=
 OpenBabel11062417013D

 26 29  0  0  0  0  0  0  0  0999 V2000
  185.5920  178.4020  143.2890 C   0  0  0  0  0  0  0  0  0  0  0  0
  185.0820  179.0250  139.1150 O   0  0  0  0  0  0  0  0  0  0  0  0
  185.1140  178.6120  142.0210 C   0  0  0  0  0  0  0  0  0  0  0  0
  184.7380  178.3760  144.3910 C   0  0  0  0  0  3  0  0  0  0  0  0
  187.2330  178.1200  138.8150 C   0  0  0  0  0  0  0  0  0  0  0  0
  182.9130  178.7790  142.8690 N   0  0  0  0  0  0  0  0  0  0  0  0
  190.2410  175.3750  143.2190 C   0  0  0  0  0  3  0  0  0  0  0  0
  188.9200  177.1360  144.3320 N   0  0  0  0  0  0  0  0  0  0  0  0
  191.0630  176.5010  145.2180 C   0  0  0  0  0  3  0  0  0  0  0  0
  186.1890  178.5660  141.1510 C   0  0  0  0  0  0  0  0  0  0  0  0
  187.7890  178.0180  144.4050 C   0  0  0  0  0  0  0  0  0  0  0  0
  192.4310  174.9770  143.8880 F   0  0  0  0  0  0  0  0  0  0  0  0
  186.9260  178.2100  143.2700 N   0  0  0  0  0  0  0  0  0  0  0  0
  188.8790  175.9810  143.4260 C   0  0  0  0  0  2  0  0  0  0  0  0
  187.2950  178.3270  141.9690 C   0  0  0  0  0  0  0  0  0  0  0  0
  183.3690  178.5760  144.1450 C   0  0  0  0  0  3  0  0  0  0  0  0
  188.6570  178.3650  141.5410 N   0  0  0  0  0  2  0  0  0  0  0  0
  186.1390  178.6280  139.6730 C   0  0  0  0  0  0  0  0  0  0  0  0
  189.9580  177.2400  145.3210 C   0  0  0  0  0  3  0  0  0  0  0  0
  183.7530  178.8000  141.7940 C   0  0  0  0  0  3  0  0  0  0  0  0
  187.5410  178.6290  145.4810 O   0  0  0  0  0  0  0  0  0  0  0  0
  191.2350  175.5820  144.0840 C   0  0  0  0  0  0  0  0  0  0  0  0
  189.0560  179.0030  140.2990 C   0  0  0  0  0  2  0  0  0  0  0  0
  188.5300  178.2590  139.1160 C   0  0  0  0  0  3  0  0  0  0  0  0
  187.1160  178.0320  136.4280 O   0  0  0  0  0  1  0  0  0  0  0  0
  186.8740  177.4800  137.6260 O   0  0  0  0  0  0  0  0  0  0  0  0
  1  4  1  0  0  0  0
  2 18  2  0  0  0  0
  3  1  2  0  0  0  0
  5 24  2  0  0  0  0
  5 18  1  0  0  0  0
  6 16  1  0  0  0  0
  7 14  1  0  0  0  0
  7 22  2  0  0  0  0
  8 11  1  0  0  0  0
  8 19  1  0  0  0  0
  9 19  2  0  0  0  0
 10 15  2  0  0  0  0
 10  3  1  0  0  0  0
 11 21  2  0  0  0  0
 12 22  1  0  0  0  0
 13  1  1  0  0  0  0
 13 11  1  0  0  0  0
 14  8  1  0  0  0  0
 15 13  1  0  0  0  0
 16  4  2  0  0  0  0
 17 15  1  0  0  0  0
 18 10  1  0  0  0  0
 20  3  1  0  0  0  0
 20  6  2  0  0  0  0
 22  9  1  0  0  0  0
 23 17  1  0  0  0  0
 24 23  1  0  0  0  0
 25 26  1  0  0  0  0
 26  5  1  0  0  0  0
M  END
>  <MODEL>
9

>  <REMARK>
 VINA RESULT:      -7.2      2.596      5.830
  Name = 
  1 active torsions:
  status: ('A' for Active; 'I' for Inactive)
    1  A    between atoms: C_5  and  O_18
                            x       y       z     vdW  Elec       q    Type
                         _______ _______ _______ _____ _____    ______ ____

>  <TORSDO>
F 1

$$$$
