=
 OpenBabel11062417343D

 47 53  0  0  1  0  0  0  0  0999 V2000
  185.9180  177.9230  144.4190 C   0  0  0  0  0  0  0  0  0  0  0  0
  188.1480  177.0600  144.6450 C   0  0  0  0  0  0  0  0  0  0  0  0
  185.9270  178.3320  145.7240 C   0  0  0  0  0  0  0  0  0  0  0  0
  184.8070  178.9480  146.0260 O   0  0  0  0  0  0  0  0  0  0  0  0
  184.6970  178.3210  143.9160 C   0  0  0  0  0  0  0  0  0  0  0  0
  187.0200  178.1160  146.5570 C   0  0  0  0  0  3  0  0  0  0  0  0
  187.0200  177.2970  143.8370 C   0  0  0  0  0  3  0  0  0  0  0  0
  184.0370  178.9740  144.9510 C   0  0  0  0  0  3  0  0  0  0  0  0
  188.1390  177.4670  146.0040 C   0  0  0  0  0  3  0  0  0  0  0  0
  185.8000  179.5480  141.4800 O   0  0  0  0  0  0  0  0  0  0  0  0
  184.6840  178.9600  141.4450 C   0  0  0  0  0  0  0  0  0  0  0  0
  184.2060  178.2220  142.5740 N   0  0  0  0  0  2  0  0  0  0  0  0
  182.9170  177.4910  138.6760 C   0  0  1  0  0  3  0  0  0  0  0  0
  183.0640  177.7600  140.1010 N   0  0  0  0  0  2  0  0  0  0  0  0
  184.0150  178.2250  137.9250 C   0  0  0  0  0  2  0  0  0  0  0  0
  184.7620  179.0160  138.9710 C   0  0  0  0  0  2  0  0  0  0  0  0
  183.8740  178.9660  140.1930 C   0  0  2  0  0  3  0  0  0  0  0  0
  182.9880  176.0240  138.4140 C   0  0  0  0  0  0  0  0  0  0  0  0
  182.2040  175.2370  139.0120 O   0  0  0  0  0  0  0  0  0  0  0  0
  183.9630  175.5310  137.4880 N   0  0  0  0  0  2  0  0  0  0  0  0
  183.5780  173.5570  136.0330 C   0  0  0  0  0  3  0  0  0  0  0  0
  184.0460  172.2570  136.1120 C   0  0  0  0  0  0  0  0  0  0  0  0
  184.1500  174.1560  137.1330 C   0  0  0  0  0  0  0  0  0  0  0  0
  184.8280  172.0950  137.1530 O   0  0  0  0  0  0  0  0  0  0  0  0
  184.9210  173.2290  137.8080 C   0  0  0  0  0  3  0  0  0  0  0  0
  184.8990  170.4220  134.8510 O   0  0  0  0  0  1  0  0  0  0  0  0
  183.7480  171.1630  135.1320 C   0  0  1  0  0  3  0  0  0  0  0  0
  182.6350  170.2520  135.6380 C   0  0  0  0  0  2  0  0  0  0  0  0
  181.4370  170.9590  135.7700 O   0  0  0  0  0  1  0  0  0  0  0  0
  189.2610  176.4260  144.0810 O   0  0  0  0  0  0  0  0  0  0  0  0
  191.7540  176.6090  143.7190 C   0  0  1  0  0  3  0  0  0  0  0  0
  190.3490  177.1390  143.4900 C   0  0  2  0  0  0  0  0  0  0  0  0
  191.2620  177.8390  144.4830 C   0  0  2  0  0  3  0  0  0  0  0  0
  191.7290  175.5000  144.5660 O   0  0  0  0  0  1  0  0  0  0  0  0
  191.1200  180.1960  144.1700 O   0  0  0  0  0  1  0  0  0  0  0  0
  191.9150  179.0830  143.9000 C   0  0  0  0  0  2  0  0  0  0  0  0
  190.1080  177.8150  142.2800 O   0  0  0  0  0  0  0  0  0  0  0  0
  190.9870  177.2690  141.3310 C   0  0  1  0  0  3  0  0  0  0  0  0
  190.4060  176.1200  140.7590 O   0  0  0  0  0  0  0  0  0  0  0  0
  190.4170  177.2720  139.9510 C   0  0  1  0  0  3  0  0  0  0  0  0
  188.9950  177.8330  139.8510 C   0  0  0  0  0  2  0  0  0  0  0  0
  187.2700  176.5920  136.8070 C   0  0  0  0  0  3  0  0  0  0  0  0
  187.6530  179.0290  136.4850 C   0  0  0  0  0  2  0  0  0  0  0  0
  188.7480  178.9420  137.5470 C   0  0  0  0  0  2  0  0  0  0  0  0
  187.7520  176.6800  138.0490 C   0  0  0  0  0  3  0  0  0  0  0  0
  187.5220  177.6750  135.7990 C   0  0  0  0  0  2  0  0  0  0  0  0
  188.4780  177.8390  138.4800 N   0  0  0  0  0  0  0  0  0  0  0  0
  1  3  1  0  0  0  0
  2  9  2  0  0  0  0
  3  4  1  0  0  0  0
  3  6  2  0  0  0  0
  5  1  1  0  0  0  0
  5  8  2  0  0  0  0
  7  1  2  0  0  0  0
  7  2  1  0  0  0  0
  8  4  1  0  0  0  0
  9  6  1  0  0  0  0
 11 10  2  0  0  0  0
 11 12  1  0  0  0  0
 12  5  1  0  0  0  0
 13 18  1  1  0  0  0
 13 14  1  0  0  0  0
 14 17  1  0  0  0  0
 15 13  1  0  0  0  0
 15 16  1  0  0  0  0
 16 17  1  0  0  0  0
 17 11  1  1  0  0  0
 18 19  2  0  0  0  0
 20 18  1  0  0  0  0
 21 22  2  0  0  0  0
 21 23  1  0  0  0  0
 22 24  1  0  0  0  0
 23 20  1  0  0  0  0
 23 25  2  0  0  0  0
 24 25  1  0  0  0  0
 27 26  1  1  0  0  0
 27 28  1  0  0  0  0
 27 22  1  0  0  0  0
 28 29  1  0  0  0  0
 30  2  1  0  0  0  0
 31 33  1  0  0  0  0
 31 34  1  1  0  0  0
 32 37  1  6  0  0  0
 32 31  1  0  0  0  0
 32 30  1  0  0  0  0
 32 33  1  0  0  0  0
 33 36  1  6  0  0  0
 36 35  1  0  0  0  0
 38 37  1  1  0  0  0
 39 38  1  0  0  0  0
 40 41  1  1  0  0  0
 40 39  1  0  0  0  0
 40 38  1  0  0  0  0
 42 45  2  0  0  0  0
 43 44  1  0  0  0  0
 44 47  1  0  0  0  0
 45 47  1  0  0  0  0
 46 43  1  0  0  0  0
 46 42  1  0  0  0  0
 47 41  1  0  0  0  0
M  END
>  <MODEL>
1

>  <REMARK>
 VINA RESULT:      -8.7      0.000      0.000
  Name = 
  13 active torsions:
  status: ('A' for Active; 'I' for Inactive)
    1  A    between atoms: C_6  and  C_26
    2  A    between atoms: O_7  and  C_9
    3  A    between atoms: O_7  and  C_25
    4  A    between atoms: C_8  and  N_45
    5  A    between atoms: C_11  and  O_28
    6  A    between atoms: C_12  and  C_26
    7  A    between atoms: C_15  and  C_39
    8  A    between atoms: C_17  and  C_23
    9  A    between atoms: C_18  and  N_44
   10  A    between atoms: C_25  and  O_28
   11  A    between atoms: C_27  and  C_35
   12  A    between atoms: C_34  and  C_36
   13  A    between atoms: C_35  and  N_46
                            x       y       z     vdW  Elec       q    Type
                         _______ _______ _______ _____ _____    ______ ____

>  <TORSDO>
F 13

$$$$
=
 OpenBabel11062417343D

 47 53  0  0  1  0  0  0  0  0999 V2000
  185.8670  177.9910  144.3100 C   0  0  0  0  0  0  0  0  0  0  0  0
  188.0650  177.0990  144.6820 C   0  0  0  0  0  0  0  0  0  0  0  0
  185.7860  178.3820  145.6190 C   0  0  0  0  0  0  0  0  0  0  0  0
  184.6540  179.0050  145.8490 O   0  0  0  0  0  0  0  0  0  0  0  0
  184.6900  178.4110  143.7270 C   0  0  0  0  0  0  0  0  0  0  0  0
  186.8140  178.1400  146.5240 C   0  0  0  0  0  3  0  0  0  0  0  0
  187.0010  177.3610  143.7990 C   0  0  0  0  0  3  0  0  0  0  0  0
  183.9640  179.0570  144.7220 C   0  0  0  0  0  3  0  0  0  0  0  0
  187.9630  177.4870  146.0430 C   0  0  0  0  0  3  0  0  0  0  0  0
  185.9570  179.6900  141.4000 O   0  0  0  0  0  0  0  0  0  0  0  0
  184.8490  179.0990  141.2750 C   0  0  0  0  0  0  0  0  0  0  0  0
  184.2950  178.3380  142.3520 N   0  0  0  0  0  2  0  0  0  0  0  0
  182.7120  177.8160  138.6790 C   0  0  1  0  0  3  0  0  0  0  0  0
  182.9210  178.3180  140.0310 N   0  0  0  0  0  2  0  0  0  0  0  0
  184.0230  177.9060  137.9170 C   0  0  0  0  0  2  0  0  0  0  0  0
  184.9950  178.5750  138.8590 C   0  0  0  0  0  2  0  0  0  0  0  0
  184.1290  179.1280  139.9680 C   0  0  2  0  0  3  0  0  0  0  0  0
  182.2210  176.4070  138.7180 C   0  0  0  0  0  0  0  0  0  0  0  0
  182.2950  175.7420  139.7870 O   0  0  0  0  0  0  0  0  0  0  0  0
  181.6810  175.8270  137.5250 N   0  0  0  0  0  2  0  0  0  0  0  0
  181.7590  173.5060  136.6490 C   0  0  0  0  0  3  0  0  0  0  0  0
  180.9200  172.4230  136.8510 C   0  0  0  0  0  0  0  0  0  0  0  0
  181.1710  174.4950  137.4070 C   0  0  0  0  0  0  0  0  0  0  0  0
  179.9300  172.7310  137.6560 O   0  0  0  0  0  0  0  0  0  0  0  0
  180.0420  173.9870  138.0210 C   0  0  0  0  0  3  0  0  0  0  0  0
  179.9890  170.6700  135.5300 O   0  0  0  0  0  1  0  0  0  0  0  0
  181.1100  171.0540  136.2720 C   0  0  1  0  0  3  0  0  0  0  0  0
  182.3700  170.9830  135.4160 C   0  0  0  0  0  2  0  0  0  0  0  0
  183.3200  170.1430  136.0020 O   0  0  0  0  0  1  0  0  0  0  0  0
  189.2090  176.4610  144.1890 O   0  0  0  0  0  0  0  0  0  0  0  0
  191.7150  176.6730  143.9520 C   0  0  1  0  0  3  0  0  0  0  0  0
  190.3160  177.1670  143.6260 C   0  0  2  0  0  0  0  0  0  0  0  0
  191.1630  177.9260  144.6340 C   0  0  2  0  0  3  0  0  0  0  0  0
  191.6620  175.6010  144.8450 O   0  0  0  0  0  1  0  0  0  0  0  0
  190.9460  180.2350  144.0900 O   0  0  0  0  0  1  0  0  0  0  0  0
  191.8260  179.1550  144.0320 C   0  0  0  0  0  2  0  0  0  0  0  0
  190.1300  177.7860  142.3760 O   0  0  0  0  0  0  0  0  0  0  0  0
  191.0070  177.1560  141.4800 C   0  0  1  0  0  3  0  0  0  0  0  0
  190.3350  176.1030  140.8250 O   0  0  0  0  0  0  0  0  0  0  0  0
  190.5550  177.2640  140.0610 C   0  0  1  0  0  3  0  0  0  0  0  0
  189.2270  178.0030  139.8710 C   0  0  0  0  0  2  0  0  0  0  0  0
  187.6480  176.4540  136.8890 C   0  0  0  0  0  3  0  0  0  0  0  0
  187.7280  178.9080  136.4800 C   0  0  0  0  0  2  0  0  0  0  0  0
  188.8320  178.9920  137.5320 C   0  0  0  0  0  2  0  0  0  0  0  0
  188.1230  176.6440  138.1230 C   0  0  0  0  0  3  0  0  0  0  0  0
  187.7580  177.5240  135.8420 C   0  0  0  0  0  2  0  0  0  0  0  0
  188.7050  177.8990  138.5060 N   0  0  0  0  0  0  0  0  0  0  0  0
  1  3  1  0  0  0  0
  2  9  2  0  0  0  0
  3  4  1  0  0  0  0
  3  6  2  0  0  0  0
  5  1  1  0  0  0  0
  5  8  2  0  0  0  0
  7  1  2  0  0  0  0
  7  2  1  0  0  0  0
  8  4  1  0  0  0  0
  9  6  1  0  0  0  0
 11 10  2  0  0  0  0
 11 12  1  0  0  0  0
 12  5  1  0  0  0  0
 13 18  1  1  0  0  0
 13 14  1  0  0  0  0
 15 13  1  0  0  0  0
 15 16  1  0  0  0  0
 16 17  1  0  0  0  0
 17 14  1  0  0  0  0
 17 11  1  1  0  0  0
 18 19  2  0  0  0  0
 20 18  1  0  0  0  0
 21 22  2  0  0  0  0
 21 23  1  0  0  0  0
 22 24  1  0  0  0  0
 23 20  1  0  0  0  0
 23 25  2  0  0  0  0
 24 25  1  0  0  0  0
 27 26  1  6  0  0  0
 27 22  1  0  0  0  0
 28 29  1  0  0  0  0
 28 27  1  0  0  0  0
 30  2  1  0  0  0  0
 31 33  1  0  0  0  0
 31 34  1  1  0  0  0
 32 37  1  6  0  0  0
 32 31  1  0  0  0  0
 32 30  1  0  0  0  0
 32 33  1  0  0  0  0
 33 36  1  6  0  0  0
 36 35  1  0  0  0  0
 38 37  1  1  0  0  0
 39 38  1  0  0  0  0
 40 41  1  1  0  0  0
 40 39  1  0  0  0  0
 40 38  1  0  0  0  0
 42 45  2  0  0  0  0
 43 44  1  0  0  0  0
 44 47  1  0  0  0  0
 45 47  1  0  0  0  0
 46 43  1  0  0  0  0
 46 42  1  0  0  0  0
 47 41  1  0  0  0  0
M  END
>  <MODEL>
2

>  <REMARK>
 VINA RESULT:      -8.6      1.138      1.594
  Name = 
  13 active torsions:
  status: ('A' for Active; 'I' for Inactive)
    1  A    between atoms: C_6  and  C_26
    2  A    between atoms: O_7  and  C_9
    3  A    between atoms: O_7  and  C_25
    4  A    between atoms: C_8  and  N_45
    5  A    between atoms: C_11  and  O_28
    6  A    between atoms: C_12  and  C_26
    7  A    between atoms: C_15  and  C_39
    8  A    between atoms: C_17  and  C_23
    9  A    between atoms: C_18  and  N_44
   10  A    between atoms: C_25  and  O_28
   11  A    between atoms: C_27  and  C_35
   12  A    between atoms: C_34  and  C_36
   13  A    between atoms: C_35  and  N_46
                            x       y       z     vdW  Elec       q    Type
                         _______ _______ _______ _____ _____    ______ ____

>  <TORSDO>
F 13

$$$$
=
 OpenBabel11062417343D

 47 53  0  0  1  0  0  0  0  0999 V2000
  185.0390  178.5630  144.1930 C   0  0  0  0  0  0  0  0  0  0  0  0
  184.1540  178.3970  141.9680 C   0  0  0  0  0  0  0  0  0  0  0  0
  183.7840  178.7760  144.6950 C   0  0  0  0  0  0  0  0  0  0  0  0
  183.8180  178.8870  146.0020 O   0  0  0  0  0  0  0  0  0  0  0  0
  185.8770  178.5560  145.2890 C   0  0  0  0  0  0  0  0  0  0  0  0
  182.6630  178.8290  143.8730 C   0  0  0  0  0  3  0  0  0  0  0  0
  185.2620  178.3520  142.8330 C   0  0  0  0  0  3  0  0  0  0  0  0
  185.0700  178.7450  146.4050 C   0  0  0  0  0  3  0  0  0  0  0  0
  182.8590  178.6410  142.4930 C   0  0  0  0  0  3  0  0  0  0  0  0
  187.4210  177.3620  147.4890 O   0  0  0  0  0  0  0  0  0  0  0  0
  188.0150  177.8460  146.4870 C   0  0  0  0  0  0  0  0  0  0  0  0
  187.2820  178.2850  145.3400 N   0  0  0  0  0  2  0  0  0  0  0  0
  191.2770  177.5480  144.9970 C   0  0  1  0  0  3  0  0  0  0  0  0
  189.9780  178.2000  145.1120 N   0  0  0  0  0  2  0  0  0  0  0  0
  191.3770  176.4690  146.0620 C   0  0  0  0  0  2  0  0  0  0  0  0
  190.1090  176.5800  146.8720 C   0  0  0  0  0  2  0  0  0  0  0  0
  189.5060  177.9030  146.4560 C   0  0  2  0  0  3  0  0  0  0  0  0
  191.4460  176.9620  143.6350 C   0  0  0  0  0  0  0  0  0  0  0  0
  191.7120  175.7360  143.5040 O   0  0  0  0  0  0  0  0  0  0  0  0
  191.3150  177.8140  142.4920 N   0  0  0  0  0  2  0  0  0  0  0  0
  190.4060  176.9280  140.3580 C   0  0  0  0  0  3  0  0  0  0  0  0
  191.0140  176.6660  139.1430 C   0  0  0  0  0  0  0  0  0  0  0  0
  191.4470  177.3990  141.1280 C   0  0  0  0  0  0  0  0  0  0  0  0
  192.2930  176.9580  139.1790 O   0  0  0  0  0  0  0  0  0  0  0  0
  192.6030  177.4090  140.3720 C   0  0  0  0  0  3  0  0  0  0  0  0
  190.2090  174.7600  137.9580 O   0  0  0  0  0  1  0  0  0  0  0  0
  190.3240  176.1520  137.9160 C   0  0  1  0  0  3  0  0  0  0  0  0
  188.9540  176.7980  137.7380 C   0  0  0  0  0  2  0  0  0  0  0  0
  189.0830  178.1390  137.3680 O   0  0  0  0  0  1  0  0  0  0  0  0
  184.3590  178.1940  140.5980 O   0  0  0  0  0  0  0  0  0  0  0  0
  182.4210  177.2140  139.3060 C   0  0  1  0  0  3  0  0  0  0  0  0
  183.3360  178.3860  139.6180 C   0  0  2  0  0  0  0  0  0  0  0  0
  183.5350  177.6010  138.3320 C   0  0  2  0  0  3  0  0  0  0  0  0
  182.8100  176.0830  140.0260 O   0  0  0  0  0  1  0  0  0  0  0  0
  182.4560  177.3360  136.2260 O   0  0  0  0  0  1  0  0  0  0  0  0
  182.9240  178.2940  137.1240 C   0  0  0  0  0  2  0  0  0  0  0  0
  182.7940  179.6770  139.4830 O   0  0  0  0  0  0  0  0  0  0  0  0
  181.4020  179.5210  139.3890 C   0  0  1  0  0  3  0  0  0  0  0  0
  180.7640  180.5170  140.1570 O   0  0  0  0  0  0  0  0  0  0  0  0
  180.7320  180.6990  138.7620 C   0  0  1  0  0  3  0  0  0  0  0  0
  181.6790  181.8410  138.3800 C   0  0  0  0  0  2  0  0  0  0  0  0
  180.9880  184.8480  136.3150 C   0  0  0  0  0  3  0  0  0  0  0  0
  180.5830  182.8630  134.8700 C   0  0  0  0  0  2  0  0  0  0  0  0
  180.4270  182.0350  136.1440 C   0  0  0  0  0  2  0  0  0  0  0  0
  181.4240  184.0480  137.2920 C   0  0  0  0  0  3  0  0  0  0  0  0
  180.1890  184.3050  135.1660 C   0  0  0  0  0  2  0  0  0  0  0  0
  181.1910  182.6330  137.2480 N   0  0  0  0  0  0  0  0  0  0  0  0
  1  3  1  0  0  0  0
  1  5  1  0  0  0  0
  2  9  2  0  0  0  0
  2  7  1  0  0  0  0
  3  4  1  0  0  0  0
  4  8  1  0  0  0  0
  5 12  1  0  0  0  0
  5  8  2  0  0  0  0
  6  3  2  0  0  0  0
  7  1  2  0  0  0  0
  9  6  1  0  0  0  0
 11 10  2  0  0  0  0
 12 11  1  0  0  0  0
 13 18  1  6  0  0  0
 13 14  1  0  0  0  0
 13 15  1  0  0  0  0
 14 17  1  0  0  0  0
 15 16  1  0  0  0  0
 17 11  1  6  0  0  0
 17 16  1  0  0  0  0
 19 18  2  0  0  0  0
 20 18  1  0  0  0  0
 21 23  1  0  0  0  0
 22 24  1  0  0  0  0
 22 21  2  0  0  0  0
 23 20  1  0  0  0  0
 24 25  1  0  0  0  0
 25 23  2  0  0  0  0
 27 26  1  1  0  0  0
 27 22  1  0  0  0  0
 28 27  1  0  0  0  0
 29 28  1  0  0  0  0
 30  2  1  0  0  0  0
 31 32  1  0  0  0  0
 31 34  1  1  0  0  0
 32 37  1  6  0  0  0
 32 30  1  0  0  0  0
 33 36  1  6  0  0  0
 33 31  1  0  0  0  0
 33 32  1  0  0  0  0
 35 36  1  0  0  0  0
 38 37  1  1  0  0  0
 38 39  1  0  0  0  0
 40 41  1  1  0  0  0
 40 38  1  0  0  0  0
 40 39  1  0  0  0  0
 42 45  2  0  0  0  0
 43 46  1  0  0  0  0
 43 44  1  0  0  0  0
 44 47  1  0  0  0  0
 46 42  1  0  0  0  0
 47 45  1  0  0  0  0
 47 41  1  0  0  0  0
M  END
>  <MODEL>
3

>  <REMARK>
 VINA RESULT:      -8.2      3.487      8.482
  Name = 
  13 active torsions:
  status: ('A' for Active; 'I' for Inactive)
    1  A    between atoms: C_6  and  C_26
    2  A    between atoms: O_7  and  C_9
    3  A    between atoms: O_7  and  C_25
    4  A    between atoms: C_8  and  N_45
    5  A    between atoms: C_11  and  O_28
    6  A    between atoms: C_12  and  C_26
    7  A    between atoms: C_15  and  C_39
    8  A    between atoms: C_17  and  C_23
    9  A    between atoms: C_18  and  N_44
   10  A    between atoms: C_25  and  O_28
   11  A    between atoms: C_27  and  C_35
   12  A    between atoms: C_34  and  C_36
   13  A    between atoms: C_35  and  N_46
                            x       y       z     vdW  Elec       q    Type
                         _______ _______ _______ _____ _____    ______ ____

>  <TORSDO>
F 13

$$$$
=
 OpenBabel11062417343D

 47 53  0  0  1  0  0  0  0  0999 V2000
  189.3410  177.6800  144.6040 C   0  0  0  0  0  0  0  0  0  0  0  0
  187.1460  177.3810  145.5290 C   0  0  0  0  0  0  0  0  0  0  0  0
  189.9080  177.4290  145.8240 C   0  0  0  0  0  0  0  0  0  0  0  0
  191.2180  177.4560  145.7430 O   0  0  0  0  0  0  0  0  0  0  0  0
  190.3990  177.8760  143.7400 C   0  0  0  0  0  0  0  0  0  0  0  0
  189.1380  177.1630  146.9520 C   0  0  0  0  0  3  0  0  0  0  0  0
  187.9600  177.6470  144.4130 C   0  0  0  0  0  3  0  0  0  0  0  0
  191.5580  177.7110  144.4900 C   0  0  0  0  0  3  0  0  0  0  0  0
  187.7410  177.1450  146.7950 C   0  0  0  0  0  3  0  0  0  0  0  0
  190.0880  175.8700  141.6120 O   0  0  0  0  0  0  0  0  0  0  0  0
  190.3720  177.0640  141.3210 C   0  0  0  0  0  0  0  0  0  0  0  0
  190.3710  178.0850  142.3240 N   0  0  0  0  0  2  0  0  0  0  0  0
  189.5190  177.9530  137.9400 C   0  0  1  0  0  3  0  0  0  0  0  0
  189.5540  178.2430  139.3680 N   0  0  0  0  0  2  0  0  0  0  0  0
  190.2450  176.6420  137.6900 C   0  0  0  0  0  2  0  0  0  0  0  0
  190.7920  176.2190  139.0320 C   0  0  0  0  0  2  0  0  0  0  0  0
  190.6470  177.4450  139.9050 C   0  0  2  0  0  3  0  0  0  0  0  0
  188.1080  177.8740  137.4600 C   0  0  0  0  0  0  0  0  0  0  0  0
  187.3130  178.8290  137.6780 O   0  0  0  0  0  0  0  0  0  0  0  0
  187.6760  176.6990  136.7660 N   0  0  0  0  0  2  0  0  0  0  0  0
  185.3040  176.0010  136.9920 C   0  0  0  0  0  3  0  0  0  0  0  0
  184.2700  175.9620  136.0720 C   0  0  0  0  0  0  0  0  0  0  0  0
  186.3600  176.4780  136.2470 C   0  0  0  0  0  0  0  0  0  0  0  0
  184.6660  176.3820  134.8930 O   0  0  0  0  0  0  0  0  0  0  0  0
  185.9370  176.7070  134.9510 C   0  0  0  0  0  3  0  0  0  0  0  0
  182.8220  174.2110  136.7940 O   0  0  0  0  0  1  0  0  0  0  0  0
  182.8620  175.5390  136.3610 C   0  0  1  0  0  3  0  0  0  0  0  0
  182.2060  176.4570  137.3870 C   0  0  0  0  0  2  0  0  0  0  0  0
  181.9460  175.7680  138.5740 O   0  0  0  0  0  1  0  0  0  0  0  0
  185.7570  177.3510  145.3590 O   0  0  0  0  0  0  0  0  0  0  0  0
  184.9870  179.7130  144.8950 C   0  0  1  0  0  3  0  0  0  0  0  0
  185.0570  178.2490  144.4950 C   0  0  2  0  0  0  0  0  0  0  0  0
  183.7670  178.8080  145.0730 C   0  0  2  0  0  3  0  0  0  0  0  0
  185.5980  179.9130  146.1350 O   0  0  0  0  0  1  0  0  0  0  0  0
  181.5560  178.4520  144.2630 O   0  0  0  0  0  1  0  0  0  0  0  0
  182.7410  179.1380  144.0000 C   0  0  0  0  0  2  0  0  0  0  0  0
  185.0490  177.9590  143.1190 O   0  0  0  0  0  0  0  0  0  0  0  0
  185.6540  179.0490  142.4740 C   0  0  1  0  0  3  0  0  0  0  0  0
  186.3370  178.5970  141.3270 O   0  0  0  0  0  0  0  0  0  0  0  0
  185.1230  179.2700  141.0960 C   0  0  1  0  0  3  0  0  0  0  0  0
  184.0610  178.2590  140.6540 C   0  0  0  0  0  2  0  0  0  0  0  0
  182.0680  180.4250  138.3920 C   0  0  0  0  0  3  0  0  0  0  0  0
  180.4670  178.9100  139.5480 C   0  0  0  0  0  2  0  0  0  0  0  0
  181.5300  178.6980  140.6250 C   0  0  0  0  0  2  0  0  0  0  0  0
  183.0890  179.7850  138.9660 C   0  0  0  0  0  3  0  0  0  0  0  0
  180.6690  180.2830  138.9180 C   0  0  0  0  0  2  0  0  0  0  0  0
  182.8770  178.8930  140.0700 N   0  0  0  0  0  0  0  0  0  0  0  0
  1  3  1  0  0  0  0
  2  9  2  0  0  0  0
  3  6  2  0  0  0  0
  4  3  1  0  0  0  0
  5  8  2  0  0  0  0
  5  1  1  0  0  0  0
  7  1  2  0  0  0  0
  7  2  1  0  0  0  0
  8  4  1  0  0  0  0
  9  6  1  0  0  0  0
 11 10  2  0  0  0  0
 11 12  1  0  0  0  0
 12  5  1  0  0  0  0
 13 18  1  1  0  0  0
 13 14  1  0  0  0  0
 14 17  1  0  0  0  0
 15 13  1  0  0  0  0
 15 16  1  0  0  0  0
 16 17  1  0  0  0  0
 17 11  1  1  0  0  0
 18 19  2  0  0  0  0
 20 18  1  0  0  0  0
 22 27  1  0  0  0  0
 22 21  2  0  0  0  0
 23 20  1  0  0  0  0
 23 21  1  0  0  0  0
 24 25  1  0  0  0  0
 24 22  1  0  0  0  0
 25 23  2  0  0  0  0
 27 26  1  1  0  0  0
 27 28  1  0  0  0  0
 28 29  1  0  0  0  0
 30  2  1  0  0  0  0
 31 33  1  0  0  0  0
 31 34  1  1  0  0  0
 32 37  1  6  0  0  0
 32 31  1  0  0  0  0
 32 33  1  0  0  0  0
 32 30  1  0  0  0  0
 33 36  1  6  0  0  0
 36 35  1  0  0  0  0
 38 37  1  1  0  0  0
 39 38  1  0  0  0  0
 40 41  1  1  0  0  0
 40 39  1  0  0  0  0
 40 38  1  0  0  0  0
 42 46  1  0  0  0  0
 42 45  2  0  0  0  0
 43 44  1  0  0  0  0
 45 47  1  0  0  0  0
 46 43  1  0  0  0  0
 47 44  1  0  0  0  0
 47 41  1  0  0  0  0
M  END
>  <MODEL>
4

>  <REMARK>
 VINA RESULT:      -8.0      2.178      5.869
  Name = 
  13 active torsions:
  status: ('A' for Active; 'I' for Inactive)
    1  A    between atoms: C_6  and  C_26
    2  A    between atoms: O_7  and  C_9
    3  A    between atoms: O_7  and  C_25
    4  A    between atoms: C_8  and  N_45
    5  A    between atoms: C_11  and  O_28
    6  A    between atoms: C_12  and  C_26
    7  A    between atoms: C_15  and  C_39
    8  A    between atoms: C_17  and  C_23
    9  A    between atoms: C_18  and  N_44
   10  A    between atoms: C_25  and  O_28
   11  A    between atoms: C_27  and  C_35
   12  A    between atoms: C_34  and  C_36
   13  A    between atoms: C_35  and  N_46
                            x       y       z     vdW  Elec       q    Type
                         _______ _______ _______ _____ _____    ______ ____

>  <TORSDO>
F 13

$$$$
=
 OpenBabel11062417343D

 47 53  0  0  1  0  0  0  0  0999 V2000
  184.9770  178.5360  144.0120 C   0  0  0  0  0  0  0  0  0  0  0  0
  183.9650  178.4010  141.8390 C   0  0  0  0  0  0  0  0  0  0  0  0
  183.7580  178.7790  144.5840 C   0  0  0  0  0  0  0  0  0  0  0  0
  183.8680  178.8840  145.8870 O   0  0  0  0  0  0  0  0  0  0  0  0
  185.8740  178.5020  145.0600 C   0  0  0  0  0  0  0  0  0  0  0  0
  182.5950  178.8660  143.8260 C   0  0  0  0  0  3  0  0  0  0  0  0
  185.1180  178.3240  142.6410 C   0  0  0  0  0  3  0  0  0  0  0  0
  185.1360  178.7080  146.2200 C   0  0  0  0  0  3  0  0  0  0  0  0
  182.7080  178.6780  142.4370 C   0  0  0  0  0  3  0  0  0  0  0  0
  187.5710  177.5420  147.2630 O   0  0  0  0  0  0  0  0  0  0  0  0
  188.0890  177.8770  146.1630 C   0  0  0  0  0  0  0  0  0  0  0  0
  187.2730  178.1940  145.0320 N   0  0  0  0  0  2  0  0  0  0  0  0
  191.1930  177.8760  144.3410 C   0  0  1  0  0  3  0  0  0  0  0  0
  189.9520  178.5210  144.7540 N   0  0  0  0  0  2  0  0  0  0  0  0
  191.3090  176.5400  145.0570 C   0  0  0  0  0  2  0  0  0  0  0  0
  190.1200  176.4720  145.9840 C   0  0  0  0  0  2  0  0  0  0  0  0
  189.5730  177.8810  146.0050 C   0  0  2  0  0  3  0  0  0  0  0  0
  191.2120  177.6850  142.8610 C   0  0  0  0  0  0  0  0  0  0  0  0
  192.3070  177.5060  142.2620 O   0  0  0  0  0  0  0  0  0  0  0  0
  189.9750  177.7220  142.1410 N   0  0  0  0  0  2  0  0  0  0  0  0
  188.9400  178.2590  139.9500 C   0  0  0  0  0  3  0  0  0  0  0  0
  189.1730  177.7590  138.6800 C   0  0  0  0  0  0  0  0  0  0  0  0
  189.8330  177.5540  140.7260 C   0  0  0  0  0  0  0  0  0  0  0  0
  190.1180  176.8480  138.6940 O   0  0  0  0  0  0  0  0  0  0  0  0
  190.5500  176.6890  139.9230 C   0  0  0  0  0  3  0  0  0  0  0  0
  188.6610  179.5760  137.2230 O   0  0  0  0  0  1  0  0  0  0  0  0
  188.4820  178.2050  137.4280 C   0  0  1  0  0  3  0  0  0  0  0  0
  188.9660  177.4150  136.2160 C   0  0  0  0  0  2  0  0  0  0  0  0
  187.9550  176.5780  135.7360 O   0  0  0  0  0  1  0  0  0  0  0  0
  184.0880  178.1990  140.4600 O   0  0  0  0  0  0  0  0  0  0  0  0
  183.0800  179.7310  138.7220 C   0  0  1  0  0  3  0  0  0  0  0  0
  183.0270  178.4490  139.5360 C   0  0  2  0  0  0  0  0  0  0  0  0
  182.1220  179.6120  139.9090 C   0  0  2  0  0  3  0  0  0  0  0  0
  184.1810  180.5040  139.0940 O   0  0  0  0  0  1  0  0  0  0  0  0
  179.8950  178.9300  140.4060 O   0  0  0  0  0  1  0  0  0  0  0  0
  180.7030  179.4380  139.3910 C   0  0  0  0  0  2  0  0  0  0  0  0
  182.4010  177.3380  138.9420 O   0  0  0  0  0  0  0  0  0  0  0  0
  182.6710  177.4110  137.5670 C   0  0  1  0  0  3  0  0  0  0  0  0
  183.9870  176.9730  137.3210 O   0  0  0  0  0  0  0  0  0  0  0  0
  182.9630  176.0760  136.9660 C   0  0  1  0  0  3  0  0  0  0  0  0
  182.9430  174.9120  137.9620 C   0  0  0  0  0  2  0  0  0  0  0  0
  185.1880  172.2510  136.6710 C   0  0  0  0  0  3  0  0  0  0  0  0
  182.9100  171.2630  136.8440 C   0  0  0  0  0  2  0  0  0  0  0  0
  182.3510  172.6850  136.8250 C   0  0  0  0  0  2  0  0  0  0  0  0
  184.7420  173.3770  137.2350 C   0  0  0  0  0  3  0  0  0  0  0  0
  184.2370  171.2430  136.0940 C   0  0  0  0  0  2  0  0  0  0  0  0
  183.3360  173.6360  137.3580 N   0  0  0  0  0  0  0  0  0  0  0  0
  1  3  1  0  0  0  0
  1  5  1  0  0  0  0
  2  9  2  0  0  0  0
  2  7  1  0  0  0  0
  3  4  1  0  0  0  0
  4  8  1  0  0  0  0
  5  8  2  0  0  0  0
  6  3  2  0  0  0  0
  7  1  2  0  0  0  0
  9  6  1  0  0  0  0
 11 10  2  0  0  0  0
 12  5  1  0  0  0  0
 12 11  1  0  0  0  0
 13 18  1  6  0  0  0
 13 14  1  0  0  0  0
 13 15  1  0  0  0  0
 14 17  1  0  0  0  0
 15 16  1  0  0  0  0
 16 17  1  0  0  0  0
 17 11  1  6  0  0  0
 19 18  2  0  0  0  0
 20 18  1  0  0  0  0
 21 23  1  0  0  0  0
 22 24  1  0  0  0  0
 22 21  2  0  0  0  0
 23 20  1  0  0  0  0
 24 25  1  0  0  0  0
 25 23  2  0  0  0  0
 27 26  1  6  0  0  0
 27 22  1  0  0  0  0
 28 27  1  0  0  0  0
 29 28  1  0  0  0  0
 30  2  1  0  0  0  0
 31 34  1  1  0  0  0
 31 32  1  0  0  0  0
 31 33  1  0  0  0  0
 32 37  1  6  0  0  0
 32 33  1  0  0  0  0
 32 30  1  0  0  0  0
 33 36  1  6  0  0  0
 36 35  1  0  0  0  0
 38 37  1  1  0  0  0
 39 38  1  0  0  0  0
 40 39  1  0  0  0  0
 40 38  1  0  0  0  0
 40 41  1  1  0  0  0
 42 45  2  0  0  0  0
 44 43  1  0  0  0  0
 44 47  1  0  0  0  0
 45 47  1  0  0  0  0
 46 42  1  0  0  0  0
 46 43  1  0  0  0  0
 47 41  1  0  0  0  0
M  END
>  <MODEL>
5

>  <REMARK>
 VINA RESULT:      -7.8      2.462      7.858
  Name = 
  13 active torsions:
  status: ('A' for Active; 'I' for Inactive)
    1  A    between atoms: C_6  and  C_26
    2  A    between atoms: O_7  and  C_9
    3  A    between atoms: O_7  and  C_25
    4  A    between atoms: C_8  and  N_45
    5  A    between atoms: C_11  and  O_28
    6  A    between atoms: C_12  and  C_26
    7  A    between atoms: C_15  and  C_39
    8  A    between atoms: C_17  and  C_23
    9  A    between atoms: C_18  and  N_44
   10  A    between atoms: C_25  and  O_28
   11  A    between atoms: C_27  and  C_35
   12  A    between atoms: C_34  and  C_36
   13  A    between atoms: C_35  and  N_46
                            x       y       z     vdW  Elec       q    Type
                         _______ _______ _______ _____ _____    ______ ____

>  <TORSDO>
F 13

$$$$
=
 OpenBabel11062417343D

 47 53  0  0  1  0  0  0  0  0999 V2000
  184.8000  178.5650  144.1810 C   0  0  0  0  0  0  0  0  0  0  0  0
  183.8100  178.2840  142.0120 C   0  0  0  0  0  0  0  0  0  0  0  0
  183.5720  178.8200  144.7270 C   0  0  0  0  0  0  0  0  0  0  0  0
  183.6670  179.0040  146.0230 O   0  0  0  0  0  0  0  0  0  0  0  0
  185.6880  178.6090  145.2360 C   0  0  0  0  0  0  0  0  0  0  0  0
  182.4140  178.8410  143.9560 C   0  0  0  0  0  3  0  0  0  0  0  0
  184.9570  178.2740  142.8270 C   0  0  0  0  0  3  0  0  0  0  0  0
  184.9350  178.8710  146.3760 C   0  0  0  0  0  3  0  0  0  0  0  0
  182.5430  178.5730  142.5820 C   0  0  0  0  0  3  0  0  0  0  0  0
  187.3120  177.4720  147.4100 O   0  0  0  0  0  0  0  0  0  0  0  0
  187.8680  177.9160  146.3680 C   0  0  0  0  0  0  0  0  0  0  0  0
  187.0910  178.3240  145.2380 N   0  0  0  0  0  2  0  0  0  0  0  0
  191.0590  177.5860  144.7370 C   0  0  1  0  0  3  0  0  0  0  0  0
  189.7740  178.2520  144.9100 N   0  0  0  0  0  2  0  0  0  0  0  0
  191.1910  176.5010  145.7930 C   0  0  0  0  0  2  0  0  0  0  0  0
  189.9600  176.6240  146.6570 C   0  0  0  0  0  2  0  0  0  0  0  0
  189.3560  177.9550  146.2720 C   0  0  2  0  0  3  0  0  0  0  0  0
  191.1620  177.0030  143.3670 C   0  0  0  0  0  0  0  0  0  0  0  0
  191.6420  175.8480  143.2080 O   0  0  0  0  0  0  0  0  0  0  0  0
  190.7210  177.7790  142.2480 N   0  0  0  0  0  2  0  0  0  0  0  0
  191.9120  177.1280  140.1700 C   0  0  0  0  0  3  0  0  0  0  0  0
  191.4400  176.7460  138.9260 C   0  0  0  0  0  0  0  0  0  0  0  0
  190.7540  177.3580  140.8800 C   0  0  0  0  0  0  0  0  0  0  0  0
  190.1270  176.7410  138.8960 O   0  0  0  0  0  0  0  0  0  0  0  0
  189.6650  177.1090  140.0680 C   0  0  0  0  0  3  0  0  0  0  0  0
  193.5810  176.8600  137.8840 O   0  0  0  0  0  1  0  0  0  0  0  0
  192.2880  176.3470  137.7570 C   0  0  1  0  0  3  0  0  0  0  0  0
  192.3260  174.8320  137.5890 C   0  0  0  0  0  2  0  0  0  0  0  0
  191.7430  174.4530  136.3770 O   0  0  0  0  0  1  0  0  0  0  0  0
  183.9490  178.0020  140.6480 O   0  0  0  0  0  0  0  0  0  0  0  0
  183.3440  179.6460  138.8280 C   0  0  1  0  0  3  0  0  0  0  0  0
  183.0040  178.4240  139.6630 C   0  0  2  0  0  0  0  0  0  0  0  0
  182.3240  179.7500  139.9630 C   0  0  2  0  0  3  0  0  0  0  0  0
  184.5540  180.2030  139.2420 O   0  0  0  0  0  1  0  0  0  0  0  0
  180.2650  180.9450  139.8990 O   0  0  0  0  0  1  0  0  0  0  0  0
  180.9260  179.8370  139.3720 C   0  0  0  0  0  2  0  0  0  0  0  0
  182.2040  177.4360  139.0590 O   0  0  0  0  0  0  0  0  0  0  0  0
  182.7250  176.1960  139.4600 C   0  0  1  0  0  3  0  0  0  0  0  0
  182.1000  175.1650  138.7290 O   0  0  0  0  0  0  0  0  0  0  0  0
  183.4190  175.4780  138.3500 C   0  0  1  0  0  3  0  0  0  0  0  0
  183.3990  176.2120  137.0060 C   0  0  0  0  0  2  0  0  0  0  0  0
  186.2890  176.3440  134.6800 C   0  0  0  0  0  3  0  0  0  0  0  0
  186.7350  177.9910  136.4920 C   0  0  0  0  0  2  0  0  0  0  0  0
  185.7310  177.2300  137.3560 C   0  0  0  0  0  2  0  0  0  0  0  0
  185.0790  176.1060  135.1940 C   0  0  0  0  0  3  0  0  0  0  0  0
  187.3550  177.0260  135.4880 C   0  0  0  0  0  2  0  0  0  0  0  0
  184.7380  176.5450  136.5170 N   0  0  0  0  0  0  0  0  0  0  0  0
  1  3  1  0  0  0  0
  1  5  1  0  0  0  0
  2  9  2  0  0  0  0
  2  7  1  0  0  0  0
  3  4  1  0  0  0  0
  4  8  1  0  0  0  0
  5 12  1  0  0  0  0
  5  8  2  0  0  0  0
  6  3  2  0  0  0  0
  7  1  2  0  0  0  0
  9  6  1  0  0  0  0
 11 10  2  0  0  0  0
 12 11  1  0  0  0  0
 13 18  1  6  0  0  0
 13 14  1  0  0  0  0
 13 15  1  0  0  0  0
 14 17  1  0  0  0  0
 15 16  1  0  0  0  0
 17 11  1  6  0  0  0
 17 16  1  0  0  0  0
 19 18  2  0  0  0  0
 20 18  1  0  0  0  0
 21 23  1  0  0  0  0
 22 21  2  0  0  0  0
 23 20  1  0  0  0  0
 24 22  1  0  0  0  0
 24 25  1  0  0  0  0
 25 23  2  0  0  0  0
 27 26  1  1  0  0  0
 27 22  1  0  0  0  0
 28 27  1  0  0  0  0
 29 28  1  0  0  0  0
 30  2  1  0  0  0  0
 31 34  1  1  0  0  0
 31 32  1  0  0  0  0
 31 33  1  0  0  0  0
 32 37  1  6  0  0  0
 32 33  1  0  0  0  0
 32 30  1  0  0  0  0
 33 36  1  6  0  0  0
 36 35  1  0  0  0  0
 38 37  1  6  0  0  0
 39 38  1  0  0  0  0
 40 41  1  6  0  0  0
 40 39  1  0  0  0  0
 40 38  1  0  0  0  0
 42 45  2  0  0  0  0
 42 46  1  0  0  0  0
 43 44  1  0  0  0  0
 45 47  1  0  0  0  0
 46 43  1  0  0  0  0
 47 41  1  0  0  0  0
 47 44  1  0  0  0  0
M  END
>  <MODEL>
6

>  <REMARK>
 VINA RESULT:      -7.8      2.674      7.750
  Name = 
  13 active torsions:
  status: ('A' for Active; 'I' for Inactive)
    1  A    between atoms: C_6  and  C_26
    2  A    between atoms: O_7  and  C_9
    3  A    between atoms: O_7  and  C_25
    4  A    between atoms: C_8  and  N_45
    5  A    between atoms: C_11  and  O_28
    6  A    between atoms: C_12  and  C_26
    7  A    between atoms: C_15  and  C_39
    8  A    between atoms: C_17  and  C_23
    9  A    between atoms: C_18  and  N_44
   10  A    between atoms: C_25  and  O_28
   11  A    between atoms: C_27  and  C_35
   12  A    between atoms: C_34  and  C_36
   13  A    between atoms: C_35  and  N_46
                            x       y       z     vdW  Elec       q    Type
                         _______ _______ _______ _____ _____    ______ ____

>  <TORSDO>
F 13

$$$$
=
 OpenBabel11062417343D

 47 53  0  0  1  0  0  0  0  0999 V2000
  191.2790  176.5040  138.0240 C   0  0  0  0  0  0  0  0  0  0  0  0
  191.6070  177.5150  140.1770 C   0  0  0  0  0  0  0  0  0  0  0  0
  192.6030  176.1650  137.9630 C   0  0  0  0  0  0  0  0  0  0  0  0
  192.8630  175.4980  136.8630 O   0  0  0  0  0  0  0  0  0  0  0  0
  190.7180  176.0040  136.8670 C   0  0  0  0  0  0  0  0  0  0  0  0
  193.4940  176.4930  138.9800 C   0  0  0  0  0  3  0  0  0  0  0  0
  190.7390  177.1670  139.1260 C   0  0  0  0  0  3  0  0  0  0  0  0
  191.7410  175.3660  136.1750 C   0  0  0  0  0  3  0  0  0  0  0  0
  192.9830  177.1800  140.0950 C   0  0  0  0  0  3  0  0  0  0  0  0
  189.0080  178.3080  136.2150 O   0  0  0  0  0  0  0  0  0  0  0  0
  188.5080  177.1530  136.3100 C   0  0  0  0  0  0  0  0  0  0  0  0
  189.3420  176.0020  136.4680 N   0  0  0  0  0  2  0  0  0  0  0  0
  185.0600  177.5620  137.2550 C   0  0  1  0  0  3  0  0  0  0  0  0
  186.3230  178.0980  136.7600 N   0  0  0  0  0  2  0  0  0  0  0  0
  185.2020  176.0600  137.4270 C   0  0  0  0  0  2  0  0  0  0  0  0
  186.5830  175.7210  136.9210 C   0  0  0  0  0  2  0  0  0  0  0  0
  187.0340  176.9640  136.1870 C   0  0  2  0  0  3  0  0  0  0  0  0
  184.6920  178.2090  138.5480 C   0  0  0  0  0  0  0  0  0  0  0  0
  185.3100  179.2380  138.9380 O   0  0  0  0  0  0  0  0  0  0  0  0
  183.6430  177.6370  139.3370 N   0  0  0  0  0  2  0  0  0  0  0  0
  181.9150  178.6510  140.8020 C   0  0  0  0  0  3  0  0  0  0  0  0
  181.9400  179.0010  142.1410 C   0  0  0  0  0  0  0  0  0  0  0  0
  183.1780  178.1430  140.5930 C   0  0  0  0  0  0  0  0  0  0  0  0
  183.1030  178.7220  142.6830 O   0  0  0  0  0  0  0  0  0  0  0  0
  183.8920  178.1970  141.7750 C   0  0  0  0  0  3  0  0  0  0  0  0
  180.0850  180.4980  142.1260 O   0  0  0  0  0  1  0  0  0  0  0  0
  180.7960  179.5870  142.9110 C   0  0  1  0  0  3  0  0  0  0  0  0
  179.8690  178.4980  143.4410 C   0  0  0  0  0  2  0  0  0  0  0  0
  179.1770  178.9440  144.5700 O   0  0  0  0  0  1  0  0  0  0  0  0
  191.0840  178.1870  141.2880 O   0  0  0  0  0  0  0  0  0  0  0  0
  191.0770  178.0230  143.8090 C   0  0  1  0  0  3  0  0  0  0  0  0
  190.6100  177.5140  142.4560 C   0  0  2  0  0  0  0  0  0  0  0  0
  191.6740  176.7440  143.2200 C   0  0  2  0  0  3  0  0  0  0  0  0
  191.9860  179.0700  143.6530 O   0  0  0  0  0  1  0  0  0  0  0  0
  192.1370  174.6480  144.2530 O   0  0  0  0  0  1  0  0  0  0  0  0
  191.1080  175.5420  143.9590 C   0  0  0  0  0  2  0  0  0  0  0  0
  189.3340  176.9240  142.3980 O   0  0  0  0  0  0  0  0  0  0  0  0
  188.4160  177.9680  142.2030 C   0  0  1  0  0  3  0  0  0  0  0  0
  187.1400  177.4300  141.9420 O   0  0  0  0  0  0  0  0  0  0  0  0
  187.3280  177.9760  143.2250 C   0  0  1  0  0  3  0  0  0  0  0  0
  187.4100  176.8410  144.2510 C   0  0  0  0  0  2  0  0  0  0  0  0
  186.5900  178.5600  147.4380 C   0  0  0  0  0  3  0  0  0  0  0  0
  188.5840  177.1350  147.8700 C   0  0  0  0  0  2  0  0  0  0  0  0
  188.8420  177.1340  146.3640 C   0  0  0  0  0  2  0  0  0  0  0  0
  186.5020  178.0610  146.2020 C   0  0  0  0  0  3  0  0  0  0  0  0
  187.8480  178.4160  148.2440 C   0  0  0  0  0  2  0  0  0  0  0  0
  187.5870  177.3220  145.6230 N   0  0  0  0  0  0  0  0  0  0  0  0
  1  7  1  0  0  0  0
  2 30  1  0  0  0  0
  3  1  2  0  0  0  0
  3  6  1  0  0  0  0
  4  3  1  0  0  0  0
  5  1  1  0  0  0  0
  6  9  2  0  0  0  0
  7  2  2  0  0  0  0
  8  4  1  0  0  0  0
  8  5  2  0  0  0  0
  9  2  1  0  0  0  0
 10 11  2  0  0  0  0
 11 12  1  0  0  0  0
 12  5  1  0  0  0  0
 13 15  1  0  0  0  0
 13 18  1  1  0  0  0
 14 13  1  0  0  0  0
 16 15  1  0  0  0  0
 17 11  1  1  0  0  0
 17 14  1  0  0  0  0
 17 16  1  0  0  0  0
 18 19  2  0  0  0  0
 18 20  1  0  0  0  0
 20 23  1  0  0  0  0
 21 22  2  0  0  0  0
 22 24  1  0  0  0  0
 22 27  1  0  0  0  0
 23 21  1  0  0  0  0
 23 25  2  0  0  0  0
 25 24  1  0  0  0  0
 27 26  1  6  0  0  0
 27 28  1  0  0  0  0
 28 29  1  0  0  0  0
 31 34  1  6  0  0  0
 32 30  1  6  0  0  0
 32 33  1  0  0  0  0
 32 31  1  0  0  0  0
 33 31  1  0  0  0  0
 33 36  1  1  0  0  0
 36 35  1  0  0  0  0
 37 32  1  0  0  0  0
 38 37  1  1  0  0  0
 38 40  1  0  0  0  0
 39 38  1  0  0  0  0
 39 40  1  0  0  0  0
 40 41  1  1  0  0  0
 41 47  1  0  0  0  0
 42 46  1  0  0  0  0
 43 46  1  0  0  0  0
 44 43  1  0  0  0  0
 45 42  2  0  0  0  0
 47 45  1  0  0  0  0
 47 44  1  0  0  0  0
M  END
>  <MODEL>
7

>  <REMARK>
 VINA RESULT:      -7.6      3.228      7.622
  Name = 
  13 active torsions:
  status: ('A' for Active; 'I' for Inactive)
    1  A    between atoms: C_6  and  C_26
    2  A    between atoms: O_7  and  C_9
    3  A    between atoms: O_7  and  C_25
    4  A    between atoms: C_8  and  N_45
    5  A    between atoms: C_11  and  O_28
    6  A    between atoms: C_12  and  C_26
    7  A    between atoms: C_15  and  C_39
    8  A    between atoms: C_17  and  C_23
    9  A    between atoms: C_18  and  N_44
   10  A    between atoms: C_25  and  O_28
   11  A    between atoms: C_27  and  C_35
   12  A    between atoms: C_34  and  C_36
   13  A    between atoms: C_35  and  N_46
                            x       y       z     vdW  Elec       q    Type
                         _______ _______ _______ _____ _____    ______ ____

>  <TORSDO>
F 13

$$$$
=
 OpenBabel11062417343D

 47 53  0  0  1  0  0  0  0  0999 V2000
  189.0240  177.4620  143.3430 C   0  0  0  0  0  0  0  0  0  0  0  0
  186.9610  177.5190  144.5710 C   0  0  0  0  0  0  0  0  0  0  0  0
  189.7360  177.6260  144.5000 C   0  0  0  0  0  0  0  0  0  0  0  0
  191.0260  177.6060  144.2590 O   0  0  0  0  0  0  0  0  0  0  0  0
  189.9670  177.3430  142.3440 C   0  0  0  0  0  0  0  0  0  0  0  0
  189.1120  177.7630  145.7350 C   0  0  0  0  0  3  0  0  0  0  0  0
  187.6320  177.3860  143.3410 C   0  0  0  0  0  3  0  0  0  0  0  0
  191.2100  177.4230  142.9620 C   0  0  0  0  0  3  0  0  0  0  0  0
  187.7070  177.7130  145.7630 C   0  0  0  0  0  3  0  0  0  0  0  0
  188.7620  179.0780  140.2970 O   0  0  0  0  0  0  0  0  0  0  0  0
  189.0390  177.8770  140.0280 C   0  0  0  0  0  0  0  0  0  0  0  0
  189.7680  177.0660  140.9530 N   0  0  0  0  0  2  0  0  0  0  0  0
  189.5890  176.0480  136.9780 C   0  0  1  0  0  3  0  0  0  0  0  0
  189.4460  176.1040  138.4280 N   0  0  0  0  0  2  0  0  0  0  0  0
  189.3330  177.4330  136.4090 C   0  0  0  0  0  2  0  0  0  0  0  0
  188.9400  178.2900  137.5880 C   0  0  0  0  0  2  0  0  0  0  0  0
  188.6690  177.3040  138.7010 C   0  0  2  0  0  3  0  0  0  0  0  0
  190.9530  175.5690  136.6070 C   0  0  0  0  0  0  0  0  0  0  0  0
  191.0880  174.6410  135.7640 O   0  0  0  0  0  0  0  0  0  0  0  0
  192.0920  176.1700  137.2320 N   0  0  0  0  0  2  0  0  0  0  0  0
  194.1550  174.8660  137.6870 C   0  0  0  0  0  3  0  0  0  0  0  0
  195.4020  174.8880  137.0860 C   0  0  0  0  0  0  0  0  0  0  0  0
  193.4580  175.8210  136.9800 C   0  0  0  0  0  0  0  0  0  0  0  0
  195.4450  175.7650  136.1110 O   0  0  0  0  0  0  0  0  0  0  0  0
  194.2800  176.3600  136.0090 C   0  0  0  0  0  3  0  0  0  0  0  0
  197.4740  173.9290  136.3980 O   0  0  0  0  0  1  0  0  0  0  0  0
  196.5610  174.0110  137.4520 C   0  0  1  0  0  3  0  0  0  0  0  0
  197.2500  174.5030  138.7210 C   0  0  0  0  0  2  0  0  0  0  0  0
  198.0530  175.6130  138.4500 O   0  0  0  0  0  1  0  0  0  0  0  0
  185.5630  177.4540  144.5880 O   0  0  0  0  0  0  0  0  0  0  0  0
  184.5680  179.7210  144.0830 C   0  0  1  0  0  3  0  0  0  0  0  0
  184.7340  178.2500  143.7400 C   0  0  2  0  0  0  0  0  0  0  0  0
  183.4430  178.7300  144.3830 C   0  0  2  0  0  3  0  0  0  0  0  0
  185.2410  180.0270  145.2670 O   0  0  0  0  0  1  0  0  0  0  0  0
  181.1100  179.0660  144.0440 O   0  0  0  0  0  1  0  0  0  0  0  0
  182.3230  178.9240  143.3730 C   0  0  0  0  0  2  0  0  0  0  0  0
  184.6580  177.8970  142.3800 O   0  0  0  0  0  0  0  0  0  0  0  0
  184.9660  179.0520  141.6450 C   0  0  1  0  0  3  0  0  0  0  0  0
  185.6900  178.6970  140.4900 O   0  0  0  0  0  0  0  0  0  0  0  0
  184.3450  179.0540  140.2880 C   0  0  1  0  0  3  0  0  0  0  0  0
  183.5320  177.7980  139.9590 C   0  0  0  0  0  2  0  0  0  0  0  0
  181.9140  178.2400  136.6470 C   0  0  0  0  0  3  0  0  0  0  0  0
  184.1070  177.1340  136.2450 C   0  0  0  0  0  2  0  0  0  0  0  0
  184.0910  176.6930  137.7070 C   0  0  0  0  0  2  0  0  0  0  0  0
  182.2110  178.3590  137.9430 C   0  0  0  0  0  3  0  0  0  0  0  0
  182.6700  177.2930  135.7610 C   0  0  0  0  0  2  0  0  0  0  0  0
  183.3010  177.6270  138.5220 N   0  0  0  0  0  0  0  0  0  0  0  0
  1  3  1  0  0  0  0
  2 30  1  0  0  0  0
  2  9  2  0  0  0  0
  3  6  2  0  0  0  0
  4  3  1  0  0  0  0
  5  8  2  0  0  0  0
  5  1  1  0  0  0  0
  6  9  1  0  0  0  0
  7  1  2  0  0  0  0
  7  2  1  0  0  0  0
  8  4  1  0  0  0  0
 11 10  2  0  0  0  0
 11 12  1  0  0  0  0
 12  5  1  0  0  0  0
 13 18  1  1  0  0  0
 13 14  1  0  0  0  0
 14 17  1  0  0  0  0
 15 13  1  0  0  0  0
 15 16  1  0  0  0  0
 16 17  1  0  0  0  0
 17 11  1  1  0  0  0
 18 20  1  0  0  0  0
 19 18  2  0  0  0  0
 22 27  1  0  0  0  0
 22 21  2  0  0  0  0
 23 20  1  0  0  0  0
 23 21  1  0  0  0  0
 24 22  1  0  0  0  0
 25 24  1  0  0  0  0
 25 23  2  0  0  0  0
 27 26  1  6  0  0  0
 27 28  1  0  0  0  0
 29 28  1  0  0  0  0
 31 33  1  0  0  0  0
 31 34  1  1  0  0  0
 32 37  1  6  0  0  0
 32 31  1  0  0  0  0
 32 33  1  0  0  0  0
 32 30  1  0  0  0  0
 33 36  1  6  0  0  0
 36 35  1  0  0  0  0
 38 37  1  1  0  0  0
 39 38  1  0  0  0  0
 40 41  1  1  0  0  0
 40 39  1  0  0  0  0
 40 38  1  0  0  0  0
 42 45  2  0  0  0  0
 43 44  1  0  0  0  0
 44 47  1  0  0  0  0
 45 47  1  0  0  0  0
 46 43  1  0  0  0  0
 46 42  1  0  0  0  0
 47 41  1  0  0  0  0
M  END
>  <MODEL>
8

>  <REMARK>
 VINA RESULT:      -7.6      3.498      7.794
  Name = 
  13 active torsions:
  status: ('A' for Active; 'I' for Inactive)
    1  A    between atoms: C_6  and  C_26
    2  A    between atoms: O_7  and  C_9
    3  A    between atoms: O_7  and  C_25
    4  A    between atoms: C_8  and  N_45
    5  A    between atoms: C_11  and  O_28
    6  A    between atoms: C_12  and  C_26
    7  A    between atoms: C_15  and  C_39
    8  A    between atoms: C_17  and  C_23
    9  A    between atoms: C_18  and  N_44
   10  A    between atoms: C_25  and  O_28
   11  A    between atoms: C_27  and  C_35
   12  A    between atoms: C_34  and  C_36
   13  A    between atoms: C_35  and  N_46
                            x       y       z     vdW  Elec       q    Type
                         _______ _______ _______ _____ _____    ______ ____

>  <TORSDO>
F 13

$$$$
=
 OpenBabel11062417343D

 47 53  0  0  1  0  0  0  0  0999 V2000
  190.1990  177.5590  142.3980 C   0  0  0  0  0  0  0  0  0  0  0  0
  189.8010  177.0350  140.0890 C   0  0  0  0  0  0  0  0  0  0  0  0
  191.5490  177.5830  142.1770 C   0  0  0  0  0  0  0  0  0  0  0  0
  192.1950  177.9020  143.2740 O   0  0  0  0  0  0  0  0  0  0  0  0
  190.0380  177.8830  143.7290 C   0  0  0  0  0  0  0  0  0  0  0  0
  192.0940  177.3190  140.9250 C   0  0  0  0  0  3  0  0  0  0  0  0
  189.2900  177.3060  141.3720 C   0  0  0  0  0  3  0  0  0  0  0  0
  191.3130  178.1060  144.2390 C   0  0  0  0  0  3  0  0  0  0  0  0
  191.2030  177.0380  139.8740 C   0  0  0  0  0  3  0  0  0  0  0  0
  189.2740  176.7570  146.3370 O   0  0  0  0  0  0  0  0  0  0  0  0
  188.4310  177.3990  145.6510 C   0  0  0  0  0  0  0  0  0  0  0  0
  188.8240  178.0870  144.4600 N   0  0  0  0  0  2  0  0  0  0  0  0
  184.9190  178.1080  145.3220 C   0  0  1  0  0  3  0  0  0  0  0  0
  186.0980  177.3140  145.0020 N   0  0  0  0  0  2  0  0  0  0  0  0
  185.3000  179.1520  146.3580 C   0  0  0  0  0  2  0  0  0  0  0  0
  186.7420  178.8730  146.7040 C   0  0  0  0  0  2  0  0  0  0  0  0
  187.0170  177.5080  146.1140 C   0  0  2  0  0  3  0  0  0  0  0  0
  184.3810  178.7590  144.0910 C   0  0  0  0  0  0  0  0  0  0  0  0
  183.7390  179.8410  144.1790 O   0  0  0  0  0  0  0  0  0  0  0  0
  184.5950  178.1290  142.8230 N   0  0  0  0  0  2  0  0  0  0  0  0
  182.8750  178.4370  141.0600 C   0  0  0  0  0  3  0  0  0  0  0  0
  182.9200  179.0950  139.8430 C   0  0  0  0  0  0  0  0  0  0  0  0
  184.1440  178.6300  141.5600 C   0  0  0  0  0  0  0  0  0  0  0  0
  184.0980  179.6360  139.6380 O   0  0  0  0  0  0  0  0  0  0  0  0
  184.8800  179.3780  140.6610 C   0  0  0  0  0  3  0  0  0  0  0  0
  181.4060  180.5640  138.7320 O   0  0  0  0  0  1  0  0  0  0  0  0
  181.7790  179.2250  138.8800 C   0  0  1  0  0  3  0  0  0  0  0  0
  182.1220  178.6110  137.5270 C   0  0  0  0  0  2  0  0  0  0  0  0
  182.5460  177.2880  137.6770 O   0  0  0  0  0  1  0  0  0  0  0  0
  188.9040  176.7700  139.0480 O   0  0  0  0  0  0  0  0  0  0  0  0
  189.2460  178.5800  137.3180 C   0  0  1  0  0  3  0  0  0  0  0  0
  189.1680  177.1080  137.6840 C   0  0  2  0  0  0  0  0  0  0  0  0
  188.0050  177.7620  136.9560 C   0  0  2  0  0  3  0  0  0  0  0  0
  188.9640  179.3780  138.4280 O   0  0  0  0  0  1  0  0  0  0  0  0
  187.0610  176.5000  135.1700 O   0  0  0  0  0  1  0  0  0  0  0  0
  188.0150  177.4740  135.4630 C   0  0  0  0  0  2  0  0  0  0  0  0
  189.9530  176.2160  136.9310 O   0  0  0  0  0  0  0  0  0  0  0  0
  189.5020  174.9230  137.2380 C   0  0  1  0  0  3  0  0  0  0  0  0
  189.3440  174.1850  136.0470 O   0  0  0  0  0  0  0  0  0  0  0  0
  190.4700  173.8640  136.8270 C   0  0  1  0  0  3  0  0  0  0  0  0
  191.7320  174.3880  136.1340 C   0  0  0  0  0  2  0  0  0  0  0  0
  194.6870  172.3410  137.0620 C   0  0  0  0  0  3  0  0  0  0  0  0
  195.0310  174.6030  138.0390 C   0  0  0  0  0  2  0  0  0  0  0  0
  193.5240  174.8240  137.9230 C   0  0  0  0  0  2  0  0  0  0  0  0
  193.5760  172.7710  136.4570 C   0  0  0  0  0  3  0  0  0  0  0  0
  195.3020  173.1110  138.1930 C   0  0  0  0  0  2  0  0  0  0  0  0
  192.9640  174.0140  136.8310 N   0  0  0  0  0  0  0  0  0  0  0  0
  1  5  1  0  0  0  0
  2  7  1  0  0  0  0
  3  1  1  0  0  0  0
  3  4  1  0  0  0  0
  4  8  1  0  0  0  0
  5  8  2  0  0  0  0
  5 12  1  0  0  0  0
  6  3  2  0  0  0  0
  7  1  2  0  0  0  0
  9  2  2  0  0  0  0
  9  6  1  0  0  0  0
 11 10  2  0  0  0  0
 12 11  1  0  0  0  0
 13 18  1  6  0  0  0
 13 15  1  0  0  0  0
 14 13  1  0  0  0  0
 14 17  1  0  0  0  0
 15 16  1  0  0  0  0
 17 11  1  6  0  0  0
 17 16  1  0  0  0  0
 18 19  2  0  0  0  0
 20 18  1  0  0  0  0
 21 23  1  0  0  0  0
 22 21  2  0  0  0  0
 23 20  1  0  0  0  0
 24 22  1  0  0  0  0
 24 25  1  0  0  0  0
 25 23  2  0  0  0  0
 27 26  1  6  0  0  0
 27 22  1  0  0  0  0
 28 29  1  0  0  0  0
 28 27  1  0  0  0  0
 30  2  1  0  0  0  0
 31 32  1  0  0  0  0
 31 34  1  1  0  0  0
 32 37  1  6  0  0  0
 32 30  1  0  0  0  0
 33 36  1  6  0  0  0
 33 31  1  0  0  0  0
 33 32  1  0  0  0  0
 35 36  1  0  0  0  0
 38 37  1  6  0  0  0
 39 40  1  0  0  0  0
 39 38  1  0  0  0  0
 40 41  1  6  0  0  0
 40 38  1  0  0  0  0
 41 47  1  0  0  0  0
 42 46  1  0  0  0  0
 43 46  1  0  0  0  0
 44 43  1  0  0  0  0
 45 47  1  0  0  0  0
 45 42  2  0  0  0  0
 47 44  1  0  0  0  0
M  END
>  <MODEL>
9

>  <REMARK>
 VINA RESULT:      -7.5      3.328      7.123
  Name = 
  13 active torsions:
  status: ('A' for Active; 'I' for Inactive)
    1  A    between atoms: C_6  and  C_26
    2  A    between atoms: O_7  and  C_9
    3  A    between atoms: O_7  and  C_25
    4  A    between atoms: C_8  and  N_45
    5  A    between atoms: C_11  and  O_28
    6  A    between atoms: C_12  and  C_26
    7  A    between atoms: C_15  and  C_39
    8  A    between atoms: C_17  and  C_23
    9  A    between atoms: C_18  and  N_44
   10  A    between atoms: C_25  and  O_28
   11  A    between atoms: C_27  and  C_35
   12  A    between atoms: C_34  and  C_36
   13  A    between atoms: C_35  and  N_46
                            x       y       z     vdW  Elec       q    Type
                         _______ _______ _______ _____ _____    ______ ____

>  <TORSDO>
F 13

$$$$
