=
 OpenBabel11062414023D

 49 51  0  0  1  0  0  0  0  0999 V2000
  186.5370  178.0710  143.2650 S   0  0  0  0  0  0  0  0  0  0  0  0
  184.1160  178.3390  141.9300 C   0  0  0  0  0  0  0  0  0  0  0  0
  182.7520  178.9660  144.2670 C   0  0  0  0  0  3  0  0  0  0  0  0
  184.7800  178.4010  143.1680 C   0  0  0  0  0  0  0  0  0  0  0  0
  182.0590  178.9320  143.0580 C   0  0  0  0  0  3  0  0  0  0  0  0
  184.0820  178.6920  144.2980 N   0  0  0  0  0  0  0  0  0  0  0  0
  182.7340  178.6070  141.8720 C   0  0  0  0  0  0  0  0  0  0  0  0
  184.8140  178.0110  140.8070 F   0  0  0  0  0  0  0  0  0  0  0  0
  182.2180  179.4000  139.5410 N   0  0  0  0  0  2  0  0  0  0  0  0
  181.0530  177.6210  140.5130 O   0  0  0  0  0  0  0  0  0  0  0  0
  181.9670  178.4830  140.6170 C   0  0  0  0  0  0  0  0  0  0  0  0
  181.4410  179.4830  138.3050 C   0  0  1  0  0  3  0  0  0  0  0  0
  181.3430  180.9180  137.8210 C   0  0  0  0  0  1  0  0  0  0  0  0
  182.0250  178.5940  137.2070 C   0  0  0  0  0  2  0  0  0  0  0  0
  180.9640  177.7730  136.5360 C   0  0  0  0  0  0  0  0  0  0  0  0
  179.8320  178.2750  136.3070 O   0  0  0  0  0  0  0  0  0  0  0  0
  181.2520  176.4560  136.0680 N   0  0  0  0  0  2  0  0  0  0  0  0
  182.5880  175.8860  136.1290 C   0  0  0  0  0  2  0  0  0  0  0  0
  182.7040  174.7120  137.5130 P   0  0  1  0  0  0  0  0  0  0  0  0
  183.2210  175.4370  138.7380 O   0  0  0  0  0  1  0  0  0  0  0  0
  181.1770  174.0600  137.8450 O   0  0  0  0  0  0  0  0  0  0  0  0
  185.2970  173.0850  138.1640 O   0  0  0  0  0  1  0  0  0  0  0  0
  184.6220  173.3830  135.6520 O   0  0  0  0  0  0  0  0  0  0  0  0
  184.0410  173.1440  137.0270 P   0  0  0  0  0  0  0  0  0  0  0  0
  183.2030  171.6700  137.0320 O   0  0  0  0  0  1  0  0  0  0  0  0
  186.3750  177.2000  144.8550 C   0  0  0  0  0  2  0  0  0  0  0  0
  187.6560  177.2720  145.6950 C   0  0  2  0  0  3  0  0  0  0  0  0
  186.3270  178.9300  146.8610 O   0  0  0  0  0  1  0  0  0  0  0  0
  187.9620  177.7510  148.1580 C   0  0  0  0  0  1  0  0  0  0  0  0
  187.5820  178.3190  146.8000 C   0  0  1  0  0  3  0  0  0  0  0  0
  188.8380  177.6140  144.7990 C   0  0  0  0  0  2  0  0  0  0  0  0
  189.9430  176.5610  144.8820 C   0  0  1  0  0  3  0  0  0  0  0  0
  191.5660  177.0540  143.0240 C   0  0  0  0  0  2  0  0  0  0  0  0
  190.3970  176.2210  143.4540 C   0  0  2  0  0  3  0  0  0  0  0  0
  189.3810  176.4570  142.5340 O   0  0  0  0  0  0  0  0  0  0  0  0
  190.0600  176.9100  141.3960 C   0  0  2  0  0  3  0  0  0  0  0  0
  191.2580  177.5580  141.7600 O   0  0  0  0  0  0  0  0  0  0  0  0
  189.1890  177.8760  140.6100 C   0  0  0  0  0  2  0  0  0  0  0  0
  188.6710  177.2440  139.3250 C   0  0  0  0  0  2  0  0  0  0  0  0
  188.9540  178.1840  138.1600 C   0  0  0  0  0  2  0  0  0  0  0  0
  188.3300  177.6850  136.8640 C   0  0  1  0  0  3  0  0  0  0  0  0
  185.8580  177.6270  137.0800 C   0  0  0  0  0  2  0  0  0  0  0  0
  186.9570  178.2790  136.6940 C   0  0  0  0  0  3  0  0  0  0  0  0
  189.1450  178.0110  135.7700 O   0  0  0  0  0  0  0  0  0  0  0  0
  188.5480  177.4060  134.6560 C   0  0  0  0  0  1  0  0  0  0  0  0
  191.1140  176.9740  145.8030 C   0  0  0  0  0  0  0  0  0  0  0  0
  192.0710  175.8850  146.2280 C   0  0  0  0  0  2  0  0  0  0  0  0
  191.7610  178.1930  145.5560 O   0  0  0  0  0  1  0  0  0  0  0  0
  191.1370  176.5290  147.2510 C   0  0  0  0  0  2  0  0  0  0  0  0
  1 26  1  0  0  0  0
  2  4  1  0  0  0  0
  3  6  1  0  0  0  0
  4  1  1  0  0  0  0
  4  6  2  0  0  0  0
  5  3  2  0  0  0  0
  7  2  2  0  0  0  0
  7  5  1  0  0  0  0
  8  2  1  0  0  0  0
  9 11  1  0  0  0  0
 10 11  2  0  0  0  0
 11  7  1  0  0  0  0
 12 13  1  6  0  0  0
 12  9  1  0  0  0  0
 14 12  1  0  0  0  0
 15 14  1  0  0  0  0
 16 15  2  0  0  0  0
 17 18  1  0  0  0  0
 17 15  1  0  0  0  0
 18 19  1  0  0  0  0
 19 21  2  1  0  0  0
 19 20  1  0  0  0  0
 23 24  2  0  0  0  0
 24 25  1  0  0  0  0
 24 19  1  0  0  0  0
 24 22  1  0  0  0  0
 26 27  1  0  0  0  0
 27 31  1  6  0  0  0
 27 30  1  0  0  0  0
 30 28  1  0  0  0  0
 30 29  1  1  0  0  0
 32 31  1  6  0  0  0
 32 46  1  0  0  0  0
 33 34  1  0  0  0  0
 34 32  1  1  0  0  0
 35 34  1  0  0  0  0
 36 38  1  1  0  0  0
 36 37  1  0  0  0  0
 36 35  1  0  0  0  0
 37 33  1  0  0  0  0
 39 38  1  0  0  0  0
 40 39  1  0  0  0  0
 41 43  1  6  0  0  0
 41 40  1  0  0  0  0
 43 42  2  0  0  0  0
 44 41  1  0  0  0  0
 45 44  1  0  0  0  0
 46 47  1  0  0  0  0
 46 49  1  0  0  0  0
 47 49  1  0  0  0  0
 48 46  1  0  0  0  0
M  END
>  <MODEL>
1

>  <REMARK>
 VINA RESULT:      -6.9      0.000      0.000
  Name = 
  21 active torsions:
  status: ('A' for Active; 'I' for Inactive)
    1  A    between atoms: N_2  and  C_35
    2  A    between atoms: P_3  and  C_14
    3  A    between atoms: P_3  and  P_41
    4  A    between atoms: C_4  and  C_31
    5  A    between atoms: C_4  and  C_34
    6  A    between atoms: C_4  and  C_45
    7  A    between atoms: O_5  and  C_22
    8  A    between atoms: C_9  and  C_17
    9  A    between atoms: C_11  and  C_17
   10  A    between atoms: C_12  and  C_26
   11  A    between atoms: C_12  and  C_42
   12  A    between atoms: C_14  and  N_33
   13  A    between atoms: C_15  and  S_29
   14  A    between atoms: C_17  and  C_45
   15  A    between atoms: C_22  and  C_32
   16  A    between atoms: C_22  and  C_39
   17  A    between atoms: C_25  and  C_44
   18  A    between atoms: C_26  and  C_32
   19  A    between atoms: S_29  and  C_31
   20  A    between atoms: C_35  and  C_44
   21  A    between atoms: C_40  and  C_46
                            x       y       z     vdW  Elec       q    Type
                         _______ _______ _______ _____ _____    ______ ____

>  <TORSDO>
F 21

$$$$
=
 OpenBabel11062414023D

 49 51  0  0  1  0  0  0  0  0999 V2000
  187.0710  177.8920  143.5510 S   0  0  0  0  0  0  0  0  0  0  0  0
  184.5880  178.2890  142.3720 C   0  0  0  0  0  0  0  0  0  0  0  0
  183.4270  179.0490  144.7790 C   0  0  0  0  0  3  0  0  0  0  0  0
  185.3370  178.3320  143.5620 C   0  0  0  0  0  0  0  0  0  0  0  0
  182.6530  179.0360  143.6190 C   0  0  0  0  0  3  0  0  0  0  0  0
  184.7370  178.6910  144.7290 N   0  0  0  0  0  0  0  0  0  0  0  0
  183.2240  178.6440  142.4000 C   0  0  0  0  0  0  0  0  0  0  0  0
  185.1860  177.8940  141.2140 F   0  0  0  0  0  0  0  0  0  0  0  0
  182.5770  179.4510  140.1060 N   0  0  0  0  0  2  0  0  0  0  0  0
  181.4180  177.7170  141.1660 O   0  0  0  0  0  0  0  0  0  0  0  0
  182.3680  178.5460  141.2020 C   0  0  0  0  0  0  0  0  0  0  0  0
  181.7190  179.5590  138.9260 C   0  0  1  0  0  3  0  0  0  0  0  0
  181.3500  181.0060  138.6550 C   0  0  0  0  0  1  0  0  0  0  0  0
  182.3730  178.9410  137.6910 C   0  0  0  0  0  2  0  0  0  0  0  0
  181.9840  177.5030  137.5190 C   0  0  0  0  0  0  0  0  0  0  0  0
  180.9490  177.0590  138.0830 O   0  0  0  0  0  0  0  0  0  0  0  0
  182.7230  176.6500  136.6460 N   0  0  0  0  0  2  0  0  0  0  0  0
  183.8130  177.1420  135.8190 C   0  0  0  0  0  2  0  0  0  0  0  0
  185.3740  176.3440  136.3020 P   0  0  1  0  0  0  0  0  0  0  0  0
  185.0740  175.1900  137.2350 O   0  0  0  0  0  1  0  0  0  0  0  0
  186.1760  175.7660  134.9270 O   0  0  0  0  0  0  0  0  0  0  0  0
  185.6770  178.7720  138.2530 O   0  0  0  0  0  1  0  0  0  0  0  0
  187.3930  178.5430  136.2900 O   0  0  0  0  0  0  0  0  0  0  0  0
  186.6200  177.7310  137.3040 P   0  0  0  0  0  0  0  0  0  0  0  0
  187.7090  176.8910  138.2960 O   0  0  0  0  0  1  0  0  0  0  0  0
  186.9180  176.8890  145.0620 C   0  0  0  0  0  2  0  0  0  0  0  0
  188.0650  177.1360  146.0480 C   0  0  2  0  0  3  0  0  0  0  0  0
  186.3460  178.4770  147.1070 O   0  0  0  0  0  1  0  0  0  0  0  0
  188.0600  177.5970  148.5340 C   0  0  0  0  0  1  0  0  0  0  0  0
  187.6960  178.1190  147.1530 C   0  0  1  0  0  3  0  0  0  0  0  0
  189.2700  177.6940  145.3040 C   0  0  0  0  0  2  0  0  0  0  0  0
  190.4660  176.7440  145.3570 C   0  0  1  0  0  3  0  0  0  0  0  0
  191.3730  178.6570  143.9980 C   0  0  0  0  0  2  0  0  0  0  0  0
  191.4910  177.1950  144.3050 C   0  0  2  0  0  3  0  0  0  0  0  0
  191.3070  176.5210  143.1020 O   0  0  0  0  0  0  0  0  0  0  0  0
  191.6250  177.4790  142.1310 C   0  0  2  0  0  3  0  0  0  0  0  0
  191.3520  178.7760  142.6090 O   0  0  0  0  0  0  0  0  0  0  0  0
  190.8220  177.2330  140.8640 C   0  0  0  0  0  2  0  0  0  0  0  0
  191.7250  176.8970  139.6850 C   0  0  0  0  0  2  0  0  0  0  0  0
  190.8960  176.9020  138.4070 C   0  0  0  0  0  2  0  0  0  0  0  0
  191.3840  175.8590  137.4110 C   0  0  1  0  0  3  0  0  0  0  0  0
  193.8030  175.3360  137.2300 C   0  0  0  0  0  2  0  0  0  0  0  0
  192.7940  176.1750  136.9880 C   0  0  0  0  0  3  0  0  0  0  0  0
  191.3160  174.5760  137.9740 O   0  0  0  0  0  0  0  0  0  0  0  0
  190.4730  173.8360  137.1340 C   0  0  0  0  0  1  0  0  0  0  0  0
  191.0760  176.6080  146.7710 C   0  0  0  0  0  0  0  0  0  0  0  0
  192.2570  175.6770  146.9230 C   0  0  0  0  0  2  0  0  0  0  0  0
  191.1930  177.7590  147.5630 O   0  0  0  0  0  1  0  0  0  0  0  0
  190.9110  175.3190  147.5500 C   0  0  0  0  0  2  0  0  0  0  0  0
  1  4  1  0  0  0  0
  1 26  1  0  0  0  0
  2  7  2  0  0  0  0
  2  4  1  0  0  0  0
  4  6  2  0  0  0  0
  5  3  2  0  0  0  0
  6  3  1  0  0  0  0
  7  5  1  0  0  0  0
  8  2  1  0  0  0  0
  9 11  1  0  0  0  0
 10 11  2  0  0  0  0
 11  7  1  0  0  0  0
 12 13  1  6  0  0  0
 12  9  1  0  0  0  0
 14 12  1  0  0  0  0
 15 14  1  0  0  0  0
 15 16  2  0  0  0  0
 17 15  1  0  0  0  0
 18 19  1  0  0  0  0
 18 17  1  0  0  0  0
 19 21  2  6  0  0  0
 19 20  1  0  0  0  0
 19 24  1  0  0  0  0
 23 24  2  0  0  0  0
 24 22  1  0  0  0  0
 24 25  1  0  0  0  0
 27 26  1  6  0  0  0
 27 30  1  0  0  0  0
 28 30  1  0  0  0  0
 30 29  1  1  0  0  0
 31 27  1  0  0  0  0
 32 31  1  1  0  0  0
 32 46  1  0  0  0  0
 33 34  1  0  0  0  0
 34 32  1  1  0  0  0
 35 34  1  0  0  0  0
 36 38  1  6  0  0  0
 36 37  1  0  0  0  0
 36 35  1  0  0  0  0
 37 33  1  0  0  0  0
 39 38  1  0  0  0  0
 40 39  1  0  0  0  0
 41 43  1  1  0  0  0
 41 44  1  0  0  0  0
 41 40  1  0  0  0  0
 43 42  2  0  0  0  0
 45 44  1  0  0  0  0
 46 47  1  0  0  0  0
 46 49  1  0  0  0  0
 46 48  1  0  0  0  0
 47 49  1  0  0  0  0
M  END
>  <MODEL>
2

>  <REMARK>
 VINA RESULT:      -6.8      2.206      2.951
  Name = 
  21 active torsions:
  status: ('A' for Active; 'I' for Inactive)
    1  A    between atoms: N_2  and  C_35
    2  A    between atoms: P_3  and  C_14
    3  A    between atoms: P_3  and  P_41
    4  A    between atoms: C_4  and  C_31
    5  A    between atoms: C_4  and  C_34
    6  A    between atoms: C_4  and  C_45
    7  A    between atoms: O_5  and  C_22
    8  A    between atoms: C_9  and  C_17
    9  A    between atoms: C_11  and  C_17
   10  A    between atoms: C_12  and  C_26
   11  A    between atoms: C_12  and  C_42
   12  A    between atoms: C_14  and  N_33
   13  A    between atoms: C_15  and  S_29
   14  A    between atoms: C_17  and  C_45
   15  A    between atoms: C_22  and  C_32
   16  A    between atoms: C_22  and  C_39
   17  A    between atoms: C_25  and  C_44
   18  A    between atoms: C_26  and  C_32
   19  A    between atoms: S_29  and  C_31
   20  A    between atoms: C_35  and  C_44
   21  A    between atoms: C_40  and  C_46
                            x       y       z     vdW  Elec       q    Type
                         _______ _______ _______ _____ _____    ______ ____

>  <TORSDO>
F 21

$$$$
=
 OpenBabel11062414023D

 49 51  0  0  1  0  0  0  0  0999 V2000
  189.4290  177.3740  141.7480 S   0  0  0  0  0  0  0  0  0  0  0  0
  190.6080  176.5230  139.3820 C   0  0  0  0  0  0  0  0  0  0  0  0
  193.1280  177.3720  140.1850 C   0  0  0  0  0  3  0  0  0  0  0  0
  190.8080  177.1310  140.6340 C   0  0  0  0  0  0  0  0  0  0  0  0
  192.9760  176.7590  138.9420 C   0  0  0  0  0  3  0  0  0  0  0  0
  192.0510  177.5530  140.9930 N   0  0  0  0  0  0  0  0  0  0  0  0
  191.7080  176.3360  138.5200 C   0  0  0  0  0  0  0  0  0  0  0  0
  189.3550  176.1360  139.0140 F   0  0  0  0  0  0  0  0  0  0  0  0
  191.0350  174.4430  137.0040 N   0  0  0  0  0  2  0  0  0  0  0  0
  191.9220  176.4340  136.1560 O   0  0  0  0  0  0  0  0  0  0  0  0
  191.5490  175.7750  137.1640 C   0  0  0  0  0  0  0  0  0  0  0  0
  190.9590  173.7150  135.7380 C   0  0  1  0  0  3  0  0  0  0  0  0
  191.9460  172.5620  135.7160 C   0  0  0  0  0  1  0  0  0  0  0  0
  189.5450  173.2050  135.4610 C   0  0  0  0  0  2  0  0  0  0  0  0
  188.6350  173.4320  136.6310 C   0  0  0  0  0  0  0  0  0  0  0  0
  188.6270  172.6150  137.5890 O   0  0  0  0  0  0  0  0  0  0  0  0
  187.8430  174.6160  136.7150 N   0  0  0  0  0  2  0  0  0  0  0  0
  187.9450  175.6890  135.7400 C   0  0  0  0  0  2  0  0  0  0  0  0
  186.7390  176.9960  136.1210 P   0  0  1  0  0  0  0  0  0  0  0  0
  186.1390  177.5110  134.8300 O   0  0  0  0  0  0  0  0  0  0  0  0
  185.5100  176.3770  137.1080 O   0  0  0  0  0  1  0  0  0  0  0  0
  187.4120  178.4890  138.7880 O   0  0  0  0  0  1  0  0  0  0  0  0
  187.1500  179.9120  136.6070 O   0  0  0  0  0  0  0  0  0  0  0  0
  187.6950  178.5990  137.1210 P   0  0  0  0  0  0  0  0  0  0  0  0
  189.3630  178.5300  136.8230 O   0  0  0  0  0  1  0  0  0  0  0  0
  190.3740  178.5070  142.8140 C   0  0  0  0  0  2  0  0  0  0  0  0
  190.4270  178.0330  144.2710 C   0  0  2  0  0  3  0  0  0  0  0  0
  191.9990  177.2480  145.9390 O   0  0  0  0  0  1  0  0  0  0  0  0
  191.5390  175.7680  144.1100 C   0  0  0  0  0  1  0  0  0  0  0  0
  191.6700  177.2080  144.5820 C   0  0  1  0  0  3  0  0  0  0  0  0
  189.2050  177.1770  144.5770 C   0  0  0  0  0  2  0  0  0  0  0  0
  188.3020  177.8250  145.6260 C   0  0  1  0  0  3  0  0  0  0  0  0
  186.7300  176.7040  144.0120 C   0  0  0  0  0  2  0  0  0  0  0  0
  186.8430  177.4770  145.2900 C   0  0  2  0  0  3  0  0  0  0  0  0
  186.0760  178.6260  145.1290 O   0  0  0  0  0  0  0  0  0  0  0  0
  185.1710  178.2830  144.1170 C   0  0  2  0  0  3  0  0  0  0  0  0
  185.7330  177.3200  143.2550 O   0  0  0  0  0  0  0  0  0  0  0  0
  184.7890  179.5130  143.3100 C   0  0  0  0  0  2  0  0  0  0  0  0
  184.0850  179.1370  142.0140 C   0  0  0  0  0  2  0  0  0  0  0  0
  182.6210  178.8370  142.3120 C   0  0  0  0  0  2  0  0  0  0  0  0
  181.7750  178.8300  141.0460 C   0  0  1  0  0  3  0  0  0  0  0  0
  182.9890  177.5990  139.2660 C   0  0  0  0  0  2  0  0  0  0  0  0
  182.0730  177.5960  140.2380 C   0  0  0  0  0  3  0  0  0  0  0  0
  180.4110  178.8870  141.3700 O   0  0  0  0  0  0  0  0  0  0  0  0
  179.9390  177.5720  141.2610 C   0  0  0  0  0  1  0  0  0  0  0  0
  188.6890  177.4560  147.0770 C   0  0  0  0  0  0  0  0  0  0  0  0
  187.6360  177.6610  148.1410 C   0  0  0  0  0  2  0  0  0  0  0  0
  189.4550  176.3030  147.2920 O   0  0  0  0  0  1  0  0  0  0  0  0
  188.8810  178.5450  148.1130 C   0  0  0  0  0  2  0  0  0  0  0  0
  1 26  1  0  0  0  0
  2  4  1  0  0  0  0
  3  6  1  0  0  0  0
  4  6  2  0  0  0  0
  4  1  1  0  0  0  0
  5  3  2  0  0  0  0
  7  5  1  0  0  0  0
  7  2  2  0  0  0  0
  8  2  1  0  0  0  0
  9 11  1  0  0  0  0
 10 11  2  0  0  0  0
 11  7  1  0  0  0  0
 12 13  1  1  0  0  0
 12  9  1  0  0  0  0
 14 12  1  0  0  0  0
 14 15  1  0  0  0  0
 15 17  1  0  0  0  0
 15 16  2  0  0  0  0
 18 19  1  0  0  0  0
 18 17  1  0  0  0  0
 19 20  2  6  0  0  0
 19 21  1  0  0  0  0
 19 24  1  0  0  0  0
 23 24  2  0  0  0  0
 24 22  1  0  0  0  0
 25 24  1  0  0  0  0
 27 26  1  6  0  0  0
 27 31  1  0  0  0  0
 27 30  1  0  0  0  0
 30 29  1  1  0  0  0
 30 28  1  0  0  0  0
 32 31  1  6  0  0  0
 32 46  1  0  0  0  0
 33 34  1  0  0  0  0
 34 32  1  6  0  0  0
 35 34  1  0  0  0  0
 36 38  1  6  0  0  0
 36 35  1  0  0  0  0
 37 33  1  0  0  0  0
 37 36  1  0  0  0  0
 39 40  1  0  0  0  0
 39 38  1  0  0  0  0
 41 43  1  1  0  0  0
 41 44  1  0  0  0  0
 41 40  1  0  0  0  0
 42 43  2  0  0  0  0
 45 44  1  0  0  0  0
 46 48  1  0  0  0  0
 46 49  1  0  0  0  0
 46 47  1  0  0  0  0
 49 47  1  0  0  0  0
M  END
>  <MODEL>
3

>  <REMARK>
 VINA RESULT:      -6.6      3.514      7.375
  Name = 
  21 active torsions:
  status: ('A' for Active; 'I' for Inactive)
    1  A    between atoms: N_2  and  C_35
    2  A    between atoms: P_3  and  C_14
    3  A    between atoms: P_3  and  P_41
    4  A    between atoms: C_4  and  C_31
    5  A    between atoms: C_4  and  C_34
    6  A    between atoms: C_4  and  C_45
    7  A    between atoms: O_5  and  C_22
    8  A    between atoms: C_9  and  C_17
    9  A    between atoms: C_11  and  C_17
   10  A    between atoms: C_12  and  C_26
   11  A    between atoms: C_12  and  C_42
   12  A    between atoms: C_14  and  N_33
   13  A    between atoms: C_15  and  S_29
   14  A    between atoms: C_17  and  C_45
   15  A    between atoms: C_22  and  C_32
   16  A    between atoms: C_22  and  C_39
   17  A    between atoms: C_25  and  C_44
   18  A    between atoms: C_26  and  C_32
   19  A    between atoms: S_29  and  C_31
   20  A    between atoms: C_35  and  C_44
   21  A    between atoms: C_40  and  C_46
                            x       y       z     vdW  Elec       q    Type
                         _______ _______ _______ _____ _____    ______ ____

>  <TORSDO>
F 21

$$$$
=
 OpenBabel11062414023D

 49 51  0  0  1  0  0  0  0  0999 V2000
  183.3890  178.1460  141.4830 S   0  0  0  0  0  0  0  0  0  0  0  0
  185.2960  178.1240  143.5020 C   0  0  0  0  0  0  0  0  0  0  0  0
  183.4530  178.9130  145.4240 C   0  0  0  0  0  3  0  0  0  0  0  0
  183.9490  178.3550  143.1700 C   0  0  0  0  0  0  0  0  0  0  0  0
  184.7750  178.6780  145.7990 C   0  0  0  0  0  3  0  0  0  0  0  0
  183.0740  178.7590  144.1290 N   0  0  0  0  0  0  0  0  0  0  0  0
  185.7180  178.2890  144.8370 C   0  0  0  0  0  0  0  0  0  0  0  0
  186.1760  177.7550  142.5300 F   0  0  0  0  0  0  0  0  0  0  0  0
  187.4610  177.9430  146.6170 N   0  0  0  0  0  2  0  0  0  0  0  0
  188.0470  178.2390  144.3730 O   0  0  0  0  0  0  0  0  0  0  0  0
  187.1310  178.1360  145.2330 C   0  0  0  0  0  0  0  0  0  0  0  0
  188.8170  177.9180  147.1660 C   0  0  1  0  0  3  0  0  0  0  0  0
  188.7950  178.0990  148.6730 C   0  0  0  0  0  1  0  0  0  0  0  0
  189.5550  176.6310  146.7990 C   0  0  0  0  0  2  0  0  0  0  0  0
  191.0310  176.8570  146.6690 C   0  0  0  0  0  0  0  0  0  0  0  0
  191.7260  177.0800  147.6960 O   0  0  0  0  0  0  0  0  0  0  0  0
  191.6770  176.7280  145.4030 N   0  0  0  0  0  2  0  0  0  0  0  0
  190.9710  176.2860  144.2130 C   0  0  0  0  0  2  0  0  0  0  0  0
  191.2000  177.4890  142.8680 P   0  0  1  0  0  0  0  0  0  0  0  0
  191.1620  178.8900  143.4420 O   0  0  0  0  0  1  0  0  0  0  0  0
  192.6920  177.2300  142.1100 O   0  0  0  0  0  0  0  0  0  0  0  0
  188.5360  176.1220  141.9600 O   0  0  0  0  0  1  0  0  0  0  0  0
  190.2350  176.8660  140.1130 O   0  0  0  0  0  0  0  0  0  0  0  0
  189.6490  177.2890  141.4410 P   0  0  0  0  0  0  0  0  0  0  0  0
  188.8620  178.7790  141.2560 O   0  0  0  0  0  1  0  0  0  0  0  0
  181.9540  179.2380  141.7300 C   0  0  0  0  0  2  0  0  0  0  0  0
  180.7450  178.8160  140.8880 C   0  0  2  0  0  3  0  0  0  0  0  0
  179.6350  176.7560  141.5210 O   0  0  0  0  0  1  0  0  0  0  0  0
  179.7660  178.4690  143.1940 C   0  0  0  0  0  1  0  0  0  0  0  0
  179.6550  178.1400  141.7130 C   0  0  1  0  0  3  0  0  0  0  0  0
  181.1880  177.8420  139.8050 C   0  0  0  0  0  2  0  0  0  0  0  0
  181.4340  178.5450  138.4700 C   0  0  1  0  0  3  0  0  0  0  0  0
  181.8980  176.1120  138.0260 C   0  0  0  0  0  2  0  0  0  0  0  0
  181.8930  177.4940  137.4470 C   0  0  2  0  0  3  0  0  0  0  0  0
  183.1900  177.7470  137.0130 O   0  0  0  0  0  0  0  0  0  0  0  0
  183.7350  176.4700  136.8290 C   0  0  2  0  0  3  0  0  0  0  0  0
  183.1300  175.5440  137.7010 O   0  0  0  0  0  0  0  0  0  0  0  0
  185.2330  176.4930  137.0860 C   0  0  0  0  0  2  0  0  0  0  0  0
  185.6630  177.7820  137.7740 C   0  0  0  0  0  2  0  0  0  0  0  0
  187.1200  177.6540  138.2020 C   0  0  0  0  0  2  0  0  0  0  0  0
  187.9790  177.0320  137.1090 C   0  0  1  0  0  3  0  0  0  0  0  0
  189.2270  179.1680  137.3170 C   0  0  0  0  0  2  0  0  0  0  0  0
  189.0890  177.9760  136.7310 C   0  0  0  0  0  3  0  0  0  0  0  0
  188.5040  175.8040  137.5390 O   0  0  0  0  0  0  0  0  0  0  0  0
  189.5910  175.5390  136.6950 C   0  0  0  0  0  1  0  0  0  0  0  0
  180.2220  179.3710  137.9810 C   0  0  0  0  0  0  0  0  0  0  0  0
  180.3330  180.0110  136.6180 C   0  0  0  0  0  2  0  0  0  0  0  0
  178.9340  178.8880  138.2460 O   0  0  0  0  0  1  0  0  0  0  0  0
  180.3230  180.8790  137.8750 C   0  0  0  0  0  2  0  0  0  0  0  0
  1 26  1  0  0  0  0
  1  4  1  0  0  0  0
  2  7  1  0  0  0  0
  3  5  1  0  0  0  0
  4  2  2  0  0  0  0
  4  6  1  0  0  0  0
  6  3  2  0  0  0  0
  7 11  1  0  0  0  0
  7  5  2  0  0  0  0
  8  2  1  0  0  0  0
  9 12  1  0  0  0  0
 10 11  2  0  0  0  0
 11  9  1  0  0  0  0
 12 13  1  1  0  0  0
 14 12  1  0  0  0  0
 15 14  1  0  0  0  0
 15 16  2  0  0  0  0
 17 15  1  0  0  0  0
 18 17  1  0  0  0  0
 19 21  2  6  0  0  0
 19 20  1  0  0  0  0
 19 18  1  0  0  0  0
 23 24  2  0  0  0  0
 24 22  1  0  0  0  0
 24 19  1  0  0  0  0
 25 24  1  0  0  0  0
 27 31  1  6  0  0  0
 27 30  1  0  0  0  0
 27 26  1  0  0  0  0
 28 30  1  0  0  0  0
 30 29  1  1  0  0  0
 32 31  1  1  0  0  0
 34 33  1  0  0  0  0
 34 32  1  1  0  0  0
 35 34  1  0  0  0  0
 36 35  1  0  0  0  0
 36 38  1  1  0  0  0
 36 37  1  0  0  0  0
 37 33  1  0  0  0  0
 38 39  1  0  0  0  0
 39 40  1  0  0  0  0
 41 43  1  1  0  0  0
 41 44  1  0  0  0  0
 41 40  1  0  0  0  0
 43 42  2  0  0  0  0
 45 44  1  0  0  0  0
 46 48  1  0  0  0  0
 46 32  1  0  0  0  0
 47 49  1  0  0  0  0
 47 46  1  0  0  0  0
 49 46  1  0  0  0  0
M  END
>  <MODEL>
4

>  <REMARK>
 VINA RESULT:      -6.5      2.857      9.183
  Name = 
  21 active torsions:
  status: ('A' for Active; 'I' for Inactive)
    1  A    between atoms: N_2  and  C_35
    2  A    between atoms: P_3  and  C_14
    3  A    between atoms: P_3  and  P_41
    4  A    between atoms: C_4  and  C_31
    5  A    between atoms: C_4  and  C_34
    6  A    between atoms: C_4  and  C_45
    7  A    between atoms: O_5  and  C_22
    8  A    between atoms: C_9  and  C_17
    9  A    between atoms: C_11  and  C_17
   10  A    between atoms: C_12  and  C_26
   11  A    between atoms: C_12  and  C_42
   12  A    between atoms: C_14  and  N_33
   13  A    between atoms: C_15  and  S_29
   14  A    between atoms: C_17  and  C_45
   15  A    between atoms: C_22  and  C_32
   16  A    between atoms: C_22  and  C_39
   17  A    between atoms: C_25  and  C_44
   18  A    between atoms: C_26  and  C_32
   19  A    between atoms: S_29  and  C_31
   20  A    between atoms: C_35  and  C_44
   21  A    between atoms: C_40  and  C_46
                            x       y       z     vdW  Elec       q    Type
                         _______ _______ _______ _____ _____    ______ ____

>  <TORSDO>
F 21

$$$$
=
 OpenBabel11062414023D

 49 51  0  0  1  0  0  0  0  0999 V2000
  191.4140  176.5420  138.3990 S   0  0  0  0  0  0  0  0  0  0  0  0
  190.7540  177.2270  141.0080 C   0  0  0  0  0  0  0  0  0  0  0  0
  188.2720  178.2180  140.2540 C   0  0  0  0  0  3  0  0  0  0  0  0
  190.3390  177.2090  139.6650 C   0  0  0  0  0  0  0  0  0  0  0  0
  188.6370  178.2390  141.5990 C   0  0  0  0  0  3  0  0  0  0  0  0
  189.1250  177.7180  139.3230 N   0  0  0  0  0  0  0  0  0  0  0  0
  189.8920  177.7520  141.9920 C   0  0  0  0  0  0  0  0  0  0  0  0
  191.9860  176.7490  141.3390 F   0  0  0  0  0  0  0  0  0  0  0  0
  189.9790  176.8120  144.3240 N   0  0  0  0  0  2  0  0  0  0  0  0
  190.8690  178.9150  143.8180 O   0  0  0  0  0  0  0  0  0  0  0  0
  190.3010  177.8680  143.4050 C   0  0  0  0  0  0  0  0  0  0  0  0
  190.1950  176.8580  145.7700 C   0  0  1  0  0  3  0  0  0  0  0  0
  191.6710  176.7310  146.1010 C   0  0  0  0  0  1  0  0  0  0  0  0
  189.6230  178.1320  146.3900 C   0  0  0  0  0  2  0  0  0  0  0  0
  188.8060  177.8350  147.6120 C   0  0  0  0  0  0  0  0  0  0  0  0
  189.3080  177.9900  148.7570 O   0  0  0  0  0  0  0  0  0  0  0  0
  187.4320  177.4680  147.4950 N   0  0  0  0  0  2  0  0  0  0  0  0
  186.7380  177.4550  146.2180 C   0  0  0  0  0  2  0  0  0  0  0  0
  185.3490  178.6280  146.2500 P   0  0  1  0  0  0  0  0  0  0  0  0
  184.2750  178.1020  147.1790 O   0  0  0  0  0  1  0  0  0  0  0  0
  185.8820  180.1380  146.8000 O   0  0  0  0  0  0  0  0  0  0  0  0
  182.8450  178.7020  144.3750 O   0  0  0  0  0  1  0  0  0  0  0  0
  185.0880  177.7640  143.4050 O   0  0  0  0  0  0  0  0  0  0  0  0
  184.5330  178.8410  144.3080 P   0  0  0  0  0  0  0  0  0  0  0  0
  184.9510  180.3630  143.6880 O   0  0  0  0  0  1  0  0  0  0  0  0
  190.1940  176.8380  137.0810 C   0  0  0  0  0  2  0  0  0  0  0  0
  189.4630  175.5580  136.6610 C   0  0  2  0  0  3  0  0  0  0  0  0
  191.2260  175.4900  135.0000 O   0  0  0  0  0  1  0  0  0  0  0  0
  190.8610  173.4880  136.2690 C   0  0  0  0  0  1  0  0  0  0  0  0
  190.2460  174.7330  135.6470 C   0  0  1  0  0  3  0  0  0  0  0  0
  188.1190  175.9140  136.0420 C   0  0  0  0  0  2  0  0  0  0  0  0
  186.9630  175.6970  137.0180 C   0  0  1  0  0  3  0  0  0  0  0  0
  186.7160  178.1890  136.7720 C   0  0  0  0  0  2  0  0  0  0  0  0
  185.9920  176.8820  136.8920 C   0  0  2  0  0  3  0  0  0  0  0  0
  185.1730  176.9830  138.0120 O   0  0  0  0  0  0  0  0  0  0  0  0
  185.0030  178.3630  138.1770 C   0  0  2  0  0  3  0  0  0  0  0  0
  186.1230  179.0620  137.6850 O   0  0  0  0  0  0  0  0  0  0  0  0
  184.8110  178.6990  139.6470 C   0  0  0  0  0  2  0  0  0  0  0  0
  183.3360  178.7810  140.0150 C   0  0  0  0  0  2  0  0  0  0  0  0
  182.6390  179.7470  139.0640 C   0  0  0  0  0  2  0  0  0  0  0  0
  181.1250  179.6900  139.2090 C   0  0  1  0  0  3  0  0  0  0  0  0
  179.6980  180.4310  141.1000 C   0  0  0  0  0  2  0  0  0  0  0  0
  180.7470  179.7290  140.6660 C   0  0  0  0  0  3  0  0  0  0  0  0
  180.5270  180.7550  138.5180 O   0  0  0  0  0  0  0  0  0  0  0  0
  181.5440  181.7020  138.3270 C   0  0  0  0  0  1  0  0  0  0  0  0
  186.2650  174.3280  136.8450 C   0  0  0  0  0  0  0  0  0  0  0  0
  186.1290  173.8000  135.4360 C   0  0  0  0  0  2  0  0  0  0  0  0
  186.5380  173.3160  137.7750 O   0  0  0  0  0  1  0  0  0  0  0  0
  184.8920  174.2490  136.2110 C   0  0  0  0  0  2  0  0  0  0  0  0
  1  4  1  0  0  0  0
  2  8  1  0  0  0  0
  2  7  1  0  0  0  0
  3  5  1  0  0  0  0
  4  2  2  0  0  0  0
  5  7  2  0  0  0  0
  6  4  1  0  0  0  0
  6  3  2  0  0  0  0
  7 11  1  0  0  0  0
  9 12  1  0  0  0  0
 11 10  2  0  0  0  0
 11  9  1  0  0  0  0
 12 13  1  6  0  0  0
 12 14  1  0  0  0  0
 14 15  1  0  0  0  0
 15 16  2  0  0  0  0
 17 15  1  0  0  0  0
 18 19  1  0  0  0  0
 18 17  1  0  0  0  0
 19 21  2  1  0  0  0
 19 20  1  0  0  0  0
 23 24  2  0  0  0  0
 24 22  1  0  0  0  0
 24 19  1  0  0  0  0
 25 24  1  0  0  0  0
 26  1  1  0  0  0  0
 27 31  1  6  0  0  0
 27 26  1  0  0  0  0
 28 30  1  0  0  0  0
 30 29  1  1  0  0  0
 30 27  1  0  0  0  0
 32 31  1  6  0  0  0
 33 34  1  0  0  0  0
 33 37  1  0  0  0  0
 34 32  1  1  0  0  0
 34 35  1  0  0  0  0
 35 36  1  0  0  0  0
 36 38  1  1  0  0  0
 37 36  1  0  0  0  0
 38 39  1  0  0  0  0
 40 39  1  0  0  0  0
 41 40  1  1  0  0  0
 41 43  1  0  0  0  0
 43 42  2  0  0  0  0
 44 41  1  0  0  0  0
 45 44  1  0  0  0  0
 46 32  1  0  0  0  0
 46 48  1  0  0  0  0
 47 49  1  0  0  0  0
 47 46  1  0  0  0  0
 49 46  1  0  0  0  0
M  END
>  <MODEL>
5

>  <REMARK>
 VINA RESULT:      -6.3      3.587      9.673
  Name = 
  21 active torsions:
  status: ('A' for Active; 'I' for Inactive)
    1  A    between atoms: N_2  and  C_35
    2  A    between atoms: P_3  and  C_14
    3  A    between atoms: P_3  and  P_41
    4  A    between atoms: C_4  and  C_31
    5  A    between atoms: C_4  and  C_34
    6  A    between atoms: C_4  and  C_45
    7  A    between atoms: O_5  and  C_22
    8  A    between atoms: C_9  and  C_17
    9  A    between atoms: C_11  and  C_17
   10  A    between atoms: C_12  and  C_26
   11  A    between atoms: C_12  and  C_42
   12  A    between atoms: C_14  and  N_33
   13  A    between atoms: C_15  and  S_29
   14  A    between atoms: C_17  and  C_45
   15  A    between atoms: C_22  and  C_32
   16  A    between atoms: C_22  and  C_39
   17  A    between atoms: C_25  and  C_44
   18  A    between atoms: C_26  and  C_32
   19  A    between atoms: S_29  and  C_31
   20  A    between atoms: C_35  and  C_44
   21  A    between atoms: C_40  and  C_46
                            x       y       z     vdW  Elec       q    Type
                         _______ _______ _______ _____ _____    ______ ____

>  <TORSDO>
F 21

$$$$
=
 OpenBabel11062414023D

 49 51  0  0  1  0  0  0  0  0999 V2000
  183.3990  177.8190  139.0550 S   0  0  0  0  0  0  0  0  0  0  0  0
  183.9290  178.5180  141.6900 C   0  0  0  0  0  0  0  0  0  0  0  0
  181.2310  178.7720  142.2990 C   0  0  0  0  0  3  0  0  0  0  0  0
  182.9380  178.2860  140.7200 C   0  0  0  0  0  0  0  0  0  0  0  0
  182.1810  178.9940  143.2940 C   0  0  0  0  0  3  0  0  0  0  0  0
  181.6250  178.4360  141.0420 N   0  0  0  0  0  0  0  0  0  0  0  0
  183.5460  178.8790  142.9980 C   0  0  0  0  0  0  0  0  0  0  0  0
  185.2430  178.4010  141.3510 F   0  0  0  0  0  0  0  0  0  0  0  0
  185.3060  178.1570  144.6450 N   0  0  0  0  0  2  0  0  0  0  0  0
  184.6710  180.3980  144.4380 O   0  0  0  0  0  0  0  0  0  0  0  0
  184.5400  179.2100  144.0380 C   0  0  0  0  0  0  0  0  0  0  0  0
  186.2160  178.3220  145.7780 C   0  0  1  0  0  3  0  0  0  0  0  0
  185.4440  178.5640  147.0620 C   0  0  0  0  0  1  0  0  0  0  0  0
  187.1450  177.1190  145.9400 C   0  0  0  0  0  2  0  0  0  0  0  0
  188.2760  177.4150  146.8780 C   0  0  0  0  0  0  0  0  0  0  0  0
  188.2370  176.9940  148.0650 O   0  0  0  0  0  0  0  0  0  0  0  0
  189.4450  178.0910  146.4160 N   0  0  0  0  0  2  0  0  0  0  0  0
  189.6390  178.4370  145.0180 C   0  0  0  0  0  2  0  0  0  0  0  0
  190.9620  177.4160  144.2990 P   0  0  1  0  0  0  0  0  0  0  0  0
  191.9650  178.3160  143.6090 O   0  0  0  0  0  0  0  0  0  0  0  0
  191.7390  176.5360  145.5200 O   0  0  0  0  0  1  0  0  0  0  0  0
  190.6010  176.5470  141.3150 O   0  0  0  0  0  0  0  0  0  0  0  0
  188.6450  176.0680  142.9860 O   0  0  0  0  0  1  0  0  0  0  0  0
  190.1520  176.0710  142.8780 P   0  0  0  0  0  0  0  0  0  0  0  0
  190.7390  174.5100  143.1860 O   0  0  0  0  0  1  0  0  0  0  0  0
  182.7270  176.1380  139.2450 C   0  0  0  0  0  2  0  0  0  0  0  0
  181.6240  175.8300  138.2270 C   0  0  2  0  0  3  0  0  0  0  0  0
  179.2640  176.0760  137.7320 O   0  0  0  0  0  1  0  0  0  0  0  0
  179.8330  175.3650  139.9500 C   0  0  0  0  0  1  0  0  0  0  0  0
  180.2310  176.1870  138.7340 C   0  0  1  0  0  3  0  0  0  0  0  0
  181.6360  174.3460  137.8890 C   0  0  0  0  0  2  0  0  0  0  0  0
  181.7740  174.1020  136.3870 C   0  0  1  0  0  3  0  0  0  0  0  0
  183.9360  173.0970  137.1930 C   0  0  0  0  0  2  0  0  0  0  0  0
  183.2540  173.8250  136.0750 C   0  0  2  0  0  3  0  0  0  0  0  0
  183.9570  175.0100  135.8850 O   0  0  0  0  0  0  0  0  0  0  0  0
  185.2220  174.7360  136.4200 C   0  0  2  0  0  3  0  0  0  0  0  0
  185.1270  173.7780  137.4490 O   0  0  0  0  0  0  0  0  0  0  0  0
  185.8460  176.0050  136.9760 C   0  0  0  0  0  2  0  0  0  0  0  0
  187.3050  176.1400  136.5620 C   0  0  0  0  0  2  0  0  0  0  0  0
  188.1860  176.0300  137.8000 C   0  0  0  0  0  2  0  0  0  0  0  0
  189.6620  176.1920  137.4620 C   0  0  1  0  0  3  0  0  0  0  0  0
  189.3510  178.3830  138.5850 C   0  0  0  0  0  2  0  0  0  0  0  0
  190.1500  177.5360  137.9320 C   0  0  0  0  0  3  0  0  0  0  0  0
  190.4140  175.1630  138.0490 O   0  0  0  0  0  0  0  0  0  0  0  0
  190.4570  174.1340  137.0990 C   0  0  0  0  0  1  0  0  0  0  0  0
  180.8320  172.9960  135.8570 C   0  0  0  0  0  0  0  0  0  0  0  0
  179.3500  173.1960  136.0730 C   0  0  0  0  0  2  0  0  0  0  0  0
  181.1210  172.4070  134.6190 O   0  0  0  0  0  1  0  0  0  0  0  0
  180.0940  172.0960  136.8280 C   0  0  0  0  0  2  0  0  0  0  0  0
  1 26  1  0  0  0  0
  1  4  1  0  0  0  0
  2  7  1  0  0  0  0
  3  5  1  0  0  0  0
  4  6  1  0  0  0  0
  4  2  2  0  0  0  0
  6  3  2  0  0  0  0
  7  5  2  0  0  0  0
  7 11  1  0  0  0  0
  8  2  1  0  0  0  0
  9 12  1  0  0  0  0
 11 10  2  0  0  0  0
 11  9  1  0  0  0  0
 12 14  1  0  0  0  0
 12 13  1  1  0  0  0
 14 15  1  0  0  0  0
 15 16  2  0  0  0  0
 17 15  1  0  0  0  0
 18 17  1  0  0  0  0
 19 20  2  6  0  0  0
 19 18  1  0  0  0  0
 19 21  1  0  0  0  0
 22 24  2  0  0  0  0
 24 23  1  0  0  0  0
 24 25  1  0  0  0  0
 24 19  1  0  0  0  0
 27 31  1  1  0  0  0
 27 30  1  0  0  0  0
 27 26  1  0  0  0  0
 28 30  1  0  0  0  0
 30 29  1  1  0  0  0
 32 31  1  1  0  0  0
 33 37  1  0  0  0  0
 34 32  1  1  0  0  0
 34 33  1  0  0  0  0
 35 34  1  0  0  0  0
 35 36  1  0  0  0  0
 36 38  1  1  0  0  0
 36 37  1  0  0  0  0
 39 38  1  0  0  0  0
 39 40  1  0  0  0  0
 41 40  1  1  0  0  0
 41 43  1  0  0  0  0
 41 44  1  0  0  0  0
 43 42  2  0  0  0  0
 45 44  1  0  0  0  0
 46 47  1  0  0  0  0
 46 32  1  0  0  0  0
 46 49  1  0  0  0  0
 47 49  1  0  0  0  0
 48 46  1  0  0  0  0
M  END
>  <MODEL>
6

>  <REMARK>
 VINA RESULT:      -6.3      3.219      9.242
  Name = 
  21 active torsions:
  status: ('A' for Active; 'I' for Inactive)
    1  A    between atoms: N_2  and  C_35
    2  A    between atoms: P_3  and  C_14
    3  A    between atoms: P_3  and  P_41
    4  A    between atoms: C_4  and  C_31
    5  A    between atoms: C_4  and  C_34
    6  A    between atoms: C_4  and  C_45
    7  A    between atoms: O_5  and  C_22
    8  A    between atoms: C_9  and  C_17
    9  A    between atoms: C_11  and  C_17
   10  A    between atoms: C_12  and  C_26
   11  A    between atoms: C_12  and  C_42
   12  A    between atoms: C_14  and  N_33
   13  A    between atoms: C_15  and  S_29
   14  A    between atoms: C_17  and  C_45
   15  A    between atoms: C_22  and  C_32
   16  A    between atoms: C_22  and  C_39
   17  A    between atoms: C_25  and  C_44
   18  A    between atoms: C_26  and  C_32
   19  A    between atoms: S_29  and  C_31
   20  A    between atoms: C_35  and  C_44
   21  A    between atoms: C_40  and  C_46
                            x       y       z     vdW  Elec       q    Type
                         _______ _______ _______ _____ _____    ______ ____

>  <TORSDO>
F 21

$$$$
=
 OpenBabel11062414023D

 49 51  0  0  1  0  0  0  0  0999 V2000
  190.1050  176.0940  142.8820 S   0  0  0  0  0  0  0  0  0  0  0  0
  189.5810  177.2000  140.3880 C   0  0  0  0  0  0  0  0  0  0  0  0
  192.2610  177.1460  139.6610 C   0  0  0  0  0  3  0  0  0  0  0  0
  190.5640  176.7050  141.2630 C   0  0  0  0  0  0  0  0  0  0  0  0
  191.3160  177.6290  138.7580 C   0  0  0  0  0  3  0  0  0  0  0  0
  191.8710  176.7080  140.8870 N   0  0  0  0  0  0  0  0  0  0  0  0
  189.9610  177.6720  139.1160 C   0  0  0  0  0  0  0  0  0  0  0  0
  188.2790  177.2280  140.7860 F   0  0  0  0  0  0  0  0  0  0  0  0
  188.0050  177.4400  137.5510 N   0  0  0  0  0  2  0  0  0  0  0  0
  189.0590  179.4990  137.8950 O   0  0  0  0  0  0  0  0  0  0  0  0
  188.9880  178.2740  138.1840 C   0  0  0  0  0  0  0  0  0  0  0  0
  187.0770  177.8730  136.5070 C   0  0  1  0  0  3  0  0  0  0  0  0
  187.5890  177.4870  135.1320 C   0  0  0  0  0  1  0  0  0  0  0  0
  185.6730  177.3090  136.7250 C   0  0  0  0  0  2  0  0  0  0  0  0
  184.9430  178.0440  137.8090 C   0  0  0  0  0  0  0  0  0  0  0  0
  185.5580  178.8710  138.5330 O   0  0  0  0  0  0  0  0  0  0  0  0
  183.5340  177.8890  137.9700 N   0  0  0  0  0  2  0  0  0  0  0  0
  182.7300  177.0990  137.0510 C   0  0  0  0  0  2  0  0  0  0  0  0
  182.2400  175.5340  137.8360 P   0  0  1  0  0  0  0  0  0  0  0  0
  182.5270  175.6120  139.3210 O   0  0  0  0  0  1  0  0  0  0  0  0
  180.5870  175.2590  137.5930 O   0  0  0  0  0  0  0  0  0  0  0  0
  182.5140  172.4710  137.2570 O   0  0  0  0  0  1  0  0  0  0  0  0
  184.6990  173.8500  137.6700 O   0  0  0  0  0  1  0  0  0  0  0  0
  183.3430  173.9280  137.0080 P   0  0  0  0  0  0  0  0  0  0  0  0
  183.5460  174.1860  135.3440 O   0  0  0  0  0  0  0  0  0  0  0  0
  191.0510  177.3920  143.7380 C   0  0  0  0  0  2  0  0  0  0  0  0
  190.7090  177.4780  145.2300 C   0  0  2  0  0  3  0  0  0  0  0  0
  191.5760  177.2010  147.4760 O   0  0  0  0  0  1  0  0  0  0  0  0
  192.0730  175.4590  145.9050 C   0  0  0  0  0  1  0  0  0  0  0  0
  191.8210  176.9430  146.1250 C   0  0  1  0  0  3  0  0  0  0  0  0
  189.4470  176.6760  145.5140 C   0  0  0  0  0  2  0  0  0  0  0  0
  188.2930  177.5680  145.9700 C   0  0  1  0  0  3  0  0  0  0  0  0
  187.1290  177.5260  143.7400 C   0  0  0  0  0  2  0  0  0  0  0  0
  187.0310  177.1630  145.1900 C   0  0  2  0  0  3  0  0  0  0  0  0
  185.9040  177.8100  145.6860 O   0  0  0  0  0  0  0  0  0  0  0  0
  185.1240  178.0410  144.5470 C   0  0  2  0  0  3  0  0  0  0  0  0
  185.9410  178.1770  143.4070 O   0  0  0  0  0  0  0  0  0  0  0  0
  184.2950  179.3030  144.7210 C   0  0  0  0  0  2  0  0  0  0  0  0
  182.8030  178.9980  144.7220 C   0  0  0  0  0  2  0  0  0  0  0  0
  182.2110  179.4060  143.3790 C   0  0  0  0  0  2  0  0  0  0  0  0
  180.9710  178.5920  143.0350 C   0  0  1  0  0  3  0  0  0  0  0  0
  179.6110  180.5130  142.2490 C   0  0  0  0  0  2  0  0  0  0  0  0
  179.7520  179.4730  143.0750 C   0  0  0  0  0  3  0  0  0  0  0  0
  181.1100  178.0010  141.7700 O   0  0  0  0  0  0  0  0  0  0  0  0
  182.2390  178.5990  141.1930 C   0  0  0  0  0  1  0  0  0  0  0  0
  188.0810  177.5590  147.5020 C   0  0  0  0  0  0  0  0  0  0  0  0
  187.2280  178.6630  148.0820 C   0  0  0  0  0  2  0  0  0  0  0  0
  187.8790  176.3290  148.1420 O   0  0  0  0  0  1  0  0  0  0  0  0
  188.7280  178.6220  148.3650 C   0  0  0  0  0  2  0  0  0  0  0  0
  1 26  1  0  0  0  0
  2  8  1  0  0  0  0
  2  4  1  0  0  0  0
  3  6  1  0  0  0  0
  4  1  1  0  0  0  0
  5  7  1  0  0  0  0
  5  3  2  0  0  0  0
  6  4  2  0  0  0  0
  7  2  2  0  0  0  0
  9 11  1  0  0  0  0
 10 11  2  0  0  0  0
 11  7  1  0  0  0  0
 12 13  1  6  0  0  0
 12 14  1  0  0  0  0
 12  9  1  0  0  0  0
 14 15  1  0  0  0  0
 15 17  1  0  0  0  0
 15 16  2  0  0  0  0
 18 19  1  0  0  0  0
 18 17  1  0  0  0  0
 19 21  2  6  0  0  0
 19 20  1  0  0  0  0
 24 22  1  0  0  0  0
 24 23  1  0  0  0  0
 24 19  1  0  0  0  0
 25 24  2  0  0  0  0
 27 26  1  6  0  0  0
 27 31  1  0  0  0  0
 27 30  1  0  0  0  0
 30 29  1  1  0  0  0
 30 28  1  0  0  0  0
 32 31  1  1  0  0  0
 32 46  1  0  0  0  0
 33 34  1  0  0  0  0
 34 35  1  0  0  0  0
 34 32  1  1  0  0  0
 36 38  1  1  0  0  0
 36 35  1  0  0  0  0
 37 33  1  0  0  0  0
 37 36  1  0  0  0  0
 38 39  1  0  0  0  0
 40 39  1  0  0  0  0
 41 43  1  6  0  0  0
 41 40  1  0  0  0  0
 42 43  2  0  0  0  0
 44 41  1  0  0  0  0
 45 44  1  0  0  0  0
 46 47  1  0  0  0  0
 46 48  1  0  0  0  0
 46 49  1  0  0  0  0
 47 49  1  0  0  0  0
M  END
>  <MODEL>
7

>  <REMARK>
 VINA RESULT:      -6.2      2.361      6.054
  Name = 
  21 active torsions:
  status: ('A' for Active; 'I' for Inactive)
    1  A    between atoms: N_2  and  C_35
    2  A    between atoms: P_3  and  C_14
    3  A    between atoms: P_3  and  P_41
    4  A    between atoms: C_4  and  C_31
    5  A    between atoms: C_4  and  C_34
    6  A    between atoms: C_4  and  C_45
    7  A    between atoms: O_5  and  C_22
    8  A    between atoms: C_9  and  C_17
    9  A    between atoms: C_11  and  C_17
   10  A    between atoms: C_12  and  C_26
   11  A    between atoms: C_12  and  C_42
   12  A    between atoms: C_14  and  N_33
   13  A    between atoms: C_15  and  S_29
   14  A    between atoms: C_17  and  C_45
   15  A    between atoms: C_22  and  C_32
   16  A    between atoms: C_22  and  C_39
   17  A    between atoms: C_25  and  C_44
   18  A    between atoms: C_26  and  C_32
   19  A    between atoms: S_29  and  C_31
   20  A    between atoms: C_35  and  C_44
   21  A    between atoms: C_40  and  C_46
                            x       y       z     vdW  Elec       q    Type
                         _______ _______ _______ _____ _____    ______ ____

>  <TORSDO>
F 21

$$$$
=
 OpenBabel11062414023D

 49 51  0  0  1  0  0  0  0  0999 V2000
  187.8450  177.5460  141.7370 S   0  0  0  0  0  0  0  0  0  0  0  0
  189.5970  177.1050  139.6270 C   0  0  0  0  0  0  0  0  0  0  0  0
  191.8290  177.4940  141.2340 C   0  0  0  0  0  3  0  0  0  0  0  0
  189.4680  177.4050  140.9950 C   0  0  0  0  0  0  0  0  0  0  0  0
  192.0010  177.1820  139.8860 C   0  0  0  0  0  3  0  0  0  0  0  0
  190.5790  177.6080  141.7530 N   0  0  0  0  0  0  0  0  0  0  0  0
  190.8830  176.9940  139.0620 C   0  0  0  0  0  0  0  0  0  0  0  0
  188.4790  176.9390  138.8670 F   0  0  0  0  0  0  0  0  0  0  0  0
  192.3290  176.2130  137.1560 N   0  0  0  0  0  2  0  0  0  0  0  0
  190.1920  177.0910  136.7910 O   0  0  0  0  0  0  0  0  0  0  0  0
  191.0820  176.7570  137.6190 C   0  0  0  0  0  0  0  0  0  0  0  0
  192.7140  176.0610  135.7540 C   0  0  1  0  0  3  0  0  0  0  0  0
  194.1310  176.5520  135.5240 C   0  0  0  0  0  1  0  0  0  0  0  0
  192.5740  174.6140  135.2800 C   0  0  0  0  0  2  0  0  0  0  0  0
  192.4080  173.6680  136.4320 C   0  0  0  0  0  0  0  0  0  0  0  0
  191.2550  173.3780  136.8470 O   0  0  0  0  0  0  0  0  0  0  0  0
  193.5410  173.0170  137.0050 N   0  0  0  0  0  2  0  0  0  0  0  0
  194.8790  173.1590  136.4540 C   0  0  0  0  0  2  0  0  0  0  0  0
  196.1220  172.8670  137.7500 P   0  0  1  0  0  0  0  0  0  0  0  0
  195.4280  172.7730  139.0920 O   0  0  0  0  0  1  0  0  0  0  0  0
  196.9510  171.4240  137.4390 O   0  0  0  0  0  0  0  0  0  0  0  0
  197.4220  175.2530  139.3030 O   0  0  0  0  0  1  0  0  0  0  0  0
  197.1820  175.4540  136.7040 O   0  0  0  0  0  0  0  0  0  0  0  0
  197.5070  174.4680  137.8030 P   0  0  0  0  0  0  0  0  0  0  0  0
  199.0730  173.8630  137.5680 O   0  0  0  0  0  1  0  0  0  0  0  0
  187.2340  178.6300  140.4090 C   0  0  0  0  0  2  0  0  0  0  0  0
  185.7810  178.3270  140.0280 C   0  0  2  0  0  3  0  0  0  0  0  0
  186.6280  178.9620  137.8480 O   0  0  0  0  0  1  0  0  0  0  0  0
  184.7410  177.4830  137.8830 C   0  0  0  0  0  1  0  0  0  0  0  0
  185.4760  178.6270  138.5650 C   0  0  1  0  0  3  0  0  0  0  0  0
  184.8400  179.1620  140.8850 C   0  0  0  0  0  2  0  0  0  0  0  0
  183.8910  178.2910  141.7070 C   0  0  1  0  0  3  0  0  0  0  0  0
  184.7910  179.9810  143.3390 C   0  0  0  0  0  2  0  0  0  0  0  0
  183.8040  178.8740  143.1270 C   0  0  2  0  0  3  0  0  0  0  0  0
  184.0800  177.9060  144.0860 O   0  0  0  0  0  0  0  0  0  0  0  0
  184.7520  178.6140  145.0900 C   0  0  2  0  0  3  0  0  0  0  0  0
  185.4440  179.7130  144.5420 O   0  0  0  0  0  0  0  0  0  0  0  0
  185.7410  177.7070  145.8050 C   0  0  0  0  0  2  0  0  0  0  0  0
  187.1740  178.1890  145.6260 C   0  0  0  0  0  2  0  0  0  0  0  0
  188.1260  177.1280  146.1620 C   0  0  0  0  0  2  0  0  0  0  0  0
  189.3980  177.7420  146.7300 C   0  0  1  0  0  3  0  0  0  0  0  0
  188.0300  177.8810  148.7950 C   0  0  0  0  0  2  0  0  0  0  0  0
  189.1920  178.1010  148.1770 C   0  0  0  0  0  3  0  0  0  0  0  0
  190.4750  176.8530  146.5920 O   0  0  0  0  0  0  0  0  0  0  0  0
  191.1370  177.2370  145.4180 C   0  0  0  0  0  1  0  0  0  0  0  0
  182.5040  178.1060  141.0480 C   0  0  0  0  0  0  0  0  0  0  0  0
  181.8500  179.3390  140.4680 C   0  0  0  0  0  2  0  0  0  0  0  0
  182.2810  176.9620  140.2700 O   0  0  0  0  0  1  0  0  0  0  0  0
  181.2650  178.6720  141.7110 C   0  0  0  0  0  2  0  0  0  0  0  0
  2  4  1  0  0  0  0
  3  6  1  0  0  0  0
  4  1  1  0  0  0  0
  4  6  2  0  0  0  0
  5  3  2  0  0  0  0
  7  2  2  0  0  0  0
  7  5  1  0  0  0  0
  8  2  1  0  0  0  0
  9 11  1  0  0  0  0
 10 11  2  0  0  0  0
 11  7  1  0  0  0  0
 12 13  1  1  0  0  0
 12  9  1  0  0  0  0
 14 12  1  0  0  0  0
 14 15  1  0  0  0  0
 15 16  2  0  0  0  0
 15 17  1  0  0  0  0
 18 17  1  0  0  0  0
 18 19  1  0  0  0  0
 19 21  2  6  0  0  0
 19 24  1  0  0  0  0
 19 20  1  0  0  0  0
 23 24  2  0  0  0  0
 24 22  1  0  0  0  0
 25 24  1  0  0  0  0
 26  1  1  0  0  0  0
 27 26  1  1  0  0  0
 27 31  1  0  0  0  0
 28 30  1  0  0  0  0
 30 29  1  6  0  0  0
 30 27  1  0  0  0  0
 32 31  1  6  0  0  0
 33 37  1  0  0  0  0
 34 32  1  6  0  0  0
 34 33  1  0  0  0  0
 34 35  1  0  0  0  0
 35 36  1  0  0  0  0
 36 38  1  6  0  0  0
 37 36  1  0  0  0  0
 39 38  1  0  0  0  0
 39 40  1  0  0  0  0
 41 40  1  1  0  0  0
 41 43  1  0  0  0  0
 43 42  2  0  0  0  0
 44 41  1  0  0  0  0
 45 44  1  0  0  0  0
 46 32  1  0  0  0  0
 46 49  1  0  0  0  0
 47 46  1  0  0  0  0
 47 49  1  0  0  0  0
 48 46  1  0  0  0  0
M  END
>  <MODEL>
8

>  <REMARK>
 VINA RESULT:      -6.2      5.206     10.182
  Name = 
  21 active torsions:
  status: ('A' for Active; 'I' for Inactive)
    1  A    between atoms: N_2  and  C_35
    2  A    between atoms: P_3  and  C_14
    3  A    between atoms: P_3  and  P_41
    4  A    between atoms: C_4  and  C_31
    5  A    between atoms: C_4  and  C_34
    6  A    between atoms: C_4  and  C_45
    7  A    between atoms: O_5  and  C_22
    8  A    between atoms: C_9  and  C_17
    9  A    between atoms: C_11  and  C_17
   10  A    between atoms: C_12  and  C_26
   11  A    between atoms: C_12  and  C_42
   12  A    between atoms: C_14  and  N_33
   13  A    between atoms: C_15  and  S_29
   14  A    between atoms: C_17  and  C_45
   15  A    between atoms: C_22  and  C_32
   16  A    between atoms: C_22  and  C_39
   17  A    between atoms: C_25  and  C_44
   18  A    between atoms: C_26  and  C_32
   19  A    between atoms: S_29  and  C_31
   20  A    between atoms: C_35  and  C_44
   21  A    between atoms: C_40  and  C_46
                            x       y       z     vdW  Elec       q    Type
                         _______ _______ _______ _____ _____    ______ ____

>  <TORSDO>
F 21

$$$$
=
 OpenBabel11062414023D

 49 51  0  0  1  0  0  0  0  0999 V2000
  184.9620  178.5650  138.4080 S   0  0  0  0  0  0  0  0  0  0  0  0
  184.8580  178.8490  141.1680 C   0  0  0  0  0  0  0  0  0  0  0  0
  182.1060  178.4840  141.2290 C   0  0  0  0  0  3  0  0  0  0  0  0
  184.1260  178.6220  139.9890 C   0  0  0  0  0  0  0  0  0  0  0  0
  182.7960  178.6900  142.4230 C   0  0  0  0  0  3  0  0  0  0  0  0
  182.7760  178.4650  140.0480 N   0  0  0  0  0  0  0  0  0  0  0  0
  184.1840  178.8860  142.4050 C   0  0  0  0  0  0  0  0  0  0  0  0
  186.2050  179.0420  141.0980 F   0  0  0  0  0  0  0  0  0  0  0  0
  185.4240  178.1260  144.4580 N   0  0  0  0  0  2  0  0  0  0  0  0
  184.9520  180.3850  144.0810 O   0  0  0  0  0  0  0  0  0  0  0  0
  184.8840  179.1960  143.6670 C   0  0  0  0  0  0  0  0  0  0  0  0
  186.0130  178.2750  145.7880 C   0  0  1  0  0  3  0  0  0  0  0  0
  184.9350  178.4530  146.8420 C   0  0  0  0  0  1  0  0  0  0  0  0
  186.9110  177.0910  146.1480 C   0  0  0  0  0  2  0  0  0  0  0  0
  188.1190  177.5280  146.9230 C   0  0  0  0  0  0  0  0  0  0  0  0
  188.1960  177.2850  148.1560 O   0  0  0  0  0  0  0  0  0  0  0  0
  189.2280  178.1330  146.2590 N   0  0  0  0  0  2  0  0  0  0  0  0
  189.2860  178.2710  144.8140 C   0  0  0  0  0  2  0  0  0  0  0  0
  190.9440  177.8260  144.2110 P   0  0  1  0  0  0  0  0  0  0  0  0
  191.7900  179.0780  144.1150 O   0  0  0  0  0  0  0  0  0  0  0  0
  191.6720  176.7320  145.2790 O   0  0  0  0  0  1  0  0  0  0  0  0
  192.2680  177.1430  141.4590 O   0  0  0  0  0  0  0  0  0  0  0  0
  189.6910  177.5960  141.5110 O   0  0  0  0  0  1  0  0  0  0  0  0
  190.8070  176.9400  142.2920 P   0  0  0  0  0  0  0  0  0  0  0  0
  190.4760  175.2860  142.4610 O   0  0  0  0  0  1  0  0  0  0  0  0
  184.4610  176.8410  138.1050 C   0  0  0  0  0  2  0  0  0  0  0  0
  184.8850  176.3420  136.7190 C   0  0  2  0  0  3  0  0  0  0  0  0
  183.0100  174.8350  136.4250 O   0  0  0  0  0  1  0  0  0  0  0  0
  182.7550  177.0560  135.5580 C   0  0  0  0  0  1  0  0  0  0  0  0
  183.7050  175.9060  135.8580 C   0  0  1  0  0  3  0  0  0  0  0  0
  185.8250  175.1540  136.8670 C   0  0  0  0  0  2  0  0  0  0  0  0
  187.1620  175.3920  136.1650 C   0  0  1  0  0  3  0  0  0  0  0  0
  188.8540  177.2530  136.1240 C   0  0  0  0  0  2  0  0  0  0  0  0
  187.9670  176.4100  136.9880 C   0  0  2  0  0  3  0  0  0  0  0  0
  188.7960  175.7720  137.9050 O   0  0  0  0  0  0  0  0  0  0  0  0
  189.9350  176.5860  137.9470 C   0  0  2  0  0  3  0  0  0  0  0  0
  190.1180  177.2440  136.7150 O   0  0  0  0  0  0  0  0  0  0  0  0
  191.1680  175.7530  138.2570 C   0  0  0  0  0  2  0  0  0  0  0  0
  192.4390  176.4290  137.7620 C   0  0  0  0  0  2  0  0  0  0  0  0
  193.6410  175.5810  138.1620 C   0  0  0  0  0  2  0  0  0  0  0  0
  194.5150  175.2370  136.9640 C   0  0  1  0  0  3  0  0  0  0  0  0
  194.9490  173.1710  138.2680 C   0  0  0  0  0  2  0  0  0  0  0  0
  195.2180  173.9280  137.2020 C   0  0  0  0  0  3  0  0  0  0  0  0
  193.7420  175.1740  135.7960 O   0  0  0  0  0  0  0  0  0  0  0  0
  194.0230  173.9270  135.2210 C   0  0  0  0  0  1  0  0  0  0  0  0
  187.9470  174.0890  135.8870 C   0  0  0  0  0  0  0  0  0  0  0  0
  187.1450  172.8810  135.4620 C   0  0  0  0  0  2  0  0  0  0  0  0
  189.1780  174.1790  135.2220 O   0  0  0  0  0  1  0  0  0  0  0  0
  187.8230  172.9100  136.8300 C   0  0  0  0  0  2  0  0  0  0  0  0
  1  4  1  0  0  0  0
  2  7  1  0  0  0  0
  3  5  1  0  0  0  0
  4  6  1  0  0  0  0
  4  2  2  0  0  0  0
  6  3  2  0  0  0  0
  7  5  2  0  0  0  0
  7 11  1  0  0  0  0
  8  2  1  0  0  0  0
  9 12  1  0  0  0  0
 11 10  2  0  0  0  0
 11  9  1  0  0  0  0
 12 14  1  0  0  0  0
 12 13  1  1  0  0  0
 14 15  1  0  0  0  0
 15 16  2  0  0  0  0
 17 15  1  0  0  0  0
 18 17  1  0  0  0  0
 19 20  2  6  0  0  0
 19 18  1  0  0  0  0
 19 21  1  0  0  0  0
 22 24  2  0  0  0  0
 23 24  1  0  0  0  0
 24 25  1  0  0  0  0
 24 19  1  0  0  0  0
 26  1  1  0  0  0  0
 27 31  1  1  0  0  0
 27 26  1  0  0  0  0
 30 29  1  1  0  0  0
 30 28  1  0  0  0  0
 30 27  1  0  0  0  0
 32 31  1  1  0  0  0
 33 37  1  0  0  0  0
 33 34  1  0  0  0  0
 34 32  1  6  0  0  0
 34 35  1  0  0  0  0
 35 36  1  0  0  0  0
 36 38  1  6  0  0  0
 37 36  1  0  0  0  0
 39 40  1  0  0  0  0
 39 38  1  0  0  0  0
 41 43  1  1  0  0  0
 41 40  1  0  0  0  0
 43 42  2  0  0  0  0
 44 41  1  0  0  0  0
 45 44  1  0  0  0  0
 46 32  1  0  0  0  0
 46 49  1  0  0  0  0
 47 46  1  0  0  0  0
 47 49  1  0  0  0  0
 48 46  1  0  0  0  0
M  END
>  <MODEL>
9

>  <REMARK>
 VINA RESULT:      -6.1      3.797      8.676
  Name = 
  21 active torsions:
  status: ('A' for Active; 'I' for Inactive)
    1  A    between atoms: N_2  and  C_35
    2  A    between atoms: P_3  and  C_14
    3  A    between atoms: P_3  and  P_41
    4  A    between atoms: C_4  and  C_31
    5  A    between atoms: C_4  and  C_34
    6  A    between atoms: C_4  and  C_45
    7  A    between atoms: O_5  and  C_22
    8  A    between atoms: C_9  and  C_17
    9  A    between atoms: C_11  and  C_17
   10  A    between atoms: C_12  and  C_26
   11  A    between atoms: C_12  and  C_42
   12  A    between atoms: C_14  and  N_33
   13  A    between atoms: C_15  and  S_29
   14  A    between atoms: C_17  and  C_45
   15  A    between atoms: C_22  and  C_32
   16  A    between atoms: C_22  and  C_39
   17  A    between atoms: C_25  and  C_44
   18  A    between atoms: C_26  and  C_32
   19  A    between atoms: S_29  and  C_31
   20  A    between atoms: C_35  and  C_44
   21  A    between atoms: C_40  and  C_46
                            x       y       z     vdW  Elec       q    Type
                         _______ _______ _______ _____ _____    ______ ____

>  <TORSDO>
F 21

$$$$
