=
 OpenBabel11062418053D

 63 71  0  0  1  0  0  0  0  0999 V2000
  182.9220  177.5150  137.4480 C   0  0  1  0  0  0  0  0  0  0  0  0
  181.5620  179.4190  136.5590 C   0  0  0  0  0  2  0  0  0  0  0  0
  182.0640  178.0150  136.3670 C   0  0  2  0  0  3  0  0  0  0  0  0
  179.1220  179.4990  136.8020 C   0  0  0  0  0  1  0  0  0  0  0  0
  181.4880  177.1360  137.4160 N   0  0  2  0  0  0  0  0  0  0  0  0
  180.4390  179.3690  137.5730 C   0  0  1  0  0  0  0  0  0  0  0  0
  180.5930  177.9730  138.2310 C   0  0  1  0  0  3  0  0  0  0  0  0
  180.6240  180.2080  139.9740 O   0  0  0  0  0  1  0  0  0  0  0  0
  181.3210  181.6530  138.3030 C   0  0  0  0  0  0  0  0  0  0  0  0
  181.4400  183.8500  137.7200 C   0  0  0  0  0  3  0  0  0  0  0  0
  179.9790  183.9590  137.7680 C   0  0  0  0  0  0  0  0  0  0  0  0
  182.1820  182.6610  138.0020 C   0  0  0  0  0  3  0  0  0  0  0  0
  180.5780  180.5330  138.6180 C   0  0  1  0  0  0  0  0  0  0  0  0
  179.8450  181.7040  138.3770 C   0  0  0  0  0  0  0  0  0  0  0  0
  179.1380  182.8660  138.1380 C   0  0  0  0  0  3  0  0  0  0  0  0
  179.3500  185.2510  137.4140 C   0  0  0  0  0  0  0  0  0  0  0  0
  179.1020  185.5360  136.2140 O   0  0  0  0  0  0  0  0  0  0  0  0
  179.0280  186.2040  138.4320 N   0  0  0  0  0  1  0  0  0  0  0  0
  185.0360  176.8620  136.3140 C   0  0  0  0  0  0  0  0  0  0  0  0
  185.2320  176.5550  135.1040 O   0  0  0  0  0  0  0  0  0  0  0  0
  185.9760  177.6700  137.0210 N   0  0  0  0  0  2  0  0  0  0  0  0
  183.8160  176.4850  136.9450 N   0  0  0  0  0  2  0  0  0  0  0  0
  186.6960  178.7380  136.3380 C   0  0  0  0  0  2  0  0  0  0  0  0
  187.9760  179.0470  137.0910 C   0  0  0  0  0  2  0  0  0  0  0  0
  189.0540  178.4180  136.4600 O   0  0  0  0  0  0  0  0  0  0  0  0
  189.4240  177.3930  137.3330 C   0  0  2  0  0  3  0  0  0  0  0  0
  189.6050  177.9150  138.6150 O   0  0  0  0  0  1  0  0  0  0  0  0
  190.7220  176.7350  136.8690 C   0  0  0  0  0  2  0  0  0  0  0  0
  191.7740  174.5970  136.0940 C   0  0  0  0  0  1  0  0  0  0  0  0
  190.7520  175.2180  137.0300 C   0  0  1  0  0  3  0  0  0  0  0  0
  191.0160  174.8720  138.3480 O   0  0  0  0  0  1  0  0  0  0  0  0
  179.3640  177.2880  138.3750 O   0  0  0  0  0  0  0  0  0  0  0  0
  179.1420  176.6370  140.8450 C   0  0  0  0  0  2  0  0  0  0  0  0
  179.4490  176.2910  139.3690 C   0  0  1  0  0  0  0  0  0  0  0  0
  179.4940  175.4960  141.8060 C   0  0  0  0  0  2  0  0  0  0  0  0
  179.3420  174.8440  138.8880 C   0  0  1  0  0  3  0  0  0  0  0  0
  180.7030  175.4700  139.1590 C   0  0  0  0  0  2  0  0  0  0  0  0
  178.9310  173.8890  139.9890 C   0  0  0  0  0  3  0  0  0  0  0  0
  178.9700  174.1840  141.3010 C   0  0  0  0  0  3  0  0  0  0  0  0
  183.4510  178.4420  138.5810 C   0  0  0  0  0  2  0  0  0  0  0  0
  183.2930  178.2700  141.1070 C   0  0  0  0  0  0  0  0  0  0  0  0
  185.4060  177.8910  140.1000 C   0  0  0  0  0  2  0  0  0  0  0  0
  182.0850  178.1650  141.4310 O   0  0  0  0  0  0  0  0  0  0  0  0
  184.2890  178.9360  141.9080 C   0  0  0  0  0  0  0  0  0  0  0  0
  183.9010  177.7250  139.8610 C   0  0  2  0  0  3  0  0  0  0  0  0
  185.5830  178.9640  141.1900 C   0  0  1  0  0  3  0  0  0  0  0  0
  184.0480  179.5410  142.9920 O   0  0  0  0  0  0  0  0  0  0  0  0
  186.7770  178.6500  142.0240 C   0  0  0  0  0  3  0  0  0  0  0  0
  187.6020  177.7050  141.5740 C   0  0  0  0  0  3  0  0  0  0  0  0
  190.1470  177.6400  144.8650 C   0  0  0  0  0  0  0  0  0  0  0  0
  189.7460  178.3660  142.5870 C   0  0  0  0  0  2  0  0  0  0  0  0
  188.3130  177.5740  147.3190 C   0  0  0  0  0  3  0  0  0  0  0  0
  189.5320  177.5350  147.8560 C   0  0  0  0  0  3  0  0  0  0  0  0
  190.5930  178.1610  143.7610 N   0  0  0  0  0  0  0  0  0  0  0  0
  188.2300  176.5240  143.6140 C   0  0  0  0  0  2  0  0  0  0  0  0
  188.7860  177.1870  142.3330 C   0  0  1  0  0  0  0  0  0  0  0  0
  190.7060  176.9140  147.1700 C   0  0  1  0  0  3  0  0  0  0  0  0
  189.4450  176.2100  141.5920 O   0  0  0  0  0  1  0  0  0  0  0  0
  188.7660  177.1050  144.8890 C   0  0  0  0  0  0  0  0  0  0  0  0
  187.9690  177.0910  145.9660 C   0  0  0  0  0  3  0  0  0  0  0  0
  191.0050  177.6060  145.9690 O   0  0  0  0  0  0  0  0  0  0  0  0
  191.9200  176.9250  148.0960 C   0  0  0  0  0  2  0  0  0  0  0  0
  192.6210  175.7290  147.9940 F   0  0  0  0  0  0  0  0  0  0  0  0
  1 40  1  1  0  0  0
  2  6  1  0  0  0  0
  3  2  1  1  0  0  0
  3  5  1  0  0  0  0
  3  1  1  0  0  0  0
  4  6  1  0  0  0  0
  5  1  1  0  0  0  0
  5  7  1  0  0  0  0
  6  7  1  0  0  0  0
  6 13  1  0  0  0  0
  7 32  1  0  0  0  0
  9 14  1  0  0  0  0
  9 13  1  0  0  0  0
 10 11  2  0  0  0  0
 10 12  1  0  0  0  0
 11 15  1  0  0  0  0
 12  9  2  0  0  0  0
 13  8  1  0  0  0  0
 14 13  1  0  0  0  0
 15 14  2  3  0  0  0
 16 11  1  0  0  0  0
 16 18  1  0  0  0  0
 17 16  2  0  0  0  0
 19 22  1  0  0  0  0
 19 21  1  0  0  0  0
 20 19  2  0  0  0  0
 22  1  1  0  0  0  0
 23 21  1  0  0  0  0
 23 24  1  0  0  0  0
 25 24  1  0  0  0  0
 25 26  1  0  0  0  0
 26 27  1  0  0  0  0
 28 30  1  0  0  0  0
 28 26  1  0  0  0  0
 29 30  1  0  0  0  0
 30 31  1  0  0  0  0
 32 34  1  0  0  0  0
 33 35  1  0  0  0  0
 34 33  1  0  0  0  0
 36 37  1  0  0  0  0
 36 34  1  0  0  0  0
 36 38  1  0  0  0  0
 37 34  1  0  0  0  0
 38 39  2  0  0  0  0
 39 35  1  0  0  0  0
 40 45  1  0  0  0  0
 41 43  2  0  0  0  0
 41 44  1  0  0  0  0
 42 46  1  0  0  0  0
 44 47  2  0  0  0  0
 45 42  1  0  0  0  0
 45 41  1  0  0  0  0
 46 44  1  0  0  0  0
 46 48  1  0  0  0  0
 49 48  2  0  0  0  0
 49 56  1  0  0  0  0
 50 59  1  0  0  0  0
 50 61  1  0  0  0  0
 51 54  1  0  0  0  0
 52 53  2  0  0  0  0
 54 50  2  0  0  0  0
 55 59  1  0  0  0  0
 56 51  1  0  0  0  0
 56 55  1  0  0  0  0
 57 53  1  0  0  0  0
 57 62  1  0  0  0  0
 58 56  1  0  0  0  0
 59 60  2  0  0  0  0
 60 52  1  0  0  0  0
 61 57  1  0  0  0  0
 63 62  1  0  0  0  0
M  END
>  <MODEL>
1

>  <REMARK>
 VINA RESULT:      -7.4      0.000      0.000
  Name = 
  16 active torsions:
  status: ('A' for Active; 'I' for Inactive)
    1  A    between atoms: C_4  and  C_23
    2  A    between atoms: C_4  and  N_53
    3  A    between atoms: C_9  and  C_39
    4  A    between atoms: C_10  and  O_42
    5  A    between atoms: O_12  and  C_22
    6  A    between atoms: O_12  and  C_27
    7  A    between atoms: C_15  and  C_22
    8  A    between atoms: C_15  and  N_40
    9  A    between atoms: C_20  and  C_47
   10  A    between atoms: C_23  and  C_50
   11  A    between atoms: C_25  and  C_52
   12  A    between atoms: C_26  and  C_45
   13  A    between atoms: C_27  and  C_62
   14  A    between atoms: C_38  and  C_62
   15  A    between atoms: O_42  and  C_46
   16  A    between atoms: C_44  and  C_51
                            x       y       z     vdW  Elec       q    Type
                         _______ _______ _______ _____ _____    ______ ____

>  <TORSDO>
F 16

$$$$
=
 OpenBabel11062418053D

 63 71  0  0  1  0  0  0  0  0999 V2000
  184.3650  178.8700  139.4590 C   0  0  1  0  0  0  0  0  0  0  0  0
  183.4260  176.5540  139.5980 C   0  0  0  0  0  2  0  0  0  0  0  0
  183.6980  177.8610  140.2900 C   0  0  2  0  0  3  0  0  0  0  0  0
  181.0230  176.1110  139.3800 C   0  0  0  0  0  1  0  0  0  0  0  0
  182.8950  178.9350  139.6520 N   0  0  2  0  0  0  0  0  0  0  0  0
  182.2290  176.7570  138.6920 C   0  0  1  0  0  0  0  0  0  0  0  0
  182.0900  178.2990  138.5980 C   0  0  1  0  0  3  0  0  0  0  0  0
  182.5580  176.9290  136.1700 O   0  0  0  0  0  1  0  0  0  0  0  0
  183.2660  174.9720  137.1860 C   0  0  0  0  0  0  0  0  0  0  0  0
  183.4820  172.7280  136.8760 C   0  0  0  0  0  3  0  0  0  0  0  0
  182.0330  172.5940  136.7040 C   0  0  0  0  0  0  0  0  0  0  0  0
  184.1690  173.9570  137.1230 C   0  0  0  0  0  3  0  0  0  0  0  0
  182.4750  176.0990  137.2880 C   0  0  1  0  0  0  0  0  0  0  0  0
  181.7980  174.9020  137.0110 C   0  0  0  0  0  0  0  0  0  0  0  0
  181.1490  173.7150  136.7390 C   0  0  0  0  0  3  0  0  0  0  0  0
  181.4630  171.2450  136.4910 C   0  0  0  0  0  0  0  0  0  0  0  0
  182.2060  170.2760  136.1890 O   0  0  0  0  0  0  0  0  0  0  0  0
  180.0540  171.0260  136.6090 N   0  0  0  0  0  1  0  0  0  0  0  0
  185.7200  179.3260  141.4930 C   0  0  0  0  0  0  0  0  0  0  0  0
  185.3560  179.8020  142.6060 O   0  0  0  0  0  0  0  0  0  0  0  0
  186.6560  178.2500  141.4350 N   0  0  0  0  0  2  0  0  0  0  0  0
  185.1110  179.7960  140.2950 N   0  0  0  0  0  2  0  0  0  0  0  0
  186.6530  177.2080  142.4560 C   0  0  0  0  0  2  0  0  0  0  0  0
  188.0750  176.9360  142.9040 C   0  0  0  0  0  2  0  0  0  0  0  0
  188.6340  178.1070  143.4270 O   0  0  0  0  0  0  0  0  0  0  0  0
  190.0130  177.9230  143.3090 C   0  0  2  0  0  3  0  0  0  0  0  0
  190.3350  177.6580  141.9760 O   0  0  0  0  0  1  0  0  0  0  0  0
  190.4770  176.7580  144.1800 C   0  0  0  0  0  2  0  0  0  0  0  0
  189.8080  177.2650  146.5420 C   0  0  0  0  0  1  0  0  0  0  0  0
  190.9690  177.1650  145.5660 C   0  0  1  0  0  3  0  0  0  0  0  0
  191.9240  176.2700  146.0270 O   0  0  0  0  0  1  0  0  0  0  0  0
  180.7550  178.7440  138.7380 O   0  0  0  0  0  0  0  0  0  0  0  0
  180.1620  179.2150  136.2880 C   0  0  0  0  0  2  0  0  0  0  0  0
  180.4240  179.6840  137.7390 C   0  0  1  0  0  0  0  0  0  0  0  0
  180.0320  180.3820  135.3030 C   0  0  0  0  0  2  0  0  0  0  0  0
  179.8530  181.0160  138.2240 C   0  0  1  0  0  3  0  0  0  0  0  0
  181.3260  180.8930  137.8590 C   0  0  0  0  0  2  0  0  0  0  0  0
  179.0650  181.7410  137.1520 C   0  0  0  0  0  3  0  0  0  0  0  0
  179.1200  181.4440  135.8410 C   0  0  0  0  0  3  0  0  0  0  0  0
  184.9460  178.5340  138.0550 C   0  0  0  0  0  2  0  0  0  0  0  0
  187.1730  178.7100  136.8530 C   0  0  0  0  0  0  0  0  0  0  0  0
  186.6470  176.6570  137.9150 C   0  0  0  0  0  2  0  0  0  0  0  0
  187.4290  179.9220  136.6490 O   0  0  0  0  0  0  0  0  0  0  0  0
  187.5670  177.6430  135.9680 C   0  0  0  0  0  0  0  0  0  0  0  0
  186.4380  178.1710  138.0310 C   0  0  2  0  0  3  0  0  0  0  0  0
  187.0220  176.3540  136.4530 C   0  0  1  0  0  3  0  0  0  0  0  0
  188.1560  177.8100  134.8620 O   0  0  0  0  0  0  0  0  0  0  0  0
  187.9690  175.2060  136.3980 C   0  0  0  0  0  3  0  0  0  0  0  0
  189.2260  175.4340  136.7790 C   0  0  0  0  0  3  0  0  0  0  0  0
  192.9160  174.1130  135.3830 C   0  0  0  0  0  0  0  0  0  0  0  0
  190.5000  174.0350  135.2050 C   0  0  0  0  0  2  0  0  0  0  0  0
  194.8380  176.4640  135.7960 C   0  0  0  0  0  3  0  0  0  0  0  0
  195.6270  175.5190  135.2850 C   0  0  0  0  0  3  0  0  0  0  0  0
  191.8460  173.5580  134.8970 N   0  0  0  0  0  0  0  0  0  0  0  0
  191.5790  175.0890  137.3190 C   0  0  0  0  0  2  0  0  0  0  0  0
  190.3320  174.4290  136.6860 C   0  0  1  0  0  0  0  0  0  0  0  0
  195.3930  174.0580  135.4980 C   0  0  1  0  0  3  0  0  0  0  0  0
  190.0190  173.2950  137.4300 O   0  0  0  0  0  1  0  0  0  0  0  0
  192.7610  175.1800  136.4000 C   0  0  0  0  0  0  0  0  0  0  0  0
  193.6020  176.2100  136.5640 C   0  0  0  0  0  3  0  0  0  0  0  0
  194.1580  173.6630  134.9250 O   0  0  0  0  0  0  0  0  0  0  0  0
  196.5360  173.2510  134.8870 C   0  0  0  0  0  2  0  0  0  0  0  0
  196.2240  171.8960  134.8790 F   0  0  0  0  0  0  0  0  0  0  0  0
  1 40  1  6  0  0  0
  1  5  1  0  0  0  0
  1  3  1  0  0  0  0
  1 22  1  0  0  0  0
  3  2  1  6  0  0  0
  5  3  1  0  0  0  0
  6  4  1  0  0  0  0
  6  2  1  0  0  0  0
  7  6  1  0  0  0  0
  7 32  1  0  0  0  0
  7  5  1  0  0  0  0
  8 13  1  0  0  0  0
  9 13  1  0  0  0  0
 10 12  2  0  0  0  0
 11 15  2  0  0  0  0
 11 10  1  0  0  0  0
 12  9  1  0  0  0  0
 13  6  1  0  0  0  0
 14  9  2  0  0  0  0
 14 13  1  0  0  0  0
 15 14  1  0  0  0  0
 16 18  1  0  0  0  0
 16 11  1  0  0  0  0
 17 16  2  0  0  0  0
 19 20  2  0  0  0  0
 21 19  1  0  0  0  0
 21 23  1  0  0  0  0
 22 19  1  0  0  0  0
 23 24  1  0  0  0  0
 24 25  1  0  0  0  0
 26 25  1  0  0  0  0
 26 28  1  0  0  0  0
 27 26  1  0  0  0  0
 28 30  1  0  0  0  0
 30 31  1  0  0  0  0
 30 29  1  0  0  0  0
 33 34  1  0  0  0  0
 34 37  1  0  0  0  0
 34 36  1  0  0  0  0
 34 32  1  0  0  0  0
 35 39  1  0  0  0  0
 35 33  1  0  0  0  0
 37 36  1  0  0  0  0
 38 36  1  0  0  0  0
 39 38  2  0  0  0  0
 41 45  1  0  0  0  0
 42 45  1  0  0  0  0
 43 41  2  0  0  0  0
 44 46  1  0  0  0  0
 44 41  1  0  0  0  0
 45 40  1  0  0  0  0
 46 42  1  0  0  0  0
 47 44  2  0  0  0  0
 48 46  1  0  0  0  0
 48 49  2  0  0  0  0
 50 59  1  0  0  0  0
 51 56  1  0  0  0  0
 52 60  1  0  0  0  0
 53 57  1  0  0  0  0
 53 52  2  0  0  0  0
 54 51  1  0  0  0  0
 54 50  2  0  0  0  0
 56 49  1  0  0  0  0
 56 55  1  0  0  0  0
 56 58  1  0  0  0  0
 59 60  2  0  0  0  0
 59 55  1  0  0  0  0
 61 50  1  0  0  0  0
 61 57  1  0  0  0  0
 62 57  1  0  0  0  0
 63 62  1  0  0  0  0
M  END
>  <MODEL>
2

>  <REMARK>
 VINA RESULT:      -7.1      3.308      8.352
  Name = 
  16 active torsions:
  status: ('A' for Active; 'I' for Inactive)
    1  A    between atoms: C_4  and  C_23
    2  A    between atoms: C_4  and  N_53
    3  A    between atoms: C_9  and  C_39
    4  A    between atoms: C_10  and  O_42
    5  A    between atoms: O_12  and  C_22
    6  A    between atoms: O_12  and  C_27
    7  A    between atoms: C_15  and  C_22
    8  A    between atoms: C_15  and  N_40
    9  A    between atoms: C_20  and  C_47
   10  A    between atoms: C_23  and  C_50
   11  A    between atoms: C_25  and  C_52
   12  A    between atoms: C_26  and  C_45
   13  A    between atoms: C_27  and  C_62
   14  A    between atoms: C_38  and  C_62
   15  A    between atoms: O_42  and  C_46
   16  A    between atoms: C_44  and  C_51
                            x       y       z     vdW  Elec       q    Type
                         _______ _______ _______ _____ _____    ______ ____

>  <TORSDO>
F 16

$$$$
=
 OpenBabel11062418053D

 63 71  0  0  1  0  0  0  0  0999 V2000
  182.8020  177.0420  137.9280 C   0  0  1  0  0  0  0  0  0  0  0  0
  181.7130  178.7010  136.4020 C   0  0  0  0  0  2  0  0  0  0  0  0
  182.4180  177.3810  136.5530 C   0  0  2  0  0  3  0  0  0  0  0  0
  179.4030  178.4280  135.6220 C   0  0  0  0  0  1  0  0  0  0  0  0
  181.5700  176.4550  137.3470 N   0  0  2  0  0  0  0  0  0  0  0  0
  180.2850  178.5140  136.8710 C   0  0  1  0  0  0  0  0  0  0  0  0
  180.3230  177.1730  137.6520 C   0  0  1  0  0  3  0  0  0  0  0  0
  178.9380  179.4610  138.8170 O   0  0  0  0  0  1  0  0  0  0  0  0
  180.7220  180.7310  138.0620 C   0  0  0  0  0  0  0  0  0  0  0  0
  181.4450  182.8680  137.7620 C   0  0  0  0  0  3  0  0  0  0  0  0
  180.3400  183.1310  136.8360 C   0  0  0  0  0  0  0  0  0  0  0  0
  181.6760  181.6260  138.4320 C   0  0  0  0  0  3  0  0  0  0  0  0
  179.8340  179.7130  137.7770 C   0  0  1  0  0  0  0  0  0  0  0  0
  179.5810  180.9390  137.1440 C   0  0  0  0  0  0  0  0  0  0  0  0
  179.3460  182.1520  136.5290 C   0  0  0  0  0  3  0  0  0  0  0  0
  180.2520  184.4590  136.1900 C   0  0  0  0  0  0  0  0  0  0  0  0
  181.0340  184.7680  135.2540 O   0  0  0  0  0  0  0  0  0  0  0  0
  179.2870  185.4180  136.6300 N   0  0  0  0  0  1  0  0  0  0  0  0
  185.1400  176.5290  137.2560 C   0  0  0  0  0  0  0  0  0  0  0  0
  185.5600  175.8440  136.2810 O   0  0  0  0  0  0  0  0  0  0  0  0
  185.7950  177.7420  137.6260 N   0  0  0  0  0  2  0  0  0  0  0  0
  183.9440  176.1420  137.9240 N   0  0  0  0  0  2  0  0  0  0  0  0
  186.3770  178.6110  136.6100 C   0  0  0  0  0  2  0  0  0  0  0  0
  187.8890  178.5080  136.6630 C   0  0  0  0  0  2  0  0  0  0  0  0
  188.2770  177.9240  137.8740 O   0  0  0  0  0  0  0  0  0  0  0  0
  189.6350  177.6400  137.7090 C   0  0  2  0  0  3  0  0  0  0  0  0
  189.8100  176.8420  136.5780 O   0  0  0  0  0  1  0  0  0  0  0  0
  190.1830  176.9090  138.9330 C   0  0  0  0  0  2  0  0  0  0  0  0
  191.8170  177.3990  140.7680 C   0  0  0  0  0  1  0  0  0  0  0  0
  191.6330  177.2420  139.2680 C   0  0  1  0  0  3  0  0  0  0  0  0
  192.4860  176.2680  138.7670 O   0  0  0  0  0  1  0  0  0  0  0  0
  179.2380  176.3200  137.3400 O   0  0  0  0  0  0  0  0  0  0  0  0
  180.4490  174.2670  138.2840 C   0  0  0  0  0  2  0  0  0  0  0  0
  179.6720  174.9900  137.1580 C   0  0  1  0  0  0  0  0  0  0  0  0
  181.0250  172.9190  137.8340 C   0  0  0  0  0  2  0  0  0  0  0  0
  178.9350  174.1750  136.0960 C   0  0  1  0  0  3  0  0  0  0  0  0
  180.2700  174.8340  135.7770 C   0  0  0  0  0  2  0  0  0  0  0  0
  179.0780  172.6810  136.3010 C   0  0  0  0  0  3  0  0  0  0  0  0
  179.9970  172.1100  137.1010 C   0  0  0  0  0  3  0  0  0  0  0  0
  182.6950  178.0680  139.0940 C   0  0  0  0  0  2  0  0  0  0  0  0
  182.1750  178.0330  141.5770 C   0  0  0  0  0  0  0  0  0  0  0  0
  184.4520  177.9580  140.9210 C   0  0  0  0  0  2  0  0  0  0  0  0
  180.9640  177.7430  141.7330 O   0  0  0  0  0  0  0  0  0  0  0  0
  182.9130  178.9100  142.4500 C   0  0  0  0  0  0  0  0  0  0  0  0
  183.0490  177.5210  140.4850 C   0  0  2  0  0  3  0  0  0  0  0  0
  184.2830  179.1140  141.9250 C   0  0  1  0  0  3  0  0  0  0  0  0
  182.4130  179.5330  143.4300 O   0  0  0  0  0  0  0  0  0  0  0  0
  185.3660  179.0630  142.9460 C   0  0  0  0  0  3  0  0  0  0  0  0
  185.0560  178.5520  144.1370 C   0  0  0  0  0  3  0  0  0  0  0  0
  188.3440  177.0740  146.2170 C   0  0  0  0  0  0  0  0  0  0  0  0
  185.9370  177.1110  145.9290 C   0  0  0  0  0  2  0  0  0  0  0  0
  190.6230  176.9580  144.1730 C   0  0  0  0  0  3  0  0  0  0  0  0
  191.2060  176.5350  145.2940 C   0  0  0  0  0  3  0  0  0  0  0  0
  187.1580  176.7700  146.6550 N   0  0  0  0  0  0  0  0  0  0  0  0
  187.3780  178.9410  144.7790 C   0  0  0  0  0  2  0  0  0  0  0  0
  185.9870  178.5230  145.3110 C   0  0  1  0  0  0  0  0  0  0  0  0
  190.7840  176.9900  146.6540 C   0  0  1  0  0  3  0  0  0  0  0  0
  185.5910  179.4570  146.2640 O   0  0  0  0  0  1  0  0  0  0  0  0
  188.4550  177.9240  145.0080 C   0  0  0  0  0  0  0  0  0  0  0  0
  189.4520  177.8560  144.1140 C   0  0  0  0  0  3  0  0  0  0  0  0
  189.4500  176.5890  146.9210 O   0  0  0  0  0  0  0  0  0  0  0  0
  191.7240  176.4170  147.7120 C   0  0  0  0  0  2  0  0  0  0  0  0
  191.7080  175.0280  147.6760 F   0  0  0  0  0  0  0  0  0  0  0  0
  1 40  1  1  0  0  0
  2  6  1  0  0  0  0
  3  2  1  1  0  0  0
  3  5  1  0  0  0  0
  3  1  1  0  0  0  0
  4  6  1  0  0  0  0
  5  7  1  0  0  0  0
  5  1  1  0  0  0  0
  6  7  1  0  0  0  0
  6 13  1  0  0  0  0
  9 12  1  0  0  0  0
 10 12  2  0  0  0  0
 11 10  1  0  0  0  0
 13  9  1  0  0  0  0
 13  8  1  0  0  0  0
 14 13  1  0  0  0  0
 14  9  2  0  0  0  0
 15 11  2  0  0  0  0
 15 14  1  0  0  0  0
 16 18  1  0  0  0  0
 16 11  1  0  0  0  0
 17 16  2  0  0  0  0
 19 21  1  0  0  0  0
 19 22  1  0  0  0  0
 20 19  2  0  0  0  0
 22  1  1  0  0  0  0
 23 24  1  0  0  0  0
 23 21  1  0  0  0  0
 24 25  1  0  0  0  0
 26 25  1  0  0  0  0
 26 28  1  0  0  0  0
 27 26  1  0  0  0  0
 28 30  1  0  0  0  0
 30 29  1  0  0  0  0
 31 30  1  0  0  0  0
 32  7  1  0  0  0  0
 34 32  1  0  0  0  0
 34 33  1  0  0  0  0
 35 33  1  0  0  0  0
 36 38  1  0  0  0  0
 36 34  1  0  0  0  0
 37 36  1  0  0  0  0
 37 34  1  0  0  0  0
 38 39  2  0  0  0  0
 39 35  1  0  0  0  0
 40 45  1  0  0  0  0
 41 43  2  0  0  0  0
 41 44  1  0  0  0  0
 42 46  1  0  0  0  0
 44 47  2  0  0  0  0
 45 42  1  0  0  0  0
 45 41  1  0  0  0  0
 46 44  1  0  0  0  0
 46 48  1  0  0  0  0
 48 49  2  0  0  0  0
 49 56  1  0  0  0  0
 50 54  2  0  0  0  0
 50 61  1  0  0  0  0
 51 54  1  0  0  0  0
 52 53  2  0  0  0  0
 53 57  1  0  0  0  0
 55 59  1  0  0  0  0
 55 56  1  0  0  0  0
 56 51  1  0  0  0  0
 56 58  1  0  0  0  0
 57 61  1  0  0  0  0
 57 62  1  0  0  0  0
 59 50  1  0  0  0  0
 60 52  1  0  0  0  0
 60 59  2  0  0  0  0
 63 62  1  0  0  0  0
M  END
>  <MODEL>
3

>  <REMARK>
 VINA RESULT:      -6.5      1.825      2.530
  Name = 
  16 active torsions:
  status: ('A' for Active; 'I' for Inactive)
    1  A    between atoms: C_4  and  C_23
    2  A    between atoms: C_4  and  N_53
    3  A    between atoms: C_9  and  C_39
    4  A    between atoms: C_10  and  O_42
    5  A    between atoms: O_12  and  C_22
    6  A    between atoms: O_12  and  C_27
    7  A    between atoms: C_15  and  C_22
    8  A    between atoms: C_15  and  N_40
    9  A    between atoms: C_20  and  C_47
   10  A    between atoms: C_23  and  C_50
   11  A    between atoms: C_25  and  C_52
   12  A    between atoms: C_26  and  C_45
   13  A    between atoms: C_27  and  C_62
   14  A    between atoms: C_38  and  C_62
   15  A    between atoms: O_42  and  C_46
   16  A    between atoms: C_44  and  C_51
                            x       y       z     vdW  Elec       q    Type
                         _______ _______ _______ _____ _____    ______ ____

>  <TORSDO>
F 16

$$$$
=
 OpenBabel11062418053D

 63 71  0  0  1  0  0  0  0  0999 V2000
  185.5310  175.7070  136.9660 C   0  0  1  0  0  0  0  0  0  0  0  0
  183.6770  175.4780  135.2990 C   0  0  0  0  0  2  0  0  0  0  0  0
  184.5840  174.8080  136.2940 C   0  0  2  0  0  3  0  0  0  0  0  0
  181.3230  175.3680  135.9810 C   0  0  0  0  0  1  0  0  0  0  0  0
  184.2800  175.3100  137.6580 N   0  0  2  0  0  0  0  0  0  0  0  0
  182.6010  176.2050  136.0790 C   0  0  1  0  0  0  0  0  0  0  0  0
  183.1580  176.2530  137.5260 C   0  0  1  0  0  3  0  0  0  0  0  0
  183.2960  178.1580  134.5940 O   0  0  0  0  0  1  0  0  0  0  0  0
  181.0730  178.0730  135.2410 C   0  0  0  0  0  0  0  0  0  0  0  0
  179.2790  179.3630  135.7850 C   0  0  0  0  0  3  0  0  0  0  0  0
  180.0100  179.9340  136.9200 C   0  0  0  0  0  0  0  0  0  0  0  0
  179.8030  178.3920  134.8760 C   0  0  0  0  0  3  0  0  0  0  0  0
  182.3600  177.6410  135.4910 C   0  0  1  0  0  0  0  0  0  0  0  0
  181.8650  178.6200  136.3650 C   0  0  0  0  0  0  0  0  0  0  0  0
  181.3630  179.5830  137.2160 C   0  0  0  0  0  3  0  0  0  0  0  0
  179.3200  180.9060  137.7960 C   0  0  0  0  0  0  0  0  0  0  0  0
  178.9310  182.0130  137.3430 O   0  0  0  0  0  0  0  0  0  0  0  0
  179.0990  180.6080  139.1780 N   0  0  0  0  0  1  0  0  0  0  0  0
  186.9350  173.6560  136.8930 C   0  0  0  0  0  0  0  0  0  0  0  0
  186.9600  172.6750  137.6880 O   0  0  0  0  0  0  0  0  0  0  0  0
  187.0310  173.4510  135.4830 N   0  0  0  0  0  2  0  0  0  0  0  0
  186.7040  174.9670  137.3990 N   0  0  0  0  0  2  0  0  0  0  0  0
  186.4250  172.2790  134.8620 C   0  0  0  0  0  2  0  0  0  0  0  0
  185.5770  171.5470  135.8840 C   0  0  0  0  0  2  0  0  0  0  0  0
  184.2350  171.9090  135.7250 O   0  0  0  0  0  0  0  0  0  0  0  0
  183.5380  171.0690  136.5980 C   0  0  2  0  0  3  0  0  0  0  0  0
  183.5560  169.7650  136.1020 O   0  0  0  0  0  1  0  0  0  0  0  0
  182.0910  171.5330  136.7470 C   0  0  0  0  0  2  0  0  0  0  0  0
  179.7710  170.8130  136.1330 C   0  0  0  0  0  1  0  0  0  0  0  0
  181.1700  171.0960  135.6130 C   0  0  1  0  0  3  0  0  0  0  0  0
  181.1380  172.0580  134.6120 O   0  0  0  0  0  1  0  0  0  0  0  0
  182.1900  175.9220  138.5030 O   0  0  0  0  0  0  0  0  0  0  0  0
  183.5720  177.5330  139.9410 C   0  0  0  0  0  2  0  0  0  0  0  0
  182.2480  176.8090  139.5990 C   0  0  1  0  0  0  0  0  0  0  0  0
  183.5080  178.2810  141.2780 C   0  0  0  0  0  2  0  0  0  0  0  0
  180.9170  177.3920  140.0700 C   0  0  1  0  0  3  0  0  0  0  0  0
  181.5350  176.1990  140.7850 C   0  0  0  0  0  2  0  0  0  0  0  0
  181.0850  178.6740  140.8600 C   0  0  0  0  0  3  0  0  0  0  0  0
  182.2520  179.0930  141.3830 C   0  0  0  0  0  3  0  0  0  0  0  0
  185.7310  177.1830  136.5170 C   0  0  0  0  0  2  0  0  0  0  0  0
  187.0870  179.2140  137.2050 C   0  0  0  0  0  0  0  0  0  0  0  0
  186.8580  177.4520  138.7740 C   0  0  0  0  0  2  0  0  0  0  0  0
  186.8300  180.1580  136.4190 O   0  0  0  0  0  0  0  0  0  0  0  0
  188.3700  179.0100  137.8280 C   0  0  0  0  0  0  0  0  0  0  0  0
  186.1220  178.1620  137.6330 C   0  0  2  0  0  3  0  0  0  0  0  0
  188.3590  177.7540  138.6140 C   0  0  1  0  0  3  0  0  0  0  0  0
  189.3950  179.7170  137.6070 O   0  0  0  0  0  0  0  0  0  0  0  0
  189.0070  177.8400  139.9530 C   0  0  0  0  0  3  0  0  0  0  0  0
  189.2360  176.6930  140.5920 C   0  0  0  0  0  3  0  0  0  0  0  0
  189.2770  177.7250  144.6230 C   0  0  0  0  0  0  0  0  0  0  0  0
  190.2440  178.0020  142.4170 C   0  0  0  0  0  2  0  0  0  0  0  0
  186.3600  177.5470  145.5450 C   0  0  0  0  0  3  0  0  0  0  0  0
  187.0060  177.8890  146.6600 C   0  0  0  0  0  3  0  0  0  0  0  0
  190.2320  178.1800  143.8680 N   0  0  0  0  0  0  0  0  0  0  0  0
  188.6450  176.0030  142.8560 C   0  0  0  0  0  2  0  0  0  0  0  0
  189.7770  176.5980  141.9860 C   0  0  1  0  0  0  0  0  0  0  0  0
  188.4190  177.4900  146.9380 C   0  0  1  0  0  3  0  0  0  0  0  0
  190.8580  175.7210  142.0260 O   0  0  0  0  0  1  0  0  0  0  0  0
  188.2340  176.8710  144.0080 C   0  0  0  0  0  0  0  0  0  0  0  0
  186.9580  176.8100  144.4130 C   0  0  0  0  0  3  0  0  0  0  0  0
  189.2960  178.0600  145.9800 O   0  0  0  0  0  0  0  0  0  0  0  0
  188.8210  177.9320  148.3430 C   0  0  0  0  0  2  0  0  0  0  0  0
  188.9810  179.3120  148.3910 F   0  0  0  0  0  0  0  0  0  0  0  0
  1 40  1  6  0  0  0
  1 22  1  0  0  0  0
  1  5  1  0  0  0  0
  2  6  1  0  0  0  0
  3  2  1  6  0  0  0
  3  1  1  0  0  0  0
  3  5  1  0  0  0  0
  4  6  1  0  0  0  0
  6  7  1  0  0  0  0
  7  5  1  0  0  0  0
  7 32  1  0  0  0  0
  8 13  1  0  0  0  0
  9 13  1  0  0  0  0
  9 14  1  0  0  0  0
 10 11  2  0  0  0  0
 11 15  1  0  0  0  0
 11 16  1  0  0  0  0
 12  9  2  0  0  0  0
 12 10  1  0  0  0  0
 13  6  1  0  0  0  0
 13 14  1  0  0  0  0
 14 15  2  3  0  0  0
 16 18  1  0  0  0  0
 17 16  2  0  0  0  0
 19 22  1  0  0  0  0
 19 20  2  0  0  0  0
 21 19  1  0  0  0  0
 23 21  1  0  0  0  0
 23 24  1  0  0  0  0
 25 24  1  0  0  0  0
 25 26  1  0  0  0  0
 26 28  1  0  0  0  0
 27 26  1  0  0  0  0
 30 29  1  0  0  0  0
 30 28  1  0  0  0  0
 31 30  1  0  0  0  0
 32 34  1  0  0  0  0
 33 35  1  0  0  0  0
 34 33  1  0  0  0  0
 34 36  1  0  0  0  0
 34 37  1  0  0  0  0
 35 39  1  0  0  0  0
 36 37  1  0  0  0  0
 36 38  1  0  0  0  0
 38 39  2  0  0  0  0
 40 45  1  0  0  0  0
 41 45  1  0  0  0  0
 41 44  1  0  0  0  0
 43 41  2  0  0  0  0
 44 46  1  0  0  0  0
 45 42  1  0  0  0  0
 46 42  1  0  0  0  0
 46 48  1  0  0  0  0
 47 44  2  0  0  0  0
 48 49  2  0  0  0  0
 49 56  1  0  0  0  0
 50 61  1  0  0  0  0
 51 54  1  0  0  0  0
 52 53  2  0  0  0  0
 53 57  1  0  0  0  0
 54 50  2  0  0  0  0
 55 59  1  0  0  0  0
 56 58  1  0  0  0  0
 56 51  1  0  0  0  0
 56 55  1  0  0  0  0
 57 62  1  0  0  0  0
 59 60  2  0  0  0  0
 59 50  1  0  0  0  0
 60 52  1  0  0  0  0
 61 57  1  0  0  0  0
 62 63  1  0  0  0  0
M  END
>  <MODEL>
4

>  <REMARK>
 VINA RESULT:      -6.2      2.876      5.242
  Name = 
  16 active torsions:
  status: ('A' for Active; 'I' for Inactive)
    1  A    between atoms: C_4  and  C_23
    2  A    between atoms: C_4  and  N_53
    3  A    between atoms: C_9  and  C_39
    4  A    between atoms: C_10  and  O_42
    5  A    between atoms: O_12  and  C_22
    6  A    between atoms: O_12  and  C_27
    7  A    between atoms: C_15  and  C_22
    8  A    between atoms: C_15  and  N_40
    9  A    between atoms: C_20  and  C_47
   10  A    between atoms: C_23  and  C_50
   11  A    between atoms: C_25  and  C_52
   12  A    between atoms: C_26  and  C_45
   13  A    between atoms: C_27  and  C_62
   14  A    between atoms: C_38  and  C_62
   15  A    between atoms: O_42  and  C_46
   16  A    between atoms: C_44  and  C_51
                            x       y       z     vdW  Elec       q    Type
                         _______ _______ _______ _____ _____    ______ ____

>  <TORSDO>
F 16

$$$$
=
 OpenBabel11062418053D

 63 71  0  0  1  0  0  0  0  0999 V2000
  185.9750  176.9290  135.5850 C   0  0  1  0  0  0  0  0  0  0  0  0
  184.0890  178.0710  136.7700 C   0  0  0  0  0  2  0  0  0  0  0  0
  184.8660  177.8870  135.4960 C   0  0  2  0  0  3  0  0  0  0  0  0
  181.7660  177.3130  136.5500 C   0  0  0  0  0  1  0  0  0  0  0  0
  184.6810  176.4990  135.0000 N   0  0  2  0  0  0  0  0  0  0  0  0
  183.1820  176.8690  136.9310 C   0  0  1  0  0  0  0  0  0  0  0  0
  183.7570  175.8320  135.9310 C   0  0  1  0  0  3  0  0  0  0  0  0
  183.6830  175.0520  138.6470 O   0  0  0  0  0  1  0  0  0  0  0  0
  183.4770  177.2160  139.4450 C   0  0  0  0  0  0  0  0  0  0  0  0
  182.7750  178.4480  141.2260 C   0  0  0  0  0  3  0  0  0  0  0  0
  181.4080  177.9460  141.0560 C   0  0  0  0  0  0  0  0  0  0  0  0
  183.8890  178.0840  140.4070 C   0  0  0  0  0  3  0  0  0  0  0  0
  183.2100  176.3430  138.4100 C   0  0  1  0  0  0  0  0  0  0  0  0
  182.1200  176.6680  139.2300 C   0  0  0  0  0  0  0  0  0  0  0  0
  181.0570  176.9980  140.0470 C   0  0  0  0  0  3  0  0  0  0  0  0
  180.3490  178.4440  141.9610 C   0  0  0  0  0  0  0  0  0  0  0  0
  179.2760  177.8030  142.1060 O   0  0  0  0  0  0  0  0  0  0  0  0
  180.5220  179.6720  142.6750 N   0  0  0  0  0  1  0  0  0  0  0  0
  188.3310  176.8050  134.8000 C   0  0  0  0  0  0  0  0  0  0  0  0
  189.2580  177.6570  134.9140 O   0  0  0  0  0  0  0  0  0  0  0  0
  188.5970  175.4150  134.9790 N   0  0  0  0  0  2  0  0  0  0  0  0
  186.9930  177.2460  134.5960 N   0  0  0  0  0  2  0  0  0  0  0  0
  189.5790  174.9670  135.9610 C   0  0  0  0  0  2  0  0  0  0  0  0
  190.9430  174.8750  135.3050 C   0  0  0  0  0  2  0  0  0  0  0  0
  191.7700  175.8890  135.8000 O   0  0  0  0  0  0  0  0  0  0  0  0
  192.6920  175.2270  136.6130 C   0  0  2  0  0  3  0  0  0  0  0  0
  192.8620  175.9390  137.8010 O   0  0  0  0  0  1  0  0  0  0  0  0
  194.0390  175.1000  135.9040 C   0  0  0  0  0  2  0  0  0  0  0  0
  195.8850  173.6200  136.7300 C   0  0  0  0  0  1  0  0  0  0  0  0
  194.6160  173.6880  135.8970 C   0  0  1  0  0  3  0  0  0  0  0  0
  193.6770  172.7740  136.3550 O   0  0  0  0  0  1  0  0  0  0  0  0
  182.7570  175.1850  135.1670 O   0  0  0  0  0  0  0  0  0  0  0  0
  184.0560  173.0190  134.7270 C   0  0  0  0  0  2  0  0  0  0  0  0
  182.8400  173.7840  135.3030 C   0  0  1  0  0  0  0  0  0  0  0  0
  183.8740  171.4980  134.7740 C   0  0  0  0  0  2  0  0  0  0  0  0
  182.0100  173.1600  136.4240 C   0  0  1  0  0  3  0  0  0  0  0  0
  181.4970  173.1610  134.9910 C   0  0  0  0  0  2  0  0  0  0  0  0
  182.5190  171.7960  136.8400 C   0  0  0  0  0  3  0  0  0  0  0  0
  183.3770  171.0540  136.1170 C   0  0  0  0  0  3  0  0  0  0  0  0
  186.4470  176.3320  136.9420 C   0  0  0  0  0  2  0  0  0  0  0  0
  187.5550  178.5310  137.5530 C   0  0  0  0  0  0  0  0  0  0  0  0
  187.6640  176.7610  139.1260 C   0  0  0  0  0  2  0  0  0  0  0  0
  187.1240  179.4280  136.7880 O   0  0  0  0  0  0  0  0  0  0  0  0
  188.8900  178.5050  138.0940 C   0  0  0  0  0  0  0  0  0  0  0  0
  186.7700  177.3610  138.0360 C   0  0  2  0  0  3  0  0  0  0  0  0
  189.0980  177.2630  138.8750 C   0  0  1  0  0  3  0  0  0  0  0  0
  189.7940  179.3430  137.8120 O   0  0  0  0  0  0  0  0  0  0  0  0
  189.8090  177.4420  140.1710 C   0  0  0  0  0  3  0  0  0  0  0  0
  189.4510  176.6450  141.1770 C   0  0  0  0  0  3  0  0  0  0  0  0
  189.3030  178.0600  145.0870 C   0  0  0  0  0  0  0  0  0  0  0  0
  190.2540  178.2470  142.8650 C   0  0  0  0  0  2  0  0  0  0  0  0
  186.4230  177.5900  146.0220 C   0  0  0  0  0  3  0  0  0  0  0  0
  187.0030  178.1200  147.0980 C   0  0  0  0  0  3  0  0  0  0  0  0
  190.2000  178.5620  144.2910 N   0  0  0  0  0  0  0  0  0  0  0  0
  188.9260  176.1060  143.4980 C   0  0  0  0  0  2  0  0  0  0  0  0
  189.9810  176.7580  142.5740 C   0  0  1  0  0  0  0  0  0  0  0  0
  188.4540  177.9400  147.4140 C   0  0  1  0  0  3  0  0  0  0  0  0
  191.1670  176.0400  142.7000 O   0  0  0  0  0  1  0  0  0  0  0  0
  188.3890  177.0200  144.5590 C   0  0  0  0  0  0  0  0  0  0  0  0
  187.1270  176.8310  144.9680 C   0  0  0  0  0  3  0  0  0  0  0  0
  189.2600  178.5250  146.4050 O   0  0  0  0  0  0  0  0  0  0  0  0
  188.7750  178.5670  148.7690 C   0  0  0  0  0  2  0  0  0  0  0  0
  187.6110  178.7550  149.5060 F   0  0  0  0  0  0  0  0  0  0  0  0
  1 40  1  1  0  0  0
  2  6  1  0  0  0  0
  3  1  1  0  0  0  0
  3  2  1  1  0  0  0
  4  6  1  0  0  0  0
  5  3  1  0  0  0  0
  5  1  1  0  0  0  0
  5  7  1  0  0  0  0
  6 13  1  0  0  0  0
  7  6  1  0  0  0  0
  9 12  1  0  0  0  0
 11 10  1  0  0  0  0
 11 16  1  0  0  0  0
 12 10  2  0  0  0  0
 13  8  1  0  0  0  0
 13 14  1  0  0  0  0
 13  9  1  0  0  0  0
 14  9  2  0  0  0  0
 14 15  1  0  0  0  0
 15 11  2  0  0  0  0
 16 17  2  0  0  0  0
 16 18  1  0  0  0  0
 19 20  2  0  0  0  0
 19 21  1  0  0  0  0
 21 23  1  0  0  0  0
 22 19  1  0  0  0  0
 22  1  1  0  0  0  0
 24 25  1  0  0  0  0
 24 23  1  0  0  0  0
 25 26  1  0  0  0  0
 26 27  1  0  0  0  0
 28 26  1  0  0  0  0
 30 28  1  0  0  0  0
 30 31  1  0  0  0  0
 30 29  1  0  0  0  0
 32 34  1  0  0  0  0
 32  7  1  0  0  0  0
 33 35  1  0  0  0  0
 33 34  1  0  0  0  0
 34 36  1  0  0  0  0
 35 39  1  0  0  0  0
 36 38  1  0  0  0  0
 37 34  1  0  0  0  0
 37 36  1  0  0  0  0
 39 38  2  0  0  0  0
 40 45  1  0  0  0  0
 41 45  1  0  0  0  0
 41 44  1  0  0  0  0
 43 41  2  0  0  0  0
 44 46  1  0  0  0  0
 45 42  1  0  0  0  0
 46 42  1  0  0  0  0
 46 48  1  0  0  0  0
 47 44  2  0  0  0  0
 48 49  2  0  0  0  0
 49 56  1  0  0  0  0
 50 61  1  0  0  0  0
 51 54  1  0  0  0  0
 52 53  2  0  0  0  0
 53 57  1  0  0  0  0
 54 50  2  0  0  0  0
 55 59  1  0  0  0  0
 56 58  1  0  0  0  0
 56 51  1  0  0  0  0
 56 55  1  0  0  0  0
 57 62  1  0  0  0  0
 59 60  2  0  0  0  0
 59 50  1  0  0  0  0
 60 52  1  0  0  0  0
 61 57  1  0  0  0  0
 62 63  1  0  0  0  0
M  END
>  <MODEL>
5

>  <REMARK>
 VINA RESULT:      -6.1      3.437      4.884
  Name = 
  16 active torsions:
  status: ('A' for Active; 'I' for Inactive)
    1  A    between atoms: C_4  and  C_23
    2  A    between atoms: C_4  and  N_53
    3  A    between atoms: C_9  and  C_39
    4  A    between atoms: C_10  and  O_42
    5  A    between atoms: O_12  and  C_22
    6  A    between atoms: O_12  and  C_27
    7  A    between atoms: C_15  and  C_22
    8  A    between atoms: C_15  and  N_40
    9  A    between atoms: C_20  and  C_47
   10  A    between atoms: C_23  and  C_50
   11  A    between atoms: C_25  and  C_52
   12  A    between atoms: C_26  and  C_45
   13  A    between atoms: C_27  and  C_62
   14  A    between atoms: C_38  and  C_62
   15  A    between atoms: O_42  and  C_46
   16  A    between atoms: C_44  and  C_51
                            x       y       z     vdW  Elec       q    Type
                         _______ _______ _______ _____ _____    ______ ____

>  <TORSDO>
F 16

$$$$
=
 OpenBabel11062418053D

 63 71  0  0  1  0  0  0  0  0999 V2000
  184.9130  175.5550  136.9320 C   0  0  1  0  0  0  0  0  0  0  0  0
  182.7720  174.6520  136.0020 C   0  0  0  0  0  2  0  0  0  0  0  0
  183.9990  174.4110  136.8370 C   0  0  2  0  0  3  0  0  0  0  0  0
  180.7160  174.5490  137.3370 C   0  0  0  0  0  1  0  0  0  0  0  0
  183.9610  175.2840  138.0370 N   0  0  2  0  0  0  0  0  0  0  0  0
  181.8150  175.4870  136.8270 C   0  0  1  0  0  0  0  0  0  0  0  0
  182.6960  176.0330  137.9810 C   0  0  1  0  0  3  0  0  0  0  0  0
  181.0200  176.4250  134.5940 O   0  0  0  0  0  1  0  0  0  0  0  0
  180.2270  177.4620  136.5080 C   0  0  0  0  0  0  0  0  0  0  0  0
  179.5970  179.4730  137.3690 C   0  0  0  0  0  3  0  0  0  0  0  0
  180.9420  180.0100  137.1440 C   0  0  0  0  0  0  0  0  0  0  0  0
  179.1790  178.1450  137.0420 C   0  0  0  0  0  3  0  0  0  0  0  0
  181.1920  176.6390  135.9620 C   0  0  1  0  0  0  0  0  0  0  0  0
  181.5990  177.9500  136.2480 C   0  0  0  0  0  0  0  0  0  0  0  0
  181.9830  179.2450  136.5340 C   0  0  0  0  0  3  0  0  0  0  0  0
  181.2360  181.3960  137.5700 C   0  0  0  0  0  0  0  0  0  0  0  0
  180.9260  182.3700  136.8370 O   0  0  0  0  0  0  0  0  0  0  0  0
  181.8920  181.6490  138.8160 N   0  0  0  0  0  1  0  0  0  0  0  0
  186.7190  173.8740  136.6200 C   0  0  0  0  0  0  0  0  0  0  0  0
  187.0610  172.9190  137.3720 O   0  0  0  0  0  0  0  0  0  0  0  0
  186.6800  173.7040  135.2030 N   0  0  0  0  0  2  0  0  0  0  0  0
  186.2680  175.0960  137.1950 N   0  0  0  0  0  2  0  0  0  0  0  0
  186.2770  172.4300  134.6200 C   0  0  0  0  0  2  0  0  0  0  0  0
  185.6700  171.5510  135.6960 C   0  0  0  0  0  2  0  0  0  0  0  0
  184.6910  170.7270  135.1310 O   0  0  0  0  0  0  0  0  0  0  0  0
  183.4960  171.1420  135.7220 C   0  0  2  0  0  3  0  0  0  0  0  0
  183.6350  171.1340  137.1110 O   0  0  0  0  0  1  0  0  0  0  0  0
  182.3490  170.2160  135.3230 C   0  0  0  0  0  2  0  0  0  0  0  0
  180.3200  171.0230  136.5510 C   0  0  0  0  0  1  0  0  0  0  0  0
  180.9960  170.9080  135.1960 C   0  0  1  0  0  3  0  0  0  0  0  0
  181.1400  172.1580  134.6090 O   0  0  0  0  0  1  0  0  0  0  0  0
  182.0730  175.9380  139.2470 O   0  0  0  0  0  0  0  0  0  0  0  0
  180.7360  177.8490  140.3120 C   0  0  0  0  0  2  0  0  0  0  0  0
  182.0740  177.1840  139.9100 C   0  0  1  0  0  0  0  0  0  0  0  0
  180.9190  179.2830  140.8220 C   0  0  0  0  0  2  0  0  0  0  0  0
  183.3630  177.5640  140.6370 C   0  0  1  0  0  3  0  0  0  0  0  0
  183.0680  178.1120  139.2480 C   0  0  0  0  0  2  0  0  0  0  0  0
  183.1430  178.6070  141.7130 C   0  0  0  0  0  3  0  0  0  0  0  0
  182.0370  179.3640  141.8190 C   0  0  0  0  0  3  0  0  0  0  0  0
  184.7390  176.8290  136.0560 C   0  0  0  0  0  2  0  0  0  0  0  0
  186.8760  178.1940  135.9820 C   0  0  0  0  0  0  0  0  0  0  0  0
  185.7390  178.0300  138.0550 C   0  0  0  0  0  2  0  0  0  0  0  0
  187.1520  178.4500  134.7840 O   0  0  0  0  0  0  0  0  0  0  0  0
  187.8640  177.9880  137.0100 C   0  0  0  0  0  0  0  0  0  0  0  0
  185.5010  178.0700  136.5420 C   0  0  2  0  0  3  0  0  0  0  0  0
  187.2030  177.6100  138.2810 C   0  0  1  0  0  3  0  0  0  0  0  0
  189.1130  177.9790  136.8130 O   0  0  0  0  0  0  0  0  0  0  0  0
  187.7420  178.2780  139.4980 C   0  0  0  0  0  3  0  0  0  0  0  0
  187.9270  177.5180  140.5780 C   0  0  0  0  0  3  0  0  0  0  0  0
  189.3780  177.0350  144.4480 C   0  0  0  0  0  0  0  0  0  0  0  0
  187.4700  177.3880  142.9930 C   0  0  0  0  0  2  0  0  0  0  0  0
  191.8020  175.1780  144.1890 C   0  0  0  0  0  3  0  0  0  0  0  0
  191.7690  175.4470  145.4940 C   0  0  0  0  0  3  0  0  0  0  0  0
  188.1210  177.3340  144.3010 N   0  0  0  0  0  0  0  0  0  0  0  0
  189.8650  177.7250  142.0450 C   0  0  0  0  0  2  0  0  0  0  0  0
  188.3570  178.0410  141.9140 C   0  0  1  0  0  0  0  0  0  0  0  0
  191.2470  176.7340  146.0490 C   0  0  1  0  0  3  0  0  0  0  0  0
  188.2000  179.4230  141.9650 O   0  0  0  0  0  1  0  0  0  0  0  0
  190.2160  176.8830  143.2350 C   0  0  0  0  0  0  0  0  0  0  0  0
  191.2670  176.0590  143.1300 C   0  0  0  0  0  3  0  0  0  0  0  0
  189.8700  176.8840  145.7480 O   0  0  0  0  0  0  0  0  0  0  0  0
  191.4600  176.7760  147.5600 C   0  0  0  0  0  2  0  0  0  0  0  0
  192.6190  176.0920  147.9080 F   0  0  0  0  0  0  0  0  0  0  0  0
  1 40  1  6  0  0  0
  1 22  1  0  0  0  0
  1  5  1  0  0  0  0
  2  6  1  0  0  0  0
  3  2  1  6  0  0  0
  3  1  1  0  0  0  0
  3  5  1  0  0  0  0
  6  4  1  0  0  0  0
  6  7  1  0  0  0  0
  7  5  1  0  0  0  0
  7 32  1  0  0  0  0
  8 13  1  0  0  0  0
  9 12  1  0  0  0  0
 11 10  1  0  0  0  0
 11 16  1  0  0  0  0
 12 10  2  0  0  0  0
 13 14  1  0  0  0  0
 13  9  1  0  0  0  0
 13  6  1  0  0  0  0
 14  9  2  0  0  0  0
 14 15  1  0  0  0  0
 15 11  2  0  0  0  0
 16 18  1  0  0  0  0
 17 16  2  0  0  0  0
 19 22  1  0  0  0  0
 19 20  2  0  0  0  0
 21 19  1  0  0  0  0
 23 21  1  0  0  0  0
 23 24  1  0  0  0  0
 25 24  1  0  0  0  0
 25 26  1  0  0  0  0
 26 27  1  0  0  0  0
 28 26  1  0  0  0  0
 30 28  1  0  0  0  0
 30 29  1  0  0  0  0
 31 30  1  0  0  0  0
 32 34  1  0  0  0  0
 33 35  1  0  0  0  0
 34 33  1  0  0  0  0
 34 36  1  0  0  0  0
 35 39  1  0  0  0  0
 36 38  1  0  0  0  0
 37 34  1  0  0  0  0
 37 36  1  0  0  0  0
 38 39  2  0  0  0  0
 40 45  1  0  0  0  0
 41 45  1  0  0  0  0
 41 44  1  0  0  0  0
 42 46  1  0  0  0  0
 43 41  2  0  0  0  0
 44 46  1  0  0  0  0
 45 42  1  0  0  0  0
 46 48  1  0  0  0  0
 47 44  2  0  0  0  0
 48 49  2  0  0  0  0
 49 56  1  0  0  0  0
 50 61  1  0  0  0  0
 51 54  1  0  0  0  0
 52 53  2  0  0  0  0
 53 57  1  0  0  0  0
 54 50  2  0  0  0  0
 55 59  1  0  0  0  0
 56 58  1  0  0  0  0
 56 55  1  0  0  0  0
 56 51  1  0  0  0  0
 57 62  1  0  0  0  0
 59 50  1  0  0  0  0
 60 59  2  0  0  0  0
 60 52  1  0  0  0  0
 61 57  1  0  0  0  0
 62 63  1  0  0  0  0
M  END
>  <MODEL>
6

>  <REMARK>
 VINA RESULT:      -5.9      2.965      5.357
  Name = 
  16 active torsions:
  status: ('A' for Active; 'I' for Inactive)
    1  A    between atoms: C_4  and  C_23
    2  A    between atoms: C_4  and  N_53
    3  A    between atoms: C_9  and  C_39
    4  A    between atoms: C_10  and  O_42
    5  A    between atoms: O_12  and  C_22
    6  A    between atoms: O_12  and  C_27
    7  A    between atoms: C_15  and  C_22
    8  A    between atoms: C_15  and  N_40
    9  A    between atoms: C_20  and  C_47
   10  A    between atoms: C_23  and  C_50
   11  A    between atoms: C_25  and  C_52
   12  A    between atoms: C_26  and  C_45
   13  A    between atoms: C_27  and  C_62
   14  A    between atoms: C_38  and  C_62
   15  A    between atoms: O_42  and  C_46
   16  A    between atoms: C_44  and  C_51
                            x       y       z     vdW  Elec       q    Type
                         _______ _______ _______ _____ _____    ______ ____

>  <TORSDO>
F 16

$$$$
=
 OpenBabel11062418053D

 63 71  0  0  1  0  0  0  0  0999 V2000
  184.9750  177.7230  137.4370 C   0  0  1  0  0  0  0  0  0  0  0  0
  183.1640  178.5990  135.9480 C   0  0  0  0  0  2  0  0  0  0  0  0
  184.4530  177.8350  136.0700 C   0  0  2  0  0  3  0  0  0  0  0  0
  181.3220  177.1790  135.1680 C   0  0  0  0  0  1  0  0  0  0  0  0
  184.2200  176.5910  136.8470 N   0  0  2  0  0  0  0  0  0  0  0  0
  182.0470  177.6900  136.4170 C   0  0  1  0  0  0  0  0  0  0  0  0
  182.7850  176.5520  137.1690 C   0  0  1  0  0  3  0  0  0  0  0  0
  180.1700  177.7280  138.1420 O   0  0  0  0  0  1  0  0  0  0  0  0
  181.4400  179.6540  137.9330 C   0  0  0  0  0  0  0  0  0  0  0  0
  181.3460  181.9250  138.0520 C   0  0  0  0  0  3  0  0  0  0  0  0
  180.3740  181.9600  136.9560 C   0  0  0  0  0  0  0  0  0  0  0  0
  181.9230  180.7370  138.5990 C   0  0  0  0  0  3  0  0  0  0  0  0
  181.0500  178.4660  137.3490 C   0  0  1  0  0  0  0  0  0  0  0  0
  180.4540  179.6250  136.8310 C   0  0  0  0  0  0  0  0  0  0  0  0
  179.8760  180.7750  136.3330 C   0  0  0  0  0  3  0  0  0  0  0  0
  179.8930  183.2730  136.4720 C   0  0  0  0  0  0  0  0  0  0  0  0
  179.1180  183.3470  135.4830 O   0  0  0  0  0  0  0  0  0  0  0  0
  180.3140  184.4810  137.1110 N   0  0  0  0  0  1  0  0  0  0  0  0
  186.9650  176.2990  136.9940 C   0  0  0  0  0  0  0  0  0  0  0  0
  187.6590  175.6210  137.8030 O   0  0  0  0  0  0  0  0  0  0  0  0
  186.6380  175.7800  135.7060 N   0  0  0  0  0  2  0  0  0  0  0  0
  186.4180  177.5460  137.4110 N   0  0  0  0  0  2  0  0  0  0  0  0
  186.3810  174.3560  135.5230 C   0  0  0  0  0  2  0  0  0  0  0  0
  187.5670  173.7140  134.8300 C   0  0  0  0  0  2  0  0  0  0  0  0
  188.5550  173.4140  135.7740 O   0  0  0  0  0  0  0  0  0  0  0  0
  189.7350  173.9140  135.2190 C   0  0  2  0  0  3  0  0  0  0  0  0
  190.4990  172.8580  134.7190 O   0  0  0  0  0  1  0  0  0  0  0  0
  190.5450  174.6700  136.2700 C   0  0  0  0  0  2  0  0  0  0  0  0
  192.7830  175.3440  135.3650 C   0  0  0  0  0  1  0  0  0  0  0  0
  192.0390  174.3620  136.2550 C   0  0  1  0  0  3  0  0  0  0  0  0
  192.5540  174.3780  137.5440 O   0  0  0  0  0  1  0  0  0  0  0  0
  182.2970  175.2650  136.8430 O   0  0  0  0  0  0  0  0  0  0  0  0
  181.5230  175.2350  139.2870 C   0  0  0  0  0  2  0  0  0  0  0  0
  181.3720  174.8110  137.8060 C   0  0  1  0  0  0  0  0  0  0  0  0
  180.5670  174.4810  140.2180 C   0  0  0  0  0  2  0  0  0  0  0  0
  180.0120  174.3550  137.2790 C   0  0  1  0  0  3  0  0  0  0  0  0
  181.0990  173.3380  137.5950 C   0  0  0  0  0  2  0  0  0  0  0  0
  178.9340  174.3780  138.3420 C   0  0  0  0  0  3  0  0  0  0  0  0
  179.1740  174.4620  139.6640 C   0  0  0  0  0  3  0  0  0  0  0  0
  184.3660  178.5240  138.6240 C   0  0  0  0  0  2  0  0  0  0  0  0
  184.0870  178.7390  141.1370 C   0  0  0  0  0  0  0  0  0  0  0  0
  185.9930  177.5830  140.3290 C   0  0  0  0  0  2  0  0  0  0  0  0
  182.9010  179.0650  141.3860 O   0  0  0  0  0  0  0  0  0  0  0  0
  185.2200  179.1540  141.9250 C   0  0  0  0  0  0  0  0  0  0  0  0
  184.5230  177.8730  140.0060 C   0  0  2  0  0  3  0  0  0  0  0  0
  186.4750  178.6770  141.3000 C   0  0  1  0  0  3  0  0  0  0  0  0
  185.1570  179.9390  142.9140 O   0  0  0  0  0  0  0  0  0  0  0  0
  187.4780  178.1120  142.2450 C   0  0  0  0  0  3  0  0  0  0  0  0
  188.6510  177.7360  141.7350 C   0  0  0  0  0  3  0  0  0  0  0  0
  191.0980  177.3060  145.0740 C   0  0  0  0  0  0  0  0  0  0  0  0
  190.8510  178.0750  142.7870 C   0  0  0  0  0  2  0  0  0  0  0  0
  189.2300  177.5240  147.4930 C   0  0  0  0  0  3  0  0  0  0  0  0
  190.4190  177.3060  148.0530 C   0  0  0  0  0  3  0  0  0  0  0  0
  191.6360  177.7500  143.9760 N   0  0  0  0  0  0  0  0  0  0  0  0
  189.0580  176.4840  143.7890 C   0  0  0  0  0  2  0  0  0  0  0  0
  189.7310  177.0510  142.5160 C   0  0  1  0  0  0  0  0  0  0  0  0
  191.5000  176.5140  147.3890 C   0  0  1  0  0  3  0  0  0  0  0  0
  190.2490  175.9830  141.7890 O   0  0  0  0  0  1  0  0  0  0  0  0
  189.6510  176.9830  145.0720 C   0  0  0  0  0  0  0  0  0  0  0  0
  188.8420  177.0930  146.1340 C   0  0  0  0  0  3  0  0  0  0  0  0
  191.9200  177.1490  146.1930 O   0  0  0  0  0  0  0  0  0  0  0  0
  192.6840  176.3480  148.3380 C   0  0  0  0  0  2  0  0  0  0  0  0
  192.7550  177.4200  149.2200 F   0  0  0  0  0  0  0  0  0  0  0  0
  1 40  1  1  0  0  0
  2  6  1  0  0  0  0
  3  2  1  1  0  0  0
  3  5  1  0  0  0  0
  3  1  1  0  0  0  0
  4  6  1  0  0  0  0
  5  7  1  0  0  0  0
  5  1  1  0  0  0  0
  6  7  1  0  0  0  0
  6 13  1  0  0  0  0
  9 12  1  0  0  0  0
 10 12  2  0  0  0  0
 11 10  1  0  0  0  0
 13  9  1  0  0  0  0
 13  8  1  0  0  0  0
 14 13  1  0  0  0  0
 14  9  2  0  0  0  0
 15 14  1  0  0  0  0
 15 11  2  0  0  0  0
 16 11  1  0  0  0  0
 16 18  1  0  0  0  0
 17 16  2  0  0  0  0
 19 22  1  0  0  0  0
 19 20  2  0  0  0  0
 21 19  1  0  0  0  0
 22  1  1  0  0  0  0
 23 21  1  0  0  0  0
 24 23  1  0  0  0  0
 24 25  1  0  0  0  0
 26 25  1  0  0  0  0
 26 28  1  0  0  0  0
 27 26  1  0  0  0  0
 29 30  1  0  0  0  0
 30 28  1  0  0  0  0
 30 31  1  0  0  0  0
 32  7  1  0  0  0  0
 32 34  1  0  0  0  0
 33 35  1  0  0  0  0
 34 33  1  0  0  0  0
 36 37  1  0  0  0  0
 36 34  1  0  0  0  0
 36 38  1  0  0  0  0
 37 34  1  0  0  0  0
 38 39  2  0  0  0  0
 39 35  1  0  0  0  0
 40 45  1  0  0  0  0
 41 43  2  0  0  0  0
 41 44  1  0  0  0  0
 42 46  1  0  0  0  0
 44 47  2  0  0  0  0
 45 42  1  0  0  0  0
 45 41  1  0  0  0  0
 46 44  1  0  0  0  0
 46 48  1  0  0  0  0
 49 48  2  0  0  0  0
 49 56  1  0  0  0  0
 50 61  1  0  0  0  0
 51 54  1  0  0  0  0
 52 53  2  0  0  0  0
 54 50  2  0  0  0  0
 55 59  1  0  0  0  0
 56 51  1  0  0  0  0
 56 55  1  0  0  0  0
 57 53  1  0  0  0  0
 57 62  1  0  0  0  0
 58 56  1  0  0  0  0
 59 50  1  0  0  0  0
 59 60  2  0  0  0  0
 60 52  1  0  0  0  0
 61 57  1  0  0  0  0
 62 63  1  0  0  0  0
M  END
>  <MODEL>
7

>  <REMARK>
 VINA RESULT:      -5.8      1.680      2.448
  Name = 
  16 active torsions:
  status: ('A' for Active; 'I' for Inactive)
    1  A    between atoms: C_4  and  C_23
    2  A    between atoms: C_4  and  N_53
    3  A    between atoms: C_9  and  C_39
    4  A    between atoms: C_10  and  O_42
    5  A    between atoms: O_12  and  C_22
    6  A    between atoms: O_12  and  C_27
    7  A    between atoms: C_15  and  C_22
    8  A    between atoms: C_15  and  N_40
    9  A    between atoms: C_20  and  C_47
   10  A    between atoms: C_23  and  C_50
   11  A    between atoms: C_25  and  C_52
   12  A    between atoms: C_26  and  C_45
   13  A    between atoms: C_27  and  C_62
   14  A    between atoms: C_38  and  C_62
   15  A    between atoms: O_42  and  C_46
   16  A    between atoms: C_44  and  C_51
                            x       y       z     vdW  Elec       q    Type
                         _______ _______ _______ _____ _____    ______ ____

>  <TORSDO>
F 16

$$$$
=
 OpenBabel11062418053D

 63 71  0  0  1  0  0  0  0  0999 V2000
  185.4040  176.3370  135.4100 C   0  0  1  0  0  0  0  0  0  0  0  0
  183.4470  177.8800  135.6450 C   0  0  0  0  0  2  0  0  0  0  0  0
  184.4130  177.1800  134.7300 C   0  0  2  0  0  3  0  0  0  0  0  0
  181.1410  177.1160  135.3080 C   0  0  0  0  0  1  0  0  0  0  0  0
  184.1980  175.7130  134.8120 N   0  0  2  0  0  0  0  0  0  0  0  0
  182.4260  176.8590  136.1000 C   0  0  1  0  0  0  0  0  0  0  0  0
  183.0730  175.4970  135.7350 C   0  0  1  0  0  3  0  0  0  0  0  0
  182.1840  175.8340  138.4220 O   0  0  0  0  0  1  0  0  0  0  0  0
  182.5780  178.1150  138.3200 C   0  0  0  0  0  0  0  0  0  0  0  0
  182.1240  180.0950  139.3470 C   0  0  0  0  0  3  0  0  0  0  0  0
  180.6920  179.9190  139.0920 C   0  0  0  0  0  0  0  0  0  0  0  0
  183.1440  179.1680  138.9650 C   0  0  0  0  0  3  0  0  0  0  0  0
  182.1540  176.9900  137.6410 C   0  0  1  0  0  0  0  0  0  0  0  0
  181.1440  177.8770  138.0430 C   0  0  0  0  0  0  0  0  0  0  0  0
  180.1630  178.7600  138.4460 C   0  0  0  0  0  3  0  0  0  0  0  0
  179.7570  180.9840  139.5150 C   0  0  0  0  0  0  0  0  0  0  0  0
  179.4440  181.1190  140.7260 O   0  0  0  0  0  0  0  0  0  0  0  0
  179.1810  181.8700  138.5500 N   0  0  0  0  0  1  0  0  0  0  0  0
  187.6190  175.2920  134.9790 C   0  0  0  0  0  0  0  0  0  0  0  0
  188.7740  175.7230  135.2570 O   0  0  0  0  0  0  0  0  0  0  0  0
  187.2990  173.9120  135.1500 N   0  0  0  0  0  2  0  0  0  0  0  0
  186.6000  176.2100  134.5940 N   0  0  0  0  0  2  0  0  0  0  0  0
  187.8740  173.1480  136.2510 C   0  0  0  0  0  2  0  0  0  0  0  0
  189.1830  172.5280  135.8060 C   0  0  0  0  0  2  0  0  0  0  0  0
  190.2410  173.3850  136.1270 O   0  0  0  0  0  0  0  0  0  0  0  0
  191.3050  172.9430  135.3370 C   0  0  2  0  0  3  0  0  0  0  0  0
  191.1200  171.5970  135.0170 O   0  0  0  0  0  1  0  0  0  0  0  0
  192.6300  173.1080  136.0790 C   0  0  0  0  0  2  0  0  0  0  0  0
  192.4840  175.6060  135.9480 C   0  0  0  0  0  1  0  0  0  0  0  0
  192.7600  174.4170  136.8520 C   0  0  1  0  0  3  0  0  0  0  0  0
  191.9090  174.4230  137.9480 O   0  0  0  0  0  1  0  0  0  0  0  0
  182.1680  174.6000  135.1220 O   0  0  0  0  0  0  0  0  0  0  0  0
  183.7790  172.6260  134.8330 C   0  0  0  0  0  2  0  0  0  0  0  0
  182.4960  173.2610  135.4210 C   0  0  1  0  0  0  0  0  0  0  0  0
  183.8600  171.1160  135.0850 C   0  0  0  0  0  2  0  0  0  0  0  0
  181.8670  172.6750  136.6850 C   0  0  1  0  0  3  0  0  0  0  0  0
  181.2580  172.3980  135.3170 C   0  0  0  0  0  2  0  0  0  0  0  0
  182.6270  171.4780  137.2170 C   0  0  0  0  0  3  0  0  0  0  0  0
  183.5440  170.7890  136.5140 C   0  0  0  0  0  3  0  0  0  0  0  0
  185.5810  176.3510  136.9560 C   0  0  0  0  0  2  0  0  0  0  0  0
  187.1110  178.3720  136.8580 C   0  0  0  0  0  0  0  0  0  0  0  0
  186.4930  177.5530  138.9950 C   0  0  0  0  0  2  0  0  0  0  0  0
  187.0620  178.8620  135.7040 O   0  0  0  0  0  0  0  0  0  0  0  0
  188.2850  178.3910  137.6940 C   0  0  0  0  0  0  0  0  0  0  0  0
  185.9790  177.7050  137.5600 C   0  0  2  0  0  3  0  0  0  0  0  0
  188.0290  177.6440  138.9470 C   0  0  1  0  0  3  0  0  0  0  0  0
  189.4110  178.8440  137.3370 O   0  0  0  0  0  0  0  0  0  0  0  0
  188.5400  178.2940  140.1860 C   0  0  0  0  0  3  0  0  0  0  0  0
  188.9630  177.4920  141.1630 C   0  0  0  0  0  3  0  0  0  0  0  0
  190.1470  176.8630  145.1020 C   0  0  0  0  0  0  0  0  0  0  0  0
  188.3820  177.4710  143.5550 C   0  0  0  0  0  2  0  0  0  0  0  0
  192.2750  174.6620  144.9780 C   0  0  0  0  0  3  0  0  0  0  0  0
  192.2240  174.9540  146.2770 C   0  0  0  0  0  3  0  0  0  0  0  0
  188.9570  177.3430  144.8930 N   0  0  0  0  0  0  0  0  0  0  0  0
  190.8410  177.4320  142.7190 C   0  0  0  0  0  2  0  0  0  0  0  0
  189.4050  177.9670  142.5140 C   0  0  1  0  0  0  0  0  0  0  0  0
  191.8760  176.3130  146.7940 C   0  0  1  0  0  3  0  0  0  0  0  0
  189.4540  179.3580  142.5430 O   0  0  0  0  0  1  0  0  0  0  0  0
  191.0080  176.5670  143.9320 C   0  0  0  0  0  0  0  0  0  0  0  0
  191.9280  175.5940  143.8860 C   0  0  0  0  0  3  0  0  0  0  0  0
  190.5520  176.6620  146.4260 O   0  0  0  0  0  0  0  0  0  0  0  0
  192.0230  176.3490  148.3130 C   0  0  0  0  0  2  0  0  0  0  0  0
  193.1980  175.7160  148.7020 F   0  0  0  0  0  0  0  0  0  0  0  0
  1 40  1  1  0  0  0
  2  6  1  0  0  0  0
  3  5  1  0  0  0  0
  3  1  1  0  0  0  0
  3  2  1  1  0  0  0
  4  6  1  0  0  0  0
  5  1  1  0  0  0  0
  5  7  1  0  0  0  0
  6 13  1  0  0  0  0
  7  6  1  0  0  0  0
  9 12  1  0  0  0  0
 11 10  1  0  0  0  0
 11 16  1  0  0  0  0
 12 10  2  0  0  0  0
 13 14  1  0  0  0  0
 13  9  1  0  0  0  0
 13  8  1  0  0  0  0
 14  9  2  0  0  0  0
 14 15  1  0  0  0  0
 15 11  2  0  0  0  0
 16 17  2  0  0  0  0
 18 16  1  0  0  0  0
 19 21  1  0  0  0  0
 19 20  2  0  0  0  0
 21 23  1  0  0  0  0
 22 19  1  0  0  0  0
 22  1  1  0  0  0  0
 24 25  1  0  0  0  0
 24 23  1  0  0  0  0
 26 28  1  0  0  0  0
 26 25  1  0  0  0  0
 27 26  1  0  0  0  0
 28 30  1  0  0  0  0
 29 30  1  0  0  0  0
 30 31  1  0  0  0  0
 32 34  1  0  0  0  0
 32  7  1  0  0  0  0
 33 35  1  0  0  0  0
 33 34  1  0  0  0  0
 34 36  1  0  0  0  0
 35 39  1  0  0  0  0
 36 38  1  0  0  0  0
 37 34  1  0  0  0  0
 37 36  1  0  0  0  0
 39 38  2  0  0  0  0
 40 45  1  0  0  0  0
 41 45  1  0  0  0  0
 41 44  1  0  0  0  0
 43 41  2  0  0  0  0
 44 46  1  0  0  0  0
 45 42  1  0  0  0  0
 46 42  1  0  0  0  0
 46 48  1  0  0  0  0
 47 44  2  0  0  0  0
 48 49  2  0  0  0  0
 49 56  1  0  0  0  0
 50 61  1  0  0  0  0
 51 54  1  0  0  0  0
 52 53  2  0  0  0  0
 53 57  1  0  0  0  0
 54 50  2  0  0  0  0
 55 59  1  0  0  0  0
 56 58  1  0  0  0  0
 56 55  1  0  0  0  0
 56 51  1  0  0  0  0
 57 62  1  0  0  0  0
 59 50  1  0  0  0  0
 60 59  2  0  0  0  0
 60 52  1  0  0  0  0
 61 57  1  0  0  0  0
 62 63  1  0  0  0  0
M  END
>  <MODEL>
8

>  <REMARK>
 VINA RESULT:      -5.7      2.682      4.463
  Name = 
  16 active torsions:
  status: ('A' for Active; 'I' for Inactive)
    1  A    between atoms: C_4  and  C_23
    2  A    between atoms: C_4  and  N_53
    3  A    between atoms: C_9  and  C_39
    4  A    between atoms: C_10  and  O_42
    5  A    between atoms: O_12  and  C_22
    6  A    between atoms: O_12  and  C_27
    7  A    between atoms: C_15  and  C_22
    8  A    between atoms: C_15  and  N_40
    9  A    between atoms: C_20  and  C_47
   10  A    between atoms: C_23  and  C_50
   11  A    between atoms: C_25  and  C_52
   12  A    between atoms: C_26  and  C_45
   13  A    between atoms: C_27  and  C_62
   14  A    between atoms: C_38  and  C_62
   15  A    between atoms: O_42  and  C_46
   16  A    between atoms: C_44  and  C_51
                            x       y       z     vdW  Elec       q    Type
                         _______ _______ _______ _____ _____    ______ ____

>  <TORSDO>
F 16

$$$$
=
 OpenBabel11062418053D

 63 71  0  0  1  0  0  0  0  0999 V2000
  184.3470  178.8900  139.5240 C   0  0  1  0  0  0  0  0  0  0  0  0
  183.4740  176.5480  139.6730 C   0  0  0  0  0  2  0  0  0  0  0  0
  183.7920  177.8360  140.3820 C   0  0  2  0  0  3  0  0  0  0  0  0
  181.0710  176.0560  139.6930 C   0  0  0  0  0  1  0  0  0  0  0  0
  182.9050  178.9130  139.8730 N   0  0  2  0  0  0  0  0  0  0  0  0
  182.1840  176.7550  138.9070 C   0  0  1  0  0  0  0  0  0  0  0  0
  182.0050  178.2950  138.8870 C   0  0  1  0  0  3  0  0  0  0  0  0
  182.5050  177.0250  136.3920 O   0  0  0  0  0  1  0  0  0  0  0  0
  182.8720  174.9140  137.2740 C   0  0  0  0  0  0  0  0  0  0  0  0
  182.6880  172.6900  136.8260 C   0  0  0  0  0  3  0  0  0  0  0  0
  181.2350  172.8220  136.6810 C   0  0  0  0  0  0  0  0  0  0  0  0
  183.5820  173.7640  137.1290 C   0  0  0  0  0  3  0  0  0  0  0  0
  182.2920  176.1530  137.4610 C   0  0  1  0  0  0  0  0  0  0  0  0
  181.4130  175.1120  137.1300 C   0  0  0  0  0  0  0  0  0  0  0  0
  180.5620  174.0760  136.8030 C   0  0  0  0  0  3  0  0  0  0  0  0
  180.4340  171.6100  136.4010 C   0  0  0  0  0  0  0  0  0  0  0  0
  180.9850  170.4810  136.3280 O   0  0  0  0  0  0  0  0  0  0  0  0
  179.0220  171.7050  136.1950 N   0  0  0  0  0  1  0  0  0  0  0  0
  185.6480  179.3890  141.5840 C   0  0  0  0  0  0  0  0  0  0  0  0
  185.2920  180.0150  142.6220 O   0  0  0  0  0  0  0  0  0  0  0  0
  186.4470  178.2110  141.6840 N   0  0  0  0  0  2  0  0  0  0  0  0
  185.1590  179.8030  140.3120 N   0  0  0  0  0  2  0  0  0  0  0  0
  186.2690  177.2860  142.7970 C   0  0  0  0  0  2  0  0  0  0  0  0
  187.6240  176.8180  143.2880 C   0  0  0  0  0  2  0  0  0  0  0  0
  188.1650  175.9070  142.3740 O   0  0  0  0  0  0  0  0  0  0  0  0
  189.3990  176.4550  142.0180 C   0  0  2  0  0  3  0  0  0  0  0  0
  189.5600  177.6900  142.6480 O   0  0  0  0  0  1  0  0  0  0  0  0
  189.4850  176.6470  140.5050 C   0  0  0  0  0  2  0  0  0  0  0  0
  190.9360  177.7610  138.7920 C   0  0  0  0  0  1  0  0  0  0  0  0
  190.1410  177.9550  140.0720 C   0  0  1  0  0  3  0  0  0  0  0  0
  189.1860  178.9500  139.9130 O   0  0  0  0  0  1  0  0  0  0  0  0
  180.6840  178.7040  139.1830 O   0  0  0  0  0  0  0  0  0  0  0  0
  181.3070  180.8820  137.9820 C   0  0  0  0  0  2  0  0  0  0  0  0
  180.5500  180.1050  139.0850 C   0  0  1  0  0  0  0  0  0  0  0  0
  181.2160  182.4010  138.1610 C   0  0  0  0  0  2  0  0  0  0  0  0
  179.3030  180.7130  139.7260 C   0  0  1  0  0  3  0  0  0  0  0  0
  180.6340  180.7210  140.4640 C   0  0  0  0  0  2  0  0  0  0  0  0
  178.9610  182.0770  139.1630 C   0  0  0  0  0  3  0  0  0  0  0  0
  179.8060  182.8300  138.4360 C   0  0  0  0  0  3  0  0  0  0  0  0
  184.7830  178.6170  138.0550 C   0  0  0  0  0  2  0  0  0  0  0  0
  186.9600  178.7980  136.7660 C   0  0  0  0  0  0  0  0  0  0  0  0
  186.2780  176.6470  137.4930 C   0  0  0  0  0  2  0  0  0  0  0  0
  187.3270  179.9990  136.7570 O   0  0  0  0  0  0  0  0  0  0  0  0
  187.2040  177.8720  135.6900 C   0  0  0  0  0  0  0  0  0  0  0  0
  186.2270  178.1300  137.8780 C   0  0  2  0  0  3  0  0  0  0  0  0
  186.5550  176.5730  135.9800 C   0  0  1  0  0  3  0  0  0  0  0  0
  187.7580  178.1760  134.5940 O   0  0  0  0  0  0  0  0  0  0  0  0
  187.3790  175.3700  135.6720 C   0  0  0  0  0  3  0  0  0  0  0  0
  187.3490  174.3700  136.5530 C   0  0  0  0  0  3  0  0  0  0  0  0
  190.6180  172.2270  135.1270 C   0  0  0  0  0  0  0  0  0  0  0  0
  188.2450  172.7010  134.9810 C   0  0  0  0  0  2  0  0  0  0  0  0
  193.0320  174.0800  135.4830 C   0  0  0  0  0  3  0  0  0  0  0  0
  193.5760  172.9750  134.9740 C   0  0  0  0  0  3  0  0  0  0  0  0
  189.4420  171.9260  134.6620 N   0  0  0  0  0  0  0  0  0  0  0  0
  189.5700  173.5010  137.0670 C   0  0  0  0  0  2  0  0  0  0  0  0
  188.1950  173.1370  136.4580 C   0  0  1  0  0  0  0  0  0  0  0  0
  193.0180  171.6080  135.2100 C   0  0  1  0  0  3  0  0  0  0  0  0
  187.6420  172.1130  137.2220 O   0  0  0  0  0  1  0  0  0  0  0  0
  190.7260  173.3110  136.1310 C   0  0  0  0  0  0  0  0  0  0  0  0
  191.7830  174.1230  136.2700 C   0  0  0  0  0  3  0  0  0  0  0  0
  191.7170  171.5000  134.6580 O   0  0  0  0  0  0  0  0  0  0  0  0
  193.9360  170.5550  134.5950 C   0  0  0  0  0  2  0  0  0  0  0  0
  195.1480  170.5090  135.2750 F   0  0  0  0  0  0  0  0  0  0  0  0
  1 40  1  6  0  0  0
  1  5  1  0  0  0  0
  1 22  1  0  0  0  0
  1  3  1  0  0  0  0
  3  2  1  6  0  0  0
  5  3  1  0  0  0  0
  6  2  1  0  0  0  0
  6  4  1  0  0  0  0
  7  6  1  0  0  0  0
  7 32  1  0  0  0  0
  7  5  1  0  0  0  0
  8 13  1  0  0  0  0
  9 13  1  0  0  0  0
 10 12  1  0  0  0  0
 11 15  1  0  0  0  0
 11 10  2  0  0  0  0
 12  9  2  0  0  0  0
 13  6  1  0  0  0  0
 14  9  1  0  0  0  0
 14 13  1  0  0  0  0
 15 14  2  3  0  0  0
 16 11  1  0  0  0  0
 17 16  2  0  0  0  0
 18 16  1  0  0  0  0
 19 21  1  0  0  0  0
 19 20  2  0  0  0  0
 21 23  1  0  0  0  0
 22 19  1  0  0  0  0
 23 24  1  0  0  0  0
 25 24  1  0  0  0  0
 26 25  1  0  0  0  0
 26 27  1  0  0  0  0
 28 26  1  0  0  0  0
 29 30  1  0  0  0  0
 30 28  1  0  0  0  0
 31 30  1  0  0  0  0
 33 35  1  0  0  0  0
 33 34  1  0  0  0  0
 34 32  1  0  0  0  0
 34 36  1  0  0  0  0
 34 37  1  0  0  0  0
 35 39  1  0  0  0  0
 36 37  1  0  0  0  0
 38 36  1  0  0  0  0
 39 38  2  0  0  0  0
 41 45  1  0  0  0  0
 42 45  1  0  0  0  0
 43 41  2  0  0  0  0
 44 46  1  0  0  0  0
 44 41  1  0  0  0  0
 45 40  1  0  0  0  0
 46 42  1  0  0  0  0
 47 44  2  0  0  0  0
 48 46  1  0  0  0  0
 48 49  2  0  0  0  0
 50 59  1  0  0  0  0
 51 56  1  0  0  0  0
 52 60  1  0  0  0  0
 53 57  1  0  0  0  0
 53 52  2  0  0  0  0
 54 51  1  0  0  0  0
 54 50  2  0  0  0  0
 56 49  1  0  0  0  0
 56 55  1  0  0  0  0
 56 58  1  0  0  0  0
 59 60  2  0  0  0  0
 59 55  1  0  0  0  0
 61 50  1  0  0  0  0
 61 57  1  0  0  0  0
 62 57  1  0  0  0  0
 62 63  1  0  0  0  0
M  END
>  <MODEL>
9

>  <REMARK>
 VINA RESULT:      -5.5      3.341      8.181
  Name = 
  16 active torsions:
  status: ('A' for Active; 'I' for Inactive)
    1  A    between atoms: C_4  and  C_23
    2  A    between atoms: C_4  and  N_53
    3  A    between atoms: C_9  and  C_39
    4  A    between atoms: C_10  and  O_42
    5  A    between atoms: O_12  and  C_22
    6  A    between atoms: O_12  and  C_27
    7  A    between atoms: C_15  and  C_22
    8  A    between atoms: C_15  and  N_40
    9  A    between atoms: C_20  and  C_47
   10  A    between atoms: C_23  and  C_50
   11  A    between atoms: C_25  and  C_52
   12  A    between atoms: C_26  and  C_45
   13  A    between atoms: C_27  and  C_62
   14  A    between atoms: C_38  and  C_62
   15  A    between atoms: O_42  and  C_46
   16  A    between atoms: C_44  and  C_51
                            x       y       z     vdW  Elec       q    Type
                         _______ _______ _______ _____ _____    ______ ____

>  <TORSDO>
F 16

$$$$
