=
 OpenBabel11062416203D

 29 31  0  0  1  0  0  0  0  0999 V2000
  183.1560  177.8680  139.8130 C   0  0  0  0  0  0  0  0  0  0  0  0
  181.6280  176.0640  139.4570 C   0  0  0  0  0  3  0  0  0  0  0  0
  184.9040  179.4290  139.5440 N   0  0  0  0  0  2  0  0  0  0  0  0
  183.7590  179.0810  140.4070 C   0  0  2  0  0  3  0  0  0  0  0  0
  182.3470  175.6990  138.3540 N   0  0  0  0  0  0  0  0  0  0  0  0
  183.8580  177.4900  138.7140 C   0  0  0  0  0  0  0  0  0  0  0  0
  184.9870  178.4130  138.4780 C   0  0  2  0  0  3  0  0  0  0  0  0
  183.4550  176.3910  137.9590 C   0  0  0  0  0  3  0  0  0  0  0  0
  182.0160  177.1750  140.2210 C   0  0  0  0  0  3  0  0  0  0  0  0
  185.0250  178.3790  144.4660 C   0  0  0  0  0  0  0  0  0  0  0  0
  185.5260  178.4110  142.0890 C   0  0  0  0  0  3  0  0  0  0  0  0
  183.7200  178.8040  144.1850 C   0  0  0  0  0  3  0  0  0  0  0  0
  183.3180  179.0320  142.8660 C   0  0  0  0  0  3  0  0  0  0  0  0
  185.9260  178.1830  143.4100 C   0  0  0  0  0  3  0  0  0  0  0  0
  184.2180  178.8390  141.8130 C   0  0  0  0  0  0  0  0  0  0  0  0
  186.6340  177.4850  146.1300 O   0  0  0  0  0  0  0  0  0  0  0  0
  185.4410  178.1430  145.8570 C   0  0  0  0  0  0  0  0  0  0  0  0
  184.7210  178.5350  146.8150 O   0  0  0  0  0  1  0  0  0  0  0  0
  186.3080  177.6620  138.5850 C   0  0  0  0  0  2  0  0  0  0  0  0
  187.3420  178.5360  139.1180 N   0  0  0  0  0  2  0  0  0  0  0  0
  188.6300  177.9980  138.7040 C   0  0  1  0  0  3  0  0  0  0  0  0
  189.1950  178.8340  137.5650 C   0  0  0  0  0  1  0  0  0  0  0  0
  189.5890  177.8970  139.9010 C   0  0  2  0  0  3  0  0  0  0  0  0
  190.7720  177.0130  139.6400 C   0  0  0  0  0  0  0  0  0  0  0  0
  190.5950  175.8180  138.9560 O   0  0  0  0  0  0  0  0  0  0  0  0
  191.9190  177.3280  140.0560 O   0  0  0  0  0  1  0  0  0  0  0  0
  188.8660  177.4950  141.1810 C   0  0  0  0  0  2  0  0  0  0  0  0
  189.5050  177.1640  143.2640 C   0  0  0  0  0  1  0  0  0  0  0  0
  189.4380  178.1430  142.2750 O   0  0  0  0  0  0  0  0  0  0  0  0
  1  9  1  0  0  0  0
  1  4  1  0  0  0  0
  2  9  2  0  0  0  0
  3  4  1  0  0  0  0
  4 15  1  1  0  0  0
  5  2  1  0  0  0  0
  6  1  2  0  0  0  0
  7 19  1  1  0  0  0
  7  6  1  0  0  0  0
  7  3  1  0  0  0  0
  8  5  2  0  0  0  0
  8  6  1  0  0  0  0
 10 17  1  0  0  0  0
 11 14  1  0  0  0  0
 12 10  1  0  0  0  0
 13 12  2  0  0  0  0
 14 10  2  0  0  0  0
 15 11  2  0  0  0  0
 15 13  1  0  0  0  0
 17 16  2  0  0  0  0
 17 18  1  0  0  0  0
 19 20  1  0  0  0  0
 21 22  1  6  0  0  0
 21 20  1  0  0  0  0
 21 23  1  0  0  0  0
 23 27  1  1  0  0  0
 24 23  1  0  0  0  0
 24 26  1  0  0  0  0
 25 24  2  0  0  0  0
 27 29  1  0  0  0  0
 29 28  1  0  0  0  0
M  END
>  <MODEL>
1

>  <REMARK>
 VINA RESULT:      -7.2      0.000      0.000
  Name = 
  9 active torsions:
  status: ('A' for Active; 'I' for Inactive)
    1  A    between atoms: C_1  and  N_2
    2  A    between atoms: C_1  and  C_6
    3  A    between atoms: N_2  and  C_18
    4  A    between atoms: C_6  and  C_7
    5  A    between atoms: C_6  and  C_28
    6  A    between atoms: C_8  and  C_9
    7  A    between atoms: C_17  and  C_24
    8  A    between atoms: C_18  and  C_26
    9  A    between atoms: O_22  and  C_28
                            x       y       z     vdW  Elec       q    Type
                         _______ _______ _______ _____ _____    ______ ____

>  <TORSDO>
F 9

$$$$
=
 OpenBabel11062416203D

 29 31  0  0  1  0  0  0  0  0999 V2000
  189.7330  177.4190  144.1600 C   0  0  0  0  0  0  0  0  0  0  0  0
  191.2420  179.0360  145.0670 C   0  0  0  0  0  3  0  0  0  0  0  0
  188.7450  175.7820  142.7770 N   0  0  0  0  0  2  0  0  0  0  0  0
  188.5900  176.4850  144.0650 C   0  0  2  0  0  3  0  0  0  0  0  0
  192.0050  178.9270  143.9380 N   0  0  0  0  0  0  0  0  0  0  0  0
  190.5040  177.3240  143.0460 C   0  0  0  0  0  0  0  0  0  0  0  0
  189.9470  176.3230  142.1140 C   0  0  2  0  0  3  0  0  0  0  0  0
  191.6660  178.0820  142.9220 C   0  0  0  0  0  3  0  0  0  0  0  0
  190.0750  178.2710  145.2090 C   0  0  0  0  0  3  0  0  0  0  0  0
  184.8100  178.5520  144.1480 C   0  0  0  0  0  0  0  0  0  0  0  0
  186.6440  177.4880  145.3330 C   0  0  0  0  0  3  0  0  0  0  0  0
  185.4460  178.2700  142.9320 C   0  0  0  0  0  3  0  0  0  0  0  0
  186.6730  177.6010  142.9150 C   0  0  0  0  0  3  0  0  0  0  0  0
  185.4160  178.1570  145.3490 C   0  0  0  0  0  3  0  0  0  0  0  0
  187.2780  177.2090  144.1120 C   0  0  0  0  0  0  0  0  0  0  0  0
  182.3380  178.5560  144.3690 O   0  0  0  0  0  1  0  0  0  0  0  0
  183.5180  179.2580  144.1600 C   0  0  0  0  0  0  0  0  0  0  0  0
  183.4700  180.5040  143.9810 O   0  0  0  0  0  0  0  0  0  0  0  0
  189.5530  176.9910  140.8020 C   0  0  0  0  0  2  0  0  0  0  0  0
  190.0080  176.1920  139.6750 N   0  0  0  0  0  2  0  0  0  0  0  0
  190.4460  177.1110  138.6330 C   0  0  1  0  0  3  0  0  0  0  0  0
  191.7720  176.6390  138.0540 C   0  0  0  0  0  1  0  0  0  0  0  0
  189.3560  177.2800  137.5620 C   0  0  2  0  0  3  0  0  0  0  0  0
  188.5470  178.5310  137.7330 C   0  0  0  0  0  0  0  0  0  0  0  0
  187.2600  178.4490  138.2470 O   0  0  0  0  0  1  0  0  0  0  0  0
  189.0110  179.6520  137.3920 O   0  0  0  0  0  0  0  0  0  0  0  0
  188.4620  176.0500  137.4560 C   0  0  0  0  0  2  0  0  0  0  0  0
  189.1360  174.0620  136.7830 C   0  0  0  0  0  1  0  0  0  0  0  0
  188.7850  175.3240  136.3090 O   0  0  0  0  0  0  0  0  0  0  0  0
  1  9  1  0  0  0  0
  2  9  2  0  0  0  0
  3  4  1  0  0  0  0
  4 15  1  6  0  0  0
  4  1  1  0  0  0  0
  5  2  1  0  0  0  0
  6  1  2  0  0  0  0
  7 19  1  6  0  0  0
  7  3  1  0  0  0  0
  7  6  1  0  0  0  0
  8  6  1  0  0  0  0
  8  5  2  0  0  0  0
 10 17  1  0  0  0  0
 10 14  1  0  0  0  0
 11 14  2  0  0  0  0
 12 10  2  0  0  0  0
 13 12  1  0  0  0  0
 13 15  2  0  0  0  0
 15 11  1  0  0  0  0
 17 16  1  0  0  0  0
 18 17  2  0  0  0  0
 20 19  1  0  0  0  0
 21 22  1  6  0  0  0
 21 20  1  0  0  0  0
 23 27  1  1  0  0  0
 23 24  1  0  0  0  0
 23 21  1  0  0  0  0
 24 25  1  0  0  0  0
 26 24  2  0  0  0  0
 29 28  1  0  0  0  0
 29 27  1  0  0  0  0
M  END
>  <MODEL>
2

>  <REMARK>
 VINA RESULT:      -6.8      3.488      5.907
  Name = 
  9 active torsions:
  status: ('A' for Active; 'I' for Inactive)
    1  A    between atoms: C_1  and  N_2
    2  A    between atoms: C_1  and  C_6
    3  A    between atoms: N_2  and  C_18
    4  A    between atoms: C_6  and  C_7
    5  A    between atoms: C_6  and  C_28
    6  A    between atoms: C_8  and  C_9
    7  A    between atoms: C_17  and  C_24
    8  A    between atoms: C_18  and  C_26
    9  A    between atoms: O_22  and  C_28
                            x       y       z     vdW  Elec       q    Type
                         _______ _______ _______ _____ _____    ______ ____

>  <TORSDO>
F 9

$$$$
=
 OpenBabel11062416203D

 29 31  0  0  1  0  0  0  0  0999 V2000
  183.4300  177.7070  139.7580 C   0  0  0  0  0  0  0  0  0  0  0  0
  182.3250  175.6540  139.2330 C   0  0  0  0  0  3  0  0  0  0  0  0
  184.8360  179.6000  139.6650 N   0  0  0  0  0  2  0  0  0  0  0  0
  183.7400  178.9840  140.4370 C   0  0  2  0  0  3  0  0  0  0  0  0
  183.1640  175.4990  138.1650 N   0  0  0  0  0  0  0  0  0  0  0  0
  184.2550  177.5360  138.6930 C   0  0  0  0  0  0  0  0  0  0  0  0
  185.1830  178.6780  138.5670 C   0  0  2  0  0  3  0  0  0  0  0  0
  184.1270  176.4190  137.8700 C   0  0  0  0  0  3  0  0  0  0  0  0
  182.4360  176.7790  140.0630 C   0  0  0  0  0  3  0  0  0  0  0  0
  184.9970  178.3680  144.5120 C   0  0  0  0  0  0  0  0  0  0  0  0
  183.2530  178.9330  142.9200 C   0  0  0  0  0  3  0  0  0  0  0  0
  185.8980  178.2060  143.4520 C   0  0  0  0  0  3  0  0  0  0  0  0
  185.4810  178.4050  142.1330 C   0  0  0  0  0  3  0  0  0  0  0  0
  183.6720  178.7330  144.2380 C   0  0  0  0  0  3  0  0  0  0  0  0
  184.1590  178.7670  141.8600 C   0  0  0  0  0  0  0  0  0  0  0  0
  186.6960  177.6110  146.1560 O   0  0  0  0  0  0  0  0  0  0  0  0
  185.4430  178.1550  145.8990 C   0  0  0  0  0  0  0  0  0  0  0  0
  184.6950  178.4630  146.8650 O   0  0  0  0  0  1  0  0  0  0  0  0
  186.6220  178.2040  138.7300 C   0  0  0  0  0  2  0  0  0  0  0  0
  187.4200  178.6180  137.5870 N   0  0  0  0  0  2  0  0  0  0  0  0
  188.8080  178.2840  137.8750 C   0  0  1  0  0  3  0  0  0  0  0  0
  189.0040  178.1510  139.3790 C   0  0  0  0  0  1  0  0  0  0  0  0
  189.2370  177.0250  137.1060 C   0  0  2  0  0  3  0  0  0  0  0  0
  190.4810  176.3900  137.6530 C   0  0  0  0  0  0  0  0  0  0  0  0
  190.3950  175.1660  138.3010 O   0  0  0  0  0  1  0  0  0  0  0  0
  191.5970  176.9660  137.5560 O   0  0  0  0  0  0  0  0  0  0  0  0
  189.3580  177.2830  135.6080 C   0  0  0  0  0  2  0  0  0  0  0  0
  187.7510  175.8350  135.1840 C   0  0  0  0  0  1  0  0  0  0  0  0
  189.0860  176.1130  134.8990 O   0  0  0  0  0  0  0  0  0  0  0  0
  1  9  1  0  0  0  0
  1  4  1  0  0  0  0
  2  9  2  0  0  0  0
  3  4  1  0  0  0  0
  4 15  1  1  0  0  0
  5  2  1  0  0  0  0
  6  1  2  0  0  0  0
  7  6  1  0  0  0  0
  7 19  1  1  0  0  0
  7  3  1  0  0  0  0
  8  5  2  0  0  0  0
  8  6  1  0  0  0  0
 10 17  1  0  0  0  0
 11 14  2  0  0  0  0
 12 10  2  0  0  0  0
 13 12  1  0  0  0  0
 14 10  1  0  0  0  0
 15 13  2  0  0  0  0
 15 11  1  0  0  0  0
 17 16  2  0  0  0  0
 17 18  1  0  0  0  0
 20 21  1  0  0  0  0
 20 19  1  0  0  0  0
 21 22  1  1  0  0  0
 23 27  1  6  0  0  0
 23 24  1  0  0  0  0
 23 21  1  0  0  0  0
 24 25  1  0  0  0  0
 26 24  2  0  0  0  0
 29 28  1  0  0  0  0
 29 27  1  0  0  0  0
M  END
>  <MODEL>
3

>  <REMARK>
 VINA RESULT:      -6.6      1.458      2.718
  Name = 
  9 active torsions:
  status: ('A' for Active; 'I' for Inactive)
    1  A    between atoms: C_1  and  N_2
    2  A    between atoms: C_1  and  C_6
    3  A    between atoms: N_2  and  C_18
    4  A    between atoms: C_6  and  C_7
    5  A    between atoms: C_6  and  C_28
    6  A    between atoms: C_8  and  C_9
    7  A    between atoms: C_17  and  C_24
    8  A    between atoms: C_18  and  C_26
    9  A    between atoms: O_22  and  C_28
                            x       y       z     vdW  Elec       q    Type
                         _______ _______ _______ _____ _____    ______ ____

>  <TORSDO>
F 9

$$$$
=
 OpenBabel11062416203D

 29 31  0  0  1  0  0  0  0  0999 V2000
  183.3070  177.7460  139.8300 C   0  0  0  0  0  0  0  0  0  0  0  0
  182.1610  175.7000  139.3700 C   0  0  0  0  0  3  0  0  0  0  0  0
  184.7170  179.6300  139.6560 N   0  0  0  0  0  2  0  0  0  0  0  0
  183.6610  179.0230  140.4880 C   0  0  2  0  0  3  0  0  0  0  0  0
  182.9410  175.5370  138.2580 N   0  0  0  0  0  0  0  0  0  0  0  0
  184.0720  177.5680  138.7220 C   0  0  0  0  0  0  0  0  0  0  0  0
  184.9990  178.7040  138.5440 C   0  0  2  0  0  3  0  0  0  0  0  0
  183.8920  176.4500  137.9100 C   0  0  0  0  0  3  0  0  0  0  0  0
  182.3240  176.8260  140.1910 C   0  0  0  0  0  3  0  0  0  0  0  0
  185.0290  178.3930  144.5260 C   0  0  0  0  0  0  0  0  0  0  0  0
  185.4670  178.3730  142.1370 C   0  0  0  0  0  3  0  0  0  0  0  0
  183.7200  178.8220  144.2710 C   0  0  0  0  0  3  0  0  0  0  0  0
  183.2850  179.0270  142.9590 C   0  0  0  0  0  3  0  0  0  0  0  0
  185.9000  178.1690  143.4500 C   0  0  0  0  0  3  0  0  0  0  0  0
  184.1550  178.8060  141.8870 C   0  0  0  0  0  0  0  0  0  0  0  0
  186.6630  177.4970  146.1650 O   0  0  0  0  0  0  0  0  0  0  0  0
  185.4800  178.1810  145.9100 C   0  0  0  0  0  0  0  0  0  0  0  0
  184.8010  178.6180  146.8770 O   0  0  0  0  0  1  0  0  0  0  0  0
  186.4410  178.2210  138.6300 C   0  0  0  0  0  2  0  0  0  0  0  0
  187.1850  178.6450  137.4530 N   0  0  0  0  0  2  0  0  0  0  0  0
  187.3320  177.4850  136.5840 C   0  0  1  0  0  3  0  0  0  0  0  0
  186.5570  177.7070  135.2940 C   0  0  0  0  0  1  0  0  0  0  0  0
  188.8170  177.1720  136.3410 C   0  0  2  0  0  3  0  0  0  0  0  0
  189.0850  175.7150  136.1110 C   0  0  0  0  0  0  0  0  0  0  0  0
  188.1810  174.7710  136.5760 O   0  0  0  0  0  1  0  0  0  0  0  0
  190.1350  175.3360  135.5240 O   0  0  0  0  0  0  0  0  0  0  0  0
  189.7080  177.7350  137.4410 C   0  0  0  0  0  2  0  0  0  0  0  0
  190.0510  177.5580  139.6110 C   0  0  0  0  0  1  0  0  0  0  0  0
  189.8590  176.7960  138.4610 O   0  0  0  0  0  0  0  0  0  0  0  0
  1  9  1  0  0  0  0
  1  4  1  0  0  0  0
  2  9  2  0  0  0  0
  3  4  1  0  0  0  0
  4 15  1  1  0  0  0
  5  2  1  0  0  0  0
  6  1  2  0  0  0  0
  7 19  1  1  0  0  0
  7  6  1  0  0  0  0
  7  3  1  0  0  0  0
  8  5  2  0  0  0  0
  8  6  1  0  0  0  0
 10 17  1  0  0  0  0
 11 14  1  0  0  0  0
 12 10  1  0  0  0  0
 13 12  2  0  0  0  0
 14 10  2  0  0  0  0
 15 11  2  0  0  0  0
 15 13  1  0  0  0  0
 17 16  2  0  0  0  0
 17 18  1  0  0  0  0
 20 19  1  0  0  0  0
 21 22  1  6  0  0  0
 21 20  1  0  0  0  0
 23 21  1  0  0  0  0
 23 27  1  1  0  0  0
 24 23  1  0  0  0  0
 24 25  1  0  0  0  0
 26 24  2  0  0  0  0
 27 29  1  0  0  0  0
 29 28  1  0  0  0  0
M  END
>  <MODEL>
4

>  <REMARK>
 VINA RESULT:      -6.5      1.502      2.203
  Name = 
  9 active torsions:
  status: ('A' for Active; 'I' for Inactive)
    1  A    between atoms: C_1  and  N_2
    2  A    between atoms: C_1  and  C_6
    3  A    between atoms: N_2  and  C_18
    4  A    between atoms: C_6  and  C_7
    5  A    between atoms: C_6  and  C_28
    6  A    between atoms: C_8  and  C_9
    7  A    between atoms: C_17  and  C_24
    8  A    between atoms: C_18  and  C_26
    9  A    between atoms: O_22  and  C_28
                            x       y       z     vdW  Elec       q    Type
                         _______ _______ _______ _____ _____    ______ ____

>  <TORSDO>
F 9

$$$$
=
 OpenBabel11062416203D

 29 31  0  0  1  0  0  0  0  0999 V2000
  189.8030  177.4740  144.0720 C   0  0  0  0  0  0  0  0  0  0  0  0
  191.2240  179.2070  144.9020 C   0  0  0  0  0  3  0  0  0  0  0  0
  188.9010  175.7280  142.7650 N   0  0  0  0  0  2  0  0  0  0  0  0
  188.7110  176.4760  144.0230 C   0  0  2  0  0  3  0  0  0  0  0  0
  191.9910  179.0900  143.7760 N   0  0  0  0  0  0  0  0  0  0  0  0
  190.5750  177.3720  142.9600 C   0  0  0  0  0  0  0  0  0  0  0  0
  190.0710  176.3030  142.0750 C   0  0  2  0  0  3  0  0  0  0  0  0
  191.6960  178.1850  142.7990 C   0  0  0  0  0  3  0  0  0  0  0  0
  190.1000  178.3880  145.0820 C   0  0  0  0  0  3  0  0  0  0  0  0
  184.8430  178.3710  144.1370 C   0  0  0  0  0  0  0  0  0  0  0  0
  186.7480  177.5720  142.8610 C   0  0  0  0  0  3  0  0  0  0  0  0
  185.4610  177.9330  145.3150 C   0  0  0  0  0  3  0  0  0  0  0  0
  186.7150  177.3170  145.2690 C   0  0  0  0  0  3  0  0  0  0  0  0
  185.4940  178.1870  142.9100 C   0  0  0  0  0  3  0  0  0  0  0  0
  187.3630  177.1310  144.0440 C   0  0  0  0  0  0  0  0  0  0  0  0
  182.7840  179.2090  143.0310 O   0  0  0  0  0  0  0  0  0  0  0  0
  183.5220  179.0180  144.1940 C   0  0  0  0  0  0  0  0  0  0  0  0
  183.0460  179.4030  145.2950 O   0  0  0  0  0  1  0  0  0  0  0  0
  189.6400  176.8910  140.7370 C   0  0  0  0  0  2  0  0  0  0  0  0
  190.2210  176.1310  139.6420 N   0  0  0  0  0  2  0  0  0  0  0  0
  190.5470  177.0700  138.5780 C   0  0  1  0  0  3  0  0  0  0  0  0
  191.7900  176.5980  137.8380 C   0  0  0  0  0  1  0  0  0  0  0  0
  189.3430  177.2770  137.6460 C   0  0  2  0  0  3  0  0  0  0  0  0
  189.4920  176.5890  136.3220 C   0  0  0  0  0  0  0  0  0  0  0  0
  189.3140  175.2150  136.2410 O   0  0  0  0  0  1  0  0  0  0  0  0
  189.8010  177.2390  135.2870 O   0  0  0  0  0  0  0  0  0  0  0  0
  189.0020  178.7520  137.4710 C   0  0  0  0  0  2  0  0  0  0  0  0
  187.0660  178.0810  138.2830 C   0  0  0  0  0  1  0  0  0  0  0  0
  187.6250  178.9090  137.3120 O   0  0  0  0  0  0  0  0  0  0  0  0
  1  9  1  0  0  0  0
  2  9  2  0  0  0  0
  3  4  1  0  0  0  0
  4 15  1  6  0  0  0
  4  1  1  0  0  0  0
  5  2  1  0  0  0  0
  6  1  2  0  0  0  0
  7 19  1  6  0  0  0
  7  3  1  0  0  0  0
  7  6  1  0  0  0  0
  8  6  1  0  0  0  0
  8  5  2  0  0  0  0
 10 17  1  0  0  0  0
 10 12  1  0  0  0  0
 11 14  1  0  0  0  0
 11 15  2  0  0  0  0
 13 12  2  0  0  0  0
 14 10  2  0  0  0  0
 15 13  1  0  0  0  0
 16 17  2  0  0  0  0
 17 18  1  0  0  0  0
 20 19  1  0  0  0  0
 21 22  1  6  0  0  0
 21 20  1  0  0  0  0
 23 27  1  6  0  0  0
 23 21  1  0  0  0  0
 24 23  1  0  0  0  0
 25 24  1  0  0  0  0
 26 24  2  0  0  0  0
 29 27  1  0  0  0  0
 29 28  1  0  0  0  0
M  END
>  <MODEL>
5

>  <REMARK>
 VINA RESULT:      -6.5      3.351      5.778
  Name = 
  9 active torsions:
  status: ('A' for Active; 'I' for Inactive)
    1  A    between atoms: C_1  and  N_2
    2  A    between atoms: C_1  and  C_6
    3  A    between atoms: N_2  and  C_18
    4  A    between atoms: C_6  and  C_7
    5  A    between atoms: C_6  and  C_28
    6  A    between atoms: C_8  and  C_9
    7  A    between atoms: C_17  and  C_24
    8  A    between atoms: C_18  and  C_26
    9  A    between atoms: O_22  and  C_28
                            x       y       z     vdW  Elec       q    Type
                         _______ _______ _______ _____ _____    ______ ____

>  <TORSDO>
F 9

$$$$
=
 OpenBabel11062416203D

 29 31  0  0  1  0  0  0  0  0999 V2000
  182.9230  177.8390  139.9140 C   0  0  0  0  0  0  0  0  0  0  0  0
  181.3620  176.0470  139.6560 C   0  0  0  0  0  3  0  0  0  0  0  0
  184.6800  179.3710  139.5450 N   0  0  0  0  0  2  0  0  0  0  0  0
  183.5610  179.0590  140.4560 C   0  0  2  0  0  3  0  0  0  0  0  0
  182.0390  175.6460  138.5370 N   0  0  0  0  0  0  0  0  0  0  0  0
  183.5820  177.4260  138.8010 C   0  0  0  0  0  0  0  0  0  0  0  0
  184.7130  178.3280  138.5030 C   0  0  2  0  0  3  0  0  0  0  0  0
  183.1400  176.3140  138.0870 C   0  0  0  0  0  3  0  0  0  0  0  0
  181.7900  177.1710  140.3780 C   0  0  0  0  0  3  0  0  0  0  0  0
  185.0630  178.4530  144.4490 C   0  0  0  0  0  0  0  0  0  0  0  0
  183.2320  179.0370  142.9640 C   0  0  0  0  0  3  0  0  0  0  0  0
  185.8910  178.2650  143.3360 C   0  0  0  0  0  3  0  0  0  0  0  0
  185.3960  178.4610  142.0440 C   0  0  0  0  0  3  0  0  0  0  0  0
  183.7300  178.8400  144.2560 C   0  0  0  0  0  3  0  0  0  0  0  0
  184.0660  178.8450  141.8510 C   0  0  0  0  0  0  0  0  0  0  0  0
  184.8530  178.6380  146.9150 O   0  0  0  0  0  1  0  0  0  0  0  0
  185.5910  178.2420  145.8070 C   0  0  0  0  0  0  0  0  0  0  0  0
  186.7160  177.7010  145.9770 O   0  0  0  0  0  0  0  0  0  0  0  0
  186.0280  177.5630  138.5830 C   0  0  0  0  0  2  0  0  0  0  0  0
  187.1040  178.4530  138.9920 N   0  0  0  0  0  2  0  0  0  0  0  0
  188.3530  177.8900  138.4990 C   0  0  1  0  0  3  0  0  0  0  0  0
  189.2050  178.9880  137.8820 C   0  0  0  0  0  1  0  0  0  0  0  0
  189.0830  177.1250  139.6150 C   0  0  2  0  0  3  0  0  0  0  0  0
  188.8300  177.6870  140.9820 C   0  0  0  0  0  0  0  0  0  0  0  0
  188.7410  176.8290  142.0680 O   0  0  0  0  0  1  0  0  0  0  0  0
  188.6730  178.9260  141.1520 O   0  0  0  0  0  0  0  0  0  0  0  0
  190.5750  176.9930  139.3350 C   0  0  0  0  0  2  0  0  0  0  0  0
  191.8880  175.9640  137.8940 C   0  0  0  0  0  1  0  0  0  0  0  0
  190.8500  175.7370  138.7940 O   0  0  0  0  0  0  0  0  0  0  0  0
  1  9  1  0  0  0  0
  1  4  1  0  0  0  0
  2  9  2  0  0  0  0
  3  4  1  0  0  0  0
  4 15  1  1  0  0  0
  5  2  1  0  0  0  0
  6  1  2  0  0  0  0
  7 19  1  1  0  0  0
  7  6  1  0  0  0  0
  7  3  1  0  0  0  0
  8  5  2  0  0  0  0
  8  6  1  0  0  0  0
 10 17  1  0  0  0  0
 11 14  2  0  0  0  0
 12 10  2  0  0  0  0
 13 12  1  0  0  0  0
 14 10  1  0  0  0  0
 15 13  2  0  0  0  0
 15 11  1  0  0  0  0
 17 18  2  0  0  0  0
 17 16  1  0  0  0  0
 19 20  1  0  0  0  0
 21 22  1  1  0  0  0
 21 20  1  0  0  0  0
 21 23  1  0  0  0  0
 23 27  1  6  0  0  0
 23 24  1  0  0  0  0
 24 26  2  0  0  0  0
 24 25  1  0  0  0  0
 28 29  1  0  0  0  0
 29 27  1  0  0  0  0
M  END
>  <MODEL>
6

>  <REMARK>
 VINA RESULT:      -6.4      0.746      2.142
  Name = 
  9 active torsions:
  status: ('A' for Active; 'I' for Inactive)
    1  A    between atoms: C_1  and  N_2
    2  A    between atoms: C_1  and  C_6
    3  A    between atoms: N_2  and  C_18
    4  A    between atoms: C_6  and  C_7
    5  A    between atoms: C_6  and  C_28
    6  A    between atoms: C_8  and  C_9
    7  A    between atoms: C_17  and  C_24
    8  A    between atoms: C_18  and  C_26
    9  A    between atoms: O_22  and  C_28
                            x       y       z     vdW  Elec       q    Type
                         _______ _______ _______ _____ _____    ______ ____

>  <TORSDO>
F 9

$$$$
=
 OpenBabel11062416203D

 29 31  0  0  1  0  0  0  0  0999 V2000
  189.7960  177.4280  144.2150 C   0  0  0  0  0  0  0  0  0  0  0  0
  191.2750  179.0810  145.1030 C   0  0  0  0  0  3  0  0  0  0  0  0
  188.8270  175.7730  142.8400 N   0  0  0  0  0  2  0  0  0  0  0  0
  188.6790  176.4610  144.1370 C   0  0  2  0  0  3  0  0  0  0  0  0
  192.0170  179.0040  143.9570 N   0  0  0  0  0  0  0  0  0  0  0  0
  190.5440  177.3640  143.0840 C   0  0  0  0  0  0  0  0  0  0  0  0
  189.9970  176.3550  142.1560 C   0  0  2  0  0  3  0  0  0  0  0  0
  191.6810  178.1570  142.9420 C   0  0  0  0  0  3  0  0  0  0  0  0
  190.1350  178.2810  145.2640 C   0  0  0  0  0  3  0  0  0  0  0  0
  184.8410  178.4120  144.3200 C   0  0  0  0  0  0  0  0  0  0  0  0
  186.7510  177.4320  145.4570 C   0  0  0  0  0  3  0  0  0  0  0  0
  185.4400  178.1220  143.0870 C   0  0  0  0  0  3  0  0  0  0  0  0
  186.6860  177.4910  143.0370 C   0  0  0  0  0  3  0  0  0  0  0  0
  185.5040  178.0630  145.5050 C   0  0  0  0  0  3  0  0  0  0  0  0
  187.3480  177.1450  144.2190 C   0  0  0  0  0  0  0  0  0  0  0  0
  182.8560  179.3810  143.1880 O   0  0  0  0  0  0  0  0  0  0  0  0
  183.5300  179.0780  144.3650 C   0  0  0  0  0  0  0  0  0  0  0  0
  183.0040  179.3800  145.4700 O   0  0  0  0  0  1  0  0  0  0  0  0
  189.5550  177.0210  140.8590 C   0  0  0  0  0  2  0  0  0  0  0  0
  190.3190  176.4950  139.7380 N   0  0  0  0  0  2  0  0  0  0  0  0
  189.7030  176.9900  138.5150 C   0  0  1  0  0  3  0  0  0  0  0  0
  189.1920  178.4070  138.7320 C   0  0  0  0  0  1  0  0  0  0  0  0
  190.6780  176.8840  137.3320 C   0  0  2  0  0  3  0  0  0  0  0  0
  190.0110  176.4920  136.0470 C   0  0  0  0  0  0  0  0  0  0  0  0
  189.3660  177.4590  135.2880 O   0  0  0  0  0  0  0  0  0  0  0  0
  190.0080  175.2920  135.6600 O   0  0  0  0  0  1  0  0  0  0  0  0
  191.8610  175.9750  137.6440 C   0  0  0  0  0  2  0  0  0  0  0  0
  193.9220  175.5860  136.9670 C   0  0  0  0  0  1  0  0  0  0  0  0
  193.0550  176.6180  137.3190 O   0  0  0  0  0  0  0  0  0  0  0  0
  1  9  1  0  0  0  0
  2  9  2  0  0  0  0
  3  4  1  0  0  0  0
  4  1  1  0  0  0  0
  4 15  1  6  0  0  0
  5  2  1  0  0  0  0
  6  1  2  0  0  0  0
  7 19  1  6  0  0  0
  7  3  1  0  0  0  0
  7  6  1  0  0  0  0
  8  6  1  0  0  0  0
  8  5  2  0  0  0  0
 10 17  1  0  0  0  0
 10 14  1  0  0  0  0
 11 14  2  0  0  0  0
 12 10  2  0  0  0  0
 13 12  1  0  0  0  0
 13 15  2  0  0  0  0
 15 11  1  0  0  0  0
 16 17  2  0  0  0  0
 17 18  1  0  0  0  0
 20 19  1  0  0  0  0
 21 22  1  1  0  0  0
 21 20  1  0  0  0  0
 23 27  1  1  0  0  0
 23 21  1  0  0  0  0
 24 23  1  0  0  0  0
 25 24  2  0  0  0  0
 26 24  1  0  0  0  0
 28 29  1  0  0  0  0
 29 27  1  0  0  0  0
M  END
>  <MODEL>
7

>  <REMARK>
 VINA RESULT:      -6.4      3.582      5.968
  Name = 
  9 active torsions:
  status: ('A' for Active; 'I' for Inactive)
    1  A    between atoms: C_1  and  N_2
    2  A    between atoms: C_1  and  C_6
    3  A    between atoms: N_2  and  C_18
    4  A    between atoms: C_6  and  C_7
    5  A    between atoms: C_6  and  C_28
    6  A    between atoms: C_8  and  C_9
    7  A    between atoms: C_17  and  C_24
    8  A    between atoms: C_18  and  C_26
    9  A    between atoms: O_22  and  C_28
                            x       y       z     vdW  Elec       q    Type
                         _______ _______ _______ _____ _____    ______ ____

>  <TORSDO>
F 9

$$$$
=
 OpenBabel11062416203D

 29 31  0  0  1  0  0  0  0  0999 V2000
  185.9150  178.5620  139.3690 C   0  0  0  0  0  0  0  0  0  0  0  0
  187.9500  177.8200  138.3600 C   0  0  0  0  0  3  0  0  0  0  0  0
  184.3290  179.3720  140.9180 N   0  0  0  0  0  2  0  0  0  0  0  0
  184.5110  179.0120  139.4980 C   0  0  2  0  0  3  0  0  0  0  0  0
  188.5560  177.8800  139.5850 N   0  0  0  0  0  0  0  0  0  0  0  0
  186.5320  178.6170  140.5770 C   0  0  0  0  0  0  0  0  0  0  0  0
  185.6010  179.1050  141.6140 C   0  0  2  0  0  3  0  0  0  0  0  0
  187.8780  178.2770  140.7000 C   0  0  0  0  0  3  0  0  0  0  0  0
  186.5990  178.1690  138.2200 C   0  0  0  0  0  3  0  0  0  0  0  0
  181.7540  175.9220  138.3080 C   0  0  0  0  0  0  0  0  0  0  0  0
  183.0850  176.9920  140.0340 C   0  0  0  0  0  3  0  0  0  0  0  0
  182.2190  176.8640  137.3810 C   0  0  0  0  0  3  0  0  0  0  0  0
  183.1110  177.8640  137.7760 C   0  0  0  0  0  3  0  0  0  0  0  0
  182.1920  175.9920  139.6370 C   0  0  0  0  0  3  0  0  0  0  0  0
  183.5460  177.9360  139.1020 C   0  0  0  0  0  0  0  0  0  0  0  0
  180.0830  174.1630  138.8300 O   0  0  0  0  0  1  0  0  0  0  0  0
  180.8130  174.8730  137.8840 C   0  0  0  0  0  0  0  0  0  0  0  0
  180.6590  174.6080  136.6620 O   0  0  0  0  0  0  0  0  0  0  0  0
  185.3910  178.0320  142.6750 C   0  0  0  0  0  2  0  0  0  0  0  0
  185.8740  178.5000  143.9660 N   0  0  0  0  0  2  0  0  0  0  0  0
  186.4840  177.3650  144.6450 C   0  0  1  0  0  3  0  0  0  0  0  0
  187.8950  177.1480  144.1180 C   0  0  0  0  0  1  0  0  0  0  0  0
  186.4400  177.5540  146.1690 C   0  0  2  0  0  3  0  0  0  0  0  0
  185.4090  178.5490  146.6140 C   0  0  0  0  0  0  0  0  0  0  0  0
  185.8140  179.7880  147.0890 O   0  0  0  0  0  1  0  0  0  0  0  0
  184.1810  178.2630  146.5850 O   0  0  0  0  0  0  0  0  0  0  0  0
  187.8120  177.8810  146.7450 C   0  0  0  0  0  2  0  0  0  0  0  0
  188.6210  178.2540  148.7620 C   0  0  0  0  0  1  0  0  0  0  0  0
  187.9540  177.2950  148.0030 O   0  0  0  0  0  0  0  0  0  0  0  0
  1  4  1  0  0  0  0
  1  6  1  0  0  0  0
  2  5  2  0  0  0  0
  3  7  1  0  0  0  0
  4 15  1  1  0  0  0
  4  3  1  0  0  0  0
  5  8  1  0  0  0  0
  6  8  2  0  0  0  0
  6  7  1  0  0  0  0
  7 19  1  1  0  0  0
  9  2  1  0  0  0  0
  9  1  2  0  0  0  0
 10 14  1  0  0  0  0
 12 13  1  0  0  0  0
 12 10  2  0  0  0  0
 13 15  2  0  0  0  0
 14 11  2  0  0  0  0
 15 11  1  0  0  0  0
 17 10  1  0  0  0  0
 17 16  1  0  0  0  0
 18 17  2  0  0  0  0
 19 20  1  0  0  0  0
 20 21  1  0  0  0  0
 21 22  1  6  0  0  0
 21 23  1  0  0  0  0
 23 24  1  0  0  0  0
 23 27  1  6  0  0  0
 24 25  1  0  0  0  0
 26 24  2  0  0  0  0
 27 29  1  0  0  0  0
 29 28  1  0  0  0  0
M  END
>  <MODEL>
8

>  <REMARK>
 VINA RESULT:      -6.3      3.210      6.630
  Name = 
  9 active torsions:
  status: ('A' for Active; 'I' for Inactive)
    1  A    between atoms: C_1  and  N_2
    2  A    between atoms: C_1  and  C_6
    3  A    between atoms: N_2  and  C_18
    4  A    between atoms: C_6  and  C_7
    5  A    between atoms: C_6  and  C_28
    6  A    between atoms: C_8  and  C_9
    7  A    between atoms: C_17  and  C_24
    8  A    between atoms: C_18  and  C_26
    9  A    between atoms: O_22  and  C_28
                            x       y       z     vdW  Elec       q    Type
                         _______ _______ _______ _____ _____    ______ ____

>  <TORSDO>
F 9

$$$$
=
 OpenBabel11062416203D

 29 31  0  0  1  0  0  0  0  0999 V2000
  187.9500  178.2540  140.2490 C   0  0  0  0  0  0  0  0  0  0  0  0
  189.3530  177.2620  138.5880 C   0  0  0  0  0  3  0  0  0  0  0  0
  187.0490  178.9570  142.3140 N   0  0  0  0  0  2  0  0  0  0  0  0
  186.8850  179.0860  140.8530 C   0  0  2  0  0  3  0  0  0  0  0  0
  190.0790  176.6690  139.5840 N   0  0  0  0  0  0  0  0  0  0  0  0
  188.6820  177.6580  141.2250 C   0  0  0  0  0  0  0  0  0  0  0  0
  188.1740  178.0360  142.5590 C   0  0  2  0  0  3  0  0  0  0  0  0
  189.7720  176.8520  140.9010 C   0  0  0  0  0  3  0  0  0  0  0  0
  188.2600  178.0840  138.9010 C   0  0  0  0  0  3  0  0  0  0  0  0
  182.9440  177.7780  139.7030 C   0  0  0  0  0  0  0  0  0  0  0  0
  185.1570  178.5620  139.0810 C   0  0  0  0  0  3  0  0  0  0  0  0
  183.3110  177.8470  141.0530 C   0  0  0  0  0  3  0  0  0  0  0  0
  184.5920  178.2700  141.4170 C   0  0  0  0  0  3  0  0  0  0  0  0
  183.8750  178.1390  138.7190 C   0  0  0  0  0  3  0  0  0  0  0  0
  185.5210  178.6270  140.4360 C   0  0  0  0  0  0  0  0  0  0  0  0
  181.3470  175.9880  139.0660 O   0  0  0  0  0  0  0  0  0  0  0  0
  181.5930  177.3310  139.3270 C   0  0  0  0  0  0  0  0  0  0  0  0
  180.6470  178.1580  139.2390 O   0  0  0  0  0  1  0  0  0  0  0  0
  187.6760  176.8020  143.2990 C   0  0  0  0  0  2  0  0  0  0  0  0
  188.6520  176.3830  144.2940 N   0  0  0  0  0  2  0  0  0  0  0  0
  188.9400  177.5340  145.1390 C   0  0  1  0  0  3  0  0  0  0  0  0
  188.0090  177.5350  146.3420 C   0  0  0  0  0  1  0  0  0  0  0  0
  190.4250  177.5610  145.5350 C   0  0  2  0  0  3  0  0  0  0  0  0
  191.3460  177.1970  144.4090 C   0  0  0  0  0  0  0  0  0  0  0  0
  191.7070  175.8700  144.2220 O   0  0  0  0  0  1  0  0  0  0  0  0
  191.8160  178.0840  143.6470 O   0  0  0  0  0  0  0  0  0  0  0  0
  190.7020  176.7170  146.7740 C   0  0  0  0  0  2  0  0  0  0  0  0
  192.4280  175.6280  147.6060 C   0  0  0  0  0  1  0  0  0  0  0  0
  192.0230  176.8930  147.1860 O   0  0  0  0  0  0  0  0  0  0  0  0
  1  4  1  0  0  0  0
  1  6  1  0  0  0  0
  2  9  1  0  0  0  0
  2  5  2  0  0  0  0
  3  7  1  0  0  0  0
  4 15  1  6  0  0  0
  4  3  1  0  0  0  0
  5  8  1  0  0  0  0
  6  7  1  0  0  0  0
  7 19  1  6  0  0  0
  8  6  2  0  0  0  0
  9  1  2  0  0  0  0
 10 12  1  0  0  0  0
 11 15  2  0  0  0  0
 12 13  2  0  0  0  0
 14 11  1  0  0  0  0
 14 10  2  0  0  0  0
 15 13  1  0  0  0  0
 16 17  2  0  0  0  0
 17 10  1  0  0  0  0
 18 17  1  0  0  0  0
 19 20  1  0  0  0  0
 20 21  1  0  0  0  0
 21 23  1  0  0  0  0
 21 22  1  1  0  0  0
 23 27  1  1  0  0  0
 24 23  1  0  0  0  0
 25 24  1  0  0  0  0
 26 24  2  0  0  0  0
 27 29  1  0  0  0  0
 29 28  1  0  0  0  0
M  END
>  <MODEL>
9

>  <REMARK>
 VINA RESULT:      -6.1      3.457      5.831
  Name = 
  9 active torsions:
  status: ('A' for Active; 'I' for Inactive)
    1  A    between atoms: C_1  and  N_2
    2  A    between atoms: C_1  and  C_6
    3  A    between atoms: N_2  and  C_18
    4  A    between atoms: C_6  and  C_7
    5  A    between atoms: C_6  and  C_28
    6  A    between atoms: C_8  and  C_9
    7  A    between atoms: C_17  and  C_24
    8  A    between atoms: C_18  and  C_26
    9  A    between atoms: O_22  and  C_28
                            x       y       z     vdW  Elec       q    Type
                         _______ _______ _______ _____ _____    ______ ____

>  <TORSDO>
F 9

$$$$
