=
 OpenBabel11062415133D

 52 56  0  0  1  0  0  0  0  0999 V2000
  182.5700  178.7850  141.7810 N   0  0  0  0  0  0  0  0  0  0  0  0
  180.1800  178.9260  143.4320 N   0  0  0  0  0  1  0  0  0  0  0  0
  180.2310  177.0070  139.6620 C   0  0  0  0  0  0  0  0  0  0  0  0
  181.3800  177.6060  140.1780 C   0  0  0  0  0  0  0  0  0  0  0  0
  182.9130  177.7260  139.5000 S   0  0  0  0  0  0  0  0  0  0  0  0
  179.0650  177.0770  140.4450 C   0  0  0  0  0  3  0  0  0  0  0  0
  180.2100  178.2820  142.1620 C   0  0  0  0  0  0  0  0  0  0  0  0
  183.5150  178.5750  140.8320 C   0  0  0  0  0  0  0  0  0  0  0  0
  181.3840  178.2370  141.4090 C   0  0  0  0  0  0  0  0  0  0  0  0
  179.0810  177.7020  141.6610 N   0  0  0  0  0  0  0  0  0  0  0  0
  182.0430  175.8270  136.2230 O   0  0  0  0  0  0  0  0  0  0  0  0
  180.4350  177.3240  137.1940 C   0  0  0  0  0  0  0  0  0  0  0  0
  180.2390  176.3390  138.3210 C   0  0  1  0  0  3  0  0  0  0  0  0
  181.2210  175.3200  138.3030 O   0  0  0  0  0  0  0  0  0  0  0  0
  181.3540  174.8570  136.9770 C   0  0  2  0  0  3  0  0  0  0  0  0
  179.8120  178.4610  137.1740 N   0  0  0  0  0  0  0  0  0  0  0  0
  181.2320  176.9050  136.1210 O   0  0  0  0  0  0  0  0  0  0  0  0
  182.1300  173.5530  136.9580 C   0  0  0  0  0  2  0  0  0  0  0  0
  182.0160  171.3930  135.9450 O   0  0  0  0  0  1  0  0  0  0  0  0
  180.5000  171.8500  137.7140 C   0  0  0  0  0  1  0  0  0  0  0  0
  181.2390  172.4030  136.5150 C   0  0  1  0  0  3  0  0  0  0  0  0
  179.9460  179.4110  136.0790 C   0  0  0  0  0  2  0  0  0  0  0  0
  181.0480  180.3300  136.3510 N   0  0  0  0  0  2  0  0  0  0  0  0
  180.6730  181.3340  137.3580 C   0  0  1  0  0  3  0  0  0  0  0  0
  181.3490  181.1000  138.7030 C   0  0  0  0  0  1  0  0  0  0  0  0
  180.8170  182.7790  136.8720 C   0  0  2  0  0  3  0  0  0  0  0  0
  179.9210  183.7120  137.6650 C   0  0  0  0  0  1  0  0  0  0  0  0
  180.5380  182.8950  135.5090 O   0  0  0  0  0  1  0  0  0  0  0  0
  184.9030  179.0980  140.9340 C   0  0  0  0  0  2  0  0  0  0  0  0
  185.2320  179.3310  142.3300 N   0  0  0  0  0  2  0  0  0  0  0  0
  186.0500  178.2430  144.2200 O   0  0  0  0  0  1  0  0  0  0  0  0
  185.6860  178.0650  142.8850 C   0  0  2  0  0  3  0  0  0  0  0  0
  186.7920  177.6120  142.1640 O   0  0  0  0  0  0  0  0  0  0  0  0
  187.8360  178.4730  142.5240 C   0  0  2  0  0  3  0  0  0  0  0  0
  189.1430  176.2180  142.3880 C   0  0  0  0  0  1  0  0  0  0  0  0
  188.8800  178.6550  141.4010 C   0  0  1  0  0  3  0  0  0  0  0  0
  189.1660  177.7340  142.5870 C   0  0  1  0  0  0  0  0  0  0  0  0
  187.6990  178.5410  139.1880 O   0  0  0  0  0  0  0  0  0  0  0  0
  188.5490  177.9480  140.1130 C   0  0  0  0  0  0  0  0  0  0  0  0
  189.1080  176.8560  139.8310 O   0  0  0  0  0  1  0  0  0  0  0  0
  190.1580  178.3090  143.5840 C   0  0  0  0  0  2  0  0  0  0  0  0
  191.5760  177.4900  145.2400 C   0  0  0  0  0  2  0  0  0  0  0  0
  190.1870  177.5050  144.7960 N   0  0  0  0  0  0  0  0  0  0  0  0
  191.8080  176.3770  146.2590 C   0  0  0  0  0  2  0  0  0  0  0  0
  189.7160  176.1690  147.3020 C   0  0  0  0  0  2  0  0  0  0  0  0
  191.0800  176.6510  147.4900 N   0  0  0  0  0  2  0  0  0  0  0  0
  188.7780  177.2880  146.8170 C   0  0  2  0  0  3  0  0  0  0  0  0
  189.4250  178.2390  145.8000 C   0  0  0  0  0  2  0  0  0  0  0  0
  187.0400  178.7320  147.5850 F   0  0  0  0  0  0  0  0  0  0  0  0
  189.1030  179.0090  148.4310 F   0  0  0  0  0  0  0  0  0  0  0  0
  187.8710  177.2190  149.0320 F   0  0  0  0  0  0  0  0  0  0  0  0
  188.1860  178.0720  147.9890 C   0  0  0  0  0  0  0  0  0  0  0  0
  3  4  2  0  0  0  0
  3  6  1  0  0  0  0
  4  9  1  0  0  0  0
  5  4  1  0  0  0  0
  5  8  1  0  0  0  0
  6 10  2  0  0  0  0
  7  2  1  0  0  0  0
  8 29  1  0  0  0  0
  8  1  2  0  0  0  0
  9  1  1  0  0  0  0
  9  7  2  0  0  0  0
 10  7  1  0  0  0  0
 11 15  1  0  0  0  0
 12 13  1  0  0  0  0
 13  3  1  1  0  0  0
 14 13  1  0  0  0  0
 15 18  1  1  0  0  0
 15 14  1  0  0  0  0
 16 12  2  0  0  0  0
 17 11  1  0  0  0  0
 17 12  1  0  0  0  0
 19 21  1  0  0  0  0
 21 18  1  0  0  0  0
 21 20  1  1  0  0  0
 22 23  1  0  0  0  0
 22 16  1  0  0  0  0
 23 24  1  0  0  0  0
 24 25  1  1  0  0  0
 26 24  1  0  0  0  0
 26 27  1  1  0  0  0
 28 26  1  0  0  0  0
 29 30  1  0  0  0  0
 30 32  1  0  0  0  0
 32 31  1  1  0  0  0
 33 32  1  0  0  0  0
 34 33  1  6  0  0  0
 34 37  1  0  0  0  0
 36 39  1  6  0  0  0
 36 34  1  0  0  0  0
 36 37  1  0  0  0  0
 37 35  1  6  0  0  0
 37 41  1  0  0  0  0
 38 39  2  0  0  0  0
 40 39  1  0  0  0  0
 41 43  1  0  0  0  0
 42 44  1  0  0  0  0
 43 42  1  0  0  0  0
 43 48  1  0  0  0  0
 44 46  1  0  0  0  0
 45 46  1  0  0  0  0
 47 45  1  0  0  0  0
 47 52  1  1  0  0  0
 48 47  1  0  0  0  0
 49 52  1  0  0  0  0
 52 50  1  0  0  0  0
 52 51  1  0  0  0  0
M  END
>  <MODEL>
1

>  <REMARK>
 VINA RESULT:      -7.5      0.000      0.000
  Name = 
  16 active torsions:
  status: ('A' for Active; 'I' for Inactive)
    1  A    between atoms: N_4  and  C_14
    2  A    between atoms: N_4  and  C_21
    3  A    between atoms: C_6  and  C_36
    4  A    between atoms: C_6  and  C_38
    5  A    between atoms: C_7  and  C_17
    6  A    between atoms: C_8  and  C_21
    7  A    between atoms: N_9  and  C_19
    8  A    between atoms: O_10  and  C_16
    9  A    between atoms: O_10  and  C_18
   10  A    between atoms: C_14  and  N_37
   11  A    between atoms: C_16  and  N_46
   12  A    between atoms: C_19  and  C_42
   13  A    between atoms: C_27  and  C_29
   14  A    between atoms: C_40  and  C_50
   15  A    between atoms: C_45  and  C_49
   16  A    between atoms: N_46  and  C_50
                            x       y       z     vdW  Elec       q    Type
                         _______ _______ _______ _____ _____    ______ ____

>  <TORSDO>
F 16

$$$$
=
 OpenBabel11062415133D

 52 56  0  0  1  0  0  0  0  0999 V2000
  186.4340  175.0980  136.8320 N   0  0  0  0  0  0  0  0  0  0  0  0
  187.0000  172.2450  136.7860 N   0  0  0  0  0  1  0  0  0  0  0  0
  190.0460  175.1630  137.1040 C   0  0  0  0  0  0  0  0  0  0  0  0
  188.7050  175.5330  137.0200 C   0  0  0  0  0  0  0  0  0  0  0  0
  188.0240  177.0690  137.0040 S   0  0  0  0  0  0  0  0  0  0  0  0
  190.3350  173.7870  137.0730 C   0  0  0  0  0  3  0  0  0  0  0  0
  188.0160  173.2370  136.8940 C   0  0  0  0  0  0  0  0  0  0  0  0
  186.4550  176.4520  136.8770 C   0  0  0  0  0  0  0  0  0  0  0  0
  187.6930  174.5940  136.9170 C   0  0  0  0  0  0  0  0  0  0  0  0
  189.3280  172.8680  136.9720 N   0  0  0  0  0  0  0  0  0  0  0  0
  193.8100  176.3690  138.0440 O   0  0  0  0  0  0  0  0  0  0  0  0
  191.4860  176.5130  138.6330 C   0  0  0  0  0  0  0  0  0  0  0  0
  191.1310  176.1920  137.2020 C   0  0  1  0  0  3  0  0  0  0  0  0
  192.2600  175.7640  136.4660 O   0  0  0  0  0  0  0  0  0  0  0  0
  193.3300  176.6380  136.7470 C   0  0  2  0  0  3  0  0  0  0  0  0
  190.5710  176.6760  139.5370 N   0  0  0  0  0  0  0  0  0  0  0  0
  192.8410  176.7360  138.9120 O   0  0  0  0  0  0  0  0  0  0  0  0
  194.4470  176.4340  135.7390 C   0  0  0  0  0  2  0  0  0  0  0  0
  194.8140  174.1100  135.3330 O   0  0  0  0  0  1  0  0  0  0  0  0
  196.7200  175.4560  135.7660 C   0  0  0  0  0  1  0  0  0  0  0  0
  195.2620  175.1980  136.0820 C   0  0  1  0  0  3  0  0  0  0  0  0
  190.8800  177.0310  140.9150 C   0  0  0  0  0  2  0  0  0  0  0  0
  189.6550  177.4020  141.6180 N   0  0  0  0  0  2  0  0  0  0  0  0
  189.7300  177.0560  143.0450 C   0  0  1  0  0  3  0  0  0  0  0  0
  191.0120  177.5500  143.7040 C   0  0  0  0  0  1  0  0  0  0  0  0
  188.4770  177.4370  143.8400 C   0  0  2  0  0  3  0  0  0  0  0  0
  188.8310  177.8240  145.2630 C   0  0  0  0  0  1  0  0  0  0  0  0
  187.5370  176.4050  143.8470 O   0  0  0  0  0  1  0  0  0  0  0  0
  185.2330  177.2900  136.7590 C   0  0  0  0  0  2  0  0  0  0  0  0
  184.1570  176.6900  137.5300 N   0  0  0  0  0  2  0  0  0  0  0  0
  182.6740  178.0260  136.3280 O   0  0  0  0  0  1  0  0  0  0  0  0
  182.9630  176.7120  136.6980 C   0  0  2  0  0  3  0  0  0  0  0  0
  181.8870  176.1900  137.4170 O   0  0  0  0  0  0  0  0  0  0  0  0
  182.0900  176.6200  138.7350 C   0  0  2  0  0  3  0  0  0  0  0  0
  179.7250  177.6320  138.2940 C   0  0  0  0  0  1  0  0  0  0  0  0
  181.1410  175.9350  139.7420 C   0  0  1  0  0  3  0  0  0  0  0  0
  180.8730  177.3630  139.2680 C   0  0  1  0  0  0  0  0  0  0  0  0
  180.7760  173.8290  138.4240 O   0  0  0  0  0  0  0  0  0  0  0  0
  180.2380  174.8870  139.1460 C   0  0  0  0  0  0  0  0  0  0  0  0
  179.0000  174.9190  139.3720 O   0  0  0  0  0  1  0  0  0  0  0  0
  181.1910  178.4240  140.3080 C   0  0  0  0  0  2  0  0  0  0  0  0
  183.2440  179.4090  139.8200 C   0  0  0  0  0  2  0  0  0  0  0  0
  182.6040  178.3950  140.6510 N   0  0  0  0  0  0  0  0  0  0  0  0
  184.7570  179.2130  139.7930 C   0  0  0  0  0  2  0  0  0  0  0  0
  185.2010  178.2370  141.8810 C   0  0  0  0  0  2  0  0  0  0  0  0
  185.3290  179.4670  141.1090 N   0  0  0  0  0  2  0  0  0  0  0  0
  183.9230  178.2310  142.7370 C   0  0  2  0  0  3  0  0  0  0  0  0
  182.7060  178.8490  142.0330 C   0  0  0  0  0  2  0  0  0  0  0  0
  182.9710  178.9230  144.8120 F   0  0  0  0  0  0  0  0  0  0  0  0
  184.5960  180.1880  143.9140 F   0  0  0  0  0  0  0  0  0  0  0  0
  185.0990  178.1860  144.8210 F   0  0  0  0  0  0  0  0  0  0  0  0
  184.1530  178.8900  144.0960 C   0  0  0  0  0  0  0  0  0  0  0  0
  1  8  2  0  0  0  0
  1  9  1  0  0  0  0
  2  7  1  0  0  0  0
  4  3  2  0  0  0  0
  5  4  1  0  0  0  0
  6  3  1  0  0  0  0
  7  9  2  0  0  0  0
  7 10  1  0  0  0  0
  8  5  1  0  0  0  0
  9  4  1  0  0  0  0
 10  6  2  0  0  0  0
 11 17  1  0  0  0  0
 12 17  1  0  0  0  0
 12 16  2  0  0  0  0
 13  3  1  1  0  0  0
 13 12  1  0  0  0  0
 14 15  1  0  0  0  0
 14 13  1  0  0  0  0
 15 18  1  6  0  0  0
 15 11  1  0  0  0  0
 16 22  1  0  0  0  0
 18 21  1  0  0  0  0
 19 21  1  0  0  0  0
 21 20  1  6  0  0  0
 22 23  1  0  0  0  0
 23 24  1  0  0  0  0
 24 25  1  1  0  0  0
 24 26  1  0  0  0  0
 26 28  1  0  0  0  0
 26 27  1  1  0  0  0
 29  8  1  0  0  0  0
 29 30  1  0  0  0  0
 32 31  1  1  0  0  0
 32 33  1  0  0  0  0
 32 30  1  0  0  0  0
 34 33  1  6  0  0  0
 34 37  1  0  0  0  0
 34 36  1  0  0  0  0
 36 39  1  6  0  0  0
 37 35  1  6  0  0  0
 37 36  1  0  0  0  0
 37 41  1  0  0  0  0
 38 39  2  0  0  0  0
 39 40  1  0  0  0  0
 41 43  1  0  0  0  0
 42 43  1  0  0  0  0
 43 48  1  0  0  0  0
 44 42  1  0  0  0  0
 44 46  1  0  0  0  0
 45 47  1  0  0  0  0
 46 45  1  0  0  0  0
 47 52  1  1  0  0  0
 48 47  1  0  0  0  0
 50 52  1  0  0  0  0
 52 49  1  0  0  0  0
 52 51  1  0  0  0  0
M  END
>  <MODEL>
2

>  <REMARK>
 VINA RESULT:      -7.4      4.379      9.963
  Name = 
  16 active torsions:
  status: ('A' for Active; 'I' for Inactive)
    1  A    between atoms: N_4  and  C_14
    2  A    between atoms: N_4  and  C_21
    3  A    between atoms: C_6  and  C_36
    4  A    between atoms: C_6  and  C_38
    5  A    between atoms: C_7  and  C_17
    6  A    between atoms: C_8  and  C_21
    7  A    between atoms: N_9  and  C_19
    8  A    between atoms: O_10  and  C_16
    9  A    between atoms: O_10  and  C_18
   10  A    between atoms: C_14  and  N_37
   11  A    between atoms: C_16  and  N_46
   12  A    between atoms: C_19  and  C_42
   13  A    between atoms: C_27  and  C_29
   14  A    between atoms: C_40  and  C_50
   15  A    between atoms: C_45  and  C_49
   16  A    between atoms: N_46  and  C_50
                            x       y       z     vdW  Elec       q    Type
                         _______ _______ _______ _____ _____    ______ ____

>  <TORSDO>
F 16

$$$$
=
 OpenBabel11062415133D

 52 56  0  0  1  0  0  0  0  0999 V2000
  186.8770  175.2850  136.0130 N   0  0  0  0  0  0  0  0  0  0  0  0
  187.1120  172.5000  136.8190 N   0  0  0  0  0  1  0  0  0  0  0  0
  190.3950  175.1670  136.8670 C   0  0  0  0  0  0  0  0  0  0  0  0
  189.1310  175.5930  136.4610 C   0  0  0  0  0  0  0  0  0  0  0  0
  188.6400  177.1080  135.9240 S   0  0  0  0  0  0  0  0  0  0  0  0
  190.5260  173.8200  137.2490 C   0  0  0  0  0  3  0  0  0  0  0  0
  188.2090  173.4080  136.8310 C   0  0  0  0  0  0  0  0  0  0  0  0
  187.0450  176.5930  135.7010 C   0  0  0  0  0  0  0  0  0  0  0  0
  188.0440  174.7360  136.4400 C   0  0  0  0  0  0  0  0  0  0  0  0
  189.4450  172.9830  137.2260 N   0  0  0  0  0  0  0  0  0  0  0  0
  194.2270  176.1580  137.7830 O   0  0  0  0  0  0  0  0  0  0  0  0
  191.9110  176.5780  138.2620 C   0  0  0  0  0  0  0  0  0  0  0  0
  191.5650  176.1030  136.8720 C   0  0  1  0  0  3  0  0  0  0  0  0
  192.6700  175.4860  136.2390 O   0  0  0  0  0  0  0  0  0  0  0  0
  193.8070  176.2950  136.4450 C   0  0  2  0  0  3  0  0  0  0  0  0
  190.9910  176.9370  139.1030 N   0  0  0  0  0  0  0  0  0  0  0  0
  193.2730  176.7180  138.5600 O   0  0  0  0  0  0  0  0  0  0  0  0
  194.9260  175.8650  135.5140 C   0  0  0  0  0  2  0  0  0  0  0  0
  195.7110  173.6750  136.0520 O   0  0  0  0  0  1  0  0  0  0  0  0
  197.3410  175.3740  135.7500 C   0  0  0  0  0  1  0  0  0  0  0  0
  195.9570  175.0330  136.2600 C   0  0  1  0  0  3  0  0  0  0  0  0
  191.2960  177.4420  140.4340 C   0  0  0  0  0  2  0  0  0  0  0  0
  190.4800  176.7460  141.4260 N   0  0  0  0  0  2  0  0  0  0  0  0
  189.7680  177.6950  142.2950 C   0  0  1  0  0  3  0  0  0  0  0  0
  188.2910  177.3550  142.4520 C   0  0  0  0  0  1  0  0  0  0  0  0
  190.4600  177.9420  143.6390 C   0  0  2  0  0  3  0  0  0  0  0  0
  189.5450  177.5910  144.7960 C   0  0  0  0  0  1  0  0  0  0  0  0
  190.8960  179.2630  143.7590 O   0  0  0  0  0  1  0  0  0  0  0  0
  185.9570  177.4490  135.1600 C   0  0  0  0  0  2  0  0  0  0  0  0
  184.7290  177.1930  135.8940 N   0  0  0  0  0  2  0  0  0  0  0  0
  182.6740  177.5460  134.8560 O   0  0  0  0  0  1  0  0  0  0  0  0
  183.7580  176.6720  134.9440 C   0  0  2  0  0  3  0  0  0  0  0  0
  183.3070  175.4250  135.3790 O   0  0  0  0  0  0  0  0  0  0  0  0
  183.4380  175.4590  136.7730 C   0  0  2  0  0  3  0  0  0  0  0  0
  180.9040  174.8640  136.5770 C   0  0  0  0  0  1  0  0  0  0  0  0
  183.2760  174.0690  137.4260 C   0  0  1  0  0  3  0  0  0  0  0  0
  182.1330  175.0820  137.4610 C   0  0  1  0  0  0  0  0  0  0  0  0
  184.0280  172.7080  135.4530 O   0  0  0  0  0  0  0  0  0  0  0  0
  183.0910  172.9340  136.4530 C   0  0  0  0  0  0  0  0  0  0  0  0
  182.1290  172.1330  136.5950 O   0  0  0  0  0  1  0  0  0  0  0  0
  181.9290  175.7290  138.8210 C   0  0  0  0  0  2  0  0  0  0  0  0
  181.5440  178.0050  138.5090 C   0  0  0  0  0  2  0  0  0  0  0  0
  182.5720  177.0340  138.8660 N   0  0  0  0  0  0  0  0  0  0  0  0
  182.1700  179.3460  138.1380 C   0  0  0  0  0  2  0  0  0  0  0  0
  184.1350  179.3850  139.4210 C   0  0  0  0  0  2  0  0  0  0  0  0
  182.7980  179.9560  139.3020 N   0  0  0  0  0  2  0  0  0  0  0  0
  184.1580  178.1810  140.3780 C   0  0  2  0  0  3  0  0  0  0  0  0
  182.9230  177.2760  140.2600 C   0  0  0  0  0  2  0  0  0  0  0  0
  185.2540  179.6810  141.8740 F   0  0  0  0  0  0  0  0  0  0  0  0
  184.9050  177.5690  142.5540 F   0  0  0  0  0  0  0  0  0  0  0  0
  183.1710  179.0010  142.3990 F   0  0  0  0  0  0  0  0  0  0  0  0
  184.3720  178.6180  141.8270 C   0  0  0  0  0  0  0  0  0  0  0  0
  1  9  1  0  0  0  0
  2  7  1  0  0  0  0
  3  6  1  0  0  0  0
  4  3  2  0  0  0  0
  5  4  1  0  0  0  0
  7 10  1  0  0  0  0
  8  5  1  0  0  0  0
  8  1  2  0  0  0  0
  9  4  1  0  0  0  0
  9  7  2  0  0  0  0
 10  6  2  0  0  0  0
 11 17  1  0  0  0  0
 12 17  1  0  0  0  0
 12 16  2  0  0  0  0
 13  3  1  1  0  0  0
 13 12  1  0  0  0  0
 14 15  1  0  0  0  0
 14 13  1  0  0  0  0
 15 18  1  6  0  0  0
 15 11  1  0  0  0  0
 16 22  1  0  0  0  0
 18 21  1  0  0  0  0
 19 21  1  0  0  0  0
 21 20  1  6  0  0  0
 22 23  1  0  0  0  0
 23 24  1  0  0  0  0
 24 25  1  1  0  0  0
 24 26  1  0  0  0  0
 26 28  1  0  0  0  0
 26 27  1  1  0  0  0
 29  8  1  0  0  0  0
 29 30  1  0  0  0  0
 32 31  1  1  0  0  0
 32 33  1  0  0  0  0
 32 30  1  0  0  0  0
 34 33  1  6  0  0  0
 34 36  1  0  0  0  0
 34 37  1  0  0  0  0
 36 39  1  6  0  0  0
 36 37  1  0  0  0  0
 37 35  1  6  0  0  0
 37 41  1  0  0  0  0
 38 39  2  0  0  0  0
 39 40  1  0  0  0  0
 41 43  1  0  0  0  0
 42 43  1  0  0  0  0
 43 48  1  0  0  0  0
 44 42  1  0  0  0  0
 44 46  1  0  0  0  0
 45 47  1  0  0  0  0
 46 45  1  0  0  0  0
 47 52  1  1  0  0  0
 48 47  1  0  0  0  0
 52 49  1  0  0  0  0
 52 51  1  0  0  0  0
 52 50  1  0  0  0  0
M  END
>  <MODEL>
3

>  <REMARK>
 VINA RESULT:      -7.1      4.815     10.569
  Name = 
  16 active torsions:
  status: ('A' for Active; 'I' for Inactive)
    1  A    between atoms: N_4  and  C_14
    2  A    between atoms: N_4  and  C_21
    3  A    between atoms: C_6  and  C_36
    4  A    between atoms: C_6  and  C_38
    5  A    between atoms: C_7  and  C_17
    6  A    between atoms: C_8  and  C_21
    7  A    between atoms: N_9  and  C_19
    8  A    between atoms: O_10  and  C_16
    9  A    between atoms: O_10  and  C_18
   10  A    between atoms: C_14  and  N_37
   11  A    between atoms: C_16  and  N_46
   12  A    between atoms: C_19  and  C_42
   13  A    between atoms: C_27  and  C_29
   14  A    between atoms: C_40  and  C_50
   15  A    between atoms: C_45  and  C_49
   16  A    between atoms: N_46  and  C_50
                            x       y       z     vdW  Elec       q    Type
                         _______ _______ _______ _____ _____    ______ ____

>  <TORSDO>
F 16

$$$$
=
 OpenBabel11062415133D

 52 56  0  0  1  0  0  0  0  0999 V2000
  184.5480  178.9230  141.6770 N   0  0  0  0  0  0  0  0  0  0  0  0
  186.6590  178.6480  139.6960 N   0  0  0  0  0  1  0  0  0  0  0  0
  182.5690  178.1280  138.7490 C   0  0  0  0  0  0  0  0  0  0  0  0
  182.9700  178.4470  140.0450 C   0  0  0  0  0  0  0  0  0  0  0  0
  182.0360  178.6670  141.4240 S   0  0  0  0  0  0  0  0  0  0  0  0
  183.5810  177.9810  137.7830 C   0  0  0  0  0  3  0  0  0  0  0  0
  185.2790  178.4770  139.3900 C   0  0  0  0  0  0  0  0  0  0  0  0
  183.3920  178.9910  142.3810 C   0  0  0  0  0  0  0  0  0  0  0  0
  184.3030  178.6240  140.3750 C   0  0  0  0  0  0  0  0  0  0  0  0
  184.8940  178.1590  138.1190 N   0  0  0  0  0  0  0  0  0  0  0  0
  179.5670  176.8880  136.3100 O   0  0  0  0  0  0  0  0  0  0  0  0
  180.6820  178.7930  137.2560 C   0  0  0  0  0  0  0  0  0  0  0  0
  181.1230  177.9270  138.4110 C   0  0  1  0  0  3  0  0  0  0  0  0
  180.8800  176.5560  138.1600 O   0  0  0  0  0  0  0  0  0  0  0  0
  179.5750  176.4260  137.6410 C   0  0  2  0  0  3  0  0  0  0  0  0
  181.0390  180.0360  137.1680 N   0  0  0  0  0  0  0  0  0  0  0  0
  179.7800  178.2230  136.3490 O   0  0  0  0  0  0  0  0  0  0  0  0
  179.1450  174.9710  137.6760 C   0  0  0  0  0  2  0  0  0  0  0  0
  179.6370  173.8460  139.7240 O   0  0  0  0  0  1  0  0  0  0  0  0
  180.4000  172.8380  137.7150 C   0  0  0  0  0  1  0  0  0  0  0  0
  180.1450  174.1330  138.4560 C   0  0  1  0  0  3  0  0  0  0  0  0
  180.5920  180.9090  136.0910 C   0  0  0  0  0  2  0  0  0  0  0  0
  180.0420  182.1420  136.6490 N   0  0  0  0  0  2  0  0  0  0  0  0
  180.8960  183.2980  136.3410 C   0  0  1  0  0  3  0  0  0  0  0  0
  180.5100  183.9850  135.0370 C   0  0  0  0  0  1  0  0  0  0  0  0
  181.0420  184.2840  137.5040 C   0  0  2  0  0  3  0  0  0  0  0  0
  180.0240  185.4030  137.4000 C   0  0  0  0  0  1  0  0  0  0  0  0
  182.3310  184.8180  137.5680 O   0  0  0  0  0  1  0  0  0  0  0  0
  183.3410  179.2550  143.8430 C   0  0  0  0  0  2  0  0  0  0  0  0
  184.6780  179.5530  144.3280 N   0  0  0  0  0  2  0  0  0  0  0  0
  184.3710  178.9300  146.5510 O   0  0  0  0  0  1  0  0  0  0  0  0
  184.9950  178.5730  145.3560 C   0  0  2  0  0  3  0  0  0  0  0  0
  186.3760  178.5360  145.5520 O   0  0  0  0  0  0  0  0  0  0  0  0
  186.7840  177.3020  145.0280 C   0  0  2  0  0  3  0  0  0  0  0  0
  188.9200  178.7210  144.5420 C   0  0  0  0  0  1  0  0  0  0  0  0
  187.9210  176.6500  145.8440 C   0  0  1  0  0  3  0  0  0  0  0  0
  188.2190  177.3610  144.5240 C   0  0  1  0  0  0  0  0  0  0  0  0
  189.6490  177.7790  147.2740 O   0  0  0  0  0  0  0  0  0  0  0  0
  188.3240  177.4090  147.0810 C   0  0  0  0  0  0  0  0  0  0  0  0
  187.4480  177.7840  147.9040 O   0  0  0  0  0  1  0  0  0  0  0  0
  188.5210  176.4170  143.3740 C   0  0  0  0  0  2  0  0  0  0  0  0
  190.8340  176.3310  143.1200 C   0  0  0  0  0  2  0  0  0  0  0  0
  189.6210  176.9260  142.5700 N   0  0  0  0  0  0  0  0  0  0  0  0
  192.0730  177.0770  142.6320 C   0  0  0  0  0  2  0  0  0  0  0  0
  191.4110  177.8870  140.5310 C   0  0  0  0  0  2  0  0  0  0  0  0
  192.2480  176.8960  141.1970 N   0  0  0  0  0  2  0  0  0  0  0  0
  190.0310  177.3140  140.1620 C   0  0  2  0  0  3  0  0  0  0  0  0
  189.4460  176.3790  141.2300 C   0  0  0  0  0  2  0  0  0  0  0  0
  190.5430  177.4970  137.8390 F   0  0  0  0  0  0  0  0  0  0  0  0
  188.7710  176.2550  138.4420 F   0  0  0  0  0  0  0  0  0  0  0  0
  190.8590  175.5020  138.8350 F   0  0  0  0  0  0  0  0  0  0  0  0
  190.0550  176.6270  138.7970 C   0  0  0  0  0  0  0  0  0  0  0  0
  1  8  2  0  0  0  0
  3  4  1  0  0  0  0
  4  9  2  0  0  0  0
  4  5  1  0  0  0  0
  5  8  1  0  0  0  0
  6 10  1  0  0  0  0
  6  3  2  0  0  0  0
  7  2  1  0  0  0  0
  7  9  1  0  0  0  0
  8 29  1  0  0  0  0
  9  1  1  0  0  0  0
 10  7  2  0  0  0  0
 11 17  1  0  0  0  0
 11 15  1  0  0  0  0
 12 13  1  0  0  0  0
 13  3  1  6  0  0  0
 14 13  1  0  0  0  0
 15 18  1  6  0  0  0
 15 14  1  0  0  0  0
 16 12  2  0  0  0  0
 17 12  1  0  0  0  0
 18 21  1  0  0  0  0
 21 20  1  6  0  0  0
 21 19  1  0  0  0  0
 22 23  1  0  0  0  0
 22 16  1  0  0  0  0
 24 25  1  6  0  0  0
 24 23  1  0  0  0  0
 24 26  1  0  0  0  0
 26 27  1  6  0  0  0
 26 28  1  0  0  0  0
 29 30  1  0  0  0  0
 30 32  1  0  0  0  0
 32 33  1  0  0  0  0
 32 31  1  1  0  0  0
 34 33  1  1  0  0  0
 34 36  1  0  0  0  0
 36 39  1  1  0  0  0
 37 35  1  1  0  0  0
 37 34  1  0  0  0  0
 37 36  1  0  0  0  0
 39 38  2  0  0  0  0
 39 40  1  0  0  0  0
 41 37  1  0  0  0  0
 43 42  1  0  0  0  0
 43 41  1  0  0  0  0
 44 42  1  0  0  0  0
 45 46  1  0  0  0  0
 46 44  1  0  0  0  0
 47 52  1  6  0  0  0
 47 45  1  0  0  0  0
 47 48  1  0  0  0  0
 48 43  1  0  0  0  0
 49 52  1  0  0  0  0
 50 52  1  0  0  0  0
 52 51  1  0  0  0  0
M  END
>  <MODEL>
4

>  <REMARK>
 VINA RESULT:      -6.7      3.586      4.843
  Name = 
  16 active torsions:
  status: ('A' for Active; 'I' for Inactive)
    1  A    between atoms: N_4  and  C_14
    2  A    between atoms: N_4  and  C_21
    3  A    between atoms: C_6  and  C_36
    4  A    between atoms: C_6  and  C_38
    5  A    between atoms: C_7  and  C_17
    6  A    between atoms: C_8  and  C_21
    7  A    between atoms: N_9  and  C_19
    8  A    between atoms: O_10  and  C_16
    9  A    between atoms: O_10  and  C_18
   10  A    between atoms: C_14  and  N_37
   11  A    between atoms: C_16  and  N_46
   12  A    between atoms: C_19  and  C_42
   13  A    between atoms: C_27  and  C_29
   14  A    between atoms: C_40  and  C_50
   15  A    between atoms: C_45  and  C_49
   16  A    between atoms: N_46  and  C_50
                            x       y       z     vdW  Elec       q    Type
                         _______ _______ _______ _____ _____    ______ ____

>  <TORSDO>
F 16

$$$$
=
 OpenBabel11062415133D

 52 56  0  0  1  0  0  0  0  0999 V2000
  187.3630  175.7730  135.4680 N   0  0  0  0  0  0  0  0  0  0  0  0
  186.8600  178.6040  135.0270 N   0  0  0  0  0  1  0  0  0  0  0  0
  189.3300  177.1930  138.1580 C   0  0  0  0  0  0  0  0  0  0  0  0
  188.7150  176.3070  137.2760 C   0  0  0  0  0  0  0  0  0  0  0  0
  188.7720  174.6280  137.2410 S   0  0  0  0  0  0  0  0  0  0  0  0
  189.0870  178.5640  137.9630 C   0  0  0  0  0  3  0  0  0  0  0  0
  187.6900  178.1160  136.0760 C   0  0  0  0  0  0  0  0  0  0  0  0
  187.7590  174.5480  135.8900 C   0  0  0  0  0  0  0  0  0  0  0  0
  187.9050  176.7480  136.2440 C   0  0  0  0  0  0  0  0  0  0  0  0
  188.2860  178.9890  136.9400 N   0  0  0  0  0  0  0  0  0  0  0  0
  191.9940  177.7340  141.1770 O   0  0  0  0  0  0  0  0  0  0  0  0
  191.6650  176.8430  138.9720 C   0  0  0  0  0  0  0  0  0  0  0  0
  190.1940  176.6990  139.2790 C   0  0  1  0  0  3  0  0  0  0  0  0
  189.8420  177.3610  140.4780 O   0  0  0  0  0  0  0  0  0  0  0  0
  190.8020  177.0390  141.4600 C   0  0  2  0  0  3  0  0  0  0  0  0
  192.1460  176.5360  137.8070 N   0  0  0  0  0  0  0  0  0  0  0  0
  192.4980  177.2160  140.0340 O   0  0  0  0  0  0  0  0  0  0  0  0
  190.2940  177.4380  142.8330 C   0  0  0  0  0  2  0  0  0  0  0  0
  191.1990  179.3640  143.9150 O   0  0  0  0  0  1  0  0  0  0  0  0
  191.4740  177.2720  145.0030 C   0  0  0  0  0  1  0  0  0  0  0  0
  191.4210  178.0070  143.6800 C   0  0  1  0  0  3  0  0  0  0  0  0
  193.5660  176.6200  137.4950 C   0  0  0  0  0  2  0  0  0  0  0  0
  194.2330  175.3780  137.8800 N   0  0  0  0  0  2  0  0  0  0  0  0
  194.9360  174.7720  136.7400 C   0  0  1  0  0  3  0  0  0  0  0  0
  194.6740  175.5040  135.4290 C   0  0  0  0  0  1  0  0  0  0  0  0
  196.4280  174.5340  136.9920 C   0  0  2  0  0  3  0  0  0  0  0  0
  196.6600  173.9350  138.3660 C   0  0  0  0  0  1  0  0  0  0  0  0
  197.1690  175.7090  136.8530 O   0  0  0  0  0  1  0  0  0  0  0  0
  187.2930  173.2810  135.2670 C   0  0  0  0  0  2  0  0  0  0  0  0
  185.8570  173.3440  135.0560 N   0  0  0  0  0  2  0  0  0  0  0  0
  184.9360  172.1520  136.8320 O   0  0  0  0  0  1  0  0  0  0  0  0
  185.2290  173.4330  136.3660 C   0  0  2  0  0  3  0  0  0  0  0  0
  184.0470  174.1680  136.2650 O   0  0  0  0  0  0  0  0  0  0  0  0
  183.9380  174.8490  137.4840 C   0  0  2  0  0  3  0  0  0  0  0  0
  182.9150  176.6370  135.8810 C   0  0  0  0  0  1  0  0  0  0  0  0
  182.4750  175.0380  137.9380 C   0  0  1  0  0  3  0  0  0  0  0  0
  183.2480  176.1950  137.3070 C   0  0  1  0  0  0  0  0  0  0  0  0
  180.3570  175.1250  136.5920 O   0  0  0  0  0  0  0  0  0  0  0  0
  181.4490  174.3950  137.0420 C   0  0  0  0  0  0  0  0  0  0  0  0
  181.6220  173.2170  136.6300 O   0  0  0  0  0  1  0  0  0  0  0  0
  183.6800  177.2590  138.3020 C   0  0  0  0  0  2  0  0  0  0  0  0
  182.7040  177.8670  140.3270 C   0  0  0  0  0  2  0  0  0  0  0  0
  182.5190  177.9170  138.8810 N   0  0  0  0  0  0  0  0  0  0  0  0
  181.3940  178.1630  141.0520 C   0  0  0  0  0  2  0  0  0  0  0  0
  180.2710  179.5820  139.5560 C   0  0  0  0  0  2  0  0  0  0  0  0
  180.9860  179.5440  140.8270 N   0  0  0  0  0  2  0  0  0  0  0  0
  181.2020  179.9510  138.3880 C   0  0  2  0  0  3  0  0  0  0  0  0
  182.5970  179.3190  138.4880 C   0  0  0  0  0  2  0  0  0  0  0  0
  180.3660  182.1010  139.0020 F   0  0  0  0  0  0  0  0  0  0  0  0
  181.0670  181.7960  136.8890 F   0  0  0  0  0  0  0  0  0  0  0  0
  182.5680  181.9090  138.5660 F   0  0  0  0  0  0  0  0  0  0  0  0
  181.3060  181.4660  138.2100 C   0  0  0  0  0  0  0  0  0  0  0  0
  1  8  2  0  0  0  0
  1  9  1  0  0  0  0
  2  7  1  0  0  0  0
  4  3  2  0  0  0  0
  5  4  1  0  0  0  0
  6  3  1  0  0  0  0
  7  9  2  0  0  0  0
  7 10  1  0  0  0  0
  8  5  1  0  0  0  0
  9  4  1  0  0  0  0
 10  6  2  0  0  0  0
 11 15  1  0  0  0  0
 12 13  1  0  0  0  0
 12 17  1  0  0  0  0
 13  3  1  6  0  0  0
 13 14  1  0  0  0  0
 14 15  1  0  0  0  0
 15 18  1  1  0  0  0
 16 12  2  0  0  0  0
 17 11  1  0  0  0  0
 18 21  1  0  0  0  0
 21 19  1  0  0  0  0
 21 20  1  1  0  0  0
 22 16  1  0  0  0  0
 22 23  1  0  0  0  0
 24 25  1  6  0  0  0
 24 26  1  0  0  0  0
 24 23  1  0  0  0  0
 26 27  1  1  0  0  0
 28 26  1  0  0  0  0
 29  8  1  0  0  0  0
 30 29  1  0  0  0  0
 30 32  1  0  0  0  0
 32 31  1  6  0  0  0
 33 32  1  0  0  0  0
 34 33  1  6  0  0  0
 34 36  1  0  0  0  0
 36 39  1  6  0  0  0
 37 35  1  6  0  0  0
 37 34  1  0  0  0  0
 37 36  1  0  0  0  0
 37 41  1  0  0  0  0
 38 39  2  0  0  0  0
 40 39  1  0  0  0  0
 41 43  1  0  0  0  0
 42 44  1  0  0  0  0
 43 42  1  0  0  0  0
 45 46  1  0  0  0  0
 46 44  1  0  0  0  0
 47 52  1  1  0  0  0
 47 48  1  0  0  0  0
 47 45  1  0  0  0  0
 48 43  1  0  0  0  0
 50 52  1  0  0  0  0
 52 51  1  0  0  0  0
 52 49  1  0  0  0  0
M  END
>  <MODEL>
5

>  <REMARK>
 VINA RESULT:      -6.6      5.284     11.391
  Name = 
  16 active torsions:
  status: ('A' for Active; 'I' for Inactive)
    1  A    between atoms: N_4  and  C_14
    2  A    between atoms: N_4  and  C_21
    3  A    between atoms: C_6  and  C_36
    4  A    between atoms: C_6  and  C_38
    5  A    between atoms: C_7  and  C_17
    6  A    between atoms: C_8  and  C_21
    7  A    between atoms: N_9  and  C_19
    8  A    between atoms: O_10  and  C_16
    9  A    between atoms: O_10  and  C_18
   10  A    between atoms: C_14  and  N_37
   11  A    between atoms: C_16  and  N_46
   12  A    between atoms: C_19  and  C_42
   13  A    between atoms: C_27  and  C_29
   14  A    between atoms: C_40  and  C_50
   15  A    between atoms: C_45  and  C_49
   16  A    between atoms: N_46  and  C_50
                            x       y       z     vdW  Elec       q    Type
                         _______ _______ _______ _____ _____    ______ ____

>  <TORSDO>
F 16

$$$$
=
 OpenBabel11062415133D

 52 56  0  0  1  0  0  0  0  0999 V2000
  186.4990  177.3360  137.3370 N   0  0  0  0  0  0  0  0  0  0  0  0
  185.5930  175.7560  135.0700 N   0  0  0  0  0  1  0  0  0  0  0  0
  182.9200  177.8250  137.6130 C   0  0  0  0  0  0  0  0  0  0  0  0
  184.2970  177.8750  137.8270 C   0  0  0  0  0  0  0  0  0  0  0  0
  185.1590  178.6690  139.0310 S   0  0  0  0  0  0  0  0  0  0  0  0
  182.4670  177.0560  136.5270 C   0  0  0  0  0  3  0  0  0  0  0  0
  184.7040  176.4580  135.9330 C   0  0  0  0  0  0  0  0  0  0  0  0
  186.6420  178.1240  138.4310 C   0  0  0  0  0  0  0  0  0  0  0  0
  185.1880  177.2070  137.0050 C   0  0  0  0  0  0  0  0  0  0  0  0
  183.3560  176.4010  135.7210 N   0  0  0  0  0  0  0  0  0  0  0  0
  179.4750  178.1010  139.7470 O   0  0  0  0  0  0  0  0  0  0  0  0
  180.6750  178.8960  137.8250 C   0  0  0  0  0  0  0  0  0  0  0  0
  181.9670  178.5440  138.5200 C   0  0  1  0  0  3  0  0  0  0  0  0
  181.7430  177.7700  139.6820 O   0  0  0  0  0  0  0  0  0  0  0  0
  180.6900  178.3610  140.4110 C   0  0  2  0  0  3  0  0  0  0  0  0
  180.6630  179.3760  136.6200 N   0  0  0  0  0  0  0  0  0  0  0  0
  179.5010  178.7870  138.5820 O   0  0  0  0  0  0  0  0  0  0  0  0
  180.6380  177.7800  141.8130 C   0  0  0  0  0  2  0  0  0  0  0  0
  179.8680  178.5090  143.9520 O   0  0  0  0  0  1  0  0  0  0  0  0
  182.0640  179.1420  143.3100 C   0  0  0  0  0  1  0  0  0  0  0  0
  180.6430  178.8870  142.8550 C   0  0  1  0  0  3  0  0  0  0  0  0
  179.4370  179.7680  135.9410 C   0  0  0  0  0  2  0  0  0  0  0  0
  179.2290  181.2070  136.0850 N   0  0  0  0  0  2  0  0  0  0  0  0
  180.5030  181.9170  136.2680 C   0  0  1  0  0  3  0  0  0  0  0  0
  180.8450  182.8260  135.0940 C   0  0  0  0  0  1  0  0  0  0  0  0
  180.6240  182.6300  137.6180 C   0  0  2  0  0  3  0  0  0  0  0  0
  180.4790  184.1310  137.4560 C   0  0  0  0  0  1  0  0  0  0  0  0
  181.8320  182.3340  138.2520 O   0  0  0  0  0  1  0  0  0  0  0  0
  187.9570  178.4130  139.0610 C   0  0  0  0  0  2  0  0  0  0  0  0
  188.7140  177.1790  139.1900 N   0  0  0  0  0  2  0  0  0  0  0  0
  191.0090  176.8740  138.9270 O   0  0  0  0  0  1  0  0  0  0  0  0
  190.0380  177.5320  139.6820 C   0  0  2  0  0  3  0  0  0  0  0  0
  190.1540  177.1440  141.0180 O   0  0  0  0  0  0  0  0  0  0  0  0
  189.1280  177.8260  141.6840 C   0  0  2  0  0  3  0  0  0  0  0  0
  189.2380  175.6600  143.1360 C   0  0  0  0  0  1  0  0  0  0  0  0
  189.5330  178.2860  143.1010 C   0  0  1  0  0  3  0  0  0  0  0  0
  188.6500  177.0540  142.9060 C   0  0  1  0  0  0  0  0  0  0  0  0
  191.9980  178.3650  142.6270 O   0  0  0  0  0  0  0  0  0  0  0  0
  190.9620  177.9920  143.4740 C   0  0  0  0  0  0  0  0  0  0  0  0
  191.2290  177.4820  144.5940 O   0  0  0  0  0  1  0  0  0  0  0  0
  187.1910  177.2820  143.2630 C   0  0  0  0  0  2  0  0  0  0  0  0
  185.6680  177.9400  144.8970 C   0  0  0  0  0  2  0  0  0  0  0  0
  187.0810  177.9720  144.5390 N   0  0  0  0  0  0  0  0  0  0  0  0
  185.3630  178.9550  145.9950 C   0  0  0  0  0  2  0  0  0  0  0  0
  187.3860  179.0770  147.1790 C   0  0  0  0  0  2  0  0  0  0  0  0
  186.0180  178.5740  147.2400 N   0  0  0  0  0  2  0  0  0  0  0  0
  188.3630  178.0110  146.6540 C   0  0  2  0  0  3  0  0  0  0  0  0
  187.7890  177.1540  145.5170 C   0  0  0  0  0  2  0  0  0  0  0  0
  189.3310  177.9130  148.8330 F   0  0  0  0  0  0  0  0  0  0  0  0
  189.9540  176.3700  147.3230 F   0  0  0  0  0  0  0  0  0  0  0  0
  187.8960  176.2810  148.2410 F   0  0  0  0  0  0  0  0  0  0  0  0
  188.8910  177.1270  147.7840 C   0  0  0  0  0  0  0  0  0  0  0  0
  1  8  2  0  0  0  0
  2  7  1  0  0  0  0
  3  4  1  0  0  0  0
  4  5  1  0  0  0  0
  6  3  2  0  0  0  0
  7  9  1  0  0  0  0
  8  5  1  0  0  0  0
  8 29  1  0  0  0  0
  9  1  1  0  0  0  0
  9  4  2  0  0  0  0
 10  7  2  0  0  0  0
 10  6  1  0  0  0  0
 11 15  1  0  0  0  0
 12 13  1  0  0  0  0
 12 17  1  0  0  0  0
 13  3  1  6  0  0  0
 13 14  1  0  0  0  0
 14 15  1  0  0  0  0
 15 18  1  1  0  0  0
 16 12  2  0  0  0  0
 17 11  1  0  0  0  0
 18 21  1  0  0  0  0
 21 20  1  1  0  0  0
 21 19  1  0  0  0  0
 22 23  1  0  0  0  0
 22 16  1  0  0  0  0
 23 24  1  0  0  0  0
 24 25  1  6  0  0  0
 24 26  1  0  0  0  0
 26 27  1  6  0  0  0
 26 28  1  0  0  0  0
 29 30  1  0  0  0  0
 30 32  1  0  0  0  0
 32 31  1  6  0  0  0
 32 33  1  0  0  0  0
 34 33  1  6  0  0  0
 34 37  1  0  0  0  0
 34 36  1  0  0  0  0
 36 39  1  6  0  0  0
 37 36  1  0  0  0  0
 37 35  1  1  0  0  0
 37 41  1  0  0  0  0
 38 39  2  0  0  0  0
 39 40  1  0  0  0  0
 41 43  1  0  0  0  0
 42 44  1  0  0  0  0
 43 42  1  0  0  0  0
 43 48  1  0  0  0  0
 44 46  1  0  0  0  0
 45 46  1  0  0  0  0
 47 45  1  0  0  0  0
 47 52  1  1  0  0  0
 48 47  1  0  0  0  0
 50 52  1  0  0  0  0
 52 51  1  0  0  0  0
 52 49  1  0  0  0  0
M  END
>  <MODEL>
6

>  <REMARK>
 VINA RESULT:      -6.5      3.028      4.828
  Name = 
  16 active torsions:
  status: ('A' for Active; 'I' for Inactive)
    1  A    between atoms: N_4  and  C_14
    2  A    between atoms: N_4  and  C_21
    3  A    between atoms: C_6  and  C_36
    4  A    between atoms: C_6  and  C_38
    5  A    between atoms: C_7  and  C_17
    6  A    between atoms: C_8  and  C_21
    7  A    between atoms: N_9  and  C_19
    8  A    between atoms: O_10  and  C_16
    9  A    between atoms: O_10  and  C_18
   10  A    between atoms: C_14  and  N_37
   11  A    between atoms: C_16  and  N_46
   12  A    between atoms: C_19  and  C_42
   13  A    between atoms: C_27  and  C_29
   14  A    between atoms: C_40  and  C_50
   15  A    between atoms: C_45  and  C_49
   16  A    between atoms: N_46  and  C_50
                            x       y       z     vdW  Elec       q    Type
                         _______ _______ _______ _____ _____    ______ ____

>  <TORSDO>
F 16

$$$$
=
 OpenBabel11062415133D

 52 56  0  0  1  0  0  0  0  0999 V2000
  191.3270  175.6210  136.2660 N   0  0  0  0  0  0  0  0  0  0  0  0
  194.0490  176.3940  136.9360 N   0  0  0  0  0  1  0  0  0  0  0  0
  190.8400  176.7760  139.6650 C   0  0  0  0  0  0  0  0  0  0  0  0
  190.6360  176.2620  138.3860 C   0  0  0  0  0  0  0  0  0  0  0  0
  189.2120  175.7360  137.6650 S   0  0  0  0  0  0  0  0  0  0  0  0
  192.1500  177.1640  139.9990 C   0  0  0  0  0  3  0  0  0  0  0  0
  192.9610  176.5170  137.8460 C   0  0  0  0  0  0  0  0  0  0  0  0
  190.0000  175.3460  136.2210 C   0  0  0  0  0  0  0  0  0  0  0  0
  191.6730  176.1270  137.4790 C   0  0  0  0  0  0  0  0  0  0  0  0
  193.1670  177.0250  139.0960 N   0  0  0  0  0  0  0  0  0  0  0  0
  188.3390  178.9830  141.9830 O   0  0  0  0  0  0  0  0  0  0  0  0
  190.1650  177.4240  141.9800 C   0  0  0  0  0  0  0  0  0  0  0  0
  189.7040  176.9290  140.6310 C   0  0  1  0  0  3  0  0  0  0  0  0
  188.7160  177.7720  140.0730 O   0  0  0  0  0  0  0  0  0  0  0  0
  187.7690  178.0690  141.0760 C   0  0  2  0  0  3  0  0  0  0  0  0
  191.2330  176.9530  142.5460 N   0  0  0  0  0  0  0  0  0  0  0  0
  189.3270  178.3340  142.6380 O   0  0  0  0  0  0  0  0  0  0  0  0
  186.5260  178.6770  140.4530 C   0  0  0  0  0  2  0  0  0  0  0  0
  185.3200  179.7800  142.1940 O   0  0  0  0  0  1  0  0  0  0  0  0
  184.0640  178.4980  140.6390 C   0  0  0  0  0  1  0  0  0  0  0  0
  185.3550  178.6190  141.4210 C   0  0  1  0  0  3  0  0  0  0  0  0
  191.6770  177.3770  143.8660 C   0  0  0  0  0  2  0  0  0  0  0  0
  190.9540  176.6340  144.8950 N   0  0  0  0  0  2  0  0  0  0  0  0
  190.3650  177.5370  145.8940 C   0  0  1  0  0  3  0  0  0  0  0  0
  188.9190  177.9000  145.5800 C   0  0  0  0  0  1  0  0  0  0  0  0
  190.5510  177.0650  147.3390 C   0  0  2  0  0  3  0  0  0  0  0  0
  191.6400  176.0130  147.4330 C   0  0  0  0  0  1  0  0  0  0  0  0
  189.3620  176.5680  147.8770 O   0  0  0  0  0  1  0  0  0  0  0  0
  189.3170  174.8250  135.0080 C   0  0  0  0  0  2  0  0  0  0  0  0
  188.1710  174.0230  135.4040 N   0  0  0  0  0  2  0  0  0  0  0  0
  186.9270  175.8710  134.7240 O   0  0  0  0  0  1  0  0  0  0  0  0
  187.0310  174.4830  134.6260 C   0  0  2  0  0  3  0  0  0  0  0  0
  185.8650  173.8990  135.1230 O   0  0  0  0  0  0  0  0  0  0  0  0
  185.6800  174.4750  136.3860 C   0  0  2  0  0  3  0  0  0  0  0  0
  183.2200  174.5140  135.5130 C   0  0  0  0  0  1  0  0  0  0  0  0
  184.8740  173.5730  137.3450 C   0  0  1  0  0  3  0  0  0  0  0  0
  184.2090  174.7620  136.6540 C   0  0  1  0  0  0  0  0  0  0  0  0
  185.4340  171.5000  136.0430 O   0  0  0  0  0  0  0  0  0  0  0  0
  184.5090  172.2240  136.7840 C   0  0  0  0  0  0  0  0  0  0  0  0
  183.3920  171.7100  137.0570 O   0  0  0  0  0  1  0  0  0  0  0  0
  183.9560  175.9440  137.5740 C   0  0  0  0  0  2  0  0  0  0  0  0
  181.9860  175.8020  138.8080 C   0  0  0  0  0  2  0  0  0  0  0  0
  182.5480  176.3090  137.5610 N   0  0  0  0  0  0  0  0  0  0  0  0
  180.4620  175.7690  138.7420 C   0  0  0  0  0  2  0  0  0  0  0  0
  179.9570  177.5280  137.2730 C   0  0  0  0  0  2  0  0  0  0  0  0
  179.9240  177.1220  138.6730 N   0  0  0  0  0  2  0  0  0  0  0  0
  181.2380  178.3120  136.9370 C   0  0  2  0  0  3  0  0  0  0  0  0
  182.4950  177.7650  137.6280 C   0  0  0  0  0  2  0  0  0  0  0  0
  179.9690  180.0160  138.0230 F   0  0  0  0  0  0  0  0  0  0  0  0
  180.8890  180.4840  136.0270 F   0  0  0  0  0  0  0  0  0  0  0  0
  182.1970  180.3040  137.8550 F   0  0  0  0  0  0  0  0  0  0  0  0
  181.0740  179.8060  137.2180 C   0  0  0  0  0  0  0  0  0  0  0  0
  1  9  1  0  0  0  0
  2  7  1  0  0  0  0
  3  6  1  0  0  0  0
  4  3  2  0  0  0  0
  5  4  1  0  0  0  0
  7 10  1  0  0  0  0
  8  1  2  0  0  0  0
  8  5  1  0  0  0  0
  9  7  2  0  0  0  0
  9  4  1  0  0  0  0
 10  6  2  0  0  0  0
 11 17  1  0  0  0  0
 12 16  2  0  0  0  0
 12 17  1  0  0  0  0
 13  3  1  6  0  0  0
 13 12  1  0  0  0  0
 14 13  1  0  0  0  0
 14 15  1  0  0  0  0
 15 18  1  6  0  0  0
 15 11  1  0  0  0  0
 16 22  1  0  0  0  0
 18 21  1  0  0  0  0
 21 20  1  6  0  0  0
 21 19  1  0  0  0  0
 22 23  1  0  0  0  0
 23 24  1  0  0  0  0
 24 25  1  6  0  0  0
 24 26  1  0  0  0  0
 26 27  1  6  0  0  0
 26 28  1  0  0  0  0
 29 30  1  0  0  0  0
 29  8  1  0  0  0  0
 32 31  1  1  0  0  0
 32 33  1  0  0  0  0
 32 30  1  0  0  0  0
 34 33  1  6  0  0  0
 34 37  1  0  0  0  0
 34 36  1  0  0  0  0
 36 39  1  6  0  0  0
 37 35  1  6  0  0  0
 37 36  1  0  0  0  0
 37 41  1  0  0  0  0
 38 39  2  0  0  0  0
 39 40  1  0  0  0  0
 43 41  1  0  0  0  0
 43 48  1  0  0  0  0
 43 42  1  0  0  0  0
 44 42  1  0  0  0  0
 45 46  1  0  0  0  0
 46 44  1  0  0  0  0
 47 52  1  1  0  0  0
 47 45  1  0  0  0  0
 47 48  1  0  0  0  0
 50 52  1  0  0  0  0
 52 51  1  0  0  0  0
 52 49  1  0  0  0  0
M  END
>  <MODEL>
7

>  <REMARK>
 VINA RESULT:      -6.4      4.689     11.289
  Name = 
  16 active torsions:
  status: ('A' for Active; 'I' for Inactive)
    1  A    between atoms: N_4  and  C_14
    2  A    between atoms: N_4  and  C_21
    3  A    between atoms: C_6  and  C_36
    4  A    between atoms: C_6  and  C_38
    5  A    between atoms: C_7  and  C_17
    6  A    between atoms: C_8  and  C_21
    7  A    between atoms: N_9  and  C_19
    8  A    between atoms: O_10  and  C_16
    9  A    between atoms: O_10  and  C_18
   10  A    between atoms: C_14  and  N_37
   11  A    between atoms: C_16  and  N_46
   12  A    between atoms: C_19  and  C_42
   13  A    between atoms: C_27  and  C_29
   14  A    between atoms: C_40  and  C_50
   15  A    between atoms: C_45  and  C_49
   16  A    between atoms: N_46  and  C_50
                            x       y       z     vdW  Elec       q    Type
                         _______ _______ _______ _____ _____    ______ ____

>  <TORSDO>
F 16

$$$$
=
 OpenBabel11062415133D

 52 56  0  0  1  0  0  0  0  0999 V2000
  183.2840  178.8170  141.6180 N   0  0  0  0  0  0  0  0  0  0  0  0
  181.6770  178.9230  144.0400 N   0  0  0  0  0  1  0  0  0  0  0  0
  179.9610  178.7190  140.1790 C   0  0  0  0  0  0  0  0  0  0  0  0
  181.3440  178.7350  140.3490 C   0  0  0  0  0  0  0  0  0  0  0  0
  182.5590  178.7000  139.1890 S   0  0  0  0  0  0  0  0  0  0  0  0
  179.1710  178.7810  141.3410 C   0  0  0  0  0  3  0  0  0  0  0  0
  181.1120  178.8530  142.7350 C   0  0  0  0  0  0  0  0  0  0  0  0
  183.7790  178.7580  140.3580 C   0  0  0  0  0  0  0  0  0  0  0  0
  181.9250  178.7990  141.6040 C   0  0  0  0  0  0  0  0  0  0  0  0
  179.7560  178.8430  142.5760 N   0  0  0  0  0  0  0  0  0  0  0  0
  180.1640  178.3750  136.1370 O   0  0  0  0  0  0  0  0  0  0  0  0
  179.7170  179.8590  137.9710 C   0  0  0  0  0  0  0  0  0  0  0  0
  179.3470  178.6620  138.8130 C   0  0  1  0  0  3  0  0  0  0  0  0
  179.7030  177.4480  138.1820 O   0  0  0  0  0  0  0  0  0  0  0  0
  179.2950  177.5130  136.8340 C   0  0  2  0  0  3  0  0  0  0  0  0
  179.7140  181.0590  138.4620 N   0  0  0  0  0  0  0  0  0  0  0  0
  179.9540  179.6240  136.6110 O   0  0  0  0  0  0  0  0  0  0  0  0
  179.3410  176.1300  136.2090 C   0  0  0  0  0  2  0  0  0  0  0  0
  181.5760  175.4930  136.7580 O   0  0  0  0  0  1  0  0  0  0  0  0
  180.6670  174.6500  134.7330 C   0  0  0  0  0  1  0  0  0  0  0  0
  180.7360  175.8190  135.6920 C   0  0  1  0  0  3  0  0  0  0  0  0
  180.0220  182.2370  137.6640 C   0  0  0  0  0  2  0  0  0  0  0  0
  179.8220  183.4440  138.4620 N   0  0  0  0  0  2  0  0  0  0  0  0
  179.7660  184.6440  137.6160 C   0  0  1  0  0  3  0  0  0  0  0  0
  179.3160  185.8830  138.3800 C   0  0  0  0  0  1  0  0  0  0  0  0
  181.0400  184.8850  136.8010 C   0  0  2  0  0  3  0  0  0  0  0  0
  181.1300  183.9250  135.6310 C   0  0  0  0  0  1  0  0  0  0  0  0
  182.1860  184.7790  137.5930 O   0  0  0  0  0  1  0  0  0  0  0  0
  185.2330  178.8070  140.0500 C   0  0  0  0  0  2  0  0  0  0  0  0
  185.9620  179.2570  141.2230 N   0  0  0  0  0  2  0  0  0  0  0  0
  186.5890  178.4260  143.3070 O   0  0  0  0  0  1  0  0  0  0  0  0
  186.3380  178.0730  141.9810 C   0  0  2  0  0  3  0  0  0  0  0  0
  187.4920  177.5160  141.4270 O   0  0  0  0  0  0  0  0  0  0  0  0
  188.5430  178.3050  141.9110 C   0  0  2  0  0  3  0  0  0  0  0  0
  189.3810  175.9450  142.6480 C   0  0  0  0  0  1  0  0  0  0  0  0
  189.8680  178.0700  141.1540 C   0  0  1  0  0  3  0  0  0  0  0  0
  189.6380  177.4480  142.5320 C   0  0  1  0  0  0  0  0  0  0  0  0
  190.8180  176.2360  139.7240 O   0  0  0  0  0  1  0  0  0  0  0  0
  189.7720  177.1080  139.9990 C   0  0  0  0  0  0  0  0  0  0  0  0
  188.7080  177.0330  139.3280 O   0  0  0  0  0  0  0  0  0  0  0  0
  190.4120  178.1290  143.6480 C   0  0  0  0  0  2  0  0  0  0  0  0
  191.6040  177.3530  145.4930 C   0  0  0  0  0  2  0  0  0  0  0  0
  190.2750  177.3850  144.8900 N   0  0  0  0  0  0  0  0  0  0  0  0
  191.6810  176.2850  146.5800 C   0  0  0  0  0  2  0  0  0  0  0  0
  189.4780  176.1870  147.3820 C   0  0  0  0  0  2  0  0  0  0  0  0
  190.8260  176.6390  147.7060 N   0  0  0  0  0  2  0  0  0  0  0  0
  188.6380  177.3070  146.7430 C   0  0  2  0  0  3  0  0  0  0  0  0
  189.4280  178.1880  145.7650 C   0  0  0  0  0  2  0  0  0  0  0  0
  188.8710  178.9520  148.4560 F   0  0  0  0  0  0  0  0  0  0  0  0
  187.3270  177.3430  148.7300 F   0  0  0  0  0  0  0  0  0  0  0  0
  186.9910  178.9780  147.2140 F   0  0  0  0  0  0  0  0  0  0  0  0
  187.9430  178.1630  147.8010 C   0  0  0  0  0  0  0  0  0  0  0  0
  3  4  2  0  0  0  0
  3  6  1  0  0  0  0
  4  9  1  0  0  0  0
  5  4  1  0  0  0  0
  5  8  1  0  0  0  0
  6 10  2  0  0  0  0
  7  2  1  0  0  0  0
  8  1  2  0  0  0  0
  9  1  1  0  0  0  0
  9  7  2  0  0  0  0
 10  7  1  0  0  0  0
 11 17  1  0  0  0  0
 11 15  1  0  0  0  0
 12 16  2  0  0  0  0
 12 13  1  0  0  0  0
 13  3  1  1  0  0  0
 14 13  1  0  0  0  0
 15 18  1  6  0  0  0
 15 14  1  0  0  0  0
 17 12  1  0  0  0  0
 21 20  1  6  0  0  0
 21 18  1  0  0  0  0
 21 19  1  0  0  0  0
 22 23  1  0  0  0  0
 22 16  1  0  0  0  0
 24 25  1  1  0  0  0
 24 23  1  0  0  0  0
 26 27  1  6  0  0  0
 26 28  1  0  0  0  0
 26 24  1  0  0  0  0
 29  8  1  0  0  0  0
 29 30  1  0  0  0  0
 30 32  1  0  0  0  0
 32 31  1  1  0  0  0
 33 32  1  0  0  0  0
 34 33  1  6  0  0  0
 34 37  1  0  0  0  0
 36 39  1  6  0  0  0
 36 34  1  0  0  0  0
 36 37  1  0  0  0  0
 37 35  1  1  0  0  0
 37 41  1  0  0  0  0
 38 39  1  0  0  0  0
 40 39  2  0  0  0  0
 41 43  1  0  0  0  0
 42 44  1  0  0  0  0
 43 42  1  0  0  0  0
 43 48  1  0  0  0  0
 44 46  1  0  0  0  0
 45 46  1  0  0  0  0
 47 45  1  0  0  0  0
 47 52  1  1  0  0  0
 48 47  1  0  0  0  0
 51 52  1  0  0  0  0
 52 49  1  0  0  0  0
 52 50  1  0  0  0  0
M  END
>  <MODEL>
8

>  <REMARK>
 VINA RESULT:      -6.4      1.609      2.280
  Name = 
  16 active torsions:
  status: ('A' for Active; 'I' for Inactive)
    1  A    between atoms: N_4  and  C_14
    2  A    between atoms: N_4  and  C_21
    3  A    between atoms: C_6  and  C_36
    4  A    between atoms: C_6  and  C_38
    5  A    between atoms: C_7  and  C_17
    6  A    between atoms: C_8  and  C_21
    7  A    between atoms: N_9  and  C_19
    8  A    between atoms: O_10  and  C_16
    9  A    between atoms: O_10  and  C_18
   10  A    between atoms: C_14  and  N_37
   11  A    between atoms: C_16  and  N_46
   12  A    between atoms: C_19  and  C_42
   13  A    between atoms: C_27  and  C_29
   14  A    between atoms: C_40  and  C_50
   15  A    between atoms: C_45  and  C_49
   16  A    between atoms: N_46  and  C_50
                            x       y       z     vdW  Elec       q    Type
                         _______ _______ _______ _____ _____    ______ ____

>  <TORSDO>
F 16

$$$$
=
 OpenBabel11062415133D

 52 56  0  0  1  0  0  0  0  0999 V2000
  187.2740  175.7330  135.3590 N   0  0  0  0  0  0  0  0  0  0  0  0
  186.8270  178.5480  134.7790 N   0  0  0  0  0  1  0  0  0  0  0  0
  188.9630  177.2400  138.1870 C   0  0  0  0  0  0  0  0  0  0  0  0
  188.4370  176.3250  137.2770 C   0  0  0  0  0  0  0  0  0  0  0  0
  188.4920  174.6460  137.3020 S   0  0  0  0  0  0  0  0  0  0  0  0
  188.7450  178.6040  137.9250 C   0  0  0  0  0  3  0  0  0  0  0  0
  187.5450  178.0950  135.9220 C   0  0  0  0  0  0  0  0  0  0  0  0
  187.6210  174.5220  135.8590 C   0  0  0  0  0  0  0  0  0  0  0  0
  187.7370  176.7330  136.1540 C   0  0  0  0  0  0  0  0  0  0  0  0
  188.0540  178.9960  136.8130 N   0  0  0  0  0  0  0  0  0  0  0  0
  191.4610  177.8400  141.3340 O   0  0  0  0  0  0  0  0  0  0  0  0
  191.2020  176.7820  139.1940 C   0  0  0  0  0  0  0  0  0  0  0  0
  189.7070  176.7830  139.4050 C   0  0  1  0  0  3  0  0  0  0  0  0
  189.3360  177.5760  140.5160 O   0  0  0  0  0  0  0  0  0  0  0  0
  190.1990  177.2690  141.5880 C   0  0  2  0  0  3  0  0  0  0  0  0
  191.7300  176.3340  138.0980 N   0  0  0  0  0  0  0  0  0  0  0  0
  191.9930  177.1830  140.2790 O   0  0  0  0  0  0  0  0  0  0  0  0
  189.6380  177.8290  142.8830 C   0  0  0  0  0  2  0  0  0  0  0  0
  188.4560  175.7580  142.9920 O   0  0  0  0  0  1  0  0  0  0  0  0
  188.0770  177.3230  144.7360 C   0  0  0  0  0  1  0  0  0  0  0  0
  188.3460  177.1230  143.2600 C   0  0  1  0  0  3  0  0  0  0  0  0
  193.1690  176.2780  137.8830 C   0  0  0  0  0  2  0  0  0  0  0  0
  193.5110  175.0780  137.1230 N   0  0  0  0  0  2  0  0  0  0  0  0
  194.9260  174.7190  137.2960 C   0  0  1  0  0  3  0  0  0  0  0  0
  195.2690  174.3510  138.7340 C   0  0  0  0  0  1  0  0  0  0  0  0
  195.4260  173.6800  136.2880 C   0  0  2  0  0  3  0  0  0  0  0  0
  194.7290  172.3480  136.4870 C   0  0  0  0  0  1  0  0  0  0  0  0
  196.8100  173.5100  136.3670 O   0  0  0  0  0  1  0  0  0  0  0  0
  187.2160  173.2360  135.2330 C   0  0  0  0  0  2  0  0  0  0  0  0
  185.8390  173.3290  134.7800 N   0  0  0  0  0  2  0  0  0  0  0  0
  185.0260  171.5610  136.0600 O   0  0  0  0  0  1  0  0  0  0  0  0
  184.9880  172.9460  135.8970 C   0  0  2  0  0  3  0  0  0  0  0  0
  183.6760  173.3430  135.6380 O   0  0  0  0  0  0  0  0  0  0  0  0
  183.0380  173.3240  136.8850 C   0  0  2  0  0  3  0  0  0  0  0  0
  181.5540  175.0810  135.6510 C   0  0  0  0  0  1  0  0  0  0  0  0
  181.6210  172.7150  136.8260 C   0  0  1  0  0  3  0  0  0  0  0  0
  181.8140  174.2300  136.8950 C   0  0  1  0  0  0  0  0  0  0  0  0
  181.8570  171.0750  134.9380 O   0  0  0  0  0  1  0  0  0  0  0  0
  181.2180  172.1860  135.4750 C   0  0  0  0  0  0  0  0  0  0  0  0
  180.2430  172.6970  134.8630 O   0  0  0  0  0  0  0  0  0  0  0  0
  181.4860  174.8280  138.2530 C   0  0  0  0  0  2  0  0  0  0  0  0
  180.3220  176.6970  139.0110 C   0  0  0  0  0  2  0  0  0  0  0  0
  181.4390  176.2800  138.1720 N   0  0  0  0  0  0  0  0  0  0  0  0
  179.9220  178.1380  138.7060 C   0  0  0  0  0  2  0  0  0  0  0  0
  181.9400  179.1090  138.0040 C   0  0  0  0  0  2  0  0  0  0  0  0
  180.9820  179.0570  139.1020 N   0  0  0  0  0  2  0  0  0  0  0  0
  183.0970  178.1150  138.2080 C   0  0  2  0  0  3  0  0  0  0  0  0
  182.6570  176.7720  138.8060 C   0  0  0  0  0  2  0  0  0  0  0  0
  184.1830  180.1090  138.9420 F   0  0  0  0  0  0  0  0  0  0  0  0
  185.4470  178.2940  138.5490 F   0  0  0  0  0  0  0  0  0  0  0  0
  184.1100  178.3630  140.3630 F   0  0  0  0  0  0  0  0  0  0  0  0
  184.2270  178.7300  139.0340 C   0  0  0  0  0  0  0  0  0  0  0  0
  1  8  2  0  0  0  0
  1  9  1  0  0  0  0
  2  7  1  0  0  0  0
  4  5  1  0  0  0  0
  4  3  2  0  0  0  0
  6  3  1  0  0  0  0
  7  9  2  0  0  0  0
  7 10  1  0  0  0  0
  8  5  1  0  0  0  0
  9  4  1  0  0  0  0
 10  6  2  0  0  0  0
 11 15  1  0  0  0  0
 12 13  1  0  0  0  0
 12 17  1  0  0  0  0
 13  3  1  6  0  0  0
 13 14  1  0  0  0  0
 14 15  1  0  0  0  0
 15 18  1  1  0  0  0
 16 12  2  0  0  0  0
 17 11  1  0  0  0  0
 18 21  1  0  0  0  0
 19 21  1  0  0  0  0
 21 20  1  1  0  0  0
 22 16  1  0  0  0  0
 23 24  1  0  0  0  0
 23 22  1  0  0  0  0
 24 25  1  1  0  0  0
 26 28  1  0  0  0  0
 26 27  1  1  0  0  0
 26 24  1  0  0  0  0
 29  8  1  0  0  0  0
 30 29  1  0  0  0  0
 30 32  1  0  0  0  0
 32 31  1  6  0  0  0
 33 32  1  0  0  0  0
 34 33  1  6  0  0  0
 34 37  1  0  0  0  0
 36 39  1  6  0  0  0
 36 34  1  0  0  0  0
 36 37  1  0  0  0  0
 37 35  1  6  0  0  0
 37 41  1  0  0  0  0
 38 39  1  0  0  0  0
 40 39  2  0  0  0  0
 43 41  1  0  0  0  0
 43 48  1  0  0  0  0
 43 42  1  0  0  0  0
 44 42  1  0  0  0  0
 44 46  1  0  0  0  0
 45 47  1  0  0  0  0
 45 46  1  0  0  0  0
 47 48  1  0  0  0  0
 47 52  1  1  0  0  0
 49 52  1  0  0  0  0
 50 52  1  0  0  0  0
 52 51  1  0  0  0  0
M  END
>  <MODEL>
9

>  <REMARK>
 VINA RESULT:      -6.4      4.864     11.274
  Name = 
  16 active torsions:
  status: ('A' for Active; 'I' for Inactive)
    1  A    between atoms: N_4  and  C_14
    2  A    between atoms: N_4  and  C_21
    3  A    between atoms: C_6  and  C_36
    4  A    between atoms: C_6  and  C_38
    5  A    between atoms: C_7  and  C_17
    6  A    between atoms: C_8  and  C_21
    7  A    between atoms: N_9  and  C_19
    8  A    between atoms: O_10  and  C_16
    9  A    between atoms: O_10  and  C_18
   10  A    between atoms: C_14  and  N_37
   11  A    between atoms: C_16  and  N_46
   12  A    between atoms: C_19  and  C_42
   13  A    between atoms: C_27  and  C_29
   14  A    between atoms: C_40  and  C_50
   15  A    between atoms: C_45  and  C_49
   16  A    between atoms: N_46  and  C_50
                            x       y       z     vdW  Elec       q    Type
                         _______ _______ _______ _____ _____    ______ ____

>  <TORSDO>
F 16

$$$$
