=
 OpenBabel11062417523D

 39 42  0  0  1  0  0  0  0  0999 V2000
  183.1610  178.2120  140.6130 C   0  0  0  0  0  0  0  0  0  0  0  0
  183.7590  178.0360  141.8630 C   0  0  0  0  0  3  0  0  0  0  0  0
  185.8410  178.9020  140.9990 C   0  0  0  0  0  3  0  0  0  0  0  0
  185.2470  179.0810  139.7470 C   0  0  0  0  0  3  0  0  0  0  0  0
  185.1090  178.3680  142.0710 C   0  0  0  0  0  0  0  0  0  0  0  0
  181.8570  177.8790  140.4440 F   0  0  0  0  0  0  0  0  0  0  0  0
  183.9090  178.7330  139.5470 C   0  0  0  0  0  0  0  0  0  0  0  0
  184.7320  178.7910  146.9590 N   0  0  0  0  0  1  0  0  0  0  0  0
  187.5200  177.5710  144.9210 C   0  0  0  0  0  3  0  0  0  0  0  0
  186.7610  177.9400  145.9840 N   0  0  0  0  0  0  0  0  0  0  0  0
  187.0260  177.6810  143.6130 C   0  0  0  0  0  0  0  0  0  0  0  0
  185.5020  178.4200  145.8230 C   0  0  0  0  0  0  0  0  0  0  0  0
  185.7200  178.1940  143.4170 C   0  0  0  0  0  0  0  0  0  0  0  0
  184.9650  178.5530  144.5440 C   0  0  0  0  0  3  0  0  0  0  0  0
  187.8240  177.2530  142.4970 N   0  0  0  0  0  2  0  0  0  0  0  0
  189.2730  177.3950  142.3570 C   0  0  1  0  0  3  0  0  0  0  0  0
  191.0230  177.0800  144.1640 C   0  0  0  0  0  0  0  0  0  0  0  0
  191.3610  178.2930  144.0890 O   0  0  0  0  0  0  0  0  0  0  0  0
  189.9710  176.5740  143.3390 N   0  0  0  0  0  2  0  0  0  0  0  0
  191.7120  176.1860  145.1020 C   0  0  0  0  0  0  0  0  0  0  0  0
  192.5310  175.7160  147.4390 C   0  0  0  0  0  1  0  0  0  0  0  0
  191.8510  176.5630  146.4730 N   0  0  0  0  0  2  0  0  0  0  0  0
  192.1790  175.0880  144.6930 O   0  0  0  0  0  0  0  0  0  0  0  0
  189.1300  177.8300  139.7780 C   0  0  0  0  0  1  0  0  0  0  0  0
  189.7160  177.1080  140.9480 C   0  0  0  0  0  0  0  0  0  0  0  0
  190.5940  176.2830  140.7560 O   0  0  0  0  0  0  0  0  0  0  0  0
  183.2870  178.9460  138.2070 C   0  0  0  0  0  2  0  0  0  0  0  0
  182.8670  177.6190  137.5860 C   0  0  1  0  0  3  0  0  0  0  0  0
  182.2320  177.8700  136.3660 O   0  0  0  0  0  1  0  0  0  0  0  0
  185.9470  177.7790  136.5340 C   0  0  0  0  0  2  0  0  0  0  0  0
  185.6130  175.9800  135.5170 C   0  0  2  0  0  3  0  0  0  0  0  0
  184.0880  176.7020  137.3980 C   0  0  1  0  0  3  0  0  0  0  0  0
  183.6830  175.2270  137.5410 C   0  0  2  0  0  3  0  0  0  0  0  0
  183.1830  174.9910  138.8250 O   0  0  0  0  0  1  0  0  0  0  0  0
  184.7700  177.0220  136.1250 N   0  0  1  0  0  0  0  0  0  0  0  0
  184.9020  174.3600  137.3170 C   0  0  2  0  0  3  0  0  0  0  0  0
  185.3160  174.5240  135.8790 C   0  0  0  0  0  2  0  0  0  0  0  0
  184.5160  172.6410  137.5950 Cl  0  0  0  0  0  0  0  0  0  0  0  0
  187.2290  176.5700  136.0720 S   0  0  0  0  0  0  0  0  0  0  0  0
  1  2  1  0  0  0  0
  2  5  2  0  0  0  0
  3  5  1  0  0  0  0
  4  3  2  0  0  0  0
  5 13  1  0  0  0  0
  6  1  1  0  0  0  0
  7  4  1  0  0  0  0
  7  1  2  0  0  0  0
  9 10  1  0  0  0  0
 11  9  2  0  0  0  0
 12 10  2  0  0  0  0
 12  8  1  0  0  0  0
 13 11  1  0  0  0  0
 13 14  2  0  0  0  0
 14 12  1  0  0  0  0
 15 11  1  0  0  0  0
 16 25  1  6  0  0  0
 16 15  1  0  0  0  0
 16 19  1  0  0  0  0
 17 20  1  0  0  0  0
 18 17  2  0  0  0  0
 19 17  1  0  0  0  0
 20 22  1  0  0  0  0
 22 21  1  0  0  0  0
 23 20  2  0  0  0  0
 24 25  1  0  0  0  0
 26 25  2  0  0  0  0
 27  7  1  0  0  0  0
 28 29  1  6  0  0  0
 28 27  1  0  0  0  0
 31 37  1  1  0  0  0
 31 39  1  0  0  0  0
 31 35  1  0  0  0  0
 32 33  1  0  0  0  0
 32 28  1  6  0  0  0
 33 34  1  1  0  0  0
 35 30  1  1  0  0  0
 35 32  1  0  0  0  0
 36 33  1  0  0  0  0
 36 38  1  6  0  0  0
 37 36  1  0  0  0  0
 39 30  1  0  0  0  0
M  END
>  <MODEL>
1

>  <REMARK>
 VINA RESULT:      -8.5      0.000      0.000
  Name = 
  9 active torsions:
  status: ('A' for Active; 'I' for Inactive)
    1  A    between atoms: C_5  and  C_6
    2  A    between atoms: C_7  and  C_8
    3  A    between atoms: C_7  and  C_38
    4  A    between atoms: C_8  and  C_16
    5  A    between atoms: N_14  and  C_20
    6  A    between atoms: N_14  and  C_23
    7  A    between atoms: C_19  and  C_20
    8  A    between atoms: C_20  and  N_26
    9  A    between atoms: C_28  and  C_31
                            x       y       z     vdW  Elec       q    Type
                         _______ _______ _______ _____ _____    ______ ____

>  <TORSDO>
F 9

$$$$
=
 OpenBabel11062417523D

 39 42  0  0  1  0  0  0  0  0999 V2000
  184.7310  178.9330  142.7940 C   0  0  0  0  0  0  0  0  0  0  0  0
  185.8750  178.5560  143.5030 C   0  0  0  0  0  3  0  0  0  0  0  0
  184.5710  178.3690  145.5260 C   0  0  0  0  0  3  0  0  0  0  0  0
  183.4240  178.7450  144.8230 C   0  0  0  0  0  3  0  0  0  0  0  0
  185.8140  178.2780  144.8790 C   0  0  0  0  0  0  0  0  0  0  0  0
  184.8250  179.1970  141.4670 F   0  0  0  0  0  0  0  0  0  0  0  0
  183.5000  179.0330  143.4580 C   0  0  0  0  0  0  0  0  0  0  0  0
  188.3750  178.1120  149.0780 N   0  0  0  0  0  1  0  0  0  0  0  0
  189.2310  176.8220  145.7570 C   0  0  0  0  0  3  0  0  0  0  0  0
  189.2950  177.1440  147.0750 N   0  0  0  0  0  0  0  0  0  0  0  0
  188.1080  177.1610  144.9890 C   0  0  0  0  0  0  0  0  0  0  0  0
  188.2790  177.7960  147.6950 C   0  0  0  0  0  0  0  0  0  0  0  0
  187.0400  177.8560  145.6090 C   0  0  0  0  0  0  0  0  0  0  0  0
  187.1420  178.1600  146.9750 C   0  0  0  0  0  3  0  0  0  0  0  0
  188.0360  176.7840  143.6040 N   0  0  0  0  0  2  0  0  0  0  0  0
  189.0660  176.9950  142.5880 C   0  0  1  0  0  3  0  0  0  0  0  0
  189.0830  177.4750  140.0990 C   0  0  0  0  0  0  0  0  0  0  0  0
  190.1110  176.7630  139.9380 O   0  0  0  0  0  0  0  0  0  0  0  0
  188.4990  177.6150  141.3960 N   0  0  0  0  0  2  0  0  0  0  0  0
  188.4830  178.1620  138.9490 C   0  0  0  0  0  0  0  0  0  0  0  0
  186.6700  178.2780  137.2020 C   0  0  0  0  0  1  0  0  0  0  0  0
  187.2980  177.6400  138.3470 N   0  0  0  0  0  2  0  0  0  0  0  0
  189.0180  179.2100  138.4960 O   0  0  0  0  0  0  0  0  0  0  0  0
  191.5630  177.1380  143.3680 C   0  0  0  0  0  1  0  0  0  0  0  0
  190.2290  177.7730  143.1440 C   0  0  0  0  0  0  0  0  0  0  0  0
  190.0870  178.9590  143.3920 O   0  0  0  0  0  0  0  0  0  0  0  0
  182.2610  179.4180  142.7190 C   0  0  0  0  0  2  0  0  0  0  0  0
  181.5280  178.1840  142.2070 C   0  0  1  0  0  3  0  0  0  0  0  0
  180.2120  178.2120  142.6770 O   0  0  0  0  0  1  0  0  0  0  0  0
  182.1200  176.0540  139.8120 C   0  0  0  0  0  2  0  0  0  0  0  0
  183.2340  177.5500  138.8610 C   0  0  2  0  0  3  0  0  0  0  0  0
  181.5690  178.1330  140.6700 C   0  0  1  0  0  3  0  0  0  0  0  0
  181.5350  179.5520  140.0820 C   0  0  2  0  0  3  0  0  0  0  0  0
  180.3450  180.1910  140.4440 O   0  0  0  0  0  1  0  0  0  0  0  0
  182.7190  177.3190  140.2200 N   0  0  1  0  0  0  0  0  0  0  0  0
  181.6090  179.4600  138.5740 C   0  0  2  0  0  3  0  0  0  0  0  0
  182.9670  178.9130  138.2220 C   0  0  0  0  0  2  0  0  0  0  0  0
  181.4470  181.0740  137.8330 Cl  0  0  0  0  0  0  0  0  0  0  0  0
  182.4320  176.1640  138.0210 S   0  0  0  0  0  0  0  0  0  0  0  0
  1  7  2  0  0  0  0
  1  2  1  0  0  0  0
  2  5  2  0  0  0  0
  4  3  2  0  0  0  0
  5  3  1  0  0  0  0
  5 13  1  0  0  0  0
  6  1  1  0  0  0  0
  7  4  1  0  0  0  0
  9 10  1  0  0  0  0
 10 12  2  0  0  0  0
 11 13  1  0  0  0  0
 11  9  2  0  0  0  0
 12  8  1  0  0  0  0
 13 14  2  0  0  0  0
 14 12  1  0  0  0  0
 15 11  1  0  0  0  0
 16 19  1  6  0  0  0
 16 25  1  0  0  0  0
 16 15  1  0  0  0  0
 17 19  1  0  0  0  0
 18 17  2  0  0  0  0
 20 17  1  0  0  0  0
 21 22  1  0  0  0  0
 22 20  1  0  0  0  0
 23 20  2  0  0  0  0
 25 24  1  0  0  0  0
 25 26  2  0  0  0  0
 27  7  1  0  0  0  0
 28 29  1  6  0  0  0
 28 27  1  0  0  0  0
 31 37  1  6  0  0  0
 31 35  1  0  0  0  0
 32 28  1  1  0  0  0
 33 34  1  6  0  0  0
 33 32  1  0  0  0  0
 35 30  1  6  0  0  0
 35 32  1  0  0  0  0
 36 38  1  6  0  0  0
 36 33  1  0  0  0  0
 37 36  1  0  0  0  0
 39 31  1  0  0  0  0
 39 30  1  0  0  0  0
M  END
>  <MODEL>
2

>  <REMARK>
 VINA RESULT:      -8.4      3.025      5.131
  Name = 
  9 active torsions:
  status: ('A' for Active; 'I' for Inactive)
    1  A    between atoms: C_5  and  C_6
    2  A    between atoms: C_7  and  C_8
    3  A    between atoms: C_7  and  C_38
    4  A    between atoms: C_8  and  C_16
    5  A    between atoms: N_14  and  C_20
    6  A    between atoms: N_14  and  C_23
    7  A    between atoms: C_19  and  C_20
    8  A    between atoms: C_20  and  N_26
    9  A    between atoms: C_28  and  C_31
                            x       y       z     vdW  Elec       q    Type
                         _______ _______ _______ _____ _____    ______ ____

>  <TORSDO>
F 9

$$$$
=
 OpenBabel11062417523D

 39 42  0  0  1  0  0  0  0  0999 V2000
  185.0770  178.2400  146.1140 C   0  0  0  0  0  0  0  0  0  0  0  0
  184.0140  178.5870  145.2750 C   0  0  0  0  0  3  0  0  0  0  0  0
  185.2850  177.8690  143.3520 C   0  0  0  0  0  3  0  0  0  0  0  0
  186.3510  177.5190  144.1860 C   0  0  0  0  0  3  0  0  0  0  0  0
  184.1070  178.4170  143.8830 C   0  0  0  0  0  0  0  0  0  0  0  0
  184.9570  178.4200  147.4530 F   0  0  0  0  0  0  0  0  0  0  0  0
  186.2530  177.7070  145.5670 C   0  0  0  0  0  0  0  0  0  0  0  0
  179.4840  180.0480  143.4630 N   0  0  0  0  0  1  0  0  0  0  0  0
  181.8450  179.0020  140.8650 C   0  0  0  0  0  3  0  0  0  0  0  0
  180.7240  179.4440  141.4910 N   0  0  0  0  0  0  0  0  0  0  0  0
  182.9900  178.6590  141.6000 C   0  0  0  0  0  0  0  0  0  0  0  0
  180.6710  179.5760  142.8400 C   0  0  0  0  0  0  0  0  0  0  0  0
  182.9550  178.7730  143.0110 C   0  0  0  0  0  0  0  0  0  0  0  0
  181.7800  179.2440  143.6170 C   0  0  0  0  0  3  0  0  0  0  0  0
  184.1820  178.2260  140.9240 N   0  0  0  0  0  2  0  0  0  0  0  0
  184.9800  179.0060  139.9800 C   0  0  1  0  0  3  0  0  0  0  0  0
  187.4090  178.2870  140.0940 C   0  0  0  0  0  0  0  0  0  0  0  0
  187.6040  179.0050  141.1120 O   0  0  0  0  0  0  0  0  0  0  0  0
  186.1140  178.2280  139.4930 N   0  0  0  0  0  2  0  0  0  0  0  0
  188.5150  177.5080  139.5260 C   0  0  0  0  0  0  0  0  0  0  0  0
  190.9310  176.7930  139.6180 C   0  0  0  0  0  1  0  0  0  0  0  0
  189.8020  177.5410  140.1460 N   0  0  0  0  0  2  0  0  0  0  0  0
  188.3250  176.8120  138.4910 O   0  0  0  0  0  0  0  0  0  0  0  0
  183.4010  178.6380  137.9230 C   0  0  0  0  0  1  0  0  0  0  0  0
  184.1300  179.5450  138.8610 C   0  0  0  0  0  0  0  0  0  0  0  0
  184.0100  180.7520  138.7320 O   0  0  0  0  0  0  0  0  0  0  0  0
  187.3950  177.3120  146.4440 C   0  0  0  0  0  2  0  0  0  0  0  0
  188.3880  178.4600  146.5910 C   0  0  1  0  0  3  0  0  0  0  0  0
  188.4940  178.7950  147.9450 O   0  0  0  0  0  1  0  0  0  0  0  0
  190.2010  179.0010  143.9370 C   0  0  0  0  0  2  0  0  0  0  0  0
  190.6500  176.9560  143.9210 C   0  0  2  0  0  3  0  0  0  0  0  0
  189.7560  178.0650  146.0080 C   0  0  1  0  0  3  0  0  0  0  0  0
  190.3660  176.9000  146.8030 C   0  0  2  0  0  3  0  0  0  0  0  0
  190.5770  177.2850  148.1300 O   0  0  0  0  0  1  0  0  0  0  0  0
  189.6330  177.8090  144.5560 N   0  0  1  0  0  0  0  0  0  0  0  0
  191.6910  176.5210  146.1790 C   0  0  2  0  0  3  0  0  0  0  0  0
  191.4030  175.9660  144.8100 C   0  0  0  0  0  2  0  0  0  0  0  0
  192.5030  175.2550  147.1380 Cl  0  0  0  0  0  0  0  0  0  0  0  0
  191.6880  178.2500  143.2020 S   0  0  0  0  0  0  0  0  0  0  0  0
  1  6  1  0  0  0  0
  2  1  2  0  0  0  0
  3  5  2  0  0  0  0
  3  4  1  0  0  0  0
  4  7  2  0  0  0  0
  5  2  1  0  0  0  0
  7  1  1  0  0  0  0
  7 27  1  0  0  0  0
  9 10  2  0  0  0  0
  9 11  1  0  0  0  0
 10 12  1  0  0  0  0
 11 13  2  0  0  0  0
 12  8  1  0  0  0  0
 12 14  2  0  0  0  0
 13 14  1  0  0  0  0
 13  5  1  0  0  0  0
 15 11  1  0  0  0  0
 16 25  1  6  0  0  0
 16 15  1  0  0  0  0
 17 18  2  0  0  0  0
 19 16  1  0  0  0  0
 19 17  1  0  0  0  0
 20 17  1  0  0  0  0
 20 22  1  0  0  0  0
 21 22  1  0  0  0  0
 23 20  2  0  0  0  0
 24 25  1  0  0  0  0
 26 25  2  0  0  0  0
 27 28  1  0  0  0  0
 28 29  1  1  0  0  0
 31 35  1  0  0  0  0
 31 37  1  1  0  0  0
 32 28  1  1  0  0  0
 32 33  1  0  0  0  0
 33 34  1  1  0  0  0
 35 30  1  6  0  0  0
 35 32  1  0  0  0  0
 36 33  1  0  0  0  0
 36 38  1  1  0  0  0
 37 36  1  0  0  0  0
 39 31  1  0  0  0  0
 39 30  1  0  0  0  0
M  END
>  <MODEL>
3

>  <REMARK>
 VINA RESULT:      -8.4      3.856      7.853
  Name = 
  9 active torsions:
  status: ('A' for Active; 'I' for Inactive)
    1  A    between atoms: C_5  and  C_6
    2  A    between atoms: C_7  and  C_8
    3  A    between atoms: C_7  and  C_38
    4  A    between atoms: C_8  and  C_16
    5  A    between atoms: N_14  and  C_20
    6  A    between atoms: N_14  and  C_23
    7  A    between atoms: C_19  and  C_20
    8  A    between atoms: C_20  and  N_26
    9  A    between atoms: C_28  and  C_31
                            x       y       z     vdW  Elec       q    Type
                         _______ _______ _______ _____ _____    ______ ____

>  <TORSDO>
F 9

$$$$
=
 OpenBabel11062417523D

 39 42  0  0  1  0  0  0  0  0999 V2000
  190.9710  177.6510  141.5480 C   0  0  0  0  0  0  0  0  0  0  0  0
  190.8170  177.5860  142.9350 C   0  0  0  0  0  3  0  0  0  0  0  0
  188.4590  177.1410  142.6620 C   0  0  0  0  0  3  0  0  0  0  0  0
  188.6080  177.2040  141.2740 C   0  0  0  0  0  3  0  0  0  0  0  0
  189.5590  177.3410  143.5110 C   0  0  0  0  0  0  0  0  0  0  0  0
  192.1980  177.8920  141.0230 F   0  0  0  0  0  0  0  0  0  0  0  0
  189.8610  177.4630  140.7120 C   0  0  0  0  0  0  0  0  0  0  0  0
  191.6970  177.0510  147.9340 N   0  0  0  0  0  1  0  0  0  0  0  0
  188.1430  177.1210  147.0490 C   0  0  0  0  0  3  0  0  0  0  0  0
  189.2970  177.0630  147.7640 N   0  0  0  0  0  0  0  0  0  0  0  0
  188.1690  177.2220  145.6510 C   0  0  0  0  0  0  0  0  0  0  0  0
  190.5090  177.1070  147.1560 C   0  0  0  0  0  0  0  0  0  0  0  0
  189.4220  177.2540  144.9910 C   0  0  0  0  0  0  0  0  0  0  0  0
  190.5900  177.2030  145.7680 C   0  0  0  0  0  3  0  0  0  0  0  0
  186.9420  177.3190  144.9080 N   0  0  0  0  0  2  0  0  0  0  0  0
  186.0620  178.4830  144.8260 C   0  0  1  0  0  3  0  0  0  0  0  0
  184.8910  178.8650  142.6100 C   0  0  0  0  0  0  0  0  0  0  0  0
  185.8120  179.6340  142.2220 O   0  0  0  0  0  0  0  0  0  0  0  0
  184.9670  178.2410  143.8940 N   0  0  0  0  0  2  0  0  0  0  0  0
  183.7390  178.6070  141.7390 C   0  0  0  0  0  0  0  0  0  0  0  0
  181.2400  178.5340  141.4200 C   0  0  0  0  0  1  0  0  0  0  0  0
  182.4130  178.7840  142.2400 N   0  0  0  0  0  2  0  0  0  0  0  0
  183.9240  178.2310  140.5490 O   0  0  0  0  0  0  0  0  0  0  0  0
  184.5790  178.0830  146.9470 C   0  0  0  0  0  1  0  0  0  0  0  0
  185.5760  178.8980  146.1890 C   0  0  0  0  0  0  0  0  0  0  0  0
  186.0260  179.9090  146.7000 O   0  0  0  0  0  0  0  0  0  0  0  0
  190.0030  177.5110  139.2270 C   0  0  0  0  0  2  0  0  0  0  0  0
  188.7640  178.1200  138.5820 C   0  0  1  0  0  3  0  0  0  0  0  0
  189.0530  179.4340  138.2000 O   0  0  0  0  0  1  0  0  0  0  0  0
  190.0310  176.0860  136.3720 C   0  0  0  0  0  2  0  0  0  0  0  0
  188.8870  177.0710  134.9220 C   0  0  2  0  0  3  0  0  0  0  0  0
  188.3160  177.2770  137.3750 C   0  0  1  0  0  3  0  0  0  0  0  0
  186.8970  177.6700  136.9390 C   0  0  2  0  0  3  0  0  0  0  0  0
  185.9930  177.4210  137.9750 O   0  0  0  0  0  1  0  0  0  0  0  0
  189.3260  177.3600  136.2960 N   0  0  1  0  0  0  0  0  0  0  0  0
  186.5080  176.8440  135.7330 C   0  0  2  0  0  3  0  0  0  0  0  0
  187.4050  177.2540  134.5950 C   0  0  0  0  0  2  0  0  0  0  0  0
  184.8190  177.1700  135.2600 Cl  0  0  0  0  0  0  0  0  0  0  0  0
  189.4720  175.3650  134.7960 S   0  0  0  0  0  0  0  0  0  0  0  0
  1  2  1  0  0  0  0
  2  5  2  0  0  0  0
  3  5  1  0  0  0  0
  4  3  2  0  0  0  0
  5 13  1  0  0  0  0
  6  1  1  0  0  0  0
  7  4  1  0  0  0  0
  7  1  2  0  0  0  0
  9 10  1  0  0  0  0
 11  9  2  0  0  0  0
 12 10  2  0  0  0  0
 12  8  1  0  0  0  0
 13 11  1  0  0  0  0
 13 14  2  0  0  0  0
 14 12  1  0  0  0  0
 15 11  1  0  0  0  0
 16 19  1  6  0  0  0
 16 15  1  0  0  0  0
 16 25  1  0  0  0  0
 17 19  1  0  0  0  0
 18 17  2  0  0  0  0
 20 22  1  0  0  0  0
 20 17  1  0  0  0  0
 21 22  1  0  0  0  0
 23 20  2  0  0  0  0
 25 26  2  0  0  0  0
 25 24  1  0  0  0  0
 27  7  1  0  0  0  0
 28 29  1  6  0  0  0
 28 27  1  0  0  0  0
 31 37  1  1  0  0  0
 31 35  1  0  0  0  0
 32 28  1  1  0  0  0
 33 32  1  0  0  0  0
 33 34  1  1  0  0  0
 35 30  1  1  0  0  0
 35 32  1  0  0  0  0
 36 38  1  6  0  0  0
 36 33  1  0  0  0  0
 37 36  1  0  0  0  0
 39 31  1  0  0  0  0
 39 30  1  0  0  0  0
M  END
>  <MODEL>
4

>  <REMARK>
 VINA RESULT:      -8.4      3.421      6.292
  Name = 
  9 active torsions:
  status: ('A' for Active; 'I' for Inactive)
    1  A    between atoms: C_5  and  C_6
    2  A    between atoms: C_7  and  C_8
    3  A    between atoms: C_7  and  C_38
    4  A    between atoms: C_8  and  C_16
    5  A    between atoms: N_14  and  C_20
    6  A    between atoms: N_14  and  C_23
    7  A    between atoms: C_19  and  C_20
    8  A    between atoms: C_20  and  N_26
    9  A    between atoms: C_28  and  C_31
                            x       y       z     vdW  Elec       q    Type
                         _______ _______ _______ _____ _____    ______ ____

>  <TORSDO>
F 9

$$$$
=
 OpenBabel11062417523D

 39 42  0  0  1  0  0  0  0  0999 V2000
  190.8220  177.6090  142.5580 C   0  0  0  0  0  0  0  0  0  0  0  0
  190.2340  177.8090  143.8100 C   0  0  0  0  0  3  0  0  0  0  0  0
  188.1580  176.8870  142.9920 C   0  0  0  0  0  3  0  0  0  0  0  0
  188.7400  176.6840  141.7390 C   0  0  0  0  0  3  0  0  0  0  0  0
  188.8920  177.4610  144.0410 C   0  0  0  0  0  0  0  0  0  0  0  0
  192.1180  177.9590  142.3650 F   0  0  0  0  0  0  0  0  0  0  0  0
  190.0710  177.0480  141.5150 C   0  0  0  0  0  0  0  0  0  0  0  0
  189.5170  178.2510  148.8580 N   0  0  0  0  0  1  0  0  0  0  0  0
  186.4290  177.8350  146.9330 C   0  0  0  0  0  3  0  0  0  0  0  0
  187.2960  178.0220  147.9610 N   0  0  0  0  0  0  0  0  0  0  0  0
  186.8960  177.6550  145.6230 C   0  0  0  0  0  0  0  0  0  0  0  0
  188.6380  178.0470  147.7600 C   0  0  0  0  0  0  0  0  0  0  0  0
  188.2940  177.6620  145.3890 C   0  0  0  0  0  0  0  0  0  0  0  0
  189.1540  177.8690  146.4780 C   0  0  0  0  0  3  0  0  0  0  0  0
  185.9680  177.4940  144.5380 N   0  0  0  0  0  2  0  0  0  0  0  0
  185.1920  178.5510  143.8910 C   0  0  1  0  0  3  0  0  0  0  0  0
  185.4610  178.9880  141.4080 C   0  0  0  0  0  0  0  0  0  0  0  0
  186.2150  179.9730  141.6330 O   0  0  0  0  0  0  0  0  0  0  0  0
  184.9330  178.2220  142.4940 N   0  0  0  0  0  2  0  0  0  0  0  0
  185.1260  178.6250  140.0260 C   0  0  0  0  0  0  0  0  0  0  0  0
  185.8760  178.1920  137.6590 C   0  0  0  0  0  1  0  0  0  0  0  0
  186.1580  178.5400  139.0420 N   0  0  0  0  0  2  0  0  0  0  0  0
  183.9270  178.3920  139.7130 O   0  0  0  0  0  0  0  0  0  0  0  0
  182.5910  178.8480  143.9900 C   0  0  0  0  0  1  0  0  0  0  0  0
  183.9290  178.8460  144.6550 C   0  0  0  0  0  0  0  0  0  0  0  0
  183.9960  179.0630  145.8530 O   0  0  0  0  0  0  0  0  0  0  0  0
  190.6820  176.8090  140.1730 C   0  0  0  0  0  2  0  0  0  0  0  0
  189.6500  176.9960  139.0670 C   0  0  1  0  0  3  0  0  0  0  0  0
  189.5520  178.3580  138.7650 O   0  0  0  0  0  1  0  0  0  0  0  0
  188.2480  175.5870  136.4840 C   0  0  0  0  0  2  0  0  0  0  0  0
  189.4860  173.9300  136.8120 C   0  0  2  0  0  3  0  0  0  0  0  0
  190.0420  176.1780  137.8240 C   0  0  1  0  0  3  0  0  0  0  0  0
  191.4940  175.6900  137.9340 C   0  0  2  0  0  3  0  0  0  0  0  0
  192.3630  176.7830  138.0010 O   0  0  0  0  0  1  0  0  0  0  0  0
  189.0560  175.0990  137.5950 N   0  0  1  0  0  0  0  0  0  0  0  0
  191.8290  174.8640  136.7120 C   0  0  2  0  0  3  0  0  0  0  0  0
  190.9820  173.6200  136.7610 C   0  0  0  0  0  2  0  0  0  0  0  0
  193.5440  174.3750  136.7280 Cl  0  0  0  0  0  0  0  0  0  0  0  0
  188.7650  174.3850  135.2170 S   0  0  0  0  0  0  0  0  0  0  0  0
  1  2  1  0  0  0  0
  2  5  2  0  0  0  0
  3  5  1  0  0  0  0
  4  3  2  0  0  0  0
  5 13  1  0  0  0  0
  6  1  1  0  0  0  0
  7  4  1  0  0  0  0
  7  1  2  0  0  0  0
  9 10  1  0  0  0  0
 11  9  2  0  0  0  0
 12 10  2  0  0  0  0
 12  8  1  0  0  0  0
 13 11  1  0  0  0  0
 13 14  2  0  0  0  0
 14 12  1  0  0  0  0
 15 11  1  0  0  0  0
 16 19  1  6  0  0  0
 16 15  1  0  0  0  0
 16 25  1  0  0  0  0
 17 18  2  0  0  0  0
 17 19  1  0  0  0  0
 20 17  1  0  0  0  0
 21 22  1  0  0  0  0
 22 20  1  0  0  0  0
 23 20  2  0  0  0  0
 24 25  1  0  0  0  0
 25 26  2  0  0  0  0
 27  7  1  0  0  0  0
 28 29  1  6  0  0  0
 28 27  1  0  0  0  0
 31 37  1  6  0  0  0
 31 35  1  0  0  0  0
 32 33  1  0  0  0  0
 32 28  1  1  0  0  0
 33 34  1  6  0  0  0
 35 30  1  6  0  0  0
 35 32  1  0  0  0  0
 36 38  1  1  0  0  0
 36 37  1  0  0  0  0
 36 33  1  0  0  0  0
 39 30  1  0  0  0  0
 39 31  1  0  0  0  0
M  END
>  <MODEL>
5

>  <REMARK>
 VINA RESULT:      -8.3      3.718      6.661
  Name = 
  9 active torsions:
  status: ('A' for Active; 'I' for Inactive)
    1  A    between atoms: C_5  and  C_6
    2  A    between atoms: C_7  and  C_8
    3  A    between atoms: C_7  and  C_38
    4  A    between atoms: C_8  and  C_16
    5  A    between atoms: N_14  and  C_20
    6  A    between atoms: N_14  and  C_23
    7  A    between atoms: C_19  and  C_20
    8  A    between atoms: C_20  and  N_26
    9  A    between atoms: C_28  and  C_31
                            x       y       z     vdW  Elec       q    Type
                         _______ _______ _______ _____ _____    ______ ____

>  <TORSDO>
F 9

$$$$
=
 OpenBabel11062417523D

 39 42  0  0  1  0  0  0  0  0999 V2000
  190.9520  177.5060  141.4340 C   0  0  0  0  0  0  0  0  0  0  0  0
  190.7960  177.4530  142.8220 C   0  0  0  0  0  3  0  0  0  0  0  0
  188.4130  177.1690  142.5510 C   0  0  0  0  0  3  0  0  0  0  0  0
  188.5640  177.2200  141.1620 C   0  0  0  0  0  3  0  0  0  0  0  0
  189.5240  177.2940  143.3990 C   0  0  0  0  0  0  0  0  0  0  0  0
  192.1920  177.6630  140.9080 F   0  0  0  0  0  0  0  0  0  0  0  0
  189.8310  177.3930  140.5990 C   0  0  0  0  0  0  0  0  0  0  0  0
  191.6500  177.0990  147.8330 N   0  0  0  0  0  1  0  0  0  0  0  0
  188.0990  177.0720  146.9330 C   0  0  0  0  0  3  0  0  0  0  0  0
  189.2510  177.0500  147.6530 N   0  0  0  0  0  0  0  0  0  0  0  0
  188.1280  177.1610  145.5340 C   0  0  0  0  0  0  0  0  0  0  0  0
  190.4640  177.1180  147.0490 C   0  0  0  0  0  0  0  0  0  0  0  0
  189.3830  177.2180  144.8790 C   0  0  0  0  0  0  0  0  0  0  0  0
  190.5490  177.2030  145.6600 C   0  0  0  0  0  3  0  0  0  0  0  0
  186.9030  177.2200  144.7850 N   0  0  0  0  0  2  0  0  0  0  0  0
  186.0710  178.4020  144.5670 C   0  0  1  0  0  3  0  0  0  0  0  0
  185.2860  178.9510  142.2190 C   0  0  0  0  0  0  0  0  0  0  0  0
  186.2070  179.7990  142.0770 O   0  0  0  0  0  0  0  0  0  0  0  0
  185.1760  178.2040  143.4330 N   0  0  0  0  0  2  0  0  0  0  0  0
  184.3240  178.7280  141.1340 C   0  0  0  0  0  0  0  0  0  0  0  0
  183.4910  179.3080  138.8260 C   0  0  0  0  0  1  0  0  0  0  0  0
  184.4240  179.4860  139.9270 N   0  0  0  0  0  2  0  0  0  0  0  0
  183.4110  177.8690  141.2720 O   0  0  0  0  0  0  0  0  0  0  0  0
  186.0420  179.3850  146.9950 C   0  0  0  0  0  1  0  0  0  0  0  0
  185.3340  178.7910  145.8210 C   0  0  0  0  0  0  0  0  0  0  0  0
  184.1250  178.6420  145.8700 O   0  0  0  0  0  0  0  0  0  0  0  0
  189.9750  177.4300  139.1140 C   0  0  0  0  0  2  0  0  0  0  0  0
  188.7450  178.0530  138.4640 C   0  0  1  0  0  3  0  0  0  0  0  0
  189.0570  179.3550  138.0620 O   0  0  0  0  0  1  0  0  0  0  0  0
  186.0060  177.3540  136.8410 C   0  0  0  0  0  2  0  0  0  0  0  0
  186.6120  175.3490  136.8350 C   0  0  2  0  0  3  0  0  0  0  0  0
  188.2770  177.2000  137.2720 C   0  0  1  0  0  3  0  0  0  0  0  0
  189.3760  176.2150  136.8480 C   0  0  2  0  0  3  0  0  0  0  0  0
  190.5130  176.9160  136.4340 O   0  0  0  0  0  1  0  0  0  0  0  0
  186.9790  176.5620  137.5840 N   0  0  1  0  0  0  0  0  0  0  0  0
  188.8660  175.3750  135.6980 C   0  0  2  0  0  3  0  0  0  0  0  0
  187.7430  174.5210  136.2260 C   0  0  0  0  0  2  0  0  0  0  0  0
  190.1470  174.2980  135.0830 Cl  0  0  0  0  0  0  0  0  0  0  0  0
  185.5010  176.0990  135.6220 S   0  0  0  0  0  0  0  0  0  0  0  0
  1  2  1  0  0  0  0
  2  5  2  0  0  0  0
  3  5  1  0  0  0  0
  4  3  2  0  0  0  0
  5 13  1  0  0  0  0
  6  1  1  0  0  0  0
  7  4  1  0  0  0  0
  7  1  2  0  0  0  0
  9 10  1  0  0  0  0
 11  9  2  0  0  0  0
 12 10  2  0  0  0  0
 12  8  1  0  0  0  0
 13 11  1  0  0  0  0
 13 14  2  0  0  0  0
 14 12  1  0  0  0  0
 15 11  1  0  0  0  0
 16 19  1  6  0  0  0
 16 15  1  0  0  0  0
 16 25  1  0  0  0  0
 17 19  1  0  0  0  0
 18 17  2  0  0  0  0
 20 23  2  0  0  0  0
 20 17  1  0  0  0  0
 21 22  1  0  0  0  0
 22 20  1  0  0  0  0
 25 26  2  0  0  0  0
 25 24  1  0  0  0  0
 27  7  1  0  0  0  0
 28 29  1  6  0  0  0
 28 27  1  0  0  0  0
 31 37  1  6  0  0  0
 31 35  1  0  0  0  0
 32 35  1  0  0  0  0
 32 28  1  1  0  0  0
 33 34  1  6  0  0  0
 33 32  1  0  0  0  0
 35 30  1  6  0  0  0
 36 38  1  1  0  0  0
 36 37  1  0  0  0  0
 36 33  1  0  0  0  0
 39 31  1  0  0  0  0
 39 30  1  0  0  0  0
M  END
>  <MODEL>
6

>  <REMARK>
 VINA RESULT:      -8.3      3.258      6.286
  Name = 
  9 active torsions:
  status: ('A' for Active; 'I' for Inactive)
    1  A    between atoms: C_5  and  C_6
    2  A    between atoms: C_7  and  C_8
    3  A    between atoms: C_7  and  C_38
    4  A    between atoms: C_8  and  C_16
    5  A    between atoms: N_14  and  C_20
    6  A    between atoms: N_14  and  C_23
    7  A    between atoms: C_19  and  C_20
    8  A    between atoms: C_20  and  N_26
    9  A    between atoms: C_28  and  C_31
                            x       y       z     vdW  Elec       q    Type
                         _______ _______ _______ _____ _____    ______ ____

>  <TORSDO>
F 9

$$$$
=
 OpenBabel11062417523D

 39 42  0  0  1  0  0  0  0  0999 V2000
  183.5300  178.7750  144.3410 C   0  0  0  0  0  0  0  0  0  0  0  0
  184.6470  178.3910  145.0890 C   0  0  0  0  0  3  0  0  0  0  0  0
  185.9700  178.2770  143.0710 C   0  0  0  0  0  3  0  0  0  0  0  0
  184.8570  178.6610  142.3190 C   0  0  0  0  0  3  0  0  0  0  0  0
  185.8780  178.1270  144.4640 C   0  0  0  0  0  0  0  0  0  0  0  0
  182.3560  179.0190  144.9730 F   0  0  0  0  0  0  0  0  0  0  0  0
  183.6330  178.9060  142.9480 C   0  0  0  0  0  0  0  0  0  0  0  0
  188.1540  178.0850  148.8270 N   0  0  0  0  0  1  0  0  0  0  0  0
  189.2550  176.7540  145.5970 C   0  0  0  0  0  3  0  0  0  0  0  0
  189.2230  177.1000  146.9100 N   0  0  0  0  0  0  0  0  0  0  0  0
  188.1800  177.0570  144.7480 C   0  0  0  0  0  0  0  0  0  0  0  0
  188.1560  177.7430  147.4470 C   0  0  0  0  0  0  0  0  0  0  0  0
  187.0600  177.7420  145.2820 C   0  0  0  0  0  0  0  0  0  0  0  0
  187.0640  178.0720  146.6460 C   0  0  0  0  0  3  0  0  0  0  0  0
  188.2080  176.6540  143.3690 N   0  0  0  0  0  2  0  0  0  0  0  0
  189.2410  176.9790  142.3870 C   0  0  1  0  0  3  0  0  0  0  0  0
  189.2500  177.5220  139.9110 C   0  0  0  0  0  0  0  0  0  0  0  0
  190.3050  176.8540  139.7380 O   0  0  0  0  0  0  0  0  0  0  0  0
  188.6560  177.6070  141.2080 N   0  0  0  0  0  2  0  0  0  0  0  0
  188.6280  178.2140  138.7750 C   0  0  0  0  0  0  0  0  0  0  0  0
  186.9030  178.2400  136.9380 C   0  0  0  0  0  1  0  0  0  0  0  0
  187.5460  177.6000  138.0730 N   0  0  0  0  0  2  0  0  0  0  0  0
  189.0540  179.3470  138.4230 O   0  0  0  0  0  0  0  0  0  0  0  0
  191.6810  177.2440  143.3020 C   0  0  0  0  0  1  0  0  0  0  0  0
  190.3340  177.8140  143.0000 C   0  0  0  0  0  0  0  0  0  0  0  0
  190.1230  178.9930  143.2310 O   0  0  0  0  0  0  0  0  0  0  0  0
  182.4590  179.3310  142.1300 C   0  0  0  0  0  2  0  0  0  0  0  0
  182.0490  178.2320  141.1570 C   0  0  1  0  0  3  0  0  0  0  0  0
  180.7760  177.7710  141.5060 O   0  0  0  0  0  1  0  0  0  0  0  0
  180.8020  180.6640  139.3820 C   0  0  0  0  0  2  0  0  0  0  0  0
  180.4110  179.2630  137.8770 C   0  0  2  0  0  3  0  0  0  0  0  0
  182.0740  178.7570  139.7110 C   0  0  1  0  0  3  0  0  0  0  0  0
  182.6890  177.7120  138.7680 C   0  0  2  0  0  3  0  0  0  0  0  0
  184.0120  177.4560  139.1370 O   0  0  0  0  0  1  0  0  0  0  0  0
  180.7220  179.2100  139.3140 N   0  0  1  0  0  0  0  0  0  0  0  0
  182.6640  178.2520  137.3550 C   0  0  2  0  0  3  0  0  0  0  0  0
  181.2210  178.3660  136.9400 C   0  0  0  0  0  2  0  0  0  0  0  0
  183.4820  177.1310  136.2340 Cl  0  0  0  0  0  0  0  0  0  0  0  0
  180.6520  181.0340  137.6050 S   0  0  0  0  0  0  0  0  0  0  0  0
  1  6  1  0  0  0  0
  1  2  1  0  0  0  0
  3  5  1  0  0  0  0
  4  7  1  0  0  0  0
  4  3  2  0  0  0  0
  5  2  2  0  0  0  0
  5 13  1  0  0  0  0
  7  1  2  0  0  0  0
  9 10  1  0  0  0  0
 10 12  2  0  0  0  0
 11 13  1  0  0  0  0
 11  9  2  0  0  0  0
 12  8  1  0  0  0  0
 13 14  2  0  0  0  0
 14 12  1  0  0  0  0
 15 11  1  0  0  0  0
 16 19  1  6  0  0  0
 16 25  1  0  0  0  0
 16 15  1  0  0  0  0
 17 19  1  0  0  0  0
 18 17  2  0  0  0  0
 20 17  1  0  0  0  0
 21 22  1  0  0  0  0
 22 20  1  0  0  0  0
 23 20  2  0  0  0  0
 25 26  2  0  0  0  0
 25 24  1  0  0  0  0
 27  7  1  0  0  0  0
 28 29  1  1  0  0  0
 28 27  1  0  0  0  0
 31 37  1  6  0  0  0
 31 35  1  0  0  0  0
 32 28  1  1  0  0  0
 33 34  1  1  0  0  0
 33 32  1  0  0  0  0
 35 30  1  6  0  0  0
 35 32  1  0  0  0  0
 36 38  1  6  0  0  0
 36 33  1  0  0  0  0
 37 36  1  0  0  0  0
 39 31  1  0  0  0  0
 39 30  1  0  0  0  0
M  END
>  <MODEL>
7

>  <REMARK>
 VINA RESULT:      -8.3      2.797      4.881
  Name = 
  9 active torsions:
  status: ('A' for Active; 'I' for Inactive)
    1  A    between atoms: C_5  and  C_6
    2  A    between atoms: C_7  and  C_8
    3  A    between atoms: C_7  and  C_38
    4  A    between atoms: C_8  and  C_16
    5  A    between atoms: N_14  and  C_20
    6  A    between atoms: N_14  and  C_23
    7  A    between atoms: C_19  and  C_20
    8  A    between atoms: C_20  and  N_26
    9  A    between atoms: C_28  and  C_31
                            x       y       z     vdW  Elec       q    Type
                         _______ _______ _______ _____ _____    ______ ____

>  <TORSDO>
F 9

$$$$
=
 OpenBabel11062417523D

 39 42  0  0  1  0  0  0  0  0999 V2000
  182.7550  178.7060  141.0960 C   0  0  0  0  0  0  0  0  0  0  0  0
  183.4640  178.4660  142.2760 C   0  0  0  0  0  3  0  0  0  0  0  0
  185.5460  178.8470  141.1130 C   0  0  0  0  0  3  0  0  0  0  0  0
  184.8420  179.0900  139.9300 C   0  0  0  0  0  3  0  0  0  0  0  0
  184.8690  178.5230  142.2980 C   0  0  0  0  0  0  0  0  0  0  0  0
  181.4010  178.6410  141.1060 F   0  0  0  0  0  0  0  0  0  0  0  0
  183.4470  179.0150  139.9150 C   0  0  0  0  0  0  0  0  0  0  0  0
  184.9200  178.6260  147.2180 N   0  0  0  0  0  1  0  0  0  0  0  0
  187.5480  177.6320  144.8670 C   0  0  0  0  0  3  0  0  0  0  0  0
  186.8770  177.9070  146.0150 N   0  0  0  0  0  0  0  0  0  0  0  0
  186.9350  177.8060  143.6180 C   0  0  0  0  0  0  0  0  0  0  0  0
  185.5960  178.3530  145.9970 C   0  0  0  0  0  0  0  0  0  0  0  0
  185.6030  178.2850  143.5710 C   0  0  0  0  0  0  0  0  0  0  0  0
  184.9420  178.5480  144.7810 C   0  0  0  0  0  3  0  0  0  0  0  0
  187.6420  177.4770  142.4110 N   0  0  0  0  0  2  0  0  0  0  0  0
  189.0800  177.6070  142.1800 C   0  0  1  0  0  3  0  0  0  0  0  0
  190.7970  177.2180  144.0040 C   0  0  0  0  0  0  0  0  0  0  0  0
  191.0090  178.4570  144.1100 O   0  0  0  0  0  0  0  0  0  0  0  0
  189.8290  176.7300  143.0720 N   0  0  0  0  0  2  0  0  0  0  0  0
  191.5450  176.2750  144.8430 C   0  0  0  0  0  0  0  0  0  0  0  0
  192.4300  175.6280  147.1130 C   0  0  0  0  0  1  0  0  0  0  0  0
  191.6920  176.5270  146.2420 N   0  0  0  0  0  2  0  0  0  0  0  0
  192.0570  175.2450  144.3250 O   0  0  0  0  0  0  0  0  0  0  0  0
  188.8660  178.2500  139.6500 C   0  0  0  0  0  1  0  0  0  0  0  0
  189.4230  177.3830  140.7320 C   0  0  0  0  0  0  0  0  0  0  0  0
  190.1960  176.4880  140.4350 O   0  0  0  0  0  0  0  0  0  0  0  0
  182.7100  179.2930  138.6470 C   0  0  0  0  0  2  0  0  0  0  0  0
  181.9620  180.6180  138.7320 C   0  0  1  0  0  3  0  0  0  0  0  0
  182.8910  181.6630  138.7200 O   0  0  0  0  0  1  0  0  0  0  0  0
  180.1290  178.7240  136.8150 C   0  0  0  0  0  2  0  0  0  0  0  0
  180.7360  179.9050  135.1970 C   0  0  2  0  0  3  0  0  0  0  0  0
  180.9640  180.7480  137.5680 C   0  0  1  0  0  3  0  0  0  0  0  0
  180.9980  182.1690  136.9840 C   0  0  2  0  0  3  0  0  0  0  0  0
  180.6200  183.0950  137.9600 O   0  0  0  0  0  1  0  0  0  0  0  0
  181.2030  179.6790  136.5740 N   0  0  1  0  0  0  0  0  0  0  0  0
  180.0310  182.2460  135.8240 C   0  0  2  0  0  3  0  0  0  0  0  0
  180.5590  181.3510  134.7350 C   0  0  0  0  0  2  0  0  0  0  0  0
  179.9370  183.9090  135.1870 Cl  0  0  0  0  0  0  0  0  0  0  0  0
  179.2010  178.9520  135.2650 S   0  0  0  0  0  0  0  0  0  0  0  0
  1  6  1  0  0  0  0
  1  2  1  0  0  0  0
  2  5  2  0  0  0  0
  3  5  1  0  0  0  0
  4  3  2  0  0  0  0
  5 13  1  0  0  0  0
  7  4  1  0  0  0  0
  7  1  2  0  0  0  0
  9 10  1  0  0  0  0
 11  9  2  0  0  0  0
 12 10  2  0  0  0  0
 12  8  1  0  0  0  0
 13 11  1  0  0  0  0
 13 14  2  0  0  0  0
 14 12  1  0  0  0  0
 15 11  1  0  0  0  0
 16 25  1  6  0  0  0
 16 15  1  0  0  0  0
 16 19  1  0  0  0  0
 17 18  2  0  0  0  0
 17 20  1  0  0  0  0
 19 17  1  0  0  0  0
 20 22  1  0  0  0  0
 22 21  1  0  0  0  0
 23 20  2  0  0  0  0
 24 25  1  0  0  0  0
 26 25  2  0  0  0  0
 27 28  1  0  0  0  0
 27  7  1  0  0  0  0
 28 29  1  6  0  0  0
 31 37  1  1  0  0  0
 31 39  1  0  0  0  0
 31 35  1  0  0  0  0
 32 28  1  1  0  0  0
 33 32  1  0  0  0  0
 33 34  1  1  0  0  0
 35 30  1  1  0  0  0
 35 32  1  0  0  0  0
 36 38  1  6  0  0  0
 36 33  1  0  0  0  0
 37 36  1  0  0  0  0
 39 30  1  0  0  0  0
M  END
>  <MODEL>
8

>  <REMARK>
 VINA RESULT:      -8.1      3.428      4.144
  Name = 
  9 active torsions:
  status: ('A' for Active; 'I' for Inactive)
    1  A    between atoms: C_5  and  C_6
    2  A    between atoms: C_7  and  C_8
    3  A    between atoms: C_7  and  C_38
    4  A    between atoms: C_8  and  C_16
    5  A    between atoms: N_14  and  C_20
    6  A    between atoms: N_14  and  C_23
    7  A    between atoms: C_19  and  C_20
    8  A    between atoms: C_20  and  N_26
    9  A    between atoms: C_28  and  C_31
                            x       y       z     vdW  Elec       q    Type
                         _______ _______ _______ _____ _____    ______ ____

>  <TORSDO>
F 9

$$$$
=
 OpenBabel11062417523D

 39 42  0  0  1  0  0  0  0  0999 V2000
  186.2120  178.7460  146.3370 C   0  0  0  0  0  0  0  0  0  0  0  0
  187.5350  178.3160  146.4770 C   0  0  0  0  0  3  0  0  0  0  0  0
  187.3120  176.9610  144.4900 C   0  0  0  0  0  3  0  0  0  0  0  0
  185.9900  177.3890  144.3460 C   0  0  0  0  0  3  0  0  0  0  0  0
  188.0990  177.4100  145.5620 C   0  0  0  0  0  0  0  0  0  0  0  0
  185.6960  179.6180  147.2380 F   0  0  0  0  0  0  0  0  0  0  0  0
  185.4340  178.2770  145.2690 C   0  0  0  0  0  0  0  0  0  0  0  0
  192.0350  176.8250  148.4580 N   0  0  0  0  0  1  0  0  0  0  0  0
  191.6260  176.1140  144.8870 C   0  0  0  0  0  3  0  0  0  0  0  0
  192.1660  176.2410  146.1270 N   0  0  0  0  0  0  0  0  0  0  0  0
  190.2920  176.4740  144.6450 C   0  0  0  0  0  0  0  0  0  0  0  0
  191.4400  176.7110  147.1710 C   0  0  0  0  0  0  0  0  0  0  0  0
  189.5160  176.9820  145.7170 C   0  0  0  0  0  0  0  0  0  0  0  0
  190.1110  177.0870  146.9840 C   0  0  0  0  0  3  0  0  0  0  0  0
  189.7200  176.3020  143.3390 N   0  0  0  0  0  2  0  0  0  0  0  0
  190.2700  176.7900  142.0750 C   0  0  1  0  0  3  0  0  0  0  0  0
  189.2520  177.3010  139.8100 C   0  0  0  0  0  0  0  0  0  0  0  0
  190.1960  176.7100  139.2190 O   0  0  0  0  0  0  0  0  0  0  0  0
  189.2190  177.3580  141.2380 N   0  0  0  0  0  2  0  0  0  0  0  0
  188.1810  177.9310  139.0280 C   0  0  0  0  0  0  0  0  0  0  0  0
  187.1930  178.5070  136.7820 C   0  0  0  0  0  1  0  0  0  0  0  0
  188.2240  177.8920  137.6010 N   0  0  0  0  0  2  0  0  0  0  0  0
  187.2270  178.5050  139.6210 O   0  0  0  0  0  0  0  0  0  0  0  0
  191.2420  178.9570  143.1790 C   0  0  0  0  0  1  0  0  0  0  0  0
  191.4030  177.7530  142.3090 C   0  0  0  0  0  0  0  0  0  0  0  0
  192.4870  177.5320  141.7970 O   0  0  0  0  0  0  0  0  0  0  0  0
  184.0240  178.7360  145.0900 C   0  0  0  0  0  2  0  0  0  0  0  0
  183.8780  179.5500  143.8100 C   0  0  1  0  0  3  0  0  0  0  0  0
  185.1480  179.7870  143.2760 O   0  0  0  0  0  1  0  0  0  0  0  0
  184.1470  177.7610  141.0990 C   0  0  0  0  0  2  0  0  0  0  0  0
  182.5380  178.8470  140.3140 C   0  0  2  0  0  3  0  0  0  0  0  0
  182.9810  178.8110  142.8020 C   0  0  1  0  0  3  0  0  0  0  0  0
  181.5090  179.2060  142.9980 C   0  0  2  0  0  3  0  0  0  0  0  0
  181.0820  178.8410  144.2770 O   0  0  0  0  0  1  0  0  0  0  0  0
  183.4850  179.0180  141.4270 N   0  0  1  0  0  0  0  0  0  0  0  0
  180.6660  178.4860  141.9690 C   0  0  2  0  0  3  0  0  0  0  0  0
  181.0490  179.0220  140.6150 C   0  0  0  0  0  2  0  0  0  0  0  0
  178.9320  178.8110  142.2300 Cl  0  0  0  0  0  0  0  0  0  0  0  0
  183.0040  177.1750  139.8080 S   0  0  0  0  0  0  0  0  0  0  0  0
  1  2  1  0  0  0  0
  1  6  1  0  0  0  0
  3  5  1  0  0  0  0
  4  3  2  0  0  0  0
  4  7  1  0  0  0  0
  5 13  1  0  0  0  0
  5  2  2  0  0  0  0
  7  1  2  0  0  0  0
  9 10  1  0  0  0  0
 10 12  2  0  0  0  0
 11  9  2  0  0  0  0
 11 13  1  0  0  0  0
 12  8  1  0  0  0  0
 13 14  2  0  0  0  0
 14 12  1  0  0  0  0
 15 11  1  0  0  0  0
 16 19  1  1  0  0  0
 16 25  1  0  0  0  0
 16 15  1  0  0  0  0
 17 19  1  0  0  0  0
 18 17  2  0  0  0  0
 20 23  2  0  0  0  0
 20 17  1  0  0  0  0
 21 22  1  0  0  0  0
 22 20  1  0  0  0  0
 25 24  1  0  0  0  0
 26 25  2  0  0  0  0
 27  7  1  0  0  0  0
 28 29  1  6  0  0  0
 28 27  1  0  0  0  0
 31 37  1  1  0  0  0
 31 35  1  0  0  0  0
 32 33  1  0  0  0  0
 32 28  1  1  0  0  0
 33 34  1  1  0  0  0
 35 30  1  6  0  0  0
 35 32  1  0  0  0  0
 36 38  1  1  0  0  0
 36 33  1  0  0  0  0
 37 36  1  0  0  0  0
 39 31  1  0  0  0  0
 39 30  1  0  0  0  0
M  END
>  <MODEL>
9

>  <REMARK>
 VINA RESULT:      -8.1      3.490      6.272
  Name = 
  9 active torsions:
  status: ('A' for Active; 'I' for Inactive)
    1  A    between atoms: C_5  and  C_6
    2  A    between atoms: C_7  and  C_8
    3  A    between atoms: C_7  and  C_38
    4  A    between atoms: C_8  and  C_16
    5  A    between atoms: N_14  and  C_20
    6  A    between atoms: N_14  and  C_23
    7  A    between atoms: C_19  and  C_20
    8  A    between atoms: C_20  and  N_26
    9  A    between atoms: C_28  and  C_31
                            x       y       z     vdW  Elec       q    Type
                         _______ _______ _______ _____ _____    ______ ____

>  <TORSDO>
F 9

$$$$
