=
 OpenBabel11062413283D

 30 32  0  0  1  0  0  0  0  0999 V2000
  188.8020  177.2550  136.6550 C   0  0  0  0  0  2  0  0  0  0  0  0
  190.1790  175.9500  138.3970 C   0  0  0  0  0  0  0  0  0  0  0  0
  189.3670  175.8950  137.1150 C   0  0  1  0  0  3  0  0  0  0  0  0
  189.5610  178.3770  137.1980 N   0  0  0  0  0  2  0  0  0  0  0  0
  188.6210  177.7240  139.4240 C   0  0  0  0  0  2  0  0  0  0  0  0
  188.9120  178.8510  138.4230 C   0  0  0  0  0  2  0  0  0  0  0  0
  190.5010  176.7110  140.6920 C   0  0  0  0  0  3  0  0  0  0  0  0
  191.2190  175.2400  138.4660 O   0  0  0  0  0  0  0  0  0  0  0  0
  189.7840  176.7870  139.5600 C   0  0  0  0  0  0  0  0  0  0  0  0
  187.3450  172.7310  136.2340 C   0  0  0  0  0  0  0  0  0  0  0  0
  188.4840  173.7050  136.1870 C   0  0  0  0  0  2  0  0  0  0  0  0
  185.7820  174.4190  137.1630 C   0  0  1  0  0  3  0  0  0  0  0  0
  185.9360  173.2410  136.1930 C   0  0  1  0  0  3  0  0  0  0  0  0
  186.8750  175.4670  136.9520 C   0  0  0  0  0  2  0  0  0  0  0  0
  187.5640  171.5310  136.2420 O   0  0  0  0  0  0  0  0  0  0  0  0
  184.5240  175.0070  137.0210 O   0  0  0  0  0  1  0  0  0  0  0  0
  188.2530  174.8390  137.1930 C   0  0  2  0  0  3  0  0  0  0  0  0
  185.6200  173.6340  134.8890 O   0  0  0  0  0  1  0  0  0  0  0  0
  190.2770  177.4660  141.9380 C   0  0  0  0  0  0  0  0  0  0  0  0
  189.0680  177.2340  142.6690 N   0  0  0  0  0  2  0  0  0  0  0  0
  191.1220  178.3010  142.3600 O   0  0  0  0  0  0  0  0  0  0  0  0
  185.5170  179.2020  147.0980 O   0  0  0  0  0  1  0  0  0  0  0  0
  189.7180  177.5780  145.0280 C   0  0  0  0  0  2  0  0  0  0  0  0
  185.7810  178.8310  145.9230 C   0  0  0  0  0  0  0  0  0  0  0  0
  184.8950  179.1410  144.8970 O   0  0  0  0  0  0  0  0  0  0  0  0
  186.9820  178.1010  145.6450 N   0  0  0  0  0  0  0  0  0  0  0  0
  187.8950  177.7500  146.7380 C   0  0  0  0  0  2  0  0  0  0  0  0
  189.0660  176.9090  146.2370 C   0  0  0  0  0  2  0  0  0  0  0  0
  188.7140  177.9120  143.9110 C   0  0  2  0  0  3  0  0  0  0  0  0
  187.2500  177.6480  144.2810 C   0  0  0  0  0  2  0  0  0  0  0  0
  1  4  1  0  0  0  0
  2  8  2  0  0  0  0
  2  9  1  0  0  0  0
  3  1  1  1  0  0  0
  3 17  1  0  0  0  0
  3  2  1  0  0  0  0
  4  6  1  0  0  0  0
  5  9  1  0  0  0  0
  6  5  1  0  0  0  0
  7 19  1  0  0  0  0
  9  7  2  0  0  0  0
 10 15  2  0  0  0  0
 11 10  1  0  0  0  0
 12 16  1  6  0  0  0
 13 18  1  6  0  0  0
 13 10  1  0  0  0  0
 13 12  1  0  0  0  0
 14 12  1  0  0  0  0
 14 17  1  0  0  0  0
 17 11  1  6  0  0  0
 19 21  2  0  0  0  0
 19 20  1  0  0  0  0
 23 28  1  0  0  0  0
 24 22  1  0  0  0  0
 25 24  2  0  0  0  0
 26 24  1  0  0  0  0
 26 27  1  0  0  0  0
 28 27  1  0  0  0  0
 29 20  1  6  0  0  0
 29 30  1  0  0  0  0
 29 23  1  0  0  0  0
 30 26  1  0  0  0  0
M  END
>  <MODEL>
1

>  <REMARK>
 VINA RESULT:      -8.0      0.000      0.000
  Name = 
  3 active torsions:
  status: ('A' for Active; 'I' for Inactive)
    1  A    between atoms: C_5  and  C_21
    2  A    between atoms: C_6  and  C_25
    3  A    between atoms: N_7  and  C_29
                            x       y       z     vdW  Elec       q    Type
                         _______ _______ _______ _____ _____    ______ ____

>  <TORSDO>
F 3

$$$$
=
 OpenBabel11062413283D

 30 32  0  0  1  0  0  0  0  0999 V2000
  182.9790  179.1040  143.0800 C   0  0  0  0  0  2  0  0  0  0  0  0
  184.8810  178.9850  141.3460 C   0  0  0  0  0  0  0  0  0  0  0  0
  183.3850  178.9540  141.5980 C   0  0  1  0  0  3  0  0  0  0  0  0
  184.0170  179.7630  143.8680 N   0  0  0  0  0  2  0  0  0  0  0  0
  185.3730  177.6880  143.5160 C   0  0  0  0  0  2  0  0  0  0  0  0
  184.8600  178.7460  144.5040 C   0  0  0  0  0  2  0  0  0  0  0  0
  187.1560  178.3010  141.9000 C   0  0  0  0  0  3  0  0  0  0  0  0
  185.2940  179.6020  140.3270 O   0  0  0  0  0  0  0  0  0  0  0  0
  185.8580  178.3090  142.2400 C   0  0  0  0  0  0  0  0  0  0  0  0
  182.6790  176.1690  139.0250 C   0  0  0  0  0  0  0  0  0  0  0  0
  183.3860  177.3390  139.6410 C   0  0  0  0  0  2  0  0  0  0  0  0
  180.5830  176.6230  140.2740 C   0  0  1  0  0  3  0  0  0  0  0  0
  181.1820  176.1760  138.9350 C   0  0  1  0  0  3  0  0  0  0  0  0
  181.2250  177.9190  140.7710 C   0  0  0  0  0  2  0  0  0  0  0  0
  183.3190  175.2480  138.5440 O   0  0  0  0  0  0  0  0  0  0  0  0
  179.2020  176.7880  140.1590 O   0  0  0  0  0  1  0  0  0  0  0  0
  182.7300  177.7100  140.9770 C   0  0  2  0  0  3  0  0  0  0  0  0
  180.7810  177.0320  137.9060 O   0  0  0  0  0  1  0  0  0  0  0  0
  188.2690  177.7000  142.6560 C   0  0  0  0  0  0  0  0  0  0  0  0
  189.2400  178.5690  143.2500 N   0  0  0  0  0  2  0  0  0  0  0  0
  188.3770  176.4500  142.7840 O   0  0  0  0  0  0  0  0  0  0  0  0
  192.2280  176.2020  147.8940 O   0  0  0  0  0  0  0  0  0  0  0  0
  191.3540  177.2960  143.1380 C   0  0  0  0  0  2  0  0  0  0  0  0
  191.2730  176.8080  147.3370 C   0  0  0  0  0  0  0  0  0  0  0  0
  190.4060  177.5690  148.1130 O   0  0  0  0  0  1  0  0  0  0  0  0
  191.0850  176.7190  145.9200 N   0  0  0  0  0  0  0  0  0  0  0  0
  191.9850  175.8880  145.1120 C   0  0  0  0  0  2  0  0  0  0  0  0
  191.5600  175.8700  143.6460 C   0  0  0  0  0  2  0  0  0  0  0  0
  190.3930  178.1140  144.0180 C   0  0  2  0  0  3  0  0  0  0  0  0
  189.9490  177.3990  145.3000 C   0  0  0  0  0  2  0  0  0  0  0  0
  1  4  1  0  0  0  0
  2  3  1  0  0  0  0
  2  9  1  0  0  0  0
  3  1  1  1  0  0  0
  4  6  1  0  0  0  0
  5  6  1  0  0  0  0
  7  9  2  0  0  0  0
  7 19  1  0  0  0  0
  8  2  2  0  0  0  0
  9  5  1  0  0  0  0
 10 11  1  0  0  0  0
 12 16  1  6  0  0  0
 12 14  1  0  0  0  0
 13 18  1  6  0  0  0
 13 10  1  0  0  0  0
 13 12  1  0  0  0  0
 14 17  1  0  0  0  0
 15 10  2  0  0  0  0
 17 11  1  6  0  0  0
 17  3  1  0  0  0  0
 19 21  2  0  0  0  0
 19 20  1  0  0  0  0
 23 28  1  0  0  0  0
 23 29  1  0  0  0  0
 24 22  2  0  0  0  0
 24 25  1  0  0  0  0
 26 24  1  0  0  0  0
 27 26  1  0  0  0  0
 28 27  1  0  0  0  0
 29 20  1  6  0  0  0
 29 30  1  0  0  0  0
 30 26  1  0  0  0  0
M  END
>  <MODEL>
2

>  <REMARK>
 VINA RESULT:      -7.9      4.257      5.977
  Name = 
  3 active torsions:
  status: ('A' for Active; 'I' for Inactive)
    1  A    between atoms: C_5  and  C_21
    2  A    between atoms: C_6  and  C_25
    3  A    between atoms: N_7  and  C_29
                            x       y       z     vdW  Elec       q    Type
                         _______ _______ _______ _____ _____    ______ ____

>  <TORSDO>
F 3

$$$$
=
 OpenBabel11062413283D

 30 32  0  0  1  0  0  0  0  0999 V2000
  188.5280  177.3830  135.5080 C   0  0  0  0  0  2  0  0  0  0  0  0
  189.0740  175.9170  137.5550 C   0  0  0  0  0  0  0  0  0  0  0  0
  188.5810  175.9670  136.1200 C   0  0  1  0  0  3  0  0  0  0  0  0
  189.4290  178.3090  136.1890 N   0  0  0  0  0  2  0  0  0  0  0  0
  187.8780  178.1210  138.1450 C   0  0  0  0  0  2  0  0  0  0  0  0
  188.6820  179.0410  137.2150 C   0  0  0  0  0  2  0  0  0  0  0  0
  189.0780  176.7630  139.8440 C   0  0  0  0  0  3  0  0  0  0  0  0
  189.8360  174.9680  137.8830 O   0  0  0  0  0  0  0  0  0  0  0  0
  188.6790  176.9260  138.5730 C   0  0  0  0  0  0  0  0  0  0  0  0
  184.7920  175.5290  135.5520 C   0  0  0  0  0  0  0  0  0  0  0  0
  186.1070  176.2440  135.6320 C   0  0  0  0  0  2  0  0  0  0  0  0
  185.5860  173.6590  136.9780 C   0  0  1  0  0  3  0  0  0  0  0  0
  184.4030  174.5770  136.6440 C   0  0  1  0  0  3  0  0  0  0  0  0
  186.8660  174.4590  137.2190 C   0  0  0  0  0  2  0  0  0  0  0  0
  184.0170  175.7670  134.6400 O   0  0  0  0  0  0  0  0  0  0  0  0
  185.2950  172.8770  138.0970 O   0  0  0  0  0  1  0  0  0  0  0  0
  187.2310  175.2520  135.9580 C   0  0  2  0  0  3  0  0  0  0  0  0
  184.0070  175.2990  137.7730 O   0  0  0  0  0  1  0  0  0  0  0  0
  188.8030  177.6550  140.9840 C   0  0  0  0  0  0  0  0  0  0  0  0
  188.5310  177.0670  142.2610 N   0  0  0  0  0  2  0  0  0  0  0  0
  188.8020  178.9090  140.8510 O   0  0  0  0  0  0  0  0  0  0  0  0
  185.3030  179.0250  146.9340 O   0  0  0  0  0  1  0  0  0  0  0  0
  189.4100  177.7550  144.4650 C   0  0  0  0  0  2  0  0  0  0  0  0
  185.4720  178.5640  145.7730 C   0  0  0  0  0  0  0  0  0  0  0  0
  184.4310  178.6380  144.8540 O   0  0  0  0  0  0  0  0  0  0  0  0
  186.7230  177.9740  145.4010 N   0  0  0  0  0  0  0  0  0  0  0  0
  187.8060  177.8720  146.3860 C   0  0  0  0  0  2  0  0  0  0  0  0
  189.0170  177.1430  145.8090 C   0  0  0  0  0  2  0  0  0  0  0  0
  188.2370  177.8260  143.4710 C   0  0  2  0  0  3  0  0  0  0  0  0
  186.8850  177.4120  144.0620 C   0  0  0  0  0  2  0  0  0  0  0  0
  1  4  1  0  0  0  0
  2  8  2  0  0  0  0
  2  9  1  0  0  0  0
  3  1  1  1  0  0  0
  3  2  1  0  0  0  0
  4  6  1  0  0  0  0
  5  9  1  0  0  0  0
  6  5  1  0  0  0  0
  7 19  1  0  0  0  0
  9  7  2  0  0  0  0
 10 11  1  0  0  0  0
 10 13  1  0  0  0  0
 12 14  1  0  0  0  0
 12 16  1  1  0  0  0
 13 12  1  0  0  0  0
 13 18  1  1  0  0  0
 15 10  2  0  0  0  0
 17 11  1  1  0  0  0
 17  3  1  0  0  0  0
 17 14  1  0  0  0  0
 19 20  1  0  0  0  0
 21 19  2  0  0  0  0
 23 28  1  0  0  0  0
 24 22  1  0  0  0  0
 25 24  2  0  0  0  0
 26 24  1  0  0  0  0
 26 27  1  0  0  0  0
 28 27  1  0  0  0  0
 29 20  1  6  0  0  0
 29 30  1  0  0  0  0
 29 23  1  0  0  0  0
 30 26  1  0  0  0  0
M  END
>  <MODEL>
3

>  <REMARK>
 VINA RESULT:      -7.4      1.397      2.003
  Name = 
  3 active torsions:
  status: ('A' for Active; 'I' for Inactive)
    1  A    between atoms: C_5  and  C_21
    2  A    between atoms: C_6  and  C_25
    3  A    between atoms: N_7  and  C_29
                            x       y       z     vdW  Elec       q    Type
                         _______ _______ _______ _____ _____    ______ ____

>  <TORSDO>
F 3

$$$$
=
 OpenBabel11062413283D

 30 32  0  0  1  0  0  0  0  0999 V2000
  181.2520  178.7780  139.1820 C   0  0  0  0  0  2  0  0  0  0  0  0
  183.7430  179.3810  139.4400 C   0  0  0  0  0  0  0  0  0  0  0  0
  182.6050  179.0520  138.4910 C   0  0  1  0  0  3  0  0  0  0  0  0
  181.1790  179.3890  140.5060 N   0  0  0  0  0  2  0  0  0  0  0  0
  182.8950  177.7020  141.1990 C   0  0  0  0  0  2  0  0  0  0  0  0
  181.5640  178.3980  141.5160 C   0  0  0  0  0  2  0  0  0  0  0  0
  185.0190  178.9590  141.4760 C   0  0  0  0  0  3  0  0  0  0  0  0
  184.5560  180.2800  139.0940 O   0  0  0  0  0  0  0  0  0  0  0  0
  183.9350  178.6780  140.7350 C   0  0  0  0  0  0  0  0  0  0  0  0
  182.4510  175.5780  136.8220 C   0  0  0  0  0  0  0  0  0  0  0  0
  182.0230  176.7090  137.7080 C   0  0  0  0  0  2  0  0  0  0  0  0
  184.7940  176.3910  136.7120 C   0  0  1  0  0  3  0  0  0  0  0  0
  183.8900  175.1560  136.8080 C   0  0  1  0  0  3  0  0  0  0  0  0
  184.4200  177.4430  137.7570 C   0  0  0  0  0  2  0  0  0  0  0  0
  181.6250  174.9670  136.1650 O   0  0  0  0  0  0  0  0  0  0  0  0
  186.1340  176.0280  136.8590 O   0  0  0  0  0  1  0  0  0  0  0  0
  182.9730  177.9030  137.5400 C   0  0  2  0  0  3  0  0  0  0  0  0
  184.1730  174.4290  137.9680 O   0  0  0  0  0  1  0  0  0  0  0  0
  185.3750  178.3810  142.7840 C   0  0  0  0  0  0  0  0  0  0  0  0
  186.7160  177.9220  142.9860 N   0  0  0  0  0  2  0  0  0  0  0  0
  184.5270  178.2870  143.7130 O   0  0  0  0  0  0  0  0  0  0  0  0
  190.6420  176.6170  147.3430 O   0  0  0  0  0  1  0  0  0  0  0  0
  186.1840  177.5010  145.3620 C   0  0  0  0  0  2  0  0  0  0  0  0
  190.2940  176.9260  146.1720 C   0  0  0  0  0  0  0  0  0  0  0  0
  191.1960  176.7550  145.1270 O   0  0  0  0  0  0  0  0  0  0  0  0
  188.9830  177.4440  145.9170 N   0  0  0  0  0  0  0  0  0  0  0  0
  188.0480  177.6520  147.0290 C   0  0  0  0  0  2  0  0  0  0  0  0
  186.7430  178.2830  146.5490 C   0  0  0  0  0  2  0  0  0  0  0  0
  187.2050  177.3260  144.2240 C   0  0  2  0  0  3  0  0  0  0  0  0
  188.6130  177.8320  144.5570 C   0  0  0  0  0  2  0  0  0  0  0  0
  1  4  1  0  0  0  0
  2  9  1  0  0  0  0
  3  1  1  1  0  0  0
  3  2  1  0  0  0  0
  4  6  1  0  0  0  0
  5  6  1  0  0  0  0
  7 19  1  0  0  0  0
  8  2  2  0  0  0  0
  9  5  1  0  0  0  0
  9  7  2  0  0  0  0
 10 11  1  0  0  0  0
 12 13  1  0  0  0  0
 12 16  1  1  0  0  0
 12 14  1  0  0  0  0
 13 10  1  0  0  0  0
 13 18  1  1  0  0  0
 15 10  2  0  0  0  0
 17 11  1  1  0  0  0
 17 14  1  0  0  0  0
 17  3  1  0  0  0  0
 19 20  1  0  0  0  0
 19 21  2  0  0  0  0
 23 28  1  0  0  0  0
 24 22  1  0  0  0  0
 25 24  2  0  0  0  0
 26 24  1  0  0  0  0
 26 27  1  0  0  0  0
 28 27  1  0  0  0  0
 29 20  1  6  0  0  0
 29 30  1  0  0  0  0
 29 23  1  0  0  0  0
 30 26  1  0  0  0  0
M  END
>  <MODEL>
4

>  <REMARK>
 VINA RESULT:      -7.4      3.881      5.547
  Name = 
  3 active torsions:
  status: ('A' for Active; 'I' for Inactive)
    1  A    between atoms: C_5  and  C_21
    2  A    between atoms: C_6  and  C_25
    3  A    between atoms: N_7  and  C_29
                            x       y       z     vdW  Elec       q    Type
                         _______ _______ _______ _____ _____    ______ ____

>  <TORSDO>
F 3

$$$$
=
 OpenBabel11062413283D

 30 32  0  0  1  0  0  0  0  0999 V2000
  186.1120  178.2810  143.1090 C   0  0  0  0  0  2  0  0  0  0  0  0
  187.9470  176.4730  143.1570 C   0  0  0  0  0  0  0  0  0  0  0  0
  186.9150  177.2600  143.9440 C   0  0  1  0  0  3  0  0  0  0  0  0
  186.1010  177.9400  141.6900 N   0  0  0  0  0  2  0  0  0  0  0  0
  188.5380  178.5140  141.7010 C   0  0  0  0  0  2  0  0  0  0  0  0
  187.1760  178.6690  141.0100 C   0  0  0  0  0  2  0  0  0  0  0  0
  189.7510  176.3540  141.5200 C   0  0  0  0  0  3  0  0  0  0  0  0
  188.0850  175.2490  143.4280 O   0  0  0  0  0  0  0  0  0  0  0  0
  188.7960  177.0920  142.1060 C   0  0  0  0  0  0  0  0  0  0  0  0
  189.0540  177.6560  147.1290 C   0  0  0  0  0  0  0  0  0  0  0  0
  188.5220  177.0000  145.8900 C   0  0  0  0  0  2  0  0  0  0  0  0
  187.0910  179.1630  147.3180 C   0  0  1  0  0  3  0  0  0  0  0  0
  188.0990  178.3010  148.0890 C   0  0  1  0  0  3  0  0  0  0  0  0
  186.4520  178.3860  146.1670 C   0  0  0  0  0  2  0  0  0  0  0  0
  190.2450  177.6100  147.3860 O   0  0  0  0  0  0  0  0  0  0  0  0
  186.1010  179.6420  148.1780 O   0  0  0  0  0  1  0  0  0  0  0  0
  187.5340  177.9340  145.1790 C   0  0  2  0  0  3  0  0  0  0  0  0
  187.4390  177.3140  148.8250 O   0  0  0  0  0  1  0  0  0  0  0  0
  190.6780  176.7820  140.4570 C   0  0  0  0  0  0  0  0  0  0  0  0
  190.5130  176.2310  139.1460 N   0  0  0  0  0  2  0  0  0  0  0  0
  191.6000  177.6120  140.6840 O   0  0  0  0  0  0  0  0  0  0  0  0
  195.0950  175.6880  135.2970 O   0  0  0  0  0  0  0  0  0  0  0  0
  190.5080  176.8680  136.7580 C   0  0  0  0  0  2  0  0  0  0  0  0
  194.5110  175.5560  136.4060 C   0  0  0  0  0  0  0  0  0  0  0  0
  195.2650  175.2960  137.5450 O   0  0  0  0  0  1  0  0  0  0  0  0
  193.0860  175.6750  136.4940 N   0  0  0  0  0  0  0  0  0  0  0  0
  192.2950  175.9180  135.2820 C   0  0  0  0  0  2  0  0  0  0  0  0
  190.7990  175.9310  135.5880 C   0  0  0  0  0  2  0  0  0  0  0  0
  191.3580  176.5580  138.0030 C   0  0  2  0  0  3  0  0  0  0  0  0
  192.4250  175.4800  137.7840 C   0  0  0  0  0  2  0  0  0  0  0  0
  2  8  2  0  0  0  0
  2  3  1  0  0  0  0
  3  1  1  6  0  0  0
  3 17  1  0  0  0  0
  4  1  1  0  0  0  0
  5  9  1  0  0  0  0
  6  4  1  0  0  0  0
  6  5  1  0  0  0  0
  7  9  2  0  0  0  0
  9  2  1  0  0  0  0
 10 15  2  0  0  0  0
 10 13  1  0  0  0  0
 11 10  1  0  0  0  0
 12 13  1  0  0  0  0
 12 16  1  1  0  0  0
 13 18  1  6  0  0  0
 14 12  1  0  0  0  0
 17 11  1  1  0  0  0
 17 14  1  0  0  0  0
 19 21  2  0  0  0  0
 19  7  1  0  0  0  0
 20 19  1  0  0  0  0
 22 24  2  0  0  0  0
 23 29  1  0  0  0  0
 24 26  1  0  0  0  0
 24 25  1  0  0  0  0
 26 30  1  0  0  0  0
 27 28  1  0  0  0  0
 27 26  1  0  0  0  0
 28 23  1  0  0  0  0
 29 20  1  1  0  0  0
 30 29  1  0  0  0  0
M  END
>  <MODEL>
5

>  <REMARK>
 VINA RESULT:      -7.4      3.729      9.440
  Name = 
  3 active torsions:
  status: ('A' for Active; 'I' for Inactive)
    1  A    between atoms: C_5  and  C_21
    2  A    between atoms: C_6  and  C_25
    3  A    between atoms: N_7  and  C_29
                            x       y       z     vdW  Elec       q    Type
                         _______ _______ _______ _____ _____    ______ ____

>  <TORSDO>
F 3

$$$$
=
 OpenBabel11062413283D

 30 32  0  0  1  0  0  0  0  0999 V2000
  190.3700  176.3400  145.7480 C   0  0  0  0  0  2  0  0  0  0  0  0
  190.3430  178.3030  144.0790 C   0  0  0  0  0  0  0  0  0  0  0  0
  189.7190  177.6690  145.3100 C   0  0  1  0  0  3  0  0  0  0  0  0
  191.7410  176.2140  145.2610 N   0  0  0  0  0  2  0  0  0  0  0  0
  190.7370  176.0090  142.9770 C   0  0  0  0  0  2  0  0  0  0  0  0
  191.7390  175.4620  144.0030 C   0  0  0  0  0  2  0  0  0  0  0  0
  191.2350  178.1470  141.8140 C   0  0  0  0  0  3  0  0  0  0  0  0
  190.4760  179.5570  144.0670 O   0  0  0  0  0  0  0  0  0  0  0  0
  190.7800  177.5070  142.9030 C   0  0  0  0  0  0  0  0  0  0  0  0
  186.2130  177.9720  143.7310 C   0  0  0  0  0  0  0  0  0  0  0  0
  187.7060  178.0770  143.8200 C   0  0  0  0  0  2  0  0  0  0  0  0
  185.9510  177.8910  146.1980 C   0  0  1  0  0  3  0  0  0  0  0  0
  185.3710  178.4300  144.8840 C   0  0  1  0  0  3  0  0  0  0  0  0
  187.4480  178.1810  146.3110 C   0  0  0  0  0  2  0  0  0  0  0  0
  185.6860  177.5740  142.7050 O   0  0  0  0  0  0  0  0  0  0  0  0
  185.2750  178.4380  147.2900 O   0  0  0  0  0  1  0  0  0  0  0  0
  188.1990  177.5060  145.1560 C   0  0  2  0  0  3  0  0  0  0  0  0
  185.3280  179.8270  144.9030 O   0  0  0  0  0  1  0  0  0  0  0  0
  191.7230  177.5380  140.5640 C   0  0  0  0  0  0  0  0  0  0  0  0
  190.7990  177.3590  139.4850 N   0  0  0  0  0  2  0  0  0  0  0  0
  192.9240  177.1760  140.4350 O   0  0  0  0  0  0  0  0  0  0  0  0
  192.8620  173.2120  135.6590 O   0  0  0  0  0  0  0  0  0  0  0  0
  190.0050  176.9670  137.1790 C   0  0  0  0  0  2  0  0  0  0  0  0
  192.7910  173.8140  136.7640 C   0  0  0  0  0  0  0  0  0  0  0  0
  193.8170  173.6620  137.6890 O   0  0  0  0  0  1  0  0  0  0  0  0
  191.6670  174.6500  137.0630 N   0  0  0  0  0  0  0  0  0  0  0  0
  190.5720  174.7800  136.0950 C   0  0  0  0  0  2  0  0  0  0  0  0
  189.4440  175.6510  136.6440 C   0  0  0  0  0  2  0  0  0  0  0  0
  191.1410  176.7660  138.1970 C   0  0  2  0  0  3  0  0  0  0  0  0
  191.5860  175.3100  138.3660 C   0  0  0  0  0  2  0  0  0  0  0  0
  2  3  1  0  0  0  0
  3  1  1  6  0  0  0
  4  1  1  0  0  0  0
  5  6  1  0  0  0  0
  6  4  1  0  0  0  0
  7  9  2  0  0  0  0
  8  2  2  0  0  0  0
  9  5  1  0  0  0  0
  9  2  1  0  0  0  0
 10 11  1  0  0  0  0
 10 13  1  0  0  0  0
 12 14  1  0  0  0  0
 12 16  1  1  0  0  0
 13 18  1  1  0  0  0
 13 12  1  0  0  0  0
 15 10  2  0  0  0  0
 17 11  1  6  0  0  0
 17  3  1  0  0  0  0
 17 14  1  0  0  0  0
 19  7  1  0  0  0  0
 20 19  1  0  0  0  0
 21 19  2  0  0  0  0
 22 24  2  0  0  0  0
 23 29  1  0  0  0  0
 24 26  1  0  0  0  0
 24 25  1  0  0  0  0
 26 30  1  0  0  0  0
 27 28  1  0  0  0  0
 27 26  1  0  0  0  0
 28 23  1  0  0  0  0
 29 30  1  0  0  0  0
 29 20  1  1  0  0  0
M  END
>  <MODEL>
6

>  <REMARK>
 VINA RESULT:      -7.3      3.047      8.808
  Name = 
  3 active torsions:
  status: ('A' for Active; 'I' for Inactive)
    1  A    between atoms: C_5  and  C_21
    2  A    between atoms: C_6  and  C_25
    3  A    between atoms: N_7  and  C_29
                            x       y       z     vdW  Elec       q    Type
                         _______ _______ _______ _____ _____    ______ ____

>  <TORSDO>
F 3

$$$$
=
 OpenBabel11062413283D

 30 32  0  0  1  0  0  0  0  0999 V2000
  191.1580  176.0490  145.7050 C   0  0  0  0  0  2  0  0  0  0  0  0
  190.3550  178.1070  144.3790 C   0  0  0  0  0  0  0  0  0  0  0  0
  190.4440  177.4170  145.7290 C   0  0  1  0  0  3  0  0  0  0  0  0
  192.0560  175.9200  144.5610 N   0  0  0  0  0  2  0  0  0  0  0  0
  189.9870  175.8730  143.1510 C   0  0  0  0  0  2  0  0  0  0  0  0
  191.3510  175.2430  143.4690 C   0  0  0  0  0  2  0  0  0  0  0  0
  189.9060  178.0630  141.9820 C   0  0  0  0  0  3  0  0  0  0  0  0
  190.5260  179.3560  144.3450 O   0  0  0  0  0  0  0  0  0  0  0  0
  190.0620  177.3720  143.1220 C   0  0  0  0  0  0  0  0  0  0  0  0
  186.6460  177.8590  146.2400 C   0  0  0  0  0  0  0  0  0  0  0  0
  187.9650  177.9210  145.5290 C   0  0  0  0  0  2  0  0  0  0  0  0
  187.7210  177.7190  148.4730 C   0  0  1  0  0  3  0  0  0  0  0  0
  186.5570  178.3090  147.6680 C   0  0  1  0  0  3  0  0  0  0  0  0
  189.0620  177.9630  147.7820 C   0  0  0  0  0  2  0  0  0  0  0  0
  185.6430  177.5040  145.6430 O   0  0  0  0  0  0  0  0  0  0  0  0
  187.7430  178.2540  149.7620 O   0  0  0  0  0  1  0  0  0  0  0  0
  189.0660  177.3010  146.3990 C   0  0  2  0  0  3  0  0  0  0  0  0
  186.5820  179.7060  147.7190 O   0  0  0  0  0  1  0  0  0  0  0  0
  189.6270  177.5180  140.6420 C   0  0  0  0  0  0  0  0  0  0  0  0
  188.4970  178.0200  139.9210 N   0  0  0  0  0  2  0  0  0  0  0  0
  190.3590  176.6270  140.1300 O   0  0  0  0  0  0  0  0  0  0  0  0
  184.7940  176.8320  135.3410 O   0  0  0  0  0  0  0  0  0  0  0  0
  189.0630  178.1040  137.5170 C   0  0  0  0  0  2  0  0  0  0  0  0
  185.0990  176.9920  136.5540 C   0  0  0  0  0  0  0  0  0  0  0  0
  184.2520  176.4970  137.5390 O   0  0  0  0  0  1  0  0  0  0  0  0
  186.3070  177.6720  136.9140 N   0  0  0  0  0  0  0  0  0  0  0  0
  187.1800  178.2190  135.8690 C   0  0  0  0  0  2  0  0  0  0  0  0
  188.3660  178.9700  136.4700 C   0  0  0  0  0  2  0  0  0  0  0  0
  188.1000  177.5690  138.5920 C   0  0  2  0  0  3  0  0  0  0  0  0
  186.6230  177.8800  138.3260 C   0  0  0  0  0  2  0  0  0  0  0  0
  2  3  1  0  0  0  0
  3  1  1  6  0  0  0
  3 17  1  0  0  0  0
  4  1  1  0  0  0  0
  5  6  1  0  0  0  0
  6  4  1  0  0  0  0
  7  9  2  0  0  0  0
  8  2  2  0  0  0  0
  9  5  1  0  0  0  0
  9  2  1  0  0  0  0
 10 13  1  0  0  0  0
 11 10  1  0  0  0  0
 12 16  1  1  0  0  0
 13 18  1  6  0  0  0
 13 12  1  0  0  0  0
 14 12  1  0  0  0  0
 15 10  2  0  0  0  0
 17 11  1  6  0  0  0
 17 14  1  0  0  0  0
 19  7  1  0  0  0  0
 20 19  1  0  0  0  0
 21 19  2  0  0  0  0
 22 24  2  0  0  0  0
 23 29  1  0  0  0  0
 24 26  1  0  0  0  0
 24 25  1  0  0  0  0
 26 30  1  0  0  0  0
 27 28  1  0  0  0  0
 27 26  1  0  0  0  0
 28 23  1  0  0  0  0
 29 20  1  1  0  0  0
 30 29  1  0  0  0  0
M  END
>  <MODEL>
7

>  <REMARK>
 VINA RESULT:      -7.2      2.744      8.955
  Name = 
  3 active torsions:
  status: ('A' for Active; 'I' for Inactive)
    1  A    between atoms: C_5  and  C_21
    2  A    between atoms: C_6  and  C_25
    3  A    between atoms: N_7  and  C_29
                            x       y       z     vdW  Elec       q    Type
                         _______ _______ _______ _____ _____    ______ ____

>  <TORSDO>
F 3

$$$$
=
 OpenBabel11062413283D

 30 32  0  0  1  0  0  0  0  0999 V2000
  182.8890  177.5690  136.9190 C   0  0  0  0  0  2  0  0  0  0  0  0
  182.1850  177.4390  139.3940 C   0  0  0  0  0  0  0  0  0  0  0  0
  181.7440  177.6240  137.9530 C   0  0  1  0  0  3  0  0  0  0  0  0
  184.0500  176.8420  137.4250 N   0  0  0  0  0  2  0  0  0  0  0  0
  184.3600  178.7620  139.0020 C   0  0  0  0  0  2  0  0  0  0  0  0
  185.0050  177.7960  137.9970 C   0  0  0  0  0  2  0  0  0  0  0  0
  183.7010  177.9200  141.2440 C   0  0  0  0  0  3  0  0  0  0  0  0
  181.4500  176.7480  140.1500 O   0  0  0  0  0  0  0  0  0  0  0  0
  183.4270  178.0500  139.9360 C   0  0  0  0  0  0  0  0  0  0  0  0
  180.6660  181.0430  136.5320 C   0  0  0  0  0  0  0  0  0  0  0  0
  181.4540  179.7720  136.6350 C   0  0  0  0  0  2  0  0  0  0  0  0
  179.9210  180.9130  138.8960 C   0  0  1  0  0  3  0  0  0  0  0  0
  180.3920  181.8430  137.7710 C   0  0  1  0  0  3  0  0  0  0  0  0
  180.8610  179.7200  139.0700 C   0  0  0  0  0  2  0  0  0  0  0  0
  180.3050  181.4550  135.4430 O   0  0  0  0  0  0  0  0  0  0  0  0
  179.8140  181.6150  140.0980 O   0  0  0  0  0  1  0  0  0  0  0  0
  180.9090  178.9010  137.7740 C   0  0  2  0  0  3  0  0  0  0  0  0
  181.5510  182.5250  138.1510 O   0  0  0  0  0  1  0  0  0  0  0  0
  184.8790  178.4390  141.9600 C   0  0  0  0  0  0  0  0  0  0  0  0
  185.6030  177.5500  142.8180 N   0  0  0  0  0  2  0  0  0  0  0  0
  185.2530  179.6370  141.8310 O   0  0  0  0  0  0  0  0  0  0  0  0
  189.1490  178.0460  147.6430 O   0  0  0  0  0  0  0  0  0  0  0  0
  188.0740  177.5940  142.8250 C   0  0  0  0  0  2  0  0  0  0  0  0
  188.0480  177.9370  147.0390 C   0  0  0  0  0  0  0  0  0  0  0  0
  186.8710  178.2540  147.7080 O   0  0  0  0  0  1  0  0  0  0  0  0
  188.0090  177.4970  145.6770 N   0  0  0  0  0  0  0  0  0  0  0  0
  189.2530  177.1340  144.9870 C   0  0  0  0  0  2  0  0  0  0  0  0
  188.9770  176.6190  143.5770 C   0  0  0  0  0  2  0  0  0  0  0  0
  186.7810  177.9280  143.5910 C   0  0  2  0  0  3  0  0  0  0  0  0
  186.7190  177.3430  145.0060 C   0  0  0  0  0  2  0  0  0  0  0  0
  1  4  1  0  0  0  0
  2  9  1  0  0  0  0
  2  8  2  0  0  0  0
  3  1  1  6  0  0  0
  3  2  1  0  0  0  0
  4  6  1  0  0  0  0
  5  9  1  0  0  0  0
  6  5  1  0  0  0  0
  7 19  1  0  0  0  0
  9  7  2  0  0  0  0
 10 11  1  0  0  0  0
 10 13  1  0  0  0  0
 12 14  1  0  0  0  0
 12 16  1  1  0  0  0
 13 18  1  1  0  0  0
 13 12  1  0  0  0  0
 15 10  2  0  0  0  0
 17 11  1  6  0  0  0
 17  3  1  0  0  0  0
 17 14  1  0  0  0  0
 19 20  1  0  0  0  0
 21 19  2  0  0  0  0
 23 28  1  0  0  0  0
 23 29  1  0  0  0  0
 24 22  2  0  0  0  0
 24 25  1  0  0  0  0
 26 24  1  0  0  0  0
 27 26  1  0  0  0  0
 28 27  1  0  0  0  0
 29 20  1  6  0  0  0
 29 30  1  0  0  0  0
 30 26  1  0  0  0  0
M  END
>  <MODEL>
8

>  <REMARK>
 VINA RESULT:      -7.0      5.243      6.863
  Name = 
  3 active torsions:
  status: ('A' for Active; 'I' for Inactive)
    1  A    between atoms: C_5  and  C_21
    2  A    between atoms: C_6  and  C_25
    3  A    between atoms: N_7  and  C_29
                            x       y       z     vdW  Elec       q    Type
                         _______ _______ _______ _____ _____    ______ ____

>  <TORSDO>
F 3

$$$$
=
 OpenBabel11062413283D

 30 32  0  0  1  0  0  0  0  0999 V2000
  184.6420  178.6300  145.4690 C   0  0  0  0  0  2  0  0  0  0  0  0
  185.5170  179.3490  143.1540 C   0  0  0  0  0  0  0  0  0  0  0  0
  184.3300  179.2670  144.0980 C   0  0  1  0  0  3  0  0  0  0  0  0
  186.0600  178.7170  145.8040 N   0  0  0  0  0  2  0  0  0  0  0  0
  186.4310  177.0760  143.9490 C   0  0  0  0  0  2  0  0  0  0  0  0
  186.7280  177.4750  145.4020 C   0  0  0  0  0  2  0  0  0  0  0  0
  187.4800  178.3580  142.0990 C   0  0  0  0  0  3  0  0  0  0  0  0
  185.6400  180.3900  142.4530 O   0  0  0  0  0  0  0  0  0  0  0  0
  186.5110  178.2530  143.0220 C   0  0  0  0  0  0  0  0  0  0  0  0
  181.8420  178.2490  141.3310 C   0  0  0  0  0  0  0  0  0  0  0  0
  183.0650  178.8730  141.9330 C   0  0  0  0  0  2  0  0  0  0  0  0
  180.6480  178.2040  143.5070 C   0  0  1  0  0  3  0  0  0  0  0  0
  180.5120  178.4420  141.9970 C   0  0  1  0  0  3  0  0  0  0  0  0
  181.8100  179.0030  144.0990 C   0  0  0  0  0  2  0  0  0  0  0  0
  181.9190  177.6430  140.2760 O   0  0  0  0  0  0  0  0  0  0  0  0
  179.4600  178.5340  144.1610 O   0  0  0  0  0  1  0  0  0  0  0  0
  183.1260  178.5770  143.4370 C   0  0  2  0  0  3  0  0  0  0  0  0
  180.0470  179.7350  141.7430 O   0  0  0  0  0  1  0  0  0  0  0  0
  188.5580  177.3910  141.8270 C   0  0  0  0  0  0  0  0  0  0  0  0
  189.4250  177.6300  140.7120 N   0  0  0  0  0  2  0  0  0  0  0  0
  188.7240  176.3720  142.5510 O   0  0  0  0  0  0  0  0  0  0  0  0
  192.6350  173.9900  137.1710 O   0  0  0  0  0  0  0  0  0  0  0  0
  191.8820  177.3670  140.7200 C   0  0  0  0  0  2  0  0  0  0  0  0
  191.5820  174.5420  137.5900 C   0  0  0  0  0  0  0  0  0  0  0  0
  190.3490  173.9920  137.2590 O   0  0  0  0  0  1  0  0  0  0  0  0
  191.6540  175.7200  138.4010 N   0  0  0  0  0  0  0  0  0  0  0  0
  192.9590  176.3120  138.7190 C   0  0  0  0  0  2  0  0  0  0  0  0
  192.8040  177.6000  139.5250 C   0  0  0  0  0  2  0  0  0  0  0  0
  190.5260  176.7560  140.3240 C   0  0  2  0  0  3  0  0  0  0  0  0
  190.4200  176.3650  138.8460 C   0  0  0  0  0  2  0  0  0  0  0  0
  1  4  1  0  0  0  0
  2  3  1  0  0  0  0
  3  1  1  1  0  0  0
  5  6  1  0  0  0  0
  6  4  1  0  0  0  0
  7  9  2  0  0  0  0
  8  2  2  0  0  0  0
  9  2  1  0  0  0  0
  9  5  1  0  0  0  0
 10 11  1  0  0  0  0
 10 13  1  0  0  0  0
 12 14  1  0  0  0  0
 12 16  1  1  0  0  0
 13 18  1  1  0  0  0
 13 12  1  0  0  0  0
 15 10  2  0  0  0  0
 17 11  1  6  0  0  0
 17  3  1  0  0  0  0
 17 14  1  0  0  0  0
 19  7  1  0  0  0  0
 19 21  2  0  0  0  0
 20 19  1  0  0  0  0
 22 24  2  0  0  0  0
 24 26  1  0  0  0  0
 25 24  1  0  0  0  0
 26 27  1  0  0  0  0
 26 30  1  0  0  0  0
 27 28  1  0  0  0  0
 28 23  1  0  0  0  0
 29 20  1  6  0  0  0
 29 23  1  0  0  0  0
 30 29  1  0  0  0  0
M  END
>  <MODEL>
9

>  <REMARK>
 VINA RESULT:      -6.8      3.427      8.298
  Name = 
  3 active torsions:
  status: ('A' for Active; 'I' for Inactive)
    1  A    between atoms: C_5  and  C_21
    2  A    between atoms: C_6  and  C_25
    3  A    between atoms: N_7  and  C_29
                            x       y       z     vdW  Elec       q    Type
                         _______ _______ _______ _____ _____    ______ ____

>  <TORSDO>
F 3

$$$$
