=
 OpenBabel11062418143D

 59 66  0  0  1  0  0  0  0  0999 V2000
  181.7640  178.4890  137.8480 C   0  0  2  0  0  0  0  0  0  0  0  0
  180.9880  179.5260  140.0280 C   0  0  0  0  0  2  0  0  0  0  0  0
  181.9460  178.6190  140.7670 C   0  0  2  0  0  3  0  0  0  0  0  0
  181.9420  177.2270  140.1230 C   0  0  0  0  0  2  0  0  0  0  0  0
  182.0570  177.1710  138.5810 C   0  0  2  0  0  3  0  0  0  0  0  0
  183.2090  177.9930  138.0190 C   0  0  1  0  0  3  0  0  0  0  0  0
  181.5960  179.7870  138.6660 C   0  0  2  0  0  3  0  0  0  0  0  0
  180.9820  178.3400  136.5060 C   0  0  1  0  0  3  0  0  0  0  0  0
  181.1860  177.0390  135.7650 C   0  0  0  0  0  2  0  0  0  0  0  0
  179.4860  178.3360  136.7740 C   0  0  0  0  0  2  0  0  0  0  0  0
  179.8100  176.4130  135.7230 C   0  0  2  0  0  3  0  0  0  0  0  0
  179.0350  177.0140  136.7260 O   0  0  0  0  0  0  0  0  0  0  0  0
  179.8980  174.9030  135.9190 C   0  0  1  0  0  3  0  0  0  0  0  0
  180.5270  174.3000  134.8310 O   0  0  0  0  0  1  0  0  0  0  0  0
  180.6230  174.5450  137.2150 C   0  0  0  0  0  2  0  0  0  0  0  0
  179.7500  172.3350  137.4530 O   0  0  0  0  0  0  0  0  0  0  0  0
  179.5370  173.6790  139.3360 N   0  0  0  0  0  1  0  0  0  0  0  0
  179.9320  173.4610  137.9830 C   0  0  0  0  0  0  0  0  0  0  0  0
  180.9740  180.9430  137.9430 C   0  0  0  0  0  0  0  0  0  0  0  0
  181.2480  181.1770  136.6030 O   0  0  0  0  0  0  0  0  0  0  0  0
  180.1680  181.6960  138.5500 O   0  0  0  0  0  1  0  0  0  0  0  0
  183.8070  177.3430  136.7820 C   0  0  0  0  0  2  0  0  0  0  0  0
  184.4460  176.0080  137.1400 C   0  0  0  0  0  2  0  0  0  0  0  0
  183.9700  173.6730  134.7110 C   0  0  0  0  0  2  0  0  0  0  0  0
  187.3410  176.7610  136.4200 C   0  0  2  0  0  3  0  0  0  0  0  0
  187.1340  174.8870  134.7990 C   0  0  1  0  0  3  0  0  0  0  0  0
  185.2010  174.0810  135.4820 C   0  0  0  0  0  0  0  0  0  0  0  0
  188.7190  176.1900  136.0940 C   0  0  0  0  0  2  0  0  0  0  0  0
  184.2990  173.0170  136.0550 C   0  0  0  0  0  2  0  0  0  0  0  0
  185.2550  175.4580  136.0020 C   0  0  2  0  0  3  0  0  0  0  0  0
  186.4350  175.8950  135.6170 C   0  0  1  0  0  3  0  0  0  0  0  0
  188.5020  174.8210  135.4490 C   0  0  0  0  0  2  0  0  0  0  0  0
  186.4220  173.6730  134.9230 O   0  0  0  0  0  0  0  0  0  0  0  0
  187.6770  179.1160  136.8100 O   0  0  0  0  0  1  0  0  0  0  0  0
  187.2670  178.2110  136.0350 C   0  0  0  0  0  0  0  0  0  0  0  0
  186.7990  178.5590  134.7740 O   0  0  0  0  0  0  0  0  0  0  0  0
  181.5670  178.5420  142.1200 O   0  0  0  0  0  0  0  0  0  0  0  0
  183.9660  178.0820  142.6300 C   0  0  2  0  0  3  0  0  0  0  0  0
  186.2590  177.8040  143.2750 O   0  0  0  0  0  1  0  0  0  0  0  0
  182.6700  178.8620  142.9470 C   0  0  2  0  0  3  0  0  0  0  0  0
  182.2990  178.8090  144.4320 C   0  0  0  0  0  2  0  0  0  0  0  0
  183.4700  179.2490  145.2990 C   0  0  0  0  0  2  0  0  0  0  0  0
  185.1070  178.5530  143.5360 C   0  0  2  0  0  3  0  0  0  0  0  0
  184.7010  178.3920  145.0020 C   0  0  1  0  0  3  0  0  0  0  0  0
  185.8260  178.7270  145.9330 C   0  0  0  0  0  0  0  0  0  0  0  0
  185.6850  179.6000  146.8300 O   0  0  0  0  0  0  0  0  0  0  0  0
  188.1250  177.4710  145.6890 C   0  0  0  0  0  0  0  0  0  0  0  0
  187.0800  178.0540  145.7910 C   0  0  0  0  0  0  0  0  0  0  0  0
  191.7490  177.4690  144.8340 C   0  0  0  0  0  2  0  0  0  0  0  0
  190.2650  177.0810  146.6810 N   0  0  0  0  0  2  0  0  0  0  0  0
  189.3810  176.7320  145.5700 C   0  0  2  0  0  3  0  0  0  0  0  0
  190.1790  177.1470  143.9830 S   0  0  0  0  0  0  0  0  0  0  0  0
  191.6240  176.8550  146.2070 C   0  0  0  0  0  2  0  0  0  0  0  0
  184.3730  178.2660  141.1710 C   0  0  0  0  0  2  0  0  0  0  0  0
  185.6950  179.0060  141.1290 C   0  0  0  0  0  2  0  0  0  0  0  0
  186.5530  178.5180  139.9790 C   0  0  0  0  0  2  0  0  0  0  0  0
  187.8800  178.8470  140.2400 O   0  0  0  0  0  0  0  0  0  0  0  0
  188.5580  177.6280  140.2270 C   0  0  0  0  0  2  0  0  0  0  0  0
  189.8030  177.7480  139.3770 C   0  0  0  0  0  1  0  0  0  0  0  0
  1  8  1  6  0  0  0
  1  6  1  0  0  0  0
  1  5  1  0  0  0  0
  1  7  1  0  0  0  0
  2  3  1  0  0  0  0
  3 37  1  1  0  0  0
  4  3  1  0  0  0  0
  5  4  1  1  0  0  0
  6 22  1  6  0  0  0
  6  5  1  0  0  0  0
  7 19  1  6  0  0  0
  7  2  1  0  0  0  0
  8  9  1  1  0  0  0
  8 10  1  0  0  0  0
 11  9  1  0  0  0  0
 11 13  1  1  0  0  0
 11 12  1  0  0  0  0
 12 10  1  0  0  0  0
 13 14  1  6  0  0  0
 13 15  1  0  0  0  0
 15 18  1  0  0  0  0
 16 18  2  0  0  0  0
 18 17  1  0  0  0  0
 19 21  1  0  0  0  0
 20 19  2  0  0  0  0
 22 23  1  0  0  0  0
 24 27  1  0  0  0  0
 24 29  1  0  0  0  0
 25 35  1  6  0  0  0
 26 33  1  0  0  0  0
 26 32  1  1  0  0  0
 26 31  1  0  0  0  0
 27 30  1  0  0  0  0
 27 29  1  0  0  0  0
 28 25  1  0  0  0  0
 30 23  1  1  0  0  0
 31 30  1  0  0  0  0
 31 25  1  0  0  0  0
 32 28  1  0  0  0  0
 33 27  1  0  0  0  0
 35 34  1  0  0  0  0
 36 35  2  0  0  0  0
 37 40  1  0  0  0  0
 38 40  1  0  0  0  0
 38 43  1  0  0  0  0
 39 43  1  0  0  0  0
 40 41  1  0  0  0  0
 41 42  1  0  0  0  0
 43 44  1  0  0  0  0
 44 42  1  0  0  0  0
 44 45  1  0  0  0  0
 45 46  2  0  0  0  0
 47 48  3  0  0  0  0
 48 45  1  0  0  0  0
 49 53  1  0  0  0  0
 51 47  1  0  0  0  0
 51 50  1  0  0  0  0
 52 49  1  0  0  0  0
 52 51  1  0  0  0  0
 53 50  1  0  0  0  0
 54 38  1  0  0  0  0
 55 54  1  0  0  0  0
 56 57  1  0  0  0  0
 56 55  1  0  0  0  0
 58 57  1  0  0  0  0
 59 58  1  0  0  0  0
M  END
>  <MODEL>
1

>  <REMARK>
 VINA RESULT:      -7.2      0.000      0.000
  Name = 
  19 active torsions:
  status: ('A' for Active; 'I' for Inactive)
    1  A    between atoms: C_1  and  C_38
    2  A    between atoms: C_1  and  C_59
    3  A    between atoms: C_2  and  C_53
    4  A    between atoms: C_3  and  C_9
    5  A    between atoms: C_4  and  C_26
    6  A    between atoms: C_6  and  O_20
    7  A    between atoms: O_7  and  C_12
    8  A    between atoms: O_7  and  C_32
    9  A    between atoms: C_10  and  C_48
   10  A    between atoms: C_10  and  C_55
   11  A    between atoms: C_12  and  C_16
   12  A    between atoms: C_14  and  C_27
   13  A    between atoms: C_16  and  C_26
   14  A    between atoms: O_20  and  C_36
   15  A    between atoms: C_28  and  C_39
   16  A    between atoms: C_28  and  C_49
   17  A    between atoms: C_33  and  C_34
   18  A    between atoms: C_35  and  C_39
   19  A    between atoms: C_48  and  C_57
                            x       y       z     vdW  Elec       q    Type
                         _______ _______ _______ _____ _____    ______ ____

>  <TORSDO>
F 19

$$$$
=
 OpenBabel11062418143D

 59 66  0  0  1  0  0  0  0  0999 V2000
  188.7690  176.4230  136.5330 C   0  0  2  0  0  0  0  0  0  0  0  0
  189.8220  176.0470  138.8090 C   0  0  0  0  0  2  0  0  0  0  0  0
  189.0360  177.2260  139.3360 C   0  0  2  0  0  3  0  0  0  0  0  0
  189.0090  178.3410  138.2840 C   0  0  0  0  0  2  0  0  0  0  0  0
  188.6580  177.9250  136.8350 C   0  0  2  0  0  3  0  0  0  0  0  0
  187.3940  177.0840  136.7240 C   0  0  1  0  0  3  0  0  0  0  0  0
  188.9980  175.4350  137.6960 C   0  0  2  0  0  3  0  0  0  0  0  0
  189.3410  176.0720  135.1250 C   0  0  1  0  0  3  0  0  0  0  0  0
  190.7050  176.6390  134.8060 C   0  0  0  0  0  2  0  0  0  0  0  0
  189.5730  174.5740  135.0160 C   0  0  0  0  0  2  0  0  0  0  0  0
  191.5760  175.4210  134.5940 C   0  0  2  0  0  3  0  0  0  0  0  0
  190.9370  174.3270  135.1950 O   0  0  0  0  0  0  0  0  0  0  0  0
  192.9670  175.6430  135.1790 C   0  0  1  0  0  3  0  0  0  0  0  0
  192.9050  176.4790  136.2930 O   0  0  0  0  0  1  0  0  0  0  0  0
  193.6410  174.3220  135.5450 C   0  0  0  0  0  2  0  0  0  0  0  0
  195.3120  173.9370  137.2070 O   0  0  0  0  0  0  0  0  0  0  0  0
  195.9800  175.2960  135.4470 N   0  0  0  0  0  1  0  0  0  0  0  0
  195.0040  174.5140  136.1330 C   0  0  0  0  0  0  0  0  0  0  0  0
  189.4430  174.0570  137.3090 C   0  0  0  0  0  0  0  0  0  0  0  0
  188.5610  173.1620  136.7200 O   0  0  0  0  0  0  0  0  0  0  0  0
  190.6410  173.7150  137.4920 O   0  0  0  0  0  1  0  0  0  0  0  0
  186.6450  177.3710  135.4330 C   0  0  0  0  0  2  0  0  0  0  0  0
  185.1530  177.5120  135.7050 C   0  0  0  0  0  2  0  0  0  0  0  0
  185.6850  174.2390  136.4720 C   0  0  0  0  0  2  0  0  0  0  0  0
  183.1780  178.1470  137.9770 C   0  0  2  0  0  3  0  0  0  0  0  0
  183.3310  175.7050  138.4210 C   0  0  1  0  0  3  0  0  0  0  0  0
  184.4710  175.1210  136.6300 C   0  0  0  0  0  0  0  0  0  0  0  0
  181.9170  177.6590  138.6870 C   0  0  0  0  0  2  0  0  0  0  0  0
  184.6760  174.3850  135.3300 C   0  0  0  0  0  2  0  0  0  0  0  0
  184.6950  176.5700  136.7800 C   0  0  2  0  0  3  0  0  0  0  0  0
  183.9680  176.8950  137.8270 C   0  0  1  0  0  3  0  0  0  0  0  0
  181.8830  176.1360  138.5580 C   0  0  0  0  0  2  0  0  0  0  0  0
  183.4880  174.6390  137.5080 O   0  0  0  0  0  0  0  0  0  0  0  0
  183.3010  179.7520  139.7710 O   0  0  0  0  0  1  0  0  0  0  0  0
  183.8760  179.1910  138.8000 C   0  0  0  0  0  0  0  0  0  0  0  0
  185.2030  179.4970  138.5300 O   0  0  0  0  0  0  0  0  0  0  0  0
  189.6240  177.6840  140.5300 O   0  0  0  0  0  0  0  0  0  0  0  0
  188.2980  177.0750  142.5560 C   0  0  2  0  0  3  0  0  0  0  0  0
  186.9310  176.6960  144.4890 O   0  0  0  0  0  1  0  0  0  0  0  0
  188.6160  178.0930  141.4360 C   0  0  2  0  0  3  0  0  0  0  0  0
  187.3600  178.5770  140.7060 C   0  0  0  0  0  2  0  0  0  0  0  0
  186.3270  179.1010  141.6940 C   0  0  0  0  0  2  0  0  0  0  0  0
  187.2480  177.6460  143.5130 C   0  0  2  0  0  3  0  0  0  0  0  0
  185.9900  178.0280  142.7280 C   0  0  1  0  0  3  0  0  0  0  0  0
  184.8860  178.4810  143.6330 C   0  0  0  0  0  0  0  0  0  0  0  0
  185.1190  178.8010  144.8290 O   0  0  0  0  0  0  0  0  0  0  0  0
  182.4300  178.6050  142.6970 C   0  0  0  0  0  0  0  0  0  0  0  0
  183.5460  178.5400  143.1340 C   0  0  0  0  0  0  0  0  0  0  0  0
  178.9310  179.8430  142.9900 C   0  0  0  0  0  2  0  0  0  0  0  0
  180.8650  180.0260  141.5790 N   0  0  0  0  0  2  0  0  0  0  0  0
  181.0830  178.6910  142.1340 C   0  0  2  0  0  3  0  0  0  0  0  0
  179.8590  178.3520  143.4430 S   0  0  0  0  0  0  0  0  0  0  0  0
  179.4270  180.2570  141.6250 C   0  0  0  0  0  2  0  0  0  0  0  0
  189.5550  176.7170  143.3430 C   0  0  0  0  0  2  0  0  0  0  0  0
  190.3440  177.9870  143.5930 C   0  0  0  0  0  2  0  0  0  0  0  0
  190.7740  178.0810  145.0430 C   0  0  0  0  0  2  0  0  0  0  0  0
  189.6390  178.1170  145.8470 O   0  0  0  0  0  0  0  0  0  0  0  0
  189.9580  177.3280  146.9520 C   0  0  0  0  0  2  0  0  0  0  0  0
  188.7040  176.6700  147.4850 C   0  0  0  0  0  1  0  0  0  0  0  0
  1  8  1  6  0  0  0
  1  6  1  0  0  0  0
  1  5  1  0  0  0  0
  1  7  1  0  0  0  0
  2  3  1  0  0  0  0
  3 37  1  1  0  0  0
  4  3  1  0  0  0  0
  5  4  1  1  0  0  0
  6 22  1  6  0  0  0
  6  5  1  0  0  0  0
  7 19  1  6  0  0  0
  7  2  1  0  0  0  0
  8  9  1  1  0  0  0
 10  8  1  0  0  0  0
 10 12  1  0  0  0  0
 11  9  1  0  0  0  0
 11 13  1  1  0  0  0
 11 12  1  0  0  0  0
 13 15  1  0  0  0  0
 13 14  1  1  0  0  0
 15 18  1  0  0  0  0
 17 18  1  0  0  0  0
 18 16  2  0  0  0  0
 19 21  1  0  0  0  0
 20 19  2  0  0  0  0
 22 23  1  0  0  0  0
 24 27  1  0  0  0  0
 25 28  1  0  0  0  0
 25 35  1  1  0  0  0
 26 32  1  6  0  0  0
 27 30  1  0  0  0  0
 27 33  1  0  0  0  0
 29 24  1  0  0  0  0
 29 27  1  0  0  0  0
 30 23  1  6  0  0  0
 30 31  1  0  0  0  0
 31 25  1  0  0  0  0
 31 26  1  0  0  0  0
 32 28  1  0  0  0  0
 33 26  1  0  0  0  0
 35 34  1  0  0  0  0
 36 35  2  0  0  0  0
 37 40  1  0  0  0  0
 38 54  1  0  0  0  0
 38 43  1  0  0  0  0
 40 38  1  0  0  0  0
 41 40  1  0  0  0  0
 41 42  1  0  0  0  0
 42 44  1  0  0  0  0
 43 39  1  0  0  0  0
 44 43  1  0  0  0  0
 44 45  1  0  0  0  0
 45 46  2  0  0  0  0
 47 48  3  0  0  0  0
 48 45  1  0  0  0  0
 49 52  1  0  0  0  0
 50 53  1  0  0  0  0
 50 51  1  0  0  0  0
 51 47  1  0  0  0  0
 51 52  1  0  0  0  0
 53 49  1  0  0  0  0
 54 55  1  0  0  0  0
 55 56  1  0  0  0  0
 56 57  1  0  0  0  0
 57 58  1  0  0  0  0
 58 59  1  0  0  0  0
M  END
>  <MODEL>
2

>  <REMARK>
 VINA RESULT:      -6.8      3.569      8.381
  Name = 
  19 active torsions:
  status: ('A' for Active; 'I' for Inactive)
    1  A    between atoms: C_1  and  C_38
    2  A    between atoms: C_1  and  C_59
    3  A    between atoms: C_2  and  C_53
    4  A    between atoms: C_3  and  C_9
    5  A    between atoms: C_4  and  C_26
    6  A    between atoms: C_6  and  O_20
    7  A    between atoms: O_7  and  C_12
    8  A    between atoms: O_7  and  C_32
    9  A    between atoms: C_10  and  C_48
   10  A    between atoms: C_10  and  C_55
   11  A    between atoms: C_12  and  C_16
   12  A    between atoms: C_14  and  C_27
   13  A    between atoms: C_16  and  C_26
   14  A    between atoms: O_20  and  C_36
   15  A    between atoms: C_28  and  C_39
   16  A    between atoms: C_28  and  C_49
   17  A    between atoms: C_33  and  C_34
   18  A    between atoms: C_35  and  C_39
   19  A    between atoms: C_48  and  C_57
                            x       y       z     vdW  Elec       q    Type
                         _______ _______ _______ _____ _____    ______ ____

>  <TORSDO>
F 19

$$$$
=
 OpenBabel11062418143D

 59 66  0  0  1  0  0  0  0  0999 V2000
  190.3090  176.7590  140.3090 C   0  0  2  0  0  0  0  0  0  0  0  0
  188.9340  177.9820  142.0540 C   0  0  0  0  0  2  0  0  0  0  0  0
  187.9860  178.4180  140.9600 C   0  0  2  0  0  3  0  0  0  0  0  0
  188.7830  178.7840  139.7010 C   0  0  0  0  0  2  0  0  0  0  0  0
  189.8740  177.7840  139.2510 C   0  0  2  0  0  3  0  0  0  0  0  0
  189.3880  176.3450  139.1510 C   0  0  1  0  0  3  0  0  0  0  0  0
  189.5110  176.6490  141.6260 C   0  0  2  0  0  3  0  0  0  0  0  0
  191.8340  176.4300  140.3250 C   0  0  1  0  0  3  0  0  0  0  0  0
  192.3600  175.6820  139.1210 C   0  0  0  0  0  2  0  0  0  0  0  0
  192.6440  177.7150  140.2940 C   0  0  0  0  0  2  0  0  0  0  0  0
  193.3730  176.6230  138.5100 C   0  0  2  0  0  3  0  0  0  0  0  0
  193.1030  177.9130  138.9890 O   0  0  0  0  0  0  0  0  0  0  0  0
  193.3070  176.5710  136.9870 C   0  0  1  0  0  3  0  0  0  0  0  0
  194.3400  177.3190  136.4230 O   0  0  0  0  0  1  0  0  0  0  0  0
  193.3510  175.1340  136.4700 C   0  0  0  0  0  2  0  0  0  0  0  0
  195.7210  174.8610  136.3770 O   0  0  0  0  0  0  0  0  0  0  0  0
  194.6120  173.3220  137.7170 N   0  0  0  0  0  1  0  0  0  0  0  0
  194.6260  174.4330  136.8230 C   0  0  0  0  0  0  0  0  0  0  0  0
  190.1810  175.9010  142.7390 C   0  0  0  0  0  0  0  0  0  0  0  0
  190.9480  176.5670  143.6850 O   0  0  0  0  0  1  0  0  0  0  0  0
  190.0210  174.6560  142.8370 O   0  0  0  0  0  0  0  0  0  0  0  0
  190.0830  175.5980  138.0240 C   0  0  0  0  0  2  0  0  0  0  0  0
  189.7490  176.2330  136.6800 C   0  0  0  0  0  2  0  0  0  0  0  0
  187.0100  177.6950  135.2860 C   0  0  0  0  0  2  0  0  0  0  0  0
  188.6970  173.3420  136.7090 C   0  0  2  0  0  3  0  0  0  0  0  0
  186.5820  174.3950  135.9320 C   0  0  1  0  0  3  0  0  0  0  0  0
  187.1540  176.5050  136.2020 C   0  0  0  0  0  0  0  0  0  0  0  0
  187.5030  172.4680  137.0850 C   0  0  0  0  0  2  0  0  0  0  0  0
  187.0260  177.8810  136.8060 C   0  0  0  0  0  2  0  0  0  0  0  0
  188.4240  175.7590  136.1580 C   0  0  2  0  0  3  0  0  0  0  0  0
  188.0490  174.5040  136.0420 C   0  0  1  0  0  3  0  0  0  0  0  0
  186.2490  173.3360  136.9650 C   0  0  0  0  0  2  0  0  0  0  0  0
  186.0380  175.6560  136.2630 O   0  0  0  0  0  0  0  0  0  0  0  0
  190.8550  172.9040  135.7290 O   0  0  0  0  0  1  0  0  0  0  0  0
  189.6360  172.5920  135.8100 C   0  0  0  0  0  0  0  0  0  0  0  0
  189.1710  171.4900  135.1040 O   0  0  0  0  0  0  0  0  0  0  0  0
  187.2310  179.5180  141.4070 O   0  0  0  0  0  0  0  0  0  0  0  0
  185.0030  178.7840  142.2610 C   0  0  2  0  0  3  0  0  0  0  0  0
  182.7780  178.1380  142.8790 O   0  0  0  0  0  1  0  0  0  0  0  0
  185.8650  179.3220  141.0950 C   0  0  2  0  0  3  0  0  0  0  0  0
  185.6880  178.5100  139.8090 C   0  0  0  0  0  2  0  0  0  0  0  0
  184.2160  178.3930  139.4400 C   0  0  0  0  0  2  0  0  0  0  0  0
  183.5370  178.6750  141.8340 C   0  0  2  0  0  3  0  0  0  0  0  0
  183.4270  177.7810  140.5960 C   0  0  1  0  0  3  0  0  0  0  0  0
  182.0000  177.5430  140.2070 C   0  0  0  0  0  0  0  0  0  0  0  0
  181.0890  178.3330  140.5730 O   0  0  0  0  0  0  0  0  0  0  0  0
  181.3960  175.4190  138.7760 C   0  0  0  0  0  0  0  0  0  0  0  0
  181.6670  176.3960  139.4180 C   0  0  0  0  0  0  0  0  0  0  0  0
  179.9810  173.8830  135.6940 C   0  0  0  0  0  2  0  0  0  0  0  0
  182.0260  174.0160  136.9450 N   0  0  0  0  0  2  0  0  0  0  0  0
  181.0570  174.2120  138.0230 C   0  0  2  0  0  3  0  0  0  0  0  0
  179.3790  174.3830  137.3310 S   0  0  0  0  0  0  0  0  0  0  0  0
  181.3370  173.2550  135.9120 C   0  0  0  0  0  2  0  0  0  0  0  0
  185.1060  179.6930  143.4820 C   0  0  0  0  0  2  0  0  0  0  0  0
  185.1160  178.8290  144.7270 C   0  0  0  0  0  2  0  0  0  0  0  0
  186.2990  177.8810  144.7190 C   0  0  0  0  0  2  0  0  0  0  0  0
  186.9830  178.0070  145.9230 O   0  0  0  0  0  0  0  0  0  0  0  0
  188.2760  177.5630  145.6470 C   0  0  0  0  0  2  0  0  0  0  0  0
  188.9830  177.2230  146.9410 C   0  0  0  0  0  1  0  0  0  0  0  0
  1  8  1  6  0  0  0
  1  7  1  0  0  0  0
  3 37  1  1  0  0  0
  3  2  1  0  0  0  0
  4  3  1  0  0  0  0
  5  4  1  1  0  0  0
  5  1  1  0  0  0  0
  6 22  1  6  0  0  0
  6  5  1  0  0  0  0
  6  1  1  0  0  0  0
  7  2  1  0  0  0  0
  7 19  1  1  0  0  0
  8  9  1  6  0  0  0
 10  8  1  0  0  0  0
 11 13  1  6  0  0  0
 11 12  1  0  0  0  0
 11  9  1  0  0  0  0
 12 10  1  0  0  0  0
 13 14  1  6  0  0  0
 15 18  1  0  0  0  0
 15 13  1  0  0  0  0
 16 18  2  0  0  0  0
 18 17  1  0  0  0  0
 19 21  2  0  0  0  0
 19 20  1  0  0  0  0
 23 22  1  0  0  0  0
 24 27  1  0  0  0  0
 24 29  1  0  0  0  0
 25 35  1  6  0  0  0
 25 28  1  0  0  0  0
 26 31  1  0  0  0  0
 26 33  1  0  0  0  0
 26 32  1  1  0  0  0
 27 33  1  0  0  0  0
 27 29  1  0  0  0  0
 30 27  1  0  0  0  0
 30 23  1  1  0  0  0
 31 30  1  0  0  0  0
 31 25  1  0  0  0  0
 32 28  1  0  0  0  0
 34 35  1  0  0  0  0
 36 35  2  0  0  0  0
 38 54  1  0  0  0  0
 40 37  1  0  0  0  0
 40 38  1  0  0  0  0
 41 40  1  0  0  0  0
 42 41  1  0  0  0  0
 42 44  1  0  0  0  0
 43 38  1  0  0  0  0
 43 39  1  0  0  0  0
 44 43  1  0  0  0  0
 45 46  2  0  0  0  0
 45 44  1  0  0  0  0
 47 48  3  0  0  0  0
 48 45  1  0  0  0  0
 49 53  1  0  0  0  0
 49 52  1  0  0  0  0
 50 51  1  0  0  0  0
 51 47  1  0  0  0  0
 52 51  1  0  0  0  0
 53 50  1  0  0  0  0
 54 55  1  0  0  0  0
 56 55  1  0  0  0  0
 56 57  1  0  0  0  0
 58 57  1  0  0  0  0
 58 59  1  0  0  0  0
M  END
>  <MODEL>
3

>  <REMARK>
 VINA RESULT:      -6.6      3.589      9.097
  Name = 
  19 active torsions:
  status: ('A' for Active; 'I' for Inactive)
    1  A    between atoms: C_1  and  C_38
    2  A    between atoms: C_1  and  C_59
    3  A    between atoms: C_2  and  C_53
    4  A    between atoms: C_3  and  C_9
    5  A    between atoms: C_4  and  C_26
    6  A    between atoms: C_6  and  O_20
    7  A    between atoms: O_7  and  C_12
    8  A    between atoms: O_7  and  C_32
    9  A    between atoms: C_10  and  C_48
   10  A    between atoms: C_10  and  C_55
   11  A    between atoms: C_12  and  C_16
   12  A    between atoms: C_14  and  C_27
   13  A    between atoms: C_16  and  C_26
   14  A    between atoms: O_20  and  C_36
   15  A    between atoms: C_28  and  C_39
   16  A    between atoms: C_28  and  C_49
   17  A    between atoms: C_33  and  C_34
   18  A    between atoms: C_35  and  C_39
   19  A    between atoms: C_48  and  C_57
                            x       y       z     vdW  Elec       q    Type
                         _______ _______ _______ _____ _____    ______ ____

>  <TORSDO>
F 19

$$$$
=
 OpenBabel11062418143D

 59 66  0  0  1  0  0  0  0  0999 V2000
  190.3600  176.7120  140.2300 C   0  0  2  0  0  0  0  0  0  0  0  0
  188.9560  177.9660  141.9290 C   0  0  0  0  0  2  0  0  0  0  0  0
  188.0050  178.3490  140.8170 C   0  0  2  0  0  3  0  0  0  0  0  0
  188.8000  178.6890  139.5510 C   0  0  0  0  0  2  0  0  0  0  0  0
  189.9120  177.6940  139.1380 C   0  0  2  0  0  3  0  0  0  0  0  0
  189.4520  176.2440  139.0820 C   0  0  1  0  0  3  0  0  0  0  0  0
  189.5590  176.6310  141.5470 C   0  0  2  0  0  3  0  0  0  0  0  0
  191.8900  176.4120  140.2630 C   0  0  1  0  0  3  0  0  0  0  0  0
  192.4490  175.7000  139.0530 C   0  0  0  0  0  2  0  0  0  0  0  0
  192.6770  177.7130  140.2720 C   0  0  0  0  0  2  0  0  0  0  0  0
  193.4530  176.6730  138.4770 C   0  0  2  0  0  3  0  0  0  0  0  0
  193.1520  177.9470  138.9790 O   0  0  0  0  0  0  0  0  0  0  0  0
  193.4120  176.6520  136.9520 C   0  0  1  0  0  3  0  0  0  0  0  0
  194.4680  177.3900  136.4200 O   0  0  0  0  0  1  0  0  0  0  0  0
  193.4360  175.2250  136.4080 C   0  0  0  0  0  2  0  0  0  0  0  0
  195.4240  174.2260  137.2750 O   0  0  0  0  0  0  0  0  0  0  0  0
  195.4500  174.6270  134.9870 N   0  0  0  0  0  1  0  0  0  0  0  0
  194.8260  174.6850  136.2680 C   0  0  0  0  0  0  0  0  0  0  0  0
  190.2360  175.9320  142.6860 C   0  0  0  0  0  0  0  0  0  0  0  0
  190.1080  174.5610  142.8590 O   0  0  0  0  0  0  0  0  0  0  0  0
  190.9570  176.5900  143.4810 O   0  0  0  0  0  1  0  0  0  0  0  0
  190.1660  175.4740  137.9830 C   0  0  0  0  0  2  0  0  0  0  0  0
  189.8610  176.0860  136.6220 C   0  0  0  0  0  2  0  0  0  0  0  0
  187.0900  177.4550  135.2000 C   0  0  0  0  0  2  0  0  0  0  0  0
  188.9450  173.1490  136.5550 C   0  0  2  0  0  3  0  0  0  0  0  0
  186.8020  174.1240  135.7540 C   0  0  1  0  0  3  0  0  0  0  0  0
  187.2680  176.2500  136.0890 C   0  0  0  0  0  0  0  0  0  0  0  0
  187.7850  172.2120  136.8810 C   0  0  0  0  0  2  0  0  0  0  0  0
  187.0620  177.6020  136.7230 C   0  0  0  0  0  2  0  0  0  0  0  0
  188.5720  175.5650  136.0570 C   0  0  2  0  0  3  0  0  0  0  0  0
  188.2590  174.2970  135.9010 C   0  0  1  0  0  3  0  0  0  0  0  0
  186.4950  173.0240  136.7520 C   0  0  0  0  0  2  0  0  0  0  0  0
  186.1920  175.3490  136.1030 O   0  0  0  0  0  0  0  0  0  0  0  0
  189.5650  171.7580  134.6870 O   0  0  0  0  0  0  0  0  0  0  0  0
  189.9390  172.4670  135.6600 C   0  0  0  0  0  0  0  0  0  0  0  0
  191.2960  172.6750  135.8640 O   0  0  0  0  0  1  0  0  0  0  0  0
  187.2270  179.4500  141.2260 O   0  0  0  0  0  0  0  0  0  0  0  0
  184.9760  178.6760  141.9750 C   0  0  2  0  0  3  0  0  0  0  0  0
  182.7350  177.9950  142.4920 O   0  0  0  0  0  1  0  0  0  0  0  0
  185.8770  179.2470  140.8560 C   0  0  2  0  0  3  0  0  0  0  0  0
  185.7590  178.4620  139.5460 C   0  0  0  0  0  2  0  0  0  0  0  0
  184.3040  178.3390  139.1180 C   0  0  0  0  0  2  0  0  0  0  0  0
  183.5280  178.5610  141.4880 C   0  0  2  0  0  3  0  0  0  0  0  0
  183.4760  177.6950  140.2290 C   0  0  1  0  0  3  0  0  0  0  0  0
  182.0680  177.4510  139.7780 C   0  0  0  0  0  0  0  0  0  0  0  0
  181.4890  176.3590  140.0260 O   0  0  0  0  0  0  0  0  0  0  0  0
  180.8030  179.3390  138.4520 C   0  0  0  0  0  0  0  0  0  0  0  0
  181.3770  178.4680  139.0470 C   0  0  0  0  0  0  0  0  0  0  0  0
  180.7370  182.9150  137.4160 C   0  0  0  0  0  2  0  0  0  0  0  0
  180.8280  180.7020  136.4880 N   0  0  0  0  0  2  0  0  0  0  0  0
  180.1260  180.4220  137.7390 C   0  0  2  0  0  3  0  0  0  0  0  0
  180.1020  181.9130  138.7900 S   0  0  0  0  0  0  0  0  0  0  0  0
  180.5430  182.0940  136.1640 C   0  0  0  0  0  2  0  0  0  0  0  0
  185.0210  179.5590  143.2180 C   0  0  0  0  0  2  0  0  0  0  0  0
  185.0680  178.6660  144.4420 C   0  0  0  0  0  2  0  0  0  0  0  0
  186.2910  177.7720  144.4150 C   0  0  0  0  0  2  0  0  0  0  0  0
  187.2520  178.2990  145.2720 O   0  0  0  0  0  0  0  0  0  0  0  0
  187.0750  177.6110  146.4720 C   0  0  0  0  0  2  0  0  0  0  0  0
  188.4120  177.4330  147.1570 C   0  0  0  0  0  1  0  0  0  0  0  0
  1  8  1  1  0  0  0
  1  7  1  0  0  0  0
  3 37  1  1  0  0  0
  3  2  1  0  0  0  0
  4  3  1  0  0  0  0
  5  4  1  1  0  0  0
  5  1  1  0  0  0  0
  6 22  1  6  0  0  0
  6  5  1  0  0  0  0
  6  1  1  0  0  0  0
  7  2  1  0  0  0  0
  7 19  1  1  0  0  0
  8  9  1  6  0  0  0
  8 10  1  0  0  0  0
 11 13  1  6  0  0  0
 11 12  1  0  0  0  0
 11  9  1  0  0  0  0
 12 10  1  0  0  0  0
 13 14  1  6  0  0  0
 15 13  1  0  0  0  0
 17 18  1  0  0  0  0
 18 15  1  0  0  0  0
 18 16  2  0  0  0  0
 19 20  2  0  0  0  0
 19 21  1  0  0  0  0
 23 22  1  0  0  0  0
 24 27  1  0  0  0  0
 24 29  1  0  0  0  0
 25 35  1  6  0  0  0
 25 28  1  0  0  0  0
 26 31  1  0  0  0  0
 26 33  1  0  0  0  0
 26 32  1  1  0  0  0
 27 33  1  0  0  0  0
 27 29  1  0  0  0  0
 30 27  1  0  0  0  0
 30 23  1  1  0  0  0
 31 30  1  0  0  0  0
 31 25  1  0  0  0  0
 32 28  1  0  0  0  0
 34 35  2  0  0  0  0
 35 36  1  0  0  0  0
 38 54  1  0  0  0  0
 40 37  1  0  0  0  0
 40 38  1  0  0  0  0
 41 40  1  0  0  0  0
 42 41  1  0  0  0  0
 42 44  1  0  0  0  0
 43 38  1  0  0  0  0
 43 39  1  0  0  0  0
 44 43  1  0  0  0  0
 45 46  2  0  0  0  0
 45 44  1  0  0  0  0
 47 48  3  0  0  0  0
 48 45  1  0  0  0  0
 49 52  1  0  0  0  0
 50 51  1  0  0  0  0
 51 47  1  0  0  0  0
 51 52  1  0  0  0  0
 53 50  1  0  0  0  0
 53 49  1  0  0  0  0
 54 55  1  0  0  0  0
 56 55  1  0  0  0  0
 56 57  1  0  0  0  0
 57 58  1  0  0  0  0
 58 59  1  0  0  0  0
M  END
>  <MODEL>
4

>  <REMARK>
 VINA RESULT:      -6.6      3.838      9.248
  Name = 
  19 active torsions:
  status: ('A' for Active; 'I' for Inactive)
    1  A    between atoms: C_1  and  C_38
    2  A    between atoms: C_1  and  C_59
    3  A    between atoms: C_2  and  C_53
    4  A    between atoms: C_3  and  C_9
    5  A    between atoms: C_4  and  C_26
    6  A    between atoms: C_6  and  O_20
    7  A    between atoms: O_7  and  C_12
    8  A    between atoms: O_7  and  C_32
    9  A    between atoms: C_10  and  C_48
   10  A    between atoms: C_10  and  C_55
   11  A    between atoms: C_12  and  C_16
   12  A    between atoms: C_14  and  C_27
   13  A    between atoms: C_16  and  C_26
   14  A    between atoms: O_20  and  C_36
   15  A    between atoms: C_28  and  C_39
   16  A    between atoms: C_28  and  C_49
   17  A    between atoms: C_33  and  C_34
   18  A    between atoms: C_35  and  C_39
   19  A    between atoms: C_48  and  C_57
                            x       y       z     vdW  Elec       q    Type
                         _______ _______ _______ _____ _____    ______ ____

>  <TORSDO>
F 19

$$$$
=
 OpenBabel11062418143D

 59 66  0  0  1  0  0  0  0  0999 V2000
  189.5960  177.1980  141.2100 C   0  0  2  0  0  0  0  0  0  0  0  0
  187.4290  178.0580  142.2090 C   0  0  0  0  0  2  0  0  0  0  0  0
  187.0080  178.5140  140.8310 C   0  0  2  0  0  3  0  0  0  0  0  0
  188.2140  179.1060  140.0910 C   0  0  0  0  0  2  0  0  0  0  0  0
  189.5260  178.2870  140.1290 C   0  0  2  0  0  3  0  0  0  0  0  0
  189.3520  176.8250  139.7400 C   0  0  1  0  0  3  0  0  0  0  0  0
  188.3250  176.8530  142.0160 C   0  0  2  0  0  3  0  0  0  0  0  0
  190.9870  177.0350  141.8960 C   0  0  1  0  0  3  0  0  0  0  0  0
  191.3380  178.0750  142.9340 C   0  0  0  0  0  2  0  0  0  0  0  0
  191.0250  175.7440  142.6980 C   0  0  0  0  0  2  0  0  0  0  0  0
  191.4950  177.2880  144.2160 C   0  0  2  0  0  3  0  0  0  0  0  0
  190.8390  176.0600  144.0470 O   0  0  0  0  0  0  0  0  0  0  0  0
  190.9260  178.0630  145.4000 C   0  0  1  0  0  3  0  0  0  0  0  0
  189.8570  178.8630  144.9970 O   0  0  0  0  0  1  0  0  0  0  0  0
  190.4920  177.1290  146.5280 C   0  0  0  0  0  2  0  0  0  0  0  0
  192.0460  177.2900  148.3350 O   0  0  0  0  0  0  0  0  0  0  0  0
  192.2580  175.3800  147.0310 N   0  0  0  0  0  1  0  0  0  0  0  0
  191.6480  176.6310  147.3400 C   0  0  0  0  0  0  0  0  0  0  0  0
  188.5370  176.0560  143.2680 C   0  0  0  0  0  0  0  0  0  0  0  0
  189.0540  174.7690  143.2140 O   0  0  0  0  0  0  0  0  0  0  0  0
  188.2730  176.5710  144.3860 O   0  0  0  0  0  1  0  0  0  0  0  0
  190.5750  176.2930  139.0100 C   0  0  0  0  0  2  0  0  0  0  0  0
  190.8550  177.1250  137.7660 C   0  0  0  0  0  2  0  0  0  0  0  0
  188.5790  177.2570  135.2390 C   0  0  0  0  0  2  0  0  0  0  0  0
  192.4050  174.6530  136.7890 C   0  0  2  0  0  3  0  0  0  0  0  0
  190.6130  174.5510  135.0680 C   0  0  1  0  0  3  0  0  0  0  0  0
  189.2790  176.0950  135.8980 C   0  0  0  0  0  0  0  0  0  0  0  0
  192.2490  173.2250  136.2740 C   0  0  0  0  0  2  0  0  0  0  0  0
  187.9860  176.5980  136.4870 C   0  0  0  0  0  2  0  0  0  0  0  0
  190.5960  176.3480  136.5090 C   0  0  2  0  0  3  0  0  0  0  0  0
  191.3560  175.3870  136.0300 C   0  0  1  0  0  3  0  0  0  0  0  0
  190.9000  173.1450  135.5570 C   0  0  0  0  0  2  0  0  0  0  0  0
  189.2460  174.8890  135.1800 O   0  0  0  0  0  0  0  0  0  0  0  0
  194.1700  176.2860  136.9480 O   0  0  0  0  0  1  0  0  0  0  0  0
  193.7920  175.1620  136.5220 C   0  0  0  0  0  0  0  0  0  0  0  0
  194.6990  174.3510  135.8520 O   0  0  0  0  0  0  0  0  0  0  0  0
  185.9800  179.4680  140.9480 O   0  0  0  0  0  0  0  0  0  0  0  0
  183.8100  178.2350  140.9780 C   0  0  2  0  0  3  0  0  0  0  0  0
  181.6960  177.1170  140.7910 O   0  0  0  0  0  1  0  0  0  0  0  0
  184.8560  179.0590  140.1920 C   0  0  2  0  0  3  0  0  0  0  0  0
  185.2700  178.3860  138.8790 C   0  0  0  0  0  2  0  0  0  0  0  0
  184.0490  178.0410  138.0390 C   0  0  0  0  0  2  0  0  0  0  0  0
  182.6100  177.9050  140.0840 C   0  0  2  0  0  3  0  0  0  0  0  0
  183.0880  177.1600  138.8360 C   0  0  1  0  0  3  0  0  0  0  0  0
  181.9420  176.7080  137.9840 C   0  0  0  0  0  0  0  0  0  0  0  0
  181.0970  177.5340  137.5440 O   0  0  0  0  0  0  0  0  0  0  0  0
  181.6900  174.1550  137.3980 C   0  0  0  0  0  0  0  0  0  0  0  0
  181.7980  175.3180  137.6770 C   0  0  0  0  0  0  0  0  0  0  0  0
  179.8590  171.4480  135.6150 C   0  0  0  0  0  2  0  0  0  0  0  0
  181.9900  172.5550  135.6470 N   0  0  0  0  0  2  0  0  0  0  0  0
  181.5880  172.7410  137.0400 C   0  0  2  0  0  3  0  0  0  0  0  0
  179.8670  172.1830  137.2740 S   0  0  0  0  0  0  0  0  0  0  0  0
  181.3030  171.3570  135.1810 C   0  0  0  0  0  2  0  0  0  0  0  0
  183.3260  178.9960  142.2080 C   0  0  0  0  0  2  0  0  0  0  0  0
  183.9950  178.4050  143.4330 C   0  0  0  0  0  2  0  0  0  0  0  0
  183.3330  178.9010  144.7040 C   0  0  0  0  0  2  0  0  0  0  0  0
  184.3180  179.3610  145.5720 O   0  0  0  0  0  0  0  0  0  0  0  0
  185.3380  178.4120  145.4890 C   0  0  0  0  0  2  0  0  0  0  0  0
  186.2360  178.5250  146.7010 C   0  0  0  0  0  1  0  0  0  0  0  0
  1  8  1  1  0  0  0
  1  7  1  0  0  0  0
  3 37  1  1  0  0  0
  3  2  1  0  0  0  0
  4  3  1  0  0  0  0
  5  4  1  1  0  0  0
  5  1  1  0  0  0  0
  6 22  1  6  0  0  0
  6  5  1  0  0  0  0
  6  1  1  0  0  0  0
  7  2  1  0  0  0  0
  7 19  1  1  0  0  0
  8 10  1  1  0  0  0
  8  9  1  0  0  0  0
  9 11  1  0  0  0  0
 10 12  1  0  0  0  0
 11 13  1  1  0  0  0
 12 11  1  0  0  0  0
 13 14  1  6  0  0  0
 13 15  1  0  0  0  0
 15 18  1  0  0  0  0
 17 18  1  0  0  0  0
 18 16  2  0  0  0  0
 19 21  1  0  0  0  0
 20 19  2  0  0  0  0
 23 22  1  0  0  0  0
 24 27  1  0  0  0  0
 24 29  1  0  0  0  0
 25 35  1  6  0  0  0
 26 33  1  0  0  0  0
 26 32  1  1  0  0  0
 26 31  1  0  0  0  0
 27 29  1  0  0  0  0
 27 30  1  0  0  0  0
 28 25  1  0  0  0  0
 30 23  1  1  0  0  0
 31 30  1  0  0  0  0
 31 25  1  0  0  0  0
 32 28  1  0  0  0  0
 33 27  1  0  0  0  0
 35 34  1  0  0  0  0
 36 35  2  0  0  0  0
 38 54  1  0  0  0  0
 40 37  1  0  0  0  0
 40 38  1  0  0  0  0
 41 40  1  0  0  0  0
 42 44  1  0  0  0  0
 42 41  1  0  0  0  0
 43 39  1  0  0  0  0
 43 38  1  0  0  0  0
 44 43  1  0  0  0  0
 45 44  1  0  0  0  0
 46 45  2  0  0  0  0
 47 48  3  0  0  0  0
 48 45  1  0  0  0  0
 49 52  1  0  0  0  0
 50 51  1  0  0  0  0
 51 52  1  0  0  0  0
 51 47  1  0  0  0  0
 53 49  1  0  0  0  0
 53 50  1  0  0  0  0
 54 55  1  0  0  0  0
 55 56  1  0  0  0  0
 56 57  1  0  0  0  0
 58 57  1  0  0  0  0
 58 59  1  0  0  0  0
M  END
>  <MODEL>
5

>  <REMARK>
 VINA RESULT:      -6.3      3.315      9.531
  Name = 
  19 active torsions:
  status: ('A' for Active; 'I' for Inactive)
    1  A    between atoms: C_1  and  C_38
    2  A    between atoms: C_1  and  C_59
    3  A    between atoms: C_2  and  C_53
    4  A    between atoms: C_3  and  C_9
    5  A    between atoms: C_4  and  C_26
    6  A    between atoms: C_6  and  O_20
    7  A    between atoms: O_7  and  C_12
    8  A    between atoms: O_7  and  C_32
    9  A    between atoms: C_10  and  C_48
   10  A    between atoms: C_10  and  C_55
   11  A    between atoms: C_12  and  C_16
   12  A    between atoms: C_14  and  C_27
   13  A    between atoms: C_16  and  C_26
   14  A    between atoms: O_20  and  C_36
   15  A    between atoms: C_28  and  C_39
   16  A    between atoms: C_28  and  C_49
   17  A    between atoms: C_33  and  C_34
   18  A    between atoms: C_35  and  C_39
   19  A    between atoms: C_48  and  C_57
                            x       y       z     vdW  Elec       q    Type
                         _______ _______ _______ _____ _____    ______ ____

>  <TORSDO>
F 19

$$$$
=
 OpenBabel11062418143D

 59 66  0  0  1  0  0  0  0  0999 V2000
  184.5370  178.8720  141.7520 C   0  0  2  0  0  0  0  0  0  0  0  0
  184.5080  178.9370  139.2170 C   0  0  0  0  0  2  0  0  0  0  0  0
  185.9840  178.6070  139.2210 C   0  0  2  0  0  3  0  0  0  0  0  0
  186.6810  179.3690  140.3540 C   0  0  0  0  0  2  0  0  0  0  0  0
  186.0050  179.3240  141.7450 C   0  0  2  0  0  3  0  0  0  0  0  0
  185.6510  177.9190  142.2130 C   0  0  1  0  0  3  0  0  0  0  0  0
  183.9160  178.3030  140.4580 C   0  0  2  0  0  3  0  0  0  0  0  0
  183.6160  179.6310  142.7560 C   0  0  1  0  0  3  0  0  0  0  0  0
  182.1300  179.5100  142.5090 C   0  0  0  0  0  2  0  0  0  0  0  0
  183.7670  179.0420  144.1490 C   0  0  0  0  0  2  0  0  0  0  0  0
  181.5970  178.8340  143.7530 C   0  0  2  0  0  3  0  0  0  0  0  0
  182.6750  178.2040  144.3920 O   0  0  0  0  0  0  0  0  0  0  0  0
  180.5020  177.8340  143.3970 C   0  0  1  0  0  3  0  0  0  0  0  0
  179.9750  177.2480  144.5470 O   0  0  0  0  0  1  0  0  0  0  0  0
  179.3890  178.4870  142.5790 C   0  0  0  0  0  2  0  0  0  0  0  0
  178.9330  180.1330  144.2470 O   0  0  0  0  0  0  0  0  0  0  0  0
  179.0480  180.9490  142.0760 N   0  0  0  0  0  1  0  0  0  0  0  0
  179.0900  179.8850  143.0250 C   0  0  0  0  0  0  0  0  0  0  0  0
  182.4200  178.2160  140.4310 C   0  0  0  0  0  0  0  0  0  0  0  0
  181.6470  179.3300  140.1350 O   0  0  0  0  0  0  0  0  0  0  0  0
  181.8570  177.1110  140.6480 O   0  0  0  0  0  1  0  0  0  0  0  0
  185.7850  177.7830  143.7210 C   0  0  0  0  0  2  0  0  0  0  0  0
  186.8340  176.7340  144.0680 C   0  0  0  0  0  2  0  0  0  0  0  0
  189.4460  177.9110  142.2330 C   0  0  0  0  0  2  0  0  0  0  0  0
  188.0360  177.2330  146.8560 C   0  0  2  0  0  3  0  0  0  0  0  0
  190.0670  177.8600  145.5650 C   0  0  1  0  0  3  0  0  0  0  0  0
  189.3940  177.2140  143.5700 C   0  0  0  0  0  0  0  0  0  0  0  0
  189.2860  177.0410  147.7120 C   0  0  0  0  0  2  0  0  0  0  0  0
  189.4690  176.3830  142.3140 C   0  0  0  0  0  2  0  0  0  0  0  0
  188.1640  177.3600  144.3680 C   0  0  2  0  0  3  0  0  0  0  0  0
  188.6010  177.7010  145.5610 C   0  0  1  0  0  3  0  0  0  0  0  0
  190.4880  177.0350  146.7660 C   0  0  0  0  0  2  0  0  0  0  0  0
  190.5540  177.3260  144.3510 O   0  0  0  0  0  0  0  0  0  0  0  0
  187.5090  179.0100  148.3970 O   0  0  0  0  0  1  0  0  0  0  0  0
  187.1100  178.2290  147.4910 C   0  0  0  0  0  0  0  0  0  0  0  0
  185.8060  178.3410  147.0270 O   0  0  0  0  0  0  0  0  0  0  0  0
  186.5420  178.9490  137.9740 O   0  0  0  0  0  0  0  0  0  0  0  0
  186.9140  176.6230  137.1480 C   0  0  2  0  0  3  0  0  0  0  0  0
  187.4940  174.4380  136.3470 O   0  0  0  0  0  1  0  0  0  0  0  0
  187.5030  177.9810  137.5970 C   0  0  2  0  0  3  0  0  0  0  0  0
  188.5990  177.8270  138.6550 C   0  0  0  0  0  2  0  0  0  0  0  0
  189.6720  176.8540  138.1860 C   0  0  0  0  0  2  0  0  0  0  0  0
  188.0340  175.6790  136.7000 C   0  0  2  0  0  3  0  0  0  0  0  0
  189.0460  175.5050  137.8340 C   0  0  1  0  0  3  0  0  0  0  0  0
  190.1000  174.4970  137.4910 C   0  0  0  0  0  0  0  0  0  0  0  0
  189.7940  173.2970  137.2540 O   0  0  0  0  0  0  0  0  0  0  0  0
  192.6280  175.2180  137.3880 C   0  0  0  0  0  0  0  0  0  0  0  0
  191.4710  174.9000  137.4420 C   0  0  0  0  0  0  0  0  0  0  0  0
  196.1730  174.1680  136.9500 C   0  0  0  0  0  2  0  0  0  0  0  0
  194.4780  175.5050  135.9010 N   0  0  0  0  0  2  0  0  0  0  0  0
  194.0390  175.5890  137.2930 C   0  0  2  0  0  3  0  0  0  0  0  0
  195.0310  174.4630  138.3290 S   0  0  0  0  0  0  0  0  0  0  0  0
  195.9130  175.2590  135.9390 C   0  0  0  0  0  2  0  0  0  0  0  0
  185.9230  176.8070  136.0040 C   0  0  0  0  0  2  0  0  0  0  0  0
  184.5240  176.5600  136.5340 C   0  0  0  0  0  2  0  0  0  0  0  0
  183.7840  175.5620  135.6660 C   0  0  0  0  0  2  0  0  0  0  0  0
  184.5360  174.3940  135.5840 O   0  0  0  0  0  0  0  0  0  0  0  0
  183.8000  173.4460  136.2950 C   0  0  0  0  0  2  0  0  0  0  0  0
  184.5390  173.0770  137.5630 C   0  0  0  0  0  1  0  0  0  0  0  0
  1  6  1  0  0  0  0
  1  8  1  1  0  0  0
  2  3  1  0  0  0  0
  2  7  1  0  0  0  0
  3 37  1  6  0  0  0
  3  4  1  0  0  0  0
  5  4  1  6  0  0  0
  5  1  1  0  0  0  0
  5  6  1  0  0  0  0
  6 22  1  1  0  0  0
  7 19  1  1  0  0  0
  7  1  1  0  0  0  0
  8  9  1  6  0  0  0
  8 10  1  0  0  0  0
  9 11  1  0  0  0  0
 10 12  1  0  0  0  0
 11 13  1  6  0  0  0
 11 12  1  0  0  0  0
 13 14  1  1  0  0  0
 15 18  1  0  0  0  0
 15 13  1  0  0  0  0
 17 18  1  0  0  0  0
 18 16  2  0  0  0  0
 19 21  1  0  0  0  0
 20 19  2  0  0  0  0
 22 23  1  0  0  0  0
 24 29  1  0  0  0  0
 24 27  1  0  0  0  0
 25 35  1  1  0  0  0
 25 28  1  0  0  0  0
 26 32  1  1  0  0  0
 27 33  1  0  0  0  0
 27 30  1  0  0  0  0
 29 27  1  0  0  0  0
 30 23  1  1  0  0  0
 30 31  1  0  0  0  0
 31 26  1  0  0  0  0
 31 25  1  0  0  0  0
 32 28  1  0  0  0  0
 33 26  1  0  0  0  0
 35 34  1  0  0  0  0
 36 35  2  0  0  0  0
 38 40  1  0  0  0  0
 39 43  1  0  0  0  0
 40 37  1  0  0  0  0
 40 41  1  0  0  0  0
 42 41  1  0  0  0  0
 43 38  1  0  0  0  0
 43 44  1  0  0  0  0
 44 42  1  0  0  0  0
 45 44  1  0  0  0  0
 46 45  2  0  0  0  0
 47 48  3  0  0  0  0
 48 45  1  0  0  0  0
 49 52  1  0  0  0  0
 50 53  1  0  0  0  0
 50 51  1  0  0  0  0
 51 47  1  0  0  0  0
 51 52  1  0  0  0  0
 53 49  1  0  0  0  0
 54 55  1  0  0  0  0
 54 38  1  0  0  0  0
 56 55  1  0  0  0  0
 57 56  1  0  0  0  0
 57 58  1  0  0  0  0
 58 59  1  0  0  0  0
M  END
>  <MODEL>
6

>  <REMARK>
 VINA RESULT:      -6.1      3.263      8.558
  Name = 
  19 active torsions:
  status: ('A' for Active; 'I' for Inactive)
    1  A    between atoms: C_1  and  C_38
    2  A    between atoms: C_1  and  C_59
    3  A    between atoms: C_2  and  C_53
    4  A    between atoms: C_3  and  C_9
    5  A    between atoms: C_4  and  C_26
    6  A    between atoms: C_6  and  O_20
    7  A    between atoms: O_7  and  C_12
    8  A    between atoms: O_7  and  C_32
    9  A    between atoms: C_10  and  C_48
   10  A    between atoms: C_10  and  C_55
   11  A    between atoms: C_12  and  C_16
   12  A    between atoms: C_14  and  C_27
   13  A    between atoms: C_16  and  C_26
   14  A    between atoms: O_20  and  C_36
   15  A    between atoms: C_28  and  C_39
   16  A    between atoms: C_28  and  C_49
   17  A    between atoms: C_33  and  C_34
   18  A    between atoms: C_35  and  C_39
   19  A    between atoms: C_48  and  C_57
                            x       y       z     vdW  Elec       q    Type
                         _______ _______ _______ _____ _____    ______ ____

>  <TORSDO>
F 19

$$$$
=
 OpenBabel11062418143D

 59 66  0  0  1  0  0  0  0  0999 V2000
  181.6800  177.6880  140.1290 C   0  0  2  0  0  0  0  0  0  0  0  0
  182.5510  178.9690  142.1360 C   0  0  0  0  0  2  0  0  0  0  0  0
  183.9600  178.6270  141.7070 C   0  0  2  0  0  3  0  0  0  0  0  0
  184.0070  177.1840  141.1920 C   0  0  0  0  0  2  0  0  0  0  0  0
  182.9060  176.7640  140.1890 C   0  0  2  0  0  3  0  0  0  0  0  0
  182.7400  177.7220  139.0180 C   0  0  1  0  0  3  0  0  0  0  0  0
  181.7150  179.0380  140.8760 C   0  0  2  0  0  3  0  0  0  0  0  0
  180.3110  176.9600  139.9570 C   0  0  1  0  0  3  0  0  0  0  0  0
  179.4620  177.4180  138.7940 C   0  0  0  0  0  2  0  0  0  0  0  0
  180.5370  175.4910  139.6410 C   0  0  0  0  0  2  0  0  0  0  0  0
  179.3290  176.1900  137.9220 C   0  0  2  0  0  3  0  0  0  0  0  0
  180.3600  175.3050  138.2680 O   0  0  0  0  0  0  0  0  0  0  0  0
  179.3920  176.5660  136.4450 C   0  0  1  0  0  3  0  0  0  0  0  0
  179.8880  177.8600  136.2870 O   0  0  0  0  0  1  0  0  0  0  0  0
  180.2360  175.5740  135.6470 C   0  0  0  0  0  2  0  0  0  0  0  0
  178.9310  173.8290  136.6230 O   0  0  0  0  0  0  0  0  0  0  0  0
  179.9230  173.2890  134.5940 N   0  0  0  0  0  1  0  0  0  0  0  0
  179.6740  174.1870  135.6740 C   0  0  0  0  0  0  0  0  0  0  0  0
  180.3930  179.7160  141.0710 C   0  0  0  0  0  0  0  0  0  0  0  0
  179.9050  180.6120  140.1290 O   0  0  0  0  0  0  0  0  0  0  0  0
  179.6980  179.4470  142.0860 O   0  0  0  0  0  1  0  0  0  0  0  0
  182.3510  176.9870  137.7460 C   0  0  0  0  0  2  0  0  0  0  0  0
  183.4250  177.1600  136.6810 C   0  0  0  0  0  2  0  0  0  0  0  0
  186.2420  178.1570  138.3100 C   0  0  0  0  0  2  0  0  0  0  0  0
  184.3030  174.2740  136.0760 C   0  0  2  0  0  3  0  0  0  0  0  0
  186.4740  175.0290  137.0250 C   0  0  1  0  0  3  0  0  0  0  0  0
  186.0300  177.1800  137.1790 C   0  0  0  0  0  0  0  0  0  0  0  0
  185.4440  173.4220  135.5260 C   0  0  0  0  0  2  0  0  0  0  0  0
  186.2420  178.6370  136.8560 C   0  0  0  0  0  2  0  0  0  0  0  0
  184.7180  176.5160  137.0880 C   0  0  2  0  0  3  0  0  0  0  0  0
  185.0170  175.2430  136.9530 C   0  0  1  0  0  3  0  0  0  0  0  0
  186.7470  174.1740  135.8020 C   0  0  0  0  0  2  0  0  0  0  0  0
  187.0940  176.2950  136.9430 O   0  0  0  0  0  0  0  0  0  0  0  0
  182.7440  173.8370  137.8620 O   0  0  0  0  0  1  0  0  0  0  0  0
  183.3180  173.4190  136.8200 C   0  0  0  0  0  0  0  0  0  0  0  0
  182.9810  172.1700  136.3150 O   0  0  0  0  0  0  0  0  0  0  0  0
  184.8350  178.7950  142.7970 O   0  0  0  0  0  0  0  0  0  0  0  0
  186.9940  177.9670  143.7340 C   0  0  2  0  0  3  0  0  0  0  0  0
  189.1220  177.1020  144.4250 O   0  0  0  0  0  1  0  0  0  0  0  0
  186.0860  178.2020  142.5050 C   0  0  2  0  0  3  0  0  0  0  0  0
  186.8080  178.9310  141.3690 C   0  0  0  0  0  2  0  0  0  0  0  0
  188.1050  178.2210  141.0080 C   0  0  0  0  0  2  0  0  0  0  0  0
  188.2870  177.2620  143.3140 C   0  0  2  0  0  3  0  0  0  0  0  0
  188.9980  178.0880  142.2400 C   0  0  1  0  0  3  0  0  0  0  0  0
  190.3300  177.5040  141.8780 C   0  0  0  0  0  0  0  0  0  0  0  0
  191.2580  177.4350  142.7280 O   0  0  0  0  0  0  0  0  0  0  0  0
  190.7430  176.6080  139.4390 C   0  0  0  0  0  0  0  0  0  0  0  0
  190.5530  177.0300  140.5470 C   0  0  0  0  0  0  0  0  0  0  0  0
  192.5730  174.2430  137.2220 C   0  0  0  0  0  2  0  0  0  0  0  0
  190.3570  174.7370  138.0010 N   0  0  0  0  0  2  0  0  0  0  0  0
  190.9610  176.0650  138.0990 C   0  0  2  0  0  3  0  0  0  0  0  0
  192.7520  175.9620  137.7730 S   0  0  0  0  0  0  0  0  0  0  0  0
  191.1000  174.0260  136.9700 C   0  0  0  0  0  2  0  0  0  0  0  0
  186.2820  177.1250  144.7890 C   0  0  0  0  0  2  0  0  0  0  0  0
  186.0520  177.9850  146.0160 C   0  0  0  0  0  2  0  0  0  0  0  0
  186.9780  177.5780  147.1440 C   0  0  0  0  0  2  0  0  0  0  0  0
  187.9200  178.5840  147.3350 O   0  0  0  0  0  0  0  0  0  0  0  0
  188.5430  178.2640  148.5420 C   0  0  0  0  0  2  0  0  0  0  0  0
  190.0060  177.9670  148.2950 C   0  0  0  0  0  1  0  0  0  0  0  0
  1  8  1  6  0  0  0
  1  5  1  0  0  0  0
  1  7  1  0  0  0  0
  3  2  1  0  0  0  0
  3 37  1  1  0  0  0
  4  3  1  0  0  0  0
  5  4  1  1  0  0  0
  6 22  1  6  0  0  0
  6  1  1  0  0  0  0
  6  5  1  0  0  0  0
  7 19  1  1  0  0  0
  7  2  1  0  0  0  0
  8  9  1  6  0  0  0
 10  8  1  0  0  0  0
 11 13  1  6  0  0  0
 11 12  1  0  0  0  0
 11  9  1  0  0  0  0
 12 10  1  0  0  0  0
 13 14  1  1  0  0  0
 15 18  1  0  0  0  0
 15 13  1  0  0  0  0
 17 18  1  0  0  0  0
 18 16  2  0  0  0  0
 19 21  1  0  0  0  0
 20 19  2  0  0  0  0
 23 22  1  0  0  0  0
 25 35  1  1  0  0  0
 25 31  1  0  0  0  0
 26 32  1  6  0  0  0
 27 24  1  0  0  0  0
 28 32  1  0  0  0  0
 28 25  1  0  0  0  0
 29 27  1  0  0  0  0
 29 24  1  0  0  0  0
 30 23  1  6  0  0  0
 30 27  1  0  0  0  0
 31 26  1  0  0  0  0
 31 30  1  0  0  0  0
 33 26  1  0  0  0  0
 33 27  1  0  0  0  0
 35 34  1  0  0  0  0
 36 35  2  0  0  0  0
 38 54  1  0  0  0  0
 40 37  1  0  0  0  0
 40 38  1  0  0  0  0
 41 40  1  0  0  0  0
 42 41  1  0  0  0  0
 42 44  1  0  0  0  0
 43 38  1  0  0  0  0
 43 39  1  0  0  0  0
 44 43  1  0  0  0  0
 45 44  1  0  0  0  0
 45 46  2  0  0  0  0
 47 48  3  0  0  0  0
 48 45  1  0  0  0  0
 49 52  1  0  0  0  0
 50 51  1  0  0  0  0
 51 47  1  0  0  0  0
 52 51  1  0  0  0  0
 53 49  1  0  0  0  0
 53 50  1  0  0  0  0
 54 55  1  0  0  0  0
 55 56  1  0  0  0  0
 56 57  1  0  0  0  0
 57 58  1  0  0  0  0
 59 58  1  0  0  0  0
M  END
>  <MODEL>
7

>  <REMARK>
 VINA RESULT:      -6.0      2.511      4.987
  Name = 
  19 active torsions:
  status: ('A' for Active; 'I' for Inactive)
    1  A    between atoms: C_1  and  C_38
    2  A    between atoms: C_1  and  C_59
    3  A    between atoms: C_2  and  C_53
    4  A    between atoms: C_3  and  C_9
    5  A    between atoms: C_4  and  C_26
    6  A    between atoms: C_6  and  O_20
    7  A    between atoms: O_7  and  C_12
    8  A    between atoms: O_7  and  C_32
    9  A    between atoms: C_10  and  C_48
   10  A    between atoms: C_10  and  C_55
   11  A    between atoms: C_12  and  C_16
   12  A    between atoms: C_14  and  C_27
   13  A    between atoms: C_16  and  C_26
   14  A    between atoms: O_20  and  C_36
   15  A    between atoms: C_28  and  C_39
   16  A    between atoms: C_28  and  C_49
   17  A    between atoms: C_33  and  C_34
   18  A    between atoms: C_35  and  C_39
   19  A    between atoms: C_48  and  C_57
                            x       y       z     vdW  Elec       q    Type
                         _______ _______ _______ _____ _____    ______ ____

>  <TORSDO>
F 19

$$$$
=
 OpenBabel11062418143D

 59 66  0  0  1  0  0  0  0  0999 V2000
  187.6580  178.3360  142.6070 C   0  0  2  0  0  0  0  0  0  0  0  0
  185.3190  178.5930  143.5530 C   0  0  0  0  0  2  0  0  0  0  0  0
  184.7700  178.4910  142.1470 C   0  0  2  0  0  3  0  0  0  0  0  0
  185.6800  179.2580  141.1800 C   0  0  0  0  0  2  0  0  0  0  0  0
  187.2010  179.0030  141.3010 C   0  0  2  0  0  3  0  0  0  0  0  0
  187.5810  177.5290  141.3020 C   0  0  1  0  0  3  0  0  0  0  0  0
  186.5970  177.7830  143.5830 C   0  0  2  0  0  3  0  0  0  0  0  0
  189.0060  178.8660  143.1850 C   0  0  1  0  0  3  0  0  0  0  0  0
  189.5120  178.1670  144.4260 C   0  0  0  0  0  2  0  0  0  0  0  0
  190.1300  178.6260  142.1910 C   0  0  0  0  0  2  0  0  0  0  0  0
  190.8370  177.5700  144.0050 C   0  0  2  0  0  3  0  0  0  0  0  0
  190.8500  177.5020  142.6050 O   0  0  0  0  0  0  0  0  0  0  0  0
  191.0310  176.1930  144.6310 C   0  0  1  0  0  3  0  0  0  0  0  0
  191.4120  175.2620  143.6650 O   0  0  0  0  0  1  0  0  0  0  0  0
  192.0540  176.2290  145.7650 C   0  0  0  0  0  2  0  0  0  0  0  0
  191.9690  175.2550  147.9440 O   0  0  0  0  0  0  0  0  0  0  0  0
  190.2610  176.7580  147.4780 N   0  0  0  0  0  1  0  0  0  0  0  0
  191.4290  176.0270  147.1110 C   0  0  0  0  0  0  0  0  0  0  0  0
  187.0780  177.4730  144.9690 C   0  0  0  0  0  0  0  0  0  0  0  0
  186.8650  178.3630  146.0120 O   0  0  0  0  0  1  0  0  0  0  0  0
  187.6540  176.3770  145.1980 O   0  0  0  0  0  0  0  0  0  0  0  0
  188.9190  177.2970  140.6190 C   0  0  0  0  0  2  0  0  0  0  0  0
  189.1510  178.3410  139.5360 C   0  0  0  0  0  2  0  0  0  0  0  0
  187.4510  178.6050  136.6000 C   0  0  0  0  0  2  0  0  0  0  0  0
  191.1400  176.1630  138.6600 C   0  0  2  0  0  3  0  0  0  0  0  0
  189.7690  176.1330  136.5860 C   0  0  1  0  0  3  0  0  0  0  0  0
  188.1250  177.4320  137.2660 C   0  0  0  0  0  0  0  0  0  0  0  0
  191.2580  174.8070  137.9700 C   0  0  0  0  0  2  0  0  0  0  0  0
  186.6890  177.7390  137.6070 C   0  0  0  0  0  2  0  0  0  0  0  0
  189.2490  177.7160  138.1760 C   0  0  2  0  0  3  0  0  0  0  0  0
  190.1950  176.8960  137.7740 C   0  0  1  0  0  3  0  0  0  0  0  0
  190.1050  174.7050  136.9700 C   0  0  0  0  0  2  0  0  0  0  0  0
  188.3790  176.3330  136.4310 O   0  0  0  0  0  0  0  0  0  0  0  0
  192.8570  177.3920  139.8240 O   0  0  0  0  0  1  0  0  0  0  0  0
  192.4860  176.8220  138.7630 C   0  0  0  0  0  0  0  0  0  0  0  0
  193.3670  176.7430  137.6920 O   0  0  0  0  0  0  0  0  0  0  0  0
  183.4620  179.0090  142.1170 O   0  0  0  0  0  0  0  0  0  0  0  0
  181.2380  178.0820  141.4670 C   0  0  2  0  0  3  0  0  0  0  0  0
  179.1900  177.1500  140.6360 O   0  0  0  0  0  1  0  0  0  0  0  0
  182.7140  178.3670  141.1030 C   0  0  2  0  0  3  0  0  0  0  0  0
  183.4360  177.1290  140.5620 C   0  0  0  0  0  2  0  0  0  0  0  0
  182.6610  176.5100  139.4080 C   0  0  0  0  0  2  0  0  0  0  0  0
  180.5090  177.4500  140.2770 C   0  0  2  0  0  3  0  0  0  0  0  0
  181.2360  176.1750  139.8460 C   0  0  1  0  0  3  0  0  0  0  0  0
  180.4970  175.4510  138.7630 C   0  0  0  0  0  0  0  0  0  0  0  0
  179.2520  175.5880  138.6270 O   0  0  0  0  0  0  0  0  0  0  0  0
  181.8380  173.8660  137.1470 C   0  0  0  0  0  0  0  0  0  0  0  0
  181.2140  174.5840  137.8790 C   0  0  0  0  0  0  0  0  0  0  0  0
  185.0870  172.2120  136.3920 C   0  0  0  0  0  2  0  0  0  0  0  0
  182.8040  171.6900  136.9230 N   0  0  0  0  0  2  0  0  0  0  0  0
  182.6230  172.9890  136.2780 C   0  0  2  0  0  3  0  0  0  0  0  0
  184.2440  173.7570  135.9520 S   0  0  0  0  0  0  0  0  0  0  0  0
  184.0330  171.1310  136.3750 C   0  0  0  0  0  2  0  0  0  0  0  0
  180.5180  179.3630  141.8750 C   0  0  0  0  0  2  0  0  0  0  0  0
  180.4260  180.2710  140.6650 C   0  0  0  0  0  2  0  0  0  0  0  0
  179.2410  181.2080  140.7780 C   0  0  0  0  0  2  0  0  0  0  0  0
  179.3270  182.1650  139.7720 O   0  0  0  0  0  0  0  0  0  0  0  0
  180.0970  181.5660  138.7750 C   0  0  0  0  0  2  0  0  0  0  0  0
  180.2550  182.5210  137.6130 C   0  0  0  0  0  1  0  0  0  0  0  0
  1  8  1  1  0  0  0
  1  7  1  0  0  0  0
  2  7  1  0  0  0  0
  3 37  1  1  0  0  0
  3  2  1  0  0  0  0
  4  3  1  0  0  0  0
  5  4  1  1  0  0  0
  5  6  1  0  0  0  0
  5  1  1  0  0  0  0
  6 22  1  6  0  0  0
  6  1  1  0  0  0  0
  7 19  1  1  0  0  0
  8 10  1  6  0  0  0
  8  9  1  0  0  0  0
 10 12  1  0  0  0  0
 11  9  1  0  0  0  0
 11 13  1  1  0  0  0
 12 11  1  0  0  0  0
 13 14  1  6  0  0  0
 13 15  1  0  0  0  0
 15 18  1  0  0  0  0
 18 17  1  0  0  0  0
 18 16  2  0  0  0  0
 19 21  2  0  0  0  0
 19 20  1  0  0  0  0
 23 22  1  0  0  0  0
 24 27  1  0  0  0  0
 24 29  1  0  0  0  0
 25 35  1  6  0  0  0
 26 32  1  1  0  0  0
 26 31  1  0  0  0  0
 27 29  1  0  0  0  0
 27 30  1  0  0  0  0
 28 25  1  0  0  0  0
 30 23  1  1  0  0  0
 31 30  1  0  0  0  0
 31 25  1  0  0  0  0
 32 28  1  0  0  0  0
 33 26  1  0  0  0  0
 33 27  1  0  0  0  0
 35 34  1  0  0  0  0
 36 35  2  0  0  0  0
 38 54  1  0  0  0  0
 40 38  1  0  0  0  0
 40 37  1  0  0  0  0
 41 40  1  0  0  0  0
 42 44  1  0  0  0  0
 42 41  1  0  0  0  0
 43 39  1  0  0  0  0
 43 38  1  0  0  0  0
 44 43  1  0  0  0  0
 45 44  1  0  0  0  0
 46 45  2  0  0  0  0
 47 48  3  0  0  0  0
 48 45  1  0  0  0  0
 51 50  1  0  0  0  0
 51 47  1  0  0  0  0
 52 51  1  0  0  0  0
 52 49  1  0  0  0  0
 53 49  1  0  0  0  0
 53 50  1  0  0  0  0
 55 56  1  0  0  0  0
 55 54  1  0  0  0  0
 57 56  1  0  0  0  0
 58 57  1  0  0  0  0
 59 58  1  0  0  0  0
M  END
>  <MODEL>
8

>  <REMARK>
 VINA RESULT:      -6.0      2.832      9.092
  Name = 
  19 active torsions:
  status: ('A' for Active; 'I' for Inactive)
    1  A    between atoms: C_1  and  C_38
    2  A    between atoms: C_1  and  C_59
    3  A    between atoms: C_2  and  C_53
    4  A    between atoms: C_3  and  C_9
    5  A    between atoms: C_4  and  C_26
    6  A    between atoms: C_6  and  O_20
    7  A    between atoms: O_7  and  C_12
    8  A    between atoms: O_7  and  C_32
    9  A    between atoms: C_10  and  C_48
   10  A    between atoms: C_10  and  C_55
   11  A    between atoms: C_12  and  C_16
   12  A    between atoms: C_14  and  C_27
   13  A    between atoms: C_16  and  C_26
   14  A    between atoms: O_20  and  C_36
   15  A    between atoms: C_28  and  C_39
   16  A    between atoms: C_28  and  C_49
   17  A    between atoms: C_33  and  C_34
   18  A    between atoms: C_35  and  C_39
   19  A    between atoms: C_48  and  C_57
                            x       y       z     vdW  Elec       q    Type
                         _______ _______ _______ _____ _____    ______ ____

>  <TORSDO>
F 19

$$$$
=
 OpenBabel11062418143D

 59 66  0  0  1  0  0  0  0  0999 V2000
  186.3520  178.5730  140.7140 C   0  0  2  0  0  0  0  0  0  0  0  0
  187.3670  178.6030  138.3900 C   0  0  0  0  0  2  0  0  0  0  0  0
  188.6980  178.2230  138.9980 C   0  0  2  0  0  3  0  0  0  0  0  0
  188.8980  178.9770  140.3180 C   0  0  0  0  0  2  0  0  0  0  0  0
  187.7100  178.9750  141.3090 C   0  0  2  0  0  3  0  0  0  0  0  0
  187.1430  177.5900  141.5900 C   0  0  1  0  0  3  0  0  0  0  0  0
  186.2950  178.0070  139.2790 C   0  0  2  0  0  3  0  0  0  0  0  0
  185.1290  179.3770  141.2530 C   0  0  1  0  0  3  0  0  0  0  0  0
  183.9460  179.4830  140.3180 C   0  0  0  0  0  2  0  0  0  0  0  0
  184.5330  178.6720  142.4600 C   0  0  0  0  0  2  0  0  0  0  0  0
  182.8200  178.7980  141.0610 C   0  0  2  0  0  3  0  0  0  0  0  0
  183.3920  177.9790  142.0450 O   0  0  0  0  0  0  0  0  0  0  0  0
  181.9530  177.9900  140.1000 C   0  0  1  0  0  3  0  0  0  0  0  0
  181.6610  176.7370  140.6360 O   0  0  0  0  0  1  0  0  0  0  0  0
  180.6630  178.7300  139.7490 C   0  0  0  0  0  2  0  0  0  0  0  0
  181.1330  180.7780  138.6150 O   0  0  0  0  0  0  0  0  0  0  0  0
  180.6150  178.9900  137.2270 N   0  0  0  0  0  1  0  0  0  0  0  0
  180.7990  179.5700  138.5170 C   0  0  0  0  0  0  0  0  0  0  0  0
  184.9400  177.9700  138.6400 C   0  0  0  0  0  0  0  0  0  0  0  0
  184.4320  179.0810  137.9810 O   0  0  0  0  0  0  0  0  0  0  0  0
  184.2640  176.9090  138.6750 O   0  0  0  0  0  1  0  0  0  0  0  0
  186.6430  177.4710  143.0200 C   0  0  0  0  0  2  0  0  0  0  0  0
  187.5540  176.5560  143.8280 C   0  0  0  0  0  2  0  0  0  0  0  0
  190.7180  177.7370  143.4100 C   0  0  0  0  0  2  0  0  0  0  0  0
  187.1420  177.5100  146.7230 C   0  0  2  0  0  3  0  0  0  0  0  0
  189.5360  178.1600  146.5580 C   0  0  1  0  0  3  0  0  0  0  0  0
  189.9970  177.2100  144.6260 C   0  0  0  0  0  0  0  0  0  0  0  0
  187.7760  177.5460  148.1120 C   0  0  0  0  0  2  0  0  0  0  0  0
  190.7220  176.2390  143.7280 C   0  0  0  0  0  2  0  0  0  0  0  0
  188.5290  177.3370  144.6580 C   0  0  2  0  0  3  0  0  0  0  0  0
  188.2840  177.8640  145.8370 C   0  0  1  0  0  3  0  0  0  0  0  0
  189.2930  177.5360  147.9190 C   0  0  0  0  0  2  0  0  0  0  0  0
  190.5880  177.5280  145.8580 O   0  0  0  0  0  0  0  0  0  0  0  0
  184.9650  178.2230  145.9740 O   0  0  0  0  0  0  0  0  0  0  0  0
  186.0030  178.4850  146.6380 C   0  0  0  0  0  0  0  0  0  0  0  0
  186.0650  179.6700  147.3600 O   0  0  0  0  0  1  0  0  0  0  0  0
  189.7300  178.5270  138.0900 O   0  0  0  0  0  0  0  0  0  0  0  0
  189.3940  176.8110  136.3100 C   0  0  2  0  0  3  0  0  0  0  0  0
  189.2660  175.0670  134.6680 O   0  0  0  0  0  1  0  0  0  0  0  0
  190.2220  177.3370  137.5050 C   0  0  2  0  0  3  0  0  0  0  0  0
  190.4900  176.2560  138.5570 C   0  0  0  0  0  2  0  0  0  0  0  0
  191.1080  175.0200  137.9190 C   0  0  0  0  0  2  0  0  0  0  0  0
  190.0520  175.5620  135.7140 C   0  0  2  0  0  3  0  0  0  0  0  0
  190.2100  174.4960  136.7990 C   0  0  1  0  0  3  0  0  0  0  0  0
  190.7390  173.2090  136.2440 C   0  0  0  0  0  0  0  0  0  0  0  0
  189.9550  172.3040  135.8500 O   0  0  0  0  0  0  0  0  0  0  0  0
  193.3410  172.8380  136.1330 C   0  0  0  0  0  0  0  0  0  0  0  0
  192.1520  173.0020  136.1700 C   0  0  0  0  0  0  0  0  0  0  0  0
  196.6820  173.6400  137.5680 C   0  0  0  0  0  2  0  0  0  0  0  0
  195.1780  171.7950  137.2530 N   0  0  0  0  0  2  0  0  0  0  0  0
  194.7890  172.6330  136.1210 C   0  0  2  0  0  3  0  0  0  0  0  0
  195.6280  174.2490  136.2220 S   0  0  0  0  0  0  0  0  0  0  0  0
  196.5620  172.1350  137.5560 C   0  0  0  0  0  2  0  0  0  0  0  0
  189.2610  177.8750  135.2260 C   0  0  0  0  0  2  0  0  0  0  0  0
  187.8340  177.8650  134.7130 C   0  0  0  0  0  2  0  0  0  0  0  0
  186.9180  177.1350  135.6740 C   0  0  0  0  0  2  0  0  0  0  0  0
  185.6450  177.0670  135.1160 O   0  0  0  0  0  0  0  0  0  0  0  0
  185.1640  175.8090  135.4790 C   0  0  0  0  0  2  0  0  0  0  0  0
  186.1710  175.1190  136.3720 C   0  0  0  0  0  1  0  0  0  0  0  0
  1  8  1  1  0  0  0
  1  5  1  0  0  0  0
  1  6  1  0  0  0  0
  2  3  1  0  0  0  0
  2  7  1  0  0  0  0
  3 37  1  6  0  0  0
  3  4  1  0  0  0  0
  5  4  1  6  0  0  0
  5  6  1  0  0  0  0
  6 22  1  1  0  0  0
  7 19  1  6  0  0  0
  7  1  1  0  0  0  0
  8  9  1  6  0  0  0
  8 10  1  0  0  0  0
  9 11  1  0  0  0  0
 11 13  1  6  0  0  0
 11 12  1  0  0  0  0
 12 10  1  0  0  0  0
 13 14  1  1  0  0  0
 15 13  1  0  0  0  0
 17 18  1  0  0  0  0
 18 16  2  0  0  0  0
 18 15  1  0  0  0  0
 19 21  1  0  0  0  0
 20 19  2  0  0  0  0
 22 23  1  0  0  0  0
 24 29  1  0  0  0  0
 24 27  1  0  0  0  0
 25 35  1  1  0  0  0
 25 28  1  0  0  0  0
 26 32  1  1  0  0  0
 27 30  1  0  0  0  0
 27 33  1  0  0  0  0
 29 27  1  0  0  0  0
 30 23  1  1  0  0  0
 30 31  1  0  0  0  0
 31 26  1  0  0  0  0
 31 25  1  0  0  0  0
 32 28  1  0  0  0  0
 33 26  1  0  0  0  0
 34 35  2  0  0  0  0
 35 36  1  0  0  0  0
 38 40  1  0  0  0  0
 39 43  1  0  0  0  0
 40 37  1  0  0  0  0
 40 41  1  0  0  0  0
 42 41  1  0  0  0  0
 43 38  1  0  0  0  0
 43 44  1  0  0  0  0
 44 42  1  0  0  0  0
 45 44  1  0  0  0  0
 46 45  2  0  0  0  0
 47 48  3  0  0  0  0
 48 45  1  0  0  0  0
 50 53  1  0  0  0  0
 51 47  1  0  0  0  0
 51 52  1  0  0  0  0
 51 50  1  0  0  0  0
 52 49  1  0  0  0  0
 53 49  1  0  0  0  0
 54 38  1  0  0  0  0
 55 54  1  0  0  0  0
 55 56  1  0  0  0  0
 57 58  1  0  0  0  0
 57 56  1  0  0  0  0
 58 59  1  0  0  0  0
M  END
>  <MODEL>
9

>  <REMARK>
 VINA RESULT:      -5.9      3.484      9.016
  Name = 
  19 active torsions:
  status: ('A' for Active; 'I' for Inactive)
    1  A    between atoms: C_1  and  C_38
    2  A    between atoms: C_1  and  C_59
    3  A    between atoms: C_2  and  C_53
    4  A    between atoms: C_3  and  C_9
    5  A    between atoms: C_4  and  C_26
    6  A    between atoms: C_6  and  O_20
    7  A    between atoms: O_7  and  C_12
    8  A    between atoms: O_7  and  C_32
    9  A    between atoms: C_10  and  C_48
   10  A    between atoms: C_10  and  C_55
   11  A    between atoms: C_12  and  C_16
   12  A    between atoms: C_14  and  C_27
   13  A    between atoms: C_16  and  C_26
   14  A    between atoms: O_20  and  C_36
   15  A    between atoms: C_28  and  C_39
   16  A    between atoms: C_28  and  C_49
   17  A    between atoms: C_33  and  C_34
   18  A    between atoms: C_35  and  C_39
   19  A    between atoms: C_48  and  C_57
                            x       y       z     vdW  Elec       q    Type
                         _______ _______ _______ _____ _____    ______ ____

>  <TORSDO>
F 19

$$$$
