=
 OpenBabel11062415483D

 44 49  0  0  1  0  0  0  0  0999 V2000
  190.4090  176.7710  135.8940 C   0  0  0  0  0  3  0  0  0  0  0  0
  186.1150  177.8700  135.0210 C   0  0  0  0  0  2  0  0  0  0  0  0
  187.1770  174.5680  136.6850 C   0  0  0  0  0  3  0  0  0  0  0  0
  192.1900  172.7500  136.0750 N   0  0  0  0  0  2  0  0  0  0  0  0
  188.1890  173.7110  136.8470 C   0  0  0  0  0  3  0  0  0  0  0  0
  190.6000  176.3570  134.7200 O   0  0  0  0  0  0  0  0  0  0  0  0
  188.3390  178.2390  138.1040 C   0  0  0  0  0  2  0  0  0  0  0  0
  190.0770  176.3630  138.3570 C   0  0  2  0  0  3  0  0  0  0  0  0
  186.4120  178.0240  136.5040 C   0  0  2  0  0  3  0  0  0  0  0  0
  188.3040  176.7080  139.9270 O   0  0  0  0  0  1  0  0  0  0  0  0
  187.9080  178.2690  136.6480 C   0  0  0  0  0  2  0  0  0  0  0  0
  190.3180  175.8620  137.0030 N   0  0  0  0  0  0  0  0  0  0  0  0
  189.4500  173.7460  136.0370 C   0  0  1  0  0  3  0  0  0  0  0  0
  191.9500  174.1790  136.2440 C   0  0  0  0  0  2  0  0  0  0  0  0
  191.2260  172.2420  135.1050 C   0  0  0  0  0  2  0  0  0  0  0  0
  187.1560  175.6390  135.6390 C   0  0  0  0  0  2  0  0  0  0  0  0
  186.0450  176.6590  135.9230 C   0  0  2  0  0  0  0  0  0  0  0  0
  190.5650  174.4260  136.8530 C   0  0  1  0  0  3  0  0  0  0  0  0
  189.8240  172.3050  135.6990 C   0  0  0  0  0  2  0  0  0  0  0  0
  188.6240  176.8150  138.5740 C   0  0  1  0  0  3  0  0  0  0  0  0
  182.1170  178.0310  135.5710 C   0  0  0  0  0  2  0  0  0  0  0  0
  182.1840  177.5330  138.3160 C   0  0  1  0  0  3  0  0  0  0  0  0
  181.9690  177.2230  139.7860 C   0  0  0  0  0  1  0  0  0  0  0  0
  181.7360  176.5970  135.9460 C   0  0  1  0  0  3  0  0  0  0  0  0
  183.9130  175.6040  134.9130 C   0  0  1  0  0  3  0  0  0  0  0  0
  184.3860  175.4850  137.4770 C   0  0  0  0  0  2  0  0  0  0  0  0
  182.3740  175.5690  134.9960 C   0  0  0  0  0  2  0  0  0  0  0  0
  184.5950  176.2230  136.1500 C   0  0  1  0  0  3  0  0  0  0  0  0
  181.9310  176.2820  137.4590 C   0  0  1  0  0  3  0  0  0  0  0  0
  182.9210  175.1410  137.7580 C   0  0  0  0  0  2  0  0  0  0  0  0
  181.2300  178.6520  137.9060 C   0  0  0  0  0  2  0  0  0  0  0  0
  181.3810  179.0590  136.4340 C   0  0  0  0  0  2  0  0  0  0  0  0
  184.4470  174.2120  134.5970 C   0  0  0  0  0  2  0  0  0  0  0  0
  183.3930  173.1480  134.8580 C   0  0  0  0  0  2  0  0  0  0  0  0
  184.0380  171.8780  136.7920 N   0  0  0  0  0  2  0  0  0  0  0  0
  184.0010  171.9550  135.5150 C   0  0  0  0  0  3  0  0  0  0  0  0
  191.1170  177.3940  138.7880 C   0  0  0  0  0  2  0  0  0  0  0  0
  191.8640  176.8920  139.9280 N   0  0  0  0  0  2  0  0  0  0  0  0
  191.7210  177.8750  140.9880 C   0  0  0  0  0  2  0  0  0  0  0  0
  189.0780  177.4330  143.4930 C   0  0  0  0  0  3  0  0  0  0  0  0
  189.8240  178.2240  142.7380 C   0  0  0  0  0  3  0  0  0  0  0  0
  190.7450  177.3820  141.9970 C   0  0  0  0  0  0  0  0  0  0  0  0
  189.4650  176.0030  143.2930 C   0  0  0  0  0  2  0  0  0  0  0  0
  190.5520  176.1070  142.2780 C   0  0  0  0  0  3  0  0  0  0  0  0
  1 12  1  0  0  0  0
  3  5  2  0  0  0  0
  4 14  1  0  0  0  0
  6  1  2  0  0  0  0
  7 20  1  0  0  0  0
  8 20  1  0  0  0  0
  8 37  1  6  0  0  0
  9  2  1  6  0  0  0
  9 11  1  0  0  0  0
 11  7  1  0  0  0  0
 12  8  1  0  0  0  0
 13 19  1  1  0  0  0
 13  5  1  0  0  0  0
 13 18  1  0  0  0  0
 15 19  1  0  0  0  0
 15  4  1  0  0  0  0
 16 17  1  0  0  0  0
 16  3  1  0  0  0  0
 17  2  1  6  0  0  0
 17 28  1  0  0  0  0
 17  9  1  0  0  0  0
 18 14  1  6  0  0  0
 18 12  1  0  0  0  0
 20 10  1  1  0  0  0
 21 24  1  0  0  0  0
 21 32  1  0  0  0  0
 22 23  1  1  0  0  0
 24 27  1  6  0  0  0
 24 29  1  0  0  0  0
 25 33  1  1  0  0  0
 25 27  1  0  0  0  0
 25 28  1  0  0  0  0
 26 30  1  0  0  0  0
 28 26  1  1  0  0  0
 29 30  1  6  0  0  0
 29 22  1  0  0  0  0
 31 22  1  0  0  0  0
 32 31  1  0  0  0  0
 33 34  1  0  0  0  0
 34 36  1  0  0  0  0
 36 35  2  0  0  0  0
 37 38  1  0  0  0  0
 38 39  1  0  0  0  0
 39 42  1  0  0  0  0
 41 40  2  0  0  0  0
 42 44  2  0  0  0  0
 42 41  1  0  0  0  0
 43 40  1  0  0  0  0
 44 43  1  0  0  0  0
M  END
>  <MODEL>
1

>  <REMARK>
 VINA RESULT:      -5.0      0.000      0.000
  Name = 
  8 active torsions:
  status: ('A' for Active; 'I' for Inactive)
    1  A    between atoms: C_6  and  C_25
    2  A    between atoms: C_6  and  C_33
    3  A    between atoms: C_16  and  C_42
    4  A    between atoms: C_17  and  N_18
    5  A    between atoms: C_17  and  C_19
    6  A    between atoms: N_18  and  C_42
    7  A    between atoms: C_22  and  C_25
    8  A    between atoms: C_32  and  C_35
                            x       y       z     vdW  Elec       q    Type
                         _______ _______ _______ _____ _____    ______ ____

>  <TORSDO>
F 8

$$$$
=
 OpenBabel11062415483D

 44 49  0  0  1  0  0  0  0  0999 V2000
  180.0340  178.5070  140.4960 C   0  0  0  0  0  3  0  0  0  0  0  0
  181.3860  174.9540  138.0540 C   0  0  0  0  0  2  0  0  0  0  0  0
  182.3820  178.5870  137.2700 C   0  0  0  0  0  3  0  0  0  0  0  0
  179.4040  182.6450  139.1330 N   0  0  0  0  0  2  0  0  0  0  0  0
  182.0400  179.8670  137.4420 C   0  0  0  0  0  3  0  0  0  0  0  0
  178.9310  178.5730  139.8910 O   0  0  0  0  0  0  0  0  0  0  0  0
  182.9440  176.8820  140.9600 C   0  0  0  0  0  2  0  0  0  0  0  0
  182.3450  179.3810  140.9840 C   0  0  2  0  0  3  0  0  0  0  0  0
  182.5210  175.4590  138.9320 C   0  0  2  0  0  3  0  0  0  0  0  0
  184.5800  178.5870  140.6660 O   0  0  0  0  0  1  0  0  0  0  0  0
  181.8950  176.1690  140.1250 C   0  0  0  0  0  2  0  0  0  0  0  0
  181.0630  179.4870  140.2850 N   0  0  0  0  0  0  0  0  0  0  0  0
  180.7100  180.3120  137.9700 C   0  0  1  0  0  3  0  0  0  0  0  0
  179.6340  181.4690  139.9670 C   0  0  0  0  0  2  0  0  0  0  0  0
  179.0550  182.1870  137.7930 C   0  0  0  0  0  2  0  0  0  0  0  0
  181.4600  177.4380  137.5370 C   0  0  0  0  0  2  0  0  0  0  0  0
  182.2330  176.1140  137.5810 C   0  0  2  0  0  0  0  0  0  0  0  0
  180.8460  180.6770  139.4600 C   0  0  1  0  0  3  0  0  0  0  0  0
  180.2650  181.5210  137.1500 C   0  0  0  0  0  2  0  0  0  0  0  0
  183.2450  178.2740  140.4110 C   0  0  1  0  0  3  0  0  0  0  0  0
  185.1230  173.2650  136.5950 C   0  0  0  0  0  2  0  0  0  0  0  0
  186.6550  175.5830  136.3280 C   0  0  1  0  0  3  0  0  0  0  0  0
  187.6220  176.7090  136.0130 C   0  0  0  0  0  1  0  0  0  0  0  0
  185.0550  173.8910  135.2000 C   0  0  1  0  0  3  0  0  0  0  0  0
  182.5710  174.6190  135.5000 C   0  0  1  0  0  3  0  0  0  0  0  0
  183.8660  176.8690  135.7630 C   0  0  0  0  0  2  0  0  0  0  0  0
  183.6220  173.8870  134.6420 C   0  0  0  0  0  2  0  0  0  0  0  0
  183.1620  175.6890  136.4400 C   0  0  1  0  0  3  0  0  0  0  0  0
  185.7790  175.2660  135.1050 C   0  0  1  0  0  3  0  0  0  0  0  0
  184.8760  176.4440  134.6940 C   0  0  0  0  0  2  0  0  0  0  0  0
  187.4540  174.3480  136.7360 C   0  0  0  0  0  2  0  0  0  0  0  0
  186.5640  173.1510  137.0980 C   0  0  0  0  0  2  0  0  0  0  0  0
  181.4720  175.1820  134.6060 C   0  0  0  0  0  2  0  0  0  0  0  0
  180.2540  174.2720  134.5960 C   0  0  0  0  0  2  0  0  0  0  0  0
  180.0830  171.9330  135.1200 N   0  0  0  0  0  2  0  0  0  0  0  0
  180.4680  173.0970  135.4900 C   0  0  0  0  0  3  0  0  0  0  0  0
  182.1760  179.3190  142.5000 C   0  0  0  0  0  2  0  0  0  0  0  0
  183.4580  179.5340  143.1480 N   0  0  0  0  0  2  0  0  0  0  0  0
  183.3330  179.0290  144.5040 C   0  0  0  0  0  2  0  0  0  0  0  0
  186.7760  177.8180  144.8610 C   0  0  0  0  0  3  0  0  0  0  0  0
  185.7690  178.2060  144.0950 C   0  0  0  0  0  3  0  0  0  0  0  0
  184.6460  178.5040  144.9640 C   0  0  0  0  0  0  0  0  0  0  0  0
  186.3750  177.8380  146.3010 C   0  0  0  0  0  2  0  0  0  0  0  0
  184.9670  178.3230  146.2310 C   0  0  0  0  0  3  0  0  0  0  0  0
  3  5  2  0  0  0  0
  3 16  1  0  0  0  0
  4 14  1  0  0  0  0
  5 13  1  0  0  0  0
  6  1  2  0  0  0  0
  8 37  1  1  0  0  0
  9  2  1  6  0  0  0
  9 11  1  0  0  0  0
 11  7  1  0  0  0  0
 12  1  1  0  0  0  0
 12  8  1  0  0  0  0
 13 19  1  6  0  0  0
 13 18  1  0  0  0  0
 15  4  1  0  0  0  0
 17 16  1  6  0  0  0
 17  2  1  0  0  0  0
 17  9  1  0  0  0  0
 18 14  1  1  0  0  0
 18 12  1  0  0  0  0
 19 15  1  0  0  0  0
 20 10  1  1  0  0  0
 20  7  1  0  0  0  0
 20  8  1  0  0  0  0
 21 32  1  0  0  0  0
 22 23  1  6  0  0  0
 22 31  1  0  0  0  0
 24 27  1  1  0  0  0
 24 21  1  0  0  0  0
 25 33  1  6  0  0  0
 25 28  1  0  0  0  0
 27 25  1  0  0  0  0
 28 26  1  6  0  0  0
 28 17  1  0  0  0  0
 29 30  1  1  0  0  0
 29 24  1  0  0  0  0
 29 22  1  0  0  0  0
 30 26  1  0  0  0  0
 31 32  1  0  0  0  0
 34 33  1  0  0  0  0
 34 36  1  0  0  0  0
 35 36  2  0  0  0  0
 37 38  1  0  0  0  0
 38 39  1  0  0  0  0
 39 42  1  0  0  0  0
 40 43  1  0  0  0  0
 41 40  2  0  0  0  0
 41 42  1  0  0  0  0
 42 44  2  0  0  0  0
 44 43  1  0  0  0  0
M  END
>  <MODEL>
2

>  <REMARK>
 VINA RESULT:      -4.7      4.075      8.009
  Name = 
  8 active torsions:
  status: ('A' for Active; 'I' for Inactive)
    1  A    between atoms: C_6  and  C_25
    2  A    between atoms: C_6  and  C_33
    3  A    between atoms: C_16  and  C_42
    4  A    between atoms: C_17  and  N_18
    5  A    between atoms: C_17  and  C_19
    6  A    between atoms: N_18  and  C_42
    7  A    between atoms: C_22  and  C_25
    8  A    between atoms: C_32  and  C_35
                            x       y       z     vdW  Elec       q    Type
                         _______ _______ _______ _____ _____    ______ ____

>  <TORSDO>
F 8

$$$$
=
 OpenBabel11062415483D

 44 49  0  0  1  0  0  0  0  0999 V2000
  190.2440  176.5060  135.7790 C   0  0  0  0  0  3  0  0  0  0  0  0
  186.1770  178.4700  135.6700 C   0  0  0  0  0  2  0  0  0  0  0  0
  186.8230  174.9780  137.1510 C   0  0  0  0  0  3  0  0  0  0  0  0
  191.1760  172.2050  135.6800 N   0  0  0  0  0  2  0  0  0  0  0  0
  187.6530  173.9310  137.1390 C   0  0  0  0  0  3  0  0  0  0  0  0
  190.1390  176.0930  134.5940 O   0  0  0  0  0  0  0  0  0  0  0  0
  188.9350  178.3000  138.3060 C   0  0  0  0  0  2  0  0  0  0  0  0
  190.2730  176.1070  138.2660 C   0  0  2  0  0  3  0  0  0  0  0  0
  186.7550  178.5210  137.0760 C   0  0  2  0  0  3  0  0  0  0  0  0
  188.9110  176.7590  140.1210 O   0  0  0  0  0  1  0  0  0  0  0  0
  188.2710  178.4550  136.9500 C   0  0  0  0  0  2  0  0  0  0  0  0
  190.1670  175.6040  136.8950 N   0  0  0  0  0  0  0  0  0  0  0  0
  188.7320  173.7330  136.1180 C   0  0  1  0  0  3  0  0  0  0  0  0
  191.2650  173.6480  135.8740 C   0  0  0  0  0  2  0  0  0  0  0  0
  189.9740  171.9270  134.9010 C   0  0  0  0  0  2  0  0  0  0  0  0
  186.8360  176.0590  136.1150 C   0  0  0  0  0  2  0  0  0  0  0  0
  186.0220  177.2730  136.5820 C   0  0  2  0  0  0  0  0  0  0  0  0
  190.0870  174.1530  136.7170 C   0  0  1  0  0  3  0  0  0  0  0  0
  188.7410  172.2550  135.7330 C   0  0  0  0  0  2  0  0  0  0  0  0
  189.0030  176.8360  138.7320 C   0  0  1  0  0  3  0  0  0  0  0  0
  183.2980  174.4380  137.9900 C   0  0  0  0  0  2  0  0  0  0  0  0
  181.9360  175.2890  135.7070 C   0  0  1  0  0  3  0  0  0  0  0  0
  180.9840  175.6860  134.5940 C   0  0  0  0  0  1  0  0  0  0  0  0
  182.3880  175.6450  138.2290 C   0  0  1  0  0  3  0  0  0  0  0  0
  184.4000  177.2610  138.5930 C   0  0  1  0  0  3  0  0  0  0  0  0
  183.5720  177.9020  136.2030 C   0  0  0  0  0  2  0  0  0  0  0  0
  183.0640  176.7020  139.1200 C   0  0  0  0  0  2  0  0  0  0  0  0
  184.5770  177.1320  137.0670 C   0  0  1  0  0  3  0  0  0  0  0  0
  181.7580  176.2130  136.9230 C   0  0  1  0  0  3  0  0  0  0  0  0
  182.1160  177.6790  136.6190 C   0  0  0  0  0  2  0  0  0  0  0  0
  181.6540  173.8420  136.1010 C   0  0  0  0  0  2  0  0  0  0  0  0
  182.5820  173.3310  137.2130 C   0  0  0  0  0  2  0  0  0  0  0  0
  184.5890  178.6950  139.0760 C   0  0  0  0  0  2  0  0  0  0  0  0
  184.1100  178.8570  140.5100 C   0  0  0  0  0  2  0  0  0  0  0  0
  185.0580  179.2950  142.6730 N   0  0  0  0  0  2  0  0  0  0  0  0
  185.2650  179.0720  141.4290 C   0  0  0  0  0  3  0  0  0  0  0  0
  191.5610  176.8960  138.4960 C   0  0  0  0  0  2  0  0  0  0  0  0
  192.6860  175.9830  138.5920 N   0  0  0  0  0  2  0  0  0  0  0  0
  193.5850  176.3090  137.4990 C   0  0  0  0  0  2  0  0  0  0  0  0
  195.7540  173.7710  135.9820 C   0  0  0  0  0  3  0  0  0  0  0  0
  195.0510  174.8870  135.8840 C   0  0  0  0  0  3  0  0  0  0  0  0
  194.4200  175.1230  137.1690 C   0  0  0  0  0  0  0  0  0  0  0  0
  195.6310  173.1950  137.3570 C   0  0  0  0  0  2  0  0  0  0  0  0
  194.7470  174.1850  138.0370 C   0  0  0  0  0  3  0  0  0  0  0  0
  1 12  1  0  0  0  0
  4 14  1  0  0  0  0
  5  3  2  0  0  0  0
  6  1  2  0  0  0  0
  7 20  1  0  0  0  0
  8 37  1  6  0  0  0
  8 20  1  0  0  0  0
  9  2  1  6  0  0  0
 11  9  1  0  0  0  0
 11  7  1  0  0  0  0
 12  8  1  0  0  0  0
 13 19  1  1  0  0  0
 13 18  1  0  0  0  0
 13  5  1  0  0  0  0
 15  4  1  0  0  0  0
 15 19  1  0  0  0  0
 16 17  1  0  0  0  0
 16  3  1  0  0  0  0
 17  2  1  6  0  0  0
 17 28  1  0  0  0  0
 17  9  1  0  0  0  0
 18 14  1  6  0  0  0
 18 12  1  0  0  0  0
 20 10  1  1  0  0  0
 22 23  1  6  0  0  0
 22 31  1  0  0  0  0
 22 29  1  0  0  0  0
 24 21  1  6  0  0  0
 24 27  1  0  0  0  0
 25 33  1  6  0  0  0
 25 27  1  0  0  0  0
 26 30  1  0  0  0  0
 28 26  1  6  0  0  0
 28 25  1  0  0  0  0
 29 30  1  6  0  0  0
 29 24  1  0  0  0  0
 31 32  1  0  0  0  0
 32 21  1  0  0  0  0
 33 34  1  0  0  0  0
 34 36  1  0  0  0  0
 36 35  2  0  0  0  0
 37 38  1  0  0  0  0
 39 38  1  0  0  0  0
 40 43  1  0  0  0  0
 41 40  2  0  0  0  0
 41 42  1  0  0  0  0
 42 39  1  0  0  0  0
 42 44  2  0  0  0  0
 43 44  1  0  0  0  0
M  END
>  <MODEL>
3

>  <REMARK>
 VINA RESULT:      -4.6      2.173      4.429
  Name = 
  8 active torsions:
  status: ('A' for Active; 'I' for Inactive)
    1  A    between atoms: C_6  and  C_25
    2  A    between atoms: C_6  and  C_33
    3  A    between atoms: C_16  and  C_42
    4  A    between atoms: C_17  and  N_18
    5  A    between atoms: C_17  and  C_19
    6  A    between atoms: N_18  and  C_42
    7  A    between atoms: C_22  and  C_25
    8  A    between atoms: C_32  and  C_35
                            x       y       z     vdW  Elec       q    Type
                         _______ _______ _______ _____ _____    ______ ____

>  <TORSDO>
F 8

$$$$
=
 OpenBabel11062415483D

 44 49  0  0  1  0  0  0  0  0999 V2000
  189.9380  176.5990  135.7730 C   0  0  0  0  0  3  0  0  0  0  0  0
  185.7340  178.2490  135.6380 C   0  0  0  0  0  2  0  0  0  0  0  0
  186.6410  174.8400  137.1730 C   0  0  0  0  0  3  0  0  0  0  0  0
  191.1920  172.3800  135.7420 N   0  0  0  0  0  2  0  0  0  0  0  0
  187.5480  173.8580  137.1770 C   0  0  0  0  0  3  0  0  0  0  0  0
  189.8640  176.1610  134.5950 O   0  0  0  0  0  0  0  0  0  0  0  0
  188.4960  178.3300  138.2730 C   0  0  0  0  0  2  0  0  0  0  0  0
  189.9960  176.2430  138.2660 C   0  0  2  0  0  3  0  0  0  0  0  0
  186.3060  178.3660  137.0420 C   0  0  2  0  0  3  0  0  0  0  0  0
  188.5890  176.8210  140.1130 O   0  0  0  0  0  1  0  0  0  0  0  0
  187.8230  178.4130  136.9150 C   0  0  0  0  0  2  0  0  0  0  0  0
  189.9280  175.7120  136.9040 N   0  0  0  0  0  0  0  0  0  0  0  0
  188.6390  173.7260  136.1590 C   0  0  1  0  0  3  0  0  0  0  0  0
  191.1710  173.8290  135.9130 C   0  0  0  0  0  2  0  0  0  0  0  0
  190.0140  172.0000  134.9690 C   0  0  0  0  0  2  0  0  0  0  0  0
  186.5730  175.9020  136.1210 C   0  0  0  0  0  2  0  0  0  0  0  0
  185.6700  177.0590  136.5680 C   0  0  2  0  0  0  0  0  0  0  0  0
  189.9580  174.2560  136.7500 C   0  0  1  0  0  3  0  0  0  0  0  0
  188.7590  172.2470  135.7960 C   0  0  0  0  0  2  0  0  0  0  0  0
  188.6750  176.8820  138.7220 C   0  0  1  0  0  3  0  0  0  0  0  0
  181.9350  178.9100  136.8190 C   0  0  0  0  0  2  0  0  0  0  0  0
  182.4150  178.4770  139.5350 C   0  0  1  0  0  3  0  0  0  0  0  0
  182.4220  178.2340  141.0320 C   0  0  0  0  0  1  0  0  0  0  0  0
  181.4550  177.5460  137.3200 C   0  0  1  0  0  3  0  0  0  0  0  0
  183.2830  176.2590  135.9820 C   0  0  1  0  0  3  0  0  0  0  0  0
  184.1750  176.1450  138.4320 C   0  0  0  0  0  2  0  0  0  0  0  0
  181.7890  176.4220  136.3250 C   0  0  0  0  0  2  0  0  0  0  0  0
  184.2390  176.8170  137.0570 C   0  0  1  0  0  3  0  0  0  0  0  0
  181.8690  177.2470  138.7910 C   0  0  1  0  0  3  0  0  0  0  0  0
  182.7500  175.9970  138.9720 C   0  0  0  0  0  2  0  0  0  0  0  0
  181.5480  179.6980  139.2390 C   0  0  0  0  0  2  0  0  0  0  0  0
  181.4900  180.0450  137.7450 C   0  0  0  0  0  2  0  0  0  0  0  0
  183.5830  174.8020  135.6460 C   0  0  0  0  0  2  0  0  0  0  0  0
  182.3710  173.9210  135.9040 C   0  0  0  0  0  2  0  0  0  0  0  0
  183.9390  172.4910  137.0300 N   0  0  0  0  0  2  0  0  0  0  0  0
  182.7140  172.8180  136.8470 C   0  0  0  0  0  3  0  0  0  0  0  0
  191.2200  177.1310  138.4830 C   0  0  0  0  0  2  0  0  0  0  0  0
  192.3940  176.3040  138.7040 N   0  0  0  0  0  2  0  0  0  0  0  0
  193.3790  176.7020  137.7140 C   0  0  0  0  0  2  0  0  0  0  0  0
  194.8970  173.4130  137.1400 C   0  0  0  0  0  3  0  0  0  0  0  0
  194.3040  174.2790  137.9460 C   0  0  0  0  0  2  0  0  0  0  0  0
  194.0770  175.4970  137.1900 C   0  0  0  0  0  0  0  0  0  0  0  0
  195.0980  174.0130  135.7850 C   0  0  0  0  0  3  0  0  0  0  0  0
  194.5010  175.3690  135.9480 C   0  0  0  0  0  3  0  0  0  0  0  0
  1 12  1  0  0  0  0
  3  5  2  0  0  0  0
  4 14  1  0  0  0  0
  6  1  2  0  0  0  0
  7 20  1  0  0  0  0
  8 37  1  6  0  0  0
  8 20  1  0  0  0  0
  9  2  1  6  0  0  0
 11  9  1  0  0  0  0
 11  7  1  0  0  0  0
 12  8  1  0  0  0  0
 13 19  1  1  0  0  0
 13 18  1  0  0  0  0
 13  5  1  0  0  0  0
 15  4  1  0  0  0  0
 15 19  1  0  0  0  0
 16 17  1  0  0  0  0
 16  3  1  0  0  0  0
 17  2  1  6  0  0  0
 17  9  1  0  0  0  0
 17 28  1  0  0  0  0
 18 14  1  6  0  0  0
 18 12  1  0  0  0  0
 20 10  1  1  0  0  0
 21 24  1  0  0  0  0
 21 32  1  0  0  0  0
 22 23  1  1  0  0  0
 24 27  1  6  0  0  0
 24 29  1  0  0  0  0
 25 33  1  1  0  0  0
 25 27  1  0  0  0  0
 25 28  1  0  0  0  0
 26 30  1  0  0  0  0
 28 26  1  1  0  0  0
 29 30  1  6  0  0  0
 29 22  1  0  0  0  0
 31 22  1  0  0  0  0
 32 31  1  0  0  0  0
 33 34  1  0  0  0  0
 34 36  1  0  0  0  0
 36 35  2  0  0  0  0
 37 38  1  0  0  0  0
 39 38  1  0  0  0  0
 40 41  1  0  0  0  0
 42 39  1  0  0  0  0
 42 41  1  0  0  0  0
 43 44  1  0  0  0  0
 43 40  2  0  0  0  0
 44 42  2  0  0  0  0
M  END
>  <MODEL>
4

>  <REMARK>
 VINA RESULT:      -4.5      1.774      3.019
  Name = 
  8 active torsions:
  status: ('A' for Active; 'I' for Inactive)
    1  A    between atoms: C_6  and  C_25
    2  A    between atoms: C_6  and  C_33
    3  A    between atoms: C_16  and  C_42
    4  A    between atoms: C_17  and  N_18
    5  A    between atoms: C_17  and  C_19
    6  A    between atoms: N_18  and  C_42
    7  A    between atoms: C_22  and  C_25
    8  A    between atoms: C_32  and  C_35
                            x       y       z     vdW  Elec       q    Type
                         _______ _______ _______ _____ _____    ______ ____

>  <TORSDO>
F 8

$$$$
=
 OpenBabel11062415483D

 44 49  0  0  1  0  0  0  0  0999 V2000
  187.8750  175.5200  137.0130 C   0  0  0  0  0  3  0  0  0  0  0  0
  183.3630  175.2960  136.9370 C   0  0  0  0  0  2  0  0  0  0  0  0
  185.3290  178.2510  138.4220 C   0  0  0  0  0  3  0  0  0  0  0  0
  190.4330  177.5820  139.9420 N   0  0  0  0  0  2  0  0  0  0  0  0
  186.5060  178.6230  138.9340 C   0  0  0  0  0  3  0  0  0  0  0  0
  187.9480  174.8180  138.0560 O   0  0  0  0  0  0  0  0  0  0  0  0
  185.9480  176.8710  134.6080 C   0  0  0  0  0  2  0  0  0  0  0  0
  188.0450  177.7310  135.8180 C   0  0  2  0  0  3  0  0  0  0  0  0
  183.8660  176.2650  135.8780 C   0  0  2  0  0  3  0  0  0  0  0  0
  186.5250  179.1800  134.6710 O   0  0  0  0  0  1  0  0  0  0  0  0
  185.2840  175.8490  135.5140 C   0  0  0  0  0  2  0  0  0  0  0  0
  188.1540  176.9290  137.0380 N   0  0  0  0  0  0  0  0  0  0  0  0
  187.5810  177.6620  139.3400 C   0  0  1  0  0  3  0  0  0  0  0  0
  189.9420  176.9270  138.7340 C   0  0  0  0  0  2  0  0  0  0  0  0
  189.4440  177.3860  140.9960 C   0  0  0  0  0  2  0  0  0  0  0  0
  184.9190  176.8230  138.2370 C   0  0  0  0  0  2  0  0  0  0  0  0
  183.6890  176.7210  137.3260 C   0  0  2  0  0  0  0  0  0  0  0  0
  188.6560  177.6000  138.2390 C   0  0  1  0  0  3  0  0  0  0  0  0
  188.1760  178.1600  140.6560 C   0  0  0  0  0  2  0  0  0  0  0  0
  186.5870  178.0000  135.4120 C   0  0  1  0  0  3  0  0  0  0  0  0
  179.6830  177.0100  136.1850 C   0  0  0  0  0  2  0  0  0  0  0  0
  180.5480  179.5660  135.4710 C   0  0  1  0  0  3  0  0  0  0  0  0
  180.7770  181.0250  135.1250 C   0  0  0  0  0  1  0  0  0  0  0  0
  179.5850  178.0330  137.3190 C   0  0  1  0  0  3  0  0  0  0  0  0
  181.4980  176.9070  138.6830 C   0  0  1  0  0  3  0  0  0  0  0  0
  182.6590  179.0300  137.7090 C   0  0  0  0  0  2  0  0  0  0  0  0
  180.0540  177.4450  138.6610 C   0  0  0  0  0  2  0  0  0  0  0  0
  182.4150  177.5210  137.6060 C   0  0  1  0  0  3  0  0  0  0  0  0
  180.2170  179.4110  136.9640 C   0  0  1  0  0  3  0  0  0  0  0  0
  181.3750  179.8450  137.8830 C   0  0  0  0  0  2  0  0  0  0  0  0
  179.3980  179.0340  134.6200 C   0  0  0  0  0  2  0  0  0  0  0  0
  179.0970  177.5510  134.8780 C   0  0  0  0  0  2  0  0  0  0  0  0
  182.0820  177.0460  140.0850 C   0  0  0  0  0  2  0  0  0  0  0  0
  181.1930  177.9100  140.9650 C   0  0  0  0  0  2  0  0  0  0  0  0
  181.4790  179.3460  142.8690 N   0  0  0  0  0  2  0  0  0  0  0  0
  182.0170  178.7750  141.8580 C   0  0  0  0  0  3  0  0  0  0  0  0
  188.9140  177.1860  134.6870 C   0  0  0  0  0  2  0  0  0  0  0  0
  190.3090  177.1970  135.0890 N   0  0  0  0  0  2  0  0  0  0  0  0
  190.8950  175.9600  134.6020 C   0  0  0  0  0  2  0  0  0  0  0  0
  193.0360  175.0340  137.4320 C   0  0  0  0  0  3  0  0  0  0  0  0
  192.6540  175.9140  136.5210 C   0  0  0  0  0  3  0  0  0  0  0  0
  191.6300  175.2870  135.7070 C   0  0  0  0  0  0  0  0  0  0  0  0
  192.2760  173.7560  137.2740 C   0  0  0  0  0  2  0  0  0  0  0  0
  191.3780  174.0610  136.1230 C   0  0  0  0  0  3  0  0  0  0  0  0
  1 12  1  0  0  0  0
  1  6  2  0  0  0  0
  3  5  2  0  0  0  0
  4 15  1  0  0  0  0
  7 20  1  0  0  0  0
  7 11  1  0  0  0  0
  8 37  1  6  0  0  0
  8 12  1  0  0  0  0
  9 11  1  1  0  0  0
  9  2  1  0  0  0  0
  9 17  1  0  0  0  0
 12 18  1  0  0  0  0
 13  5  1  6  0  0  0
 13 19  1  0  0  0  0
 14  4  1  0  0  0  0
 16  3  1  0  0  0  0
 17  2  1  1  0  0  0
 17 28  1  0  0  0  0
 17 16  1  0  0  0  0
 18 14  1  1  0  0  0
 18 13  1  0  0  0  0
 19 15  1  0  0  0  0
 20 10  1  6  0  0  0
 20  8  1  0  0  0  0
 22 23  1  1  0  0  0
 22 29  1  0  0  0  0
 24 21  1  6  0  0  0
 24 27  1  0  0  0  0
 25 33  1  1  0  0  0
 26 30  1  0  0  0  0
 27 25  1  0  0  0  0
 28 26  1  1  0  0  0
 28 25  1  0  0  0  0
 29 24  1  0  0  0  0
 29 30  1  1  0  0  0
 31 32  1  0  0  0  0
 31 22  1  0  0  0  0
 32 21  1  0  0  0  0
 33 34  1  0  0  0  0
 34 36  1  0  0  0  0
 36 35  2  0  0  0  0
 37 38  1  0  0  0  0
 39 38  1  0  0  0  0
 39 42  1  0  0  0  0
 41 40  2  0  0  0  0
 42 44  2  0  0  0  0
 42 41  1  0  0  0  0
 43 40  1  0  0  0  0
 44 43  1  0  0  0  0
M  END
>  <MODEL>
5

>  <REMARK>
 VINA RESULT:      -4.1      2.364      5.438
  Name = 
  8 active torsions:
  status: ('A' for Active; 'I' for Inactive)
    1  A    between atoms: C_6  and  C_25
    2  A    between atoms: C_6  and  C_33
    3  A    between atoms: C_16  and  C_42
    4  A    between atoms: C_17  and  N_18
    5  A    between atoms: C_17  and  C_19
    6  A    between atoms: N_18  and  C_42
    7  A    between atoms: C_22  and  C_25
    8  A    between atoms: C_32  and  C_35
                            x       y       z     vdW  Elec       q    Type
                         _______ _______ _______ _____ _____    ______ ____

>  <TORSDO>
F 8

$$$$
=
 OpenBabel11062415483D

 44 49  0  0  1  0  0  0  0  0999 V2000
  189.2980  177.0390  135.6960 C   0  0  0  0  0  3  0  0  0  0  0  0
  184.9240  177.2870  134.5940 C   0  0  0  0  0  2  0  0  0  0  0  0
  186.4340  174.4520  136.7120 C   0  0  0  0  0  3  0  0  0  0  0  0
  191.6970  173.4270  136.4570 N   0  0  0  0  0  2  0  0  0  0  0  0
  187.5640  173.8040  137.0090 C   0  0  0  0  0  3  0  0  0  0  0  0
  189.6040  176.5130  134.5940 O   0  0  0  0  0  0  0  0  0  0  0  0
  186.9250  178.4170  137.6440 C   0  0  0  0  0  2  0  0  0  0  0  0
  188.9320  176.9050  138.1850 C   0  0  2  0  0  3  0  0  0  0  0  0
  185.1290  177.6800  136.0490 C   0  0  2  0  0  3  0  0  0  0  0  0
  187.0610  177.1530  139.6570 O   0  0  0  0  0  1  0  0  0  0  0  0
  186.5580  178.1860  136.1890 C   0  0  0  0  0  2  0  0  0  0  0  0
  189.3080  176.2790  136.9160 N   0  0  0  0  0  0  0  0  0  0  0  0
  188.8360  173.9410  136.2280 C   0  0  1  0  0  3  0  0  0  0  0  0
  191.2220  174.8070  136.4260 C   0  0  0  0  0  2  0  0  0  0  0  0
  190.8700  172.6440  135.5450 C   0  0  0  0  0  2  0  0  0  0  0  0
  186.2840  175.3590  135.5300 C   0  0  0  0  0  2  0  0  0  0  0  0
  185.0130  176.2080  135.6510 C   0  0  2  0  0  0  0  0  0  0  0  0
  189.7900  174.8970  136.9670 C   0  0  1  0  0  3  0  0  0  0  0  0
  189.4520  172.5500  136.0960 C   0  0  0  0  0  2  0  0  0  0  0  0
  187.4170  177.1340  138.3080 C   0  0  1  0  0  3  0  0  0  0  0  0
  180.9300  176.8760  135.0800 C   0  0  0  0  0  2  0  0  0  0  0  0
  180.9820  176.7080  137.8660 C   0  0  1  0  0  3  0  0  0  0  0  0
  180.7700  176.5350  139.3580 C   0  0  0  0  0  1  0  0  0  0  0  0
  180.7700  175.4510  135.6150 C   0  0  1  0  0  3  0  0  0  0  0  0
  183.1110  174.7150  134.7380 C   0  0  1  0  0  3  0  0  0  0  0  0
  183.5100  174.9640  137.3050 C   0  0  0  0  0  2  0  0  0  0  0  0
  181.5960  174.4400  134.8010 C   0  0  0  0  0  2  0  0  0  0  0  0
  183.6430  175.5720  135.9050 C   0  0  1  0  0  3  0  0  0  0  0  0
  180.9620  175.3440  137.1570 C   0  0  1  0  0  3  0  0  0  0  0  0
  182.1100  174.4200  137.6020 C   0  0  0  0  0  2  0  0  0  0  0  0
  179.8770  177.6040  137.3140 C   0  0  0  0  0  2  0  0  0  0  0  0
  180.0110  177.8620  135.8060 C   0  0  0  0  0  2  0  0  0  0  0  0
  183.8720  173.4010  134.5940 C   0  0  0  0  0  2  0  0  0  0  0  0
  182.9580  172.2100  134.8360 C   0  0  0  0  0  2  0  0  0  0  0  0
  183.2830  170.6140  136.6020 N   0  0  0  0  0  2  0  0  0  0  0  0
  183.7040  171.0990  135.4940 C   0  0  0  0  0  3  0  0  0  0  0  0
  189.7720  178.1420  138.4940 C   0  0  0  0  0  2  0  0  0  0  0  0
  190.7990  177.8090  139.4650 N   0  0  0  0  0  2  0  0  0  0  0  0
  190.2920  176.6930  140.2450 C   0  0  0  0  0  2  0  0  0  0  0  0
  191.6130  177.6340  143.5340 C   0  0  0  0  0  3  0  0  0  0  0  0
  191.7660  177.5230  142.2240 C   0  0  0  0  0  3  0  0  0  0  0  0
  190.5530  176.9340  141.6890 C   0  0  0  0  0  0  0  0  0  0  0  0
  190.2720  177.1200  143.9490 C   0  0  0  0  0  2  0  0  0  0  0  0
  189.6720  176.7110  142.6460 C   0  0  0  0  0  3  0  0  0  0  0  0
  1 12  1  0  0  0  0
  3  5  2  0  0  0  0
  6  1  2  0  0  0  0
  7 20  1  0  0  0  0
  8 20  1  0  0  0  0
  8 37  1  6  0  0  0
  9  2  1  6  0  0  0
  9 11  1  0  0  0  0
 11  7  1  0  0  0  0
 12 18  1  0  0  0  0
 12  8  1  0  0  0  0
 13 19  1  1  0  0  0
 13 18  1  0  0  0  0
 13  5  1  0  0  0  0
 14  4  1  0  0  0  0
 15 19  1  0  0  0  0
 15  4  1  0  0  0  0
 16 17  1  0  0  0  0
 16  3  1  0  0  0  0
 17  2  1  6  0  0  0
 17 28  1  0  0  0  0
 17  9  1  0  0  0  0
 18 14  1  6  0  0  0
 20 10  1  1  0  0  0
 21 24  1  0  0  0  0
 21 32  1  0  0  0  0
 22 23  1  1  0  0  0
 24 27  1  6  0  0  0
 24 29  1  0  0  0  0
 25 33  1  1  0  0  0
 25 27  1  0  0  0  0
 25 28  1  0  0  0  0
 26 30  1  0  0  0  0
 28 26  1  1  0  0  0
 29 30  1  6  0  0  0
 29 22  1  0  0  0  0
 31 22  1  0  0  0  0
 32 31  1  0  0  0  0
 33 34  1  0  0  0  0
 34 36  1  0  0  0  0
 36 35  2  0  0  0  0
 37 38  1  0  0  0  0
 38 39  1  0  0  0  0
 39 42  1  0  0  0  0
 40 43  1  0  0  0  0
 41 40  2  0  0  0  0
 42 41  1  0  0  0  0
 42 44  2  0  0  0  0
 44 43  1  0  0  0  0
M  END
>  <MODEL>
6

>  <REMARK>
 VINA RESULT:      -4.1      1.174      1.334
  Name = 
  8 active torsions:
  status: ('A' for Active; 'I' for Inactive)
    1  A    between atoms: C_6  and  C_25
    2  A    between atoms: C_6  and  C_33
    3  A    between atoms: C_16  and  C_42
    4  A    between atoms: C_17  and  N_18
    5  A    between atoms: C_17  and  C_19
    6  A    between atoms: N_18  and  C_42
    7  A    between atoms: C_22  and  C_25
    8  A    between atoms: C_32  and  C_35
                            x       y       z     vdW  Elec       q    Type
                         _______ _______ _______ _____ _____    ______ ____

>  <TORSDO>
F 8

$$$$
=
 OpenBabel11062415483D

 44 49  0  0  1  0  0  0  0  0999 V2000
  189.0870  178.0610  136.6080 C   0  0  0  0  0  3  0  0  0  0  0  0
  193.0170  176.6730  134.8630 C   0  0  0  0  0  2  0  0  0  0  0  0
  191.5520  175.3320  138.1580 C   0  0  0  0  0  3  0  0  0  0  0  0
  187.9160  178.2210  140.8480 N   0  0  0  0  0  2  0  0  0  0  0  0
  190.7100  175.6000  139.1600 C   0  0  0  0  0  3  0  0  0  0  0  0
  189.6170  179.0730  137.1400 O   0  0  0  0  0  0  0  0  0  0  0  0
  189.4400  175.3540  134.6410 C   0  0  0  0  0  2  0  0  0  0  0  0
  188.0480  175.7720  136.7610 C   0  0  2  0  0  3  0  0  0  0  0  0
  191.9380  175.6230  134.6470 C   0  0  2  0  0  3  0  0  0  0  0  0
  188.6180  173.5770  135.9960 O   0  0  0  0  0  1  0  0  0  0  0  0
  190.5950  176.3400  134.6510 C   0  0  0  0  0  2  0  0  0  0  0  0
  188.6440  176.9460  137.3990 N   0  0  0  0  0  0  0  0  0  0  0  0
  190.1070  176.9500  139.4050 C   0  0  1  0  0  3  0  0  0  0  0  0
  187.8780  178.1800  139.3900 C   0  0  0  0  0  2  0  0  0  0  0  0
  189.3000  178.4330  141.2590 C   0  0  0  0  0  2  0  0  0  0  0  0
  192.0380  176.3590  137.1840 C   0  0  0  0  0  2  0  0  0  0  0  0
  192.7000  175.6940  135.9710 C   0  0  2  0  0  0  0  0  0  0  0  0
  188.6660  176.9740  138.8630 C   0  0  1  0  0  3  0  0  0  0  0  0
  190.1290  177.2020  140.9110 C   0  0  0  0  0  2  0  0  0  0  0  0
  189.0880  174.8890  136.0510 C   0  0  1  0  0  3  0  0  0  0  0  0
  195.2430  174.0400  138.8410 C   0  0  0  0  0  2  0  0  0  0  0  0
  197.1470  175.1160  137.1070 C   0  0  1  0  0  3  0  0  0  0  0  0
  198.3340  175.5150  136.2500 C   0  0  0  0  0  1  0  0  0  0  0  0
  195.6580  173.0900  137.7150 C   0  0  1  0  0  3  0  0  0  0  0  0
  193.3390  173.2550  136.5380 C   0  0  1  0  0  3  0  0  0  0  0  0
  194.8640  174.7240  135.0130 C   0  0  0  0  0  2  0  0  0  0  0  0
  194.4480  172.3540  137.1150 C   0  0  0  0  0  2  0  0  0  0  0  0
  193.8200  174.6630  136.1330 C   0  0  1  0  0  3  0  0  0  0  0  0
  196.5950  173.7520  136.6620 C   0  0  1  0  0  3  0  0  0  0  0  0
  196.0410  173.7690  135.2250 C   0  0  0  0  0  2  0  0  0  0  0  0
  197.5940  175.0530  138.5650 C   0  0  0  0  0  2  0  0  0  0  0  0
  196.4560  174.6760  139.5250 C   0  0  0  0  0  2  0  0  0  0  0  0
  192.6300  172.5370  135.3950 C   0  0  0  0  0  2  0  0  0  0  0  0
  193.3210  171.2260  135.0590 C   0  0  0  0  0  2  0  0  0  0  0  0
  191.1080  170.3530  134.7240 N   0  0  0  0  0  2  0  0  0  0  0  0
  192.3330  170.1090  135.0040 C   0  0  0  0  0  3  0  0  0  0  0  0
  186.8450  176.1320  135.8920 C   0  0  0  0  0  2  0  0  0  0  0  0
  185.6540  175.4780  136.4050 N   0  0  0  0  0  2  0  0  0  0  0  0
  185.1080  174.6870  135.3160 C   0  0  0  0  0  2  0  0  0  0  0  0
  184.6480  171.3520  136.7720 C   0  0  0  0  0  3  0  0  0  0  0  0
  184.4260  172.6560  136.7970 C   0  0  0  0  0  2  0  0  0  0  0  0
  185.1420  173.2450  135.6810 C   0  0  0  0  0  0  0  0  0  0  0  0
  185.5340  170.9950  135.6210 C   0  0  0  0  0  3  0  0  0  0  0  0
  185.7680  172.3200  134.9790 C   0  0  0  0  0  3  0  0  0  0  0  0
  1  6  2  0  0  0  0
  1 12  1  0  0  0  0
  3  5  2  0  0  0  0
  4 15  1  0  0  0  0
  7 11  1  0  0  0  0
  7 20  1  0  0  0  0
  8 37  1  6  0  0  0
  8 12  1  0  0  0  0
  9 11  1  1  0  0  0
  9  2  1  0  0  0  0
  9 17  1  0  0  0  0
 12 18  1  0  0  0  0
 13  5  1  1  0  0  0
 13 19  1  0  0  0  0
 14  4  1  0  0  0  0
 16  3  1  0  0  0  0
 17  2  1  6  0  0  0
 17 28  1  0  0  0  0
 17 16  1  0  0  0  0
 18 14  1  6  0  0  0
 18 13  1  0  0  0  0
 19 15  1  0  0  0  0
 20 10  1  6  0  0  0
 20  8  1  0  0  0  0
 21 32  1  0  0  0  0
 22 23  1  6  0  0  0
 22 31  1  0  0  0  0
 24 27  1  6  0  0  0
 24 21  1  0  0  0  0
 25 33  1  6  0  0  0
 25 27  1  0  0  0  0
 26 30  1  0  0  0  0
 28 26  1  6  0  0  0
 28 25  1  0  0  0  0
 29 30  1  6  0  0  0
 29 22  1  0  0  0  0
 29 24  1  0  0  0  0
 31 32  1  0  0  0  0
 34 33  1  0  0  0  0
 35 36  2  0  0  0  0
 36 34  1  0  0  0  0
 37 38  1  0  0  0  0
 39 42  1  0  0  0  0
 39 38  1  0  0  0  0
 40 41  1  0  0  0  0
 42 41  1  0  0  0  0
 43 40  2  0  0  0  0
 44 43  1  0  0  0  0
 44 42  2  0  0  0  0
M  END
>  <MODEL>
7

>  <REMARK>
 VINA RESULT:      -4.0      2.974      9.353
  Name = 
  8 active torsions:
  status: ('A' for Active; 'I' for Inactive)
    1  A    between atoms: C_6  and  C_25
    2  A    between atoms: C_6  and  C_33
    3  A    between atoms: C_16  and  C_42
    4  A    between atoms: C_17  and  N_18
    5  A    between atoms: C_17  and  C_19
    6  A    between atoms: N_18  and  C_42
    7  A    between atoms: C_22  and  C_25
    8  A    between atoms: C_32  and  C_35
                            x       y       z     vdW  Elec       q    Type
                         _______ _______ _______ _____ _____    ______ ____

>  <TORSDO>
F 8

$$$$
=
 OpenBabel11062415483D

 44 49  0  0  1  0  0  0  0  0999 V2000
  187.6830  175.5270  137.0570 C   0  0  0  0  0  3  0  0  0  0  0  0
  183.1950  175.0050  137.0860 C   0  0  0  0  0  2  0  0  0  0  0  0
  184.9870  178.1430  138.4040 C   0  0  0  0  0  3  0  0  0  0  0  0
  190.1510  177.8780  139.8430 N   0  0  0  0  0  2  0  0  0  0  0  0
  186.1450  178.6140  138.8750 C   0  0  0  0  0  3  0  0  0  0  0  0
  187.8210  174.8770  138.1270 O   0  0  0  0  0  0  0  0  0  0  0  0
  185.6260  176.6440  134.6390 C   0  0  0  0  0  2  0  0  0  0  0  0
  187.6830  177.6920  135.7680 C   0  0  2  0  0  3  0  0  0  0  0  0
  183.6130  175.9570  135.9760 C   0  0  2  0  0  3  0  0  0  0  0  0
  186.0500  178.9870  134.5940 O   0  0  0  0  0  1  0  0  0  0  0  0
  185.0490  175.6200  135.6000 C   0  0  0  0  0  2  0  0  0  0  0  0
  187.8670  176.9520  137.0180 N   0  0  0  0  0  0  0  0  0  0  0  0
  187.2900  177.7440  139.2980 C   0  0  1  0  0  3  0  0  0  0  0  0
  189.6830  177.1400  138.6740 C   0  0  0  0  0  2  0  0  0  0  0  0
  189.1960  177.6620  140.9250 C   0  0  0  0  0  2  0  0  0  0  0  0
  184.6700  176.6850  138.2870 C   0  0  0  0  0  2  0  0  0  0  0  0
  183.4330  176.4630  137.4080 C   0  0  2  0  0  0  0  0  0  0  0  0
  188.3460  177.7060  138.1790 C   0  0  1  0  0  3  0  0  0  0  0  0
  187.8740  178.3360  140.5790 C   0  0  0  0  0  2  0  0  0  0  0  0
  186.2040  177.8460  135.3810 C   0  0  1  0  0  3  0  0  0  0  0  0
  180.4170  178.6150  135.4820 C   0  0  0  0  0  2  0  0  0  0  0  0
  181.2970  180.5650  137.2760 C   0  0  1  0  0  3  0  0  0  0  0  0
  181.5380  181.7140  138.2360 C   0  0  0  0  0  1  0  0  0  0  0  0
  179.7140  178.5650  136.8410 C   0  0  1  0  0  3  0  0  0  0  0  0
  180.8540  176.3160  137.5000 C   0  0  1  0  0  3  0  0  0  0  0  0
  182.1530  178.0640  138.9380 C   0  0  0  0  0  2  0  0  0  0  0  0
  179.5490  177.1210  137.3450 C   0  0  0  0  0  2  0  0  0  0  0  0
  182.1130  177.1890  137.6810 C   0  0  1  0  0  3  0  0  0  0  0  0
  180.3210  179.5470  137.8870 C   0  0  1  0  0  3  0  0  0  0  0  0
  180.8730  178.8740  139.1580 C   0  0  0  0  0  2  0  0  0  0  0  0
  180.7280  181.1230  135.9740 C   0  0  0  0  0  2  0  0  0  0  0  0
  180.4660  180.0380  134.9200 C   0  0  0  0  0  2  0  0  0  0  0  0
  180.7010  175.2880  138.6150 C   0  0  0  0  0  2  0  0  0  0  0  0
  179.2940  175.3100  139.1900 C   0  0  0  0  0  2  0  0  0  0  0  0
  179.3060  176.3420  141.3600 N   0  0  0  0  0  2  0  0  0  0  0  0
  179.3340  175.2570  140.6800 C   0  0  0  0  0  3  0  0  0  0  0  0
  188.5660  177.1570  134.6420 C   0  0  0  0  0  2  0  0  0  0  0  0
  189.9590  177.1930  135.0490 N   0  0  0  0  0  2  0  0  0  0  0  0
  190.4940  175.8600  134.8330 C   0  0  0  0  0  2  0  0  0  0  0  0
  193.3090  175.7310  137.1800 C   0  0  0  0  0  3  0  0  0  0  0  0
  192.7240  176.2590  136.1170 C   0  0  0  0  0  3  0  0  0  0  0  0
  191.4830  175.5400  135.8980 C   0  0  0  0  0  0  0  0  0  0  0  0
  192.4790  174.6190  137.7360 C   0  0  0  0  0  2  0  0  0  0  0  0
  191.3050  174.6110  136.8170 C   0  0  0  0  0  3  0  0  0  0  0  0
  1  6  2  0  0  0  0
  3  5  2  0  0  0  0
  4 15  1  0  0  0  0
  7 20  1  0  0  0  0
  7 11  1  0  0  0  0
  8 37  1  6  0  0  0
  8 12  1  0  0  0  0
  9 11  1  1  0  0  0
  9  2  1  0  0  0  0
  9 17  1  0  0  0  0
 12  1  1  0  0  0  0
 12 18  1  0  0  0  0
 13  5  1  6  0  0  0
 13 19  1  0  0  0  0
 14  4  1  0  0  0  0
 16  3  1  0  0  0  0
 17  2  1  1  0  0  0
 17 28  1  0  0  0  0
 17 16  1  0  0  0  0
 18 14  1  1  0  0  0
 18 13  1  0  0  0  0
 19 15  1  0  0  0  0
 20 10  1  6  0  0  0
 20  8  1  0  0  0  0
 22 29  1  0  0  0  0
 22 23  1  1  0  0  0
 24 21  1  6  0  0  0
 24 27  1  0  0  0  0
 24 29  1  0  0  0  0
 25 28  1  0  0  0  0
 25 33  1  1  0  0  0
 26 30  1  0  0  0  0
 27 25  1  0  0  0  0
 28 26  1  1  0  0  0
 29 30  1  1  0  0  0
 31 22  1  0  0  0  0
 32 21  1  0  0  0  0
 32 31  1  0  0  0  0
 33 34  1  0  0  0  0
 34 36  1  0  0  0  0
 36 35  2  0  0  0  0
 37 38  1  0  0  0  0
 39 38  1  0  0  0  0
 39 42  1  0  0  0  0
 40 43  1  0  0  0  0
 41 40  2  0  0  0  0
 42 41  1  0  0  0  0
 42 44  2  0  0  0  0
 44 43  1  0  0  0  0
M  END
>  <MODEL>
8

>  <REMARK>
 VINA RESULT:      -3.8      2.323      5.161
  Name = 
  8 active torsions:
  status: ('A' for Active; 'I' for Inactive)
    1  A    between atoms: C_6  and  C_25
    2  A    between atoms: C_6  and  C_33
    3  A    between atoms: C_16  and  C_42
    4  A    between atoms: C_17  and  N_18
    5  A    between atoms: C_17  and  C_19
    6  A    between atoms: N_18  and  C_42
    7  A    between atoms: C_22  and  C_25
    8  A    between atoms: C_32  and  C_35
                            x       y       z     vdW  Elec       q    Type
                         _______ _______ _______ _____ _____    ______ ____

>  <TORSDO>
F 8

$$$$
=
 OpenBabel11062415483D

 44 49  0  0  1  0  0  0  0  0999 V2000
  187.1790  176.5280  135.4980 C   0  0  0  0  0  3  0  0  0  0  0  0
  182.7530  176.6140  134.5970 C   0  0  0  0  0  2  0  0  0  0  0  0
  184.3210  174.4910  137.3970 C   0  0  0  0  0  3  0  0  0  0  0  0
  189.5310  173.2180  137.1990 N   0  0  0  0  0  2  0  0  0  0  0  0
  185.4500  173.9170  137.8190 C   0  0  0  0  0  3  0  0  0  0  0  0
  187.4040  175.6800  134.5940 O   0  0  0  0  0  0  0  0  0  0  0  0
  184.9650  178.5290  137.0520 C   0  0  0  0  0  2  0  0  0  0  0  0
  186.9630  177.1680  137.9250 C   0  0  2  0  0  3  0  0  0  0  0  0
  183.0570  177.4190  135.8500 C   0  0  2  0  0  3  0  0  0  0  0  0
  185.1930  177.9270  139.3440 O   0  0  0  0  0  1  0  0  0  0  0  0
  184.5030  177.8840  135.7570 C   0  0  0  0  0  2  0  0  0  0  0  0
  187.2450  176.1730  136.8890 N   0  0  0  0  0  0  0  0  0  0  0  0
  186.6750  173.7580  136.9700 C   0  0  1  0  0  3  0  0  0  0  0  0
  189.0890  174.5420  136.7730 C   0  0  0  0  0  2  0  0  0  0  0  0
  188.6310  172.2310  136.6120 C   0  0  0  0  0  2  0  0  0  0  0  0
  184.1210  175.0040  136.0050 C   0  0  0  0  0  2  0  0  0  0  0  0
  182.8800  175.9030  135.9250 C   0  0  2  0  0  0  0  0  0  0  0  0
  187.6950  174.8520  137.3340 C   0  0  1  0  0  3  0  0  0  0  0  0
  187.2480  172.3680  137.2360 C   0  0  0  0  0  2  0  0  0  0  0  0
  185.4640  177.4870  138.0490 C   0  0  1  0  0  3  0  0  0  0  0  0
  181.0930  172.9270  138.2480 C   0  0  0  0  0  2  0  0  0  0  0  0
  179.8180  172.4360  135.8140 C   0  0  1  0  0  3  0  0  0  0  0  0
  178.9350  172.0790  134.6330 C   0  0  0  0  0  1  0  0  0  0  0  0
  179.8130  173.7420  138.0470 C   0  0  1  0  0  3  0  0  0  0  0  0
  181.1170  175.9860  137.8130 C   0  0  1  0  0  3  0  0  0  0  0  0
  180.4260  175.4640  135.3520 C   0  0  0  0  0  2  0  0  0  0  0  0
  179.9870  175.2000  138.5060 C   0  0  0  0  0  2  0  0  0  0  0  0
  181.5140  175.4300  136.4300 C   0  0  1  0  0  3  0  0  0  0  0  0
  179.1980  173.5840  136.6250 C   0  0  1  0  0  3  0  0  0  0  0  0
  179.0850  174.8930  135.8210 C   0  0  0  0  0  2  0  0  0  0  0  0
  179.9840  171.2000  136.6940 C   0  0  0  0  0  2  0  0  0  0  0  0
  180.8840  171.4480  137.9130 C   0  0  0  0  0  2  0  0  0  0  0  0
  180.7610  177.4680  137.7580 C   0  0  0  0  0  2  0  0  0  0  0  0
  181.6100  178.2720  138.7300 C   0  0  0  0  0  2  0  0  0  0  0  0
  182.1220  177.9880  141.0600 N   0  0  0  0  0  2  0  0  0  0  0  0
  181.2320  177.9610  140.1390 C   0  0  0  0  0  3  0  0  0  0  0  0
  187.8510  178.4040  137.7990 C   0  0  0  0  0  2  0  0  0  0  0  0
  188.3200  178.8080  139.1130 N   0  0  0  0  0  2  0  0  0  0  0  0
  189.3190  177.8340  139.5180 C   0  0  0  0  0  2  0  0  0  0  0  0
  188.4410  177.7500  143.0780 C   0  0  0  0  0  3  0  0  0  0  0  0
  188.2660  178.2460  141.8630 C   0  0  0  0  0  3  0  0  0  0  0  0
  189.2230  177.6010  140.9840 C   0  0  0  0  0  0  0  0  0  0  0  0
  189.5360  176.7320  143.0740 C   0  0  0  0  0  2  0  0  0  0  0  0
  189.9500  176.7170  141.6410 C   0  0  0  0  0  3  0  0  0  0  0  0
  1 12  1  0  0  0  0
  3  5  2  0  0  0  0
  6  1  2  0  0  0  0
  7 20  1  0  0  0  0
  8 37  1  6  0  0  0
  8 20  1  0  0  0  0
  9  2  1  6  0  0  0
  9 17  1  0  0  0  0
 11  9  1  0  0  0  0
 11  7  1  0  0  0  0
 12 18  1  0  0  0  0
 12  8  1  0  0  0  0
 13 19  1  1  0  0  0
 13 18  1  0  0  0  0
 13  5  1  0  0  0  0
 14  4  1  0  0  0  0
 15  4  1  0  0  0  0
 15 19  1  0  0  0  0
 16  3  1  0  0  0  0
 17  2  1  6  0  0  0
 17 16  1  0  0  0  0
 17 28  1  0  0  0  0
 18 14  1  6  0  0  0
 20 10  1  1  0  0  0
 22 23  1  6  0  0  0
 22 29  1  0  0  0  0
 22 31  1  0  0  0  0
 24 21  1  6  0  0  0
 24 27  1  0  0  0  0
 25 33  1  6  0  0  0
 25 27  1  0  0  0  0
 26 30  1  0  0  0  0
 28 26  1  6  0  0  0
 28 25  1  0  0  0  0
 29 30  1  6  0  0  0
 29 24  1  0  0  0  0
 31 32  1  0  0  0  0
 32 21  1  0  0  0  0
 33 34  1  0  0  0  0
 34 36  1  0  0  0  0
 36 35  2  0  0  0  0
 37 38  1  0  0  0  0
 38 39  1  0  0  0  0
 39 42  1  0  0  0  0
 41 40  2  0  0  0  0
 42 44  2  0  0  0  0
 42 41  1  0  0  0  0
 43 40  1  0  0  0  0
 44 43  1  0  0  0  0
M  END
>  <MODEL>
9

>  <REMARK>
 VINA RESULT:      -3.5      2.562      4.321
  Name = 
  8 active torsions:
  status: ('A' for Active; 'I' for Inactive)
    1  A    between atoms: C_6  and  C_25
    2  A    between atoms: C_6  and  C_33
    3  A    between atoms: C_16  and  C_42
    4  A    between atoms: C_17  and  N_18
    5  A    between atoms: C_17  and  C_19
    6  A    between atoms: N_18  and  C_42
    7  A    between atoms: C_22  and  C_25
    8  A    between atoms: C_32  and  C_35
                            x       y       z     vdW  Elec       q    Type
                         _______ _______ _______ _____ _____    ______ ____

>  <TORSDO>
F 8

$$$$
