=
 OpenBabel11062412473D

 54 59  0  0  1  0  0  0  0  0999 V2000
  184.9280  176.3220  136.1420 C   0  0  0  0  0  3  0  0  0  0  0  0
  183.6620  176.2820  135.7240 C   0  0  0  0  0  3  0  0  0  0  0  0
  181.2630  178.0990  140.6270 O   0  0  0  0  0  0  0  0  0  0  0  0
  182.8910  177.8730  137.3560 C   0  0  0  0  0  0  0  0  0  0  0  0
  182.1080  178.8800  140.2110 C   0  0  0  0  0  0  0  0  0  0  0  0
  183.4100  179.0860  140.9290 C   0  0  2  0  0  3  0  0  0  0  0  0
  181.8340  178.6750  137.8220 O   0  0  0  0  0  0  0  0  0  0  0  0
  181.9080  179.5950  138.9060 C   0  0  1  0  0  3  0  0  0  0  0  0
  185.8720  178.7530  140.8390 C   0  0  0  0  0  2  0  0  0  0  0  0
  184.5720  178.8390  138.8340 O   0  0  0  0  0  0  0  0  0  0  0  0
  185.8710  178.2390  142.2790 C   0  0  2  0  0  3  0  0  0  0  0  0
  184.5520  178.4110  140.1670 C   0  0  2  0  0  3  0  0  0  0  0  0
  184.7100  178.8530  143.0750 C   0  0  1  0  0  3  0  0  0  0  0  0
  184.2150  177.7060  138.0990 C   0  0  2  0  0  3  0  0  0  0  0  0
  185.3510  177.3630  137.1310 C   0  0  0  0  0  2  0  0  0  0  0  0
  182.6790  177.1660  136.2820 N   0  0  0  0  0  0  0  0  0  0  0  0
  183.3760  178.5800  142.3720 C   0  0  0  0  0  2  0  0  0  0  0  0
  180.6530  180.4570  138.9390 C   0  0  0  0  0  2  0  0  0  0  0  0
  180.9820  181.9110  138.6410 C   0  0  0  0  0  2  0  0  0  0  0  0
  181.0860  182.1150  137.2640 O   0  0  0  0  0  0  0  0  0  0  0  0
  180.5110  183.3690  137.0510 C   0  0  0  0  0  2  0  0  0  0  0  0
  181.5590  184.4470  137.2290 C   0  0  0  0  0  1  0  0  0  0  0  0
  184.6630  178.2650  144.4830 C   0  0  0  0  0  2  0  0  0  0  0  0
  185.2210  179.2350  145.5130 C   0  0  0  0  0  2  0  0  0  0  0  0
  185.6010  178.4970  146.7850 C   0  0  0  0  0  2  0  0  0  0  0  0
  186.8610  177.7930  146.5980 N   0  0  0  0  0  2  0  0  0  0  0  0
  189.1070  176.9250  147.3390 C   0  0  0  0  0  1  0  0  0  0  0  0
  187.6780  178.2040  148.7850 N   0  0  0  0  0  2  0  0  0  0  0  0
  187.8540  177.6700  147.6220 C   0  0  0  0  0  0  0  0  0  0  0  0
  187.2160  178.5490  142.9310 C   0  0  0  0  0  2  0  0  0  0  0  0
  188.0260  177.2640  143.1560 C   0  0  0  0  0  2  0  0  0  0  0  0
  189.2910  177.2070  142.4070 N   0  0  0  0  0  0  0  0  0  0  0  0
  189.0750  176.7760  141.0280 C   0  0  0  0  0  2  0  0  0  0  0  0
  191.0900  177.1690  139.5690 C   0  0  0  0  0  2  0  0  0  0  0  0
  190.8930  176.0580  138.5280 C   0  0  1  0  0  3  0  0  0  0  0  0
  188.7850  178.0310  138.8950 C   0  0  0  0  0  2  0  0  0  0  0  0
  189.9240  176.4010  137.4500 N   0  0  1  0  0  0  0  0  0  0  0  0
  189.4260  177.7770  137.5340 C   0  0  0  0  0  2  0  0  0  0  0  0
  189.7470  177.7310  140.0490 C   0  0  1  0  0  3  0  0  0  0  0  0
  191.3760  176.5040  137.2220 C   0  0  2  0  0  3  0  0  0  0  0  0
  191.1280  174.8710  135.4270 C   0  0  0  0  0  2  0  0  0  0  0  0
  191.8640  175.3330  136.4290 C   0  0  0  0  0  0  0  0  0  0  0  0
  193.8720  174.1580  137.8350 O   0  0  0  0  0  0  0  0  0  0  0  0
  194.1650  173.8670  136.5070 C   0  0  0  0  0  0  0  0  0  0  0  0
  195.1250  173.1650  135.3870 S   0  0  0  0  0  0  0  0  0  0  0  0
  193.0300  174.6170  136.8320 N   0  0  0  0  0  0  0  0  0  0  0  0
  190.1850  176.2460  143.0390 C   0  0  0  0  0  2  0  0  0  0  0  0
  190.9110  176.8920  144.2170 C   0  0  2  0  0  3  0  0  0  0  0  0
  190.9290  179.3970  143.9850 C   0  0  0  0  0  1  0  0  0  0  0  0
  191.7360  178.1220  143.8240 C   0  0  2  0  0  3  0  0  0  0  0  0
  192.2110  178.0200  142.5160 O   0  0  0  0  0  1  0  0  0  0  0  0
  192.1700  174.7260  144.2520 O   0  0  0  0  0  0  0  0  0  0  0  0
  191.7660  175.8820  144.9080 C   0  0  0  0  0  0  0  0  0  0  0  0
  192.1130  176.0760  146.1010 O   0  0  0  0  0  1  0  0  0  0  0  0
  1 15  1  0  0  0  0
  2  1  2  0  0  0  0
  2 16  1  0  0  0  0
  4  7  1  0  0  0  0
  4 14  1  0  0  0  0
  5  3  2  0  0  0  0
  5  6  1  0  0  0  0
  6 17  1  1  0  0  0
  7  8  1  0  0  0  0
  8 18  1  1  0  0  0
  8  5  1  0  0  0  0
  9 11  1  0  0  0  0
 10 12  1  0  0  0  0
 11 30  1  1  0  0  0
 11 13  1  0  0  0  0
 12  9  1  1  0  0  0
 12  6  1  0  0  0  0
 13 23  1  1  0  0  0
 14 15  1  6  0  0  0
 14 10  1  0  0  0  0
 16  4  2  0  0  0  0
 17 13  1  0  0  0  0
 19 18  1  0  0  0  0
 20 19  1  0  0  0  0
 21 22  1  0  0  0  0
 21 20  1  0  0  0  0
 23 24  1  0  0  0  0
 24 25  1  0  0  0  0
 26 25  1  0  0  0  0
 26 29  1  0  0  0  0
 27 29  1  0  0  0  0
 29 28  2  0  0  0  0
 30 31  1  0  0  0  0
 32 47  1  0  0  0  0
 32 31  1  0  0  0  0
 33 32  1  0  0  0  0
 34 39  1  0  0  0  0
 35 34  1  1  0  0  0
 36 39  1  0  0  0  0
 37 38  1  1  0  0  0
 37 35  1  0  0  0  0
 38 36  1  0  0  0  0
 39 33  1  1  0  0  0
 40 42  1  6  0  0  0
 40 37  1  0  0  0  0
 40 35  1  0  0  0  0
 41 42  2  0  0  0  0
 42 46  1  0  0  0  0
 44 46  1  0  0  0  0
 44 43  1  0  0  0  0
 45 44  2  0  0  0  0
 46 43  1  0  0  0  0
 48 47  1  6  0  0  0
 48 53  1  0  0  0  0
 50 49  1  6  0  0  0
 50 48  1  0  0  0  0
 51 50  1  0  0  0  0
 52 53  2  0  0  0  0
 53 54  1  0  0  0  0
M  END
>  <MODEL>
1

>  <REMARK>
 VINA RESULT:      -7.8      0.000      0.000
  Name = 
  19 active torsions:
  status: ('A' for Active; 'I' for Inactive)
    1  A    between atoms: N_1  and  C_22
    2  A    between atoms: N_1  and  C_27
    3  A    between atoms: N_1  and  C_48
    4  A    between atoms: C_3  and  O_19
    5  A    between atoms: C_8  and  C_22
    6  A    between atoms: C_8  and  C_34
    7  A    between atoms: C_9  and  C_21
    8  A    between atoms: C_9  and  C_51
    9  A    between atoms: N_10  and  C_21
   10  A    between atoms: O_19  and  C_46
   11  A    between atoms: C_23  and  C_52
   12  A    between atoms: C_27  and  C_42
   13  A    between atoms: C_29  and  C_42
   14  A    between atoms: C_31  and  C_42
   15  A    between atoms: C_36  and  N_47
   16  A    between atoms: C_36  and  C_54
   17  A    between atoms: C_39  and  C_51
   18  A    between atoms: C_43  and  C_48
   19  A    between atoms: C_46  and  C_52
                            x       y       z     vdW  Elec       q    Type
                         _______ _______ _______ _____ _____    ______ ____

>  <TORSDO>
F 19

$$$$
=
 OpenBabel11062412473D

 54 59  0  0  1  0  0  0  0  0999 V2000
  185.0440  178.5310  142.7860 C   0  0  0  0  0  3  0  0  0  0  0  0
  185.3870  178.0490  143.9810 C   0  0  0  0  0  3  0  0  0  0  0  0
  190.3660  175.6680  142.3570 O   0  0  0  0  0  0  0  0  0  0  0  0
  187.7350  177.9600  143.4640 C   0  0  0  0  0  0  0  0  0  0  0  0
  190.3120  176.8580  142.0770 C   0  0  0  0  0  0  0  0  0  0  0  0
  190.2270  177.3270  140.6540 C   0  0  2  0  0  3  0  0  0  0  0  0
  189.0440  177.7430  143.9300 O   0  0  0  0  0  0  0  0  0  0  0  0
  190.2330  177.8940  143.1610 C   0  0  1  0  0  3  0  0  0  0  0  0
  188.7940  178.4190  138.9400 C   0  0  0  0  0  2  0  0  0  0  0  0
  188.4140  178.7870  141.2720 O   0  0  0  0  0  0  0  0  0  0  0  0
  189.1810  177.3540  137.9150 C   0  0  2  0  0  3  0  0  0  0  0  0
  188.8150  177.8230  140.3390 C   0  0  2  0  0  3  0  0  0  0  0  0
  190.5770  176.7880  138.2170 C   0  0  1  0  0  3  0  0  0  0  0  0
  187.3870  178.1680  141.9910 C   0  0  2  0  0  3  0  0  0  0  0  0
  186.1070  178.9940  141.8390 C   0  0  0  0  0  2  0  0  0  0  0  0
  186.7680  177.8820  144.3340 N   0  0  0  0  0  0  0  0  0  0  0  0
  190.6360  176.2490  139.6500 C   0  0  0  0  0  2  0  0  0  0  0  0
  191.4500  177.8270  144.0730 C   0  0  0  0  0  2  0  0  0  0  0  0
  191.0340  177.7290  145.5320 C   0  0  0  0  0  2  0  0  0  0  0  0
  191.9350  176.9360  146.2450 O   0  0  0  0  0  0  0  0  0  0  0  0
  191.1700  176.3600  147.2600 C   0  0  0  0  0  2  0  0  0  0  0  0
  189.8790  177.1310  147.4270 C   0  0  0  0  0  1  0  0  0  0  0  0
  190.9150  175.6630  137.2440 C   0  0  0  0  0  2  0  0  0  0  0  0
  192.3780  175.7020  136.8310 C   0  0  0  0  0  2  0  0  0  0  0  0
  193.2070  174.7940  137.7240 C   0  0  0  0  0  2  0  0  0  0  0  0
  193.9500  173.8390  136.9150 N   0  0  0  0  0  2  0  0  0  0  0  0
  195.6420  172.0100  136.5470 C   0  0  0  0  0  1  0  0  0  0  0  0
  195.2380  172.9770  138.7080 N   0  0  0  0  0  2  0  0  0  0  0  0
  194.9400  172.9560  137.4510 C   0  0  0  0  0  0  0  0  0  0  0  0
  189.1160  177.9500  136.5110 C   0  0  0  0  0  2  0  0  0  0  0  0
  188.1250  177.1750  135.6300 C   0  0  0  0  0  2  0  0  0  0  0  0
  186.9410  176.6760  136.3460 N   0  0  0  0  0  0  0  0  0  0  0  0
  186.4380  175.4420  135.7490 C   0  0  0  0  0  2  0  0  0  0  0  0
  185.4620  173.7480  137.3360 C   0  0  0  0  0  2  0  0  0  0  0  0
  184.5720  172.9520  136.3720 C   0  0  1  0  0  3  0  0  0  0  0  0
  187.4220  173.1530  135.8150 C   0  0  0  0  0  2  0  0  0  0  0  0
  185.3040  171.9280  135.5750 N   0  0  1  0  0  0  0  0  0  0  0  0
  186.7170  171.8060  135.9460 C   0  0  0  0  0  2  0  0  0  0  0  0
  186.7360  174.2440  136.6430 C   0  0  1  0  0  3  0  0  0  0  0  0
  184.5320  171.5460  136.7720 C   0  0  2  0  0  3  0  0  0  0  0  0
  183.2120  169.8800  135.5750 C   0  0  0  0  0  2  0  0  0  0  0  0
  183.2250  170.9370  136.3760 C   0  0  0  0  0  0  0  0  0  0  0  0
  180.9920  171.8180  137.6520 O   0  0  0  0  0  0  0  0  0  0  0  0
  180.9110  172.3860  136.3850 C   0  0  0  0  0  0  0  0  0  0  0  0
  180.1300  173.3210  135.2970 S   0  0  0  0  0  0  0  0  0  0  0  0
  181.9950  171.5680  136.7260 N   0  0  0  0  0  0  0  0  0  0  0  0
  185.8790  177.6700  136.2760 C   0  0  0  0  0  2  0  0  0  0  0  0
  184.7210  177.2740  137.1900 C   0  0  2  0  0  3  0  0  0  0  0  0
  182.5820  176.0140  136.7890 C   0  0  0  0  0  1  0  0  0  0  0  0
  183.3600  177.2800  136.4860 C   0  0  2  0  0  3  0  0  0  0  0  0
  183.5000  177.4360  135.1070 O   0  0  0  0  0  1  0  0  0  0  0  0
  183.8070  177.9100  139.4350 O   0  0  0  0  0  1  0  0  0  0  0  0
  184.6960  178.1550  138.3950 C   0  0  0  0  0  0  0  0  0  0  0  0
  185.4800  179.1350  138.4630 O   0  0  0  0  0  0  0  0  0  0  0  0
  1  2  2  0  0  0  0
  2 16  1  0  0  0  0
  4  7  1  0  0  0  0
  4 16  2  0  0  0  0
  5  3  2  0  0  0  0
  5  8  1  0  0  0  0
  6 17  1  6  0  0  0
  6  5  1  0  0  0  0
  8  7  1  0  0  0  0
  8 18  1  1  0  0  0
 10 14  1  0  0  0  0
 11 30  1  6  0  0  0
 11 13  1  0  0  0  0
 11  9  1  0  0  0  0
 12  9  1  6  0  0  0
 12  6  1  0  0  0  0
 12 10  1  0  0  0  0
 13 23  1  6  0  0  0
 13 17  1  0  0  0  0
 14 15  1  1  0  0  0
 14  4  1  0  0  0  0
 15  1  1  0  0  0  0
 18 19  1  0  0  0  0
 19 20  1  0  0  0  0
 20 21  1  0  0  0  0
 21 22  1  0  0  0  0
 24 23  1  0  0  0  0
 24 25  1  0  0  0  0
 26 29  1  0  0  0  0
 26 25  1  0  0  0  0
 27 29  1  0  0  0  0
 29 28  2  0  0  0  0
 31 32  1  0  0  0  0
 31 30  1  0  0  0  0
 33 32  1  0  0  0  0
 35 40  1  0  0  0  0
 35 34  1  1  0  0  0
 36 38  1  0  0  0  0
 36 39  1  0  0  0  0
 37 38  1  1  0  0  0
 37 35  1  0  0  0  0
 37 40  1  0  0  0  0
 39 33  1  6  0  0  0
 39 34  1  0  0  0  0
 40 42  1  6  0  0  0
 41 42  2  0  0  0  0
 42 46  1  0  0  0  0
 44 46  1  0  0  0  0
 44 43  1  0  0  0  0
 45 44  2  0  0  0  0
 46 43  1  0  0  0  0
 47 32  1  0  0  0  0
 48 47  1  6  0  0  0
 48 53  1  0  0  0  0
 50 49  1  6  0  0  0
 50 48  1  0  0  0  0
 51 50  1  0  0  0  0
 53 54  2  0  0  0  0
 53 52  1  0  0  0  0
M  END
>  <MODEL>
2

>  <REMARK>
 VINA RESULT:      -7.8      3.474      9.917
  Name = 
  19 active torsions:
  status: ('A' for Active; 'I' for Inactive)
    1  A    between atoms: N_1  and  C_22
    2  A    between atoms: N_1  and  C_27
    3  A    between atoms: N_1  and  C_48
    4  A    between atoms: C_3  and  O_19
    5  A    between atoms: C_8  and  C_22
    6  A    between atoms: C_8  and  C_34
    7  A    between atoms: C_9  and  C_21
    8  A    between atoms: C_9  and  C_51
    9  A    between atoms: N_10  and  C_21
   10  A    between atoms: O_19  and  C_46
   11  A    between atoms: C_23  and  C_52
   12  A    between atoms: C_27  and  C_42
   13  A    between atoms: C_29  and  C_42
   14  A    between atoms: C_31  and  C_42
   15  A    between atoms: C_36  and  N_47
   16  A    between atoms: C_36  and  C_54
   17  A    between atoms: C_39  and  C_51
   18  A    between atoms: C_43  and  C_48
   19  A    between atoms: C_46  and  C_52
                            x       y       z     vdW  Elec       q    Type
                         _______ _______ _______ _____ _____    ______ ____

>  <TORSDO>
F 19

$$$$
=
 OpenBabel11062412473D

 54 59  0  0  1  0  0  0  0  0999 V2000
  182.5630  178.0470  138.4870 C   0  0  0  0  0  3  0  0  0  0  0  0
  181.7370  177.9280  139.5270 C   0  0  0  0  0  3  0  0  0  0  0  0
  185.7920  177.1930  143.5420 O   0  0  0  0  0  0  0  0  0  0  0  0
  183.3990  178.5760  141.1430 C   0  0  0  0  0  0  0  0  0  0  0  0
  185.9590  178.2230  142.9020 C   0  0  0  0  0  0  0  0  0  0  0  0
  187.1140  178.3810  141.9560 C   0  0  2  0  0  3  0  0  0  0  0  0
  183.6860  178.9130  142.4770 O   0  0  0  0  0  0  0  0  0  0  0  0
  184.9530  179.3350  142.9710 C   0  0  1  0  0  3  0  0  0  0  0  0
  187.7960  178.5940  139.5740 C   0  0  0  0  0  2  0  0  0  0  0  0
  185.5920  179.1990  140.2780 O   0  0  0  0  0  0  0  0  0  0  0  0
  188.9130  177.5710  139.7860 C   0  0  2  0  0  3  0  0  0  0  0  0
  186.6340  178.2910  140.5070 C   0  0  2  0  0  3  0  0  0  0  0  0
  189.3980  177.5900  141.2440 C   0  0  1  0  0  3  0  0  0  0  0  0
  184.4700  178.3940  140.0680 C   0  0  2  0  0  3  0  0  0  0  0  0
  183.9060  178.6820  138.6740 C   0  0  0  0  0  2  0  0  0  0  0  0
  182.1570  178.3160  140.8440 N   0  0  0  0  0  0  0  0  0  0  0  0
  188.2240  177.3590  142.2010 C   0  0  0  0  0  2  0  0  0  0  0  0
  184.8070  179.8540  144.3940 C   0  0  0  0  0  2  0  0  0  0  0  0
  183.8160  179.0130  145.1820 C   0  0  0  0  0  2  0  0  0  0  0  0
  184.3290  178.7080  146.4440 O   0  0  0  0  0  0  0  0  0  0  0  0
  185.6710  179.0880  146.3780 C   0  0  0  0  0  2  0  0  0  0  0  0
  186.4330  178.4740  147.5320 C   0  0  0  0  0  1  0  0  0  0  0  0
  190.4470  176.5040  141.4660 C   0  0  0  0  0  2  0  0  0  0  0  0
  190.6970  176.2640  142.9470 C   0  0  0  0  0  2  0  0  0  0  0  0
  191.5770  177.3610  143.5210 C   0  0  0  0  0  2  0  0  0  0  0  0
  191.3100  177.5260  144.9430 N   0  0  0  0  0  2  0  0  0  0  0  0
  191.2980  176.7850  147.3500 C   0  0  0  0  0  1  0  0  0  0  0  0
  192.1170  175.3900  145.5750 N   0  0  0  0  0  2  0  0  0  0  0  0
  191.6010  176.5220  145.9200 C   0  0  0  0  0  0  0  0  0  0  0  0
  190.0560  177.8580  138.8170 C   0  0  0  0  0  2  0  0  0  0  0  0
  189.8500  177.1140  137.4900 C   0  0  0  0  0  2  0  0  0  0  0  0
  189.6060  175.6700  137.6360 N   0  0  0  0  0  0  0  0  0  0  0  0
  190.8560  174.9170  137.6610 C   0  0  0  0  0  2  0  0  0  0  0  0
  193.1840  175.8770  137.6840 C   0  0  0  0  0  2  0  0  0  0  0  0
  194.0060  174.5950  137.8740 C   0  0  1  0  0  3  0  0  0  0  0  0
  192.2250  174.7980  135.5810 C   0  0  0  0  0  2  0  0  0  0  0  0
  194.2310  173.8270  136.6170 N   0  0  1  0  0  0  0  0  0  0  0  0
  193.7140  174.5020  135.4240 C   0  0  0  0  0  2  0  0  0  0  0  0
  191.9310  175.6200  136.8400 C   0  0  1  0  0  3  0  0  0  0  0  0
  195.2800  174.7060  137.1640 C   0  0  2  0  0  3  0  0  0  0  0  0
  196.1630  172.5880  137.9900 C   0  0  0  0  0  2  0  0  0  0  0  0
  196.3270  173.8990  137.8610 C   0  0  0  0  0  0  0  0  0  0  0  0
  198.7020  175.0690  138.4790 O   0  0  0  0  0  0  0  0  0  0  0  0
  197.9890  175.0840  139.6730 C   0  0  0  0  0  0  0  0  0  0  0  0
  197.8880  175.4620  141.2590 S   0  0  0  0  0  0  0  0  0  0  0  0
  197.4210  174.5370  138.5170 N   0  0  0  0  0  0  0  0  0  0  0  0
  188.8210  175.1950  136.5050 C   0  0  0  0  0  2  0  0  0  0  0  0
  187.3380  175.1580  136.8660 C   0  0  2  0  0  3  0  0  0  0  0  0
  187.7190  172.7620  136.2060 C   0  0  0  0  0  1  0  0  0  0  0  0
  186.6910  173.7870  136.6460 C   0  0  2  0  0  3  0  0  0  0  0  0
  185.6550  173.8550  135.7130 O   0  0  0  0  0  1  0  0  0  0  0  0
  187.0360  176.6280  134.8590 O   0  0  0  0  0  0  0  0  0  0  0  0
  186.6010  176.2160  136.1130 C   0  0  0  0  0  0  0  0  0  0  0  0
  185.5830  176.7480  136.6250 O   0  0  0  0  0  1  0  0  0  0  0  0
  1 15  1  0  0  0  0
  1  2  2  0  0  0  0
  2 16  1  0  0  0  0
  4  7  1  0  0  0  0
  5  8  1  0  0  0  0
  5  3  2  0  0  0  0
  6 17  1  1  0  0  0
  6  5  1  0  0  0  0
  7  8  1  0  0  0  0
  8 18  1  1  0  0  0
  9 11  1  0  0  0  0
 10 12  1  0  0  0  0
 11 30  1  6  0  0  0
 11 13  1  0  0  0  0
 12  9  1  6  0  0  0
 12  6  1  0  0  0  0
 13 23  1  6  0  0  0
 13 17  1  0  0  0  0
 14 15  1  6  0  0  0
 14 10  1  0  0  0  0
 14  4  1  0  0  0  0
 16  4  2  0  0  0  0
 18 19  1  0  0  0  0
 19 20  1  0  0  0  0
 21 20  1  0  0  0  0
 21 22  1  0  0  0  0
 23 24  1  0  0  0  0
 24 25  1  0  0  0  0
 25 26  1  0  0  0  0
 26 29  1  0  0  0  0
 28 29  2  0  0  0  0
 29 27  1  0  0  0  0
 31 32  1  0  0  0  0
 31 30  1  0  0  0  0
 32 33  1  0  0  0  0
 35 34  1  6  0  0  0
 36 39  1  0  0  0  0
 37 38  1  6  0  0  0
 37 40  1  0  0  0  0
 37 35  1  0  0  0  0
 38 36  1  0  0  0  0
 39 33  1  1  0  0  0
 39 34  1  0  0  0  0
 40 42  1  1  0  0  0
 40 35  1  0  0  0  0
 42 41  2  0  0  0  0
 42 46  1  0  0  0  0
 43 46  1  0  0  0  0
 43 44  1  0  0  0  0
 44 45  2  0  0  0  0
 46 44  1  0  0  0  0
 47 32  1  0  0  0  0
 48 47  1  6  0  0  0
 50 49  1  6  0  0  0
 50 48  1  0  0  0  0
 51 50  1  0  0  0  0
 52 53  2  0  0  0  0
 53 54  1  0  0  0  0
 53 48  1  0  0  0  0
M  END
>  <MODEL>
3

>  <REMARK>
 VINA RESULT:      -7.3      3.123      6.443
  Name = 
  19 active torsions:
  status: ('A' for Active; 'I' for Inactive)
    1  A    between atoms: N_1  and  C_22
    2  A    between atoms: N_1  and  C_27
    3  A    between atoms: N_1  and  C_48
    4  A    between atoms: C_3  and  O_19
    5  A    between atoms: C_8  and  C_22
    6  A    between atoms: C_8  and  C_34
    7  A    between atoms: C_9  and  C_21
    8  A    between atoms: C_9  and  C_51
    9  A    between atoms: N_10  and  C_21
   10  A    between atoms: O_19  and  C_46
   11  A    between atoms: C_23  and  C_52
   12  A    between atoms: C_27  and  C_42
   13  A    between atoms: C_29  and  C_42
   14  A    between atoms: C_31  and  C_42
   15  A    between atoms: C_36  and  N_47
   16  A    between atoms: C_36  and  C_54
   17  A    between atoms: C_39  and  C_51
   18  A    between atoms: C_43  and  C_48
   19  A    between atoms: C_46  and  C_52
                            x       y       z     vdW  Elec       q    Type
                         _______ _______ _______ _____ _____    ______ ____

>  <TORSDO>
F 19

$$$$
=
 OpenBabel11062412473D

 54 59  0  0  1  0  0  0  0  0999 V2000
  181.7150  178.6600  141.6070 C   0  0  0  0  0  3  0  0  0  0  0  0
  181.1990  178.3900  142.8070 C   0  0  0  0  0  3  0  0  0  0  0  0
  186.1270  176.8340  145.3360 O   0  0  0  0  0  0  0  0  0  0  0  0
  183.2880  178.6920  143.9650 C   0  0  0  0  0  0  0  0  0  0  0  0
  186.1950  177.9530  144.8450 C   0  0  0  0  0  0  0  0  0  0  0  0
  187.0550  178.2340  143.6470 C   0  0  2  0  0  3  0  0  0  0  0  0
  183.9570  178.7820  145.1980 O   0  0  0  0  0  0  0  0  0  0  0  0
  185.3400  179.0690  145.3710 C   0  0  1  0  0  3  0  0  0  0  0  0
  187.0720  178.8340  141.2340 C   0  0  0  0  0  2  0  0  0  0  0  0
  185.2030  179.3810  142.6210 O   0  0  0  0  0  0  0  0  0  0  0  0
  188.1170  177.7530  140.9570 C   0  0  2  0  0  3  0  0  0  0  0  0
  186.1890  178.4130  142.3990 C   0  0  2  0  0  3  0  0  0  0  0  0
  188.9840  177.5020  142.2000 C   0  0  1  0  0  3  0  0  0  0  0  0
  184.0040  178.6640  142.6160 C   0  0  2  0  0  3  0  0  0  0  0  0
  183.1040  179.2080  141.5020 C   0  0  0  0  0  2  0  0  0  0  0  0
  181.9950  178.5300  143.9940 N   0  0  0  0  0  0  0  0  0  0  0  0
  188.1030  177.1480  143.4030 C   0  0  0  0  0  2  0  0  0  0  0  0
  185.6330  179.3380  146.8400 C   0  0  0  0  0  2  0  0  0  0  0  0
  186.6920  178.3850  147.3690 C   0  0  0  0  0  2  0  0  0  0  0  0
  187.6430  179.0790  148.1190 O   0  0  0  0  0  0  0  0  0  0  0  0
  188.4330  178.0810  148.6940 C   0  0  0  0  0  2  0  0  0  0  0  0
  188.1130  176.7460  148.0570 C   0  0  0  0  0  1  0  0  0  0  0  0
  189.9610  176.3590  141.9420 C   0  0  0  0  0  2  0  0  0  0  0  0
  190.2310  175.5570  143.2060 C   0  0  0  0  0  2  0  0  0  0  0  0
  191.5770  175.9360  143.7980 C   0  0  0  0  0  2  0  0  0  0  0  0
  191.3910  176.6200  145.0690 N   0  0  0  0  0  2  0  0  0  0  0  0
  191.6490  176.8900  147.5600 C   0  0  0  0  0  1  0  0  0  0  0  0
  192.5200  174.9940  146.3710 N   0  0  0  0  0  2  0  0  0  0  0  0
  191.8830  176.1160  146.3150 C   0  0  0  0  0  0  0  0  0  0  0  0
  188.9700  178.1650  139.7600 C   0  0  0  0  0  2  0  0  0  0  0  0
  188.7460  177.2160  138.5740 C   0  0  0  0  0  2  0  0  0  0  0  0
  188.9590  177.8330  137.2550 N   0  0  0  0  0  0  0  0  0  0  0  0
  187.6910  178.1740  136.6150 C   0  0  0  0  0  2  0  0  0  0  0  0
  186.0660  176.3560  137.2450 C   0  0  0  0  0  2  0  0  0  0  0  0
  184.7800  177.1800  137.3940 C   0  0  1  0  0  3  0  0  0  0  0  0
  186.1990  177.2350  134.8540 C   0  0  0  0  0  2  0  0  0  0  0  0
  184.0960  177.4780  136.1040 N   0  0  1  0  0  0  0  0  0  0  0  0
  184.7290  176.8340  134.9500 C   0  0  0  0  0  2  0  0  0  0  0  0
  186.9670  176.9190  136.1410 C   0  0  1  0  0  3  0  0  0  0  0  0
  183.6250  176.3870  136.9760 C   0  0  2  0  0  3  0  0  0  0  0  0
  181.9050  176.0120  138.6640 C   0  0  0  0  0  2  0  0  0  0  0  0
  182.4080  176.8140  137.7340 C   0  0  0  0  0  0  0  0  0  0  0  0
  180.7790  178.6410  136.5540 O   0  0  0  0  0  0  0  0  0  0  0  0
  181.4270  179.3550  137.5570 C   0  0  0  0  0  0  0  0  0  0  0  0
  181.6820  180.7500  138.3670 S   0  0  0  0  0  0  0  0  0  0  0  0
  181.7000  177.9950  137.3660 N   0  0  0  0  0  0  0  0  0  0  0  0
  189.6580  176.8950  136.3890 C   0  0  0  0  0  2  0  0  0  0  0  0
  190.0400  175.6370  137.1660 C   0  0  2  0  0  3  0  0  0  0  0  0
  192.3880  176.0480  136.3630 C   0  0  0  0  0  1  0  0  0  0  0  0
  191.5300  175.5680  137.5180 C   0  0  2  0  0  3  0  0  0  0  0  0
  191.9060  174.2760  137.8880 O   0  0  0  0  0  1  0  0  0  0  0  0
  188.8700  173.4250  137.0300 O   0  0  0  0  0  1  0  0  0  0  0  0
  189.6180  174.4200  136.4110 C   0  0  0  0  0  0  0  0  0  0  0  0
  189.9540  174.2910  135.2070 O   0  0  0  0  0  0  0  0  0  0  0  0
  1  2  2  0  0  0  0
  2 16  1  0  0  0  0
  4 16  2  0  0  0  0
  4  7  1  0  0  0  0
  5  3  2  0  0  0  0
  5  8  1  0  0  0  0
  6 17  1  6  0  0  0
  6  5  1  0  0  0  0
  7  8  1  0  0  0  0
  8 18  1  1  0  0  0
 11 30  1  6  0  0  0
 11  9  1  0  0  0  0
 11 13  1  0  0  0  0
 12  9  1  6  0  0  0
 12 10  1  0  0  0  0
 12  6  1  0  0  0  0
 13 23  1  6  0  0  0
 13 17  1  0  0  0  0
 14 15  1  6  0  0  0
 14 10  1  0  0  0  0
 14  4  1  0  0  0  0
 15  1  1  0  0  0  0
 18 19  1  0  0  0  0
 19 20  1  0  0  0  0
 20 21  1  0  0  0  0
 22 21  1  0  0  0  0
 23 24  1  0  0  0  0
 24 25  1  0  0  0  0
 25 26  1  0  0  0  0
 26 29  1  0  0  0  0
 29 28  2  0  0  0  0
 29 27  1  0  0  0  0
 31 30  1  0  0  0  0
 32 31  1  0  0  0  0
 33 32  1  0  0  0  0
 35 34  1  6  0  0  0
 36 38  1  0  0  0  0
 36 39  1  0  0  0  0
 37 38  1  6  0  0  0
 37 40  1  0  0  0  0
 37 35  1  0  0  0  0
 39 33  1  1  0  0  0
 39 34  1  0  0  0  0
 40 35  1  0  0  0  0
 40 42  1  1  0  0  0
 42 41  2  0  0  0  0
 43 46  1  0  0  0  0
 43 44  1  0  0  0  0
 44 45  2  0  0  0  0
 46 44  1  0  0  0  0
 46 42  1  0  0  0  0
 47 32  1  0  0  0  0
 48 47  1  6  0  0  0
 48 50  1  0  0  0  0
 50 49  1  6  0  0  0
 50 51  1  0  0  0  0
 53 52  1  0  0  0  0
 53 48  1  0  0  0  0
 54 53  2  0  0  0  0
M  END
>  <MODEL>
4

>  <REMARK>
 VINA RESULT:      -7.0      3.416      7.963
  Name = 
  19 active torsions:
  status: ('A' for Active; 'I' for Inactive)
    1  A    between atoms: N_1  and  C_22
    2  A    between atoms: N_1  and  C_27
    3  A    between atoms: N_1  and  C_48
    4  A    between atoms: C_3  and  O_19
    5  A    between atoms: C_8  and  C_22
    6  A    between atoms: C_8  and  C_34
    7  A    between atoms: C_9  and  C_21
    8  A    between atoms: C_9  and  C_51
    9  A    between atoms: N_10  and  C_21
   10  A    between atoms: O_19  and  C_46
   11  A    between atoms: C_23  and  C_52
   12  A    between atoms: C_27  and  C_42
   13  A    between atoms: C_29  and  C_42
   14  A    between atoms: C_31  and  C_42
   15  A    between atoms: C_36  and  N_47
   16  A    between atoms: C_36  and  C_54
   17  A    between atoms: C_39  and  C_51
   18  A    between atoms: C_43  and  C_48
   19  A    between atoms: C_46  and  C_52
                            x       y       z     vdW  Elec       q    Type
                         _______ _______ _______ _____ _____    ______ ____

>  <TORSDO>
F 19

$$$$
=
 OpenBabel11062412473D

 54 59  0  0  1  0  0  0  0  0999 V2000
  191.6440  178.2890  142.7670 C   0  0  0  0  0  3  0  0  0  0  0  0
  191.4980  178.5990  144.0560 C   0  0  0  0  0  3  0  0  0  0  0  0
  185.8520  179.6860  143.8670 O   0  0  0  0  0  0  0  0  0  0  0  0
  189.1440  178.1020  144.0890 C   0  0  0  0  0  0  0  0  0  0  0  0
  186.1200  178.5680  143.4470 C   0  0  0  0  0  0  0  0  0  0  0  0
  185.9640  178.2150  141.9960 C   0  0  2  0  0  3  0  0  0  0  0  0
  187.9770  177.9450  144.8570 O   0  0  0  0  0  0  0  0  0  0  0  0
  186.7080  177.5310  144.3600 C   0  0  1  0  0  3  0  0  0  0  0  0
  187.1530  177.6280  139.8930 C   0  0  0  0  0  2  0  0  0  0  0  0
  188.1690  177.2470  142.0240 O   0  0  0  0  0  0  0  0  0  0  0  0
  186.2830  178.6100  139.1080 C   0  0  2  0  0  3  0  0  0  0  0  0
  187.3320  178.1220  141.3200 C   0  0  2  0  0  3  0  0  0  0  0  0
  184.9100  178.7750  139.7770 C   0  0  1  0  0  3  0  0  0  0  0  0
  189.1610  178.0710  142.5620 C   0  0  2  0  0  3  0  0  0  0  0  0
  190.5250  177.6170  142.0340 C   0  0  0  0  0  2  0  0  0  0  0  0
  190.2470  178.3810  144.7250 N   0  0  0  0  0  0  0  0  0  0  0  0
  185.0750  179.2020  141.2400 C   0  0  0  0  0  2  0  0  0  0  0  0
  185.7720  177.2290  145.5220 C   0  0  0  0  0  2  0  0  0  0  0  0
  186.1040  178.0910  146.7290 C   0  0  0  0  0  2  0  0  0  0  0  0
  187.0170  177.4380  147.5590 O   0  0  0  0  0  0  0  0  0  0  0  0
  187.6560  178.4650  148.2560 C   0  0  0  0  0  2  0  0  0  0  0  0
  189.1310  178.1530  148.3870 C   0  0  0  0  0  1  0  0  0  0  0  0
  184.0830  179.8250  139.0400 C   0  0  0  0  0  2  0  0  0  0  0  0
  182.5970  179.5100  139.1000 C   0  0  0  0  0  2  0  0  0  0  0  0
  182.3760  178.0110  139.2180 C   0  0  0  0  0  2  0  0  0  0  0  0
  180.9540  177.7080  139.1510 N   0  0  0  0  0  2  0  0  0  0  0  0
  178.9330  176.2310  139.4370 C   0  0  0  0  0  1  0  0  0  0  0  0
  181.1580  175.4870  139.9530 N   0  0  0  0  0  2  0  0  0  0  0  0
  180.3990  176.4450  139.5340 C   0  0  0  0  0  0  0  0  0  0  0  0
  186.1440  178.1280  137.6670 C   0  0  0  0  0  2  0  0  0  0  0  0
  185.4420  176.7640  137.6090 C   0  0  0  0  0  2  0  0  0  0  0  0
  185.5710  176.0710  136.3190 N   0  0  0  0  0  0  0  0  0  0  0  0
  186.2600  176.9000  135.3340 C   0  0  0  0  0  2  0  0  0  0  0  0
  188.7460  176.9120  134.9330 C   0  0  0  0  0  2  0  0  0  0  0  0
  189.2550  176.7570  136.3730 C   0  0  1  0  0  3  0  0  0  0  0  0
  187.4780  174.7270  135.2820 C   0  0  0  0  0  2  0  0  0  0  0  0
  189.2440  175.3530  136.8720 N   0  0  1  0  0  0  0  0  0  0  0  0
  188.8500  174.3780  135.8520 C   0  0  0  0  0  2  0  0  0  0  0  0
  187.4340  176.1500  134.7170 C   0  0  1  0  0  3  0  0  0  0  0  0
  190.4900  175.9730  136.3860 C   0  0  2  0  0  3  0  0  0  0  0  0
  190.7970  177.0110  138.5710 C   0  0  0  0  0  2  0  0  0  0  0  0
  191.3490  176.3900  137.5370 C   0  0  0  0  0  0  0  0  0  0  0  0
  194.0150  176.8300  137.2420 O   0  0  0  0  0  0  0  0  0  0  0  0
  193.9230  175.4820  137.5730 C   0  0  0  0  0  0  0  0  0  0  0  0
  194.6350  174.0420  137.8690 S   0  0  0  0  0  0  0  0  0  0  0  0
  192.7680  176.2650  137.4670 N   0  0  0  0  0  0  0  0  0  0  0  0
  184.2460  175.7680  135.7970 C   0  0  0  0  0  2  0  0  0  0  0  0
  183.4990  174.8400  136.7520 C   0  0  2  0  0  3  0  0  0  0  0  0
  184.9010  172.9720  137.6860 C   0  0  0  0  0  1  0  0  0  0  0  0
  183.9040  173.3680  136.6140 C   0  0  2  0  0  3  0  0  0  0  0  0
  184.4310  173.1010  135.3490 O   0  0  0  0  0  1  0  0  0  0  0  0
  181.1530  173.9720  136.9120 O   0  0  0  0  0  1  0  0  0  0  0  0
  182.0250  175.0000  136.5750 C   0  0  0  0  0  0  0  0  0  0  0  0
  181.5710  176.0740  136.1040 O   0  0  0  0  0  0  0  0  0  0  0  0
  1  2  2  0  0  0  0
  2 16  1  0  0  0  0
  4 16  2  0  0  0  0
  4  7  1  0  0  0  0
  5  3  2  0  0  0  0
  5  8  1  0  0  0  0
  6 17  1  6  0  0  0
  6  5  1  0  0  0  0
  8  7  1  0  0  0  0
  8 18  1  1  0  0  0
 10 14  1  0  0  0  0
 11 30  1  6  0  0  0
 11 13  1  0  0  0  0
 11  9  1  0  0  0  0
 12  9  1  6  0  0  0
 12  6  1  0  0  0  0
 12 10  1  0  0  0  0
 13 23  1  6  0  0  0
 13 17  1  0  0  0  0
 14 15  1  1  0  0  0
 14  4  1  0  0  0  0
 15  1  1  0  0  0  0
 18 19  1  0  0  0  0
 19 20  1  0  0  0  0
 20 21  1  0  0  0  0
 21 22  1  0  0  0  0
 23 24  1  0  0  0  0
 24 25  1  0  0  0  0
 26 25  1  0  0  0  0
 26 29  1  0  0  0  0
 27 29  1  0  0  0  0
 29 28  2  0  0  0  0
 31 30  1  0  0  0  0
 32 31  1  0  0  0  0
 33 32  1  0  0  0  0
 35 34  1  6  0  0  0
 35 40  1  0  0  0  0
 35 37  1  0  0  0  0
 36 38  1  0  0  0  0
 37 38  1  6  0  0  0
 39 34  1  0  0  0  0
 39 36  1  0  0  0  0
 39 33  1  1  0  0  0
 40 37  1  0  0  0  0
 40 42  1  1  0  0  0
 42 41  2  0  0  0  0
 43 46  1  0  0  0  0
 43 44  1  0  0  0  0
 44 45  2  0  0  0  0
 46 42  1  0  0  0  0
 46 44  1  0  0  0  0
 47 32  1  0  0  0  0
 48 47  1  6  0  0  0
 50 48  1  0  0  0  0
 50 49  1  1  0  0  0
 51 50  1  0  0  0  0
 53 48  1  0  0  0  0
 53 52  1  0  0  0  0
 54 53  2  0  0  0  0
M  END
>  <MODEL>
5

>  <REMARK>
 VINA RESULT:      -6.2      2.667      8.280
  Name = 
  19 active torsions:
  status: ('A' for Active; 'I' for Inactive)
    1  A    between atoms: N_1  and  C_22
    2  A    between atoms: N_1  and  C_27
    3  A    between atoms: N_1  and  C_48
    4  A    between atoms: C_3  and  O_19
    5  A    between atoms: C_8  and  C_22
    6  A    between atoms: C_8  and  C_34
    7  A    between atoms: C_9  and  C_21
    8  A    between atoms: C_9  and  C_51
    9  A    between atoms: N_10  and  C_21
   10  A    between atoms: O_19  and  C_46
   11  A    between atoms: C_23  and  C_52
   12  A    between atoms: C_27  and  C_42
   13  A    between atoms: C_29  and  C_42
   14  A    between atoms: C_31  and  C_42
   15  A    between atoms: C_36  and  N_47
   16  A    between atoms: C_36  and  C_54
   17  A    between atoms: C_39  and  C_51
   18  A    between atoms: C_43  and  C_48
   19  A    between atoms: C_46  and  C_52
                            x       y       z     vdW  Elec       q    Type
                         _______ _______ _______ _____ _____    ______ ____

>  <TORSDO>
F 19

$$$$
=
 OpenBabel11062412473D

 54 59  0  0  1  0  0  0  0  0999 V2000
  187.9330  177.9050  135.4770 C   0  0  0  0  0  3  0  0  0  0  0  0
  188.9390  177.6770  134.6330 C   0  0  0  0  0  3  0  0  0  0  0  0
  193.0830  177.2700  138.6030 O   0  0  0  0  0  0  0  0  0  0  0  0
  190.3200  176.6160  136.2930 C   0  0  0  0  0  0  0  0  0  0  0  0
  192.1640  176.4900  138.8150 C   0  0  0  0  0  0  0  0  0  0  0  0
  191.2440  176.6610  139.9880 C   0  0  2  0  0  3  0  0  0  0  0  0
  191.4950  175.8970  136.5740 O   0  0  0  0  0  0  0  0  0  0  0  0
  191.8670  175.3810  137.8470 C   0  0  1  0  0  3  0  0  0  0  0  0
  188.9270  177.2050  140.7100 C   0  0  0  0  0  2  0  0  0  0  0  0
  189.3600  176.3500  138.5200 O   0  0  0  0  0  0  0  0  0  0  0  0
  189.4670  178.1470  141.7870 C   0  0  2  0  0  3  0  0  0  0  0  0
  189.8800  177.1750  139.5250 C   0  0  2  0  0  3  0  0  0  0  0  0
  190.8610  177.6990  142.2520 C   0  0  1  0  0  3  0  0  0  0  0  0
  189.3780  177.1480  137.3720 C   0  0  2  0  0  3  0  0  0  0  0  0
  187.9490  177.2830  136.8390 C   0  0  0  0  0  2  0  0  0  0  0  0
  190.0850  176.9180  135.0480 N   0  0  0  0  0  0  0  0  0  0  0  0
  191.8150  177.5920  141.0580 C   0  0  0  0  0  2  0  0  0  0  0  0
  193.0610  174.4480  137.6990 C   0  0  0  0  0  2  0  0  0  0  0  0
  193.8000  174.7100  136.3970 C   0  0  0  0  0  2  0  0  0  0  0  0
  194.8730  175.5770  136.6110 O   0  0  0  0  0  0  0  0  0  0  0  0
  195.0660  176.2070  135.3800 C   0  0  0  0  0  2  0  0  0  0  0  0
  196.4930  176.0010  134.9190 C   0  0  0  0  0  1  0  0  0  0  0  0
  191.4290  178.6950  143.2590 C   0  0  0  0  0  2  0  0  0  0  0  0
  191.8310  178.0110  144.5570 C   0  0  0  0  0  2  0  0  0  0  0  0
  190.9980  176.7590  144.7770 C   0  0  0  0  0  2  0  0  0  0  0  0
  191.6720  175.8670  145.7080 N   0  0  0  0  0  2  0  0  0  0  0  0
  192.6330  175.2290  147.9480 C   0  0  0  0  0  1  0  0  0  0  0  0
  191.6100  177.3640  147.5440 N   0  0  0  0  0  2  0  0  0  0  0  0
  191.9450  176.2100  147.0700 C   0  0  0  0  0  0  0  0  0  0  0  0
  188.4850  178.2030  142.9530 C   0  0  0  0  0  2  0  0  0  0  0  0
  187.6810  176.8990  143.0580 C   0  0  0  0  0  2  0  0  0  0  0  0
  186.5740  176.9460  144.0250 N   0  0  0  0  0  0  0  0  0  0  0  0
  185.2800  177.0340  143.3520 C   0  0  0  0  0  2  0  0  0  0  0  0
  185.0840  178.6480  141.4290 C   0  0  0  0  0  2  0  0  0  0  0  0
  183.8620  178.0640  140.7080 C   0  0  1  0  0  3  0  0  0  0  0  0
  183.5990  178.8690  143.4920 C   0  0  0  0  0  2  0  0  0  0  0  0
  182.5560  178.4640  141.3030 N   0  0  1  0  0  0  0  0  0  0  0  0
  182.6900  179.4260  142.4000 C   0  0  0  0  0  2  0  0  0  0  0  0
  184.9750  178.4720  142.9480 C   0  0  1  0  0  3  0  0  0  0  0  0
  183.0770  179.1380  140.1000 C   0  0  2  0  0  3  0  0  0  0  0  0
  182.5060  177.3610  138.5310 C   0  0  0  0  0  2  0  0  0  0  0  0
  182.3790  178.6350  138.8770 C   0  0  0  0  0  0  0  0  0  0  0  0
  181.2980  179.8910  136.7230 O   0  0  0  0  0  0  0  0  0  0  0  0
  180.9860  180.7190  137.7960 C   0  0  0  0  0  0  0  0  0  0  0  0
  180.2880  182.0720  138.3870 S   0  0  0  0  0  0  0  0  0  0  0  0
  181.7090  179.5380  138.0000 N   0  0  0  0  0  0  0  0  0  0  0  0
  186.7180  178.1240  144.8690 C   0  0  0  0  0  2  0  0  0  0  0  0
  186.6050  177.7390  146.3430 C   0  0  2  0  0  3  0  0  0  0  0  0
  184.2590  178.6330  146.4980 C   0  0  0  0  0  1  0  0  0  0  0  0
  185.6370  178.6270  147.1320 C   0  0  2  0  0  3  0  0  0  0  0  0
  186.1180  179.9320  147.2430 O   0  0  0  0  0  1  0  0  0  0  0  0
  188.3100  176.7500  147.8900 O   0  0  0  0  0  1  0  0  0  0  0  0
  187.9560  177.7360  146.9770 C   0  0  0  0  0  0  0  0  0  0  0  0
  188.7770  178.6440  146.6900 O   0  0  0  0  0  0  0  0  0  0  0  0
  1 15  1  0  0  0  0
  2 16  1  0  0  0  0
  2  1  2  0  0  0  0
  3  5  2  0  0  0  0
  4  7  1  0  0  0  0
  4 14  1  0  0  0  0
  5  6  1  0  0  0  0
  6 17  1  1  0  0  0
  7  8  1  0  0  0  0
  8 18  1  6  0  0  0
  8  5  1  0  0  0  0
  9 11  1  0  0  0  0
 10 12  1  0  0  0  0
 11 13  1  0  0  0  0
 11 30  1  1  0  0  0
 12  6  1  0  0  0  0
 12  9  1  1  0  0  0
 13 23  1  1  0  0  0
 14 15  1  6  0  0  0
 14 10  1  0  0  0  0
 16  4  2  0  0  0  0
 17 13  1  0  0  0  0
 19 20  1  0  0  0  0
 19 18  1  0  0  0  0
 21 20  1  0  0  0  0
 22 21  1  0  0  0  0
 23 24  1  0  0  0  0
 24 25  1  0  0  0  0
 25 26  1  0  0  0  0
 26 29  1  0  0  0  0
 29 28  2  0  0  0  0
 29 27  1  0  0  0  0
 30 31  1  0  0  0  0
 31 32  1  0  0  0  0
 32 47  1  0  0  0  0
 33 32  1  0  0  0  0
 34 39  1  0  0  0  0
 35 37  1  0  0  0  0
 35 34  1  1  0  0  0
 37 38  1  1  0  0  0
 38 36  1  0  0  0  0
 39 33  1  6  0  0  0
 39 36  1  0  0  0  0
 40 42  1  6  0  0  0
 40 35  1  0  0  0  0
 40 37  1  0  0  0  0
 41 42  2  0  0  0  0
 43 44  1  0  0  0  0
 43 46  1  0  0  0  0
 44 46  1  0  0  0  0
 44 45  2  0  0  0  0
 46 42  1  0  0  0  0
 48 47  1  6  0  0  0
 48 53  1  0  0  0  0
 48 50  1  0  0  0  0
 50 49  1  6  0  0  0
 50 51  1  0  0  0  0
 53 52  1  0  0  0  0
 54 53  2  0  0  0  0
M  END
>  <MODEL>
6

>  <REMARK>
 VINA RESULT:      -5.9      3.428      8.763
  Name = 
  19 active torsions:
  status: ('A' for Active; 'I' for Inactive)
    1  A    between atoms: N_1  and  C_22
    2  A    between atoms: N_1  and  C_27
    3  A    between atoms: N_1  and  C_48
    4  A    between atoms: C_3  and  O_19
    5  A    between atoms: C_8  and  C_22
    6  A    between atoms: C_8  and  C_34
    7  A    between atoms: C_9  and  C_21
    8  A    between atoms: C_9  and  C_51
    9  A    between atoms: N_10  and  C_21
   10  A    between atoms: O_19  and  C_46
   11  A    between atoms: C_23  and  C_52
   12  A    between atoms: C_27  and  C_42
   13  A    between atoms: C_29  and  C_42
   14  A    between atoms: C_31  and  C_42
   15  A    between atoms: C_36  and  N_47
   16  A    between atoms: C_36  and  C_54
   17  A    between atoms: C_39  and  C_51
   18  A    between atoms: C_43  and  C_48
   19  A    between atoms: C_46  and  C_52
                            x       y       z     vdW  Elec       q    Type
                         _______ _______ _______ _____ _____    ______ ____

>  <TORSDO>
F 19

$$$$
=
 OpenBabel11062412473D

 54 59  0  0  1  0  0  0  0  0999 V2000
  181.7820  178.7140  141.0250 C   0  0  0  0  0  3  0  0  0  0  0  0
  181.1560  178.4340  142.1690 C   0  0  0  0  0  3  0  0  0  0  0  0
  185.8130  176.7650  145.1070 O   0  0  0  0  0  0  0  0  0  0  0  0
  183.1350  178.6870  143.5150 C   0  0  0  0  0  0  0  0  0  0  0  0
  185.9410  177.8900  144.6420 C   0  0  0  0  0  0  0  0  0  0  0  0
  186.9090  178.1760  143.5320 C   0  0  2  0  0  3  0  0  0  0  0  0
  183.6910  178.7480  144.8050 O   0  0  0  0  0  0  0  0  0  0  0  0
  185.0570  179.0120  145.1070 C   0  0  1  0  0  3  0  0  0  0  0  0
  187.1530  178.8120  141.1410 C   0  0  0  0  0  2  0  0  0  0  0  0
  185.1740  179.3670  142.3620 O   0  0  0  0  0  0  0  0  0  0  0  0
  188.2040  177.7200  140.9410 C   0  0  2  0  0  3  0  0  0  0  0  0
  186.1630  178.3880  142.2140 C   0  0  2  0  0  3  0  0  0  0  0  0
  188.9510  177.4370  142.2530 C   0  0  1  0  0  3  0  0  0  0  0  0
  183.9700  178.6680  142.2360 C   0  0  2  0  0  3  0  0  0  0  0  0
  183.1830  179.2420  141.0550 C   0  0  0  0  0  2  0  0  0  0  0  0
  181.8430  178.5440  143.4250 N   0  0  0  0  0  0  0  0  0  0  0  0
  187.9600  177.0780  143.3660 C   0  0  0  0  0  2  0  0  0  0  0  0
  185.2190  179.2540  146.6010 C   0  0  0  0  0  2  0  0  0  0  0  0
  186.6680  179.0850  147.0270 C   0  0  0  0  0  2  0  0  0  0  0  0
  186.8230  177.9160  147.7750 O   0  0  0  0  0  0  0  0  0  0  0  0
  188.1810  177.8840  148.0990 C   0  0  0  0  0  2  0  0  0  0  0  0
  189.0040  178.2770  146.8910 C   0  0  0  0  0  1  0  0  0  0  0  0
  189.9320  176.2830  142.0660 C   0  0  0  0  0  2  0  0  0  0  0  0
  190.3330  175.6690  143.3980 C   0  0  0  0  0  2  0  0  0  0  0  0
  191.6770  176.2130  143.8510 C   0  0  0  0  0  2  0  0  0  0  0  0
  191.6000  176.6490  145.2380 N   0  0  0  0  0  2  0  0  0  0  0  0
  191.9000  176.3720  147.7230 C   0  0  0  0  0  1  0  0  0  0  0  0
  192.4700  174.6450  146.1550 N   0  0  0  0  0  2  0  0  0  0  0  0
  192.0110  175.8380  146.3420 C   0  0  0  0  0  0  0  0  0  0  0  0
  189.1670  178.1360  139.8330 C   0  0  0  0  0  2  0  0  0  0  0  0
  189.5230  176.9420  138.9360 C   0  0  0  0  0  2  0  0  0  0  0  0
  189.2940  177.1730  137.5010 N   0  0  0  0  0  0  0  0  0  0  0  0
  187.8710  177.3020  137.2010 C   0  0  0  0  0  2  0  0  0  0  0  0
  186.6640  175.2050  136.5060 C   0  0  0  0  0  2  0  0  0  0  0  0
  185.2180  175.6000  136.8370 C   0  0  1  0  0  3  0  0  0  0  0  0
  186.7370  177.2500  134.9830 C   0  0  0  0  0  2  0  0  0  0  0  0
  184.5640  176.4380  135.7940 N   0  0  1  0  0  0  0  0  0  0  0  0
  185.3940  176.6350  134.6030 C   0  0  0  0  0  2  0  0  0  0  0  0
  187.4790  176.4110  136.0290 C   0  0  1  0  0  3  0  0  0  0  0  0
  184.2990  174.9900  135.8760 C   0  0  2  0  0  3  0  0  0  0  0  0
  182.6690  175.3670  137.6500 C   0  0  0  0  0  2  0  0  0  0  0  0
  182.9750  174.7380  136.5230 C   0  0  0  0  0  0  0  0  0  0  0  0
  180.8410  173.3060  135.6370 O   0  0  0  0  0  0  0  0  0  0  0  0
  181.9040  172.4100  135.5800 C   0  0  0  0  0  0  0  0  0  0  0  0
  182.4890  170.9240  135.2400 S   0  0  0  0  0  0  0  0  0  0  0  0
  182.1060  173.7210  136.0270 N   0  0  0  0  0  0  0  0  0  0  0  0
  189.8090  176.0420  136.7420 C   0  0  0  0  0  2  0  0  0  0  0  0
  191.1530  175.5880  137.3090 C   0  0  2  0  0  3  0  0  0  0  0  0
  192.4940  176.0400  135.2300 C   0  0  0  0  0  1  0  0  0  0  0  0
  192.3490  176.3360  136.7110 C   0  0  2  0  0  3  0  0  0  0  0  0
  193.5330  176.0200  137.3790 O   0  0  0  0  0  1  0  0  0  0  0  0
  192.5740  173.5370  137.0770 O   0  0  0  0  0  1  0  0  0  0  0  0
  191.3100  174.1140  137.1350 C   0  0  0  0  0  0  0  0  0  0  0  0
  190.2890  173.3890  137.0290 O   0  0  0  0  0  0  0  0  0  0  0  0
  1 15  1  0  0  0  0
  1  2  2  0  0  0  0
  2 16  1  0  0  0  0
  4  7  1  0  0  0  0
  5  3  2  0  0  0  0
  5  8  1  0  0  0  0
  6 17  1  6  0  0  0
  6  5  1  0  0  0  0
  7  8  1  0  0  0  0
  8 18  1  1  0  0  0
 11 30  1  6  0  0  0
 11  9  1  0  0  0  0
 11 13  1  0  0  0  0
 12  9  1  6  0  0  0
 12 10  1  0  0  0  0
 12  6  1  0  0  0  0
 13 23  1  6  0  0  0
 13 17  1  0  0  0  0
 14 15  1  6  0  0  0
 14 10  1  0  0  0  0
 14  4  1  0  0  0  0
 16  4  2  0  0  0  0
 18 19  1  0  0  0  0
 19 20  1  0  0  0  0
 20 21  1  0  0  0  0
 22 21  1  0  0  0  0
 23 24  1  0  0  0  0
 24 25  1  0  0  0  0
 25 26  1  0  0  0  0
 26 29  1  0  0  0  0
 28 29  2  0  0  0  0
 29 27  1  0  0  0  0
 31 30  1  0  0  0  0
 32 31  1  0  0  0  0
 33 32  1  0  0  0  0
 35 34  1  6  0  0  0
 36 39  1  0  0  0  0
 37 38  1  6  0  0  0
 37 40  1  0  0  0  0
 37 35  1  0  0  0  0
 38 36  1  0  0  0  0
 39 34  1  0  0  0  0
 39 33  1  1  0  0  0
 40 42  1  1  0  0  0
 40 35  1  0  0  0  0
 42 41  2  0  0  0  0
 43 46  1  0  0  0  0
 44 43  1  0  0  0  0
 44 46  1  0  0  0  0
 45 44  2  0  0  0  0
 46 42  1  0  0  0  0
 47 32  1  0  0  0  0
 48 47  1  6  0  0  0
 50 49  1  6  0  0  0
 50 48  1  0  0  0  0
 50 51  1  0  0  0  0
 52 53  1  0  0  0  0
 53 48  1  0  0  0  0
 54 53  2  0  0  0  0
M  END
>  <MODEL>
7

>  <REMARK>
 VINA RESULT:      -5.8      3.546      7.482
  Name = 
  19 active torsions:
  status: ('A' for Active; 'I' for Inactive)
    1  A    between atoms: N_1  and  C_22
    2  A    between atoms: N_1  and  C_27
    3  A    between atoms: N_1  and  C_48
    4  A    between atoms: C_3  and  O_19
    5  A    between atoms: C_8  and  C_22
    6  A    between atoms: C_8  and  C_34
    7  A    between atoms: C_9  and  C_21
    8  A    between atoms: C_9  and  C_51
    9  A    between atoms: N_10  and  C_21
   10  A    between atoms: O_19  and  C_46
   11  A    between atoms: C_23  and  C_52
   12  A    between atoms: C_27  and  C_42
   13  A    between atoms: C_29  and  C_42
   14  A    between atoms: C_31  and  C_42
   15  A    between atoms: C_36  and  N_47
   16  A    between atoms: C_36  and  C_54
   17  A    between atoms: C_39  and  C_51
   18  A    between atoms: C_43  and  C_48
   19  A    between atoms: C_46  and  C_52
                            x       y       z     vdW  Elec       q    Type
                         _______ _______ _______ _____ _____    ______ ____

>  <TORSDO>
F 19

$$$$
=
 OpenBabel11062412473D

 54 59  0  0  1  0  0  0  0  0999 V2000
  184.9620  177.9790  145.8790 C   0  0  0  0  0  3  0  0  0  0  0  0
  185.9580  177.5020  146.6260 C   0  0  0  0  0  3  0  0  0  0  0  0
  189.6010  176.4250  142.3050 O   0  0  0  0  0  0  0  0  0  0  0  0
  187.6510  177.9810  144.9840 C   0  0  0  0  0  0  0  0  0  0  0  0
  189.2250  177.5900  142.3110 C   0  0  0  0  0  0  0  0  0  0  0  0
  188.3240  178.1290  141.2390 C   0  0  2  0  0  3  0  0  0  0  0  0
  189.0210  178.0300  144.6750 O   0  0  0  0  0  0  0  0  0  0  0  0
  189.5790  178.4990  143.4520 C   0  0  1  0  0  3  0  0  0  0  0  0
  186.0520  178.9930  140.7160 C   0  0  0  0  0  2  0  0  0  0  0  0
  186.9220  179.0950  142.9410 O   0  0  0  0  0  0  0  0  0  0  0  0
  185.9900  178.1190  139.4640 C   0  0  2  0  0  3  0  0  0  0  0  0
  186.9060  178.3170  141.7780 C   0  0  2  0  0  3  0  0  0  0  0  0
  187.4000  177.8610  138.9100 C   0  0  1  0  0  3  0  0  0  0  0  0
  186.5450  178.2110  143.9560 C   0  0  2  0  0  3  0  0  0  0  0  0
  185.2720  178.7370  144.6250 C   0  0  0  0  0  2  0  0  0  0  0  0
  187.3210  177.6250  146.1930 N   0  0  0  0  0  0  0  0  0  0  0  0
  188.2950  177.2460  139.9910 C   0  0  0  0  0  2  0  0  0  0  0  0
  191.0880  178.6420  143.5920 C   0  0  0  0  0  2  0  0  0  0  0  0
  191.5600  178.1350  144.9450 C   0  0  0  0  0  2  0  0  0  0  0  0
  191.7160  176.7480  144.9190 O   0  0  0  0  0  0  0  0  0  0  0  0
  191.2500  176.3190  146.1630 C   0  0  0  0  0  2  0  0  0  0  0  0
  192.3730  175.6530  146.9280 C   0  0  0  0  0  1  0  0  0  0  0  0
  187.3350  176.9140  137.7150 C   0  0  0  0  0  2  0  0  0  0  0  0
  188.6940  176.7580  137.0510 C   0  0  0  0  0  2  0  0  0  0  0  0
  189.2070  175.3370  137.2180 C   0  0  0  0  0  2  0  0  0  0  0  0
  190.5100  175.3480  137.8660 N   0  0  0  0  0  2  0  0  0  0  0  0
  193.0210  175.5440  137.9080 C   0  0  0  0  0  1  0  0  0  0  0  0
  191.7490  175.7080  135.8780 N   0  0  0  0  0  2  0  0  0  0  0  0
  191.7390  175.5420  137.1590 C   0  0  0  0  0  0  0  0  0  0  0  0
  185.0970  178.7850  138.4210 C   0  0  0  0  0  2  0  0  0  0  0  0
  184.0720  179.7130  139.0880 C   0  0  0  0  0  2  0  0  0  0  0  0
  182.6740  179.4300  138.7270 N   0  0  0  0  0  0  0  0  0  0  0  0
  182.5910  178.4990  137.6050 C   0  0  0  0  0  2  0  0  0  0  0  0
  181.6440  176.3100  136.7970 C   0  0  0  0  0  2  0  0  0  0  0  0
  182.9020  175.4320  136.8500 C   0  0  1  0  0  3  0  0  0  0  0  0
  182.0040  176.7520  139.2830 C   0  0  0  0  0  2  0  0  0  0  0  0
  183.2180  174.9060  138.2070 N   0  0  1  0  0  0  0  0  0  0  0  0
  182.2040  175.2410  139.2100 C   0  0  0  0  0  2  0  0  0  0  0  0
  181.6390  177.3510  137.9210 C   0  0  1  0  0  3  0  0  0  0  0  0
  182.5420  174.0600  137.2070 C   0  0  2  0  0  3  0  0  0  0  0  0
  183.0660  172.1620  135.7690 C   0  0  0  0  0  2  0  0  0  0  0  0
  183.5110  173.1000  136.5940 C   0  0  0  0  0  0  0  0  0  0  0  0
  185.8460  173.3240  137.9670 O   0  0  0  0  0  0  0  0  0  0  0  0
  186.2240  172.8290  136.7220 C   0  0  0  0  0  0  0  0  0  0  0  0
  187.3840  172.3200  135.6910 S   0  0  0  0  0  0  0  0  0  0  0  0
  184.8770  173.0870  137.0020 N   0  0  0  0  0  0  0  0  0  0  0  0
  182.0180  180.6680  138.3280 C   0  0  0  0  0  2  0  0  0  0  0  0
  180.5020  180.4870  138.3240 C   0  0  2  0  0  3  0  0  0  0  0  0
  179.0140  181.3670  136.4980 C   0  0  0  0  0  1  0  0  0  0  0  0
  179.7440  181.7040  137.7830 C   0  0  2  0  0  3  0  0  0  0  0  0
  180.6000  182.7870  137.5760 O   0  0  0  0  0  1  0  0  0  0  0  0
  180.4060  180.8930  140.7950 O   0  0  0  0  0  1  0  0  0  0  0  0
  180.0250  180.1350  139.6940 C   0  0  0  0  0  0  0  0  0  0  0  0
  179.2800  179.1350  139.8540 O   0  0  0  0  0  0  0  0  0  0  0  0
  1  2  2  0  0  0  0
  3  5  2  0  0  0  0
  4 16  2  0  0  0  0
  5  8  1  0  0  0  0
  6 17  1  6  0  0  0
  6 12  1  0  0  0  0
  6  5  1  0  0  0  0
  7  4  1  0  0  0  0
  8 18  1  1  0  0  0
  8  7  1  0  0  0  0
 10 14  1  0  0  0  0
 11 30  1  6  0  0  0
 11  9  1  0  0  0  0
 12  9  1  6  0  0  0
 12 10  1  0  0  0  0
 13 23  1  6  0  0  0
 13 11  1  0  0  0  0
 13 17  1  0  0  0  0
 14 15  1  1  0  0  0
 14  4  1  0  0  0  0
 15  1  1  0  0  0  0
 16  2  1  0  0  0  0
 18 19  1  0  0  0  0
 20 19  1  0  0  0  0
 20 21  1  0  0  0  0
 21 22  1  0  0  0  0
 24 25  1  0  0  0  0
 24 23  1  0  0  0  0
 25 26  1  0  0  0  0
 28 29  2  0  0  0  0
 29 26  1  0  0  0  0
 29 27  1  0  0  0  0
 30 31  1  0  0  0  0
 32 31  1  0  0  0  0
 33 32  1  0  0  0  0
 34 39  1  0  0  0  0
 35 34  1  1  0  0  0
 35 40  1  0  0  0  0
 35 37  1  0  0  0  0
 37 38  1  1  0  0  0
 38 36  1  0  0  0  0
 39 33  1  6  0  0  0
 39 36  1  0  0  0  0
 40 42  1  6  0  0  0
 40 37  1  0  0  0  0
 41 42  2  0  0  0  0
 42 46  1  0  0  0  0
 44 46  1  0  0  0  0
 44 43  1  0  0  0  0
 45 44  2  0  0  0  0
 46 43  1  0  0  0  0
 47 32  1  0  0  0  0
 48 47  1  1  0  0  0
 48 53  1  0  0  0  0
 50 49  1  6  0  0  0
 50 48  1  0  0  0  0
 51 50  1  0  0  0  0
 53 54  2  0  0  0  0
 53 52  1  0  0  0  0
M  END
>  <MODEL>
8

>  <REMARK>
 VINA RESULT:      -5.8      2.535      9.870
  Name = 
  19 active torsions:
  status: ('A' for Active; 'I' for Inactive)
    1  A    between atoms: N_1  and  C_22
    2  A    between atoms: N_1  and  C_27
    3  A    between atoms: N_1  and  C_48
    4  A    between atoms: C_3  and  O_19
    5  A    between atoms: C_8  and  C_22
    6  A    between atoms: C_8  and  C_34
    7  A    between atoms: C_9  and  C_21
    8  A    between atoms: C_9  and  C_51
    9  A    between atoms: N_10  and  C_21
   10  A    between atoms: O_19  and  C_46
   11  A    between atoms: C_23  and  C_52
   12  A    between atoms: C_27  and  C_42
   13  A    between atoms: C_29  and  C_42
   14  A    between atoms: C_31  and  C_42
   15  A    between atoms: C_36  and  N_47
   16  A    between atoms: C_36  and  C_54
   17  A    between atoms: C_39  and  C_51
   18  A    between atoms: C_43  and  C_48
   19  A    between atoms: C_46  and  C_52
                            x       y       z     vdW  Elec       q    Type
                         _______ _______ _______ _____ _____    ______ ____

>  <TORSDO>
F 19

$$$$
=
 OpenBabel11062412473D

 54 59  0  0  1  0  0  0  0  0999 V2000
  190.2530  178.2800  141.9750 C   0  0  0  0  0  3  0  0  0  0  0  0
  190.8290  178.6180  143.1300 C   0  0  0  0  0  3  0  0  0  0  0  0
  185.9770  179.7140  146.0220 O   0  0  0  0  0  0  0  0  0  0  0  0
  188.8760  178.1270  144.4470 C   0  0  0  0  0  0  0  0  0  0  0  0
  185.9850  178.5870  145.5450 C   0  0  0  0  0  0  0  0  0  0  0  0
  185.0680  178.2040  144.4200 C   0  0  2  0  0  3  0  0  0  0  0  0
  188.3150  177.9890  145.7290 O   0  0  0  0  0  0  0  0  0  0  0  0
  186.9850  177.5690  146.0110 C   0  0  1  0  0  3  0  0  0  0  0  0
  184.9270  177.5700  142.0200 C   0  0  0  0  0  2  0  0  0  0  0  0
  186.9420  177.2310  143.2620 O   0  0  0  0  0  0  0  0  0  0  0  0
  183.7610  178.5380  141.8160 C   0  0  2  0  0  3  0  0  0  0  0  0
  185.8490  178.0930  143.1100 C   0  0  2  0  0  3  0  0  0  0  0  0
  182.9710  178.7200  143.1210 C   0  0  1  0  0  3  0  0  0  0  0  0
  188.0590  178.0640  143.1580 C   0  0  2  0  0  3  0  0  0  0  0  0
  188.9210  177.5960  141.9820 C   0  0  0  0  0  2  0  0  0  0  0  0
  190.1440  178.4170  144.3750 N   0  0  0  0  0  0  0  0  0  0  0  0
  183.9010  179.1780  144.2500 C   0  0  0  0  0  2  0  0  0  0  0  0
  186.8340  177.2930  147.5010 C   0  0  0  0  0  2  0  0  0  0  0  0
  188.0470  177.7860  148.2720 C   0  0  0  0  0  2  0  0  0  0  0  0
  189.0480  176.8130  148.2820 O   0  0  0  0  0  0  0  0  0  0  0  0
  190.2040  177.4930  147.8950 C   0  0  0  0  0  2  0  0  0  0  0  0
  191.2150  176.5110  147.3460 C   0  0  0  0  0  1  0  0  0  0  0  0
  181.8670  179.7560  142.9320 C   0  0  0  0  0  2  0  0  0  0  0  0
  180.4890  179.1520  143.1550 C   0  0  0  0  0  2  0  0  0  0  0  0
  179.4390  179.9180  142.3690 C   0  0  0  0  0  2  0  0  0  0  0  0
  180.0610  180.6240  141.2590 N   0  0  0  0  0  2  0  0  0  0  0  0
  180.6680  180.9570  138.8370 C   0  0  0  0  0  1  0  0  0  0  0  0
  179.3990  179.0660  139.6000 N   0  0  0  0  0  2  0  0  0  0  0  0
  180.0070  180.1640  139.9040 C   0  0  0  0  0  0  0  0  0  0  0  0
  182.8650  178.0260  140.6920 C   0  0  0  0  0  2  0  0  0  0  0  0
  183.4840  178.3220  139.3180 C   0  0  0  0  0  2  0  0  0  0  0  0
  183.4260  177.1970  138.3730 N   0  0  0  0  0  0  0  0  0  0  0  0
  184.7630  176.7490  137.9930 C   0  0  0  0  0  2  0  0  0  0  0  0
  186.9150  177.9750  138.4450 C   0  0  0  0  0  2  0  0  0  0  0  0
  187.9310  176.9200  137.9870 C   0  0  1  0  0  3  0  0  0  0  0  0
  185.9310  177.8620  136.0940 C   0  0  0  0  0  2  0  0  0  0  0  0
  188.1480  176.8850  136.5140 N   0  0  1  0  0  0  0  0  0  0  0  0
  187.4260  177.9390  135.7960 C   0  0  0  0  0  2  0  0  0  0  0  0
  185.6400  177.9310  137.5970 C   0  0  1  0  0  3  0  0  0  0  0  0
  189.1020  177.5730  137.4020 C   0  0  2  0  0  3  0  0  0  0  0  0
  190.7770  176.5430  138.8450 C   0  0  0  0  0  2  0  0  0  0  0  0
  190.3190  176.7290  137.6140 C   0  0  0  0  0  0  0  0  0  0  0  0
  191.1280  175.7810  135.1980 O   0  0  0  0  0  0  0  0  0  0  0  0
  192.3040  175.9060  135.9310 C   0  0  0  0  0  0  0  0  0  0  0  0
  193.9270  175.7590  136.0430 S   0  0  0  0  0  0  0  0  0  0  0  0
  191.0740  176.2500  136.5030 N   0  0  0  0  0  0  0  0  0  0  0  0
  182.7360  177.6180  137.1610 C   0  0  0  0  0  2  0  0  0  0  0  0
  181.4680  176.7910  136.9570 C   0  0  2  0  0  3  0  0  0  0  0  0
  181.5720  174.3400  137.5090 C   0  0  0  0  0  1  0  0  0  0  0  0
  181.2550  175.7260  138.0380 C   0  0  2  0  0  3  0  0  0  0  0  0
  179.9530  175.7610  138.5380 O   0  0  0  0  0  1  0  0  0  0  0  0
  180.3040  175.6680  135.0440 O   0  0  0  0  0  1  0  0  0  0  0  0
  181.4740  176.1720  135.5990 C   0  0  0  0  0  0  0  0  0  0  0  0
  182.5520  176.0950  134.9560 O   0  0  0  0  0  0  0  0  0  0  0  0
  1 15  1  0  0  0  0
  1  2  2  0  0  0  0
  2 16  1  0  0  0  0
  4  7  1  0  0  0  0
  5  8  1  0  0  0  0
  5  3  2  0  0  0  0
  6 17  1  6  0  0  0
  6  5  1  0  0  0  0
  7  8  1  0  0  0  0
  8 18  1  1  0  0  0
 11 30  1  6  0  0  0
 11  9  1  0  0  0  0
 11 13  1  0  0  0  0
 12  9  1  6  0  0  0
 12 10  1  0  0  0  0
 12  6  1  0  0  0  0
 13 23  1  6  0  0  0
 13 17  1  0  0  0  0
 14 15  1  6  0  0  0
 14 10  1  0  0  0  0
 14  4  1  0  0  0  0
 16  4  2  0  0  0  0
 18 19  1  0  0  0  0
 19 20  1  0  0  0  0
 21 20  1  0  0  0  0
 22 21  1  0  0  0  0
 23 24  1  0  0  0  0
 25 24  1  0  0  0  0
 26 25  1  0  0  0  0
 27 29  1  0  0  0  0
 28 29  2  0  0  0  0
 29 26  1  0  0  0  0
 31 30  1  0  0  0  0
 32 31  1  0  0  0  0
 33 32  1  0  0  0  0
 35 34  1  6  0  0  0
 36 39  1  0  0  0  0
 37 38  1  6  0  0  0
 37 40  1  0  0  0  0
 37 35  1  0  0  0  0
 38 36  1  0  0  0  0
 39 33  1  1  0  0  0
 39 34  1  0  0  0  0
 40 42  1  1  0  0  0
 40 35  1  0  0  0  0
 42 41  2  0  0  0  0
 43 44  1  0  0  0  0
 43 46  1  0  0  0  0
 44 45  2  0  0  0  0
 44 46  1  0  0  0  0
 46 42  1  0  0  0  0
 47 32  1  0  0  0  0
 48 47  1  1  0  0  0
 48 50  1  0  0  0  0
 50 49  1  6  0  0  0
 50 51  1  0  0  0  0
 52 53  1  0  0  0  0
 53 48  1  0  0  0  0
 54 53  2  0  0  0  0
M  END
>  <MODEL>
9

>  <REMARK>
 VINA RESULT:      -5.8      2.638      8.679
  Name = 
  19 active torsions:
  status: ('A' for Active; 'I' for Inactive)
    1  A    between atoms: N_1  and  C_22
    2  A    between atoms: N_1  and  C_27
    3  A    between atoms: N_1  and  C_48
    4  A    between atoms: C_3  and  O_19
    5  A    between atoms: C_8  and  C_22
    6  A    between atoms: C_8  and  C_34
    7  A    between atoms: C_9  and  C_21
    8  A    between atoms: C_9  and  C_51
    9  A    between atoms: N_10  and  C_21
   10  A    between atoms: O_19  and  C_46
   11  A    between atoms: C_23  and  C_52
   12  A    between atoms: C_27  and  C_42
   13  A    between atoms: C_29  and  C_42
   14  A    between atoms: C_31  and  C_42
   15  A    between atoms: C_36  and  N_47
   16  A    between atoms: C_36  and  C_54
   17  A    between atoms: C_39  and  C_51
   18  A    between atoms: C_43  and  C_48
   19  A    between atoms: C_46  and  C_52
                            x       y       z     vdW  Elec       q    Type
                         _______ _______ _______ _____ _____    ______ ____

>  <TORSDO>
F 19

$$$$
