=
 OpenBabel11062416503D

 34 37  0  0  1  0  0  0  0  0999 V2000
  188.9220  178.2170  140.3750 O   0  0  0  0  0  1  0  0  0  0  0  0
  189.3960  177.1550  139.5970 C   0  0  1  0  0  3  0  0  0  0  0  0
  189.7470  177.6430  138.1760 C   0  0  1  0  0  3  0  0  0  0  0  0
  190.0030  176.4860  137.1820 C   0  0  1  0  0  3  0  0  0  0  0  0
  189.8790  176.9470  135.7350 C   0  0  0  0  0  1  0  0  0  0  0  0
  193.5180  175.7280  137.6370 C   0  0  0  0  0  3  0  0  0  0  0  0
  191.5850  174.5600  137.3570 C   0  0  0  0  0  0  0  0  0  0  0  0
  192.5550  176.5870  137.5240 N   0  0  0  0  0  0  0  0  0  0  0  0
  190.5900  173.5480  137.2380 N   0  0  0  0  0  1  0  0  0  0  0  0
  193.0320  174.3130  137.5600 C   0  0  0  0  0  2  0  0  0  0  0  0
  191.3500  175.8560  137.3590 C   0  0  0  0  0  0  0  0  0  0  0  0
  188.9700  179.7360  137.4240 O   0  0  0  0  0  0  0  0  0  0  0  0
  188.6700  178.5790  137.6680 C   0  0  0  0  0  0  0  0  0  0  0  0
  187.2420  178.1510  137.4610 C   0  0  0  0  0  2  0  0  0  0  0  0
  186.3690  178.8450  138.3010 O   0  0  0  0  0  0  0  0  0  0  0  0
  185.1560  178.1660  138.1930 C   0  0  0  0  0  2  0  0  0  0  0  0
  183.3630  178.1320  139.7590 O   0  0  0  0  0  0  0  0  0  0  0  0
  184.0750  180.2490  139.1150 N   0  0  0  0  0  1  0  0  0  0  0  0
  184.1400  178.8290  139.0550 C   0  0  0  0  0  0  0  0  0  0  0  0
  190.5140  176.6010  140.2240 O   0  0  0  0  0  0  0  0  0  0  0  0
  191.0790  177.6570  140.9450 C   0  0  0  0  0  2  0  0  0  0  0  0
  191.9780  177.1120  142.0370 C   0  0  0  0  0  2  0  0  0  0  0  0
  188.1990  176.1500  143.1450 C   0  0  0  0  0  2  0  0  0  0  0  0
  187.6840  177.4190  143.8210 C   0  0  1  0  0  0  0  0  0  0  0  0
  191.6240  177.7530  143.3700 C   0  0  1  0  0  3  0  0  0  0  0  0
  190.2020  174.9090  143.0730 O   0  0  0  0  0  0  0  0  0  0  0  0
  189.7570  177.8910  144.9760 O   0  0  0  0  0  0  0  0  0  0  0  0
  189.6640  175.9540  143.4050 C   0  0  0  0  0  0  0  0  0  0  0  0
  186.4570  177.9910  143.1510 C   0  0  0  0  0  2  0  0  0  0  0  0
  186.1190  178.3540  145.5840 C   0  0  0  0  0  1  0  0  0  0  0  0
  186.3270  177.3050  144.5050 C   0  0  2  0  0  3  0  0  0  0  0  0
  188.6990  178.4860  144.2600 C   0  0  0  0  0  2  0  0  0  0  0  0
  190.4530  177.0680  144.0700 C   0  0  1  0  0  0  0  0  0  0  0  0
  191.8670  176.7510  144.4980 C   0  0  0  0  0  2  0  0  0  0  0  0
  2 20  1  0  0  0  0
  2  1  1  1  0  0  0
  3 13  1  6  0  0  0
  3  2  1  0  0  0  0
  4  5  1  6  0  0  0
  4 11  1  0  0  0  0
  4  3  1  0  0  0  0
  7 11  2  0  0  0  0
  7 10  1  0  0  0  0
  8  6  2  0  0  0  0
  9  7  1  0  0  0  0
 10  6  1  0  0  0  0
 11  8  1  0  0  0  0
 12 13  2  0  0  0  0
 14 13  1  0  0  0  0
 14 15  1  0  0  0  0
 16 15  1  0  0  0  0
 16 19  1  0  0  0  0
 19 18  1  0  0  0  0
 19 17  2  0  0  0  0
 20 21  1  0  0  0  0
 21 22  1  0  0  0  0
 23 28  1  0  0  0  0
 24 23  1  6  0  0  0
 24 32  1  0  0  0  0
 24 31  1  0  0  0  0
 25 22  1  6  0  0  0
 25 33  1  0  0  0  0
 25 34  1  0  0  0  0
 26 28  2  0  0  0  0
 28 33  1  0  0  0  0
 29 24  1  0  0  0  0
 29 31  1  0  0  0  0
 31 30  1  1  0  0  0
 32 27  1  0  0  0  0
 33 34  1  1  0  0  0
 33 27  1  0  0  0  0
M  END
>  <MODEL>
1

>  <REMARK>
 VINA RESULT:      -7.2      0.000      0.000
  Name = 
  12 active torsions:
  status: ('A' for Active; 'I' for Inactive)
    1  A    between atoms: C_3  and  C_22
    2  A    between atoms: C_7  and  C_22
    3  A    between atoms: C_7  and  O_34
    4  A    between atoms: C_9  and  O_25
    5  A    between atoms: C_9  and  C_29
    6  A    between atoms: C_10  and  C_28
    7  A    between atoms: C_10  and  C_30
    8  A    between atoms: C_21  and  O_25
    9  A    between atoms: C_21  and  C_32
   10  A    between atoms: C_24  and  C_28
   11  A    between atoms: C_24  and  O_34
   12  A    between atoms: C_28  and  C_32
                            x       y       z     vdW  Elec       q    Type
                         _______ _______ _______ _____ _____    ______ ____

>  <TORSDO>
F 12

$$$$
=
 OpenBabel11062416503D

 34 37  0  0  1  0  0  0  0  0999 V2000
  189.3920  178.7040  139.7600 O   0  0  0  0  0  1  0  0  0  0  0  0
  189.5010  177.3600  139.3880 C   0  0  1  0  0  3  0  0  0  0  0  0
  190.0160  177.2420  137.9390 C   0  0  1  0  0  3  0  0  0  0  0  0
  190.7050  175.8880  137.6470 C   0  0  1  0  0  3  0  0  0  0  0  0
  189.7520  174.8990  136.9870 C   0  0  0  0  0  1  0  0  0  0  0  0
  193.1170  176.0070  134.9430 C   0  0  0  0  0  3  0  0  0  0  0  0
  193.1200  176.3440  137.1940 C   0  0  0  0  0  0  0  0  0  0  0  0
  191.9100  175.8090  135.3700 N   0  0  0  0  0  0  0  0  0  0  0  0
  193.4610  176.6520  138.5420 N   0  0  0  0  0  1  0  0  0  0  0  0
  194.0570  176.3900  136.0460 C   0  0  0  0  0  2  0  0  0  0  0  0
  191.9130  176.0290  136.7720 C   0  0  0  0  0  0  0  0  0  0  0  0
  189.1650  177.9330  135.8540 O   0  0  0  0  0  0  0  0  0  0  0  0
  188.8880  177.5070  136.9640 C   0  0  0  0  0  0  0  0  0  0  0  0
  187.4400  177.2830  137.3040 C   0  0  0  0  0  2  0  0  0  0  0  0
  186.7350  178.4860  137.3770 O   0  0  0  0  0  0  0  0  0  0  0  0
  185.5090  178.1460  137.9470 C   0  0  0  0  0  2  0  0  0  0  0  0
  186.0040  178.7720  140.1900 O   0  0  0  0  0  0  0  0  0  0  0  0
  184.2990  179.9840  139.1770 N   0  0  0  0  0  1  0  0  0  0  0  0
  185.2880  178.9610  139.1710 C   0  0  0  0  0  0  0  0  0  0  0  0
  190.3630  176.7150  140.2780 O   0  0  0  0  0  0  0  0  0  0  0  0
  190.7880  177.7180  141.1530 C   0  0  0  0  0  2  0  0  0  0  0  0
  191.8140  177.1580  142.1180 C   0  0  0  0  0  2  0  0  0  0  0  0
  188.0670  176.1640  143.3010 C   0  0  0  0  0  2  0  0  0  0  0  0
  187.6150  177.3680  144.1270 C   0  0  1  0  0  0  0  0  0  0  0  0
  191.5380  177.6660  143.5250 C   0  0  1  0  0  3  0  0  0  0  0  0
  190.0330  174.8970  143.0090 O   0  0  0  0  0  0  0  0  0  0  0  0
  189.7490  177.6770  145.2240 O   0  0  0  0  0  0  0  0  0  0  0  0
  189.5370  175.9140  143.4700 C   0  0  0  0  0  0  0  0  0  0  0  0
  186.3740  178.0300  143.5780 C   0  0  0  0  0  2  0  0  0  0  0  0
  186.1550  178.1480  146.0490 C   0  0  0  0  0  1  0  0  0  0  0  0
  186.2870  177.2120  144.8600 C   0  0  2  0  0  3  0  0  0  0  0  0
  188.6760  178.3630  144.6240 C   0  0  0  0  0  2  0  0  0  0  0  0
  190.3830  176.9370  144.2070 C   0  0  1  0  0  0  0  0  0  0  0  0
  191.8060  176.5480  144.5330 C   0  0  0  0  0  2  0  0  0  0  0  0
  2  1  1  1  0  0  0
  2 20  1  0  0  0  0
  3 13  1  6  0  0  0
  3  2  1  0  0  0  0
  4  5  1  6  0  0  0
  4  3  1  0  0  0  0
  6  8  2  0  0  0  0
  6 10  1  0  0  0  0
  7  9  1  0  0  0  0
  8 11  1  0  0  0  0
 10  7  1  0  0  0  0
 11  7  2  0  0  0  0
 11  4  1  0  0  0  0
 12 13  2  0  0  0  0
 13 14  1  0  0  0  0
 14 15  1  0  0  0  0
 15 16  1  0  0  0  0
 16 19  1  0  0  0  0
 19 18  1  0  0  0  0
 19 17  2  0  0  0  0
 20 21  1  0  0  0  0
 21 22  1  0  0  0  0
 23 28  1  0  0  0  0
 24 23  1  6  0  0  0
 24 32  1  0  0  0  0
 24 31  1  0  0  0  0
 25 22  1  6  0  0  0
 25 33  1  0  0  0  0
 25 34  1  0  0  0  0
 26 28  2  0  0  0  0
 28 33  1  0  0  0  0
 29 24  1  0  0  0  0
 29 31  1  0  0  0  0
 31 30  1  1  0  0  0
 32 27  1  0  0  0  0
 33 34  1  1  0  0  0
 33 27  1  0  0  0  0
M  END
>  <MODEL>
2

>  <REMARK>
 VINA RESULT:      -6.9      1.155      1.482
  Name = 
  12 active torsions:
  status: ('A' for Active; 'I' for Inactive)
    1  A    between atoms: C_3  and  C_22
    2  A    between atoms: C_7  and  C_22
    3  A    between atoms: C_7  and  O_34
    4  A    between atoms: C_9  and  O_25
    5  A    between atoms: C_9  and  C_29
    6  A    between atoms: C_10  and  C_28
    7  A    between atoms: C_10  and  C_30
    8  A    between atoms: C_21  and  O_25
    9  A    between atoms: C_21  and  C_32
   10  A    between atoms: C_24  and  C_28
   11  A    between atoms: C_24  and  O_34
   12  A    between atoms: C_28  and  C_32
                            x       y       z     vdW  Elec       q    Type
                         _______ _______ _______ _____ _____    ______ ____

>  <TORSDO>
F 12

$$$$
=
 OpenBabel11062416503D

 34 37  0  0  1  0  0  0  0  0999 V2000
  188.2090  178.9320  139.6900 O   0  0  0  0  0  1  0  0  0  0  0  0
  188.0930  177.5740  139.3760 C   0  0  1  0  0  3  0  0  0  0  0  0
  187.9090  177.3860  137.8560 C   0  0  1  0  0  3  0  0  0  0  0  0
  186.6910  178.1540  137.2910 C   0  0  1  0  0  3  0  0  0  0  0  0
  186.6410  178.0940  135.7690 C   0  0  0  0  0  1  0  0  0  0  0  0
  183.7010  176.2780  138.1150 C   0  0  0  0  0  3  0  0  0  0  0  0
  184.5900  178.3080  138.6350 C   0  0  0  0  0  0  0  0  0  0  0  0
  184.8310  176.3810  137.4900 N   0  0  0  0  0  0  0  0  0  0  0  0
  184.8630  179.5950  139.1780 N   0  0  0  0  0  1  0  0  0  0  0  0
  183.3950  177.4870  138.9450 C   0  0  0  0  0  2  0  0  0  0  0  0
  185.3860  177.6440  137.8230 C   0  0  0  0  0  0  0  0  0  0  0  0
  189.4820  178.9430  137.0480 O   0  0  0  0  0  0  0  0  0  0  0  0
  189.1830  177.7620  137.1280 C   0  0  0  0  0  0  0  0  0  0  0  0
  190.0920  176.7480  136.4870 C   0  0  0  0  0  2  0  0  0  0  0  0
  191.0710  176.2980  137.3750 O   0  0  0  0  0  0  0  0  0  0  0  0
  192.1240  175.8820  136.5610 C   0  0  0  0  0  2  0  0  0  0  0  0
  194.3860  176.5950  136.3440 O   0  0  0  0  0  0  0  0  0  0  0  0
  193.5150  176.7020  138.4970 N   0  0  0  0  0  1  0  0  0  0  0  0
  193.4070  176.3950  137.1110 C   0  0  0  0  0  0  0  0  0  0  0  0
  189.2350  176.9080  139.8260 O   0  0  0  0  0  0  0  0  0  0  0  0
  190.0250  177.9060  140.4050 C   0  0  0  0  0  2  0  0  0  0  0  0
  191.1320  177.2740  141.2260 C   0  0  0  0  0  2  0  0  0  0  0  0
  187.9090  176.1520  143.4150 C   0  0  0  0  0  2  0  0  0  0  0  0
  187.5730  177.3980  144.2320 C   0  0  1  0  0  0  0  0  0  0  0  0
  191.1740  177.9000  142.6120 C   0  0  1  0  0  3  0  0  0  0  0  0
  189.8450  174.9980  142.7230 O   0  0  0  0  0  0  0  0  0  0  0  0
  189.8780  177.9590  144.7100 O   0  0  0  0  0  0  0  0  0  0  0  0
  189.3920  176.0190  143.2160 C   0  0  0  0  0  0  0  0  0  0  0  0
  186.1790  177.9180  143.9730 C   0  0  0  0  0  2  0  0  0  0  0  0
  186.5810  178.2660  146.3990 C   0  0  0  0  0  1  0  0  0  0  0  0
  186.4930  177.2270  145.2940 C   0  0  2  0  0  3  0  0  0  0  0  0
  188.6300  178.5070  144.3570 C   0  0  0  0  0  2  0  0  0  0  0  0
  190.2990  177.1660  143.6250 C   0  0  1  0  0  0  0  0  0  0  0  0
  191.7880  176.9090  143.6000 C   0  0  0  0  0  2  0  0  0  0  0  0
  2  1  1  6  0  0  0
  2 20  1  0  0  0  0
  3 13  1  6  0  0  0
  3  2  1  0  0  0  0
  4  5  1  6  0  0  0
  4 11  1  0  0  0  0
  4  3  1  0  0  0  0
  6 10  1  0  0  0  0
  7 10  1  0  0  0  0
  7  9  1  0  0  0  0
  8 11  1  0  0  0  0
  8  6  2  0  0  0  0
 11  7  2  0  0  0  0
 12 13  2  0  0  0  0
 14 13  1  0  0  0  0
 14 15  1  0  0  0  0
 16 19  1  0  0  0  0
 16 15  1  0  0  0  0
 17 19  2  0  0  0  0
 19 18  1  0  0  0  0
 20 21  1  0  0  0  0
 21 22  1  0  0  0  0
 24 23  1  6  0  0  0
 24 32  1  0  0  0  0
 24 31  1  0  0  0  0
 25 22  1  6  0  0  0
 25 34  1  0  0  0  0
 25 33  1  0  0  0  0
 26 28  2  0  0  0  0
 28 23  1  0  0  0  0
 28 33  1  0  0  0  0
 29 24  1  0  0  0  0
 29 31  1  0  0  0  0
 31 30  1  1  0  0  0
 32 27  1  0  0  0  0
 33 34  1  1  0  0  0
 33 27  1  0  0  0  0
M  END
>  <MODEL>
3

>  <REMARK>
 VINA RESULT:      -6.7      1.628      5.181
  Name = 
  12 active torsions:
  status: ('A' for Active; 'I' for Inactive)
    1  A    between atoms: C_3  and  C_22
    2  A    between atoms: C_7  and  C_22
    3  A    between atoms: C_7  and  O_34
    4  A    between atoms: C_9  and  O_25
    5  A    between atoms: C_9  and  C_29
    6  A    between atoms: C_10  and  C_28
    7  A    between atoms: C_10  and  C_30
    8  A    between atoms: C_21  and  O_25
    9  A    between atoms: C_21  and  C_32
   10  A    between atoms: C_24  and  C_28
   11  A    between atoms: C_24  and  O_34
   12  A    between atoms: C_28  and  C_32
                            x       y       z     vdW  Elec       q    Type
                         _______ _______ _______ _____ _____    ______ ____

>  <TORSDO>
F 12

$$$$
=
 OpenBabel11062416503D

 34 37  0  0  1  0  0  0  0  0999 V2000
  190.4150  175.1240  142.8120 O   0  0  0  0  0  1  0  0  0  0  0  0
  189.6580  176.1900  142.3130 C   0  0  1  0  0  3  0  0  0  0  0  0
  188.8090  176.8210  143.4350 C   0  0  1  0  0  3  0  0  0  0  0  0
  189.6610  177.5020  144.5320 C   0  0  1  0  0  3  0  0  0  0  0  0
  190.0120  178.9380  144.1660 C   0  0  0  0  0  1  0  0  0  0  0  0
  187.4120  177.8510  147.3530 C   0  0  0  0  0  3  0  0  0  0  0  0
  189.5380  177.1180  146.9980 C   0  0  0  0  0  0  0  0  0  0  0  0
  187.6630  177.9770  146.0890 N   0  0  0  0  0  0  0  0  0  0  0  0
  190.8470  176.5720  147.1230 N   0  0  0  0  0  1  0  0  0  0  0  0
  188.5690  177.2710  148.1100 C   0  0  0  0  0  2  0  0  0  0  0  0
  188.9850  177.5110  145.8690 C   0  0  0  0  0  0  0  0  0  0  0  0
  188.1730  178.5630  141.9830 O   0  0  0  0  0  0  0  0  0  0  0  0
  187.8000  177.7830  142.8450 C   0  0  0  0  0  0  0  0  0  0  0  0
  186.3610  177.8330  143.2810 C   0  0  0  0  0  2  0  0  0  0  0  0
  185.6700  178.8770  142.6630 O   0  0  0  0  0  0  0  0  0  0  0  0
  184.5290  178.2820  142.1290 C   0  0  0  0  0  2  0  0  0  0  0  0
  185.1120  179.5620  140.2070 O   0  0  0  0  0  0  0  0  0  0  0  0
  182.9730  178.6520  140.1800 N   0  0  0  0  0  1  0  0  0  0  0  0
  184.2330  178.8820  140.8000 C   0  0  0  0  0  0  0  0  0  0  0  0
  190.5240  177.1320  141.7520 O   0  0  0  0  0  0  0  0  0  0  0  0
  190.8460  176.6170  140.4940 C   0  0  0  0  0  2  0  0  0  0  0  0
  190.0060  177.2940  139.4290 C   0  0  0  0  0  2  0  0  0  0  0  0
  186.6950  178.3570  137.3470 C   0  0  0  0  0  2  0  0  0  0  0  0
  186.0780  177.0210  136.9370 C   0  0  1  0  0  0  0  0  0  0  0  0
  189.7670  176.3400  138.2690 C   0  0  1  0  0  3  0  0  0  0  0  0
  188.8490  179.3020  137.5030 O   0  0  0  0  0  0  0  0  0  0  0  0
  188.1940  175.9740  136.4050 O   0  0  0  0  0  0  0  0  0  0  0  0
  188.1940  178.2810  137.3550 C   0  0  0  0  0  0  0  0  0  0  0  0
  184.6760  176.8290  137.4630 C   0  0  0  0  0  2  0  0  0  0  0  0
  184.6820  175.8150  135.1970 C   0  0  0  0  0  1  0  0  0  0  0  0
  184.8940  177.0990  135.9800 C   0  0  2  0  0  3  0  0  0  0  0  0
  186.9440  175.7530  137.0160 C   0  0  0  0  0  2  0  0  0  0  0  0
  188.8690  176.9320  137.1860 C   0  0  1  0  0  0  0  0  0  0  0  0
  190.3670  176.9290  136.9930 C   0  0  0  0  0  2  0  0  0  0  0  0
  2  1  1  1  0  0  0
  2  3  1  0  0  0  0
  3 13  1  6  0  0  0
  3  4  1  0  0  0  0
  4  5  1  6  0  0  0
  4 11  1  0  0  0  0
  6 10  1  0  0  0  0
  7  9  1  0  0  0  0
  7 10  1  0  0  0  0
  8  6  2  0  0  0  0
 11  8  1  0  0  0  0
 11  7  2  0  0  0  0
 12 13  2  0  0  0  0
 13 14  1  0  0  0  0
 15 14  1  0  0  0  0
 16 15  1  0  0  0  0
 17 19  2  0  0  0  0
 18 19  1  0  0  0  0
 19 16  1  0  0  0  0
 20  2  1  0  0  0  0
 21 20  1  0  0  0  0
 22 21  1  0  0  0  0
 23 28  1  0  0  0  0
 24 32  1  6  0  0  0
 24 23  1  0  0  0  0
 24 29  1  0  0  0  0
 25 22  1  1  0  0  0
 27 32  1  0  0  0  0
 27 33  1  0  0  0  0
 28 26  2  0  0  0  0
 31 30  1  6  0  0  0
 31 24  1  0  0  0  0
 31 29  1  0  0  0  0
 33 34  1  6  0  0  0
 33 28  1  0  0  0  0
 33 25  1  0  0  0  0
 34 25  1  0  0  0  0
M  END
>  <MODEL>
4

>  <REMARK>
 VINA RESULT:      -6.6      2.951      7.070
  Name = 
  12 active torsions:
  status: ('A' for Active; 'I' for Inactive)
    1  A    between atoms: C_3  and  C_22
    2  A    between atoms: C_7  and  C_22
    3  A    between atoms: C_7  and  O_34
    4  A    between atoms: C_9  and  O_25
    5  A    between atoms: C_9  and  C_29
    6  A    between atoms: C_10  and  C_28
    7  A    between atoms: C_10  and  C_30
    8  A    between atoms: C_21  and  O_25
    9  A    between atoms: C_21  and  C_32
   10  A    between atoms: C_24  and  C_28
   11  A    between atoms: C_24  and  O_34
   12  A    between atoms: C_28  and  C_32
                            x       y       z     vdW  Elec       q    Type
                         _______ _______ _______ _____ _____    ______ ____

>  <TORSDO>
F 12

$$$$
=
 OpenBabel11062416503D

 34 37  0  0  1  0  0  0  0  0999 V2000
  187.9320  175.6960  143.2350 O   0  0  0  0  0  1  0  0  0  0  0  0
  188.0580  177.0210  142.8050 C   0  0  1  0  0  3  0  0  0  0  0  0
  188.0710  177.9800  144.0130 C   0  0  1  0  0  3  0  0  0  0  0  0
  186.9560  177.6770  145.0430 C   0  0  1  0  0  3  0  0  0  0  0  0
  187.2910  178.2370  146.4200 C   0  0  0  0  0  1  0  0  0  0  0  0
  184.0500  178.9640  143.3000 C   0  0  0  0  0  3  0  0  0  0  0  0
  184.6410  178.5210  145.4530 C   0  0  0  0  0  0  0  0  0  0  0  0
  185.2600  178.5020  143.2870 N   0  0  0  0  0  0  0  0  0  0  0  0
  184.6700  178.3340  146.8640 N   0  0  0  0  0  1  0  0  0  0  0  0
  183.4790  179.0280  144.6840 C   0  0  0  0  0  2  0  0  0  0  0  0
  185.6220  178.2190  144.6290 C   0  0  0  0  0  0  0  0  0  0  0  0
  190.1850  178.9190  144.4600 O   0  0  0  0  0  0  0  0  0  0  0  0
  189.4380  177.9750  144.6650 C   0  0  0  0  0  0  0  0  0  0  0  0
  189.9250  176.8540  145.5430 C   0  0  0  0  0  2  0  0  0  0  0  0
  191.2040  177.1080  146.0430 O   0  0  0  0  0  0  0  0  0  0  0  0
  191.1720  176.6390  147.3550 C   0  0  0  0  0  2  0  0  0  0  0  0
  192.6840  174.8920  146.7770 O   0  0  0  0  0  0  0  0  0  0  0  0
  193.1720  176.0100  148.7550 N   0  0  0  0  0  1  0  0  0  0  0  0
  192.3660  175.7870  147.6040 C   0  0  0  0  0  0  0  0  0  0  0  0
  189.2310  177.1440  142.0580 O   0  0  0  0  0  0  0  0  0  0  0  0
  188.8070  177.1540  140.7260 C   0  0  0  0  0  2  0  0  0  0  0  0
  189.9950  177.3680  139.8090 C   0  0  0  0  0  2  0  0  0  0  0  0
  186.9510  178.3870  137.3340 C   0  0  0  0  0  2  0  0  0  0  0  0
  186.4130  177.0430  136.8470 C   0  0  1  0  0  0  0  0  0  0  0  0
  189.9180  176.4160  138.6260 C   0  0  1  0  0  3  0  0  0  0  0  0
  189.0530  179.3660  137.7600 O   0  0  0  0  0  0  0  0  0  0  0  0
  188.5960  176.0330  136.5790 O   0  0  0  0  0  0  0  0  0  0  0  0
  188.4390  178.3360  137.5280 C   0  0  0  0  0  0  0  0  0  0  0  0
  184.9600  176.8250  137.1940 C   0  0  0  0  0  2  0  0  0  0  0  0
  185.2640  175.8220  134.9430 C   0  0  0  0  0  1  0  0  0  0  0  0
  185.3560  177.1060  135.7510 C   0  0  2  0  0  3  0  0  0  0  0  0
  187.2840  175.7890  137.0290 C   0  0  0  0  0  2  0  0  0  0  0  0
  189.1520  176.9980  137.4400 C   0  0  1  0  0  0  0  0  0  0  0  0
  190.6630  177.0210  137.4360 C   0  0  0  0  0  2  0  0  0  0  0  0
  2  1  1  1  0  0  0
  2  3  1  0  0  0  0
  3 13  1  1  0  0  0
  3  4  1  0  0  0  0
  4  5  1  1  0  0  0
  6 10  1  0  0  0  0
  7  9  1  0  0  0  0
  8  6  2  0  0  0  0
  8 11  1  0  0  0  0
 10  7  1  0  0  0  0
 11  4  1  0  0  0  0
 11  7  2  0  0  0  0
 12 13  2  0  0  0  0
 13 14  1  0  0  0  0
 14 15  1  0  0  0  0
 15 16  1  0  0  0  0
 16 19  1  0  0  0  0
 17 19  2  0  0  0  0
 19 18  1  0  0  0  0
 20  2  1  0  0  0  0
 21 20  1  0  0  0  0
 22 21  1  0  0  0  0
 23 28  1  0  0  0  0
 24 32  1  1  0  0  0
 24 29  1  0  0  0  0
 24 23  1  0  0  0  0
 25 22  1  1  0  0  0
 27 32  1  0  0  0  0
 27 33  1  0  0  0  0
 28 26  2  0  0  0  0
 31 30  1  6  0  0  0
 31 24  1  0  0  0  0
 31 29  1  0  0  0  0
 33 34  1  6  0  0  0
 33 28  1  0  0  0  0
 33 25  1  0  0  0  0
 34 25  1  0  0  0  0
M  END
>  <MODEL>
5

>  <REMARK>
 VINA RESULT:      -6.5      3.204      8.731
  Name = 
  12 active torsions:
  status: ('A' for Active; 'I' for Inactive)
    1  A    between atoms: C_3  and  C_22
    2  A    between atoms: C_7  and  C_22
    3  A    between atoms: C_7  and  O_34
    4  A    between atoms: C_9  and  O_25
    5  A    between atoms: C_9  and  C_29
    6  A    between atoms: C_10  and  C_28
    7  A    between atoms: C_10  and  C_30
    8  A    between atoms: C_21  and  O_25
    9  A    between atoms: C_21  and  C_32
   10  A    between atoms: C_24  and  C_28
   11  A    between atoms: C_24  and  O_34
   12  A    between atoms: C_28  and  C_32
                            x       y       z     vdW  Elec       q    Type
                         _______ _______ _______ _____ _____    ______ ____

>  <TORSDO>
F 12

$$$$
=
 OpenBabel11062416503D

 34 37  0  0  1  0  0  0  0  0999 V2000
  185.7680  179.8080  141.7290 O   0  0  0  0  0  1  0  0  0  0  0  0
  186.0380  178.4540  141.9560 C   0  0  1  0  0  3  0  0  0  0  0  0
  187.3000  178.2950  142.8290 C   0  0  1  0  0  3  0  0  0  0  0  0
  187.2220  177.0900  143.7960 C   0  0  1  0  0  3  0  0  0  0  0  0
  188.1090  175.9390  143.3370 C   0  0  0  0  0  1  0  0  0  0  0  0
  188.8800  177.6820  146.9640 C   0  0  0  0  0  3  0  0  0  0  0  0
  186.7820  177.9190  146.1120 C   0  0  0  0  0  0  0  0  0  0  0  0
  188.9130  177.2900  145.7300 N   0  0  0  0  0  0  0  0  0  0  0  0
  185.4070  178.2160  145.8970 N   0  0  0  0  0  1  0  0  0  0  0  0
  187.5180  178.1530  147.3770 C   0  0  0  0  0  2  0  0  0  0  0  0
  187.6060  177.4460  145.1990 C   0  0  0  0  0  0  0  0  0  0  0  0
  189.6100  178.5320  142.4320 O   0  0  0  0  0  0  0  0  0  0  0  0
  188.5320  178.2190  141.9520 C   0  0  0  0  0  0  0  0  0  0  0  0
  188.4880  177.7890  140.5100 C   0  0  0  0  0  2  0  0  0  0  0  0
  188.6140  178.8760  139.6430 O   0  0  0  0  0  0  0  0  0  0  0  0
  189.3670  178.3930  138.5740 C   0  0  0  0  0  2  0  0  0  0  0  0
  187.6270  179.3180  137.2360 O   0  0  0  0  0  0  0  0  0  0  0  0
  188.8820  177.6500  136.2140 N   0  0  0  0  0  1  0  0  0  0  0  0
  188.5640  178.4810  137.3240 C   0  0  0  0  0  0  0  0  0  0  0  0
  184.9280  177.8710  142.5720 O   0  0  0  0  0  0  0  0  0  0  0  0
  183.8280  178.5550  142.0480 C   0  0  0  0  0  2  0  0  0  0  0  0
  183.1420  177.7010  141.0010 C   0  0  0  0  0  2  0  0  0  0  0  0
  183.7420  175.0110  138.0290 C   0  0  0  0  0  2  0  0  0  0  0  0
  184.6420  175.7540  137.0420 C   0  0  1  0  0  0  0  0  0  0  0  0
  183.1960  178.3930  139.6470 C   0  0  1  0  0  3  0  0  0  0  0  0
  181.8750  175.4970  139.3830 O   0  0  0  0  0  0  0  0  0  0  0  0
  183.4800  177.8650  137.2540 O   0  0  0  0  0  0  0  0  0  0  0  0
  182.7720  175.9480  138.6870 C   0  0  0  0  0  0  0  0  0  0  0  0
  185.9640  175.0620  136.8100 C   0  0  0  0  0  2  0  0  0  0  0  0
  185.3080  176.0020  134.6080 C   0  0  0  0  0  1  0  0  0  0  0  0
  184.9040  175.0470  135.7170 C   0  0  2  0  0  3  0  0  0  0  0  0
  184.7580  177.2820  137.1550 C   0  0  0  0  0  2  0  0  0  0  0  0
  182.9310  177.4440  138.4810 C   0  0  1  0  0  0  0  0  0  0  0  0
  181.8190  178.3320  138.9880 C   0  0  0  0  0  2  0  0  0  0  0  0
  2  1  1  1  0  0  0
  2 20  1  0  0  0  0
  2  3  1  0  0  0  0
  3 13  1  6  0  0  0
  3  4  1  0  0  0  0
  4  5  1  6  0  0  0
  4 11  1  0  0  0  0
  6 10  1  0  0  0  0
  7 10  1  0  0  0  0
  8  6  2  0  0  0  0
  9  7  1  0  0  0  0
 11  8  1  0  0  0  0
 11  7  2  0  0  0  0
 13 12  2  0  0  0  0
 14 13  1  0  0  0  0
 15 14  1  0  0  0  0
 16 15  1  0  0  0  0
 17 19  2  0  0  0  0
 18 19  1  0  0  0  0
 19 16  1  0  0  0  0
 21 20  1  0  0  0  0
 22 21  1  0  0  0  0
 23 28  1  0  0  0  0
 24 29  1  1  0  0  0
 24 32  1  0  0  0  0
 24 23  1  0  0  0  0
 25 22  1  1  0  0  0
 27 33  1  0  0  0  0
 28 26  2  0  0  0  0
 31 30  1  6  0  0  0
 31 29  1  0  0  0  0
 31 24  1  0  0  0  0
 32 27  1  0  0  0  0
 33 28  1  0  0  0  0
 33 34  1  6  0  0  0
 33 25  1  0  0  0  0
 34 25  1  0  0  0  0
M  END
>  <MODEL>
6

>  <REMARK>
 VINA RESULT:      -6.5      3.062      7.961
  Name = 
  12 active torsions:
  status: ('A' for Active; 'I' for Inactive)
    1  A    between atoms: C_3  and  C_22
    2  A    between atoms: C_7  and  C_22
    3  A    between atoms: C_7  and  O_34
    4  A    between atoms: C_9  and  O_25
    5  A    between atoms: C_9  and  C_29
    6  A    between atoms: C_10  and  C_28
    7  A    between atoms: C_10  and  C_30
    8  A    between atoms: C_21  and  O_25
    9  A    between atoms: C_21  and  C_32
   10  A    between atoms: C_24  and  C_28
   11  A    between atoms: C_24  and  O_34
   12  A    between atoms: C_28  and  C_32
                            x       y       z     vdW  Elec       q    Type
                         _______ _______ _______ _____ _____    ______ ____

>  <TORSDO>
F 12

$$$$
=
 OpenBabel11062416503D

 34 37  0  0  1  0  0  0  0  0999 V2000
  193.8120  176.8120  139.6100 O   0  0  0  0  0  1  0  0  0  0  0  0
  192.6610  176.7680  138.8160 C   0  0  1  0  0  3  0  0  0  0  0  0
  192.6900  175.5310  137.8940 C   0  0  1  0  0  3  0  0  0  0  0  0
  191.8330  175.7050  136.6180 C   0  0  1  0  0  3  0  0  0  0  0  0
  192.4950  175.0680  135.4020 C   0  0  0  0  0  1  0  0  0  0  0  0
  188.9070  173.6460  137.1970 C   0  0  0  0  0  3  0  0  0  0  0  0
  189.3400  175.7540  136.4580 C   0  0  0  0  0  0  0  0  0  0  0  0
  190.1920  173.8090  137.2120 N   0  0  0  0  0  2  0  0  0  0  0  0
  189.2540  177.0990  135.9980 N   0  0  0  0  0  1  0  0  0  0  0  0
  188.1820  174.8690  136.7270 C   0  0  0  0  0  3  0  0  0  0  0  0
  190.4580  175.1270  136.7590 C   0  0  0  0  0  0  0  0  0  0  0  0
  194.8080  175.9980  136.9730 O   0  0  0  0  0  0  0  0  0  0  0  0
  194.1210  175.1720  137.5530 C   0  0  0  0  0  0  0  0  0  0  0  0
  194.7320  173.8370  137.8820 C   0  0  0  0  0  2  0  0  0  0  0  0
  195.4300  173.8730  139.0910 O   0  0  0  0  0  0  0  0  0  0  0  0
  196.7750  173.9060  138.7250 C   0  0  0  0  0  2  0  0  0  0  0  0
  198.4180  175.6270  138.8120 O   0  0  0  0  0  0  0  0  0  0  0  0
  196.9330  175.5840  140.5990 N   0  0  0  0  0  1  0  0  0  0  0  0
  197.4360  175.0710  139.3710 C   0  0  0  0  0  0  0  0  0  0  0  0
  191.5400  176.7430  139.6490 O   0  0  0  0  0  0  0  0  0  0  0  0
  191.9060  177.5010  140.7640 C   0  0  0  0  0  2  0  0  0  0  0  0
  190.7350  177.6100  141.7200 C   0  0  0  0  0  2  0  0  0  0  0  0
  187.7180  176.7740  144.2950 C   0  0  0  0  0  2  0  0  0  0  0  0
  188.0220  177.6500  145.5080 C   0  0  1  0  0  0  0  0  0  0  0  0
  191.2330  177.6120  143.1570 C   0  0  1  0  0  3  0  0  0  0  0  0
  188.9220  175.4430  142.7670 O   0  0  0  0  0  0  0  0  0  0  0  0
  190.4080  177.2550  145.4540 O   0  0  0  0  0  0  0  0  0  0  0  0
  188.9820  176.2830  143.6510 C   0  0  0  0  0  0  0  0  0  0  0  0
  186.9140  178.6270  145.8260 C   0  0  0  0  0  2  0  0  0  0  0  0
  187.7960  177.8790  148.0240 C   0  0  0  0  0  1  0  0  0  0  0  0
  187.1410  177.4230  146.7310 C   0  0  2  0  0  3  0  0  0  0  0  0
  189.4300  178.2490  145.6530 C   0  0  0  0  0  2  0  0  0  0  0  0
  190.3140  176.8500  144.1090 C   0  0  1  0  0  0  0  0  0  0  0  0
  191.5640  176.1830  143.5840 C   0  0  0  0  0  2  0  0  0  0  0  0
  2  1  1  1  0  0  0
  2 20  1  0  0  0  0
  3 13  1  6  0  0  0
  3  2  1  0  0  0  0
  4  5  1  6  0  0  0
  4 11  1  0  0  0  0
  4  3  1  0  0  0  0
  6  8  1  0  0  0  0
  7 10  1  0  0  0  0
  7 11  2  0  0  0  0
  9  7  1  0  0  0  0
 10  6  2  0  0  0  0
 11  8  1  0  0  0  0
 12 13  2  0  0  0  0
 13 14  1  0  0  0  0
 14 15  1  0  0  0  0
 16 15  1  0  0  0  0
 16 19  1  0  0  0  0
 17 19  2  0  0  0  0
 19 18  1  0  0  0  0
 20 21  1  0  0  0  0
 21 22  1  0  0  0  0
 24 23  1  6  0  0  0
 24 32  1  0  0  0  0
 24 29  1  0  0  0  0
 24 31  1  0  0  0  0
 25 22  1  6  0  0  0
 25 34  1  0  0  0  0
 25 33  1  0  0  0  0
 26 28  2  0  0  0  0
 27 32  1  0  0  0  0
 28 33  1  0  0  0  0
 28 23  1  0  0  0  0
 29 31  1  0  0  0  0
 31 30  1  1  0  0  0
 33 34  1  1  0  0  0
 33 27  1  0  0  0  0
M  END
>  <MODEL>
7

>  <REMARK>
 VINA RESULT:      -6.4      2.939      6.022
  Name = 
  12 active torsions:
  status: ('A' for Active; 'I' for Inactive)
    1  A    between atoms: C_3  and  C_22
    2  A    between atoms: C_7  and  C_22
    3  A    between atoms: C_7  and  O_34
    4  A    between atoms: C_9  and  O_25
    5  A    between atoms: C_9  and  C_29
    6  A    between atoms: C_10  and  C_28
    7  A    between atoms: C_10  and  C_30
    8  A    between atoms: C_21  and  O_25
    9  A    between atoms: C_21  and  C_32
   10  A    between atoms: C_24  and  C_28
   11  A    between atoms: C_24  and  O_34
   12  A    between atoms: C_28  and  C_32
                            x       y       z     vdW  Elec       q    Type
                         _______ _______ _______ _____ _____    ______ ____

>  <TORSDO>
F 12

$$$$
=
 OpenBabel11062416503D

 34 37  0  0  1  0  0  0  0  0999 V2000
  188.2670  175.6840  143.1840 O   0  0  0  0  0  1  0  0  0  0  0  0
  187.7220  176.9310  143.5080 C   0  0  1  0  0  3  0  0  0  0  0  0
  187.6840  177.1210  145.0380 C   0  0  1  0  0  3  0  0  0  0  0  0
  188.8550  177.9780  145.5740 C   0  0  1  0  0  3  0  0  0  0  0  0
  188.4240  178.8610  146.7380 C   0  0  0  0  0  1  0  0  0  0  0  0
  191.2360  175.8760  147.3210 C   0  0  0  0  0  3  0  0  0  0  0  0
  191.1310  176.9750  145.3300 C   0  0  0  0  0  0  0  0  0  0  0  0
  190.0880  176.4760  147.2650 N   0  0  0  0  0  2  0  0  0  0  0  0
  191.3770  177.4970  144.0290 N   0  0  0  0  0  1  0  0  0  0  0  0
  192.0570  176.0990  146.0880 C   0  0  0  0  0  3  0  0  0  0  0  0
  190.0230  177.1520  146.0200 C   0  0  0  0  0  0  0  0  0  0  0  0
  185.8150  177.2560  146.4660 O   0  0  0  0  0  0  0  0  0  0  0  0
  186.3460  177.6930  145.4570 C   0  0  0  0  0  0  0  0  0  0  0  0
  185.6330  178.7660  144.6800 C   0  0  0  0  0  2  0  0  0  0  0  0
  184.6950  178.2260  143.7970 O   0  0  0  0  0  0  0  0  0  0  0  0
  183.4690  178.7310  144.2290 C   0  0  0  0  0  2  0  0  0  0  0  0
  182.9550  178.6140  141.9070 O   0  0  0  0  0  0  0  0  0  0  0  0
  181.3660  179.6870  143.2200 N   0  0  0  0  0  1  0  0  0  0  0  0
  182.6060  179.0100  143.0500 C   0  0  0  0  0  0  0  0  0  0  0  0
  188.4880  177.9290  142.9000 O   0  0  0  0  0  0  0  0  0  0  0  0
  187.7930  178.2490  141.7310 C   0  0  0  0  0  2  0  0  0  0  0  0
  188.7730  178.5310  140.6100 C   0  0  0  0  0  2  0  0  0  0  0  0
  187.2560  178.5830  136.8510 C   0  0  0  0  0  2  0  0  0  0  0  0
  186.8280  177.1370  136.6110 C   0  0  1  0  0  0  0  0  0  0  0  0
  189.1070  177.2420  139.8730 C   0  0  1  0  0  3  0  0  0  0  0  0
  189.0630  179.7170  137.8550 O   0  0  0  0  0  0  0  0  0  0  0  0
  188.7710  176.1680  137.6780 O   0  0  0  0  0  0  0  0  0  0  0  0
  188.4930  178.6480  137.7000 C   0  0  0  0  0  0  0  0  0  0  0  0
  185.3540  176.9970  136.3150 C   0  0  0  0  0  2  0  0  0  0  0  0
  186.4860  175.3240  134.8700 C   0  0  0  0  0  1  0  0  0  0  0  0
  186.3690  176.8030  135.1970 C   0  0  2  0  0  3  0  0  0  0  0  0
  187.3760  176.0410  137.5400 C   0  0  0  0  0  2  0  0  0  0  0  0
  189.0080  177.3790  138.3560 C   0  0  1  0  0  0  0  0  0  0  0  0
  190.3610  177.4490  139.0250 C   0  0  0  0  0  2  0  0  0  0  0  0
  2  1  1  1  0  0  0
  2  3  1  0  0  0  0
  3 13  1  6  0  0  0
  3  4  1  0  0  0  0
  4 11  1  0  0  0  0
  4  5  1  1  0  0  0
  7 11  2  0  0  0  0
  7 10  1  0  0  0  0
  8  6  1  0  0  0  0
  9  7  1  0  0  0  0
 10  6  2  0  0  0  0
 11  8  1  0  0  0  0
 13 12  2  0  0  0  0
 14 13  1  0  0  0  0
 15 16  1  0  0  0  0
 15 14  1  0  0  0  0
 17 19  2  0  0  0  0
 19 18  1  0  0  0  0
 19 16  1  0  0  0  0
 20  2  1  0  0  0  0
 21 20  1  0  0  0  0
 22 21  1  0  0  0  0
 23 28  1  0  0  0  0
 24 29  1  1  0  0  0
 24 23  1  0  0  0  0
 24 32  1  0  0  0  0
 25 22  1  1  0  0  0
 27 33  1  0  0  0  0
 28 26  2  0  0  0  0
 28 33  1  0  0  0  0
 31 30  1  1  0  0  0
 31 29  1  0  0  0  0
 31 24  1  0  0  0  0
 32 27  1  0  0  0  0
 33 34  1  6  0  0  0
 33 25  1  0  0  0  0
 34 25  1  0  0  0  0
M  END
>  <MODEL>
8

>  <REMARK>
 VINA RESULT:      -6.4      3.112      7.278
  Name = 
  12 active torsions:
  status: ('A' for Active; 'I' for Inactive)
    1  A    between atoms: C_3  and  C_22
    2  A    between atoms: C_7  and  C_22
    3  A    between atoms: C_7  and  O_34
    4  A    between atoms: C_9  and  O_25
    5  A    between atoms: C_9  and  C_29
    6  A    between atoms: C_10  and  C_28
    7  A    between atoms: C_10  and  C_30
    8  A    between atoms: C_21  and  O_25
    9  A    between atoms: C_21  and  C_32
   10  A    between atoms: C_24  and  C_28
   11  A    between atoms: C_24  and  O_34
   12  A    between atoms: C_28  and  C_32
                            x       y       z     vdW  Elec       q    Type
                         _______ _______ _______ _____ _____    ______ ____

>  <TORSDO>
F 12

$$$$
=
 OpenBabel11062416503D

 34 37  0  0  1  0  0  0  0  0999 V2000
  185.9420  179.3870  141.5010 O   0  0  0  0  0  1  0  0  0  0  0  0
  186.3340  178.5500  140.4510 C   0  0  1  0  0  3  0  0  0  0  0  0
  185.4710  178.8150  139.2000 C   0  0  1  0  0  3  0  0  0  0  0  0
  185.5940  177.7040  138.1300 C   0  0  1  0  0  3  0  0  0  0  0  0
  184.4670  177.7760  137.1070 C   0  0  0  0  0  1  0  0  0  0  0  0
  188.6440  178.6130  136.3960 C   0  0  0  0  0  3  0  0  0  0  0  0
  187.5710  176.6940  136.9830 C   0  0  0  0  0  0  0  0  0  0  0  0
  187.5610  178.9470  137.0230 N   0  0  0  0  0  2  0  0  0  0  0  0
  187.1930  175.3410  137.2150 N   0  0  0  0  0  1  0  0  0  0  0  0
  188.8110  177.1270  136.2950 C   0  0  0  0  0  3  0  0  0  0  0  0
  186.8980  177.7490  137.3950 C   0  0  0  0  0  0  0  0  0  0  0  0
  183.5240  180.1260  139.3930 O   0  0  0  0  0  0  0  0  0  0  0  0
  184.0280  179.0350  139.6020 C   0  0  0  0  0  0  0  0  0  0  0  0
  183.1890  177.9730  140.2610 C   0  0  0  0  0  2  0  0  0  0  0  0
  182.4740  178.4820  141.3480 O   0  0  0  0  0  0  0  0  0  0  0  0
  183.3400  178.3580  142.4330 C   0  0  0  0  0  2  0  0  0  0  0  0
  183.4220  179.7540  144.3610 O   0  0  0  0  0  0  0  0  0  0  0  0
  181.3520  178.7940  143.9210 N   0  0  0  0  0  1  0  0  0  0  0  0
  182.7290  178.9990  143.6290 C   0  0  0  0  0  0  0  0  0  0  0  0
  187.6870  178.7720  140.1800 O   0  0  0  0  0  0  0  0  0  0  0  0
  188.3200  178.6770  141.4220 C   0  0  0  0  0  2  0  0  0  0  0  0
  189.4780  177.7030  141.3360 C   0  0  0  0  0  2  0  0  0  0  0  0
  187.4620  176.7530  144.7210 C   0  0  0  0  0  2  0  0  0  0  0  0
  188.0090  177.7330  145.7580 C   0  0  1  0  0  0  0  0  0  0  0  0
  190.3730  177.8480  142.5570 C   0  0  1  0  0  3  0  0  0  0  0  0
  188.3060  175.4450  142.9500 O   0  0  0  0  0  0  0  0  0  0  0  0
  190.3030  177.5650  145.0070 O   0  0  0  0  0  0  0  0  0  0  0  0
  188.5280  176.3440  143.7460 C   0  0  0  0  0  0  0  0  0  0  0  0
  186.9420  178.6170  146.3580 C   0  0  0  0  0  2  0  0  0  0  0  0
  188.5070  178.1040  148.2160 C   0  0  0  0  0  1  0  0  0  0  0  0
  187.5570  177.5030  147.1950 C   0  0  2  0  0  3  0  0  0  0  0  0
  189.3220  178.4710  145.4540 C   0  0  0  0  0  2  0  0  0  0  0  0
  189.8640  177.0650  143.7650 C   0  0  1  0  0  0  0  0  0  0  0  0
  190.9720  176.4880  142.9150 C   0  0  0  0  0  2  0  0  0  0  0  0
  2  1  1  1  0  0  0
  3 13  1  1  0  0  0
  3  2  1  0  0  0  0
  4  5  1  6  0  0  0
  4  3  1  0  0  0  0
  6  8  1  0  0  0  0
  7  9  1  0  0  0  0
  7 11  2  0  0  0  0
  8 11  1  0  0  0  0
 10  6  2  0  0  0  0
 10  7  1  0  0  0  0
 11  4  1  0  0  0  0
 12 13  2  0  0  0  0
 13 14  1  0  0  0  0
 14 15  1  0  0  0  0
 15 16  1  0  0  0  0
 16 19  1  0  0  0  0
 19 18  1  0  0  0  0
 19 17  2  0  0  0  0
 20  2  1  0  0  0  0
 20 21  1  0  0  0  0
 22 21  1  0  0  0  0
 24 23  1  6  0  0  0
 24 29  1  0  0  0  0
 24 31  1  0  0  0  0
 25 22  1  6  0  0  0
 25 34  1  0  0  0  0
 25 33  1  0  0  0  0
 26 28  2  0  0  0  0
 27 32  1  0  0  0  0
 28 33  1  0  0  0  0
 28 23  1  0  0  0  0
 29 31  1  0  0  0  0
 31 30  1  1  0  0  0
 32 24  1  0  0  0  0
 33 34  1  6  0  0  0
 33 27  1  0  0  0  0
M  END
>  <MODEL>
9

>  <REMARK>
 VINA RESULT:      -6.3      2.531      3.984
  Name = 
  12 active torsions:
  status: ('A' for Active; 'I' for Inactive)
    1  A    between atoms: C_3  and  C_22
    2  A    between atoms: C_7  and  C_22
    3  A    between atoms: C_7  and  O_34
    4  A    between atoms: C_9  and  O_25
    5  A    between atoms: C_9  and  C_29
    6  A    between atoms: C_10  and  C_28
    7  A    between atoms: C_10  and  C_30
    8  A    between atoms: C_21  and  O_25
    9  A    between atoms: C_21  and  C_32
   10  A    between atoms: C_24  and  C_28
   11  A    between atoms: C_24  and  O_34
   12  A    between atoms: C_28  and  C_32
                            x       y       z     vdW  Elec       q    Type
                         _______ _______ _______ _____ _____    ______ ____

>  <TORSDO>
F 12

$$$$
