=
 OpenBabel11062414503D

 33 35  0  0  1  0  0  0  0  0999 V2000
  189.4450  177.5790  140.7770 C   0  0  2  0  0  3  0  0  0  0  0  0
  188.4930  178.4140  139.9780 C   0  0  0  0  0  0  0  0  0  0  0  0
  187.1650  178.5460  140.3730 O   0  0  0  0  0  1  0  0  0  0  0  0
  188.9010  179.0180  138.9540 O   0  0  0  0  0  0  0  0  0  0  0  0
  189.7370  178.2190  142.1320 C   0  0  0  0  0  2  0  0  0  0  0  0
  189.1620  177.4400  143.3230 C   0  0  1  0  0  3  0  0  0  0  0  0
  185.1120  177.5330  147.1900 F   0  0  0  0  0  0  0  0  0  0  0  0
  187.3740  178.4090  147.1710 C   0  0  2  0  0  3  0  0  0  0  0  0
  185.9060  178.5770  146.7420 C   0  0  1  0  0  3  0  0  0  0  0  0
  187.7890  177.8320  143.6180 N   0  0  0  0  0  2  0  0  0  0  0  0
  185.9440  178.5450  145.2180 C   0  0  0  0  0  2  0  0  0  0  0  0
  187.3310  178.1230  144.9370 C   0  0  0  0  0  0  0  0  0  0  0  0
  188.0910  178.0310  145.9720 N   0  0  0  0  0  0  0  0  0  0  0  0
  187.5790  177.3690  148.2600 C   0  0  0  0  0  1  0  0  0  0  0  0
  188.2000  175.2730  143.1100 O   0  0  0  0  0  0  0  0  0  0  0  0
  189.2560  175.9620  143.1310 C   0  0  0  0  0  0  0  0  0  0  0  0
  190.5050  175.3580  142.9730 O   0  0  0  0  0  0  0  0  0  0  0  0
  191.5810  175.6160  143.8680 C   0  0  0  0  0  1  0  0  0  0  0  0
  190.7510  177.4120  140.0170 C   0  0  0  0  0  2  0  0  0  0  0  0
  190.7900  176.1040  139.3820 N   0  0  0  0  0  2  0  0  0  0  0  0
  190.6270  173.6150  137.1170 N   0  0  0  0  0  0  0  0  0  0  0  0
  192.9880  173.6420  137.4530 N   0  0  0  0  0  0  0  0  0  0  0  0
  189.3680  175.6400  137.4850 C   0  0  0  0  0  3  0  0  0  0  0  0
  190.6350  176.3190  137.9520 C   0  0  2  0  0  3  0  0  0  0  0  0
  193.9520  176.8070  136.9450 O   0  0  0  0  0  1  0  0  0  0  0  0
  191.7570  174.2570  137.1430 C   0  0  0  0  0  0  0  0  0  0  0  0
  193.2130  175.9710  137.7800 C   0  0  1  0  0  3  0  0  0  0  0  0
  191.8320  175.7410  137.1710 C   0  0  2  0  0  3  0  0  0  0  0  0
  193.8070  174.5850  137.7900 C   0  0  0  0  0  0  0  0  0  0  0  0
  189.3890  174.3470  137.1240 C   0  0  0  0  0  3  0  0  0  0  0  0
  195.1830  174.2960  138.2040 C   0  0  0  0  0  0  0  0  0  0  0  0
  196.2510  174.8880  137.5390 O   0  0  0  0  0  0  0  0  0  0  0  0
  195.4070  173.5130  139.1650 O   0  0  0  0  0  1  0  0  0  0  0  0
  1 19  1  6  0  0  0
  1  5  1  0  0  0  0
  2  3  1  0  0  0  0
  2  1  1  0  0  0  0
  4  2  2  0  0  0  0
  6  5  1  6  0  0  0
  6 10  1  0  0  0  0
  8 14  1  1  0  0  0
  9  8  1  0  0  0  0
  9  7  1  1  0  0  0
 10 12  1  0  0  0  0
 11  9  1  0  0  0  0
 12 11  1  0  0  0  0
 12 13  2  0  0  0  0
 13  8  1  0  0  0  0
 15 16  2  0  0  0  0
 16  6  1  0  0  0  0
 17 16  1  0  0  0  0
 17 18  1  0  0  0  0
 20 19  1  0  0  0  0
 21 30  1  0  0  0  0
 21 26  2  0  0  0  0
 22 29  2  0  0  0  0
 23 24  1  0  0  0  0
 24 20  1  1  0  0  0
 26 22  1  0  0  0  0
 27 25  1  6  0  0  0
 27 29  1  0  0  0  0
 28 26  1  1  0  0  0
 28 27  1  0  0  0  0
 28 24  1  0  0  0  0
 29 31  1  0  0  0  0
 30 23  2  0  0  0  0
 31 33  1  0  0  0  0
 32 31  2  0  0  0  0
M  END
>  <MODEL>
1

>  <REMARK>
 VINA RESULT:      -7.4      0.000      0.000
  Name = 
  10 active torsions:
  status: ('A' for Active; 'I' for Inactive)
    1  A    between atoms: C_1  and  C_13
    2  A    between atoms: C_5  and  N_19
    3  A    between atoms: C_5  and  C_21
    4  A    between atoms: C_5  and  C_27
    5  A    between atoms: N_9  and  C_17
    6  A    between atoms: N_9  and  C_32
    7  A    between atoms: O_12  and  C_27
    8  A    between atoms: C_13  and  C_21
    9  A    between atoms: C_13  and  C_32
   10  A    between atoms: C_16  and  CA_31
                            x       y       z     vdW  Elec       q    Type
                         _______ _______ _______ _____ _____    ______ ____

>  <TORSDO>
F 10

$$$$
=
 OpenBabel11062414503D

 33 35  0  0  1  0  0  0  0  0999 V2000
  188.3210  176.8360  142.6670 C   0  0  2  0  0  3  0  0  0  0  0  0
  189.5140  176.2610  143.3640 C   0  0  0  0  0  0  0  0  0  0  0  0
  189.9600  176.8010  144.5660 O   0  0  0  0  0  1  0  0  0  0  0  0
  190.1060  175.2680  142.8700 O   0  0  0  0  0  0  0  0  0  0  0  0
  188.7370  177.8670  141.6210 C   0  0  0  0  0  2  0  0  0  0  0  0
  188.9230  177.2840  140.2130 C   0  0  1  0  0  3  0  0  0  0  0  0
  187.5390  177.8230  134.8140 F   0  0  0  0  0  0  0  0  0  0  0  0
  186.7400  176.3490  136.5670 C   0  0  2  0  0  3  0  0  0  0  0  0
  186.7050  177.7440  135.9180 C   0  0  1  0  0  3  0  0  0  0  0  0
  188.4430  178.1940  139.1790 N   0  0  0  0  0  2  0  0  0  0  0  0
  187.2300  178.6840  136.9970 C   0  0  0  0  0  2  0  0  0  0  0  0
  187.7350  177.7500  138.0230 C   0  0  0  0  0  0  0  0  0  0  0  0
  187.4940  176.5060  137.7920 N   0  0  0  0  0  0  0  0  0  0  0  0
  187.3720  175.2810  135.6890 C   0  0  0  0  0  1  0  0  0  0  0  0
  190.5750  175.9140  139.1840 O   0  0  0  0  0  0  0  0  0  0  0  0
  190.3390  176.8890  139.9480 C   0  0  0  0  0  0  0  0  0  0  0  0
  191.3840  177.5990  140.5420 O   0  0  0  0  0  0  0  0  0  0  0  0
  192.7410  177.3880  140.1680 C   0  0  0  0  0  1  0  0  0  0  0  0
  187.3990  177.5000  143.6770 C   0  0  0  0  0  2  0  0  0  0  0  0
  186.0460  177.5570  143.1490 N   0  0  0  0  0  2  0  0  0  0  0  0
  182.8600  178.5650  143.5810 N   0  0  0  0  0  0  0  0  0  0  0  0
  182.7420  177.9810  141.2720 N   0  0  0  0  0  0  0  0  0  0  0  0
  184.9800  179.2440  144.5110 C   0  0  0  0  0  3  0  0  0  0  0  0
  185.6340  178.9520  143.1810 C   0  0  2  0  0  3  0  0  0  0  0  0
  185.2270  179.6500  139.7740 O   0  0  0  0  0  1  0  0  0  0  0  0
  183.3060  178.6710  142.3660 C   0  0  0  0  0  0  0  0  0  0  0  0
  184.9340  178.6390  140.6890 C   0  0  1  0  0  3  0  0  0  0  0  0
  184.6330  179.2620  142.0500 C   0  0  2  0  0  3  0  0  0  0  0  0
  183.6290  177.9730  140.3310 C   0  0  0  0  0  0  0  0  0  0  0  0
  183.6670  179.0210  144.6810 C   0  0  0  0  0  3  0  0  0  0  0  0
  183.3830  177.3080  139.0480 C   0  0  0  0  0  0  0  0  0  0  0  0
  183.6400  177.9750  137.8560 O   0  0  0  0  0  0  0  0  0  0  0  0
  182.9420  176.1290  139.0180 O   0  0  0  0  0  1  0  0  0  0  0  0
  1  5  1  6  0  0  0
  1  2  1  0  0  0  0
  1 19  1  0  0  0  0
  2  3  1  0  0  0  0
  4  2  2  0  0  0  0
  6  5  1  1  0  0  0
  8 14  1  6  0  0  0
  8 13  1  0  0  0  0
  9  7  1  6  0  0  0
  9  8  1  0  0  0  0
  9 11  1  0  0  0  0
 10  6  1  0  0  0  0
 11 12  1  0  0  0  0
 12 10  1  0  0  0  0
 13 12  2  0  0  0  0
 15 16  2  0  0  0  0
 16  6  1  0  0  0  0
 16 17  1  0  0  0  0
 18 17  1  0  0  0  0
 20 19  1  0  0  0  0
 21 30  1  0  0  0  0
 22 26  1  0  0  0  0
 23 30  2  0  0  0  0
 24 20  1  1  0  0  0
 24 23  1  0  0  0  0
 26 21  2  0  0  0  0
 27 25  1  6  0  0  0
 27 28  1  0  0  0  0
 28 26  1  1  0  0  0
 28 24  1  0  0  0  0
 29 27  1  0  0  0  0
 29 22  2  0  0  0  0
 31 29  1  0  0  0  0
 32 31  2  0  0  0  0
 33 31  1  0  0  0  0
M  END
>  <MODEL>
2

>  <REMARK>
 VINA RESULT:      -7.1      3.845      8.679
  Name = 
  10 active torsions:
  status: ('A' for Active; 'I' for Inactive)
    1  A    between atoms: C_1  and  C_13
    2  A    between atoms: C_5  and  N_19
    3  A    between atoms: C_5  and  C_21
    4  A    between atoms: C_5  and  C_27
    5  A    between atoms: N_9  and  C_17
    6  A    between atoms: N_9  and  C_32
    7  A    between atoms: O_12  and  C_27
    8  A    between atoms: C_13  and  C_21
    9  A    between atoms: C_13  and  C_32
   10  A    between atoms: C_16  and  CA_31
                            x       y       z     vdW  Elec       q    Type
                         _______ _______ _______ _____ _____    ______ ____

>  <TORSDO>
F 10

$$$$
=
 OpenBabel11062414503D

 33 35  0  0  1  0  0  0  0  0999 V2000
  189.6940  177.1910  143.0820 C   0  0  2  0  0  3  0  0  0  0  0  0
  191.0910  176.6960  143.2950 C   0  0  0  0  0  0  0  0  0  0  0  0
  191.3310  175.3580  143.5890 O   0  0  0  0  0  1  0  0  0  0  0  0
  192.0570  177.4930  143.1880 O   0  0  0  0  0  0  0  0  0  0  0  0
  188.7680  176.7320  144.2060 C   0  0  0  0  0  2  0  0  0  0  0  0
  188.7540  177.6690  145.4210 C   0  0  1  0  0  3  0  0  0  0  0  0
  183.8820  180.0360  143.9980 F   0  0  0  0  0  0  0  0  0  0  0  0
  185.1940  178.2630  142.9890 C   0  0  2  0  0  3  0  0  0  0  0  0
  184.1990  178.6890  144.0820 C   0  0  1  0  0  3  0  0  0  0  0  0
  187.3960  177.9810  145.8520 N   0  0  0  0  0  2  0  0  0  0  0  0
  184.9360  178.4410  145.3930 C   0  0  0  0  0  2  0  0  0  0  0  0
  186.3120  178.1530  144.9410 C   0  0  0  0  0  0  0  0  0  0  0  0
  186.4590  178.0750  143.6640 N   0  0  0  0  0  0  0  0  0  0  0  0
  185.3390  179.2750  141.8640 C   0  0  0  0  0  1  0  0  0  0  0  0
  188.9600  176.6370  147.5560 O   0  0  0  0  0  0  0  0  0  0  0  0
  189.5560  177.1300  146.5590 C   0  0  0  0  0  0  0  0  0  0  0  0
  190.9510  177.1740  146.5120 O   0  0  0  0  0  0  0  0  0  0  0  0
  191.7530  176.1950  147.1610 C   0  0  0  0  0  1  0  0  0  0  0  0
  189.1580  176.6750  141.7560 C   0  0  0  0  0  2  0  0  0  0  0  0
  190.2570  176.4490  140.8320 N   0  0  0  0  0  2  0  0  0  0  0  0
  188.6430  176.4360  137.8750 N   0  0  0  0  0  0  0  0  0  0  0  0
  190.5480  175.1440  137.2510 N   0  0  0  0  0  0  0  0  0  0  0  0
  188.8480  178.0310  139.6730 C   0  0  0  0  0  3  0  0  0  0  0  0
  190.2660  177.5640  139.8990 C   0  0  2  0  0  3  0  0  0  0  0  0
  193.2180  176.9690  138.1120 O   0  0  0  0  0  1  0  0  0  0  0  0
  189.9310  176.2910  137.7940 C   0  0  0  0  0  0  0  0  0  0  0  0
  192.1220  176.2640  138.6090 C   0  0  1  0  0  3  0  0  0  0  0  0
  190.8800  177.1510  138.5460 C   0  0  2  0  0  3  0  0  0  0  0  0
  191.7670  175.1300  137.6810 C   0  0  0  0  0  0  0  0  0  0  0  0
  188.0900  177.4550  138.7260 C   0  0  0  0  0  3  0  0  0  0  0  0
  192.6940  174.0500  137.3290 C   0  0  0  0  0  0  0  0  0  0  0  0
  193.9440  173.9800  137.9320 O   0  0  0  0  0  1  0  0  0  0  0  0
  192.3620  173.1780  136.4830 O   0  0  0  0  0  0  0  0  0  0  0  0
  1 19  1  6  0  0  0
  1  2  1  0  0  0  0
  1  5  1  0  0  0  0
  2  3  1  0  0  0  0
  4  2  2  0  0  0  0
  6  5  1  6  0  0  0
  6 10  1  0  0  0  0
  6 16  1  0  0  0  0
  8 14  1  6  0  0  0
  8 13  1  0  0  0  0
  8  9  1  0  0  0  0
  9  7  1  6  0  0  0
  9 11  1  0  0  0  0
 12 11  1  0  0  0  0
 12 10  1  0  0  0  0
 13 12  2  0  0  0  0
 16 15  2  0  0  0  0
 17 16  1  0  0  0  0
 17 18  1  0  0  0  0
 20 19  1  0  0  0  0
 21 30  1  0  0  0  0
 22 29  2  0  0  0  0
 22 26  1  0  0  0  0
 23 24  1  0  0  0  0
 24 20  1  1  0  0  0
 26 21  2  0  0  0  0
 27 25  1  6  0  0  0
 28 26  1  6  0  0  0
 28 27  1  0  0  0  0
 28 24  1  0  0  0  0
 29 27  1  0  0  0  0
 30 23  2  0  0  0  0
 31 29  1  0  0  0  0
 31 32  1  0  0  0  0
 33 31  2  0  0  0  0
M  END
>  <MODEL>
3

>  <REMARK>
 VINA RESULT:      -7.1      2.189      3.458
  Name = 
  10 active torsions:
  status: ('A' for Active; 'I' for Inactive)
    1  A    between atoms: C_1  and  C_13
    2  A    between atoms: C_5  and  N_19
    3  A    between atoms: C_5  and  C_21
    4  A    between atoms: C_5  and  C_27
    5  A    between atoms: N_9  and  C_17
    6  A    between atoms: N_9  and  C_32
    7  A    between atoms: O_12  and  C_27
    8  A    between atoms: C_13  and  C_21
    9  A    between atoms: C_13  and  C_32
   10  A    between atoms: C_16  and  CA_31
                            x       y       z     vdW  Elec       q    Type
                         _______ _______ _______ _____ _____    ______ ____

>  <TORSDO>
F 10

$$$$
=
 OpenBabel11062414503D

 33 35  0  0  1  0  0  0  0  0999 V2000
  188.8880  177.6770  139.9860 C   0  0  2  0  0  3  0  0  0  0  0  0
  188.2800  178.3260  138.7820 C   0  0  0  0  0  0  0  0  0  0  0  0
  188.9370  179.3660  138.1310 O   0  0  0  0  0  0  0  0  0  0  0  0
  187.1760  177.9150  138.3420 O   0  0  0  0  0  1  0  0  0  0  0  0
  188.6730  178.5240  141.2370 C   0  0  0  0  0  2  0  0  0  0  0  0
  187.6550  177.9320  142.2210 C   0  0  1  0  0  3  0  0  0  0  0  0
  190.8770  176.1150  146.4260 F   0  0  0  0  0  0  0  0  0  0  0  0
  191.3920  176.8490  144.1720 C   0  0  2  0  0  3  0  0  0  0  0  0
  191.0500  177.2310  145.6220 C   0  0  1  0  0  3  0  0  0  0  0  0
  188.0540  178.1410  143.6090 N   0  0  0  0  0  2  0  0  0  0  0  0
  189.7220  177.9730  145.5220 C   0  0  0  0  0  2  0  0  0  0  0  0
  189.3200  177.7310  144.1220 C   0  0  0  0  0  0  0  0  0  0  0  0
  190.1960  177.1180  143.4040 N   0  0  0  0  0  0  0  0  0  0  0  0
  191.8130  175.3980  144.0040 C   0  0  0  0  0  1  0  0  0  0  0  0
  186.1050  179.4250  141.2020 O   0  0  0  0  0  0  0  0  0  0  0  0
  186.2750  178.4530  141.9880 C   0  0  0  0  0  0  0  0  0  0  0  0
  185.1880  177.8620  142.6370 O   0  0  0  0  0  0  0  0  0  0  0  0
  184.3950  178.5790  143.5750 C   0  0  0  0  0  1  0  0  0  0  0  0
  190.3800  177.4790  139.7720 C   0  0  0  0  0  2  0  0  0  0  0  0
  190.6280  176.1620  139.2100 N   0  0  0  0  0  2  0  0  0  0  0  0
  190.8940  173.5790  137.0620 N   0  0  0  0  0  0  0  0  0  0  0  0
  193.1910  173.7750  137.6750 N   0  0  0  0  0  0  0  0  0  0  0  0
  189.4790  175.5300  137.1820 C   0  0  0  0  0  3  0  0  0  0  0  0
  190.6360  176.3080  137.7630 C   0  0  2  0  0  3  0  0  0  0  0  0
  194.0150  176.9740  137.1350 O   0  0  0  0  0  1  0  0  0  0  0  0
  191.9710  174.2950  137.1920 C   0  0  0  0  0  0  0  0  0  0  0  0
  193.2320  176.1250  137.9160 C   0  0  1  0  0  3  0  0  0  0  0  0
  191.9520  175.7800  137.1580 C   0  0  2  0  0  3  0  0  0  0  0  0
  193.9040  174.7830  138.0610 C   0  0  0  0  0  0  0  0  0  0  0  0
  189.6220  174.2270  136.8880 C   0  0  0  0  0  3  0  0  0  0  0  0
  195.2340  174.6020  138.6490 C   0  0  0  0  0  0  0  0  0  0  0  0
  195.6270  175.3720  139.7370 O   0  0  0  0  0  1  0  0  0  0  0  0
  196.0280  173.7460  138.1750 O   0  0  0  0  0  0  0  0  0  0  0  0
  1 19  1  6  0  0  0
  1  5  1  0  0  0  0
  2  1  1  0  0  0  0
  3  2  2  0  0  0  0
  4  2  1  0  0  0  0
  6  5  1  6  0  0  0
  6 10  1  0  0  0  0
  8 14  1  1  0  0  0
  8  9  1  0  0  0  0
  9  7  1  1  0  0  0
 10 12  1  0  0  0  0
 11  9  1  0  0  0  0
 12 11  1  0  0  0  0
 13 12  2  0  0  0  0
 13  8  1  0  0  0  0
 15 16  2  0  0  0  0
 16  6  1  0  0  0  0
 16 17  1  0  0  0  0
 17 18  1  0  0  0  0
 20 19  1  0  0  0  0
 21 26  2  0  0  0  0
 22 29  2  0  0  0  0
 23 24  1  0  0  0  0
 24 20  1  1  0  0  0
 26 22  1  0  0  0  0
 27 25  1  6  0  0  0
 27 29  1  0  0  0  0
 28 26  1  1  0  0  0
 28 24  1  0  0  0  0
 28 27  1  0  0  0  0
 29 31  1  0  0  0  0
 30 21  1  0  0  0  0
 30 23  2  0  0  0  0
 31 32  1  0  0  0  0
 33 31  2  0  0  0  0
M  END
>  <MODEL>
4

>  <REMARK>
 VINA RESULT:      -7.0      2.145      3.167
  Name = 
  10 active torsions:
  status: ('A' for Active; 'I' for Inactive)
    1  A    between atoms: C_1  and  C_13
    2  A    between atoms: C_5  and  N_19
    3  A    between atoms: C_5  and  C_21
    4  A    between atoms: C_5  and  C_27
    5  A    between atoms: N_9  and  C_17
    6  A    between atoms: N_9  and  C_32
    7  A    between atoms: O_12  and  C_27
    8  A    between atoms: C_13  and  C_21
    9  A    between atoms: C_13  and  C_32
   10  A    between atoms: C_16  and  CA_31
                            x       y       z     vdW  Elec       q    Type
                         _______ _______ _______ _____ _____    ______ ____

>  <TORSDO>
F 10

$$$$
=
 OpenBabel11062414503D

 33 35  0  0  1  0  0  0  0  0999 V2000
  190.3930  177.5320  141.8520 C   0  0  2  0  0  3  0  0  0  0  0  0
  190.9030  176.4240  142.7200 C   0  0  0  0  0  0  0  0  0  0  0  0
  190.1800  175.2440  142.8590 O   0  0  0  0  0  0  0  0  0  0  0  0
  192.0040  176.5530  143.3130 O   0  0  0  0  0  1  0  0  0  0  0  0
  189.2970  178.3270  142.5580 C   0  0  0  0  0  2  0  0  0  0  0  0
  187.8850  177.7650  142.3430 C   0  0  1  0  0  3  0  0  0  0  0  0
  188.2420  176.2180  147.7130 F   0  0  0  0  0  0  0  0  0  0  0  0
  189.4410  177.8720  146.4060 C   0  0  2  0  0  3  0  0  0  0  0  0
  188.1690  177.4970  147.1830 C   0  0  1  0  0  3  0  0  0  0  0  0
  187.1640  177.6080  143.6000 N   0  0  0  0  0  2  0  0  0  0  0  0
  187.0560  177.5310  146.1410 C   0  0  0  0  0  2  0  0  0  0  0  0
  187.8030  177.6640  144.8740 C   0  0  0  0  0  0  0  0  0  0  0  0
  189.0740  177.8270  145.0070 N   0  0  0  0  0  0  0  0  0  0  0  0
  190.6180  176.9470  146.6740 C   0  0  0  0  0  1  0  0  0  0  0  0
  187.4410  178.6310  140.1700 O   0  0  0  0  0  0  0  0  0  0  0  0
  187.0910  178.5870  141.3810 C   0  0  0  0  0  0  0  0  0  0  0  0
  185.9720  179.2930  141.8270 O   0  0  0  0  0  0  0  0  0  0  0  0
  184.6560  178.9530  141.4070 C   0  0  0  0  0  1  0  0  0  0  0  0
  189.8360  176.9630  140.5570 C   0  0  0  0  0  2  0  0  0  0  0  0
  190.9090  176.3700  139.7760 N   0  0  0  0  0  2  0  0  0  0  0  0
  190.4420  174.1150  137.3160 N   0  0  0  0  0  0  0  0  0  0  0  0
  192.8180  173.9820  137.4800 N   0  0  0  0  0  0  0  0  0  0  0  0
  189.3370  176.1620  137.9540 C   0  0  0  0  0  3  0  0  0  0  0  0
  190.6710  176.7240  138.3850 C   0  0  2  0  0  3  0  0  0  0  0  0
  193.9350  177.1240  137.1860 O   0  0  0  0  0  1  0  0  0  0  0  0
  191.6070  174.6890  137.3170 C   0  0  0  0  0  0  0  0  0  0  0  0
  193.2050  176.2540  137.9950 C   0  0  1  0  0  3  0  0  0  0  0  0
  191.7740  176.1570  137.4710 C   0  0  2  0  0  3  0  0  0  0  0  0
  193.7140  174.8440  137.8380 C   0  0  0  0  0  0  0  0  0  0  0  0
  189.2540  174.9090  137.4790 C   0  0  0  0  0  3  0  0  0  0  0  0
  195.0940  174.4430  138.1230 C   0  0  0  0  0  0  0  0  0  0  0  0
  196.1350  174.9180  137.3350 O   0  0  0  0  0  0  0  0  0  0  0  0
  195.3460  173.6690  139.0840 O   0  0  0  0  0  1  0  0  0  0  0  0
  1 19  1  6  0  0  0
  1  5  1  0  0  0  0
  1  2  1  0  0  0  0
  2  3  2  0  0  0  0
  2  4  1  0  0  0  0
  6  5  1  1  0  0  0
  6 10  1  0  0  0  0
  8 14  1  6  0  0  0
  8  9  1  0  0  0  0
  9  7  1  6  0  0  0
 10 12  1  0  0  0  0
 11  9  1  0  0  0  0
 12 13  2  0  0  0  0
 12 11  1  0  0  0  0
 13  8  1  0  0  0  0
 15 16  2  0  0  0  0
 16 17  1  0  0  0  0
 16  6  1  0  0  0  0
 18 17  1  0  0  0  0
 20 19  1  0  0  0  0
 21 26  2  0  0  0  0
 21 30  1  0  0  0  0
 22 29  2  0  0  0  0
 23 24  1  0  0  0  0
 24 20  1  1  0  0  0
 26 22  1  0  0  0  0
 27 25  1  6  0  0  0
 28 26  1  1  0  0  0
 28 27  1  0  0  0  0
 28 24  1  0  0  0  0
 29 27  1  0  0  0  0
 29 31  1  0  0  0  0
 30 23  2  0  0  0  0
 31 33  1  0  0  0  0
 32 31  2  0  0  0  0
M  END
>  <MODEL>
5

>  <REMARK>
 VINA RESULT:      -6.9      1.479      2.842
  Name = 
  10 active torsions:
  status: ('A' for Active; 'I' for Inactive)
    1  A    between atoms: C_1  and  C_13
    2  A    between atoms: C_5  and  N_19
    3  A    between atoms: C_5  and  C_21
    4  A    between atoms: C_5  and  C_27
    5  A    between atoms: N_9  and  C_17
    6  A    between atoms: N_9  and  C_32
    7  A    between atoms: O_12  and  C_27
    8  A    between atoms: C_13  and  C_21
    9  A    between atoms: C_13  and  C_32
   10  A    between atoms: C_16  and  CA_31
                            x       y       z     vdW  Elec       q    Type
                         _______ _______ _______ _____ _____    ______ ____

>  <TORSDO>
F 10

$$$$
=
 OpenBabel11062414503D

 33 35  0  0  1  0  0  0  0  0999 V2000
  183.7290  179.3190  142.5660 C   0  0  2  0  0  3  0  0  0  0  0  0
  182.3730  178.8350  142.9750 C   0  0  0  0  0  0  0  0  0  0  0  0
  181.3980  178.5700  142.0190 O   0  0  0  0  0  0  0  0  0  0  0  0
  182.1190  178.6460  144.1920 O   0  0  0  0  0  1  0  0  0  0  0  0
  184.4820  178.2510  141.7770 C   0  0  0  0  0  2  0  0  0  0  0  0
  184.5700  178.5380  140.2720 C   0  0  1  0  0  3  0  0  0  0  0  0
  181.3340  180.9360  136.3820 F   0  0  0  0  0  0  0  0  0  0  0  0
  181.1180  178.8760  137.6440 C   0  0  2  0  0  3  0  0  0  0  0  0
  180.9650  180.4060  137.6090 C   0  0  1  0  0  3  0  0  0  0  0  0
  183.8210  179.7320  139.8990 N   0  0  0  0  0  2  0  0  0  0  0  0
  181.9330  180.9150  138.6720 C   0  0  0  0  0  2  0  0  0  0  0  0
  182.7000  179.7010  139.0190 C   0  0  0  0  0  0  0  0  0  0  0  0
  182.2830  178.6180  138.4620 N   0  0  0  0  0  0  0  0  0  0  0  0
  181.2840  178.2450  136.2710 C   0  0  0  0  0  1  0  0  0  0  0  0
  186.9090  178.7850  140.6400 O   0  0  0  0  0  0  0  0  0  0  0  0
  185.9830  178.6350  139.7970 C   0  0  0  0  0  0  0  0  0  0  0  0
  186.2670  178.5580  138.4320 O   0  0  0  0  0  0  0  0  0  0  0  0
  185.6460  177.5930  137.5910 C   0  0  0  0  0  1  0  0  0  0  0  0
  184.5410  179.6900  143.7970 C   0  0  0  0  0  2  0  0  0  0  0  0
  185.8130  178.9860  143.7810 N   0  0  0  0  0  2  0  0  0  0  0  0
  187.4010  178.5950  146.7270 N   0  0  0  0  0  0  0  0  0  0  0  0
  189.2000  178.0240  145.2700 N   0  0  0  0  0  0  0  0  0  0  0  0
  185.1330  178.2500  145.9790 C   0  0  0  0  0  3  0  0  0  0  0  0
  185.6640  177.8170  144.6330 C   0  0  2  0  0  3  0  0  0  0  0  0
  188.0220  175.6280  143.2510 O   0  0  0  0  0  1  0  0  0  0  0  0
  187.8800  177.8860  145.7500 C   0  0  0  0  0  0  0  0  0  0  0  0
  187.9040  176.9730  143.5980 C   0  0  1  0  0  3  0  0  0  0  0  0
  187.0150  177.1000  144.8330 C   0  0  2  0  0  3  0  0  0  0  0  0
  189.2280  177.5040  144.0850 C   0  0  0  0  0  0  0  0  0  0  0  0
  185.9800  178.6450  146.9430 C   0  0  0  0  0  3  0  0  0  0  0  0
  190.4500  177.5020  143.2760 C   0  0  0  0  0  0  0  0  0  0  0  0
  191.6610  177.1220  143.8430 O   0  0  0  0  0  1  0  0  0  0  0  0
  190.4110  177.8390  142.0630 O   0  0  0  0  0  0  0  0  0  0  0  0
  1  5  1  1  0  0  0
  1  2  1  0  0  0  0
  1 19  1  0  0  0  0
  2  4  1  0  0  0  0
  3  2  2  0  0  0  0
  6  5  1  1  0  0  0
  8 14  1  6  0  0  0
  8 13  1  0  0  0  0
  9  7  1  6  0  0  0
  9  8  1  0  0  0  0
  9 11  1  0  0  0  0
 10  6  1  0  0  0  0
 11 12  1  0  0  0  0
 12 10  1  0  0  0  0
 13 12  2  0  0  0  0
 16  6  1  0  0  0  0
 16 15  2  0  0  0  0
 17 16  1  0  0  0  0
 18 17  1  0  0  0  0
 20 19  1  0  0  0  0
 21 30  1  0  0  0  0
 22 26  1  0  0  0  0
 23 30  2  0  0  0  0
 24 20  1  6  0  0  0
 24 28  1  0  0  0  0
 24 23  1  0  0  0  0
 26 21  2  0  0  0  0
 27 25  1  1  0  0  0
 27 29  1  0  0  0  0
 27 28  1  0  0  0  0
 28 26  1  1  0  0  0
 29 22  2  0  0  0  0
 31 32  1  0  0  0  0
 31 29  1  0  0  0  0
 33 31  2  0  0  0  0
M  END
>  <MODEL>
6

>  <REMARK>
 VINA RESULT:      -6.9      5.194      8.607
  Name = 
  10 active torsions:
  status: ('A' for Active; 'I' for Inactive)
    1  A    between atoms: C_1  and  C_13
    2  A    between atoms: C_5  and  N_19
    3  A    between atoms: C_5  and  C_21
    4  A    between atoms: C_5  and  C_27
    5  A    between atoms: N_9  and  C_17
    6  A    between atoms: N_9  and  C_32
    7  A    between atoms: O_12  and  C_27
    8  A    between atoms: C_13  and  C_21
    9  A    between atoms: C_13  and  C_32
   10  A    between atoms: C_16  and  CA_31
                            x       y       z     vdW  Elec       q    Type
                         _______ _______ _______ _____ _____    ______ ____

>  <TORSDO>
F 10

$$$$
=
 OpenBabel11062414503D

 33 35  0  0  1  0  0  0  0  0999 V2000
  189.0410  175.5290  137.3170 C   0  0  2  0  0  3  0  0  0  0  0  0
  188.7730  176.1590  135.9860 C   0  0  0  0  0  0  0  0  0  0  0  0
  188.0050  175.5010  135.0320 O   0  0  0  0  0  0  0  0  0  0  0  0
  189.2300  177.3040  135.7360 O   0  0  0  0  0  1  0  0  0  0  0  0
  189.9380  176.4150  138.1780 C   0  0  0  0  0  2  0  0  0  0  0  0
  189.2140  177.0690  139.3620 C   0  0  1  0  0  3  0  0  0  0  0  0
  189.6530  178.4490  144.7720 F   0  0  0  0  0  0  0  0  0  0  0  0
  188.6250  176.5630  143.6440 C   0  0  2  0  0  3  0  0  0  0  0  0
  189.9090  177.2290  144.1650 C   0  0  1  0  0  3  0  0  0  0  0  0
  190.1280  177.3870  140.4520 N   0  0  0  0  0  2  0  0  0  0  0  0
  190.7520  177.4710  142.9170 C   0  0  0  0  0  2  0  0  0  0  0  0
  189.8050  177.1700  141.8240 C   0  0  0  0  0  0  0  0  0  0  0  0
  188.6660  176.7050  142.2050 N   0  0  0  0  0  0  0  0  0  0  0  0
  187.3490  177.1750  144.1990 C   0  0  0  0  0  1  0  0  0  0  0  0
  189.0610  179.2750  138.4800 O   0  0  0  0  0  0  0  0  0  0  0  0
  188.4440  178.2820  138.9530 C   0  0  0  0  0  0  0  0  0  0  0  0
  187.0540  178.3060  139.0930 O   0  0  0  0  0  0  0  0  0  0  0  0
  186.1860  178.2080  137.9710 C   0  0  0  0  0  1  0  0  0  0  0  0
  189.7140  174.1790  137.1260 C   0  0  0  0  0  2  0  0  0  0  0  0
  191.1420  174.2990  137.3720 N   0  0  0  0  0  2  0  0  0  0  0  0
  193.1930  171.8790  136.2350 N   0  0  0  0  0  0  0  0  0  0  0  0
  194.7220  172.9970  137.6850 N   0  0  0  0  0  0  0  0  0  0  0  0
  191.3680  173.1290  135.2700 C   0  0  0  0  0  3  0  0  0  0  0  0
  191.7960  174.3350  136.0730 C   0  0  2  0  0  3  0  0  0  0  0  0
  194.6630  176.2170  136.7760 O   0  0  0  0  0  1  0  0  0  0  0  0
  193.7920  172.9650  136.6250 C   0  0  0  0  0  0  0  0  0  0  0  0
  193.9110  175.1880  137.3390 C   0  0  1  0  0  3  0  0  0  0  0  0
  193.3300  174.3190  136.2240 C   0  0  2  0  0  3  0  0  0  0  0  0
  194.8090  174.2270  138.0750 C   0  0  0  0  0  0  0  0  0  0  0  0
  192.0310  171.9680  135.3920 C   0  0  0  0  0  3  0  0  0  0  0  0
  195.6750  174.6190  139.1910 C   0  0  0  0  0  0  0  0  0  0  0  0
  195.3330  175.7030  139.9910 O   0  0  0  0  0  1  0  0  0  0  0  0
  196.7300  173.9760  139.4330 O   0  0  0  0  0  0  0  0  0  0  0  0
  1 19  1  6  0  0  0
  1  5  1  0  0  0  0
  2  1  1  0  0  0  0
  3  2  2  0  0  0  0
  4  2  1  0  0  0  0
  6  5  1  6  0  0  0
  6 10  1  0  0  0  0
  8  9  1  0  0  0  0
  8 14  1  1  0  0  0
  9  7  1  6  0  0  0
 10 12  1  0  0  0  0
 11  9  1  0  0  0  0
 12 13  2  0  0  0  0
 12 11  1  0  0  0  0
 13  8  1  0  0  0  0
 15 16  2  0  0  0  0
 16 17  1  0  0  0  0
 16  6  1  0  0  0  0
 18 17  1  0  0  0  0
 19 20  1  0  0  0  0
 21 26  2  0  0  0  0
 22 29  2  0  0  0  0
 23 30  2  0  0  0  0
 23 24  1  0  0  0  0
 24 28  1  0  0  0  0
 24 20  1  1  0  0  0
 26 22  1  0  0  0  0
 27 25  1  6  0  0  0
 27 29  1  0  0  0  0
 28 26  1  1  0  0  0
 28 27  1  0  0  0  0
 29 31  1  0  0  0  0
 30 21  1  0  0  0  0
 31 33  2  0  0  0  0
 31 32  1  0  0  0  0
M  END
>  <MODEL>
7

>  <REMARK>
 VINA RESULT:      -6.7      2.390      4.128
  Name = 
  10 active torsions:
  status: ('A' for Active; 'I' for Inactive)
    1  A    between atoms: C_1  and  C_13
    2  A    between atoms: C_5  and  N_19
    3  A    between atoms: C_5  and  C_21
    4  A    between atoms: C_5  and  C_27
    5  A    between atoms: N_9  and  C_17
    6  A    between atoms: N_9  and  C_32
    7  A    between atoms: O_12  and  C_27
    8  A    between atoms: C_13  and  C_21
    9  A    between atoms: C_13  and  C_32
   10  A    between atoms: C_16  and  CA_31
                            x       y       z     vdW  Elec       q    Type
                         _______ _______ _______ _____ _____    ______ ____

>  <TORSDO>
F 10

$$$$
=
 OpenBabel11062414503D

 33 35  0  0  1  0  0  0  0  0999 V2000
  185.7730  176.8580  137.7820 C   0  0  2  0  0  3  0  0  0  0  0  0
  184.6800  176.2970  136.9270 C   0  0  0  0  0  0  0  0  0  0  0  0
  184.2430  174.9890  137.1050 O   0  0  0  0  0  1  0  0  0  0  0  0
  184.1360  177.0220  136.0550 O   0  0  0  0  0  0  0  0  0  0  0  0
  185.5850  178.3560  138.0050 C   0  0  0  0  0  2  0  0  0  0  0  0
  184.6040  178.6980  139.1350 C   0  0  1  0  0  3  0  0  0  0  0  0
  184.0080  180.4350  144.4250 F   0  0  0  0  0  0  0  0  0  0  0  0
  183.2610  178.4390  143.2660 C   0  0  2  0  0  3  0  0  0  0  0  0
  184.4080  179.1910  143.9620 C   0  0  1  0  0  3  0  0  0  0  0  0
  185.2950  179.1230  140.3470 N   0  0  0  0  0  2  0  0  0  0  0  0
  185.4560  179.3890  142.8720 C   0  0  0  0  0  2  0  0  0  0  0  0
  184.7340  178.9800  141.6510 C   0  0  0  0  0  0  0  0  0  0  0  0
  183.5590  178.4910  141.8520 N   0  0  0  0  0  0  0  0  0  0  0  0
  181.8870  179.0310  143.5390 C   0  0  0  0  0  1  0  0  0  0  0  0
  183.8710  180.9440  138.8450 O   0  0  0  0  0  0  0  0  0  0  0  0
  183.5970  179.7190  138.7190 C   0  0  0  0  0  0  0  0  0  0  0  0
  182.3680  179.3140  138.1950 O   0  0  0  0  0  0  0  0  0  0  0  0
  181.7800  178.0660  138.5440 C   0  0  0  0  0  1  0  0  0  0  0  0
  187.1220  176.6210  137.1210 C   0  0  0  0  0  2  0  0  0  0  0  0
  188.1400  176.4120  138.1360 N   0  0  0  0  0  2  0  0  0  0  0  0
  191.4240  176.2680  138.8810 N   0  0  0  0  0  0  0  0  0  0  0  0
  190.5530  176.3090  141.1000 N   0  0  0  0  0  0  0  0  0  0  0  0
  190.1440  177.2780  137.1020 C   0  0  0  0  0  3  0  0  0  0  0  0
  189.0340  177.5590  138.0870 C   0  0  2  0  0  3  0  0  0  0  0  0
  188.5400  178.9800  141.2490 O   0  0  0  0  0  1  0  0  0  0  0  0
  190.6810  176.8210  139.7920 C   0  0  0  0  0  0  0  0  0  0  0  0
  188.7110  177.7230  140.6690 C   0  0  1  0  0  3  0  0  0  0  0  0
  189.6510  177.8430  139.4710 C   0  0  2  0  0  3  0  0  0  0  0  0
  189.4740  176.8180  141.6020 C   0  0  0  0  0  0  0  0  0  0  0  0
  191.2540  176.6360  137.5000 C   0  0  0  0  0  3  0  0  0  0  0  0
  189.0190  176.4740  142.9520 C   0  0  0  0  0  0  0  0  0  0  0  0
  189.8260  176.7450  144.0500 O   0  0  0  0  0  1  0  0  0  0  0  0
  187.8940  175.9360  143.1260 O   0  0  0  0  0  0  0  0  0  0  0  0
  1 19  1  6  0  0  0
  1  5  1  0  0  0  0
  2  3  1  0  0  0  0
  2  1  1  0  0  0  0
  4  2  2  0  0  0  0
  6  5  1  6  0  0  0
  6 10  1  0  0  0  0
  8 14  1  6  0  0  0
  8  9  1  0  0  0  0
  9  7  1  6  0  0  0
 10 12  1  0  0  0  0
 11  9  1  0  0  0  0
 12 13  2  0  0  0  0
 12 11  1  0  0  0  0
 13  8  1  0  0  0  0
 16 15  2  0  0  0  0
 16  6  1  0  0  0  0
 17 18  1  0  0  0  0
 17 16  1  0  0  0  0
 19 20  1  0  0  0  0
 21 26  2  0  0  0  0
 22 29  2  0  0  0  0
 23 30  2  0  0  0  0
 23 24  1  0  0  0  0
 24 20  1  1  0  0  0
 24 28  1  0  0  0  0
 26 22  1  0  0  0  0
 27 25  1  1  0  0  0
 27 29  1  0  0  0  0
 28 26  1  1  0  0  0
 28 27  1  0  0  0  0
 29 31  1  0  0  0  0
 30 21  1  0  0  0  0
 31 33  2  0  0  0  0
 31 32  1  0  0  0  0
M  END
>  <MODEL>
8

>  <REMARK>
 VINA RESULT:      -6.7      3.702      6.098
  Name = 
  10 active torsions:
  status: ('A' for Active; 'I' for Inactive)
    1  A    between atoms: C_1  and  C_13
    2  A    between atoms: C_5  and  N_19
    3  A    between atoms: C_5  and  C_21
    4  A    between atoms: C_5  and  C_27
    5  A    between atoms: N_9  and  C_17
    6  A    between atoms: N_9  and  C_32
    7  A    between atoms: O_12  and  C_27
    8  A    between atoms: C_13  and  C_21
    9  A    between atoms: C_13  and  C_32
   10  A    between atoms: C_16  and  CA_31
                            x       y       z     vdW  Elec       q    Type
                         _______ _______ _______ _____ _____    ______ ____

>  <TORSDO>
F 10

$$$$
=
 OpenBabel11062414503D

 33 35  0  0  1  0  0  0  0  0999 V2000
  184.7180  178.5390  143.8880 C   0  0  2  0  0  3  0  0  0  0  0  0
  185.1150  178.7280  145.3190 C   0  0  0  0  0  0  0  0  0  0  0  0
  186.4480  178.6280  145.7040 O   0  0  0  0  0  0  0  0  0  0  0  0
  184.2380  179.0010  146.1790 O   0  0  0  0  0  1  0  0  0  0  0  0
  185.3800  179.5800  142.9900 C   0  0  0  0  0  2  0  0  0  0  0  0
  186.4070  178.9940  142.0110 C   0  0  1  0  0  3  0  0  0  0  0  0
  190.7410  175.5260  142.7570 F   0  0  0  0  0  0  0  0  0  0  0  0
  190.1970  177.6900  143.7080 C   0  0  2  0  0  3  0  0  0  0  0  0
  189.9710  176.1690  143.7140 C   0  0  1  0  0  3  0  0  0  0  0  0
  186.8200  177.6490  142.3960 N   0  0  0  0  0  2  0  0  0  0  0  0
  188.4990  175.9960  143.3550 C   0  0  0  0  0  2  0  0  0  0  0  0
  188.1040  177.3580  142.9440 C   0  0  0  0  0  0  0  0  0  0  0  0
  189.0080  178.2600  143.1120 N   0  0  0  0  0  0  0  0  0  0  0  0
  191.4340  178.1230  142.9390 C   0  0  0  0  0  1  0  0  0  0  0  0
  184.9210  179.7220  140.3000 O   0  0  0  0  0  0  0  0  0  0  0  0
  185.9170  179.0080  140.6010 C   0  0  0  0  0  0  0  0  0  0  0  0
  186.5620  178.2390  139.6300 O   0  0  0  0  0  0  0  0  0  0  0  0
  187.9750  178.2700  139.4680 C   0  0  0  0  0  1  0  0  0  0  0  0
  183.2080  178.6520  143.7490 C   0  0  0  0  0  2  0  0  0  0  0  0
  182.8050  178.2650  142.4070 N   0  0  0  0  0  2  0  0  0  0  0  0
  179.5400  177.4790  142.1360 N   0  0  0  0  0  0  0  0  0  0  0  0
  180.3140  176.5090  140.0990 N   0  0  0  0  0  0  0  0  0  0  0  0
  180.7500  179.3400  143.0810 C   0  0  0  0  0  3  0  0  0  0  0  0
  181.7780  179.2030  141.9830 C   0  0  2  0  0  3  0  0  0  0  0  0
  181.9700  178.9360  138.4970 O   0  0  0  0  0  1  0  0  0  0  0  0
  180.1730  177.5810  141.0060 C   0  0  0  0  0  0  0  0  0  0  0  0
  181.9800  178.1140  139.6230 C   0  0  1  0  0  3  0  0  0  0  0  0
  181.0780  178.7170  140.6980 C   0  0  2  0  0  3  0  0  0  0  0  0
  181.3010  176.8030  139.3170 C   0  0  0  0  0  0  0  0  0  0  0  0
  179.7150  178.4870  143.1470 C   0  0  0  0  0  3  0  0  0  0  0  0
  181.7440  175.8870  138.2620 C   0  0  0  0  0  0  0  0  0  0  0  0
  181.0320  175.7960  137.0720 O   0  0  0  0  0  0  0  0  0  0  0  0
  182.7730  175.1790  138.4250 O   0  0  0  0  0  1  0  0  0  0  0  0
  1  5  1  6  0  0  0
  1  2  1  0  0  0  0
  2  3  2  0  0  0  0
  2  4  1  0  0  0  0
  6 10  1  0  0  0  0
  6  5  1  1  0  0  0
  8 14  1  6  0  0  0
  8  9  1  0  0  0  0
  9  7  1  6  0  0  0
 10 12  1  0  0  0  0
 11  9  1  0  0  0  0
 12 13  2  0  0  0  0
 12 11  1  0  0  0  0
 13  8  1  0  0  0  0
 15 16  2  0  0  0  0
 16  6  1  0  0  0  0
 17 16  1  0  0  0  0
 18 17  1  0  0  0  0
 19  1  1  0  0  0  0
 20 19  1  0  0  0  0
 21 30  1  0  0  0  0
 22 26  1  0  0  0  0
 23 30  2  0  0  0  0
 24 20  1  1  0  0  0
 24 23  1  0  0  0  0
 26 21  2  0  0  0  0
 27 25  1  6  0  0  0
 27 28  1  0  0  0  0
 28 26  1  1  0  0  0
 28 24  1  0  0  0  0
 29 27  1  0  0  0  0
 29 22  2  0  0  0  0
 31 33  1  0  0  0  0
 31 29  1  0  0  0  0
 32 31  2  0  0  0  0
M  END
>  <MODEL>
9

>  <REMARK>
 VINA RESULT:      -6.7      5.075      9.071
  Name = 
  10 active torsions:
  status: ('A' for Active; 'I' for Inactive)
    1  A    between atoms: C_1  and  C_13
    2  A    between atoms: C_5  and  N_19
    3  A    between atoms: C_5  and  C_21
    4  A    between atoms: C_5  and  C_27
    5  A    between atoms: N_9  and  C_17
    6  A    between atoms: N_9  and  C_32
    7  A    between atoms: O_12  and  C_27
    8  A    between atoms: C_13  and  C_21
    9  A    between atoms: C_13  and  C_32
   10  A    between atoms: C_16  and  CA_31
                            x       y       z     vdW  Elec       q    Type
                         _______ _______ _______ _____ _____    ______ ____

>  <TORSDO>
F 10

$$$$
