=
 OpenBabel11062415093D

 55 59  0  0  1  0  0  0  0  0999 V2000
  188.6000  177.4800  137.8560 S   0  0  0  0  0  0  0  0  0  0  0  0
  186.8970  178.1410  135.8290 C   0  0  0  0  0  1  0  0  0  0  0  0
  186.7620  178.3570  139.4730 C   0  0  0  0  0  2  0  0  0  0  0  0
  186.5500  176.0940  136.9980 O   0  0  0  0  0  1  0  0  0  0  0  0
  187.9370  177.4910  139.4980 N   0  0  0  0  0  0  0  0  0  0  0  0
  186.0220  178.1610  138.1560 C   0  0  1  0  0  3  0  0  0  0  0  0
  186.9270  177.4280  137.1660 C   0  0  1  0  0  0  0  0  0  0  0  0
  182.2320  177.4340  139.0370 C   0  0  2  0  0  3  0  0  0  0  0  0
  183.7580  177.9990  139.8380 S   0  0  0  0  0  0  0  0  0  0  0  0
  183.7730  177.9270  137.1760 N   0  0  0  0  0  2  0  0  0  0  0  0
  184.6150  177.5630  138.3040 C   0  0  1  0  0  3  0  0  0  0  0  0
  182.4040  177.5750  137.5250 C   0  0  1  0  0  3  0  0  0  0  0  0
  181.0480  178.2230  139.4910 C   0  0  0  0  0  0  0  0  0  0  0  0
  180.2120  178.6240  138.6320 O   0  0  0  0  0  0  0  0  0  0  0  0
  180.9230  178.5770  140.8380 O   0  0  0  0  0  0  0  0  0  0  0  0
  180.0470  177.9640  141.7410 C   0  0  0  0  0  0  0  0  0  0  0  0
  179.4740  176.8760  141.4520 O   0  0  0  0  0  0  0  0  0  0  0  0
  179.7660  177.7550  144.0790 O   0  0  0  0  0  1  0  0  0  0  0  0
  179.8830  178.5290  143.0830 C   0  0  0  0  0  0  0  0  0  0  0  0
  179.9650  179.9060  143.2900 O   0  0  0  0  0  0  0  0  0  0  0  0
  181.9420  176.3350  136.7640 C   0  0  0  0  0  2  0  0  0  0  0  0
  181.6220  175.1740  137.7090 C   0  0  0  0  0  2  0  0  0  0  0  0
  181.4340  173.9390  136.9570 N   0  0  0  0  0  0  0  0  0  0  0  0
  181.6260  171.3870  135.5960 C   0  0  2  0  0  3  0  0  0  0  0  0
  179.2580  171.1510  136.3620 C   0  0  0  0  0  1  0  0  0  0  0  0
  182.7780  172.3780  135.6690 C   0  0  0  0  0  2  0  0  0  0  0  0
  180.0460  172.9660  138.5760 O   0  0  0  0  0  0  0  0  0  0  0  0
  182.1960  173.7780  135.7260 C   0  0  0  0  0  2  0  0  0  0  0  0
  180.6710  171.4900  136.8020 C   0  0  2  0  0  3  0  0  0  0  0  0
  180.6760  172.8350  137.4910 C   0  0  0  0  0  0  0  0  0  0  0  0
  182.1950  169.9830  135.4960 C   0  0  0  0  0  2  0  0  0  0  0  0
  183.6220  169.9590  136.0080 C   0  0  0  0  0  1  0  0  0  0  0  0
  189.9940  176.1320  140.7800 O   0  0  0  0  0  0  0  0  0  0  0  0
  189.9120  177.3780  140.9630 C   0  0  0  0  0  0  0  0  0  0  0  0
  188.8880  178.1240  140.3070 N   0  0  0  0  0  2  0  0  0  0  0  0
  190.9400  178.0990  141.7760 C   0  0  0  0  0  2  0  0  0  0  0  0
  191.2680  177.3430  143.0590 C   0  0  0  0  0  2  0  0  0  0  0  0
  192.2100  179.1070  144.2840 O   0  0  0  0  0  0  0  0  0  0  0  0
  191.2990  178.2940  144.2210 C   0  0  0  0  0  0  0  0  0  0  0  0
  190.2660  178.2710  145.3190 C   0  0  0  0  0  2  0  0  0  0  0  0
  190.0830  176.8820  145.9330 C   0  0  1  0  0  3  0  0  0  0  0  0
  191.3560  176.3180  146.5000 C   0  0  0  0  0  0  0  0  0  0  0  0
  192.1690  175.7380  145.7250 O   0  0  0  0  0  0  0  0  0  0  0  0
  191.6440  176.4430  147.8600 O   0  0  0  0  0  0  0  0  0  0  0  0
  192.8450  175.9410  148.4230 C   0  0  0  0  0  1  0  0  0  0  0  0
  188.9480  176.8730  146.9540 C   0  0  0  0  0  2  0  0  0  0  0  0
  188.6390  178.1680  147.3810 O   0  0  0  0  0  0  0  0  0  0  0  0
  187.2410  178.1960  147.4420 C   0  0  0  0  0  2  0  0  0  0  0  0
  186.9710  177.9320  143.3040 C   0  0  0  0  0  1  0  0  0  0  0  0
  185.6740  177.6560  144.0480 C   0  0  1  0  0  3  0  0  0  0  0  0
  184.4570  179.2490  145.1440 C   0  0  0  0  0  3  0  0  0  0  0  0
  185.1340  178.4390  146.1980 C   0  0  2  0  0  3  0  0  0  0  0  0
  186.5940  178.5550  146.1030 C   0  0  2  0  0  3  0  0  0  0  0  0
  185.9080  177.3940  145.4800 N   0  0  2  0  0  0  0  0  0  0  0  0
  184.7430  178.8060  143.9350 C   0  0  0  0  0  3  0  0  0  0  0  0
  1  5  1  0  0  0  0
  3  5  1  0  0  0  0
  4  7  1  0  0  0  0
  5 35  1  0  0  0  0
  6 11  1  0  0  0  0
  6  3  1  1  0  0  0
  7  2  1  6  0  0  0
  7  1  1  0  0  0  0
  7  6  1  0  0  0  0
  8 13  1  1  0  0  0
  8  9  1  0  0  0  0
 10 12  1  0  0  0  0
 11 10  1  6  0  0  0
 11  9  1  0  0  0  0
 12 21  1  6  0  0  0
 12  8  1  0  0  0  0
 13 15  1  0  0  0  0
 14 13  2  0  0  0  0
 15 16  1  0  0  0  0
 16 19  1  0  0  0  0
 17 16  2  0  0  0  0
 19 20  2  0  0  0  0
 19 18  1  0  0  0  0
 21 22  1  0  0  0  0
 23 30  1  0  0  0  0
 23 22  1  0  0  0  0
 24 31  1  1  0  0  0
 24 26  1  0  0  0  0
 24 29  1  0  0  0  0
 26 28  1  0  0  0  0
 28 23  1  0  0  0  0
 29 25  1  6  0  0  0
 29 30  1  0  0  0  0
 30 27  2  0  0  0  0
 31 32  1  0  0  0  0
 33 34  2  0  0  0  0
 34 36  1  0  0  0  0
 35 34  1  0  0  0  0
 36 37  1  0  0  0  0
 37 39  1  0  0  0  0
 39 38  2  0  0  0  0
 39 40  1  0  0  0  0
 41 40  1  1  0  0  0
 41 42  1  0  0  0  0
 41 46  1  0  0  0  0
 42 44  1  0  0  0  0
 43 42  2  0  0  0  0
 44 45  1  0  0  0  0
 46 47  1  0  0  0  0
 47 48  1  0  0  0  0
 50 49  1  6  0  0  0
 50 54  1  0  0  0  0
 52 51  1  6  0  0  0
 53 52  1  0  0  0  0
 53 48  1  1  0  0  0
 54 53  1  0  0  0  0
 54 52  1  0  0  0  0
 55 50  1  0  0  0  0
 55 51  2  0  0  0  0
M  END
>  <MODEL>
1

>  <REMARK>
 VINA RESULT:      -6.9      0.000      0.000
  Name = 
  21 active torsions:
  status: ('A' for Active; 'I' for Inactive)
    1  A    between atoms: C_1  and  C_2
    2  A    between atoms: C_1  and  O_8
    3  A    between atoms: N_3  and  C_29
    4  A    between atoms: C_4  and  C_6
    5  A    between atoms: O_8  and  C_24
    6  A    between atoms: C_9  and  C_24
    7  A    between atoms: C_11  and  C_46
    8  A    between atoms: C_12  and  C_26
    9  A    between atoms: C_12  and  C_53
   10  A    between atoms: C_15  and  C_16
   11  A    between atoms: C_15  and  C_25
   12  A    between atoms: C_15  and  C_37
   13  A    between atoms: C_16  and  C_51
   14  A    between atoms: C_25  and  O_33
   15  A    between atoms: C_26  and  C_51
   16  A    between atoms: C_27  and  C_29
   17  A    between atoms: C_27  and  C_49
   18  A    between atoms: C_31  and  C_47
   19  A    between atoms: N_36  and  N_54
   20  A    between atoms: C_37  and  O_41
   21  A    between atoms: O_41  and  C_47
                            x       y       z     vdW  Elec       q    Type
                         _______ _______ _______ _____ _____    ______ ____

>  <TORSDO>
F 21

$$$$
=
 OpenBabel11062415093D

 55 59  0  0  1  0  0  0  0  0999 V2000
  188.9640  177.4070  137.5990 S   0  0  0  0  0  0  0  0  0  0  0  0
  187.2390  178.1310  135.6120 C   0  0  0  0  0  1  0  0  0  0  0  0
  187.1680  178.2870  139.2620 C   0  0  0  0  0  2  0  0  0  0  0  0
  186.8760  176.0700  136.7520 O   0  0  0  0  0  1  0  0  0  0  0  0
  188.3280  177.4010  139.2520 N   0  0  0  0  0  0  0  0  0  0  0  0
  186.4030  178.1260  137.9540 C   0  0  1  0  0  3  0  0  0  0  0  0
  187.2790  177.3950  136.9360 C   0  0  1  0  0  0  0  0  0  0  0  0
  182.6510  177.3870  138.9760 C   0  0  2  0  0  3  0  0  0  0  0  0
  184.2400  177.8100  139.7430 S   0  0  0  0  0  0  0  0  0  0  0  0
  184.0930  178.0720  137.0970 N   0  0  0  0  0  2  0  0  0  0  0  0
  184.9880  177.5480  138.1160 C   0  0  1  0  0  3  0  0  0  0  0  0
  182.7370  177.7120  137.4850 C   0  0  1  0  0  3  0  0  0  0  0  0
  181.5220  178.1420  139.5990 C   0  0  0  0  0  0  0  0  0  0  0  0
  180.3890  177.5890  139.6850 O   0  0  0  0  0  0  0  0  0  0  0  0
  181.7090  179.4690  139.9990 O   0  0  0  0  0  0  0  0  0  0  0  0
  180.7230  180.4600  139.9400 C   0  0  0  0  0  0  0  0  0  0  0  0
  179.9260  180.6410  140.9030 O   0  0  0  0  0  0  0  0  0  0  0  0
  181.7770  181.7890  138.2930 O   0  0  0  0  0  1  0  0  0  0  0  0
  180.6910  181.3780  138.7980 C   0  0  0  0  0  0  0  0  0  0  0  0
  179.4800  181.7190  138.1940 O   0  0  0  0  0  0  0  0  0  0  0  0
  182.1900  176.5890  136.6080 C   0  0  0  0  0  2  0  0  0  0  0  0
  182.0020  175.2910  137.3970 C   0  0  0  0  0  2  0  0  0  0  0  0
  182.5090  174.1540  136.6390 N   0  0  0  0  0  0  0  0  0  0  0  0
  183.9940  171.9560  135.4710 C   0  0  2  0  0  3  0  0  0  0  0  0
  181.7220  170.9280  135.2830 C   0  0  0  0  0  1  0  0  0  0  0  0
  184.6540  173.2330  135.9680 C   0  0  0  0  0  2  0  0  0  0  0  0
  181.0250  172.6250  137.6180 O   0  0  0  0  0  0  0  0  0  0  0  0
  183.6710  174.3750  135.7900 C   0  0  0  0  0  2  0  0  0  0  0  0
  182.6900  171.6240  136.2240 C   0  0  2  0  0  3  0  0  0  0  0  0
  182.0100  172.8180  136.8540 C   0  0  0  0  0  0  0  0  0  0  0  0
  184.9820  170.8110  135.6050 C   0  0  0  0  0  2  0  0  0  0  0  0
  186.3940  171.3070  135.3680 C   0  0  0  0  0  1  0  0  0  0  0  0
  189.8240  176.0100  141.1360 O   0  0  0  0  0  0  0  0  0  0  0  0
  190.0290  177.2510  141.0250 C   0  0  0  0  0  0  0  0  0  0  0  0
  189.3040  178.0040  140.0550 N   0  0  0  0  0  2  0  0  0  0  0  0
  191.0990  177.9220  141.8260 C   0  0  0  0  0  2  0  0  0  0  0  0
  191.3110  177.2280  143.1670 C   0  0  0  0  0  2  0  0  0  0  0  0
  192.1560  179.1400  144.2310 O   0  0  0  0  0  0  0  0  0  0  0  0
  191.3250  178.2440  144.2740 C   0  0  0  0  0  0  0  0  0  0  0  0
  190.3740  178.1870  145.4420 C   0  0  0  0  0  2  0  0  0  0  0  0
  190.2980  176.8000  146.0810 C   0  0  1  0  0  3  0  0  0  0  0  0
  191.6180  176.3320  146.6280 C   0  0  0  0  0  0  0  0  0  0  0  0
  192.2990  175.5000  145.9650 O   0  0  0  0  0  0  0  0  0  0  0  0
  192.0930  176.8210  147.8470 O   0  0  0  0  0  0  0  0  0  0  0  0
  192.9200  176.0440  148.6980 C   0  0  0  0  0  1  0  0  0  0  0  0
  189.1870  176.7300  147.1250 C   0  0  0  0  0  2  0  0  0  0  0  0
  188.9190  177.9910  147.6650 O   0  0  0  0  0  0  0  0  0  0  0  0
  187.5220  178.0770  147.6890 C   0  0  0  0  0  2  0  0  0  0  0  0
  187.3590  177.6900  143.5550 C   0  0  0  0  0  1  0  0  0  0  0  0
  186.0340  177.4750  144.2690 C   0  0  1  0  0  3  0  0  0  0  0  0
  184.8350  179.1370  145.2810 C   0  0  0  0  0  3  0  0  0  0  0  0
  185.4590  178.3400  146.3780 C   0  0  2  0  0  3  0  0  0  0  0  0
  186.9230  178.4120  146.3210 C   0  0  2  0  0  3  0  0  0  0  0  0
  186.2200  177.2520  145.7150 N   0  0  2  0  0  0  0  0  0  0  0  0
  185.1410  178.6480  144.0950 C   0  0  0  0  0  3  0  0  0  0  0  0
  1  5  1  0  0  0  0
  4  7  1  0  0  0  0
  5  3  1  0  0  0  0
  5 35  1  0  0  0  0
  6 11  1  0  0  0  0
  6  3  1  1  0  0  0
  7  2  1  6  0  0  0
  7  1  1  0  0  0  0
  7  6  1  0  0  0  0
  8 13  1  1  0  0  0
  8  9  1  0  0  0  0
 10 12  1  0  0  0  0
 11 10  1  6  0  0  0
 11  9  1  0  0  0  0
 12 21  1  6  0  0  0
 12  8  1  0  0  0  0
 13 14  2  0  0  0  0
 13 15  1  0  0  0  0
 16 15  1  0  0  0  0
 16 17  2  0  0  0  0
 18 19  1  0  0  0  0
 19 16  1  0  0  0  0
 20 19  2  0  0  0  0
 21 22  1  0  0  0  0
 23 30  1  0  0  0  0
 23 22  1  0  0  0  0
 24 31  1  1  0  0  0
 24 26  1  0  0  0  0
 24 29  1  0  0  0  0
 28 26  1  0  0  0  0
 28 23  1  0  0  0  0
 29 25  1  6  0  0  0
 29 30  1  0  0  0  0
 30 27  2  0  0  0  0
 32 31  1  0  0  0  0
 34 33  2  0  0  0  0
 34 36  1  0  0  0  0
 35 34  1  0  0  0  0
 36 37  1  0  0  0  0
 37 39  1  0  0  0  0
 38 39  2  0  0  0  0
 39 40  1  0  0  0  0
 41 40  1  1  0  0  0
 41 42  1  0  0  0  0
 41 46  1  0  0  0  0
 42 44  1  0  0  0  0
 43 42  2  0  0  0  0
 44 45  1  0  0  0  0
 46 47  1  0  0  0  0
 47 48  1  0  0  0  0
 50 49  1  6  0  0  0
 50 54  1  0  0  0  0
 52 51  1  6  0  0  0
 53 52  1  0  0  0  0
 53 48  1  1  0  0  0
 54 53  1  0  0  0  0
 54 52  1  0  0  0  0
 55 50  1  0  0  0  0
 55 51  2  0  0  0  0
M  END
>  <MODEL>
2

>  <REMARK>
 VINA RESULT:      -6.8      1.238      1.877
  Name = 
  21 active torsions:
  status: ('A' for Active; 'I' for Inactive)
    1  A    between atoms: C_1  and  C_2
    2  A    between atoms: C_1  and  O_8
    3  A    between atoms: N_3  and  C_29
    4  A    between atoms: C_4  and  C_6
    5  A    between atoms: O_8  and  C_24
    6  A    between atoms: C_9  and  C_24
    7  A    between atoms: C_11  and  C_46
    8  A    between atoms: C_12  and  C_26
    9  A    between atoms: C_12  and  C_53
   10  A    between atoms: C_15  and  C_16
   11  A    between atoms: C_15  and  C_25
   12  A    between atoms: C_15  and  C_37
   13  A    between atoms: C_16  and  C_51
   14  A    between atoms: C_25  and  O_33
   15  A    between atoms: C_26  and  C_51
   16  A    between atoms: C_27  and  C_29
   17  A    between atoms: C_27  and  C_49
   18  A    between atoms: C_31  and  C_47
   19  A    between atoms: N_36  and  N_54
   20  A    between atoms: C_37  and  O_41
   21  A    between atoms: O_41  and  C_47
                            x       y       z     vdW  Elec       q    Type
                         _______ _______ _______ _____ _____    ______ ____

>  <TORSDO>
F 21

$$$$
=
 OpenBabel11062415093D

 55 59  0  0  1  0  0  0  0  0999 V2000
  185.0060  175.2650  136.0030 S   0  0  0  0  0  0  0  0  0  0  0  0
  182.6810  176.5910  135.4680 C   0  0  0  0  0  1  0  0  0  0  0  0
  185.7980  177.4500  137.1690 C   0  0  0  0  0  2  0  0  0  0  0  0
  182.9960  175.6550  137.6370 O   0  0  0  0  0  1  0  0  0  0  0  0
  186.1190  176.0260  137.1500 N   0  0  0  0  0  0  0  0  0  0  0  0
  184.2890  177.6260  137.0570 C   0  0  1  0  0  3  0  0  0  0  0  0
  183.6550  176.3130  136.5970 C   0  0  1  0  0  0  0  0  0  0  0  0
  181.8760  178.6440  140.0250 C   0  0  2  0  0  3  0  0  0  0  0  0
  181.8260  178.3500  138.2360 S   0  0  0  0  0  0  0  0  0  0  0  0
  184.0270  177.5570  139.5070 N   0  0  0  0  0  2  0  0  0  0  0  0
  183.6330  178.2570  138.2950 C   0  0  1  0  0  3  0  0  0  0  0  0
  183.1570  178.0190  140.5780 C   0  0  1  0  0  3  0  0  0  0  0  0
  180.6860  178.0580  140.7120 C   0  0  0  0  0  0  0  0  0  0  0  0
  180.4140  176.8370  140.5310 O   0  0  0  0  0  0  0  0  0  0  0  0
  179.8460  178.8790  141.4710 O   0  0  0  0  0  0  0  0  0  0  0  0
  180.1910  179.4380  142.7070 C   0  0  0  0  0  0  0  0  0  0  0  0
  180.0830  180.6800  142.9100 O   0  0  0  0  0  0  0  0  0  0  0  0
  181.7040  178.6880  144.3610 O   0  0  0  0  0  1  0  0  0  0  0  0
  180.5680  178.5580  143.8170 C   0  0  0  0  0  0  0  0  0  0  0  0
  179.6500  177.6530  144.3510 O   0  0  0  0  0  0  0  0  0  0  0  0
  183.9000  178.9520  141.5300 C   0  0  0  0  0  2  0  0  0  0  0  0
  185.3810  178.5830  141.6490 C   0  0  0  0  0  2  0  0  0  0  0  0
  185.7070  178.2070  143.0190 N   0  0  0  0  0  0  0  0  0  0  0  0
  186.9010  177.6200  145.5940 C   0  0  2  0  0  3  0  0  0  0  0  0
  184.6860  178.4000  146.4520 C   0  0  0  0  0  1  0  0  0  0  0  0
  187.6320  177.4220  144.2740 C   0  0  0  0  0  2  0  0  0  0  0  0
  184.5650  180.0220  143.9670 O   0  0  0  0  0  0  0  0  0  0  0  0
  186.6060  177.0780  143.2110 C   0  0  0  0  0  2  0  0  0  0  0  0
  185.8430  178.7400  145.5290 C   0  0  2  0  0  3  0  0  0  0  0  0
  185.3150  179.0230  144.1410 C   0  0  0  0  0  0  0  0  0  0  0  0
  187.9210  177.9240  146.6760 C   0  0  0  0  0  2  0  0  0  0  0  0
  189.1610  177.0740  146.4820 C   0  0  0  0  0  1  0  0  0  0  0  0
  187.5920  173.6700  137.2090 O   0  0  0  0  0  0  0  0  0  0  0  0
  188.1260  174.6810  136.6760 C   0  0  0  0  0  0  0  0  0  0  0  0
  187.4010  175.9070  136.6000 N   0  0  0  0  0  2  0  0  0  0  0  0
  189.4710  174.5820  136.0290 C   0  0  0  0  0  2  0  0  0  0  0  0
  190.4340  173.7490  136.8680 C   0  0  0  0  0  2  0  0  0  0  0  0
  191.6000  172.1800  135.5720 O   0  0  0  0  0  0  0  0  0  0  0  0
  191.6010  173.3140  136.0290 C   0  0  0  0  0  0  0  0  0  0  0  0
  192.7790  174.2120  135.7470 C   0  0  0  0  0  2  0  0  0  0  0  0
  193.4300  174.7570  137.0190 C   0  0  1  0  0  3  0  0  0  0  0  0
  194.7260  174.0720  137.3550 C   0  0  0  0  0  0  0  0  0  0  0  0
  194.8130  173.4140  138.4300 O   0  0  0  0  0  0  0  0  0  0  0  0
  195.8160  174.1490  136.4840 O   0  0  0  0  0  0  0  0  0  0  0  0
  197.0490  174.7310  136.8740 C   0  0  0  0  0  1  0  0  0  0  0  0
  193.5820  176.2740  136.9580 C   0  0  0  0  0  2  0  0  0  0  0  0
  193.3860  176.8540  138.2150 O   0  0  0  0  0  0  0  0  0  0  0  0
  192.2640  176.1980  138.7360 C   0  0  0  0  0  2  0  0  0  0  0  0
  189.1030  178.8360  138.1830 C   0  0  0  0  0  1  0  0  0  0  0  0
  188.8460  177.7360  139.2010 C   0  0  1  0  0  3  0  0  0  0  0  0
  189.8530  177.6180  141.2480 C   0  0  0  0  0  3  0  0  0  0  0  0
  190.4950  176.5690  140.4020 C   0  0  2  0  0  3  0  0  0  0  0  0
  191.2010  177.1640  139.2620 C   0  0  2  0  0  3  0  0  0  0  0  0
  189.8230  176.6390  139.0800 N   0  0  2  0  0  0  0  0  0  0  0  0
  188.9150  178.2660  140.5850 C   0  0  0  0  0  3  0  0  0  0  0  0
  1  7  1  0  0  0  0
  1  5  1  0  0  0  0
  5  3  1  0  0  0  0
  6  3  1  1  0  0  0
  6 11  1  0  0  0  0
  7  2  1  6  0  0  0
  7  6  1  0  0  0  0
  7  4  1  0  0  0  0
  8 12  1  0  0  0  0
  8 13  1  1  0  0  0
  9  8  1  0  0  0  0
 10 12  1  0  0  0  0
 11  9  1  6  0  0  0
 11 10  1  0  0  0  0
 12 21  1  6  0  0  0
 13 15  1  0  0  0  0
 14 13  2  0  0  0  0
 15 16  1  0  0  0  0
 16 17  2  0  0  0  0
 16 19  1  0  0  0  0
 19 20  2  0  0  0  0
 19 18  1  0  0  0  0
 21 22  1  0  0  0  0
 22 23  1  0  0  0  0
 23 28  1  0  0  0  0
 23 30  1  0  0  0  0
 24 31  1  1  0  0  0
 26 24  1  0  0  0  0
 27 30  2  0  0  0  0
 28 26  1  0  0  0  0
 29 24  1  0  0  0  0
 29 25  1  1  0  0  0
 30 29  1  0  0  0  0
 32 31  1  0  0  0  0
 34 33  2  0  0  0  0
 35 34  1  0  0  0  0
 35  5  1  0  0  0  0
 36 34  1  0  0  0  0
 36 37  1  0  0  0  0
 38 39  2  0  0  0  0
 39 37  1  0  0  0  0
 40 39  1  0  0  0  0
 41 40  1  6  0  0  0
 41 42  1  0  0  0  0
 42 43  2  0  0  0  0
 44 45  1  0  0  0  0
 44 42  1  0  0  0  0
 46 41  1  0  0  0  0
 46 47  1  0  0  0  0
 47 48  1  0  0  0  0
 50 49  1  6  0  0  0
 50 55  1  0  0  0  0
 52 51  1  1  0  0  0
 53 48  1  6  0  0  0
 53 52  1  0  0  0  0
 54 50  1  0  0  0  0
 54 53  1  0  0  0  0
 54 52  1  0  0  0  0
 55 51  2  0  0  0  0
M  END
>  <MODEL>
3

>  <REMARK>
 VINA RESULT:      -6.8      3.464      7.834
  Name = 
  21 active torsions:
  status: ('A' for Active; 'I' for Inactive)
    1  A    between atoms: C_1  and  C_2
    2  A    between atoms: C_1  and  O_8
    3  A    between atoms: N_3  and  C_29
    4  A    between atoms: C_4  and  C_6
    5  A    between atoms: O_8  and  C_24
    6  A    between atoms: C_9  and  C_24
    7  A    between atoms: C_11  and  C_46
    8  A    between atoms: C_12  and  C_26
    9  A    between atoms: C_12  and  C_53
   10  A    between atoms: C_15  and  C_16
   11  A    between atoms: C_15  and  C_25
   12  A    between atoms: C_15  and  C_37
   13  A    between atoms: C_16  and  C_51
   14  A    between atoms: C_25  and  O_33
   15  A    between atoms: C_26  and  C_51
   16  A    between atoms: C_27  and  C_29
   17  A    between atoms: C_27  and  C_49
   18  A    between atoms: C_31  and  C_47
   19  A    between atoms: N_36  and  N_54
   20  A    between atoms: C_37  and  O_41
   21  A    between atoms: O_41  and  C_47
                            x       y       z     vdW  Elec       q    Type
                         _______ _______ _______ _____ _____    ______ ____

>  <TORSDO>
F 21

$$$$
=
 OpenBabel11062415093D

 55 59  0  0  1  0  0  0  0  0999 V2000
  183.6000  178.8920  141.3360 S   0  0  0  0  0  0  0  0  0  0  0  0
  185.8060  179.7790  142.6770 C   0  0  0  0  0  1  0  0  0  0  0  0
  185.1330  178.7360  139.2410 C   0  0  0  0  0  2  0  0  0  0  0  0
  185.5480  177.4380  142.3130 O   0  0  0  0  0  1  0  0  0  0  0  0
  183.8620  178.2060  139.7250 N   0  0  0  0  0  0  0  0  0  0  0  0
  186.1150  178.8240  140.4020 C   0  0  1  0  0  3  0  0  0  0  0  0
  185.3570  178.6890  141.7230 C   0  0  1  0  0  0  0  0  0  0  0  0
  189.3600  176.9030  139.1990 C   0  0  2  0  0  3  0  0  0  0  0  0
  187.7340  177.4080  138.5710 S   0  0  0  0  0  0  0  0  0  0  0  0
  188.5150  178.5120  140.8650 N   0  0  0  0  0  2  0  0  0  0  0  0
  187.3380  177.9040  140.2660 C   0  0  1  0  0  3  0  0  0  0  0  0
  189.6680  177.7280  140.4490 C   0  0  1  0  0  3  0  0  0  0  0  0
  190.4300  177.1060  138.1770 C   0  0  0  0  0  0  0  0  0  0  0  0
  190.1460  177.7110  137.1040 O   0  0  0  0  0  0  0  0  0  0  0  0
  191.7000  176.5580  138.3810 O   0  0  0  0  0  0  0  0  0  0  0  0
  192.1050  175.3020  137.9140 C   0  0  0  0  0  0  0  0  0  0  0  0
  191.2870  174.3430  137.8380 O   0  0  0  0  0  0  0  0  0  0  0  0
  193.8630  173.9780  137.0510 O   0  0  0  0  0  0  0  0  0  0  0  0
  193.4660  175.1290  137.3970 C   0  0  0  0  0  0  0  0  0  0  0  0
  194.2900  176.2340  137.1810 O   0  0  0  0  0  1  0  0  0  0  0  0
  190.2000  176.8740  141.5970 C   0  0  0  0  0  2  0  0  0  0  0  0
  191.3140  177.5860  142.3680 C   0  0  0  0  0  2  0  0  0  0  0  0
  191.0510  177.5440  143.8010 N   0  0  0  0  0  0  0  0  0  0  0  0
  189.9650  177.4180  146.4850 C   0  0  2  0  0  3  0  0  0  0  0  0
  192.0730  176.1560  146.9460 C   0  0  0  0  0  1  0  0  0  0  0  0
  189.2510  178.1080  145.3320 C   0  0  0  0  0  2  0  0  0  0  0  0
  191.9650  175.4030  144.0760 O   0  0  0  0  0  0  0  0  0  0  0  0
  190.3020  178.6500  144.3810 C   0  0  0  0  0  2  0  0  0  0  0  0
  190.8730  176.2620  146.0220 C   0  0  2  0  0  3  0  0  0  0  0  0
  191.3480  176.3740  144.5910 C   0  0  0  0  0  0  0  0  0  0  0  0
  188.9250  176.9070  147.4670 C   0  0  0  0  0  2  0  0  0  0  0  0
  187.8370  177.9430  147.6650 C   0  0  0  0  0  1  0  0  0  0  0  0
  182.9350  176.9250  137.4390 O   0  0  0  0  0  0  0  0  0  0  0  0
  182.4360  178.0490  137.7240 C   0  0  0  0  0  0  0  0  0  0  0  0
  182.8620  178.7350  138.9000 N   0  0  0  0  0  2  0  0  0  0  0  0
  181.3290  178.6230  136.8990 C   0  0  0  0  0  2  0  0  0  0  0  0
  180.4710  177.5280  136.2760 C   0  0  0  0  0  2  0  0  0  0  0  0
  178.9310  177.9030  138.0050 O   0  0  0  0  0  0  0  0  0  0  0  0
  179.4280  177.0730  137.2570 C   0  0  0  0  0  0  0  0  0  0  0  0
  178.9890  175.6350  137.3680 C   0  0  0  0  0  2  0  0  0  0  0  0
  180.1020  174.7100  137.8610 C   0  0  1  0  0  3  0  0  0  0  0  0
  180.2600  174.7270  139.3570 C   0  0  0  0  0  0  0  0  0  0  0  0
  180.9720  175.6240  139.8890 O   0  0  0  0  0  0  0  0  0  0  0  0
  179.6180  173.7720  140.1490 O   0  0  0  0  0  0  0  0  0  0  0  0
  179.1980  174.0550  141.4730 C   0  0  0  0  0  1  0  0  0  0  0  0
  179.9260  173.2930  137.3200 C   0  0  0  0  0  2  0  0  0  0  0  0
  180.4850  173.1650  136.0450 O   0  0  0  0  0  0  0  0  0  0  0  0
  181.1410  171.9280  136.0690 C   0  0  0  0  0  2  0  0  0  0  0  0
  184.7360  174.0080  136.1780 C   0  0  0  0  0  1  0  0  0  0  0  0
  184.7820  172.6200  136.7950 C   0  0  1  0  0  3  0  0  0  0  0  0
  184.6560  170.6760  135.6010 C   0  0  0  0  0  3  0  0  0  0  0  0
  183.3360  170.8410  136.2770 C   0  0  2  0  0  3  0  0  0  0  0  0
  182.6440  172.0460  135.8080 C   0  0  2  0  0  3  0  0  0  0  0  0
  183.4320  172.0950  137.0670 N   0  0  2  0  0  0  0  0  0  0  0  0
  185.4780  171.6630  135.8990 C   0  0  0  0  0  3  0  0  0  0  0  0
  1  7  1  0  0  0  0
  3  5  1  0  0  0  0
  5  1  1  0  0  0  0
  6  3  1  6  0  0  0
  6  7  1  0  0  0  0
  7  4  1  0  0  0  0
  7  2  1  1  0  0  0
  8 13  1  6  0  0  0
  8 12  1  0  0  0  0
  9  8  1  0  0  0  0
 11  9  1  6  0  0  0
 11  6  1  0  0  0  0
 11 10  1  0  0  0  0
 12 10  1  0  0  0  0
 12 21  1  1  0  0  0
 13 15  1  0  0  0  0
 14 13  2  0  0  0  0
 16 15  1  0  0  0  0
 17 16  2  0  0  0  0
 18 19  2  0  0  0  0
 19 16  1  0  0  0  0
 20 19  1  0  0  0  0
 21 22  1  0  0  0  0
 22 23  1  0  0  0  0
 23 28  1  0  0  0  0
 23 30  1  0  0  0  0
 24 31  1  1  0  0  0
 26 24  1  0  0  0  0
 27 30  2  0  0  0  0
 28 26  1  0  0  0  0
 29 24  1  0  0  0  0
 29 25  1  1  0  0  0
 30 29  1  0  0  0  0
 31 32  1  0  0  0  0
 33 34  2  0  0  0  0
 34 35  1  0  0  0  0
 35  5  1  0  0  0  0
 36 34  1  0  0  0  0
 37 36  1  0  0  0  0
 37 39  1  0  0  0  0
 39 40  1  0  0  0  0
 39 38  2  0  0  0  0
 40 41  1  0  0  0  0
 41 46  1  1  0  0  0
 41 42  1  0  0  0  0
 42 43  2  0  0  0  0
 42 44  1  0  0  0  0
 44 45  1  0  0  0  0
 47 48  1  0  0  0  0
 47 46  1  0  0  0  0
 50 49  1  6  0  0  0
 50 54  1  0  0  0  0
 51 55  2  0  0  0  0
 52 51  1  6  0  0  0
 52 54  1  0  0  0  0
 53 48  1  1  0  0  0
 53 52  1  0  0  0  0
 53 54  1  0  0  0  0
 55 50  1  0  0  0  0
M  END
>  <MODEL>
4

>  <REMARK>
 VINA RESULT:      -6.4      2.534     11.650
  Name = 
  21 active torsions:
  status: ('A' for Active; 'I' for Inactive)
    1  A    between atoms: C_1  and  C_2
    2  A    between atoms: C_1  and  O_8
    3  A    between atoms: N_3  and  C_29
    4  A    between atoms: C_4  and  C_6
    5  A    between atoms: O_8  and  C_24
    6  A    between atoms: C_9  and  C_24
    7  A    between atoms: C_11  and  C_46
    8  A    between atoms: C_12  and  C_26
    9  A    between atoms: C_12  and  C_53
   10  A    between atoms: C_15  and  C_16
   11  A    between atoms: C_15  and  C_25
   12  A    between atoms: C_15  and  C_37
   13  A    between atoms: C_16  and  C_51
   14  A    between atoms: C_25  and  O_33
   15  A    between atoms: C_26  and  C_51
   16  A    between atoms: C_27  and  C_29
   17  A    between atoms: C_27  and  C_49
   18  A    between atoms: C_31  and  C_47
   19  A    between atoms: N_36  and  N_54
   20  A    between atoms: C_37  and  O_41
   21  A    between atoms: O_41  and  C_47
                            x       y       z     vdW  Elec       q    Type
                         _______ _______ _______ _____ _____    ______ ____

>  <TORSDO>
F 21

$$$$
=
 OpenBabel11062415093D

 55 59  0  0  1  0  0  0  0  0999 V2000
  180.3250  178.2560  142.7450 S   0  0  0  0  0  0  0  0  0  0  0  0
  179.1230  176.2580  141.3270 C   0  0  0  0  0  1  0  0  0  0  0  0
  182.2410  178.1320  140.9910 C   0  0  0  0  0  2  0  0  0  0  0  0
  178.9310  178.4990  140.5410 O   0  0  0  0  0  1  0  0  0  0  0  0
  181.7100  179.0570  141.9870 N   0  0  0  0  0  0  0  0  0  0  0  0
  181.0850  177.4030  140.3170 C   0  0  1  0  0  3  0  0  0  0  0  0
  179.8110  177.5960  141.1400 C   0  0  1  0  0  0  0  0  0  0  0  0
  180.4030  179.0490  136.7830 C   0  0  2  0  0  3  0  0  0  0  0  0
  179.6130  178.8730  138.4060 S   0  0  0  0  0  0  0  0  0  0  0  0
  182.1840  178.1940  138.2580 N   0  0  0  0  0  2  0  0  0  0  0  0
  180.9340  177.7060  138.8190 C   0  0  1  0  0  3  0  0  0  0  0  0
  181.8880  178.7230  136.9350 C   0  0  1  0  0  3  0  0  0  0  0  0
  180.2360  180.4290  136.2370 C   0  0  0  0  0  0  0  0  0  0  0  0
  179.2800  180.6630  135.4440 O   0  0  0  0  0  0  0  0  0  0  0  0
  181.1790  181.4170  136.5410 O   0  0  0  0  0  0  0  0  0  0  0  0
  180.8820  182.6240  137.1830 C   0  0  0  0  0  0  0  0  0  0  0  0
  180.4200  182.6390  138.3580 O   0  0  0  0  0  0  0  0  0  0  0  0
  180.9150  184.0720  135.3140 O   0  0  0  0  0  0  0  0  0  0  0  0
  181.2230  183.8910  136.5290 C   0  0  0  0  0  0  0  0  0  0  0  0
  181.7850  184.9390  137.2590 O   0  0  0  0  0  1  0  0  0  0  0  0
  182.3980  177.7890  135.8400 C   0  0  0  0  0  2  0  0  0  0  0  0
  182.6720  176.3820  136.3750 C   0  0  0  0  0  2  0  0  0  0  0  0
  184.0550  175.9970  136.1170 N   0  0  0  0  0  0  0  0  0  0  0  0
  186.9240  175.7860  135.7670 C   0  0  2  0  0  3  0  0  0  0  0  0
  186.5380  173.4480  136.5640 C   0  0  0  0  0  1  0  0  0  0  0  0
  186.1440  177.0600  135.4790 C   0  0  0  0  0  2  0  0  0  0  0  0
  184.1830  174.5750  137.9770 O   0  0  0  0  0  0  0  0  0  0  0  0
  184.7490  176.6690  135.0280 C   0  0  0  0  0  2  0  0  0  0  0  0
  186.2660  174.9140  136.8540 C   0  0  2  0  0  3  0  0  0  0  0  0
  184.7780  175.1280  137.0130 C   0  0  0  0  0  0  0  0  0  0  0  0
  188.3360  176.1620  136.1790 C   0  0  0  0  0  2  0  0  0  0  0  0
  188.8330  177.3270  135.3470 C   0  0  0  0  0  1  0  0  0  0  0  0
  184.2250  177.8870  141.8140 O   0  0  0  0  0  0  0  0  0  0  0  0
  183.9560  178.5470  142.8560 C   0  0  0  0  0  0  0  0  0  0  0  0
  182.6880  179.1870  142.9810 N   0  0  0  0  0  2  0  0  0  0  0  0
  184.9910  178.7530  143.9160 C   0  0  0  0  0  2  0  0  0  0  0  0
  184.4320  178.4700  145.3050 C   0  0  0  0  0  2  0  0  0  0  0  0
  185.5260  179.3880  147.1660 O   0  0  0  0  0  0  0  0  0  0  0  0
  185.5390  178.5040  146.3200 C   0  0  0  0  0  0  0  0  0  0  0  0
  186.6710  177.5090  146.3230 C   0  0  0  0  0  2  0  0  0  0  0  0
  188.0470  178.1730  146.2540 C   0  0  1  0  0  3  0  0  0  0  0  0
  188.9230  177.8320  147.4280 C   0  0  0  0  0  0  0  0  0  0  0  0
  188.4210  177.8230  148.5880 O   0  0  0  0  0  0  0  0  0  0  0  0
  190.2700  177.5140  147.2400 O   0  0  0  0  0  0  0  0  0  0  0  0
  190.7510  176.1860  147.3540 C   0  0  0  0  0  1  0  0  0  0  0  0
  188.7360  177.8850  144.9230 C   0  0  0  0  0  2  0  0  0  0  0  0
  188.5790  176.5470  144.5500 O   0  0  0  0  0  0  0  0  0  0  0  0
  189.5670  176.3310  143.5820 C   0  0  0  0  0  2  0  0  0  0  0  0
  187.2810  178.5670  140.9280 C   0  0  0  0  0  1  0  0  0  0  0  0
  188.7680  178.5280  140.6150 C   0  0  1  0  0  3  0  0  0  0  0  0
  189.8730  176.6810  139.8500 C   0  0  0  0  0  3  0  0  0  0  0  0
  190.2650  176.8440  141.2810 C   0  0  2  0  0  3  0  0  0  0  0  0
  189.1070  176.6990  142.1700 C   0  0  2  0  0  3  0  0  0  0  0  0
  189.5590  178.0560  141.7660 N   0  0  2  0  0  0  0  0  0  0  0  0
  189.0450  177.6320  139.4650 C   0  0  0  0  0  3  0  0  0  0  0  0
  3  5  1  0  0  0  0
  4  7  1  0  0  0  0
  5  1  1  0  0  0  0
  5 35  1  0  0  0  0
  6  3  1  1  0  0  0
  6  7  1  0  0  0  0
  7  2  1  1  0  0  0
  7  1  1  0  0  0  0
  8 13  1  1  0  0  0
  8 12  1  0  0  0  0
  8  9  1  0  0  0  0
  9 11  1  0  0  0  0
 11 10  1  1  0  0  0
 11  6  1  0  0  0  0
 12 21  1  6  0  0  0
 12 10  1  0  0  0  0
 13 15  1  0  0  0  0
 14 13  2  0  0  0  0
 15 16  1  0  0  0  0
 16 17  2  0  0  0  0
 18 19  2  0  0  0  0
 19 16  1  0  0  0  0
 19 20  1  0  0  0  0
 21 22  1  0  0  0  0
 23 22  1  0  0  0  0
 23 30  1  0  0  0  0
 24 31  1  1  0  0  0
 24 29  1  0  0  0  0
 26 24  1  0  0  0  0
 28 26  1  0  0  0  0
 28 23  1  0  0  0  0
 29 25  1  6  0  0  0
 29 30  1  0  0  0  0
 30 27  2  0  0  0  0
 32 31  1  0  0  0  0
 33 34  2  0  0  0  0
 34 35  1  0  0  0  0
 34 36  1  0  0  0  0
 36 37  1  0  0  0  0
 37 39  1  0  0  0  0
 39 40  1  0  0  0  0
 39 38  2  0  0  0  0
 41 46  1  6  0  0  0
 41 40  1  0  0  0  0
 41 42  1  0  0  0  0
 42 43  2  0  0  0  0
 44 45  1  0  0  0  0
 44 42  1  0  0  0  0
 47 46  1  0  0  0  0
 48 47  1  0  0  0  0
 50 49  1  1  0  0  0
 50 54  1  0  0  0  0
 52 51  1  6  0  0  0
 52 54  1  0  0  0  0
 52 53  1  0  0  0  0
 53 48  1  1  0  0  0
 54 53  1  0  0  0  0
 55 51  2  0  0  0  0
 55 50  1  0  0  0  0
M  END
>  <MODEL>
5

>  <REMARK>
 VINA RESULT:      -5.7      3.083      5.955
  Name = 
  21 active torsions:
  status: ('A' for Active; 'I' for Inactive)
    1  A    between atoms: C_1  and  C_2
    2  A    between atoms: C_1  and  O_8
    3  A    between atoms: N_3  and  C_29
    4  A    between atoms: C_4  and  C_6
    5  A    between atoms: O_8  and  C_24
    6  A    between atoms: C_9  and  C_24
    7  A    between atoms: C_11  and  C_46
    8  A    between atoms: C_12  and  C_26
    9  A    between atoms: C_12  and  C_53
   10  A    between atoms: C_15  and  C_16
   11  A    between atoms: C_15  and  C_25
   12  A    between atoms: C_15  and  C_37
   13  A    between atoms: C_16  and  C_51
   14  A    between atoms: C_25  and  O_33
   15  A    between atoms: C_26  and  C_51
   16  A    between atoms: C_27  and  C_29
   17  A    between atoms: C_27  and  C_49
   18  A    between atoms: C_31  and  C_47
   19  A    between atoms: N_36  and  N_54
   20  A    between atoms: C_37  and  O_41
   21  A    between atoms: O_41  and  C_47
                            x       y       z     vdW  Elec       q    Type
                         _______ _______ _______ _____ _____    ______ ____

>  <TORSDO>
F 21

$$$$
=
 OpenBabel11062415093D

 55 59  0  0  1  0  0  0  0  0999 V2000
  191.6040  176.8120  141.2470 S   0  0  0  0  0  0  0  0  0  0  0  0
  189.9980  175.9860  143.2930 C   0  0  0  0  0  1  0  0  0  0  0  0
  189.4200  177.1250  139.8700 C   0  0  0  0  0  2  0  0  0  0  0  0
  190.2440  178.3230  142.9000 O   0  0  0  0  0  1  0  0  0  0  0  0
  190.8090  177.5730  139.8590 N   0  0  0  0  0  0  0  0  0  0  0  0
  188.9310  177.0410  141.3110 C   0  0  1  0  0  3  0  0  0  0  0  0
  190.1290  177.0870  142.2600 C   0  0  1  0  0  0  0  0  0  0  0  0
  185.5730  179.1310  141.4580 C   0  0  2  0  0  3  0  0  0  0  0  0
  186.7860  178.5390  140.2460 S   0  0  0  0  0  0  0  0  0  0  0  0
  186.9340  177.4830  142.6860 N   0  0  0  0  0  2  0  0  0  0  0  0
  187.8020  178.0250  141.6530 C   0  0  1  0  0  3  0  0  0  0  0  0
  185.7500  178.3270  142.7450 C   0  0  1  0  0  3  0  0  0  0  0  0
  184.1750  178.9840  140.9530 C   0  0  0  0  0  0  0  0  0  0  0  0
  183.9180  179.3060  139.7570 O   0  0  0  0  0  0  0  0  0  0  0  0
  183.1590  178.5760  141.8230 O   0  0  0  0  0  0  0  0  0  0  0  0
  181.8020  178.5230  141.4880 C   0  0  0  0  0  0  0  0  0  0  0  0
  181.4120  177.9170  140.4500 O   0  0  0  0  0  0  0  0  0  0  0  0
  180.7710  180.3240  142.6210 O   0  0  0  0  0  0  0  0  0  0  0  0
  180.8080  179.0760  142.4120 C   0  0  0  0  0  0  0  0  0  0  0  0
  179.8330  178.2560  142.9820 O   0  0  0  0  0  1  0  0  0  0  0  0
  185.7630  179.2100  143.9900 C   0  0  0  0  0  2  0  0  0  0  0  0
  185.2340  178.4680  145.2200 C   0  0  0  0  0  2  0  0  0  0  0  0
  186.3380  177.9840  146.0400 N   0  0  0  0  0  0  0  0  0  0  0  0
  188.8700  177.2320  147.2330 C   0  0  2  0  0  3  0  0  0  0  0  0
  187.6760  177.7770  149.3610 C   0  0  0  0  0  1  0  0  0  0  0  0
  188.6200  177.2110  145.7330 C   0  0  0  0  0  2  0  0  0  0  0  0
  186.0490  179.6190  147.6940 O   0  0  0  0  0  0  0  0  0  0  0  0
  187.1530  176.9040  145.5010 C   0  0  0  0  0  2  0  0  0  0  0  0
  188.0110  178.2800  147.9680 C   0  0  2  0  0  3  0  0  0  0  0  0
  186.7370  178.6610  147.2490 C   0  0  0  0  0  0  0  0  0  0  0  0
  190.3450  177.4970  147.4790 C   0  0  0  0  0  2  0  0  0  0  0  0
  191.1320  176.2050  147.3850 C   0  0  0  0  0  1  0  0  0  0  0  0
  193.5560  177.5260  139.4370 O   0  0  0  0  0  0  0  0  0  0  0  0
  192.8160  177.0480  138.5340 C   0  0  0  0  0  0  0  0  0  0  0  0
  191.4010  177.0270  138.7140 N   0  0  0  0  0  2  0  0  0  0  0  0
  193.4110  176.4070  137.3200 C   0  0  0  0  0  2  0  0  0  0  0  0
  192.3550  176.1430  136.2530 C   0  0  0  0  0  2  0  0  0  0  0  0
  193.9730  175.7150  134.6100 O   0  0  0  0  0  0  0  0  0  0  0  0
  192.9440  175.3220  135.1410 C   0  0  0  0  0  0  0  0  0  0  0  0
  192.3050  174.0510  134.6420 C   0  0  0  0  0  2  0  0  0  0  0  0
  191.9690  173.0730  135.7690 C   0  0  1  0  0  3  0  0  0  0  0  0
  193.1870  172.5670  136.4900 C   0  0  0  0  0  0  0  0  0  0  0  0
  193.5600  173.1470  137.5490 O   0  0  0  0  0  0  0  0  0  0  0  0
  193.8900  171.4610  136.0070 O   0  0  0  0  0  0  0  0  0  0  0  0
  193.2370  170.3770  135.3680 C   0  0  0  0  0  1  0  0  0  0  0  0
  190.9390  173.6640  136.7280 C   0  0  0  0  0  2  0  0  0  0  0  0
  189.7290  173.9220  136.0760 O   0  0  0  0  0  0  0  0  0  0  0  0
  189.0070  174.7190  136.9730 C   0  0  0  0  0  2  0  0  0  0  0  0
  184.9640  175.5440  136.4880 C   0  0  0  0  0  1  0  0  0  0  0  0
  185.8420  176.7650  136.7090 C   0  0  1  0  0  3  0  0  0  0  0  0
  187.3350  177.5690  135.1780 C   0  0  0  0  0  3  0  0  0  0  0  0
  188.1410  176.9010  136.2400 C   0  0  2  0  0  3  0  0  0  0  0  0
  187.8490  175.4650  136.3060 C   0  0  2  0  0  3  0  0  0  0  0  0
  187.1670  176.3970  137.2410 N   0  0  2  0  0  0  0  0  0  0  0  0
  186.0440  177.5110  135.4420 C   0  0  0  0  0  3  0  0  0  0  0  0
  1  7  1  0  0  0  0
  5  3  1  0  0  0  0
  5  1  1  0  0  0  0
  6  3  1  6  0  0  0
  6 11  1  0  0  0  0
  6  7  1  0  0  0  0
  7  4  1  0  0  0  0
  7  2  1  1  0  0  0
  8 13  1  6  0  0  0
  8 12  1  0  0  0  0
  9  8  1  0  0  0  0
 10 12  1  0  0  0  0
 11  9  1  6  0  0  0
 11 10  1  0  0  0  0
 12 21  1  1  0  0  0
 13 15  1  0  0  0  0
 14 13  2  0  0  0  0
 16 15  1  0  0  0  0
 16 19  1  0  0  0  0
 17 16  2  0  0  0  0
 19 18  2  0  0  0  0
 19 20  1  0  0  0  0
 21 22  1  0  0  0  0
 22 23  1  0  0  0  0
 23 30  1  0  0  0  0
 24 31  1  6  0  0  0
 24 29  1  0  0  0  0
 26 24  1  0  0  0  0
 28 26  1  0  0  0  0
 28 23  1  0  0  0  0
 29 25  1  1  0  0  0
 30 27  2  0  0  0  0
 30 29  1  0  0  0  0
 32 31  1  0  0  0  0
 34 35  1  0  0  0  0
 34 33  2  0  0  0  0
 35  5  1  0  0  0  0
 36 34  1  0  0  0  0
 37 36  1  0  0  0  0
 38 39  2  0  0  0  0
 39 37  1  0  0  0  0
 40 39  1  0  0  0  0
 41 40  1  6  0  0  0
 41 42  1  0  0  0  0
 41 46  1  0  0  0  0
 42 43  2  0  0  0  0
 44 42  1  0  0  0  0
 45 44  1  0  0  0  0
 47 46  1  0  0  0  0
 47 48  1  0  0  0  0
 50 49  1  6  0  0  0
 50 54  1  0  0  0  0
 51 55  2  0  0  0  0
 52 51  1  6  0  0  0
 52 53  1  0  0  0  0
 52 54  1  0  0  0  0
 53 48  1  1  0  0  0
 53 54  1  0  0  0  0
 55 50  1  0  0  0  0
M  END
>  <MODEL>
6

>  <REMARK>
 VINA RESULT:      -5.5      3.669      9.187
  Name = 
  21 active torsions:
  status: ('A' for Active; 'I' for Inactive)
    1  A    between atoms: C_1  and  C_2
    2  A    between atoms: C_1  and  O_8
    3  A    between atoms: N_3  and  C_29
    4  A    between atoms: C_4  and  C_6
    5  A    between atoms: O_8  and  C_24
    6  A    between atoms: C_9  and  C_24
    7  A    between atoms: C_11  and  C_46
    8  A    between atoms: C_12  and  C_26
    9  A    between atoms: C_12  and  C_53
   10  A    between atoms: C_15  and  C_16
   11  A    between atoms: C_15  and  C_25
   12  A    between atoms: C_15  and  C_37
   13  A    between atoms: C_16  and  C_51
   14  A    between atoms: C_25  and  O_33
   15  A    between atoms: C_26  and  C_51
   16  A    between atoms: C_27  and  C_29
   17  A    between atoms: C_27  and  C_49
   18  A    between atoms: C_31  and  C_47
   19  A    between atoms: N_36  and  N_54
   20  A    between atoms: C_37  and  O_41
   21  A    between atoms: O_41  and  C_47
                            x       y       z     vdW  Elec       q    Type
                         _______ _______ _______ _____ _____    ______ ____

>  <TORSDO>
F 21

$$$$
=
 OpenBabel11062415093D

 55 59  0  0  1  0  0  0  0  0999 V2000
  180.5860  178.2330  142.5740 S   0  0  0  0  0  0  0  0  0  0  0  0
  179.5950  176.1570  141.1060 C   0  0  0  0  0  1  0  0  0  0  0  0
  182.2840  178.5850  140.6360 C   0  0  0  0  0  2  0  0  0  0  0  0
  178.9310  178.3770  140.5490 O   0  0  0  0  0  1  0  0  0  0  0  0
  181.7170  179.3250  141.7590 N   0  0  0  0  0  0  0  0  0  0  0  0
  181.2030  177.7080  140.0160 C   0  0  1  0  0  3  0  0  0  0  0  0
  180.0160  177.6070  140.9740 C   0  0  1  0  0  0  0  0  0  0  0  0
  180.2080  179.5760  136.6700 C   0  0  2  0  0  3  0  0  0  0  0  0
  179.7240  179.5080  138.4170 S   0  0  0  0  0  0  0  0  0  0  0  0
  182.0260  178.3310  137.7780 N   0  0  0  0  0  2  0  0  0  0  0  0
  180.8330  178.0860  138.5730 C   0  0  1  0  0  3  0  0  0  0  0  0
  181.5970  178.9530  136.5330 C   0  0  1  0  0  3  0  0  0  0  0  0
  180.2260  180.9790  136.1590 C   0  0  0  0  0  0  0  0  0  0  0  0
  180.4130  181.1790  134.9250 O   0  0  0  0  0  0  0  0  0  0  0  0
  180.1190  182.0480  137.0540 O   0  0  0  0  0  0  0  0  0  0  0  0
  181.2040  182.7860  137.5390 C   0  0  0  0  0  0  0  0  0  0  0  0
  182.0110  182.2850  138.3720 O   0  0  0  0  0  0  0  0  0  0  0  0
  182.2720  184.8950  137.5910 O   0  0  0  0  0  1  0  0  0  0  0  0
  181.4760  184.1160  136.9870 C   0  0  0  0  0  0  0  0  0  0  0  0
  180.9550  184.4920  135.7490 O   0  0  0  0  0  0  0  0  0  0  0  0
  181.6870  177.9730  135.3670 C   0  0  0  0  0  2  0  0  0  0  0  0
  180.7680  176.7650  135.5660 C   0  0  0  0  0  2  0  0  0  0  0  0
  181.5490  175.5360  135.6430 N   0  0  0  0  0  0  0  0  0  0  0  0
  183.3710  173.3640  136.2460 C   0  0  2  0  0  3  0  0  0  0  0  0
  181.4220  171.9520  135.5670 C   0  0  0  0  0  1  0  0  0  0  0  0
  183.7490  174.8300  136.3920 C   0  0  0  0  0  2  0  0  0  0  0  0
  179.7590  174.2500  136.4440 O   0  0  0  0  0  0  0  0  0  0  0  0
  182.9740  175.6240  135.3580 C   0  0  0  0  0  2  0  0  0  0  0  0
  181.8620  173.1130  136.4410 C   0  0  2  0  0  3  0  0  0  0  0  0
  180.9870  174.3140  136.1630 C   0  0  0  0  0  0  0  0  0  0  0  0
  184.1710  172.5510  137.2480 C   0  0  0  0  0  2  0  0  0  0  0  0
  185.4770  173.2510  137.5660 C   0  0  0  0  0  1  0  0  0  0  0  0
  184.0550  177.8230  141.8020 O   0  0  0  0  0  0  0  0  0  0  0  0
  183.9350  178.7430  142.6560 C   0  0  0  0  0  0  0  0  0  0  0  0
  182.7640  179.5580  142.6600 N   0  0  0  0  0  2  0  0  0  0  0  0
  185.0520  179.0590  143.6000 C   0  0  0  0  0  2  0  0  0  0  0  0
  185.2510  177.9450  144.6220 C   0  0  0  0  0  2  0  0  0  0  0  0
  187.1230  178.2430  146.0040 O   0  0  0  0  0  0  0  0  0  0  0  0
  186.7110  177.7980  144.9410 C   0  0  0  0  0  0  0  0  0  0  0  0
  187.6890  177.1450  143.9970 C   0  0  0  0  0  2  0  0  0  0  0  0
  188.8350  178.0730  143.5920 C   0  0  1  0  0  3  0  0  0  0  0  0
  189.9980  178.0190  144.5440 C   0  0  0  0  0  0  0  0  0  0  0  0
  190.7390  179.0360  144.6670 O   0  0  0  0  0  0  0  0  0  0  0  0
  190.2480  176.8680  145.2950 O   0  0  0  0  0  0  0  0  0  0  0  0
  191.5100  176.6200  145.8910 C   0  0  0  0  0  1  0  0  0  0  0  0
  189.2650  177.8260  142.1490 C   0  0  0  0  0  2  0  0  0  0  0  0
  188.2030  178.0270  141.2630 O   0  0  0  0  0  0  0  0  0  0  0  0
  188.8110  178.1930  140.0120 C   0  0  0  0  0  2  0  0  0  0  0  0
  185.3970  177.9240  137.6590 C   0  0  0  0  0  1  0  0  0  0  0  0
  186.6980  178.0650  136.8840 C   0  0  1  0  0  3  0  0  0  0  0  0
  188.2870  176.4310  136.7320 C   0  0  0  0  0  3  0  0  0  0  0  0
  188.8300  177.4610  137.6650 C   0  0  2  0  0  3  0  0  0  0  0  0
  188.0010  177.5780  138.8700 C   0  0  2  0  0  3  0  0  0  0  0  0
  187.8020  178.5280  137.7450 N   0  0  2  0  0  0  0  0  0  0  0  0
  187.0970  176.7720  136.2770 C   0  0  0  0  0  3  0  0  0  0  0  0
  3  5  1  0  0  0  0
  4  7  1  0  0  0  0
  5  1  1  0  0  0  0
  5 35  1  0  0  0  0
  6  3  1  1  0  0  0
  6  7  1  0  0  0  0
  7  2  1  1  0  0  0
  7  1  1  0  0  0  0
  8 13  1  1  0  0  0
  8  9  1  0  0  0  0
  9 11  1  0  0  0  0
 11 10  1  6  0  0  0
 11  6  1  0  0  0  0
 12 21  1  6  0  0  0
 12  8  1  0  0  0  0
 12 10  1  0  0  0  0
 13 15  1  0  0  0  0
 14 13  2  0  0  0  0
 15 16  1  0  0  0  0
 16 17  2  0  0  0  0
 19 16  1  0  0  0  0
 19 18  1  0  0  0  0
 20 19  2  0  0  0  0
 21 22  1  0  0  0  0
 22 23  1  0  0  0  0
 23 30  1  0  0  0  0
 24 26  1  0  0  0  0
 24 29  1  0  0  0  0
 24 31  1  1  0  0  0
 28 23  1  0  0  0  0
 28 26  1  0  0  0  0
 29 25  1  6  0  0  0
 30 29  1  0  0  0  0
 30 27  2  0  0  0  0
 31 32  1  0  0  0  0
 33 34  2  0  0  0  0
 34 35  1  0  0  0  0
 34 36  1  0  0  0  0
 36 37  1  0  0  0  0
 37 39  1  0  0  0  0
 39 38  2  0  0  0  0
 40 39  1  0  0  0  0
 41 46  1  6  0  0  0
 41 40  1  0  0  0  0
 41 42  1  0  0  0  0
 42 43  2  0  0  0  0
 42 44  1  0  0  0  0
 44 45  1  0  0  0  0
 47 46  1  0  0  0  0
 48 47  1  0  0  0  0
 50 49  1  1  0  0  0
 50 54  1  0  0  0  0
 52 51  1  6  0  0  0
 52 54  1  0  0  0  0
 52 53  1  0  0  0  0
 53 48  1  1  0  0  0
 54 53  1  0  0  0  0
 55 51  2  0  0  0  0
 55 50  1  0  0  0  0
M  END
>  <MODEL>
7

>  <REMARK>
 VINA RESULT:      -5.5      2.859      5.784
  Name = 
  21 active torsions:
  status: ('A' for Active; 'I' for Inactive)
    1  A    between atoms: C_1  and  C_2
    2  A    between atoms: C_1  and  O_8
    3  A    between atoms: N_3  and  C_29
    4  A    between atoms: C_4  and  C_6
    5  A    between atoms: O_8  and  C_24
    6  A    between atoms: C_9  and  C_24
    7  A    between atoms: C_11  and  C_46
    8  A    between atoms: C_12  and  C_26
    9  A    between atoms: C_12  and  C_53
   10  A    between atoms: C_15  and  C_16
   11  A    between atoms: C_15  and  C_25
   12  A    between atoms: C_15  and  C_37
   13  A    between atoms: C_16  and  C_51
   14  A    between atoms: C_25  and  O_33
   15  A    between atoms: C_26  and  C_51
   16  A    between atoms: C_27  and  C_29
   17  A    between atoms: C_27  and  C_49
   18  A    between atoms: C_31  and  C_47
   19  A    between atoms: N_36  and  N_54
   20  A    between atoms: C_37  and  O_41
   21  A    between atoms: O_41  and  C_47
                            x       y       z     vdW  Elec       q    Type
                         _______ _______ _______ _____ _____    ______ ____

>  <TORSDO>
F 21

$$$$
=
 OpenBabel11062415093D

 55 59  0  0  1  0  0  0  0  0999 V2000
  190.7540  177.5110  140.0960 S   0  0  0  0  0  0  0  0  0  0  0  0
  190.0230  176.2670  142.4130 C   0  0  0  0  0  1  0  0  0  0  0  0
  188.2190  177.5730  139.5160 C   0  0  0  0  0  2  0  0  0  0  0  0
  189.8240  178.6380  142.2700 O   0  0  0  0  0  1  0  0  0  0  0  0
  189.4590  178.2420  139.1340 N   0  0  0  0  0  0  0  0  0  0  0  0
  188.2420  177.2930  141.0130 C   0  0  1  0  0  3  0  0  0  0  0  0
  189.6670  177.4570  141.5430 C   0  0  1  0  0  0  0  0  0  0  0  0
  184.9340  179.0490  142.2950 C   0  0  2  0  0  3  0  0  0  0  0  0
  185.9720  178.9630  140.8110 S   0  0  0  0  0  0  0  0  0  0  0  0
  186.4480  177.1450  142.6980 N   0  0  0  0  0  2  0  0  0  0  0  0
  187.1690  178.0470  141.8140 C   0  0  1  0  0  3  0  0  0  0  0  0
  185.2830  177.8630  143.1940 C   0  0  1  0  0  3  0  0  0  0  0  0
  183.4810  179.0180  141.9520 C   0  0  0  0  0  0  0  0  0  0  0  0
  182.6350  178.8540  142.8780 O   0  0  0  0  0  0  0  0  0  0  0  0
  183.0790  179.0870  140.6150 O   0  0  0  0  0  0  0  0  0  0  0  0
  182.9330  177.9790  139.7730 C   0  0  0  0  0  0  0  0  0  0  0  0
  182.7160  176.8280  140.2460 O   0  0  0  0  0  0  0  0  0  0  0  0
  183.7990  177.6230  137.6020 O   0  0  0  0  0  0  0  0  0  0  0  0
  182.9140  178.1740  138.3200 C   0  0  0  0  0  0  0  0  0  0  0  0
  181.8700  178.8700  137.7100 O   0  0  0  0  0  1  0  0  0  0  0  0
  185.4640  178.2670  144.6540 C   0  0  0  0  0  2  0  0  0  0  0  0
  186.8090  178.9600  144.8910 C   0  0  0  0  0  2  0  0  0  0  0  0
  187.6840  178.1150  145.6930 N   0  0  0  0  0  0  0  0  0  0  0  0
  189.8490  176.8030  147.1060 C   0  0  2  0  0  3  0  0  0  0  0  0
  188.0720  176.3970  148.8180 C   0  0  0  0  0  1  0  0  0  0  0  0
  190.0230  177.4610  145.7460 C   0  0  0  0  0  2  0  0  0  0  0  0
  186.8060  178.8550  147.7370 O   0  0  0  0  0  0  0  0  0  0  0  0
  188.7100  177.3530  144.9950 C   0  0  0  0  0  2  0  0  0  0  0  0
  188.7300  177.4510  147.9460 C   0  0  2  0  0  3  0  0  0  0  0  0
  187.6730  178.1660  147.1350 C   0  0  0  0  0  0  0  0  0  0  0  0
  191.1690  176.8680  147.8540 C   0  0  0  0  0  2  0  0  0  0  0  0
  192.0060  175.6420  147.5460 C   0  0  0  0  0  1  0  0  0  0  0  0
  188.1030  179.3670  136.9840 O   0  0  0  0  0  0  0  0  0  0  0  0
  188.9710  178.4860  136.7330 C   0  0  0  0  0  0  0  0  0  0  0  0
  189.7110  177.8960  137.8000 N   0  0  0  0  0  2  0  0  0  0  0  0
  189.3070  178.1270  135.3200 C   0  0  0  0  0  2  0  0  0  0  0  0
  189.3630  176.6170  135.1260 C   0  0  0  0  0  2  0  0  0  0  0  0
  187.0440  176.3730  134.8660 O   0  0  0  0  0  0  0  0  0  0  0  0
  188.0370  176.0050  135.4780 C   0  0  0  0  0  0  0  0  0  0  0  0
  187.8800  174.9750  136.5680 C   0  0  0  0  0  2  0  0  0  0  0  0
  188.7360  173.7290  136.3370 C   0  0  1  0  0  3  0  0  0  0  0  0
  190.1450  173.8830  136.8380 C   0  0  0  0  0  0  0  0  0  0  0  0
  190.3440  174.4560  137.9470 O   0  0  0  0  0  0  0  0  0  0  0  0
  191.2200  173.3870  136.0970 O   0  0  0  0  0  0  0  0  0  0  0  0
  191.0320  172.6630  134.8930 C   0  0  0  0  0  1  0  0  0  0  0  0
  188.0610  172.4800  136.8990 C   0  0  0  0  0  2  0  0  0  0  0  0
  186.7000  172.7000  137.1280 O   0  0  0  0  0  0  0  0  0  0  0  0
  186.0480  171.8560  136.2200 C   0  0  0  0  0  2  0  0  0  0  0  0
  182.0500  170.8540  135.6910 C   0  0  0  0  0  1  0  0  0  0  0  0
  182.3170  171.8460  136.8120 C   0  0  1  0  0  3  0  0  0  0  0  0
  182.9760  174.0090  136.4850 C   0  0  0  0  0  3  0  0  0  0  0  0
  184.1800  173.2700  136.9660 C   0  0  2  0  0  3  0  0  0  0  0  0
  184.5760  172.2230  136.0170 C   0  0  2  0  0  3  0  0  0  0  0  0
  183.7410  171.8710  137.1940 N   0  0  2  0  0  0  0  0  0  0  0  0
  181.9220  173.2190  136.4110 C   0  0  0  0  0  3  0  0  0  0  0  0
  1  7  1  0  0  0  0
  5  3  1  0  0  0  0
  5  1  1  0  0  0  0
  6  3  1  6  0  0  0
  6  7  1  0  0  0  0
  6 11  1  0  0  0  0
  7  4  1  0  0  0  0
  7  2  1  1  0  0  0
  8 13  1  6  0  0  0
  8 12  1  0  0  0  0
  9  8  1  0  0  0  0
 10 12  1  0  0  0  0
 11  9  1  6  0  0  0
 11 10  1  0  0  0  0
 12 21  1  1  0  0  0
 13 14  2  0  0  0  0
 15 13  1  0  0  0  0
 16 17  2  0  0  0  0
 16 15  1  0  0  0  0
 18 19  2  0  0  0  0
 19 16  1  0  0  0  0
 20 19  1  0  0  0  0
 21 22  1  0  0  0  0
 22 23  1  0  0  0  0
 23 30  1  0  0  0  0
 24 31  1  1  0  0  0
 24 29  1  0  0  0  0
 26 24  1  0  0  0  0
 28 23  1  0  0  0  0
 28 26  1  0  0  0  0
 29 25  1  6  0  0  0
 30 27  2  0  0  0  0
 30 29  1  0  0  0  0
 32 31  1  0  0  0  0
 34 33  2  0  0  0  0
 34 35  1  0  0  0  0
 35  5  1  0  0  0  0
 36 34  1  0  0  0  0
 37 36  1  0  0  0  0
 37 39  1  0  0  0  0
 38 39  2  0  0  0  0
 39 40  1  0  0  0  0
 41 40  1  1  0  0  0
 41 42  1  0  0  0  0
 41 46  1  0  0  0  0
 42 43  2  0  0  0  0
 44 42  1  0  0  0  0
 45 44  1  0  0  0  0
 46 47  1  0  0  0  0
 48 47  1  0  0  0  0
 50 49  1  6  0  0  0
 50 54  1  0  0  0  0
 52 51  1  6  0  0  0
 52 54  1  0  0  0  0
 53 48  1  1  0  0  0
 53 52  1  0  0  0  0
 53 54  1  0  0  0  0
 55 51  2  0  0  0  0
 55 50  1  0  0  0  0
M  END
>  <MODEL>
8

>  <REMARK>
 VINA RESULT:      -5.3      2.585      9.511
  Name = 
  21 active torsions:
  status: ('A' for Active; 'I' for Inactive)
    1  A    between atoms: C_1  and  C_2
    2  A    between atoms: C_1  and  O_8
    3  A    between atoms: N_3  and  C_29
    4  A    between atoms: C_4  and  C_6
    5  A    between atoms: O_8  and  C_24
    6  A    between atoms: C_9  and  C_24
    7  A    between atoms: C_11  and  C_46
    8  A    between atoms: C_12  and  C_26
    9  A    between atoms: C_12  and  C_53
   10  A    between atoms: C_15  and  C_16
   11  A    between atoms: C_15  and  C_25
   12  A    between atoms: C_15  and  C_37
   13  A    between atoms: C_16  and  C_51
   14  A    between atoms: C_25  and  O_33
   15  A    between atoms: C_26  and  C_51
   16  A    between atoms: C_27  and  C_29
   17  A    between atoms: C_27  and  C_49
   18  A    between atoms: C_31  and  C_47
   19  A    between atoms: N_36  and  N_54
   20  A    between atoms: C_37  and  O_41
   21  A    between atoms: O_41  and  C_47
                            x       y       z     vdW  Elec       q    Type
                         _______ _______ _______ _____ _____    ______ ____

>  <TORSDO>
F 21

$$$$
=
 OpenBabel11062415093D

 55 59  0  0  1  0  0  0  0  0999 V2000
  183.7400  178.2390  141.9020 S   0  0  0  0  0  0  0  0  0  0  0  0
  185.3010  179.6420  143.6460 C   0  0  0  0  0  1  0  0  0  0  0  0
  185.4670  178.8980  140.0730 C   0  0  0  0  0  2  0  0  0  0  0  0
  185.9470  177.4250  143.0550 O   0  0  0  0  0  1  0  0  0  0  0  0
  184.4230  177.9040  140.3020 N   0  0  0  0  0  0  0  0  0  0  0  0
  186.2040  179.1630  141.3790 C   0  0  1  0  0  3  0  0  0  0  0  0
  185.3920  178.6020  142.5470 C   0  0  1  0  0  0  0  0  0  0  0  0
  189.7410  177.5350  142.0940 C   0  0  2  0  0  3  0  0  0  0  0  0
  188.3690  178.3180  142.9860 S   0  0  0  0  0  0  0  0  0  0  0  0
  187.9020  177.6330  140.4560 N   0  0  0  0  0  2  0  0  0  0  0  0
  187.6830  178.7450  141.3660 C   0  0  1  0  0  3  0  0  0  0  0  0
  189.2390  177.1180  140.7130 C   0  0  1  0  0  3  0  0  0  0  0  0
  190.2640  176.3430  142.8280 C   0  0  0  0  0  0  0  0  0  0  0  0
  189.6610  175.2380  142.7110 O   0  0  0  0  0  0  0  0  0  0  0  0
  191.3540  176.4810  143.6930 O   0  0  0  0  0  0  0  0  0  0  0  0
  191.4410  177.4340  144.7130 C   0  0  0  0  0  0  0  0  0  0  0  0
  191.6680  178.6490  144.4490 O   0  0  0  0  0  0  0  0  0  0  0  0
  189.9970  177.2490  146.5750 O   0  0  0  0  0  0  0  0  0  0  0  0
  191.1500  177.0410  146.0940 C   0  0  0  0  0  0  0  0  0  0  0  0
  192.0930  176.3430  146.8490 O   0  0  0  0  0  1  0  0  0  0  0  0
  190.2040  177.5070  139.5960 C   0  0  0  0  0  2  0  0  0  0  0  0
  189.4760  178.1420  138.4090 C   0  0  0  0  0  2  0  0  0  0  0  0
  189.0810  177.1210  137.4460 N   0  0  0  0  0  0  0  0  0  0  0  0
  188.2690  174.7420  136.0040 C   0  0  2  0  0  3  0  0  0  0  0  0
  187.0330  176.3940  134.5940 C   0  0  0  0  0  1  0  0  0  0  0  0
  189.1800  174.7050  137.2230 C   0  0  0  0  0  2  0  0  0  0  0  0
  186.9810  178.0800  137.0370 O   0  0  0  0  0  0  0  0  0  0  0  0
  189.9810  175.9930  137.2550 C   0  0  0  0  0  2  0  0  0  0  0  0
  187.3000  175.9410  136.0180 C   0  0  2  0  0  3  0  0  0  0  0  0
  187.7720  177.1180  136.8410 C   0  0  0  0  0  0  0  0  0  0  0  0
  187.4910  173.4400  135.9360 C   0  0  0  0  0  2  0  0  0  0  0  0
  186.1750  173.5770  136.6770 C   0  0  0  0  0  1  0  0  0  0  0  0
  183.9260  176.2890  138.0960 O   0  0  0  0  0  0  0  0  0  0  0  0
  183.2070  177.3150  138.2450 C   0  0  0  0  0  0  0  0  0  0  0  0
  183.4070  178.1630  139.3740 N   0  0  0  0  0  2  0  0  0  0  0  0
  182.0770  177.5970  137.3050 C   0  0  0  0  0  2  0  0  0  0  0  0
  181.0020  176.5200  137.3860 C   0  0  0  0  0  2  0  0  0  0  0  0
  180.8650  175.9780  139.6640 O   0  0  0  0  0  0  0  0  0  0  0  0
  180.3330  176.5620  138.7310 C   0  0  0  0  0  0  0  0  0  0  0  0
  179.0260  177.2760  138.9670 C   0  0  0  0  0  2  0  0  0  0  0  0
  179.2090  178.7520  139.3210 C   0  0  1  0  0  3  0  0  0  0  0  0
  179.6960  178.9620  140.7290 C   0  0  0  0  0  0  0  0  0  0  0  0
  180.6870  179.7190  140.9300 O   0  0  0  0  0  0  0  0  0  0  0  0
  179.0530  178.3400  141.8010 O   0  0  0  0  0  0  0  0  0  0  0  0
  179.7520  177.9510  142.9720 C   0  0  0  0  0  1  0  0  0  0  0  0
  180.0910  179.4630  138.2980 C   0  0  0  0  0  2  0  0  0  0  0  0
  179.3970  180.4970  137.6630 O   0  0  0  0  0  0  0  0  0  0  0  0
  179.7280  181.6460  138.3910 C   0  0  0  0  0  2  0  0  0  0  0  0
  179.9490  185.7630  137.8780 C   0  0  0  0  0  1  0  0  0  0  0  0
  181.0360  184.9720  137.1680 C   0  0  1  0  0  3  0  0  0  0  0  0
  180.6760  183.6400  135.3470 C   0  0  0  0  0  3  0  0  0  0  0  0
  180.8810  182.7220  136.5060 C   0  0  2  0  0  3  0  0  0  0  0  0
  179.8320  182.8960  137.5160 C   0  0  2  0  0  3  0  0  0  0  0  0
  181.1340  183.5930  137.6810 N   0  0  2  0  0  0  0  0  0  0  0  0
  180.7770  184.9040  135.7090 C   0  0  0  0  0  3  0  0  0  0  0  0
  1  7  1  0  0  0  0
  3  5  1  0  0  0  0
  5  1  1  0  0  0  0
  6  3  1  6  0  0  0
  6  7  1  0  0  0  0
  7  4  1  0  0  0  0
  7  2  1  1  0  0  0
  8 13  1  1  0  0  0
  8  9  1  0  0  0  0
 10 12  1  0  0  0  0
 11 10  1  6  0  0  0
 11  6  1  0  0  0  0
 11  9  1  0  0  0  0
 12 21  1  6  0  0  0
 12  8  1  0  0  0  0
 13 15  1  0  0  0  0
 14 13  2  0  0  0  0
 15 16  1  0  0  0  0
 16 19  1  0  0  0  0
 17 16  2  0  0  0  0
 19 18  2  0  0  0  0
 19 20  1  0  0  0  0
 22 21  1  0  0  0  0
 23 22  1  0  0  0  0
 24 31  1  1  0  0  0
 24 29  1  0  0  0  0
 24 26  1  0  0  0  0
 26 28  1  0  0  0  0
 28 23  1  0  0  0  0
 29 25  1  6  0  0  0
 29 30  1  0  0  0  0
 30 27  2  0  0  0  0
 30 23  1  0  0  0  0
 31 32  1  0  0  0  0
 33 34  2  0  0  0  0
 34 35  1  0  0  0  0
 35  5  1  0  0  0  0
 36 37  1  0  0  0  0
 36 34  1  0  0  0  0
 37 39  1  0  0  0  0
 39 40  1  0  0  0  0
 39 38  2  0  0  0  0
 40 41  1  0  0  0  0
 41 46  1  6  0  0  0
 41 42  1  0  0  0  0
 42 43  2  0  0  0  0
 42 44  1  0  0  0  0
 44 45  1  0  0  0  0
 47 46  1  0  0  0  0
 47 48  1  0  0  0  0
 50 54  1  0  0  0  0
 50 49  1  1  0  0  0
 51 55  2  0  0  0  0
 52 51  1  6  0  0  0
 52 53  1  0  0  0  0
 52 54  1  0  0  0  0
 53 54  1  0  0  0  0
 53 48  1  1  0  0  0
 55 50  1  0  0  0  0
M  END
>  <MODEL>
9

>  <REMARK>
 VINA RESULT:      -5.2      3.223      9.889
  Name = 
  21 active torsions:
  status: ('A' for Active; 'I' for Inactive)
    1  A    between atoms: C_1  and  C_2
    2  A    between atoms: C_1  and  O_8
    3  A    between atoms: N_3  and  C_29
    4  A    between atoms: C_4  and  C_6
    5  A    between atoms: O_8  and  C_24
    6  A    between atoms: C_9  and  C_24
    7  A    between atoms: C_11  and  C_46
    8  A    between atoms: C_12  and  C_26
    9  A    between atoms: C_12  and  C_53
   10  A    between atoms: C_15  and  C_16
   11  A    between atoms: C_15  and  C_25
   12  A    between atoms: C_15  and  C_37
   13  A    between atoms: C_16  and  C_51
   14  A    between atoms: C_25  and  O_33
   15  A    between atoms: C_26  and  C_51
   16  A    between atoms: C_27  and  C_29
   17  A    between atoms: C_27  and  C_49
   18  A    between atoms: C_31  and  C_47
   19  A    between atoms: N_36  and  N_54
   20  A    between atoms: C_37  and  O_41
   21  A    between atoms: O_41  and  C_47
                            x       y       z     vdW  Elec       q    Type
                         _______ _______ _______ _____ _____    ______ ____

>  <TORSDO>
F 21

$$$$
