=
 OpenBabel11062412283D

 37 39  0  0  1  0  0  0  0  0999 V2000
  183.5920  178.9980  145.4230 C   0  0  0  0  0  3  0  0  0  0  0  0
  185.8180  178.1350  145.5810 C   0  0  0  0  0  0  0  0  0  0  0  0
  186.9530  177.4360  143.4630 C   0  0  0  0  0  3  0  0  0  0  0  0
  184.6440  178.7370  146.1410 N   0  0  0  0  0  0  0  0  0  0  0  0
  185.9370  178.0220  144.1040 C   0  0  0  0  0  0  0  0  0  0  0  0
  183.5180  178.6040  143.9700 C   0  0  2  0  0  3  0  0  0  0  0  0
  186.7360  177.7440  146.3510 O   0  0  0  0  0  0  0  0  0  0  0  0
  184.8820  178.6940  143.2790 C   0  0  0  0  0  2  0  0  0  0  0  0
  182.4460  179.3940  143.2270 C   0  0  0  0  0  2  0  0  0  0  0  0
  181.4420  178.4870  142.5240 C   0  0  0  0  0  2  0  0  0  0  0  0
  183.0750  179.5330  139.2070 C   0  0  0  0  0  0  0  0  0  0  0  0
  179.9580  179.8040  137.2050 F   0  0  0  0  0  0  0  0  0  0  0  0
  184.0490  180.2550  139.0770 O   0  0  0  0  0  0  0  0  0  0  0  0
  180.6670  180.0230  140.7320 C   0  0  0  0  0  3  0  0  0  0  0  0
  181.4370  178.7630  141.0310 C   0  0  1  0  0  3  0  0  0  0  0  0
  182.1540  179.3490  138.0240 C   0  0  1  0  0  3  0  0  0  0  0  0
  182.4840  178.0610  137.2910 C   0  0  0  0  0  1  0  0  0  0  0  0
  182.8840  178.8180  140.5240 C   0  0  0  0  0  2  0  0  0  0  0  0
  180.6500  179.4090  138.3350 C   0  0  1  0  0  3  0  0  0  0  0  0
  180.3050  180.3240  139.4790 C   0  0  0  0  0  3  0  0  0  0  0  0
  188.1010  176.7540  144.1280 C   0  0  0  0  0  2  0  0  0  0  0  0
  189.0270  176.1900  143.0700 C   0  0  0  0  0  2  0  0  0  0  0  0
  189.7060  177.3160  142.3030 C   0  0  2  0  0  3  0  0  0  0  0  0
  188.7140  178.3150  140.2540 C   0  0  0  0  0  3  0  0  0  0  0  0
  189.3040  177.2790  140.8540 C   0  0  0  0  0  3  0  0  0  0  0  0
  187.4010  176.1950  135.9320 O   0  0  0  0  0  1  0  0  0  0  0  0
  188.3100  178.2370  138.8190 C   0  0  1  0  0  3  0  0  0  0  0  0
  188.8160  176.6380  138.1050 S   0  0  0  0  0  0  0  0  0  0  0  0
  186.5040  177.8070  137.4270 C   0  0  0  0  0  2  0  0  0  0  0  0
  186.8650  178.3700  138.7140 N   0  0  0  0  0  2  0  0  0  0  0  0
  187.2120  176.4820  137.2840 C   0  0  1  0  0  3  0  0  0  0  0  0
  191.2240  177.2410  142.4670 C   0  0  0  0  0  2  0  0  0  0  0  0
  191.6260  177.5400  143.8710 C   0  0  0  0  0  0  0  0  0  0  0  0
  191.8600  178.7310  144.2130 O   0  0  0  0  0  0  0  0  0  0  0  0
  191.7710  176.4910  144.7800 O   0  0  0  0  0  0  0  0  0  0  0  0
  191.4690  176.6370  146.1310 C   0  0  0  0  0  3  0  0  0  0  0  0
  192.1320  175.9350  147.0350 C   0  0  0  0  0  2  0  0  0  0  0  0
  1  4  2  0  0  0  0
  2  4  1  0  0  0  0
  2  7  2  0  0  0  0
  3  5  2  0  0  0  0
  3 21  1  0  0  0  0
  5  2  1  0  0  0  0
  6  9  1  6  0  0  0
  6  1  1  0  0  0  0
  8  6  1  0  0  0  0
  8  5  1  0  0  0  0
 10  9  1  0  0  0  0
 11 18  1  0  0  0  0
 13 11  2  0  0  0  0
 14 15  1  0  0  0  0
 15 10  1  1  0  0  0
 16 17  1  1  0  0  0
 16 19  1  0  0  0  0
 16 11  1  0  0  0  0
 18 15  1  0  0  0  0
 19 12  1  6  0  0  0
 19 20  1  0  0  0  0
 20 14  2  0  0  0  0
 22 21  1  0  0  0  0
 23 25  1  6  0  0  0
 23 32  1  0  0  0  0
 23 22  1  0  0  0  0
 24 25  2  0  0  0  0
 27 24  1  1  0  0  0
 28 27  1  0  0  0  0
 29 30  1  0  0  0  0
 30 27  1  0  0  0  0
 31 26  1  6  0  0  0
 31 29  1  0  0  0  0
 31 28  1  0  0  0  0
 32 33  1  0  0  0  0
 33 34  2  0  0  0  0
 33 35  1  0  0  0  0
 35 36  1  0  0  0  0
 36 37  2  0  0  0  0
M  END
>  <MODEL>
1

>  <REMARK>
 VINA RESULT:      -8.5      0.000      0.000
  Name = 
  12 active torsions:
  status: ('A' for Active; 'I' for Inactive)
    1  A    between atoms: C_2  and  C_29
    2  A    between atoms: C_2  and  C_34
    3  A    between atoms: O_6  and  C_7
    4  A    between atoms: O_6  and  C_17
    5  A    between atoms: C_8  and  C_17
    6  A    between atoms: C_8  and  C_29
    7  A    between atoms: C_9  and  C_28
    8  A    between atoms: C_11  and  C_15
    9  A    between atoms: C_11  and  C_16
   10  A    between atoms: C_15  and  C_24
   11  A    between atoms: C_19  and  C_34
   12  A    between atoms: C_29  and  C_35
                            x       y       z     vdW  Elec       q    Type
                         _______ _______ _______ _____ _____    ______ ____

>  <TORSDO>
F 12

$$$$
=
 OpenBabel11062412283D

 37 39  0  0  1  0  0  0  0  0999 V2000
  183.5810  178.9030  144.8830 C   0  0  0  0  0  3  0  0  0  0  0  0
  182.4580  178.8790  142.7700 C   0  0  0  0  0  0  0  0  0  0  0  0
  183.8520  178.6050  140.7100 C   0  0  0  0  0  3  0  0  0  0  0  0
  182.4730  178.9050  144.2030 N   0  0  0  0  0  0  0  0  0  0  0  0
  183.7230  178.6040  142.0400 C   0  0  0  0  0  0  0  0  0  0  0  0
  184.9210  178.9580  144.1950 C   0  0  2  0  0  3  0  0  0  0  0  0
  181.3690  179.0600  142.1630 O   0  0  0  0  0  0  0  0  0  0  0  0
  184.9140  178.2100  142.8590 C   0  0  0  0  0  2  0  0  0  0  0  0
  186.0440  178.4830  145.1120 C   0  0  0  0  0  2  0  0  0  0  0  0
  186.6540  177.1660  144.6460 C   0  0  0  0  0  2  0  0  0  0  0  0
  189.9880  176.0490  143.0980 C   0  0  0  0  0  0  0  0  0  0  0  0
  192.0290  178.9410  144.2230 F   0  0  0  0  0  0  0  0  0  0  0  0
  190.3970  174.9030  143.0100 O   0  0  0  0  0  0  0  0  0  0  0  0
  188.9930  177.4260  145.4390 C   0  0  0  0  0  3  0  0  0  0  0  0
  188.0980  177.3730  144.2280 C   0  0  1  0  0  3  0  0  0  0  0  0
  190.9880  177.1770  142.9970 C   0  0  1  0  0  3  0  0  0  0  0  0
  191.0090  177.7410  141.5880 C   0  0  0  0  0  1  0  0  0  0  0  0
  188.5010  176.2700  143.2410 C   0  0  0  0  0  2  0  0  0  0  0  0
  190.8150  178.3130  144.0180 C   0  0  1  0  0  3  0  0  0  0  0  0
  190.2560  177.8590  145.3400 C   0  0  0  0  0  3  0  0  0  0  0  0
  182.7610  178.9380  139.7480 C   0  0  0  0  0  2  0  0  0  0  0  0
  183.2720  178.7560  138.3330 C   0  0  0  0  0  2  0  0  0  0  0  0
  183.8350  177.3560  138.1450 C   0  0  2  0  0  3  0  0  0  0  0  0
  186.1790  178.1820  138.0500 C   0  0  0  0  0  3  0  0  0  0  0  0
  185.2090  177.4210  137.5370 C   0  0  0  0  0  3  0  0  0  0  0  0
  190.8340  176.7670  136.9450 O   0  0  0  0  0  1  0  0  0  0  0  0
  187.5250  178.2380  137.4090 C   0  0  1  0  0  3  0  0  0  0  0  0
  188.7540  177.3720  138.4380 S   0  0  0  0  0  0  0  0  0  0  0  0
  188.8320  177.2540  135.7640 C   0  0  0  0  0  2  0  0  0  0  0  0
  187.4650  177.6040  136.1010 N   0  0  0  0  0  2  0  0  0  0  0  0
  189.4510  176.5840  136.9670 C   0  0  1  0  0  3  0  0  0  0  0  0
  182.8880  176.5010  137.3040 C   0  0  0  0  0  2  0  0  0  0  0  0
  182.3310  175.3730  138.1030 C   0  0  0  0  0  0  0  0  0  0  0  0
  182.1190  174.2610  137.5490 O   0  0  0  0  0  0  0  0  0  0  0  0
  182.0190  175.5760  139.4490 O   0  0  0  0  0  0  0  0  0  0  0  0
  180.7140  175.4910  139.9250 C   0  0  0  0  0  3  0  0  0  0  0  0
  179.9630  176.5780  139.9940 C   0  0  0  0  0  2  0  0  0  0  0  0
  2  4  1  0  0  0  0
  3  5  2  0  0  0  0
  4  1  2  0  0  0  0
  5  2  1  0  0  0  0
  5  8  1  0  0  0  0
  6  1  1  0  0  0  0
  6  9  1  1  0  0  0
  7  2  2  0  0  0  0
  8  6  1  0  0  0  0
 10  9  1  0  0  0  0
 11 18  1  0  0  0  0
 13 11  2  0  0  0  0
 15 10  1  1  0  0  0
 15 14  1  0  0  0  0
 16 17  1  6  0  0  0
 16 11  1  0  0  0  0
 16 19  1  0  0  0  0
 18 15  1  0  0  0  0
 19 12  1  1  0  0  0
 19 20  1  0  0  0  0
 20 14  2  0  0  0  0
 21  3  1  0  0  0  0
 22 21  1  0  0  0  0
 23 32  1  6  0  0  0
 23 22  1  0  0  0  0
 25 24  2  0  0  0  0
 25 23  1  0  0  0  0
 27 24  1  1  0  0  0
 27 28  1  0  0  0  0
 29 30  1  0  0  0  0
 29 31  1  0  0  0  0
 30 27  1  0  0  0  0
 31 26  1  6  0  0  0
 31 28  1  0  0  0  0
 32 33  1  0  0  0  0
 33 35  1  0  0  0  0
 34 33  2  0  0  0  0
 35 36  1  0  0  0  0
 36 37  2  0  0  0  0
M  END
>  <MODEL>
2

>  <REMARK>
 VINA RESULT:      -8.3      3.209      7.867
  Name = 
  12 active torsions:
  status: ('A' for Active; 'I' for Inactive)
    1  A    between atoms: C_2  and  C_29
    2  A    between atoms: C_2  and  C_34
    3  A    between atoms: O_6  and  C_7
    4  A    between atoms: O_6  and  C_17
    5  A    between atoms: C_8  and  C_17
    6  A    between atoms: C_8  and  C_29
    7  A    between atoms: C_9  and  C_28
    8  A    between atoms: C_11  and  C_15
    9  A    between atoms: C_11  and  C_16
   10  A    between atoms: C_15  and  C_24
   11  A    between atoms: C_19  and  C_34
   12  A    between atoms: C_29  and  C_35
                            x       y       z     vdW  Elec       q    Type
                         _______ _______ _______ _____ _____    ______ ____

>  <TORSDO>
F 12

$$$$
=
 OpenBabel11062412283D

 37 39  0  0  1  0  0  0  0  0999 V2000
  183.5100  178.9660  145.0870 C   0  0  0  0  0  3  0  0  0  0  0  0
  182.7350  178.9000  142.8240 C   0  0  0  0  0  0  0  0  0  0  0  0
  184.4380  178.6020  141.0150 C   0  0  0  0  0  3  0  0  0  0  0  0
  182.5230  178.9490  144.2410 N   0  0  0  0  0  0  0  0  0  0  0  0
  184.1000  178.6210  142.3080 C   0  0  0  0  0  0  0  0  0  0  0  0
  184.9410  179.0190  144.6190 C   0  0  2  0  0  3  0  0  0  0  0  0
  181.7550  179.0630  142.0490 O   0  0  0  0  0  0  0  0  0  0  0  0
  185.1490  178.2490  143.3110 C   0  0  0  0  0  2  0  0  0  0  0  0
  185.9070  178.5670  145.7100 C   0  0  0  0  0  2  0  0  0  0  0  0
  186.4360  177.1580  145.4670 C   0  0  0  0  0  2  0  0  0  0  0  0
  189.5690  177.6060  147.6460 C   0  0  0  0  0  0  0  0  0  0  0  0
  192.0900  177.1530  144.9560 F   0  0  0  0  0  0  0  0  0  0  0  0
  189.6900  178.3690  148.5890 O   0  0  0  0  0  0  0  0  0  0  0  0
  188.6380  178.1930  144.9700 C   0  0  0  0  0  3  0  0  0  0  0  0
  187.9300  177.1030  145.7320 C   0  0  1  0  0  3  0  0  0  0  0  0
  190.8200  177.0880  146.9760 C   0  0  1  0  0  3  0  0  0  0  0  0
  191.1690  175.7080  147.5030 C   0  0  0  0  0  1  0  0  0  0  0  0
  188.1770  177.1790  147.2440 C   0  0  0  0  0  2  0  0  0  0  0  0
  190.7970  177.0770  145.4390 C   0  0  1  0  0  3  0  0  0  0  0  0
  189.9710  178.1820  144.8380 C   0  0  0  0  0  3  0  0  0  0  0  0
  183.5110  178.9110  139.8870 C   0  0  0  0  0  2  0  0  0  0  0  0
  184.3150  179.0830  138.6140 C   0  0  0  0  0  2  0  0  0  0  0  0
  185.0160  177.7830  138.2480 C   0  0  2  0  0  3  0  0  0  0  0  0
  187.3510  177.0340  137.8390 C   0  0  0  0  0  3  0  0  0  0  0  0
  186.5080  177.9570  138.3070 C   0  0  0  0  0  3  0  0  0  0  0  0
  191.8360  177.3950  139.9940 O   0  0  0  0  0  1  0  0  0  0  0  0
  188.8280  177.2300  137.9330 C   0  0  1  0  0  3  0  0  0  0  0  0
  189.2790  177.8560  139.5840 S   0  0  0  0  0  0  0  0  0  0  0  0
  190.8250  176.1020  138.2780 C   0  0  0  0  0  2  0  0  0  0  0  0
  189.5010  175.9620  137.7030 N   0  0  0  0  0  2  0  0  0  0  0  0
  190.6730  176.7050  139.6540 C   0  0  1  0  0  3  0  0  0  0  0  0
  184.5620  177.2950  136.8720 C   0  0  0  0  0  2  0  0  0  0  0  0
  183.7040  176.0820  136.9910 C   0  0  0  0  0  0  0  0  0  0  0  0
  182.5420  176.1830  137.4690 O   0  0  0  0  0  0  0  0  0  0  0  0
  184.2150  174.8420  136.6020 O   0  0  0  0  0  0  0  0  0  0  0  0
  184.6540  173.9010  137.5280 C   0  0  0  0  0  3  0  0  0  0  0  0
  185.8690  173.3890  137.4250 C   0  0  0  0  0  2  0  0  0  0  0  0
  2  4  1  0  0  0  0
  3  5  2  0  0  0  0
  4  1  2  0  0  0  0
  5  2  1  0  0  0  0
  5  8  1  0  0  0  0
  6  1  1  0  0  0  0
  6  9  1  1  0  0  0
  7  2  2  0  0  0  0
  8  6  1  0  0  0  0
 10  9  1  0  0  0  0
 11 13  2  0  0  0  0
 14 15  1  0  0  0  0
 15 10  1  1  0  0  0
 15 18  1  0  0  0  0
 16 17  1  1  0  0  0
 16 11  1  0  0  0  0
 18 11  1  0  0  0  0
 19 12  1  6  0  0  0
 19 16  1  0  0  0  0
 20 14  2  0  0  0  0
 20 19  1  0  0  0  0
 21  3  1  0  0  0  0
 22 21  1  0  0  0  0
 23 32  1  6  0  0  0
 23 25  1  0  0  0  0
 23 22  1  0  0  0  0
 24 25  2  0  0  0  0
 27 24  1  1  0  0  0
 27 28  1  0  0  0  0
 28 31  1  0  0  0  0
 29 31  1  0  0  0  0
 30 27  1  0  0  0  0
 30 29  1  0  0  0  0
 31 26  1  6  0  0  0
 32 33  1  0  0  0  0
 33 34  2  0  0  0  0
 35 33  1  0  0  0  0
 35 36  1  0  0  0  0
 37 36  2  0  0  0  0
M  END
>  <MODEL>
3

>  <REMARK>
 VINA RESULT:      -8.2      3.406      8.118
  Name = 
  12 active torsions:
  status: ('A' for Active; 'I' for Inactive)
    1  A    between atoms: C_2  and  C_29
    2  A    between atoms: C_2  and  C_34
    3  A    between atoms: O_6  and  C_7
    4  A    between atoms: O_6  and  C_17
    5  A    between atoms: C_8  and  C_17
    6  A    between atoms: C_8  and  C_29
    7  A    between atoms: C_9  and  C_28
    8  A    between atoms: C_11  and  C_15
    9  A    between atoms: C_11  and  C_16
   10  A    between atoms: C_15  and  C_24
   11  A    between atoms: C_19  and  C_34
   12  A    between atoms: C_29  and  C_35
                            x       y       z     vdW  Elec       q    Type
                         _______ _______ _______ _____ _____    ______ ____

>  <TORSDO>
F 12

$$$$
=
 OpenBabel11062412283D

 37 39  0  0  1  0  0  0  0  0999 V2000
  182.1670  178.5870  141.3840 C   0  0  0  0  0  3  0  0  0  0  0  0
  183.2310  178.8480  143.5110 C   0  0  0  0  0  0  0  0  0  0  0  0
  185.7040  178.4820  143.6330 C   0  0  0  0  0  3  0  0  0  0  0  0
  182.0960  178.9190  142.6390 N   0  0  0  0  0  0  0  0  0  0  0  0
  184.5780  178.6210  142.9260 C   0  0  0  0  0  0  0  0  0  0  0  0
  183.4350  178.0280  140.7930 C   0  0  2  0  0  3  0  0  0  0  0  0
  183.0660  179.0110  144.7500 O   0  0  0  0  0  0  0  0  0  0  0  0
  184.6870  178.6370  141.4310 C   0  0  0  0  0  2  0  0  0  0  0  0
  183.4500  178.1510  139.2730 C   0  0  0  0  0  2  0  0  0  0  0  0
  184.7780  178.6850  138.7480 C   0  0  0  0  0  2  0  0  0  0  0  0
  186.9990  177.4430  135.8690 C   0  0  0  0  0  0  0  0  0  0  0  0
  186.3490  173.8110  136.2970 F   0  0  0  0  0  0  0  0  0  0  0  0
  187.1670  177.9970  134.7950 O   0  0  0  0  0  0  0  0  0  0  0  0
  184.5050  176.7810  137.1760 C   0  0  0  0  0  3  0  0  0  0  0  0
  185.4960  177.6140  137.9460 C   0  0  1  0  0  3  0  0  0  0  0  0
  187.3160  175.9700  135.9750 C   0  0  1  0  0  3  0  0  0  0  0  0
  188.6990  175.7680  136.5660 C   0  0  0  0  0  1  0  0  0  0  0  0
  186.5420  178.2780  137.0420 C   0  0  0  0  0  2  0  0  0  0  0  0
  186.2860  175.1200  136.7370 C   0  0  1  0  0  3  0  0  0  0  0  0
  184.8740  175.6240  136.6110 C   0  0  0  0  0  3  0  0  0  0  0  0
  185.7790  178.4790  145.1230 C   0  0  0  0  0  2  0  0  0  0  0  0
  186.4430  177.1970  145.5850 C   0  0  0  0  0  2  0  0  0  0  0  0
  187.9190  177.4330  145.8670 C   0  0  2  0  0  3  0  0  0  0  0  0
  189.0510  177.6000  143.6590 C   0  0  0  0  0  3  0  0  0  0  0  0
  188.7610  176.8840  144.7480 C   0  0  0  0  0  3  0  0  0  0  0  0
  190.8920  177.0640  139.0530 O   0  0  0  0  0  1  0  0  0  0  0  0
  189.8720  177.0160  142.5590 C   0  0  1  0  0  3  0  0  0  0  0  0
  189.0830  177.3300  140.9460 S   0  0  0  0  0  0  0  0  0  0  0  0
  191.7440  177.4020  141.2440 C   0  0  0  0  0  2  0  0  0  0  0  0
  191.1950  177.6200  142.5690 N   0  0  0  0  0  2  0  0  0  0  0  0
  190.6860  177.7770  140.2350 C   0  0  1  0  0  3  0  0  0  0  0  0
  188.3140  176.8300  147.2150 C   0  0  0  0  0  2  0  0  0  0  0  0
  189.3890  177.6310  147.8660 C   0  0  0  0  0  0  0  0  0  0  0  0
  189.1430  178.8050  148.2550 O   0  0  0  0  0  0  0  0  0  0  0  0
  190.6640  177.0800  148.0040 O   0  0  0  0  0  0  0  0  0  0  0  0
  191.5260  176.9340  146.9210 C   0  0  0  0  0  3  0  0  0  0  0  0
  192.0880  175.7620  146.6780 C   0  0  0  0  0  2  0  0  0  0  0  0
  1  4  2  0  0  0  0
  2  7  2  0  0  0  0
  3 21  1  0  0  0  0
  4  2  1  0  0  0  0
  5  2  1  0  0  0  0
  5  3  2  0  0  0  0
  6  9  1  6  0  0  0
  6  1  1  0  0  0  0
  6  8  1  0  0  0  0
  8  5  1  0  0  0  0
 10  9  1  0  0  0  0
 11 16  1  0  0  0  0
 11 18  1  0  0  0  0
 13 11  2  0  0  0  0
 14 15  1  0  0  0  0
 15 10  1  6  0  0  0
 16 17  1  1  0  0  0
 16 19  1  0  0  0  0
 18 15  1  0  0  0  0
 19 12  1  6  0  0  0
 20 19  1  0  0  0  0
 20 14  2  0  0  0  0
 21 22  1  0  0  0  0
 22 23  1  0  0  0  0
 23 25  1  6  0  0  0
 23 32  1  0  0  0  0
 24 25  2  0  0  0  0
 27 30  1  0  0  0  0
 27 24  1  1  0  0  0
 28 27  1  0  0  0  0
 29 30  1  0  0  0  0
 31 26  1  6  0  0  0
 31 28  1  0  0  0  0
 31 29  1  0  0  0  0
 32 33  1  0  0  0  0
 33 35  1  0  0  0  0
 33 34  2  0  0  0  0
 36 35  1  0  0  0  0
 37 36  2  0  0  0  0
M  END
>  <MODEL>
4

>  <REMARK>
 VINA RESULT:      -8.0      2.814      4.814
  Name = 
  12 active torsions:
  status: ('A' for Active; 'I' for Inactive)
    1  A    between atoms: C_2  and  C_29
    2  A    between atoms: C_2  and  C_34
    3  A    between atoms: O_6  and  C_7
    4  A    between atoms: O_6  and  C_17
    5  A    between atoms: C_8  and  C_17
    6  A    between atoms: C_8  and  C_29
    7  A    between atoms: C_9  and  C_28
    8  A    between atoms: C_11  and  C_15
    9  A    between atoms: C_11  and  C_16
   10  A    between atoms: C_15  and  C_24
   11  A    between atoms: C_19  and  C_34
   12  A    between atoms: C_29  and  C_35
                            x       y       z     vdW  Elec       q    Type
                         _______ _______ _______ _____ _____    ______ ____

>  <TORSDO>
F 12

$$$$
=
 OpenBabel11062412283D

 37 39  0  0  1  0  0  0  0  0999 V2000
  191.1650  177.0850  140.1340 C   0  0  0  0  0  3  0  0  0  0  0  0
  189.5750  177.7490  138.4740 C   0  0  0  0  0  0  0  0  0  0  0  0
  187.2370  178.2350  139.2250 C   0  0  0  0  0  3  0  0  0  0  0  0
  190.9000  177.4100  138.9030 N   0  0  0  0  0  0  0  0  0  0  0  0
  188.5190  177.9680  139.4960 C   0  0  0  0  0  0  0  0  0  0  0  0
  190.0730  176.9650  141.1650 C   0  0  2  0  0  3  0  0  0  0  0  0
  189.3420  177.8830  137.2430 O   0  0  0  0  0  0  0  0  0  0  0  0
  188.9470  177.9760  140.9320 C   0  0  0  0  0  2  0  0  0  0  0  0
  190.6280  177.0410  142.5840 C   0  0  0  0  0  2  0  0  0  0  0  0
  190.3290  178.3790  143.2510 C   0  0  0  0  0  2  0  0  0  0  0  0
  189.9490  176.9690  146.8060 C   0  0  0  0  0  0  0  0  0  0  0  0
  186.3440  177.7490  147.2450 F   0  0  0  0  0  0  0  0  0  0  0  0
  190.5060  175.9810  147.2540 O   0  0  0  0  0  0  0  0  0  0  0  0
  188.4310  177.2170  144.3550 C   0  0  0  0  0  3  0  0  0  0  0  0
  189.5870  178.1610  144.5580 C   0  0  1  0  0  3  0  0  0  0  0  0
  188.7010  177.4670  147.4970 C   0  0  1  0  0  3  0  0  0  0  0  0
  189.0380  178.6060  148.4410 C   0  0  0  0  0  1  0  0  0  0  0  0
  190.5760  177.6690  145.6230 C   0  0  0  0  0  2  0  0  0  0  0  0
  187.5440  177.8730  146.5700 C   0  0  1  0  0  3  0  0  0  0  0  0
  187.4850  177.0810  145.2920 C   0  0  0  0  0  3  0  0  0  0  0  0
  186.6520  178.3000  137.8540 C   0  0  0  0  0  2  0  0  0  0  0  0
  185.4970  177.3240  137.7580 C   0  0  0  0  0  2  0  0  0  0  0  0
  184.1830  178.0210  138.0760 C   0  0  2  0  0  3  0  0  0  0  0  0
  184.0030  178.5900  140.4890 C   0  0  0  0  0  3  0  0  0  0  0  0
  183.7660  177.7350  139.4920 C   0  0  0  0  0  3  0  0  0  0  0  0
  183.7850  179.0060  145.4570 O   0  0  0  0  0  1  0  0  0  0  0  0
  183.5940  178.2640  141.8870 C   0  0  1  0  0  3  0  0  0  0  0  0
  184.8670  178.8210  143.0650 S   0  0  0  0  0  0  0  0  0  0  0  0
  182.2570  178.9890  143.6390 C   0  0  0  0  0  2  0  0  0  0  0  0
  182.3370  178.9300  142.1920 N   0  0  0  0  0  2  0  0  0  0  0  0
  183.5860  179.4790  144.1600 C   0  0  1  0  0  3  0  0  0  0  0  0
  183.1000  177.6120  137.0770 C   0  0  0  0  0  2  0  0  0  0  0  0
  181.7990  178.2640  137.4000 C   0  0  0  0  0  0  0  0  0  0  0  0
  180.7830  177.5520  137.6230 O   0  0  0  0  0  0  0  0  0  0  0  0
  181.7180  179.6570  137.4170 O   0  0  0  0  0  0  0  0  0  0  0  0
  181.0160  180.3440  138.4040 C   0  0  0  0  0  3  0  0  0  0  0  0
  181.3290  181.5980  138.6860 C   0  0  0  0  0  2  0  0  0  0  0  0
  1  6  1  0  0  0  0
  2  4  1  0  0  0  0
  2  5  1  0  0  0  0
  3  5  2  0  0  0  0
  4  1  2  0  0  0  0
  5  8  1  0  0  0  0
  6  9  1  1  0  0  0
  7  2  2  0  0  0  0
  8  6  1  0  0  0  0
  9 10  1  0  0  0  0
 11 13  2  0  0  0  0
 11 16  1  0  0  0  0
 14 15  1  0  0  0  0
 14 20  2  0  0  0  0
 15 10  1  6  0  0  0
 15 18  1  0  0  0  0
 16 17  1  6  0  0  0
 18 11  1  0  0  0  0
 19 12  1  1  0  0  0
 19 16  1  0  0  0  0
 20 19  1  0  0  0  0
 21  3  1  0  0  0  0
 22 21  1  0  0  0  0
 22 23  1  0  0  0  0
 23 32  1  6  0  0  0
 23 25  1  0  0  0  0
 25 24  2  0  0  0  0
 27 24  1  6  0  0  0
 27 30  1  0  0  0  0
 27 28  1  0  0  0  0
 28 31  1  0  0  0  0
 29 31  1  0  0  0  0
 30 29  1  0  0  0  0
 31 26  1  1  0  0  0
 32 33  1  0  0  0  0
 33 35  1  0  0  0  0
 33 34  2  0  0  0  0
 35 36  1  0  0  0  0
 36 37  2  0  0  0  0
M  END
>  <MODEL>
5

>  <REMARK>
 VINA RESULT:      -8.0      3.106      9.396
  Name = 
  12 active torsions:
  status: ('A' for Active; 'I' for Inactive)
    1  A    between atoms: C_2  and  C_29
    2  A    between atoms: C_2  and  C_34
    3  A    between atoms: O_6  and  C_7
    4  A    between atoms: O_6  and  C_17
    5  A    between atoms: C_8  and  C_17
    6  A    between atoms: C_8  and  C_29
    7  A    between atoms: C_9  and  C_28
    8  A    between atoms: C_11  and  C_15
    9  A    between atoms: C_11  and  C_16
   10  A    between atoms: C_15  and  C_24
   11  A    between atoms: C_19  and  C_34
   12  A    between atoms: C_29  and  C_35
                            x       y       z     vdW  Elec       q    Type
                         _______ _______ _______ _____ _____    ______ ____

>  <TORSDO>
F 12

$$$$
=
 OpenBabel11062412283D

 37 39  0  0  1  0  0  0  0  0999 V2000
  183.0660  179.0400  144.4780 C   0  0  0  0  0  3  0  0  0  0  0  0
  185.2900  178.5080  145.1810 C   0  0  0  0  0  0  0  0  0  0  0  0
  186.8440  177.5160  143.4880 C   0  0  0  0  0  3  0  0  0  0  0  0
  183.9890  179.0690  145.3940 N   0  0  0  0  0  0  0  0  0  0  0  0
  185.6840  178.0980  143.8080 C   0  0  0  0  0  0  0  0  0  0  0  0
  183.2890  178.3390  143.1640 C   0  0  2  0  0  3  0  0  0  0  0  0
  186.0830  178.4060  146.1550 O   0  0  0  0  0  0  0  0  0  0  0  0
  184.7430  178.4440  142.6940 C   0  0  0  0  0  2  0  0  0  0  0  0
  182.3070  178.8150  142.0980 C   0  0  0  0  0  2  0  0  0  0  0  0
  182.9700  178.9880  140.7360 C   0  0  0  0  0  2  0  0  0  0  0  0
  183.2860  176.9260  137.5080 C   0  0  0  0  0  0  0  0  0  0  0  0
  180.7720  174.3260  138.3550 F   0  0  0  0  0  0  0  0  0  0  0  0
  183.4820  177.3640  136.3870 O   0  0  0  0  0  0  0  0  0  0  0  0
  181.2750  177.7310  139.4250 C   0  0  0  0  0  3  0  0  0  0  0  0
  182.7150  177.7680  139.8680 C   0  0  1  0  0  3  0  0  0  0  0  0
  182.7020  175.5400  137.6460 C   0  0  1  0  0  3  0  0  0  0  0  0
  183.8020  174.5250  137.9000 C   0  0  0  0  0  1  0  0  0  0  0  0
  183.6970  177.7730  138.6900 C   0  0  0  0  0  2  0  0  0  0  0  0
  181.5890  175.3870  138.6960 C   0  0  1  0  0  3  0  0  0  0  0  0
  180.7540  176.6260  138.8770 C   0  0  0  0  0  3  0  0  0  0  0  0
  187.9050  177.1370  144.4660 C   0  0  0  0  0  2  0  0  0  0  0  0
  189.0010  176.3800  143.7430 C   0  0  0  0  0  2  0  0  0  0  0  0
  190.2300  177.2600  143.5680 C   0  0  2  0  0  3  0  0  0  0  0  0
  190.2700  176.9390  141.1030 C   0  0  0  0  0  3  0  0  0  0  0  0
  190.3180  177.7620  142.1530 C   0  0  0  0  0  3  0  0  0  0  0  0
  189.7550  177.0410  136.1410 O   0  0  0  0  0  1  0  0  0  0  0  0
  190.3810  177.4700  139.7120 C   0  0  1  0  0  3  0  0  0  0  0  0
  190.4000  176.0990  138.5120 S   0  0  0  0  0  0  0  0  0  0  0  0
  189.1450  178.4060  137.9860 C   0  0  0  0  0  2  0  0  0  0  0  0
  189.2460  178.3350  139.4310 N   0  0  0  0  0  2  0  0  0  0  0  0
  189.2540  177.0020  137.4420 C   0  0  1  0  0  3  0  0  0  0  0  0
  191.4950  176.5070  143.9770 C   0  0  0  0  0  2  0  0  0  0  0  0
  191.5910  176.3850  145.4590 C   0  0  0  0  0  0  0  0  0  0  0  0
  192.1050  175.3530  145.9690 O   0  0  0  0  0  0  0  0  0  0  0  0
  191.0770  177.4030  146.2640 O   0  0  0  0  0  0  0  0  0  0  0  0
  190.5050  177.1450  147.5060 C   0  0  0  0  0  3  0  0  0  0  0  0
  189.2290  177.4240  147.7180 C   0  0  0  0  0  2  0  0  0  0  0  0
  1  4  2  0  0  0  0
  2  4  1  0  0  0  0
  2  7  2  0  0  0  0
  3  5  2  0  0  0  0
  3 21  1  0  0  0  0
  5  2  1  0  0  0  0
  6  9  1  6  0  0  0
  6  1  1  0  0  0  0
  8  6  1  0  0  0  0
  8  5  1  0  0  0  0
 10  9  1  0  0  0  0
 11 16  1  0  0  0  0
 11 18  1  0  0  0  0
 13 11  2  0  0  0  0
 14 15  1  0  0  0  0
 15 10  1  6  0  0  0
 16 17  1  1  0  0  0
 16 19  1  0  0  0  0
 18 15  1  0  0  0  0
 19 12  1  6  0  0  0
 19 20  1  0  0  0  0
 20 14  2  0  0  0  0
 22 21  1  0  0  0  0
 23 25  1  6  0  0  0
 23 22  1  0  0  0  0
 23 32  1  0  0  0  0
 24 25  2  0  0  0  0
 27 24  1  1  0  0  0
 28 27  1  0  0  0  0
 29 30  1  0  0  0  0
 30 27  1  0  0  0  0
 31 26  1  6  0  0  0
 31 29  1  0  0  0  0
 31 28  1  0  0  0  0
 32 33  1  0  0  0  0
 33 34  2  0  0  0  0
 33 35  1  0  0  0  0
 35 36  1  0  0  0  0
 36 37  2  0  0  0  0
M  END
>  <MODEL>
6

>  <REMARK>
 VINA RESULT:      -7.8      2.015      2.496
  Name = 
  12 active torsions:
  status: ('A' for Active; 'I' for Inactive)
    1  A    between atoms: C_2  and  C_29
    2  A    between atoms: C_2  and  C_34
    3  A    between atoms: O_6  and  C_7
    4  A    between atoms: O_6  and  C_17
    5  A    between atoms: C_8  and  C_17
    6  A    between atoms: C_8  and  C_29
    7  A    between atoms: C_9  and  C_28
    8  A    between atoms: C_11  and  C_15
    9  A    between atoms: C_11  and  C_16
   10  A    between atoms: C_15  and  C_24
   11  A    between atoms: C_19  and  C_34
   12  A    between atoms: C_29  and  C_35
                            x       y       z     vdW  Elec       q    Type
                         _______ _______ _______ _____ _____    ______ ____

>  <TORSDO>
F 12

$$$$
=
 OpenBabel11062412283D

 37 39  0  0  1  0  0  0  0  0999 V2000
  190.9840  176.5940  147.1120 C   0  0  0  0  0  3  0  0  0  0  0  0
  191.4110  176.1170  144.8070 C   0  0  0  0  0  0  0  0  0  0  0  0
  189.9420  177.2050  143.0970 C   0  0  0  0  0  3  0  0  0  0  0  0
  191.7230  176.0300  146.2030 N   0  0  0  0  0  0  0  0  0  0  0  0
  190.3600  177.0680  144.3590 C   0  0  0  0  0  0  0  0  0  0  0  0
  189.7060  177.3050  146.7510 C   0  0  2  0  0  3  0  0  0  0  0  0
  192.0560  175.4100  143.9870 O   0  0  0  0  0  0  0  0  0  0  0  0
  189.7970  177.9990  145.3890 C   0  0  0  0  0  2  0  0  0  0  0  0
  189.2640  178.2630  147.8540 C   0  0  0  0  0  2  0  0  0  0  0  0
  187.7560  178.2320  148.0780 C   0  0  0  0  0  2  0  0  0  0  0  0
  184.6560  178.7710  145.8730 C   0  0  0  0  0  0  0  0  0  0  0  0
  186.1040  177.5030  142.6960 F   0  0  0  0  0  0  0  0  0  0  0  0
  183.4940  178.6280  146.2120 O   0  0  0  0  0  0  0  0  0  0  0  0
  186.8570  176.9180  146.1720 C   0  0  0  0  0  3  0  0  0  0  0  0
  187.0250  178.3000  146.7490 C   0  0  1  0  0  3  0  0  0  0  0  0
  184.9820  178.7460  144.3980 C   0  0  1  0  0  3  0  0  0  0  0  0
  185.0900  180.1590  143.8550 C   0  0  0  0  0  1  0  0  0  0  0  0
  185.6890  179.0270  146.9440 C   0  0  0  0  0  2  0  0  0  0  0  0
  186.2250  177.9310  144.0040 C   0  0  1  0  0  3  0  0  0  0  0  0
  186.4810  176.7480  144.8980 C   0  0  0  0  0  3  0  0  0  0  0  0
  190.4230  176.3870  141.9470 C   0  0  0  0  0  2  0  0  0  0  0  0
  191.0040  177.3050  140.8910 C   0  0  0  0  0  2  0  0  0  0  0  0
  190.4060  176.9950  139.5270 C   0  0  2  0  0  3  0  0  0  0  0  0
  191.2940  175.3980  137.8410 C   0  0  0  0  0  3  0  0  0  0  0  0
  191.4680  176.4890  138.5910 C   0  0  0  0  0  3  0  0  0  0  0  0
  195.8130  175.2030  135.7350 O   0  0  0  0  0  1  0  0  0  0  0  0
  192.3780  174.9120  136.9380 C   0  0  1  0  0  3  0  0  0  0  0  0
  193.5560  176.2570  136.5820 S   0  0  0  0  0  0  0  0  0  0  0  0
  194.3740  173.7280  136.9140 C   0  0  0  0  0  2  0  0  0  0  0  0
  193.0860  173.8140  137.5770 N   0  0  0  0  0  2  0  0  0  0  0  0
  194.9450  175.1230  136.8230 C   0  0  1  0  0  3  0  0  0  0  0  0
  189.6940  178.2230  138.9590 C   0  0  0  0  0  2  0  0  0  0  0  0
  188.2200  178.1280  139.1580 C   0  0  0  0  0  0  0  0  0  0  0  0
  187.6970  178.6270  140.1900 O   0  0  0  0  0  0  0  0  0  0  0  0
  187.4440  177.4550  138.2130 O   0  0  0  0  0  0  0  0  0  0  0  0
  186.3920  178.0750  137.5450 C   0  0  0  0  0  3  0  0  0  0  0  0
  185.1480  177.8920  137.9550 C   0  0  0  0  0  2  0  0  0  0  0  0
  2  4  1  0  0  0  0
  3  5  2  0  0  0  0
  4  1  2  0  0  0  0
  5  2  1  0  0  0  0
  5  8  1  0  0  0  0
  6  1  1  0  0  0  0
  6  9  1  1  0  0  0
  7  2  2  0  0  0  0
  8  6  1  0  0  0  0
  9 10  1  0  0  0  0
 11 13  2  0  0  0  0
 11 18  1  0  0  0  0
 14 15  1  0  0  0  0
 15 18  1  0  0  0  0
 15 10  1  1  0  0  0
 16 17  1  1  0  0  0
 16 11  1  0  0  0  0
 19 12  1  6  0  0  0
 19 16  1  0  0  0  0
 19 20  1  0  0  0  0
 20 14  2  0  0  0  0
 21  3  1  0  0  0  0
 22 21  1  0  0  0  0
 23 25  1  6  0  0  0
 23 22  1  0  0  0  0
 24 25  2  0  0  0  0
 27 30  1  0  0  0  0
 27 24  1  1  0  0  0
 28 31  1  0  0  0  0
 28 27  1  0  0  0  0
 29 30  1  0  0  0  0
 31 26  1  6  0  0  0
 31 29  1  0  0  0  0
 32 33  1  0  0  0  0
 32 23  1  0  0  0  0
 33 34  2  0  0  0  0
 35 33  1  0  0  0  0
 36 37  2  0  0  0  0
 36 35  1  0  0  0  0
M  END
>  <MODEL>
7

>  <REMARK>
 VINA RESULT:      -7.7      3.849      7.030
  Name = 
  12 active torsions:
  status: ('A' for Active; 'I' for Inactive)
    1  A    between atoms: C_2  and  C_29
    2  A    between atoms: C_2  and  C_34
    3  A    between atoms: O_6  and  C_7
    4  A    between atoms: O_6  and  C_17
    5  A    between atoms: C_8  and  C_17
    6  A    between atoms: C_8  and  C_29
    7  A    between atoms: C_9  and  C_28
    8  A    between atoms: C_11  and  C_15
    9  A    between atoms: C_11  and  C_16
   10  A    between atoms: C_15  and  C_24
   11  A    between atoms: C_19  and  C_34
   12  A    between atoms: C_29  and  C_35
                            x       y       z     vdW  Elec       q    Type
                         _______ _______ _______ _____ _____    ______ ____

>  <TORSDO>
F 12

$$$$
=
 OpenBabel11062412283D

 37 39  0  0  1  0  0  0  0  0999 V2000
  191.2960  177.0170  140.3750 C   0  0  0  0  0  3  0  0  0  0  0  0
  189.7920  177.6830  138.6370 C   0  0  0  0  0  0  0  0  0  0  0  0
  187.4380  178.2390  139.2780 C   0  0  0  0  0  3  0  0  0  0  0  0
  191.0900  177.3230  139.1280 N   0  0  0  0  0  0  0  0  0  0  0  0
  188.7000  177.9480  139.6090 C   0  0  0  0  0  0  0  0  0  0  0  0
  190.1590  176.9440  141.3610 C   0  0  2  0  0  3  0  0  0  0  0  0
  189.6150  177.7970  137.3940 O   0  0  0  0  0  0  0  0  0  0  0  0
  189.0680  177.9770  141.0610 C   0  0  0  0  0  2  0  0  0  0  0  0
  190.6550  177.0370  142.8000 C   0  0  0  0  0  2  0  0  0  0  0  0
  190.3050  178.3720  143.4480 C   0  0  0  0  0  2  0  0  0  0  0  0
  189.7730  176.8190  146.9230 C   0  0  0  0  0  0  0  0  0  0  0  0
  186.2300  177.8450  147.3660 F   0  0  0  0  0  0  0  0  0  0  0  0
  190.2480  175.7710  147.3260 O   0  0  0  0  0  0  0  0  0  0  0  0
  188.3110  177.3020  144.4730 C   0  0  0  0  0  3  0  0  0  0  0  0
  189.5320  178.1460  144.7350 C   0  0  1  0  0  3  0  0  0  0  0  0
  188.5560  177.3740  147.6250 C   0  0  1  0  0  3  0  0  0  0  0  0
  188.9640  178.4370  148.6300 C   0  0  0  0  0  1  0  0  0  0  0  0
  190.4660  177.5280  145.7830 C   0  0  0  0  0  2  0  0  0  0  0  0
  187.4450  177.9130  146.7090 C   0  0  1  0  0  3  0  0  0  0  0  0
  187.3440  177.1910  145.3920 C   0  0  0  0  0  3  0  0  0  0  0  0
  186.9130  178.2900  137.8830 C   0  0  0  0  0  2  0  0  0  0  0  0
  185.7660  177.3080  137.7460 C   0  0  0  0  0  2  0  0  0  0  0  0
  184.4480  177.9740  138.1140 C   0  0  2  0  0  3  0  0  0  0  0  0
  183.7540  178.6170  140.4130 C   0  0  0  0  0  3  0  0  0  0  0  0
  184.0840  177.6630  139.5390 C   0  0  0  0  0  3  0  0  0  0  0  0
  183.8700  178.9150  145.3920 O   0  0  0  0  0  1  0  0  0  0  0  0
  183.4180  178.2750  141.8260 C   0  0  1  0  0  3  0  0  0  0  0  0
  184.7890  178.7390  142.9330 S   0  0  0  0  0  0  0  0  0  0  0  0
  182.2310  179.0180  143.6760 C   0  0  0  0  0  2  0  0  0  0  0  0
  182.2180  178.9930  142.2260 N   0  0  0  0  0  2  0  0  0  0  0  0
  183.6130  179.4300  144.1210 C   0  0  1  0  0  3  0  0  0  0  0  0
  183.3430  177.5510  137.1460 C   0  0  0  0  0  2  0  0  0  0  0  0
  183.4570  176.1060  136.8000 C   0  0  0  0  0  0  0  0  0  0  0  0
  183.9340  175.7680  135.6830 O   0  0  0  0  0  0  0  0  0  0  0  0
  183.0000  175.1470  137.7060 O   0  0  0  0  0  0  0  0  0  0  0  0
  181.6460  174.9680  137.9710 C   0  0  0  0  0  3  0  0  0  0  0  0
  181.1210  175.4510  139.0850 C   0  0  0  0  0  2  0  0  0  0  0  0
  1  6  1  0  0  0  0
  2  4  1  0  0  0  0
  2  5  1  0  0  0  0
  3  5  2  0  0  0  0
  4  1  2  0  0  0  0
  5  8  1  0  0  0  0
  6  9  1  1  0  0  0
  7  2  2  0  0  0  0
  8  6  1  0  0  0  0
  9 10  1  0  0  0  0
 11 13  2  0  0  0  0
 11 16  1  0  0  0  0
 14 15  1  0  0  0  0
 14 20  2  0  0  0  0
 15 10  1  6  0  0  0
 15 18  1  0  0  0  0
 16 17  1  1  0  0  0
 18 11  1  0  0  0  0
 19 12  1  1  0  0  0
 19 16  1  0  0  0  0
 20 19  1  0  0  0  0
 21  3  1  0  0  0  0
 22 21  1  0  0  0  0
 22 23  1  0  0  0  0
 23 32  1  6  0  0  0
 23 25  1  0  0  0  0
 25 24  2  0  0  0  0
 27 24  1  6  0  0  0
 27 30  1  0  0  0  0
 27 28  1  0  0  0  0
 28 31  1  0  0  0  0
 29 31  1  0  0  0  0
 30 29  1  0  0  0  0
 31 26  1  1  0  0  0
 33 32  1  0  0  0  0
 33 35  1  0  0  0  0
 34 33  2  0  0  0  0
 35 36  1  0  0  0  0
 36 37  2  0  0  0  0
M  END
>  <MODEL>
8

>  <REMARK>
 VINA RESULT:      -7.7      3.308      9.189
  Name = 
  12 active torsions:
  status: ('A' for Active; 'I' for Inactive)
    1  A    between atoms: C_2  and  C_29
    2  A    between atoms: C_2  and  C_34
    3  A    between atoms: O_6  and  C_7
    4  A    between atoms: O_6  and  C_17
    5  A    between atoms: C_8  and  C_17
    6  A    between atoms: C_8  and  C_29
    7  A    between atoms: C_9  and  C_28
    8  A    between atoms: C_11  and  C_15
    9  A    between atoms: C_11  and  C_16
   10  A    between atoms: C_15  and  C_24
   11  A    between atoms: C_19  and  C_34
   12  A    between atoms: C_29  and  C_35
                            x       y       z     vdW  Elec       q    Type
                         _______ _______ _______ _____ _____    ______ ____

>  <TORSDO>
F 12

$$$$
=
 OpenBabel11062412283D

 37 39  0  0  1  0  0  0  0  0999 V2000
  183.6070  179.3300  139.2410 C   0  0  0  0  0  3  0  0  0  0  0  0
  185.0550  179.3610  141.1450 C   0  0  0  0  0  0  0  0  0  0  0  0
  184.1550  178.4880  143.3110 C   0  0  0  0  0  3  0  0  0  0  0  0
  184.7840  179.5480  139.7500 N   0  0  0  0  0  0  0  0  0  0  0  0
  184.0450  178.6750  141.9920 C   0  0  0  0  0  0  0  0  0  0  0  0
  182.4370  178.9450  140.1090 C   0  0  2  0  0  3  0  0  0  0  0  0
  186.1570  179.7530  141.6160 O   0  0  0  0  0  0  0  0  0  0  0  0
  182.8610  178.0760  141.2960 C   0  0  0  0  0  2  0  0  0  0  0  0
  181.3220  178.2980  139.2940 C   0  0  0  0  0  2  0  0  0  0  0  0
  181.1390  176.8230  139.6330 C   0  0  0  0  0  2  0  0  0  0  0  0
  183.7330  175.0850  137.3930 C   0  0  0  0  0  0  0  0  0  0  0  0
  181.4130  174.0740  134.6730 F   0  0  0  0  0  0  0  0  0  0  0  0
  184.8900  175.4300  137.2270 O   0  0  0  0  0  0  0  0  0  0  0  0
  181.3320  176.6820  137.1610 C   0  0  0  0  0  3  0  0  0  0  0  0
  181.5640  175.9560  138.4610 C   0  0  1  0  0  3  0  0  0  0  0  0
  183.0970  174.1810  136.3630 C   0  0  1  0  0  3  0  0  0  0  0  0
  183.1500  172.7350  136.8220 C   0  0  0  0  0  1  0  0  0  0  0  0
  183.0260  175.5330  138.6510 C   0  0  0  0  0  2  0  0  0  0  0  0
  181.6640  174.5510  135.9470 C   0  0  1  0  0  3  0  0  0  0  0  0
  181.3820  176.0290  135.9930 C   0  0  0  0  0  3  0  0  0  0  0  0
  185.2830  178.9850  144.1510 C   0  0  0  0  0  2  0  0  0  0  0  0
  185.7730  177.8620  145.0430 C   0  0  0  0  0  2  0  0  0  0  0  0
  187.2930  177.7990  145.0340 C   0  0  2  0  0  3  0  0  0  0  0  0
  188.6330  177.7120  142.9410 C   0  0  0  0  0  3  0  0  0  0  0  0
  187.7820  177.1210  143.7840 C   0  0  0  0  0  3  0  0  0  0  0  0
  189.9530  177.1950  138.1570 O   0  0  0  0  0  1  0  0  0  0  0  0
  189.0810  177.0180  141.6980 C   0  0  1  0  0  3  0  0  0  0  0  0
  188.4940  177.9160  140.2250 S   0  0  0  0  0  0  0  0  0  0  0  0
  190.9020  176.7460  140.2870 C   0  0  0  0  0  2  0  0  0  0  0  0
  190.5340  176.9580  141.6740 N   0  0  0  0  0  2  0  0  0  0  0  0
  190.1130  177.7150  139.4420 C   0  0  1  0  0  3  0  0  0  0  0  0
  187.8120  177.1010  146.2910 C   0  0  0  0  0  2  0  0  0  0  0  0
  189.0350  177.7740  146.8120 C   0  0  0  0  0  0  0  0  0  0  0  0
  189.0370  178.2460  147.9810 O   0  0  0  0  0  0  0  0  0  0  0  0
  190.1510  177.9030  145.9830 O   0  0  0  0  0  0  0  0  0  0  0  0
  191.1720  176.9580  145.9680 C   0  0  0  0  0  3  0  0  0  0  0  0
  191.4470  176.2630  147.0600 C   0  0  0  0  0  2  0  0  0  0  0  0
  1  4  2  0  0  0  0
  1  6  1  0  0  0  0
  2  7  2  0  0  0  0
  2  5  1  0  0  0  0
  3 21  1  0  0  0  0
  4  2  1  0  0  0  0
  5  3  2  0  0  0  0
  6  9  1  6  0  0  0
  6  8  1  0  0  0  0
  8  5  1  0  0  0  0
  9 10  1  0  0  0  0
 11 18  1  0  0  0  0
 13 11  2  0  0  0  0
 14 15  1  0  0  0  0
 15 18  1  0  0  0  0
 15 10  1  1  0  0  0
 16 17  1  1  0  0  0
 16 11  1  0  0  0  0
 19 12  1  6  0  0  0
 19 20  1  0  0  0  0
 19 16  1  0  0  0  0
 20 14  2  0  0  0  0
 21 22  1  0  0  0  0
 23 25  1  6  0  0  0
 23 22  1  0  0  0  0
 23 32  1  0  0  0  0
 24 25  2  0  0  0  0
 27 24  1  1  0  0  0
 28 27  1  0  0  0  0
 29 30  1  0  0  0  0
 30 27  1  0  0  0  0
 31 26  1  6  0  0  0
 31 28  1  0  0  0  0
 31 29  1  0  0  0  0
 32 33  1  0  0  0  0
 33 34  2  0  0  0  0
 35 33  1  0  0  0  0
 36 35  1  0  0  0  0
 36 37  2  0  0  0  0
M  END
>  <MODEL>
9

>  <REMARK>
 VINA RESULT:      -7.6      2.679      4.338
  Name = 
  12 active torsions:
  status: ('A' for Active; 'I' for Inactive)
    1  A    between atoms: C_2  and  C_29
    2  A    between atoms: C_2  and  C_34
    3  A    between atoms: O_6  and  C_7
    4  A    between atoms: O_6  and  C_17
    5  A    between atoms: C_8  and  C_17
    6  A    between atoms: C_8  and  C_29
    7  A    between atoms: C_9  and  C_28
    8  A    between atoms: C_11  and  C_15
    9  A    between atoms: C_11  and  C_16
   10  A    between atoms: C_15  and  C_24
   11  A    between atoms: C_19  and  C_34
   12  A    between atoms: C_29  and  C_35
                            x       y       z     vdW  Elec       q    Type
                         _______ _______ _______ _____ _____    ______ ____

>  <TORSDO>
F 12

$$$$
