=
 OpenBabel11062415123D

 52 57  0  0  1  0  0  0  0  0999 V2000
  185.1850  179.0080  145.1900 C   0  0  1  0  0  3  0  0  0  0  0  0
  187.7860  177.9080  145.7720 C   0  0  0  0  0  0  0  0  0  0  0  0
  185.3840  178.1830  142.8390 C   0  0  0  0  0  3  0  0  0  0  0  0
  184.2400  178.7920  142.4970 C   0  0  0  0  0  0  0  0  0  0  0  0
  185.7380  177.8950  144.2770 C   0  0  1  0  0  3  0  0  0  0  0  0
  187.0540  178.7640  146.7870 C   0  0  1  0  0  3  0  0  0  0  0  0
  183.6750  179.1710  145.0030 C   0  0  0  0  0  2  0  0  0  0  0  0
  184.9070  177.4500  147.1550 C   0  0  0  0  0  1  0  0  0  0  0  0
  185.5300  178.7510  146.6540 C   0  0  2  0  0  3  0  0  0  0  0  0
  182.1910  179.7630  143.2430 O   0  0  0  0  0  0  0  0  0  0  0  0
  187.1860  177.6570  144.4760 N   0  0  0  0  0  0  0  0  0  0  0  0
  183.3120  179.2790  143.5510 C   0  0  0  0  0  0  0  0  0  0  0  0
  189.0570  177.5900  146.0010 C   0  0  0  0  0  2  0  0  0  0  0  0
  185.1830  178.8240  140.2050 C   0  0  0  0  0  2  0  0  0  0  0  0
  182.8390  177.8720  140.6210 C   0  0  1  0  0  3  0  0  0  0  0  0
  183.2820  176.9460  139.4740 C   0  0  0  0  0  2  0  0  0  0  0  0
  183.9030  178.9060  141.0390 C   0  0  1  0  0  3  0  0  0  0  0  0
  183.8790  177.7280  138.2970 C   0  0  1  0  0  3  0  0  0  0  0  0
  184.8510  178.8480  138.7160 C   0  0  0  0  0  2  0  0  0  0  0  0
  184.5140  176.7710  137.2940 C   0  0  2  0  0  3  0  0  0  0  0  0
  185.5680  177.3820  136.6380 F   0  0  0  0  0  0  0  0  0  0  0  0
  183.4940  176.2750  136.2790 C   0  0  0  0  0  2  0  0  0  0  0  0
  182.6260  177.4240  135.7960 C   0  0  0  0  0  1  0  0  0  0  0  0
  181.4500  178.5000  140.4300 C   0  0  2  0  0  3  0  0  0  0  0  0
  180.3850  177.6290  141.0690 C   0  0  0  0  0  2  0  0  0  0  0  0
  179.2260  178.3790  141.2700 O   0  0  0  0  0  0  0  0  0  0  0  0
  179.1490  178.5600  142.6460 C   0  0  0  0  0  1  0  0  0  0  0  0
  181.0930  178.7730  138.9740 C   0  0  0  0  0  2  0  0  0  0  0  0
  180.1110  181.0680  138.5730 C   0  0  0  0  0  0  0  0  0  0  0  0
  178.9460  180.6300  138.7660 O   0  0  0  0  0  0  0  0  0  0  0  0
  181.2370  180.1900  138.6900 N   0  0  0  0  0  2  0  0  0  0  0  0
  180.2940  182.5220  138.2060 C   0  0  1  0  0  0  0  0  0  0  0  0
  179.6340  184.6390  137.0760 O   0  0  0  0  0  1  0  0  0  0  0  0
  179.3500  183.2820  137.2430 C   0  0  2  0  0  0  0  0  0  0  0  0
  179.0990  183.1290  138.6070 O   0  0  0  0  0  0  0  0  0  0  0  0
  180.5680  182.5890  136.7100 C   0  0  2  0  0  3  0  0  0  0  0  0
  181.0160  181.2020  134.8160 O   0  0  0  0  0  1  0  0  0  0  0  0
  180.0840  181.4420  135.8220 C   0  0  0  0  0  2  0  0  0  0  0  0
  187.5400  178.7470  148.1190 O   0  0  0  0  0  0  0  0  0  0  0  0
  188.0020  177.4620  148.4360 C   0  0  0  0  0  1  0  0  0  0  0  0
  187.8830  176.7490  143.5560 C   0  0  0  0  0  2  0  0  0  0  0  0
  188.4930  177.4840  142.3610 C   0  0  0  0  0  2  0  0  0  0  0  0
  191.6100  177.4790  140.3900 C   0  0  0  0  0  3  0  0  0  0  0  0
  190.0750  177.4440  140.3560 C   0  0  2  0  0  3  0  0  0  0  0  0
  190.9290  176.1800  143.5950 O   0  0  0  0  0  0  0  0  0  0  0  0
  190.8680  176.6450  142.4270 C   0  0  0  0  0  0  0  0  0  0  0  0
  189.6250  176.7430  141.6390 C   0  0  1  0  0  3  0  0  0  0  0  0
  192.0100  177.0760  141.7260 N   0  0  0  0  0  0  0  0  0  0  0  0
  189.6200  176.6830  139.1180 C   0  0  0  0  0  2  0  0  0  0  0  0
  188.4740  177.4020  138.4160 C   0  0  0  0  0  2  0  0  0  0  0  0
  188.9910  178.2570  137.2710 C   0  0  0  0  0  2  0  0  0  0  0  0
  188.8840  179.6070  137.5960 O   0  0  0  0  0  1  0  0  0  0  0  0
  1  7  1  1  0  0  0
  1  9  1  0  0  0  0
  2 13  2  0  0  0  0
  2  6  1  0  0  0  0
  4  3  2  0  0  0  0
  4 12  1  0  0  0  0
  5  3  1  6  0  0  0
  5 11  1  0  0  0  0
  5  1  1  0  0  0  0
  6 39  1  1  0  0  0
  9  6  1  0  0  0  0
  9  8  1  6  0  0  0
 10 12  2  0  0  0  0
 11  2  1  0  0  0  0
 12  7  1  0  0  0  0
 14 17  1  0  0  0  0
 15 24  1  6  0  0  0
 15 17  1  0  0  0  0
 16 15  1  0  0  0  0
 17  4  1  1  0  0  0
 18 20  1  6  0  0  0
 18 19  1  0  0  0  0
 18 16  1  0  0  0  0
 19 14  1  0  0  0  0
 20 21  1  6  0  0  0
 22 20  1  0  0  0  0
 23 22  1  0  0  0  0
 24 28  1  6  0  0  0
 24 25  1  0  0  0  0
 25 26  1  0  0  0  0
 26 27  1  0  0  0  0
 29 31  1  0  0  0  0
 29 30  2  0  0  0  0
 31 28  1  0  0  0  0
 32 29  1  6  0  0  0
 32 35  1  0  0  0  0
 34 33  1  1  0  0  0
 34 32  1  0  0  0  0
 34 35  1  0  0  0  0
 36 38  1  6  0  0  0
 36 34  1  0  0  0  0
 36 32  1  0  0  0  0
 37 38  1  0  0  0  0
 39 40  1  0  0  0  0
 41 11  1  0  0  0  0
 42 41  1  0  0  0  0
 43 48  2  0  0  0  0
 44 49  1  6  0  0  0
 44 43  1  0  0  0  0
 44 47  1  0  0  0  0
 46 45  2  0  0  0  0
 47 42  1  1  0  0  0
 47 46  1  0  0  0  0
 48 46  1  0  0  0  0
 50 49  1  0  0  0  0
 51 52  1  0  0  0  0
 51 50  1  0  0  0  0
M  END
>  <MODEL>
1

>  <REMARK>
 VINA RESULT:      -7.9      0.000      0.000
  Name = 
  17 active torsions:
  status: ('A' for Active; 'I' for Inactive)
    1  A    between atoms: C_2  and  C_24
    2  A    between atoms: C_3  and  O_23
    3  A    between atoms: C_3  and  C_46
    4  A    between atoms: C_5  and  C_18
    5  A    between atoms: C_7  and  C_17
    6  A    between atoms: C_7  and  C_42
    7  A    between atoms: C_10  and  C_27
    8  A    between atoms: C_11  and  C_46
    9  A    between atoms: C_14  and  C_44
   10  A    between atoms: C_16  and  C_43
   11  A    between atoms: C_19  and  O_25
   12  A    between atoms: C_24  and  C_44
   13  A    between atoms: C_28  and  C_31
   14  A    between atoms: C_28  and  C_39
   15  A    between atoms: C_31  and  N_41
   16  A    between atoms: C_34  and  C_46
   17  A    between atoms: C_34  and  N_52
                            x       y       z     vdW  Elec       q    Type
                         _______ _______ _______ _____ _____    ______ ____

>  <TORSDO>
F 17

$$$$
=
 OpenBabel11062415123D

 52 57  0  0  1  0  0  0  0  0999 V2000
  191.0540  177.2660  142.4320 C   0  0  1  0  0  3  0  0  0  0  0  0
  188.5560  177.2160  143.8700 C   0  0  0  0  0  0  0  0  0  0  0  0
  189.7910  177.2050  140.2760 C   0  0  0  0  0  3  0  0  0  0  0  0
  190.9290  177.0970  139.5770 C   0  0  0  0  0  0  0  0  0  0  0  0
  189.7700  177.7050  141.6990 C   0  0  1  0  0  3  0  0  0  0  0  0
  189.8800  177.1030  144.5990 C   0  0  1  0  0  3  0  0  0  0  0  0
  192.3020  177.7420  141.6850 C   0  0  0  0  0  2  0  0  0  0  0  0
  191.0380  179.2760  143.9570 C   0  0  0  0  0  1  0  0  0  0  0  0
  191.0650  177.7510  143.8780 C   0  0  2  0  0  3  0  0  0  0  0  0
  193.2980  177.3930  139.5560 O   0  0  0  0  0  0  0  0  0  0  0  0
  188.5370  177.3240  142.4250 N   0  0  0  0  0  0  0  0  0  0  0  0
  192.2320  177.3950  140.2270 C   0  0  0  0  0  0  0  0  0  0  0  0
  187.4330  176.9890  144.5460 C   0  0  0  0  0  2  0  0  0  0  0  0
  192.1080  175.9880  137.7010 C   0  0  0  0  0  2  0  0  0  0  0  0
  189.5480  175.9490  137.8160 C   0  0  1  0  0  3  0  0  0  0  0  0
  189.7860  174.5720  137.1740 C   0  0  0  0  0  2  0  0  0  0  0  0
  190.8400  176.7310  138.1250 C   0  0  1  0  0  3  0  0  0  0  0  0
  190.7600  174.6460  135.9910 C   0  0  1  0  0  3  0  0  0  0  0  0
  191.9970  175.5280  136.2500 C   0  0  0  0  0  2  0  0  0  0  0  0
  191.1490  173.2420  135.5370 C   0  0  2  0  0  3  0  0  0  0  0  0
  190.1410  172.3400  135.8300 F   0  0  0  0  0  0  0  0  0  0  0  0
  192.4490  172.7900  136.1850 C   0  0  0  0  0  2  0  0  0  0  0  0
  193.1950  171.8360  135.2700 C   0  0  0  0  0  1  0  0  0  0  0  0
  188.4950  176.8110  137.1000 C   0  0  2  0  0  3  0  0  0  0  0  0
  189.1300  178.0780  136.5590 C   0  0  0  0  0  2  0  0  0  0  0  0
  189.5200  177.8760  135.2350 O   0  0  0  0  0  0  0  0  0  0  0  0
  188.3810  177.4030  134.5940 C   0  0  0  0  0  1  0  0  0  0  0  0
  187.2930  177.1610  137.9680 C   0  0  0  0  0  2  0  0  0  0  0  0
  185.4780  175.8010  136.8510 C   0  0  0  0  0  0  0  0  0  0  0  0
  185.9830  174.7300  137.2810 O   0  0  0  0  0  0  0  0  0  0  0  0
  186.0740  177.0600  137.1840 N   0  0  0  0  0  2  0  0  0  0  0  0
  184.2500  175.7300  135.9730 C   0  0  1  0  0  0  0  0  0  0  0  0
  182.0120  176.4930  135.2000 O   0  0  0  0  0  1  0  0  0  0  0  0
  183.0240  176.6580  136.1470 C   0  0  2  0  0  0  0  0  0  0  0  0
  184.1570  177.0070  135.4110 O   0  0  0  0  0  0  0  0  0  0  0  0
  183.0740  175.3380  136.8560 C   0  0  2  0  0  3  0  0  0  0  0  0
  181.8770  175.5510  138.9150 O   0  0  0  0  0  1  0  0  0  0  0  0
  183.1500  175.6330  138.3560 C   0  0  0  0  0  2  0  0  0  0  0  0
  189.8630  177.2840  146.0060 O   0  0  0  0  0  0  0  0  0  0  0  0
  191.0350  176.7550  146.5640 C   0  0  0  0  0  1  0  0  0  0  0  0
  187.2400  177.5230  141.7640 C   0  0  0  0  0  2  0  0  0  0  0  0
  186.9160  179.0040  141.5510 C   0  0  0  0  0  2  0  0  0  0  0  0
  183.3820  178.0160  141.1940 C   0  0  0  0  0  3  0  0  0  0  0  0
  184.6510  178.5040  140.4810 C   0  0  2  0  0  3  0  0  0  0  0  0
  185.0630  179.5670  143.8750 O   0  0  0  0  0  0  0  0  0  0  0  0
  184.7080  179.1010  142.7610 C   0  0  0  0  0  0  0  0  0  0  0  0
  185.4230  179.3500  141.4950 C   0  0  1  0  0  3  0  0  0  0  0  0
  183.5430  178.3270  142.6030 N   0  0  0  0  0  0  0  0  0  0  0  0
  184.2560  179.3230  139.2600 C   0  0  0  0  0  2  0  0  0  0  0  0
  182.7980  179.7600  139.3330 C   0  0  0  0  0  2  0  0  0  0  0  0
  182.0760  179.4600  138.0290 C   0  0  0  0  0  2  0  0  0  0  0  0
  180.9040  178.7530  138.2840 O   0  0  0  0  0  1  0  0  0  0  0  0
  1  7  1  6  0  0  0
  1  9  1  0  0  0  0
  2 13  2  0  0  0  0
  2  6  1  0  0  0  0
  4 12  1  0  0  0  0
  4  3  2  0  0  0  0
  5  3  1  6  0  0  0
  5 11  1  0  0  0  0
  5  1  1  0  0  0  0
  6 39  1  1  0  0  0
  9  8  1  6  0  0  0
  9  6  1  0  0  0  0
 10 12  2  0  0  0  0
 11  2  1  0  0  0  0
 12  7  1  0  0  0  0
 14 17  1  0  0  0  0
 15 24  1  6  0  0  0
 15 17  1  0  0  0  0
 16 15  1  0  0  0  0
 17  4  1  1  0  0  0
 18 20  1  1  0  0  0
 18 19  1  0  0  0  0
 18 16  1  0  0  0  0
 19 14  1  0  0  0  0
 20 21  1  1  0  0  0
 20 22  1  0  0  0  0
 23 22  1  0  0  0  0
 24 25  1  1  0  0  0
 24 28  1  0  0  0  0
 26 25  1  0  0  0  0
 27 26  1  0  0  0  0
 29 31  1  0  0  0  0
 29 30  2  0  0  0  0
 31 28  1  0  0  0  0
 32 34  1  0  0  0  0
 32 29  1  1  0  0  0
 32 36  1  0  0  0  0
 34 33  1  6  0  0  0
 34 36  1  0  0  0  0
 35 32  1  0  0  0  0
 35 34  1  0  0  0  0
 36 38  1  1  0  0  0
 38 37  1  0  0  0  0
 39 40  1  0  0  0  0
 41 11  1  0  0  0  0
 42 41  1  0  0  0  0
 43 48  2  0  0  0  0
 44 49  1  6  0  0  0
 44 43  1  0  0  0  0
 44 47  1  0  0  0  0
 46 45  2  0  0  0  0
 47 42  1  1  0  0  0
 47 46  1  0  0  0  0
 48 46  1  0  0  0  0
 49 50  1  0  0  0  0
 51 52  1  0  0  0  0
 51 50  1  0  0  0  0
M  END
>  <MODEL>
2

>  <REMARK>
 VINA RESULT:      -7.6      3.083      7.500
  Name = 
  17 active torsions:
  status: ('A' for Active; 'I' for Inactive)
    1  A    between atoms: C_2  and  C_24
    2  A    between atoms: C_3  and  O_23
    3  A    between atoms: C_3  and  C_46
    4  A    between atoms: C_5  and  C_18
    5  A    between atoms: C_7  and  C_17
    6  A    between atoms: C_7  and  C_42
    7  A    between atoms: C_10  and  C_27
    8  A    between atoms: C_11  and  C_46
    9  A    between atoms: C_14  and  C_44
   10  A    between atoms: C_16  and  C_43
   11  A    between atoms: C_19  and  O_25
   12  A    between atoms: C_24  and  C_44
   13  A    between atoms: C_28  and  C_31
   14  A    between atoms: C_28  and  C_39
   15  A    between atoms: C_31  and  N_41
   16  A    between atoms: C_34  and  C_46
   17  A    between atoms: C_34  and  N_52
                            x       y       z     vdW  Elec       q    Type
                         _______ _______ _______ _____ _____    ______ ____

>  <TORSDO>
F 17

$$$$
=
 OpenBabel11062415123D

 52 57  0  0  1  0  0  0  0  0999 V2000
  187.5950  176.7730  136.9820 C   0  0  1  0  0  3  0  0  0  0  0  0
  189.7090  176.7680  138.9420 C   0  0  0  0  0  0  0  0  0  0  0  0
  186.0790  177.8560  138.6490 C   0  0  0  0  0  3  0  0  0  0  0  0
  185.0380  177.7580  137.8110 C   0  0  0  0  0  0  0  0  0  0  0  0
  187.5060  177.7550  138.1680 C   0  0  1  0  0  3  0  0  0  0  0  0
  189.8790  176.0690  137.6080 C   0  0  1  0  0  3  0  0  0  0  0  0
  186.6480  177.1880  135.8540 C   0  0  0  0  0  2  0  0  0  0  0  0
  189.5600  177.9760  135.9540 C   0  0  0  0  0  1  0  0  0  0  0  0
  189.0280  176.6420  136.4730 C   0  0  2  0  0  3  0  0  0  0  0  0
  184.3060  177.4630  135.5580 O   0  0  0  0  0  0  0  0  0  0  0  0
  188.4570  177.4290  139.2550 N   0  0  0  0  0  0  0  0  0  0  0  0
  185.2670  177.4600  136.3720 C   0  0  0  0  0  0  0  0  0  0  0  0
  190.6250  176.5740  139.8880 C   0  0  0  0  0  2  0  0  0  0  0  0
  183.5270  179.4890  138.7380 C   0  0  0  0  0  2  0  0  0  0  0  0
  182.5710  177.5430  137.3700 C   0  0  1  0  0  3  0  0  0  0  0  0
  181.5840  178.6460  136.9520 C   0  0  0  0  0  2  0  0  0  0  0  0
  183.6630  178.0150  138.3510 C   0  0  1  0  0  3  0  0  0  0  0  0
  181.0370  179.4210  138.1580 C   0  0  1  0  0  3  0  0  0  0  0  0
  182.1060  179.7890  139.2050 C   0  0  0  0  0  2  0  0  0  0  0  0
  180.2540  180.6440  137.6900 C   0  0  2  0  0  3  0  0  0  0  0  0
  180.4910  180.8890  136.3490 F   0  0  0  0  0  0  0  0  0  0  0  0
  180.6100  181.8760  138.5100 C   0  0  0  0  0  2  0  0  0  0  0  0
  181.0670  183.0040  137.6020 C   0  0  0  0  0  1  0  0  0  0  0  0
  181.9060  176.2310  137.8160 C   0  0  2  0  0  3  0  0  0  0  0  0
  182.3880  175.8390  139.2000 C   0  0  0  0  0  2  0  0  0  0  0  0
  181.5210  176.3610  140.1610 O   0  0  0  0  0  0  0  0  0  0  0  0
  180.2860  175.7890  139.8790 C   0  0  0  0  0  1  0  0  0  0  0  0
  182.1150  175.0750  136.8460 C   0  0  0  0  0  2  0  0  0  0  0  0
  184.3010  174.0580  136.0830 C   0  0  0  0  0  0  0  0  0  0  0  0
  184.0390  174.3370  134.8820 O   0  0  0  0  0  0  0  0  0  0  0  0
  183.3860  174.4260  137.1210 N   0  0  0  0  0  2  0  0  0  0  0  0
  185.5810  173.3200  136.3990 C   0  0  1  0  0  0  0  0  0  0  0  0
  187.4420  171.7540  135.8760 O   0  0  0  0  0  1  0  0  0  0  0  0
  186.2230  172.2830  135.4470 C   0  0  2  0  0  0  0  0  0  0  0  0
  186.4390  173.6580  135.3470 O   0  0  0  0  0  0  0  0  0  0  0  0
  185.2480  171.8380  136.4940 C   0  0  2  0  0  3  0  0  0  0  0  0
  183.4520  170.2600  136.4840 O   0  0  0  0  0  1  0  0  0  0  0  0
  184.0080  171.3150  135.7650 C   0  0  0  0  0  2  0  0  0  0  0  0
  191.1940  175.6900  137.2380 O   0  0  0  0  0  0  0  0  0  0  0  0
  191.2520  174.3010  137.0560 C   0  0  0  0  0  1  0  0  0  0  0  0
  188.3650  178.1730  140.5190 C   0  0  0  0  0  2  0  0  0  0  0  0
  188.5400  177.2690  141.7410 C   0  0  0  0  0  2  0  0  0  0  0  0
  188.4080  177.1960  145.4250 C   0  0  0  0  0  3  0  0  0  0  0  0
  187.6050  177.2730  144.1180 C   0  0  2  0  0  3  0  0  0  0  0  0
  190.8540  178.5020  143.2500 O   0  0  0  0  0  0  0  0  0  0  0  0
  189.8070  178.0420  143.7770 C   0  0  0  0  0  0  0  0  0  0  0  0
  188.4990  177.9810  143.0990 C   0  0  1  0  0  3  0  0  0  0  0  0
  189.7700  177.5840  145.1070 N   0  0  0  0  0  0  0  0  0  0  0  0
  186.3190  178.0500  144.3660 C   0  0  0  0  0  2  0  0  0  0  0  0
  185.3640  177.9310  143.1850 C   0  0  0  0  0  2  0  0  0  0  0  0
  184.8660  179.3000  142.7500 C   0  0  0  0  0  2  0  0  0  0  0  0
  185.5180  179.6990  141.5860 O   0  0  0  0  0  1  0  0  0  0  0  0
  1  7  1  6  0  0  0
  1  5  1  0  0  0  0
  2 11  1  0  0  0  0
  2 13  2  0  0  0  0
  4  3  2  0  0  0  0
  5  3  1  1  0  0  0
  5 11  1  0  0  0  0
  6 39  1  6  0  0  0
  6  2  1  0  0  0  0
  7 12  1  0  0  0  0
  9  8  1  1  0  0  0
  9  1  1  0  0  0  0
  9  6  1  0  0  0  0
 10 12  2  0  0  0  0
 11 41  1  0  0  0  0
 12  4  1  0  0  0  0
 14 19  1  0  0  0  0
 15 24  1  1  0  0  0
 15 17  1  0  0  0  0
 16 15  1  0  0  0  0
 16 18  1  0  0  0  0
 17  4  1  6  0  0  0
 17 14  1  0  0  0  0
 18 20  1  6  0  0  0
 18 19  1  0  0  0  0
 20 21  1  6  0  0  0
 20 22  1  0  0  0  0
 23 22  1  0  0  0  0
 24 28  1  6  0  0  0
 24 25  1  0  0  0  0
 25 26  1  0  0  0  0
 27 26  1  0  0  0  0
 28 31  1  0  0  0  0
 29 31  1  0  0  0  0
 30 29  2  0  0  0  0
 32 29  1  6  0  0  0
 32 36  1  0  0  0  0
 34 33  1  1  0  0  0
 34 32  1  0  0  0  0
 34 36  1  0  0  0  0
 35 34  1  0  0  0  0
 35 32  1  0  0  0  0
 36 38  1  6  0  0  0
 38 37  1  0  0  0  0
 40 39  1  0  0  0  0
 41 42  1  0  0  0  0
 44 49  1  1  0  0  0
 44 43  1  0  0  0  0
 45 46  2  0  0  0  0
 46 48  1  0  0  0  0
 47 42  1  6  0  0  0
 47 46  1  0  0  0  0
 47 44  1  0  0  0  0
 48 43  2  0  0  0  0
 50 49  1  0  0  0  0
 51 50  1  0  0  0  0
 52 51  1  0  0  0  0
M  END
>  <MODEL>
3

>  <REMARK>
 VINA RESULT:      -7.1      3.476      7.517
  Name = 
  17 active torsions:
  status: ('A' for Active; 'I' for Inactive)
    1  A    between atoms: C_2  and  C_24
    2  A    between atoms: C_3  and  O_23
    3  A    between atoms: C_3  and  C_46
    4  A    between atoms: C_5  and  C_18
    5  A    between atoms: C_7  and  C_17
    6  A    between atoms: C_7  and  C_42
    7  A    between atoms: C_10  and  C_27
    8  A    between atoms: C_11  and  C_46
    9  A    between atoms: C_14  and  C_44
   10  A    between atoms: C_16  and  C_43
   11  A    between atoms: C_19  and  O_25
   12  A    between atoms: C_24  and  C_44
   13  A    between atoms: C_28  and  C_31
   14  A    between atoms: C_28  and  C_39
   15  A    between atoms: C_31  and  N_41
   16  A    between atoms: C_34  and  C_46
   17  A    between atoms: C_34  and  N_52
                            x       y       z     vdW  Elec       q    Type
                         _______ _______ _______ _____ _____    ______ ____

>  <TORSDO>
F 17

$$$$
=
 OpenBabel11062415123D

 52 57  0  0  1  0  0  0  0  0999 V2000
  186.4270  178.5390  145.3020 C   0  0  1  0  0  3  0  0  0  0  0  0
  189.0000  177.2640  145.0410 C   0  0  0  0  0  0  0  0  0  0  0  0
  185.9470  178.0150  142.9050 C   0  0  0  0  0  3  0  0  0  0  0  0
  184.8020  178.7100  142.9510 C   0  0  0  0  0  0  0  0  0  0  0  0
  186.6390  177.5300  144.1550 C   0  0  1  0  0  3  0  0  0  0  0  0
  188.6230  178.0130  146.3040 C   0  0  1  0  0  3  0  0  0  0  0  0
  184.9370  178.7890  145.5440 C   0  0  0  0  0  2  0  0  0  0  0  0
  186.5520  176.7550  147.0810 C   0  0  0  0  0  1  0  0  0  0  0  0
  187.1200  178.0820  146.5820 C   0  0  2  0  0  3  0  0  0  0  0  0
  183.0960  179.6630  144.3220 O   0  0  0  0  0  0  0  0  0  0  0  0
  188.0670  177.2070  143.9320 N   0  0  0  0  0  0  0  0  0  0  0  0
  184.2190  179.0970  144.2630 C   0  0  0  0  0  0  0  0  0  0  0  0
  190.2600  176.8650  144.8850 C   0  0  0  0  0  2  0  0  0  0  0  0
  185.1240  179.0310  140.5150 C   0  0  0  0  0  2  0  0  0  0  0  0
  182.9190  178.0760  141.4090 C   0  0  1  0  0  3  0  0  0  0  0  0
  183.0010  177.3040  140.0810 C   0  0  0  0  0  2  0  0  0  0  0  0
  184.1080  179.0250  141.6590 C   0  0  1  0  0  3  0  0  0  0  0  0
  183.3170  178.2240  138.8950 C   0  0  1  0  0  3  0  0  0  0  0  0
  184.4220  179.2600  139.1790 C   0  0  0  0  0  2  0  0  0  0  0  0
  183.6200  177.3980  137.6490 C   0  0  2  0  0  3  0  0  0  0  0  0
  183.2330  176.0820  137.8330 F   0  0  0  0  0  0  0  0  0  0  0  0
  185.0990  177.4540  137.2940 C   0  0  0  0  0  2  0  0  0  0  0  0
  185.2960  177.2230  135.8060 C   0  0  0  0  0  1  0  0  0  0  0  0
  181.5620  178.7500  141.6680 C   0  0  2  0  0  3  0  0  0  0  0  0
  181.0520  178.3930  143.0510 C   0  0  0  0  0  2  0  0  0  0  0  0
  179.6570  178.4210  143.0560 O   0  0  0  0  0  0  0  0  0  0  0  0
  179.3080  178.7030  144.3710 C   0  0  0  0  0  1  0  0  0  0  0  0
  180.5030  178.4240  140.6230 C   0  0  0  0  0  2  0  0  0  0  0  0
  179.7880  179.8470  138.6590 C   0  0  0  0  0  0  0  0  0  0  0  0
  180.0550  178.9140  137.8550 O   0  0  0  0  0  0  0  0  0  0  0  0
  179.9660  179.6540  140.0670 N   0  0  0  0  0  2  0  0  0  0  0  0
  179.2940  181.1650  138.1100 C   0  0  1  0  0  0  0  0  0  0  0  0
  179.2890  183.0410  136.4760 O   0  0  0  0  0  1  0  0  0  0  0  0
  179.9210  181.8640  136.8800 C   0  0  2  0  0  0  0  0  0  0  0  0
  178.9410  180.8750  136.7880 O   0  0  0  0  0  0  0  0  0  0  0  0
  180.4220  182.1770  138.2570 C   0  0  2  0  0  3  0  0  0  0  0  0
  182.7270  182.7380  138.5490 O   0  0  0  0  0  1  0  0  0  0  0  0
  181.8610  181.6670  138.3430 C   0  0  0  0  0  2  0  0  0  0  0  0
  189.4350  177.8040  147.4470 O   0  0  0  0  0  0  0  0  0  0  0  0
  188.7730  178.2770  148.5890 C   0  0  0  0  0  1  0  0  0  0  0  0
  188.4320  176.3950  142.7640 C   0  0  0  0  0  2  0  0  0  0  0  0
  189.8480  176.6940  142.2650 C   0  0  0  0  0  2  0  0  0  0  0  0
  188.9220  176.9420  138.7050 C   0  0  0  0  0  3  0  0  0  0  0  0
  189.9310  176.4030  139.7290 C   0  0  2  0  0  3  0  0  0  0  0  0
  188.3920  179.1900  141.3670 O   0  0  0  0  0  0  0  0  0  0  0  0
  188.7850  178.2660  140.6080 C   0  0  0  0  0  0  0  0  0  0  0  0
  189.9330  177.3870  140.9000 C   0  0  1  0  0  3  0  0  0  0  0  0
  188.1900  178.0120  139.3580 N   0  0  0  0  0  0  0  0  0  0  0  0
  191.3040  176.3110  139.0780 C   0  0  0  0  0  2  0  0  0  0  0  0
  191.2290  176.5940  137.5820 C   0  0  0  0  0  2  0  0  0  0  0  0
  192.5670  176.3240  136.9120 C   0  0  0  0  0  2  0  0  0  0  0  0
  193.6090  176.7020  137.7550 O   0  0  0  0  0  1  0  0  0  0  0  0
  1  7  1  1  0  0  0
  1  9  1  0  0  0  0
  2  6  1  0  0  0  0
  3  4  2  0  0  0  0
  4 12  1  0  0  0  0
  5  3  1  6  0  0  0
  5  1  1  0  0  0  0
  6  9  1  0  0  0  0
  6 39  1  1  0  0  0
  9  8  1  6  0  0  0
 11  5  1  0  0  0  0
 11  2  1  0  0  0  0
 12 10  2  0  0  0  0
 12  7  1  0  0  0  0
 13  2  2  0  0  0  0
 14 17  1  0  0  0  0
 15 17  1  0  0  0  0
 15 24  1  6  0  0  0
 16 15  1  0  0  0  0
 17  4  1  1  0  0  0
 18 20  1  6  0  0  0
 18 19  1  0  0  0  0
 18 16  1  0  0  0  0
 19 14  1  0  0  0  0
 20 21  1  1  0  0  0
 22 20  1  0  0  0  0
 23 22  1  0  0  0  0
 24 28  1  6  0  0  0
 24 25  1  0  0  0  0
 25 26  1  0  0  0  0
 26 27  1  0  0  0  0
 29 31  1  0  0  0  0
 30 29  2  0  0  0  0
 31 28  1  0  0  0  0
 32 36  1  0  0  0  0
 32 29  1  6  0  0  0
 34 33  1  1  0  0  0
 34 32  1  0  0  0  0
 34 36  1  0  0  0  0
 35 34  1  0  0  0  0
 35 32  1  0  0  0  0
 36 38  1  6  0  0  0
 38 37  1  0  0  0  0
 39 40  1  0  0  0  0
 41 11  1  0  0  0  0
 42 41  1  0  0  0  0
 43 48  2  0  0  0  0
 43 44  1  0  0  0  0
 44 49  1  6  0  0  0
 44 47  1  0  0  0  0
 46 47  1  0  0  0  0
 46 45  2  0  0  0  0
 47 42  1  1  0  0  0
 48 46  1  0  0  0  0
 50 49  1  0  0  0  0
 51 50  1  0  0  0  0
 51 52  1  0  0  0  0
M  END
>  <MODEL>
4

>  <REMARK>
 VINA RESULT:      -7.1      1.865      2.233
  Name = 
  17 active torsions:
  status: ('A' for Active; 'I' for Inactive)
    1  A    between atoms: C_2  and  C_24
    2  A    between atoms: C_3  and  O_23
    3  A    between atoms: C_3  and  C_46
    4  A    between atoms: C_5  and  C_18
    5  A    between atoms: C_7  and  C_17
    6  A    between atoms: C_7  and  C_42
    7  A    between atoms: C_10  and  C_27
    8  A    between atoms: C_11  and  C_46
    9  A    between atoms: C_14  and  C_44
   10  A    between atoms: C_16  and  C_43
   11  A    between atoms: C_19  and  O_25
   12  A    between atoms: C_24  and  C_44
   13  A    between atoms: C_28  and  C_31
   14  A    between atoms: C_28  and  C_39
   15  A    between atoms: C_31  and  N_41
   16  A    between atoms: C_34  and  C_46
   17  A    between atoms: C_34  and  N_52
                            x       y       z     vdW  Elec       q    Type
                         _______ _______ _______ _____ _____    ______ ____

>  <TORSDO>
F 17

$$$$
=
 OpenBabel11062415123D

 52 57  0  0  1  0  0  0  0  0999 V2000
  184.8430  178.9570  145.1270 C   0  0  1  0  0  3  0  0  0  0  0  0
  187.5210  178.0430  145.6780 C   0  0  0  0  0  0  0  0  0  0  0  0
  185.0750  178.1520  142.7720 C   0  0  0  0  0  3  0  0  0  0  0  0
  183.8870  178.6780  142.4430 C   0  0  0  0  0  0  0  0  0  0  0  0
  185.4640  177.8870  144.2050 C   0  0  1  0  0  3  0  0  0  0  0  0
  186.7420  178.8420  146.7030 C   0  0  1  0  0  3  0  0  0  0  0  0
  183.3230  179.0130  144.9560 C   0  0  0  0  0  2  0  0  0  0  0  0
  184.6970  177.3790  147.0900 C   0  0  0  0  0  1  0  0  0  0  0  0
  185.2210  178.7220  146.5860 C   0  0  2  0  0  3  0  0  0  0  0  0
  181.7830  179.5000  143.2140 O   0  0  0  0  0  0  0  0  0  0  0  0
  186.9270  177.7520  144.3880 N   0  0  0  0  0  0  0  0  0  0  0  0
  182.9390  179.0970  143.5080 C   0  0  0  0  0  0  0  0  0  0  0  0
  188.8150  177.8150  145.8940 C   0  0  0  0  0  2  0  0  0  0  0  0
  184.7980  178.9330  140.1520 C   0  0  0  0  0  2  0  0  0  0  0  0
  182.6560  177.5810  140.5440 C   0  0  1  0  0  3  0  0  0  0  0  0
  183.2440  176.7750  139.3730 C   0  0  0  0  0  2  0  0  0  0  0  0
  183.5280  178.7720  140.9890 C   0  0  1  0  0  3  0  0  0  0  0  0
  183.6920  177.6790  138.2170 C   0  0  1  0  0  3  0  0  0  0  0  0
  184.4590  178.9390  138.6640 C   0  0  0  0  0  2  0  0  0  0  0  0
  184.4770  176.8720  137.1880 C   0  0  2  0  0  3  0  0  0  0  0  0
  185.2520  177.7070  136.4030 F   0  0  0  0  0  0  0  0  0  0  0  0
  183.5490  176.0500  136.3040 C   0  0  0  0  0  2  0  0  0  0  0  0
  183.9650  174.5900  136.3120 C   0  0  0  0  0  1  0  0  0  0  0  0
  181.1780  177.9650  140.3720 C   0  0  2  0  0  3  0  0  0  0  0  0
  180.2970  177.0690  141.2220 C   0  0  0  0  0  2  0  0  0  0  0  0
  180.2780  175.7840  140.6800 O   0  0  0  0  0  0  0  0  0  0  0  0
  178.9330  175.4350  140.6310 C   0  0  0  0  0  1  0  0  0  0  0  0
  180.7010  177.9410  138.9250 C   0  0  0  0  0  2  0  0  0  0  0  0
  180.3690  179.8480  137.2980 C   0  0  0  0  0  0  0  0  0  0  0  0
  181.0430  179.2470  136.4190 O   0  0  0  0  0  0  0  0  0  0  0  0
  180.1380  179.2330  138.5700 N   0  0  0  0  0  2  0  0  0  0  0  0
  179.8280  181.2250  136.9900 C   0  0  1  0  0  0  0  0  0  0  0  0
  179.9970  183.5400  136.0960 O   0  0  0  0  0  1  0  0  0  0  0  0
  180.6840  182.3580  136.3750 C   0  0  2  0  0  0  0  0  0  0  0  0
  180.0440  181.3770  135.6160 O   0  0  0  0  0  0  0  0  0  0  0  0
  180.5770  182.2210  137.8640 C   0  0  2  0  0  3  0  0  0  0  0  0
  182.7440  182.9900  138.5170 O   0  0  0  0  0  1  0  0  0  0  0  0
  181.9650  181.8440  138.3850 C   0  0  0  0  0  2  0  0  0  0  0  0
  187.2420  178.8570  148.0300 O   0  0  0  0  0  0  0  0  0  0  0  0
  187.8650  177.6350  148.3140 C   0  0  0  0  0  1  0  0  0  0  0  0
  187.6780  176.8970  143.4590 C   0  0  0  0  0  2  0  0  0  0  0  0
  187.6930  177.4560  142.0350 C   0  0  0  0  0  2  0  0  0  0  0  0
  190.9310  176.6340  140.4740 C   0  0  0  0  0  3  0  0  0  0  0  0
  190.1560  176.8260  141.7850 C   0  0  2  0  0  3  0  0  0  0  0  0
  188.3360  178.7520  139.3770 O   0  0  0  0  0  0  0  0  0  0  0  0
  189.1210  178.0220  140.0370 C   0  0  0  0  0  0  0  0  0  0  0  0
  189.0720  177.8670  141.5030 C   0  0  1  0  0  3  0  0  0  0  0  0
  190.1750  177.3090  139.4350 N   0  0  0  0  0  0  0  0  0  0  0  0
  191.1150  177.3010  142.8680 C   0  0  0  0  0  2  0  0  0  0  0  0
  191.6300  176.1350  143.7040 C   0  0  0  0  0  2  0  0  0  0  0  0
  191.7620  176.5320  145.1650 C   0  0  0  0  0  2  0  0  0  0  0  0
  192.1920  175.4430  145.9190 O   0  0  0  0  0  1  0  0  0  0  0  0
  1  7  1  1  0  0  0
  1  9  1  0  0  0  0
  2 13  2  0  0  0  0
  2  6  1  0  0  0  0
  4  3  2  0  0  0  0
  4 12  1  0  0  0  0
  5  3  1  6  0  0  0
  5 11  1  0  0  0  0
  5  1  1  0  0  0  0
  6 39  1  1  0  0  0
  9  6  1  0  0  0  0
  9  8  1  6  0  0  0
 10 12  2  0  0  0  0
 11  2  1  0  0  0  0
 12  7  1  0  0  0  0
 14 17  1  0  0  0  0
 15 24  1  6  0  0  0
 15 17  1  0  0  0  0
 16 15  1  0  0  0  0
 17  4  1  1  0  0  0
 18 20  1  6  0  0  0
 18 19  1  0  0  0  0
 18 16  1  0  0  0  0
 19 14  1  0  0  0  0
 20 21  1  6  0  0  0
 22 23  1  0  0  0  0
 22 20  1  0  0  0  0
 24 28  1  6  0  0  0
 24 25  1  0  0  0  0
 26 25  1  0  0  0  0
 27 26  1  0  0  0  0
 29 31  1  0  0  0  0
 30 29  2  0  0  0  0
 31 28  1  0  0  0  0
 32 29  1  1  0  0  0
 32 36  1  0  0  0  0
 34 33  1  6  0  0  0
 34 32  1  0  0  0  0
 34 36  1  0  0  0  0
 35 34  1  0  0  0  0
 35 32  1  0  0  0  0
 36 38  1  1  0  0  0
 38 37  1  0  0  0  0
 39 40  1  0  0  0  0
 41 11  1  0  0  0  0
 42 41  1  0  0  0  0
 43 44  1  0  0  0  0
 44 49  1  1  0  0  0
 45 46  2  0  0  0  0
 46 47  1  0  0  0  0
 47 44  1  0  0  0  0
 47 42  1  6  0  0  0
 48 46  1  0  0  0  0
 48 43  2  0  0  0  0
 49 50  1  0  0  0  0
 50 51  1  0  0  0  0
 51 52  1  0  0  0  0
M  END
>  <MODEL>
5

>  <REMARK>
 VINA RESULT:      -7.1      1.342      2.740
  Name = 
  17 active torsions:
  status: ('A' for Active; 'I' for Inactive)
    1  A    between atoms: C_2  and  C_24
    2  A    between atoms: C_3  and  O_23
    3  A    between atoms: C_3  and  C_46
    4  A    between atoms: C_5  and  C_18
    5  A    between atoms: C_7  and  C_17
    6  A    between atoms: C_7  and  C_42
    7  A    between atoms: C_10  and  C_27
    8  A    between atoms: C_11  and  C_46
    9  A    between atoms: C_14  and  C_44
   10  A    between atoms: C_16  and  C_43
   11  A    between atoms: C_19  and  O_25
   12  A    between atoms: C_24  and  C_44
   13  A    between atoms: C_28  and  C_31
   14  A    between atoms: C_28  and  C_39
   15  A    between atoms: C_31  and  N_41
   16  A    between atoms: C_34  and  C_46
   17  A    between atoms: C_34  and  N_52
                            x       y       z     vdW  Elec       q    Type
                         _______ _______ _______ _____ _____    ______ ____

>  <TORSDO>
F 17

$$$$
=
 OpenBabel11062415123D

 52 57  0  0  1  0  0  0  0  0999 V2000
  182.9630  177.8360  136.8050 C   0  0  1  0  0  3  0  0  0  0  0  0
  181.8940  179.3530  139.0110 C   0  0  0  0  0  0  0  0  0  0  0  0
  185.2060  177.8480  137.9110 C   0  0  0  0  0  3  0  0  0  0  0  0
  185.7670  177.2580  136.8460 C   0  0  0  0  0  0  0  0  0  0  0  0
  183.7160  177.8150  138.1510 C   0  0  1  0  0  3  0  0  0  0  0  0
  181.0600  179.0750  137.7770 C   0  0  1  0  0  3  0  0  0  0  0  0
  183.4150  176.6830  135.9060 C   0  0  0  0  0  2  0  0  0  0  0  0
  181.0080  176.5320  137.7200 C   0  0  0  0  0  1  0  0  0  0  0  0
  181.4520  177.8090  137.0110 C   0  0  2  0  0  3  0  0  0  0  0  0
  185.4290  175.9720  134.8630 O   0  0  0  0  0  0  0  0  0  0  0  0
  183.2610  178.8740  139.0800 N   0  0  0  0  0  0  0  0  0  0  0  0
  184.9110  176.6140  135.8150 C   0  0  0  0  0  0  0  0  0  0  0  0
  181.4350  180.2180  139.9120 C   0  0  0  0  0  2  0  0  0  0  0  0
  187.8530  178.4770  137.3950 C   0  0  0  0  0  2  0  0  0  0  0  0
  187.8280  175.9140  137.3710 C   0  0  1  0  0  3  0  0  0  0  0  0
  188.8420  176.1390  138.5050 C   0  0  0  0  0  2  0  0  0  0  0  0
  187.2640  177.2150  136.7640 C   0  0  1  0  0  3  0  0  0  0  0  0
  189.9220  177.1600  138.1220 C   0  0  1  0  0  3  0  0  0  0  0  0
  189.3770  178.4100  137.4020 C   0  0  0  0  0  2  0  0  0  0  0  0
  190.7600  177.5270  139.3420 C   0  0  2  0  0  3  0  0  0  0  0  0
  191.9140  176.7650  139.3860 F   0  0  0  0  0  0  0  0  0  0  0  0
  189.9720  177.3430  140.6310 C   0  0  0  0  0  2  0  0  0  0  0  0
  190.9130  177.1070  141.7990 C   0  0  0  0  0  1  0  0  0  0  0  0
  188.2860  174.9140  136.2980 C   0  0  2  0  0  3  0  0  0  0  0  0
  188.7400  173.6190  136.9440 C   0  0  0  0  0  2  0  0  0  0  0  0
  187.7010  172.6880  136.9050 O   0  0  0  0  0  0  0  0  0  0  0  0
  188.1020  171.7410  135.9710 C   0  0  0  0  0  1  0  0  0  0  0  0
  189.3810  175.4500  135.3840 C   0  0  0  0  0  2  0  0  0  0  0  0
  191.8340  174.8480  135.2660 C   0  0  0  0  0  0  0  0  0  0  0  0
  192.1620  176.0570  135.4060 O   0  0  0  0  0  0  0  0  0  0  0  0
  190.4510  174.4740  135.2740 N   0  0  0  0  0  2  0  0  0  0  0  0
  192.9190  173.8140  135.0770 C   0  0  1  0  0  0  0  0  0  0  0  0
  194.1520  171.7380  135.6770 O   0  0  0  0  0  1  0  0  0  0  0  0
  193.1470  172.6320  136.0500 C   0  0  2  0  0  0  0  0  0  0  0  0
  192.2260  172.6010  135.0020 O   0  0  0  0  0  0  0  0  0  0  0  0
  193.8740  173.9260  136.2570 C   0  0  2  0  0  3  0  0  0  0  0  0
  194.2870  175.4460  138.0550 O   0  0  0  0  0  1  0  0  0  0  0  0
  193.3590  174.5310  137.5650 C   0  0  0  0  0  2  0  0  0  0  0  0
  179.6650  179.3100  137.8710 O   0  0  0  0  0  0  0  0  0  0  0  0
  179.1780  179.7630  136.6370 C   0  0  0  0  0  1  0  0  0  0  0  0
  184.0040  179.0840  140.3290 C   0  0  0  0  0  2  0  0  0  0  0  0
  184.0140  177.8390  141.2180 C   0  0  0  0  0  2  0  0  0  0  0  0
  184.6460  179.9590  144.1680 C   0  0  0  0  0  3  0  0  0  0  0  0
  185.1590  178.8150  143.2820 C   0  0  2  0  0  3  0  0  0  0  0  0
  181.6140  178.8150  142.7820 O   0  0  0  0  0  0  0  0  0  0  0  0
  182.8160  179.0020  143.1060 C   0  0  0  0  0  0  0  0  0  0  0  0
  183.9240  178.1050  142.7260 C   0  0  1  0  0  3  0  0  0  0  0  0
  183.2200  180.0750  143.9220 N   0  0  0  0  0  0  0  0  0  0  0  0
  186.0100  177.8740  144.1240 C   0  0  0  0  0  2  0  0  0  0  0  0
  187.3080  177.5120  143.4110 C   0  0  0  0  0  2  0  0  0  0  0  0
  188.4670  177.4570  144.3920 C   0  0  0  0  0  2  0  0  0  0  0  0
  187.9870  177.3360  145.6930 O   0  0  0  0  0  1  0  0  0  0  0  0
  1  7  1  6  0  0  0
  1  9  1  0  0  0  0
  1  5  1  0  0  0  0
  2 11  1  0  0  0  0
  2 13  2  0  0  0  0
  4  3  2  0  0  0  0
  5  3  1  6  0  0  0
  5 11  1  0  0  0  0
  6 39  1  1  0  0  0
  6  2  1  0  0  0  0
  9  8  1  1  0  0  0
  9  6  1  0  0  0  0
 10 12  2  0  0  0  0
 11 41  1  0  0  0  0
 12  7  1  0  0  0  0
 12  4  1  0  0  0  0
 14 19  1  0  0  0  0
 15 24  1  6  0  0  0
 15 16  1  0  0  0  0
 17  4  1  1  0  0  0
 17 15  1  0  0  0  0
 17 14  1  0  0  0  0
 18 16  1  0  0  0  0
 18 20  1  1  0  0  0
 19 18  1  0  0  0  0
 20 21  1  1  0  0  0
 20 22  1  0  0  0  0
 22 23  1  0  0  0  0
 24 28  1  1  0  0  0
 24 25  1  0  0  0  0
 26 25  1  0  0  0  0
 27 26  1  0  0  0  0
 29 31  1  0  0  0  0
 29 30  2  0  0  0  0
 31 28  1  0  0  0  0
 32 29  1  1  0  0  0
 32 34  1  0  0  0  0
 32 36  1  0  0  0  0
 34 33  1  6  0  0  0
 34 36  1  0  0  0  0
 35 32  1  0  0  0  0
 35 34  1  0  0  0  0
 36 38  1  1  0  0  0
 38 37  1  0  0  0  0
 40 39  1  0  0  0  0
 41 42  1  0  0  0  0
 44 49  1  1  0  0  0
 44 43  1  0  0  0  0
 45 46  2  0  0  0  0
 46 48  1  0  0  0  0
 47 42  1  6  0  0  0
 47 46  1  0  0  0  0
 47 44  1  0  0  0  0
 48 43  2  0  0  0  0
 50 49  1  0  0  0  0
 50 51  1  0  0  0  0
 51 52  1  0  0  0  0
M  END
>  <MODEL>
6

>  <REMARK>
 VINA RESULT:      -6.8      3.738     10.261
  Name = 
  17 active torsions:
  status: ('A' for Active; 'I' for Inactive)
    1  A    between atoms: C_2  and  C_24
    2  A    between atoms: C_3  and  O_23
    3  A    between atoms: C_3  and  C_46
    4  A    between atoms: C_5  and  C_18
    5  A    between atoms: C_7  and  C_17
    6  A    between atoms: C_7  and  C_42
    7  A    between atoms: C_10  and  C_27
    8  A    between atoms: C_11  and  C_46
    9  A    between atoms: C_14  and  C_44
   10  A    between atoms: C_16  and  C_43
   11  A    between atoms: C_19  and  O_25
   12  A    between atoms: C_24  and  C_44
   13  A    between atoms: C_28  and  C_31
   14  A    between atoms: C_28  and  C_39
   15  A    between atoms: C_31  and  N_41
   16  A    between atoms: C_34  and  C_46
   17  A    between atoms: C_34  and  N_52
                            x       y       z     vdW  Elec       q    Type
                         _______ _______ _______ _____ _____    ______ ____

>  <TORSDO>
F 17

$$$$
=
 OpenBabel11062415123D

 52 57  0  0  1  0  0  0  0  0999 V2000
  187.3570  177.0980  137.9280 C   0  0  1  0  0  3  0  0  0  0  0  0
  189.0160  177.4650  140.2570 C   0  0  0  0  0  0  0  0  0  0  0  0
  185.4710  178.2270  139.1190 C   0  0  0  0  0  3  0  0  0  0  0  0
  184.6330  177.9600  138.1070 C   0  0  0  0  0  0  0  0  0  0  0  0
  186.9690  178.1890  138.9480 C   0  0  1  0  0  3  0  0  0  0  0  0
  189.4970  176.6460  139.0760 C   0  0  1  0  0  3  0  0  0  0  0  0
  186.6420  177.3170  136.5930 C   0  0  0  0  0  2  0  0  0  0  0  0
  189.4220  178.3380  137.1770 C   0  0  0  0  0  1  0  0  0  0  0  0
  188.8680  177.0280  137.7340 C   0  0  2  0  0  3  0  0  0  0  0  0
  184.4010  177.3750  135.8050 O   0  0  0  0  0  0  0  0  0  0  0  0
  187.6910  178.0550  140.2330 N   0  0  0  0  0  0  0  0  0  0  0  0
  185.1710  177.5330  136.7890 C   0  0  0  0  0  0  0  0  0  0  0  0
  189.7260  177.4430  141.3830 C   0  0  0  0  0  2  0  0  0  0  0  0
  182.9230  179.5220  138.9900 C   0  0  0  0  0  2  0  0  0  0  0  0
  182.3630  177.9760  137.0240 C   0  0  1  0  0  3  0  0  0  0  0  0
  181.5090  179.1940  136.6300 C   0  0  0  0  0  2  0  0  0  0  0  0
  183.1630  178.1640  138.3280 C   0  0  1  0  0  3  0  0  0  0  0  0
  180.6660  179.7120  137.8020 C   0  0  1  0  0  3  0  0  0  0  0  0
  181.4280  179.7860  139.1400 C   0  0  0  0  0  2  0  0  0  0  0  0
  180.0220  181.0470  137.4420 C   0  0  2  0  0  3  0  0  0  0  0  0
  180.3040  181.3840  136.1290 F   0  0  0  0  0  0  0  0  0  0  0  0
  180.4910  182.1580  138.3710 C   0  0  0  0  0  2  0  0  0  0  0  0
  180.8310  183.4060  137.5760 C   0  0  0  0  0  1  0  0  0  0  0  0
  181.6140  176.6350  136.9800 C   0  0  2  0  0  3  0  0  0  0  0  0
  182.0870  175.7300  138.1020 C   0  0  0  0  0  2  0  0  0  0  0  0
  181.2900  175.9300  139.2300 O   0  0  0  0  0  0  0  0  0  0  0  0
  180.4720  174.8080  139.2950 C   0  0  0  0  0  1  0  0  0  0  0  0
  181.7280  175.9090  135.6450 C   0  0  0  0  0  2  0  0  0  0  0  0
  183.1170  173.8270  135.2930 C   0  0  0  0  0  0  0  0  0  0  0  0
  183.9460  174.4690  134.5950 O   0  0  0  0  0  0  0  0  0  0  0  0
  181.9930  174.4990  135.8720 N   0  0  0  0  0  2  0  0  0  0  0  0
  183.3220  172.3430  135.4920 C   0  0  1  0  0  0  0  0  0  0  0  0
  183.3400  170.2530  136.8420 O   0  0  0  0  0  1  0  0  0  0  0  0
  183.1820  171.6400  136.8630 C   0  0  2  0  0  0  0  0  0  0  0  0
  182.1040  171.8950  136.0140 O   0  0  0  0  0  0  0  0  0  0  0  0
  184.5150  172.1630  136.4210 C   0  0  2  0  0  3  0  0  0  0  0  0
  186.1140  173.0320  137.9710 O   0  0  0  0  0  1  0  0  0  0  0  0
  184.8900  173.3060  137.3660 C   0  0  0  0  0  2  0  0  0  0  0  0
  190.8790  176.3350  139.0240 O   0  0  0  0  0  0  0  0  0  0  0  0
  191.1150  175.4040  138.0020 C   0  0  0  0  0  1  0  0  0  0  0  0
  187.2980  178.9170  141.3560 C   0  0  0  0  0  2  0  0  0  0  0  0
  185.8000  178.8340  141.6580 C   0  0  0  0  0  2  0  0  0  0  0  0
  185.6260  178.8850  145.3410 C   0  0  0  0  0  3  0  0  0  0  0  0
  186.4420  178.4800  144.1050 C   0  0  2  0  0  3  0  0  0  0  0  0
  183.0630  178.6450  142.9340 O   0  0  0  0  0  0  0  0  0  0  0  0
  184.1560  178.6520  143.5590 C   0  0  0  0  0  0  0  0  0  0  0  0
  185.4340  178.1780  142.9960 C   0  0  1  0  0  3  0  0  0  0  0  0
  184.2560  179.0710  144.8990 N   0  0  0  0  0  0  0  0  0  0  0  0
  187.2840  177.2560  144.4400 C   0  0  0  0  0  2  0  0  0  0  0  0
  188.6370  177.6540  145.0190 C   0  0  0  0  0  2  0  0  0  0  0  0
  188.8110  177.0970  146.4220 C   0  0  0  0  0  2  0  0  0  0  0  0
  190.1630  176.9070  146.6960 O   0  0  0  0  0  1  0  0  0  0  0  0
  1  7  1  6  0  0  0
  1  5  1  0  0  0  0
  2 13  2  0  0  0  0
  4  3  2  0  0  0  0
  5  3  1  1  0  0  0
  5 11  1  0  0  0  0
  6 39  1  6  0  0  0
  6  2  1  0  0  0  0
  7 12  1  0  0  0  0
  9  8  1  1  0  0  0
  9  1  1  0  0  0  0
  9  6  1  0  0  0  0
 10 12  2  0  0  0  0
 11  2  1  0  0  0  0
 11 41  1  0  0  0  0
 12  4  1  0  0  0  0
 14 19  1  0  0  0  0
 15 24  1  1  0  0  0
 15 17  1  0  0  0  0
 16 15  1  0  0  0  0
 16 18  1  0  0  0  0
 17  4  1  6  0  0  0
 17 14  1  0  0  0  0
 18 20  1  6  0  0  0
 18 19  1  0  0  0  0
 20 21  1  6  0  0  0
 20 22  1  0  0  0  0
 23 22  1  0  0  0  0
 24 28  1  6  0  0  0
 24 25  1  0  0  0  0
 25 26  1  0  0  0  0
 26 27  1  0  0  0  0
 28 31  1  0  0  0  0
 29 31  1  0  0  0  0
 30 29  2  0  0  0  0
 32 29  1  1  0  0  0
 32 35  1  0  0  0  0
 32 36  1  0  0  0  0
 32 34  1  0  0  0  0
 34 33  1  6  0  0  0
 35 34  1  0  0  0  0
 36 34  1  0  0  0  0
 36 38  1  1  0  0  0
 38 37  1  0  0  0  0
 40 39  1  0  0  0  0
 41 42  1  0  0  0  0
 44 49  1  1  0  0  0
 44 43  1  0  0  0  0
 45 46  2  0  0  0  0
 46 48  1  0  0  0  0
 47 42  1  6  0  0  0
 47 46  1  0  0  0  0
 47 44  1  0  0  0  0
 48 43  2  0  0  0  0
 49 50  1  0  0  0  0
 50 51  1  0  0  0  0
 51 52  1  0  0  0  0
M  END
>  <MODEL>
7

>  <REMARK>
 VINA RESULT:      -6.7      3.448      7.553
  Name = 
  17 active torsions:
  status: ('A' for Active; 'I' for Inactive)
    1  A    between atoms: C_2  and  C_24
    2  A    between atoms: C_3  and  O_23
    3  A    between atoms: C_3  and  C_46
    4  A    between atoms: C_5  and  C_18
    5  A    between atoms: C_7  and  C_17
    6  A    between atoms: C_7  and  C_42
    7  A    between atoms: C_10  and  C_27
    8  A    between atoms: C_11  and  C_46
    9  A    between atoms: C_14  and  C_44
   10  A    between atoms: C_16  and  C_43
   11  A    between atoms: C_19  and  O_25
   12  A    between atoms: C_24  and  C_44
   13  A    between atoms: C_28  and  C_31
   14  A    between atoms: C_28  and  C_39
   15  A    between atoms: C_31  and  N_41
   16  A    between atoms: C_34  and  C_46
   17  A    between atoms: C_34  and  N_52
                            x       y       z     vdW  Elec       q    Type
                         _______ _______ _______ _____ _____    ______ ____

>  <TORSDO>
F 17

$$$$
=
 OpenBabel11062415123D

 52 57  0  0  1  0  0  0  0  0999 V2000
  180.5790  176.8830  140.3420 C   0  0  1  0  0  3  0  0  0  0  0  0
  181.3860  174.8720  138.4410 C   0  0  0  0  0  0  0  0  0  0  0  0
  182.9780  177.4990  140.6790 C   0  0  0  0  0  3  0  0  0  0  0  0
  182.6530  178.3510  141.6610 C   0  0  0  0  0  0  0  0  0  0  0  0
  181.9640  177.0100  139.6750 C   0  0  1  0  0  3  0  0  0  0  0  0
  179.9440  174.9870  138.8920 C   0  0  1  0  0  3  0  0  0  0  0  0
  180.1520  178.2090  140.9750 C   0  0  0  0  0  2  0  0  0  0  0  0
  179.3460  177.3600  138.1940 C   0  0  0  0  0  1  0  0  0  0  0  0
  179.5280  176.3850  139.3550 C   0  0  2  0  0  3  0  0  0  0  0  0
  180.9390  179.6550  142.6900 O   0  0  0  0  0  0  0  0  0  0  0  0
  182.3860  175.7670  138.9900 N   0  0  0  0  0  0  0  0  0  0  0  0
  181.2410  178.7800  141.8360 C   0  0  0  0  0  0  0  0  0  0  0  0
  181.7490  173.8130  137.7210 C   0  0  0  0  0  2  0  0  0  0  0  0
  183.2830  178.9690  143.9760 C   0  0  0  0  0  2  0  0  0  0  0  0
  185.0600  178.0980  142.3460 C   0  0  1  0  0  3  0  0  0  0  0  0
  185.6150  177.5080  143.6540 C   0  0  0  0  0  2  0  0  0  0  0  0
  183.7530  178.8970  142.5220 C   0  0  1  0  0  3  0  0  0  0  0  0
  185.6750  178.5490  144.7790 C   0  0  1  0  0  3  0  0  0  0  0  0
  184.4190  179.4370  144.8820 C   0  0  0  0  0  2  0  0  0  0  0  0
  186.0050  177.8750  146.1070 C   0  0  2  0  0  3  0  0  0  0  0  0
  185.9750  178.7960  147.1400 F   0  0  0  0  0  0  0  0  0  0  0  0
  187.3660  177.1960  146.0610 C   0  0  0  0  0  2  0  0  0  0  0  0
  188.2230  177.6470  147.2310 C   0  0  0  0  0  1  0  0  0  0  0  0
  186.0980  178.8460  141.4960 C   0  0  2  0  0  3  0  0  0  0  0  0
  185.4490  179.4090  140.2460 C   0  0  0  0  0  2  0  0  0  0  0  0
  185.8190  178.6410  139.1410 O   0  0  0  0  0  0  0  0  0  0  0  0
  184.9840  179.0660  138.1140 C   0  0  0  0  0  1  0  0  0  0  0  0
  187.3080  178.0010  141.1170 C   0  0  0  0  0  2  0  0  0  0  0  0
  189.1630  177.2070  142.6410 C   0  0  0  0  0  0  0  0  0  0  0  0
  188.9350  176.0070  142.3340 O   0  0  0  0  0  0  0  0  0  0  0  0
  188.3980  178.2590  142.0430 N   0  0  0  0  0  2  0  0  0  0  0  0
  190.2420  177.5090  143.6550 C   0  0  1  0  0  0  0  0  0  0  0  0
  192.0410  178.9110  144.6500 O   0  0  0  0  0  1  0  0  0  0  0  0
  191.1460  178.7640  143.5880 C   0  0  2  0  0  0  0  0  0  0  0  0
  189.8810  178.7560  144.1770 O   0  0  0  0  0  0  0  0  0  0  0  0
  191.5780  177.4900  142.9260 C   0  0  2  0  0  3  0  0  0  0  0  0
  192.7110  177.1310  140.8520 O   0  0  0  0  0  1  0  0  0  0  0  0
  191.5980  177.7470  141.4180 C   0  0  0  0  0  2  0  0  0  0  0  0
  178.9690  174.2940  138.1300 O   0  0  0  0  0  0  0  0  0  0  0  0
  179.2170  174.4820  136.7630 C   0  0  0  0  0  1  0  0  0  0  0  0
  183.7530  175.6840  138.4590 C   0  0  0  0  0  2  0  0  0  0  0  0
  183.8600  176.2340  137.0350 C   0  0  0  0  0  2  0  0  0  0  0  0
  187.2000  174.6860  136.8210 C   0  0  0  0  0  3  0  0  0  0  0  0
  186.3990  175.9940  136.9000 C   0  0  2  0  0  3  0  0  0  0  0  0
  184.0960  173.6140  135.5400 O   0  0  0  0  0  0  0  0  0  0  0  0
  185.0610  174.2640  136.0220 C   0  0  0  0  0  0  0  0  0  0  0  0
  185.0560  175.7260  136.2200 C   0  0  1  0  0  3  0  0  0  0  0  0
  186.2800  173.6560  136.3750 N   0  0  0  0  0  0  0  0  0  0  0  0
  187.1720  177.0970  136.1890 C   0  0  0  0  0  2  0  0  0  0  0  0
  188.5380  177.3180  136.8270 C   0  0  0  0  0  2  0  0  0  0  0  0
  188.8500  178.8020  136.9380 C   0  0  0  0  0  2  0  0  0  0  0  0
  188.9090  179.1790  138.2770 O   0  0  0  0  0  1  0  0  0  0  0  0
  1  7  1  6  0  0  0
  2  6  1  0  0  0  0
  2 11  1  0  0  0  0
  3  4  2  0  0  0  0
  4 12  1  0  0  0  0
  5  1  1  0  0  0  0
  5  3  1  1  0  0  0
  6 39  1  6  0  0  0
  6  9  1  0  0  0  0
  7 12  1  0  0  0  0
  9  8  1  6  0  0  0
  9  1  1  0  0  0  0
 11  5  1  0  0  0  0
 12 10  2  0  0  0  0
 13  2  2  0  0  0  0
 14 19  1  0  0  0  0
 15 24  1  1  0  0  0
 15 17  1  0  0  0  0
 15 16  1  0  0  0  0
 16 18  1  0  0  0  0
 17  4  1  6  0  0  0
 17 14  1  0  0  0  0
 18 19  1  0  0  0  0
 18 20  1  1  0  0  0
 20 21  1  1  0  0  0
 22 20  1  0  0  0  0
 22 23  1  0  0  0  0
 24 25  1  6  0  0  0
 26 25  1  0  0  0  0
 27 26  1  0  0  0  0
 28 24  1  0  0  0  0
 28 31  1  0  0  0  0
 30 29  2  0  0  0  0
 31 29  1  0  0  0  0
 32 29  1  6  0  0  0
 32 35  1  0  0  0  0
 34 32  1  0  0  0  0
 34 35  1  0  0  0  0
 34 33  1  1  0  0  0
 36 38  1  6  0  0  0
 36 34  1  0  0  0  0
 36 32  1  0  0  0  0
 37 38  1  0  0  0  0
 40 39  1  0  0  0  0
 41 11  1  0  0  0  0
 42 41  1  0  0  0  0
 43 44  1  0  0  0  0
 44 49  1  6  0  0  0
 45 46  2  0  0  0  0
 46 47  1  0  0  0  0
 46 48  1  0  0  0  0
 47 44  1  0  0  0  0
 47 42  1  1  0  0  0
 48 43  2  0  0  0  0
 49 50  1  0  0  0  0
 50 51  1  0  0  0  0
 51 52  1  0  0  0  0
M  END
>  <MODEL>
8

>  <REMARK>
 VINA RESULT:      -6.6      3.220      8.903
  Name = 
  17 active torsions:
  status: ('A' for Active; 'I' for Inactive)
    1  A    between atoms: C_2  and  C_24
    2  A    between atoms: C_3  and  O_23
    3  A    between atoms: C_3  and  C_46
    4  A    between atoms: C_5  and  C_18
    5  A    between atoms: C_7  and  C_17
    6  A    between atoms: C_7  and  C_42
    7  A    between atoms: C_10  and  C_27
    8  A    between atoms: C_11  and  C_46
    9  A    between atoms: C_14  and  C_44
   10  A    between atoms: C_16  and  C_43
   11  A    between atoms: C_19  and  O_25
   12  A    between atoms: C_24  and  C_44
   13  A    between atoms: C_28  and  C_31
   14  A    between atoms: C_28  and  C_39
   15  A    between atoms: C_31  and  N_41
   16  A    between atoms: C_34  and  C_46
   17  A    between atoms: C_34  and  N_52
                            x       y       z     vdW  Elec       q    Type
                         _______ _______ _______ _____ _____    ______ ____

>  <TORSDO>
F 17

$$$$
=
 OpenBabel11062415123D

 52 57  0  0  1  0  0  0  0  0999 V2000
  191.1000  177.1970  142.4840 C   0  0  1  0  0  3  0  0  0  0  0  0
  188.4540  177.2800  143.6260 C   0  0  0  0  0  0  0  0  0  0  0  0
  190.0890  177.0620  140.2020 C   0  0  0  0  0  3  0  0  0  0  0  0
  191.2960  176.8900  139.6440 C   0  0  0  0  0  0  0  0  0  0  0  0
  189.9210  177.6320  141.5890 C   0  0  1  0  0  3  0  0  0  0  0  0
  189.6830  177.1710  144.5070 C   0  0  1  0  0  3  0  0  0  0  0  0
  192.4390  177.6050  141.8640 C   0  0  0  0  0  2  0  0  0  0  0  0
  190.9720  179.2800  143.9020 C   0  0  0  0  0  1  0  0  0  0  0  0
  190.9610  177.7530  143.8980 C   0  0  2  0  0  3  0  0  0  0  0  0
  193.6590  177.1260  139.8820 O   0  0  0  0  0  0  0  0  0  0  0  0
  188.6030  177.3170  142.1840 N   0  0  0  0  0  0  0  0  0  0  0  0
  192.5250  177.1880  140.4260 C   0  0  0  0  0  0  0  0  0  0  0  0
  187.2550  177.1150  144.1780 C   0  0  0  0  0  2  0  0  0  0  0  0
  192.7300  176.8080  137.6250 C   0  0  0  0  0  2  0  0  0  0  0  0
  191.0020  174.9640  138.0540 C   0  0  1  0  0  3  0  0  0  0  0  0
  192.0950  174.1230  137.3720 C   0  0  0  0  0  2  0  0  0  0  0  0
  191.3620  176.4550  138.2100 C   0  0  1  0  0  3  0  0  0  0  0  0
  192.6040  174.7740  136.0790 C   0  0  1  0  0  3  0  0  0  0  0  0
  192.8480  176.2920  136.1940 C   0  0  0  0  0  2  0  0  0  0  0  0
  193.8370  174.0380  135.5660 C   0  0  2  0  0  3  0  0  0  0  0  0
  194.0120  172.8470  136.2490 F   0  0  0  0  0  0  0  0  0  0  0  0
  195.0880  174.8950  135.6950 C   0  0  0  0  0  2  0  0  0  0  0  0
  196.2170  174.0950  136.3200 C   0  0  0  0  0  1  0  0  0  0  0  0
  189.5910  174.7550  137.4820 C   0  0  2  0  0  3  0  0  0  0  0  0
  189.4760  173.3810  136.8500 C   0  0  0  0  0  2  0  0  0  0  0  0
  188.2880  172.7760  137.2610 O   0  0  0  0  0  0  0  0  0  0  0  0
  187.8680  172.0300  136.1670 C   0  0  0  0  0  1  0  0  0  0  0  0
  189.1680  175.8240  136.4820 C   0  0  0  0  0  2  0  0  0  0  0  0
  186.8300  176.5100  137.1560 C   0  0  0  0  0  0  0  0  0  0  0  0
  187.2840  177.2460  138.0720 O   0  0  0  0  0  0  0  0  0  0  0  0
  187.7270  175.7890  136.3030 N   0  0  0  0  0  2  0  0  0  0  0  0
  185.3330  176.3930  136.9870 C   0  0  1  0  0  0  0  0  0  0  0  0
  183.2710  175.6600  135.8030 O   0  0  0  0  0  1  0  0  0  0  0  0
  184.6640  175.7400  135.7530 C   0  0  2  0  0  0  0  0  0  0  0  0
  185.1090  175.0170  136.8600 O   0  0  0  0  0  0  0  0  0  0  0  0
  184.9410  177.2140  135.7660 C   0  0  2  0  0  3  0  0  0  0  0  0
  186.5310  178.7580  134.8730 O   0  0  0  0  0  1  0  0  0  0  0  0
  185.9960  177.4860  134.6930 C   0  0  0  0  0  2  0  0  0  0  0  0
  189.5110  177.4220  145.8920 O   0  0  0  0  0  0  0  0  0  0  0  0
  190.6130  176.9240  146.6020 C   0  0  0  0  0  1  0  0  0  0  0  0
  187.3960  177.5160  141.3700 C   0  0  0  0  0  2  0  0  0  0  0  0
  187.0110  178.9920  141.2490 C   0  0  0  0  0  2  0  0  0  0  0  0
  183.5050  177.8630  141.0790 C   0  0  0  0  0  3  0  0  0  0  0  0
  184.7260  178.3650  140.2950 C   0  0  2  0  0  3  0  0  0  0  0  0
  185.2310  179.5870  143.6220 O   0  0  0  0  0  0  0  0  0  0  0  0
  184.8510  179.0610  142.5440 C   0  0  0  0  0  0  0  0  0  0  0  0
  185.5050  179.2810  141.2400 C   0  0  1  0  0  3  0  0  0  0  0  0
  183.7110  178.2390  142.4660 N   0  0  0  0  0  0  0  0  0  0  0  0
  184.2520  179.1160  139.0580 C   0  0  0  0  0  2  0  0  0  0  0  0
  182.7310  179.1690  138.9900 C   0  0  0  0  0  2  0  0  0  0  0  0
  182.2050  178.2430  137.9050 C   0  0  0  0  0  2  0  0  0  0  0  0
  181.6930  178.9890  136.8470 O   0  0  0  0  0  1  0  0  0  0  0  0
  1  7  1  6  0  0  0
  1  9  1  0  0  0  0
  2 13  2  0  0  0  0
  2  6  1  0  0  0  0
  4  3  2  0  0  0  0
  4 12  1  0  0  0  0
  5  3  1  6  0  0  0
  5 11  1  0  0  0  0
  5  1  1  0  0  0  0
  6 39  1  1  0  0  0
  9  8  1  6  0  0  0
  9  6  1  0  0  0  0
 10 12  2  0  0  0  0
 11  2  1  0  0  0  0
 12  7  1  0  0  0  0
 14 17  1  0  0  0  0
 15 24  1  6  0  0  0
 15 17  1  0  0  0  0
 16 15  1  0  0  0  0
 17  4  1  1  0  0  0
 18 20  1  1  0  0  0
 18 19  1  0  0  0  0
 18 16  1  0  0  0  0
 19 14  1  0  0  0  0
 20 22  1  0  0  0  0
 20 21  1  1  0  0  0
 22 23  1  0  0  0  0
 24 28  1  6  0  0  0
 25 26  1  0  0  0  0
 25 24  1  0  0  0  0
 27 26  1  0  0  0  0
 29 30  2  0  0  0  0
 31 28  1  0  0  0  0
 31 29  1  0  0  0  0
 32 29  1  6  0  0  0
 34 36  1  0  0  0  0
 34 33  1  1  0  0  0
 34 35  1  0  0  0  0
 34 32  1  0  0  0  0
 35 32  1  0  0  0  0
 36 38  1  6  0  0  0
 36 32  1  0  0  0  0
 38 37  1  0  0  0  0
 39 40  1  0  0  0  0
 41 11  1  0  0  0  0
 42 41  1  0  0  0  0
 43 48  2  0  0  0  0
 44 49  1  6  0  0  0
 44 43  1  0  0  0  0
 44 47  1  0  0  0  0
 46 45  2  0  0  0  0
 47 42  1  1  0  0  0
 47 46  1  0  0  0  0
 48 46  1  0  0  0  0
 50 49  1  0  0  0  0
 51 50  1  0  0  0  0
 52 51  1  0  0  0  0
M  END
>  <MODEL>
9

>  <REMARK>
 VINA RESULT:      -6.5      3.629      8.067
  Name = 
  17 active torsions:
  status: ('A' for Active; 'I' for Inactive)
    1  A    between atoms: C_2  and  C_24
    2  A    between atoms: C_3  and  O_23
    3  A    between atoms: C_3  and  C_46
    4  A    between atoms: C_5  and  C_18
    5  A    between atoms: C_7  and  C_17
    6  A    between atoms: C_7  and  C_42
    7  A    between atoms: C_10  and  C_27
    8  A    between atoms: C_11  and  C_46
    9  A    between atoms: C_14  and  C_44
   10  A    between atoms: C_16  and  C_43
   11  A    between atoms: C_19  and  O_25
   12  A    between atoms: C_24  and  C_44
   13  A    between atoms: C_28  and  C_31
   14  A    between atoms: C_28  and  C_39
   15  A    between atoms: C_31  and  N_41
   16  A    between atoms: C_34  and  C_46
   17  A    between atoms: C_34  and  N_52
                            x       y       z     vdW  Elec       q    Type
                         _______ _______ _______ _____ _____    ______ ____

>  <TORSDO>
F 17

$$$$
