=
 OpenBabel11062414323D

 31 35  0  0  1  0  0  0  0  0999 V2000
  191.5040  177.8280  142.5480 C   0  0  0  0  0  2  0  0  0  0  0  0
  190.5770  176.9830  141.7970 N   0  0  1  0  0  0  0  0  0  0  0  0
  190.1780  175.8790  142.6640 C   0  0  2  0  0  3  0  0  0  0  0  0
  189.2630  177.6110  141.8580 C   0  0  2  0  0  3  0  0  0  0  0  0
  188.4550  176.3900  142.9430 S   0  0  0  0  0  0  0  0  0  0  0  0
  191.6280  177.3080  143.9650 C   0  0  2  0  0  3  0  0  0  0  0  0
  190.9700  175.9520  143.9540 C   0  0  0  0  0  2  0  0  0  0  0  0
  189.1600  176.9850  139.2540 C   0  0  0  0  0  2  0  0  0  0  0  0
  187.5360  178.2850  140.1790 C   0  0  0  0  0  0  0  0  0  0  0  0
  187.2200  178.0850  138.8190 N   0  0  0  0  0  2  0  0  0  0  0  0
  188.6480  177.6610  140.4850 C   0  0  0  0  0  0  0  0  0  0  0  0
  188.1890  177.2870  138.1890 N   0  0  0  0  0  0  0  0  0  0  0  0
  185.5060  179.4540  140.4650 O   0  0  0  0  0  1  0  0  0  0  0  0
  186.6570  179.0300  141.1270 C   0  0  0  0  0  2  0  0  0  0  0  0
  188.8630  178.1310  137.2120 C   0  0  0  0  0  2  0  0  0  0  0  0
  188.8230  177.4870  135.8290 C   0  0  1  0  0  3  0  0  0  0  0  0
  189.1850  174.8760  136.0190 C   0  0  0  0  0  1  0  0  0  0  0  0
  190.9620  176.3220  134.9100 C   0  0  0  0  0  2  0  0  0  0  0  0
  189.7430  176.2570  135.7390 C   0  0  1  0  0  0  0  0  0  0  0  0
  191.0100  176.4370  136.3190 O   0  0  0  0  0  0  0  0  0  0  0  0
  186.8040  178.4390  134.9040 O   0  0  0  0  0  1  0  0  0  0  0  0
  187.3800  177.2560  135.3730 C   0  0  0  0  0  2  0  0  0  0  0  0
  190.7420  178.4210  145.0970 S   0  0  0  0  0  0  0  0  0  0  0  0
  191.9480  176.8220  146.7870 O   0  0  0  0  0  0  0  0  0  0  0  0
  190.8610  177.2820  146.4750 C   0  0  0  0  0  0  0  0  0  0  0  0
  187.9550  178.3980  148.2790 C   0  0  0  0  0  3  0  0  0  0  0  0
  189.3900  177.8930  148.4000 C   0  0  0  0  0  3  0  0  0  0  0  0
  189.6270  176.9140  147.2400 C   0  0  1  0  0  3  0  0  0  0  0  0
  188.4580  176.9910  146.3830 N   0  0  0  0  0  2  0  0  0  0  0  0
  187.5050  177.8320  146.9930 C   0  0  0  0  0  0  0  0  0  0  0  0
  186.0370  178.1180  146.3410 S   0  0  0  0  0  0  0  0  0  0  0  0
  1  6  1  0  0  0  0
  2  4  1  0  0  0  0
  2  1  1  1  0  0  0
  2  3  1  0  0  0  0
  3  5  1  0  0  0  0
  3  7  1  1  0  0  0
  4 11  1  6  0  0  0
  4  5  1  0  0  0  0
  6 23  1  1  0  0  0
  7  6  1  0  0  0  0
  8 11  1  0  0  0  0
  9 11  2  0  0  0  0
  9 14  1  0  0  0  0
 10  9  1  0  0  0  0
 12 10  1  0  0  0  0
 12  8  1  0  0  0  0
 13 14  1  0  0  0  0
 15 12  1  0  0  0  0
 16 22  1  1  0  0  0
 16 15  1  0  0  0  0
 18 19  1  0  0  0  0
 18 20  1  0  0  0  0
 19 16  1  0  0  0  0
 19 17  1  1  0  0  0
 19 20  1  0  0  0  0
 21 22  1  0  0  0  0
 23 25  1  0  0  0  0
 25 24  2  0  0  0  0
 26 27  2  0  0  0  0
 28 25  1  6  0  0  0
 28 27  1  0  0  0  0
 29 30  1  0  0  0  0
 29 28  1  0  0  0  0
 30 26  1  0  0  0  0
 31 30  2  0  0  0  0
M  END
>  <MODEL>
1

>  <REMARK>
 VINA RESULT:      -7.3      0.000      0.000
  Name = 
  9 active torsions:
  status: ('A' for Active; 'I' for Inactive)
    1  A    between atoms: S_1  and  C_17
    2  A    between atoms: S_1  and  C_24
    3  A    between atoms: C_3  and  C_29
    4  A    between atoms: C_8  and  C_17
    5  A    between atoms: C_12  and  C_14
    6  A    between atoms: C_14  and  C_21
    7  A    between atoms: C_14  and  C_28
    8  A    between atoms: C_18  and  C_20
    9  A    between atoms: N_22  and  C_28
                            x       y       z     vdW  Elec       q    Type
                         _______ _______ _______ _____ _____    ______ ____

>  <TORSDO>
F 9

$$$$
=
 OpenBabel11062414323D

 31 35  0  0  1  0  0  0  0  0999 V2000
  191.7680  177.9090  143.0210 C   0  0  0  0  0  2  0  0  0  0  0  0
  191.2290  176.8420  142.1780 N   0  0  1  0  0  0  0  0  0  0  0  0
  190.7680  175.7710  143.0570 C   0  0  2  0  0  3  0  0  0  0  0  0
  189.8750  177.2230  141.7990 C   0  0  2  0  0  3  0  0  0  0  0  0
  188.9810  175.9830  142.7930 S   0  0  0  0  0  0  0  0  0  0  0  0
  191.5580  177.5570  144.4790 C   0  0  2  0  0  3  0  0  0  0  0  0
  191.1400  176.1090  144.4870 C   0  0  0  0  0  2  0  0  0  0  0  0
  190.5320  176.2120  139.4050 C   0  0  0  0  0  2  0  0  0  0  0  0
  188.6860  177.5280  139.6200 C   0  0  0  0  0  0  0  0  0  0  0  0
  188.7760  177.1090  138.2760 N   0  0  0  0  0  2  0  0  0  0  0  0
  189.6770  177.0290  140.3200 C   0  0  0  0  0  0  0  0  0  0  0  0
  189.8990  176.2900  138.0780 N   0  0  0  0  0  0  0  0  0  0  0  0
  186.6570  178.6270  139.1270 O   0  0  0  0  0  1  0  0  0  0  0  0
  187.5600  178.3470  140.1520 C   0  0  0  0  0  2  0  0  0  0  0  0
  190.8080  177.0210  137.2060 C   0  0  0  0  0  2  0  0  0  0  0  0
  191.5120  176.0670  136.2440 C   0  0  1  0  0  3  0  0  0  0  0  0
  193.1260  174.3930  137.5000 C   0  0  0  0  0  1  0  0  0  0  0  0
  194.1020  176.2530  136.0610 C   0  0  0  0  0  2  0  0  0  0  0  0
  192.9190  175.6860  136.7370 C   0  0  1  0  0  0  0  0  0  0  0  0
  193.6430  176.7490  137.3020 O   0  0  0  0  0  0  0  0  0  0  0  0
  189.6940  175.2390  134.8850 O   0  0  0  0  0  1  0  0  0  0  0  0
  190.6080  174.8870  135.8810 C   0  0  0  0  0  2  0  0  0  0  0  0
  190.2300  178.5930  145.1650 S   0  0  0  0  0  0  0  0  0  0  0  0
  190.9380  177.1180  147.2130 O   0  0  0  0  0  0  0  0  0  0  0  0
  189.9760  177.5140  146.5720 C   0  0  0  0  0  0  0  0  0  0  0  0
  186.7530  178.5340  147.8050 C   0  0  0  0  0  3  0  0  0  0  0  0
  188.1030  177.9230  148.1740 C   0  0  0  0  0  3  0  0  0  0  0  0
  188.5850  177.1170  146.9590 C   0  0  1  0  0  3  0  0  0  0  0  0
  187.6590  177.3970  145.8770 N   0  0  0  0  0  2  0  0  0  0  0  0
  186.6110  178.1980  146.3760 C   0  0  0  0  0  0  0  0  0  0  0  0
  185.3510  178.6730  145.4540 S   0  0  0  0  0  0  0  0  0  0  0  0
  1  6  1  0  0  0  0
  2  1  1  1  0  0  0
  2  3  1  0  0  0  0
  3  7  1  1  0  0  0
  4 11  1  6  0  0  0
  4  2  1  0  0  0  0
  4  5  1  0  0  0  0
  5  3  1  0  0  0  0
  6  7  1  0  0  0  0
  6 23  1  6  0  0  0
  8 11  1  0  0  0  0
  9 14  1  0  0  0  0
  9 11  2  0  0  0  0
 10  9  1  0  0  0  0
 12 10  1  0  0  0  0
 12  8  1  0  0  0  0
 13 14  1  0  0  0  0
 15 12  1  0  0  0  0
 16 22  1  1  0  0  0
 16 19  1  0  0  0  0
 16 15  1  0  0  0  0
 18 19  1  0  0  0  0
 18 20  1  0  0  0  0
 19 20  1  0  0  0  0
 19 17  1  1  0  0  0
 21 22  1  0  0  0  0
 23 25  1  0  0  0  0
 25 24  2  0  0  0  0
 26 27  2  0  0  0  0
 28 25  1  6  0  0  0
 28 27  1  0  0  0  0
 29 30  1  0  0  0  0
 29 28  1  0  0  0  0
 30 26  1  0  0  0  0
 31 30  2  0  0  0  0
M  END
>  <MODEL>
2

>  <REMARK>
 VINA RESULT:      -6.8      1.611      2.061
  Name = 
  9 active torsions:
  status: ('A' for Active; 'I' for Inactive)
    1  A    between atoms: S_1  and  C_17
    2  A    between atoms: S_1  and  C_24
    3  A    between atoms: C_3  and  C_29
    4  A    between atoms: C_8  and  C_17
    5  A    between atoms: C_12  and  C_14
    6  A    between atoms: C_14  and  C_21
    7  A    between atoms: C_14  and  C_28
    8  A    between atoms: C_18  and  C_20
    9  A    between atoms: N_22  and  C_28
                            x       y       z     vdW  Elec       q    Type
                         _______ _______ _______ _____ _____    ______ ____

>  <TORSDO>
F 9

$$$$
=
 OpenBabel11062414323D

 31 35  0  0  1  0  0  0  0  0999 V2000
  187.6750  176.9780  144.5210 C   0  0  0  0  0  2  0  0  0  0  0  0
  186.3030  177.3100  144.9010 N   0  0  1  0  0  0  0  0  0  0  0  0
  186.2590  177.4320  146.3540 C   0  0  2  0  0  3  0  0  0  0  0  0
  186.1240  178.7410  144.6950 C   0  0  2  0  0  3  0  0  0  0  0  0
  186.0220  179.2320  146.4470 S   0  0  0  0  0  0  0  0  0  0  0  0
  188.5560  176.9830  145.7530 C   0  0  2  0  0  3  0  0  0  0  0  0
  187.6080  177.0410  146.9240 C   0  0  0  0  0  2  0  0  0  0  0  0
  183.4880  179.2010  144.5430 C   0  0  0  0  0  2  0  0  0  0  0  0
  184.7440  179.1310  142.6450 C   0  0  0  0  0  0  0  0  0  0  0  0
  183.4130  179.4210  142.2820 N   0  0  0  0  0  2  0  0  0  0  0  0
  184.8440  179.0020  143.9470 C   0  0  0  0  0  0  0  0  0  0  0  0
  182.5830  179.4780  143.4140 N   0  0  0  0  0  0  0  0  0  0  0  0
  185.4180  179.4680  140.4090 O   0  0  0  0  0  1  0  0  0  0  0  0
  185.8700  179.0780  141.6690 C   0  0  0  0  0  2  0  0  0  0  0  0
  181.6550  178.3590  143.3170 C   0  0  0  0  0  2  0  0  0  0  0  0
  180.4580  178.7300  142.4460 C   0  0  1  0  0  3  0  0  0  0  0  0
  179.4610  176.5800  141.2750 C   0  0  0  0  0  1  0  0  0  0  0  0
  180.6110  178.3660  139.8720 C   0  0  0  0  0  2  0  0  0  0  0  0
  180.3370  177.8150  141.2140 C   0  0  1  0  0  0  0  0  0  0  0  0
  181.5530  177.5640  140.5570 O   0  0  0  0  0  0  0  0  0  0  0  0
  179.3220  178.2000  144.5110 O   0  0  0  0  0  1  0  0  0  0  0  0
  179.1860  178.8600  143.2870 C   0  0  0  0  0  2  0  0  0  0  0  0
  189.6140  178.4620  145.7340 S   0  0  0  0  0  0  0  0  0  0  0  0
  191.7380  177.0570  146.3540 O   0  0  0  0  0  0  0  0  0  0  0  0
  191.1030  177.5180  145.4180 C   0  0  0  0  0  0  0  0  0  0  0  0
  190.5320  175.8560  142.2780 C   0  0  0  0  0  3  0  0  0  0  0  0
  191.3160  175.8310  143.5870 C   0  0  0  0  0  3  0  0  0  0  0  0
  191.5500  177.2900  144.0060 C   0  0  1  0  0  3  0  0  0  0  0  0
  190.7820  178.1150  143.0930 N   0  0  0  0  0  2  0  0  0  0  0  0
  190.2140  177.2860  142.1030 C   0  0  0  0  0  0  0  0  0  0  0  0
  189.3200  177.8720  140.8700 S   0  0  0  0  0  0  0  0  0  0  0  0
  1  6  1  0  0  0  0
  2  1  1  1  0  0  0
  2  3  1  0  0  0  0
  3  5  1  0  0  0  0
  3  7  1  1  0  0  0
  4 11  1  6  0  0  0
  4  2  1  0  0  0  0
  4  5  1  0  0  0  0
  6 23  1  6  0  0  0
  6  7  1  0  0  0  0
  9 11  2  0  0  0  0
 10  9  1  0  0  0  0
 10 12  1  0  0  0  0
 11  8  1  0  0  0  0
 12  8  1  0  0  0  0
 13 14  1  0  0  0  0
 14  9  1  0  0  0  0
 15 12  1  0  0  0  0
 16 22  1  1  0  0  0
 16 15  1  0  0  0  0
 18 20  1  0  0  0  0
 18 19  1  0  0  0  0
 19 17  1  1  0  0  0
 19 16  1  0  0  0  0
 20 19  1  0  0  0  0
 22 21  1  0  0  0  0
 25 23  1  0  0  0  0
 25 24  2  0  0  0  0
 26 27  2  0  0  0  0
 27 28  1  0  0  0  0
 28 25  1  1  0  0  0
 29 28  1  0  0  0  0
 30 26  1  0  0  0  0
 30 29  1  0  0  0  0
 31 30  2  0  0  0  0
M  END
>  <MODEL>
3

>  <REMARK>
 VINA RESULT:      -6.4      4.021      7.007
  Name = 
  9 active torsions:
  status: ('A' for Active; 'I' for Inactive)
    1  A    between atoms: S_1  and  C_17
    2  A    between atoms: S_1  and  C_24
    3  A    between atoms: C_3  and  C_29
    4  A    between atoms: C_8  and  C_17
    5  A    between atoms: C_12  and  C_14
    6  A    between atoms: C_14  and  C_21
    7  A    between atoms: C_14  and  C_28
    8  A    between atoms: C_18  and  C_20
    9  A    between atoms: N_22  and  C_28
                            x       y       z     vdW  Elec       q    Type
                         _______ _______ _______ _____ _____    ______ ____

>  <TORSDO>
F 9

$$$$
=
 OpenBabel11062414323D

 31 35  0  0  1  0  0  0  0  0999 V2000
  188.8950  175.1650  137.3140 C   0  0  0  0  0  2  0  0  0  0  0  0
  189.4090  176.3500  138.0000 N   0  0  1  0  0  0  0  0  0  0  0  0
  190.0030  177.2240  136.9930 C   0  0  2  0  0  3  0  0  0  0  0  0
  188.2850  177.2470  138.2310 C   0  0  2  0  0  3  0  0  0  0  0  0
  188.7560  178.5460  137.0420 S   0  0  0  0  0  0  0  0  0  0  0  0
  189.0760  175.3270  135.8200 C   0  0  2  0  0  3  0  0  0  0  0  0
  189.9810  176.5200  135.6510 C   0  0  0  0  0  2  0  0  0  0  0  0
  189.4510  177.6960  140.6020 C   0  0  0  0  0  2  0  0  0  0  0  0
  187.2840  178.3080  140.2630 C   0  0  0  0  0  0  0  0  0  0  0  0
  187.6510  178.6890  141.5700 N   0  0  0  0  0  2  0  0  0  0  0  0
  188.2950  177.7350  139.6540 C   0  0  0  0  0  0  0  0  0  0  0  0
  188.9830  178.3370  141.8430 N   0  0  0  0  0  0  0  0  0  0  0  0
  185.2470  179.4750  140.4960 O   0  0  0  0  0  1  0  0  0  0  0  0
  185.9550  178.6130  139.6600 C   0  0  0  0  0  2  0  0  0  0  0  0
  188.9480  177.3110  142.8750 C   0  0  0  0  0  2  0  0  0  0  0  0
  189.2640  177.9130  144.2410 C   0  0  1  0  0  3  0  0  0  0  0  0
  188.5980  177.1260  146.6750 C   0  0  0  0  0  1  0  0  0  0  0  0
  186.8330  178.1400  145.1460 C   0  0  0  0  0  2  0  0  0  0  0  0
  188.1870  177.5680  145.2850 C   0  0  1  0  0  0  0  0  0  0  0  0
  187.1190  176.8030  144.7860 O   0  0  0  0  0  0  0  0  0  0  0  0
  191.3080  176.7170  143.7640 O   0  0  0  0  0  1  0  0  0  0  0  0
  190.7010  177.5980  144.6620 C   0  0  0  0  0  2  0  0  0  0  0  0
  187.4610  175.6560  135.0480 S   0  0  0  0  0  0  0  0  0  0  0  0
  187.8460  173.1040  134.5940 O   0  0  0  0  0  0  0  0  0  0  0  0
  187.0240  173.9200  134.9820 C   0  0  0  0  0  0  0  0  0  0  0  0
  184.8440  172.9920  137.6890 C   0  0  0  0  0  3  0  0  0  0  0  0
  185.7470  172.4770  136.5710 C   0  0  0  0  0  3  0  0  0  0  0  0
  185.6590  173.4840  135.4150 C   0  0  1  0  0  3  0  0  0  0  0  0
  184.8960  174.6160  135.9050 N   0  0  0  0  0  2  0  0  0  0  0  0
  184.4270  174.3190  137.2010 C   0  0  0  0  0  0  0  0  0  0  0  0
  183.4850  175.3440  138.0530 S   0  0  0  0  0  0  0  0  0  0  0  0
  2  1  1  6  0  0  0
  2  4  1  0  0  0  0
  3  7  1  6  0  0  0
  3  5  1  0  0  0  0
  3  2  1  0  0  0  0
  4 11  1  1  0  0  0
  5  4  1  0  0  0  0
  6 23  1  6  0  0  0
  6  1  1  0  0  0  0
  7  6  1  0  0  0  0
  8 12  1  0  0  0  0
  9 10  1  0  0  0  0
 10 12  1  0  0  0  0
 11  9  2  0  0  0  0
 11  8  1  0  0  0  0
 12 15  1  0  0  0  0
 14  9  1  0  0  0  0
 14 13  1  0  0  0  0
 16 15  1  6  0  0  0
 16 22  1  0  0  0  0
 16 19  1  0  0  0  0
 18 19  1  0  0  0  0
 19 17  1  1  0  0  0
 20 18  1  0  0  0  0
 20 19  1  0  0  0  0
 21 22  1  0  0  0  0
 24 25  2  0  0  0  0
 25 23  1  0  0  0  0
 27 26  2  0  0  0  0
 28 25  1  1  0  0  0
 28 29  1  0  0  0  0
 28 27  1  0  0  0  0
 29 30  1  0  0  0  0
 30 26  1  0  0  0  0
 30 31  2  0  0  0  0
M  END
>  <MODEL>
4

>  <REMARK>
 VINA RESULT:      -6.2      3.433      8.684
  Name = 
  9 active torsions:
  status: ('A' for Active; 'I' for Inactive)
    1  A    between atoms: S_1  and  C_17
    2  A    between atoms: S_1  and  C_24
    3  A    between atoms: C_3  and  C_29
    4  A    between atoms: C_8  and  C_17
    5  A    between atoms: C_12  and  C_14
    6  A    between atoms: C_14  and  C_21
    7  A    between atoms: C_14  and  C_28
    8  A    between atoms: C_18  and  C_20
    9  A    between atoms: N_22  and  C_28
                            x       y       z     vdW  Elec       q    Type
                         _______ _______ _______ _____ _____    ______ ____

>  <TORSDO>
F 9

$$$$
=
 OpenBabel11062414323D

 31 35  0  0  1  0  0  0  0  0999 V2000
  189.1440  173.4120  137.0650 C   0  0  0  0  0  2  0  0  0  0  0  0
  190.0980  174.4350  137.4910 N   0  0  1  0  0  0  0  0  0  0  0  0
  191.0050  174.6900  136.3770 C   0  0  2  0  0  3  0  0  0  0  0  0
  189.4420  175.7300  137.3580 C   0  0  2  0  0  3  0  0  0  0  0  0
  190.4140  176.3560  135.9490 S   0  0  0  0  0  0  0  0  0  0  0  0
  189.3840  173.0720  135.6080 C   0  0  2  0  0  3  0  0  0  0  0  0
  190.7020  173.7140  135.2580 C   0  0  0  0  0  2  0  0  0  0  0  0
  190.8150  176.4770  139.5350 C   0  0  0  0  0  2  0  0  0  0  0  0
  188.8270  177.4710  139.0450 C   0  0  0  0  0  0  0  0  0  0  0  0
  189.3440  178.0720  140.2110 N   0  0  0  0  0  2  0  0  0  0  0  0
  189.6450  176.5440  138.6070 C   0  0  0  0  0  0  0  0  0  0  0  0
  190.5760  177.5000  140.5680 N   0  0  0  0  0  0  0  0  0  0  0  0
  187.8420  178.9730  137.5160 O   0  0  0  0  0  1  0  0  0  0  0  0
  187.5670  177.9150  138.3810 C   0  0  0  0  0  2  0  0  0  0  0  0
  190.3710  176.8030  141.8300 C   0  0  0  0  0  2  0  0  0  0  0  0
  189.9320  177.7810  142.9170 C   0  0  1  0  0  3  0  0  0  0  0  0
  188.9170  177.1110  145.2640 C   0  0  0  0  0  1  0  0  0  0  0  0
  187.3950  177.2830  143.2300 C   0  0  0  0  0  2  0  0  0  0  0  0
  188.7720  177.2210  143.7600 C   0  0  1  0  0  0  0  0  0  0  0  0
  188.1490  176.0880  143.2090 O   0  0  0  0  0  0  0  0  0  0  0  0
  191.0390  179.6610  143.9530 O   0  0  0  0  0  1  0  0  0  0  0  0
  191.1330  178.2870  143.7180 C   0  0  0  0  0  2  0  0  0  0  0  0
  188.0540  173.7880  134.5940 S   0  0  0  0  0  0  0  0  0  0  0  0
  187.2800  171.3040  134.9120 O   0  0  0  0  0  0  0  0  0  0  0  0
  186.9090  172.4650  134.9810 C   0  0  0  0  0  0  0  0  0  0  0  0
  184.6670  173.4060  137.6330 C   0  0  0  0  0  3  0  0  0  0  0  0
  185.2110  172.2480  136.8000 C   0  0  0  0  0  3  0  0  0  0  0  0
  185.5090  172.7970  135.3970 C   0  0  1  0  0  3  0  0  0  0  0  0
  185.3270  174.2340  135.4640 N   0  0  0  0  0  2  0  0  0  0  0  0
  184.8350  174.5690  136.7420 C   0  0  0  0  0  0  0  0  0  0  0  0
  184.4610  176.0990  137.1690 S   0  0  0  0  0  0  0  0  0  0  0  0
  2  1  1  6  0  0  0
  3  7  1  6  0  0  0
  3  2  1  0  0  0  0
  4  2  1  0  0  0  0
  4 11  1  1  0  0  0
  5  3  1  0  0  0  0
  5  4  1  0  0  0  0
  6 23  1  6  0  0  0
  6  1  1  0  0  0  0
  7  6  1  0  0  0  0
  8 12  1  0  0  0  0
  9 10  1  0  0  0  0
 10 12  1  0  0  0  0
 11  9  2  0  0  0  0
 11  8  1  0  0  0  0
 12 15  1  0  0  0  0
 13 14  1  0  0  0  0
 14  9  1  0  0  0  0
 16 15  1  6  0  0  0
 16 22  1  0  0  0  0
 16 19  1  0  0  0  0
 18 19  1  0  0  0  0
 19 17  1  1  0  0  0
 20 18  1  0  0  0  0
 20 19  1  0  0  0  0
 22 21  1  0  0  0  0
 23 25  1  0  0  0  0
 24 25  2  0  0  0  0
 27 26  2  0  0  0  0
 28 25  1  1  0  0  0
 28 29  1  0  0  0  0
 28 27  1  0  0  0  0
 29 30  1  0  0  0  0
 30 31  2  0  0  0  0
 30 26  1  0  0  0  0
M  END
>  <MODEL>
5

>  <REMARK>
 VINA RESULT:      -6.2      3.824      8.698
  Name = 
  9 active torsions:
  status: ('A' for Active; 'I' for Inactive)
    1  A    between atoms: S_1  and  C_17
    2  A    between atoms: S_1  and  C_24
    3  A    between atoms: C_3  and  C_29
    4  A    between atoms: C_8  and  C_17
    5  A    between atoms: C_12  and  C_14
    6  A    between atoms: C_14  and  C_21
    7  A    between atoms: C_14  and  C_28
    8  A    between atoms: C_18  and  C_20
    9  A    between atoms: N_22  and  C_28
                            x       y       z     vdW  Elec       q    Type
                         _______ _______ _______ _____ _____    ______ ____

>  <TORSDO>
F 9

$$$$
=
 OpenBabel11062414323D

 31 35  0  0  1  0  0  0  0  0999 V2000
  186.4300  177.1290  144.8440 C   0  0  0  0  0  2  0  0  0  0  0  0
  185.5030  177.6670  143.8500 N   0  0  1  0  0  0  0  0  0  0  0  0
  184.4650  178.4050  144.5630 C   0  0  2  0  0  3  0  0  0  0  0  0
  186.0990  178.8780  143.3020 C   0  0  2  0  0  3  0  0  0  0  0  0
  184.9520  180.0800  144.0510 S   0  0  0  0  0  0  0  0  0  0  0  0
  186.0330  177.6160  146.2220 C   0  0  2  0  0  3  0  0  0  0  0  0
  184.6650  178.2240  146.0550 C   0  0  0  0  0  2  0  0  0  0  0  0
  184.8720  179.3300  140.9620 C   0  0  0  0  0  2  0  0  0  0  0  0
  186.9760  178.4610  140.9970 C   0  0  0  0  0  0  0  0  0  0  0  0
  186.5890  178.6270  139.6510 N   0  0  0  0  0  2  0  0  0  0  0  0
  186.0180  178.8610  141.7990 C   0  0  0  0  0  0  0  0  0  0  0  0
  185.2940  179.1620  139.5610 N   0  0  0  0  0  0  0  0  0  0  0  0
  189.0200  177.5120  140.2980 O   0  0  0  0  0  1  0  0  0  0  0  0
  188.3260  177.9810  141.4120 C   0  0  0  0  0  2  0  0  0  0  0  0
  184.4490  178.1320  138.9740 C   0  0  0  0  0  2  0  0  0  0  0  0
  183.0280  178.2250  139.5240 C   0  0  1  0  0  3  0  0  0  0  0  0
  181.7830  178.6530  137.2320 C   0  0  0  0  0  1  0  0  0  0  0  0
  181.1940  180.0560  139.2730 C   0  0  0  0  0  2  0  0  0  0  0  0
  182.1250  179.1020  138.6390 C   0  0  1  0  0  0  0  0  0  0  0  0
  182.4140  180.4750  138.6950 O   0  0  0  0  0  0  0  0  0  0  0  0
  183.0530  175.8590  139.0360 O   0  0  0  0  0  1  0  0  0  0  0  0
  182.4720  176.8360  139.8480 C   0  0  0  0  0  2  0  0  0  0  0  0
  187.2150  178.8820  146.7790 S   0  0  0  0  0  0  0  0  0  0  0  0
  188.1630  176.6870  147.8520 O   0  0  0  0  0  0  0  0  0  0  0  0
  188.4680  177.6740  147.2000 C   0  0  0  0  0  0  0  0  0  0  0  0
  191.5420  176.1880  146.0650 C   0  0  0  0  0  3  0  0  0  0  0  0
  190.7940  176.7630  147.2650 C   0  0  0  0  0  3  0  0  0  0  0  0
  189.8780  177.8780  146.7380 C   0  0  1  0  0  3  0  0  0  0  0  0
  189.9480  177.8270  145.2900 N   0  0  0  0  0  2  0  0  0  0  0  0
  190.9110  176.8660  144.9170 C   0  0  0  0  0  0  0  0  0  0  0  0
  191.3000  176.5670  143.3610 S   0  0  0  0  0  0  0  0  0  0  0  0
  1  6  1  0  0  0  0
  2  3  1  0  0  0  0
  2  1  1  1  0  0  0
  3  7  1  1  0  0  0
  4 11  1  6  0  0  0
  4  2  1  0  0  0  0
  4  5  1  0  0  0  0
  5  3  1  0  0  0  0
  6 23  1  6  0  0  0
  7  6  1  0  0  0  0
  8 11  1  0  0  0  0
  9 14  1  0  0  0  0
  9 11  2  0  0  0  0
 10  9  1  0  0  0  0
 12 10  1  0  0  0  0
 12  8  1  0  0  0  0
 13 14  1  0  0  0  0
 15 12  1  0  0  0  0
 16 15  1  6  0  0  0
 16 22  1  0  0  0  0
 19 17  1  6  0  0  0
 19 20  1  0  0  0  0
 19 18  1  0  0  0  0
 19 16  1  0  0  0  0
 20 18  1  0  0  0  0
 21 22  1  0  0  0  0
 23 25  1  0  0  0  0
 25 24  2  0  0  0  0
 26 27  2  0  0  0  0
 28 25  1  6  0  0  0
 28 27  1  0  0  0  0
 29 28  1  0  0  0  0
 30 29  1  0  0  0  0
 30 26  1  0  0  0  0
 31 30  2  0  0  0  0
M  END
>  <MODEL>
6

>  <REMARK>
 VINA RESULT:      -6.1      3.409      5.541
  Name = 
  9 active torsions:
  status: ('A' for Active; 'I' for Inactive)
    1  A    between atoms: S_1  and  C_17
    2  A    between atoms: S_1  and  C_24
    3  A    between atoms: C_3  and  C_29
    4  A    between atoms: C_8  and  C_17
    5  A    between atoms: C_12  and  C_14
    6  A    between atoms: C_14  and  C_21
    7  A    between atoms: C_14  and  C_28
    8  A    between atoms: C_18  and  C_20
    9  A    between atoms: N_22  and  C_28
                            x       y       z     vdW  Elec       q    Type
                         _______ _______ _______ _____ _____    ______ ____

>  <TORSDO>
F 9

$$$$
=
 OpenBabel11062414323D

 31 35  0  0  1  0  0  0  0  0999 V2000
  190.1300  175.8810  143.0890 C   0  0  0  0  0  2  0  0  0  0  0  0
  189.5960  176.1480  141.7550 N   0  0  1  0  0  0  0  0  0  0  0  0
  188.3480  176.8870  141.9140 C   0  0  2  0  0  3  0  0  0  0  0  0
  190.3050  177.3040  141.2210 C   0  0  2  0  0  3  0  0  0  0  0  0
  188.9260  178.4930  141.2870 S   0  0  0  0  0  0  0  0  0  0  0  0
  189.2540  176.5490  144.1280 C   0  0  2  0  0  3  0  0  0  0  0  0
  188.0130  176.9800  143.3900 C   0  0  0  0  0  2  0  0  0  0  0  0
  189.8970  176.6730  138.6480 C   0  0  0  0  0  2  0  0  0  0  0  0
  192.0050  177.0960  139.3980 C   0  0  0  0  0  0  0  0  0  0  0  0
  192.0740  176.8280  138.0150 N   0  0  0  0  0  2  0  0  0  0  0  0
  190.7630  177.0270  139.8140 C   0  0  0  0  0  0  0  0  0  0  0  0
  190.7990  176.5580  137.4900 N   0  0  0  0  0  0  0  0  0  0  0  0
  194.2950  176.7360  139.8370 O   0  0  0  0  0  1  0  0  0  0  0  0
  193.1860  177.4890  140.2190 C   0  0  0  0  0  2  0  0  0  0  0  0
  190.7980  175.1610  137.0760 C   0  0  0  0  0  2  0  0  0  0  0  0
  190.2660  175.0250  135.6520 C   0  0  1  0  0  3  0  0  0  0  0  0
  187.9010  176.1940  135.4800 C   0  0  0  0  0  1  0  0  0  0  0  0
  188.0880  173.6700  135.2020 C   0  0  0  0  0  2  0  0  0  0  0  0
  188.7300  174.9320  135.6190 C   0  0  1  0  0  0  0  0  0  0  0  0
  188.1810  174.0460  136.5610 O   0  0  0  0  0  0  0  0  0  0  0  0
  192.2520  175.9050  134.5970 O   0  0  0  0  0  1  0  0  0  0  0  0
  190.8740  176.0870  134.7340 C   0  0  0  0  0  2  0  0  0  0  0  0
  190.1160  178.0030  144.8000 S   0  0  0  0  0  0  0  0  0  0  0  0
  191.6110  176.8570  146.6220 O   0  0  0  0  0  0  0  0  0  0  0  0
  190.4690  177.1990  146.3620 C   0  0  0  0  0  0  0  0  0  0  0  0
  187.9620  178.6240  148.5150 C   0  0  0  0  0  3  0  0  0  0  0  0
  189.3690  178.0360  148.4440 C   0  0  0  0  0  3  0  0  0  0  0  0
  189.3600  176.9660  147.3420 C   0  0  1  0  0  3  0  0  0  0  0  0
  188.0720  177.0590  146.6800 N   0  0  0  0  0  2  0  0  0  0  0  0
  187.2780  178.0010  147.3670 C   0  0  0  0  0  0  0  0  0  0  0  0
  185.7390  178.3360  146.9380 S   0  0  0  0  0  0  0  0  0  0  0  0
  1  6  1  0  0  0  0
  2  3  1  0  0  0  0
  2  1  1  1  0  0  0
  3  7  1  1  0  0  0
  4 11  1  6  0  0  0
  4  5  1  0  0  0  0
  4  2  1  0  0  0  0
  5  3  1  0  0  0  0
  6 23  1  6  0  0  0
  7  6  1  0  0  0  0
  8 11  1  0  0  0  0
  9 11  2  0  0  0  0
  9 14  1  0  0  0  0
 10  9  1  0  0  0  0
 12 10  1  0  0  0  0
 12  8  1  0  0  0  0
 13 14  1  0  0  0  0
 15 12  1  0  0  0  0
 16 22  1  6  0  0  0
 16 15  1  0  0  0  0
 18 19  1  0  0  0  0
 18 20  1  0  0  0  0
 19 17  1  6  0  0  0
 19 16  1  0  0  0  0
 19 20  1  0  0  0  0
 21 22  1  0  0  0  0
 23 25  1  0  0  0  0
 25 24  2  0  0  0  0
 27 26  2  0  0  0  0
 28 25  1  6  0  0  0
 28 27  1  0  0  0  0
 29 28  1  0  0  0  0
 29 30  1  0  0  0  0
 30 26  1  0  0  0  0
 31 30  2  0  0  0  0
M  END
>  <MODEL>
7

>  <REMARK>
 VINA RESULT:      -6.0      2.249      3.309
  Name = 
  9 active torsions:
  status: ('A' for Active; 'I' for Inactive)
    1  A    between atoms: S_1  and  C_17
    2  A    between atoms: S_1  and  C_24
    3  A    between atoms: C_3  and  C_29
    4  A    between atoms: C_8  and  C_17
    5  A    between atoms: C_12  and  C_14
    6  A    between atoms: C_14  and  C_21
    7  A    between atoms: C_14  and  C_28
    8  A    between atoms: C_18  and  C_20
    9  A    between atoms: N_22  and  C_28
                            x       y       z     vdW  Elec       q    Type
                         _______ _______ _______ _____ _____    ______ ____

>  <TORSDO>
F 9

$$$$
=
 OpenBabel11062414323D

 31 35  0  0  1  0  0  0  0  0999 V2000
  187.5100  176.0470  137.1030 C   0  0  0  0  0  2  0  0  0  0  0  0
  188.4250  176.6310  138.0830 N   0  0  1  0  0  0  0  0  0  0  0  0
  189.5050  177.2830  137.3490 C   0  0  2  0  0  3  0  0  0  0  0  0
  187.8520  177.8960  138.5220 C   0  0  2  0  0  3  0  0  0  0  0  0
  189.0560  179.0050  137.7220 S   0  0  0  0  0  0  0  0  0  0  0  0
  187.9600  176.4180  135.7060 C   0  0  2  0  0  3  0  0  0  0  0  0
  189.3410  176.9980  135.8700 C   0  0  0  0  0  2  0  0  0  0  0  0
  189.0760  177.7520  140.9020 C   0  0  0  0  0  2  0  0  0  0  0  0
  186.8780  178.3340  140.7840 C   0  0  0  0  0  0  0  0  0  0  0  0
  187.2720  178.3700  142.1370 N   0  0  0  0  0  2  0  0  0  0  0  0
  187.8900  177.9890  140.0230 C   0  0  0  0  0  0  0  0  0  0  0  0
  188.6240  178.0190  142.2780 N   0  0  0  0  0  0  0  0  0  0  0  0
  184.5850  178.4860  141.3180 O   0  0  0  0  0  1  0  0  0  0  0  0
  185.5190  178.7270  140.3120 C   0  0  0  0  0  2  0  0  0  0  0  0
  188.6620  176.7550  143.0000 C   0  0  0  0  0  2  0  0  0  0  0  0
  189.2250  176.9560  144.4050 C   0  0  1  0  0  3  0  0  0  0  0  0
  191.1170  178.7510  143.9730 C   0  0  0  0  0  1  0  0  0  0  0  0
  191.6760  176.5940  145.2050 C   0  0  0  0  0  2  0  0  0  0  0  0
  190.7130  177.3470  144.3770 C   0  0  1  0  0  0  0  0  0  0  0  0
  191.5580  176.3760  143.8130 O   0  0  0  0  0  0  0  0  0  0  0  0
  188.2910  177.4810  146.5700 O   0  0  0  0  0  1  0  0  0  0  0  0
  188.3250  177.8780  145.2310 C   0  0  0  0  0  2  0  0  0  0  0  0
  186.8350  177.6730  135.0220 S   0  0  0  0  0  0  0  0  0  0  0  0
  185.4840  175.4450  134.7370 O   0  0  0  0  0  0  0  0  0  0  0  0
  185.4060  176.5980  135.1310 C   0  0  0  0  0  0  0  0  0  0  0  0
  182.1500  175.8620  136.4760 C   0  0  0  0  0  3  0  0  0  0  0  0
  182.9280  176.2940  135.2350 C   0  0  0  0  0  3  0  0  0  0  0  0
  184.1300  177.1210  135.7160 C   0  0  1  0  0  3  0  0  0  0  0  0
  184.1560  177.0160  137.1630 N   0  0  0  0  0  2  0  0  0  0  0  0
  183.0140  176.3050  137.5860 C   0  0  0  0  0  0  0  0  0  0  0  0
  182.6790  176.0330  139.1600 S   0  0  0  0  0  0  0  0  0  0  0  0
  2  1  1  6  0  0  0
  2  4  1  0  0  0  0
  3  7  1  6  0  0  0
  3  5  1  0  0  0  0
  3  2  1  0  0  0  0
  4 11  1  1  0  0  0
  5  4  1  0  0  0  0
  6 23  1  1  0  0  0
  6  7  1  0  0  0  0
  6  1  1  0  0  0  0
  8 12  1  0  0  0  0
  9 10  1  0  0  0  0
 10 12  1  0  0  0  0
 11  9  2  0  0  0  0
 11  8  1  0  0  0  0
 12 15  1  0  0  0  0
 14  9  1  0  0  0  0
 14 13  1  0  0  0  0
 16 15  1  6  0  0  0
 16 22  1  0  0  0  0
 19 17  1  6  0  0  0
 19 16  1  0  0  0  0
 19 18  1  0  0  0  0
 20 19  1  0  0  0  0
 20 18  1  0  0  0  0
 22 21  1  0  0  0  0
 23 25  1  0  0  0  0
 24 25  2  0  0  0  0
 26 30  1  0  0  0  0
 27 28  1  0  0  0  0
 27 26  2  0  0  0  0
 28 25  1  6  0  0  0
 28 29  1  0  0  0  0
 29 30  1  0  0  0  0
 30 31  2  0  0  0  0
M  END
>  <MODEL>
8

>  <REMARK>
 VINA RESULT:      -5.9      3.292      8.635
  Name = 
  9 active torsions:
  status: ('A' for Active; 'I' for Inactive)
    1  A    between atoms: S_1  and  C_17
    2  A    between atoms: S_1  and  C_24
    3  A    between atoms: C_3  and  C_29
    4  A    between atoms: C_8  and  C_17
    5  A    between atoms: C_12  and  C_14
    6  A    between atoms: C_14  and  C_21
    7  A    between atoms: C_14  and  C_28
    8  A    between atoms: C_18  and  C_20
    9  A    between atoms: N_22  and  C_28
                            x       y       z     vdW  Elec       q    Type
                         _______ _______ _______ _____ _____    ______ ____

>  <TORSDO>
F 9

$$$$
=
 OpenBabel11062414323D

 31 35  0  0  1  0  0  0  0  0999 V2000
  181.7760  178.2490  140.8900 C   0  0  0  0  0  2  0  0  0  0  0  0
  183.1670  177.8090  140.9900 N   0  0  1  0  0  0  0  0  0  0  0  0
  183.6730  177.6220  139.6330 C   0  0  2  0  0  3  0  0  0  0  0  0
  183.9870  178.9920  141.2180 C   0  0  2  0  0  3  0  0  0  0  0  0
  184.8120  179.0380  139.5930 S   0  0  0  0  0  0  0  0  0  0  0  0
  181.4090  178.4430  139.4340 C   0  0  2  0  0  3  0  0  0  0  0  0
  182.5370  177.8230  138.6500 C   0  0  0  0  0  2  0  0  0  0  0  0
  186.3720  178.3040  142.2280 C   0  0  0  0  0  2  0  0  0  0  0  0
  184.6810  178.9240  143.6200 C   0  0  0  0  0  0  0  0  0  0  0  0
  185.8200  178.6510  144.4040 N   0  0  0  0  0  2  0  0  0  0  0  0
  184.9490  178.7460  142.3480 C   0  0  0  0  0  0  0  0  0  0  0  0
  186.9040  178.2610  143.6010 N   0  0  0  0  0  0  0  0  0  0  0  0
  182.5290  178.3620  144.4070 O   0  0  0  0  0  1  0  0  0  0  0  0
  183.3960  179.4300  144.1830 C   0  0  0  0  0  2  0  0  0  0  0  0
  187.1850  176.8670  143.9140 C   0  0  0  0  0  2  0  0  0  0  0  0
  188.5630  176.7290  144.5550 C   0  0  1  0  0  3  0  0  0  0  0  0
  190.3750  178.3940  143.5890 C   0  0  0  0  0  1  0  0  0  0  0  0
  190.4590  175.9290  142.9590 C   0  0  0  0  0  2  0  0  0  0  0  0
  189.6950  177.0400  143.5580 C   0  0  1  0  0  0  0  0  0  0  0  0
  189.4460  176.6080  142.2440 O   0  0  0  0  0  0  0  0  0  0  0  0
  189.4610  176.8400  146.7950 O   0  0  0  0  0  1  0  0  0  0  0  0
  188.6340  177.4940  145.8780 C   0  0  0  0  0  2  0  0  0  0  0  0
  181.3020  180.2220  139.0700 S   0  0  0  0  0  0  0  0  0  0  0  0
  179.4020  178.9150  137.8240 O   0  0  0  0  0  0  0  0  0  0  0  0
  179.8220  180.0330  138.0790 C   0  0  0  0  0  0  0  0  0  0  0  0
  179.6510  183.6250  137.9540 C   0  0  0  0  0  3  0  0  0  0  0  0
  179.1230  182.3660  138.6370 C   0  0  0  0  0  3  0  0  0  0  0  0
  179.1030  181.2500  137.5820 C   0  0  1  0  0  3  0  0  0  0  0  0
  179.7600  181.7800  136.4020 N   0  0  0  0  0  2  0  0  0  0  0  0
  180.0580  183.1400  136.6220 C   0  0  0  0  0  0  0  0  0  0  0  0
  180.7580  184.0830  135.4880 S   0  0  0  0  0  0  0  0  0  0  0  0
  2  1  1  6  0  0  0
  2  4  1  0  0  0  0
  3  7  1  6  0  0  0
  3  2  1  0  0  0  0
  4 11  1  1  0  0  0
  5  3  1  0  0  0  0
  5  4  1  0  0  0  0
  6 23  1  6  0  0  0
  6  1  1  0  0  0  0
  7  6  1  0  0  0  0
  8 11  1  0  0  0  0
  8 12  1  0  0  0  0
  9 14  1  0  0  0  0
  9 10  1  0  0  0  0
 11  9  2  0  0  0  0
 12 15  1  0  0  0  0
 12 10  1  0  0  0  0
 14 13  1  0  0  0  0
 16 15  1  6  0  0  0
 16 22  1  0  0  0  0
 18 19  1  0  0  0  0
 19 17  1  1  0  0  0
 19 16  1  0  0  0  0
 20 18  1  0  0  0  0
 20 19  1  0  0  0  0
 22 21  1  0  0  0  0
 24 25  2  0  0  0  0
 25 23  1  0  0  0  0
 26 27  2  0  0  0  0
 28 25  1  1  0  0  0
 28 27  1  0  0  0  0
 29 30  1  0  0  0  0
 29 28  1  0  0  0  0
 30 26  1  0  0  0  0
 31 30  2  0  0  0  0
M  END
>  <MODEL>
9

>  <REMARK>
 VINA RESULT:      -5.9      5.784      9.967
  Name = 
  9 active torsions:
  status: ('A' for Active; 'I' for Inactive)
    1  A    between atoms: S_1  and  C_17
    2  A    between atoms: S_1  and  C_24
    3  A    between atoms: C_3  and  C_29
    4  A    between atoms: C_8  and  C_17
    5  A    between atoms: C_12  and  C_14
    6  A    between atoms: C_14  and  C_21
    7  A    between atoms: C_14  and  C_28
    8  A    between atoms: C_18  and  C_20
    9  A    between atoms: N_22  and  C_28
                            x       y       z     vdW  Elec       q    Type
                         _______ _______ _______ _____ _____    ______ ____

>  <TORSDO>
F 9

$$$$
