=
 OpenBabel11062417193D

 26 30  0  0  0  0  0  0  0  0999 V2000
  186.1560  177.9200  146.0970 C   0  0  0  0  0  0  0  0  0  0  0  0
  185.0340  178.5490  146.8590 C   0  0  0  0  0  2  0  0  0  0  0  0
  184.2080  179.0690  143.3050 C   0  0  0  0  0  3  0  0  0  0  0  0
  184.1460  179.0220  145.7760 N   0  0  0  0  0  0  0  0  0  0  0  0
  186.7790  177.8590  143.7300 C   0  0  0  0  0  0  0  0  0  0  0  0
  185.0740  178.9010  142.2770 C   0  0  0  0  0  0  0  0  0  0  0  0
  187.4240  177.7090  146.4600 C   0  0  0  0  0  3  0  0  0  0  0  0
  188.1130  177.4950  144.1120 N   0  0  0  0  0  0  0  0  0  0  0  0
  188.4260  177.3870  145.3850 C   0  0  0  0  0  0  0  0  0  0  0  0
  186.4480  178.3210  142.5170 C   0  0  0  0  0  3  0  0  0  0  0  0
  184.6220  178.6180  144.6390 C   0  0  0  0  0  0  0  0  0  0  0  0
  185.8070  177.8930  144.7500 N   0  0  0  0  0  0  0  0  0  0  0  0
  191.5110  176.5340  146.8850 C   0  0  0  0  0  0  0  0  0  0  0  0
  190.8420  176.7910  144.8810 C   0  0  0  0  0  2  0  0  0  0  0  0
  189.8000  177.0190  145.7590 C   0  0  0  0  0  0  0  0  0  0  0  0
  191.9320  176.4810  145.6070 N   0  0  0  0  0  0  0  0  0  0  0  0
  190.2130  176.8600  147.0290 N   0  0  0  0  0  0  0  0  0  0  0  0
  192.3660  176.2680  147.9910 N   0  0  0  0  0  1  0  0  0  0  0  0
  184.6470  179.2920  140.9990 O   0  0  0  0  0  0  0  0  0  0  0  0
  184.6360  177.6980  137.6640 C   0  0  0  0  0  3  0  0  0  0  0  0
  183.5930  176.7770  137.7890 C   0  0  0  0  0  0  0  0  0  0  0  0
  184.9680  178.5280  138.7390 C   0  0  0  0  0  3  0  0  0  0  0  0
  182.8850  176.6830  138.9900 C   0  0  0  0  0  3  0  0  0  0  0  0
  183.1760  175.7390  136.4440 Cl  0  0  0  0  0  0  0  0  0  0  0  0
  183.2200  177.5130  140.0640 C   0  0  0  0  0  3  0  0  0  0  0  0
  184.2600  178.4490  139.9450 C   0  0  0  0  0  0  0  0  0  0  0  0
  1  7  2  0  0  0  0
  1  2  1  0  0  0  0
  3 11  1  0  0  0  0
  4  2  1  0  0  0  0
  5  8  1  0  0  0  0
  5 12  1  0  0  0  0
  6 10  1  0  0  0  0
  6  3  2  0  0  0  0
  8  9  2  0  0  0  0
  9 15  1  0  0  0  0
  9  7  1  0  0  0  0
 10  5  2  0  0  0  0
 11 12  1  0  0  0  0
 11  4  2  0  0  0  0
 12  1  1  0  0  0  0
 13 17  1  0  0  0  0
 13 18  1  0  0  0  0
 14 16  1  0  0  0  0
 14 15  1  0  0  0  0
 15 17  2  0  0  0  0
 16 13  2  0  0  0  0
 19  6  1  0  0  0  0
 20 21  2  0  0  0  0
 20 22  1  0  0  0  0
 21 23  1  0  0  0  0
 22 26  2  0  0  0  0
 23 25  2  0  0  0  0
 24 21  1  0  0  0  0
 26 25  1  0  0  0  0
 26 19  1  0  0  0  0
M  END
>  <MODEL>
1

>  <REMARK>
 VINA RESULT:      -9.1      0.000      0.000
  Name = 
  3 active torsions:
  status: ('A' for Active; 'I' for Inactive)
    1  A    between atoms: C_12  and  C_17
    2  A    between atoms: C_13  and  O_25
    3  A    between atoms: O_25  and  C_26
                            x       y       z     vdW  Elec       q    Type
                         _______ _______ _______ _____ _____    ______ ____

>  <TORSDO>
F 3

$$$$
=
 OpenBabel11062417193D

 26 30  0  0  0  0  0  0  0  0999 V2000
  188.2800  177.3630  145.4870 C   0  0  0  0  0  0  0  0  0  0  0  0
  188.3560  177.5560  146.9680 C   0  0  0  0  0  2  0  0  0  0  0  0
  184.9380  178.5660  146.0270 C   0  0  0  0  0  3  0  0  0  0  0  0
  186.9900  178.0190  147.2940 N   0  0  0  0  0  0  0  0  0  0  0  0
  186.6110  177.9150  143.7840 C   0  0  0  0  0  0  0  0  0  0  0  0
  184.5240  178.8070  144.7600 C   0  0  0  0  0  0  0  0  0  0  0  0
  189.2540  177.3790  144.5730 C   0  0  0  0  0  3  0  0  0  0  0  0
  187.6280  177.7960  142.7790 N   0  0  0  0  0  0  0  0  0  0  0  0
  188.8650  177.5140  143.1250 C   0  0  0  0  0  0  0  0  0  0  0  0
  185.4320  178.5200  143.5880 C   0  0  0  0  0  3  0  0  0  0  0  0
  186.2640  177.9670  146.2200 C   0  0  0  0  0  0  0  0  0  0  0  0
  186.9550  177.5240  145.0940 N   0  0  0  0  0  0  0  0  0  0  0  0
  190.8530  177.0980  140.2330 C   0  0  0  0  0  0  0  0  0  0  0  0
  191.2510  177.6010  142.2620 C   0  0  0  0  0  2  0  0  0  0  0  0
  189.8960  177.4020  142.0820 C   0  0  0  0  0  0  0  0  0  0  0  0
  191.8560  177.4060  141.0760 N   0  0  0  0  0  0  0  0  0  0  0  0
  189.6330  177.0830  140.8020 N   0  0  0  0  0  0  0  0  0  0  0  0
  191.0630  176.8140  138.8550 N   0  0  0  0  0  1  0  0  0  0  0  0
  183.2350  179.3350  144.5890 O   0  0  0  0  0  0  0  0  0  0  0  0
  179.9930  178.2860  143.1570 C   0  0  0  0  0  3  0  0  0  0  0  0
  180.2970  178.1920  141.7960 C   0  0  0  0  0  0  0  0  0  0  0  0
  180.9830  178.6620  144.0700 C   0  0  0  0  0  3  0  0  0  0  0  0
  181.5880  178.4780  141.3480 C   0  0  0  0  0  3  0  0  0  0  0  0
  179.0580  177.7200  140.6540 Cl  0  0  0  0  0  0  0  0  0  0  0  0
  182.5760  178.8550  142.2630 C   0  0  0  0  0  3  0  0  0  0  0  0
  182.2840  178.9430  143.6330 C   0  0  0  0  0  0  0  0  0  0  0  0
  1  2  1  0  0  0  0
  2  4  1  0  0  0  0
  3 11  1  0  0  0  0
  5 12  1  0  0  0  0
  6  3  2  0  0  0  0
  7  1  2  0  0  0  0
  8  9  2  0  0  0  0
  8  5  1  0  0  0  0
  9  7  1  0  0  0  0
 10  5  2  0  0  0  0
 10  6  1  0  0  0  0
 11  4  2  0  0  0  0
 12  1  1  0  0  0  0
 12 11  1  0  0  0  0
 13 17  1  0  0  0  0
 13 16  2  0  0  0  0
 15 14  1  0  0  0  0
 15  9  1  0  0  0  0
 16 14  1  0  0  0  0
 17 15  2  0  0  0  0
 18 13  1  0  0  0  0
 19  6  1  0  0  0  0
 20 22  1  0  0  0  0
 21 20  2  0  0  0  0
 23 21  1  0  0  0  0
 23 25  2  0  0  0  0
 24 21  1  0  0  0  0
 25 26  1  0  0  0  0
 26 22  2  0  0  0  0
 26 19  1  0  0  0  0
M  END
>  <MODEL>
2

>  <REMARK>
 VINA RESULT:      -8.7      3.053      4.357
  Name = 
  3 active torsions:
  status: ('A' for Active; 'I' for Inactive)
    1  A    between atoms: C_12  and  C_17
    2  A    between atoms: C_13  and  O_25
    3  A    between atoms: O_25  and  C_26
                            x       y       z     vdW  Elec       q    Type
                         _______ _______ _______ _____ _____    ______ ____

>  <TORSDO>
F 3

$$$$
=
 OpenBabel11062417193D

 26 30  0  0  0  0  0  0  0  0999 V2000
  189.4590  177.0880  145.0190 C   0  0  0  0  0  0  0  0  0  0  0  0
  189.7260  177.3000  146.4740 C   0  0  0  0  0  2  0  0  0  0  0  0
  186.1600  178.1130  146.0090 C   0  0  0  0  0  3  0  0  0  0  0  0
  188.3940  177.6910  146.9840 N   0  0  0  0  0  0  0  0  0  0  0  0
  187.5440  177.5300  143.5590 C   0  0  0  0  0  0  0  0  0  0  0  0
  185.5640  178.3170  144.8100 C   0  0  0  0  0  0  0  0  0  0  0  0
  190.2950  177.1480  143.9780 C   0  0  0  0  0  3  0  0  0  0  0  0
  188.4180  177.4570  142.4240 N   0  0  0  0  0  0  0  0  0  0  0  0
  189.7050  177.2460  142.5980 C   0  0  0  0  0  0  0  0  0  0  0  0
  186.3180  178.0690  143.5250 C   0  0  0  0  0  3  0  0  0  0  0  0
  187.5320  177.5880  146.0200 C   0  0  0  0  0  0  0  0  0  0  0  0
  188.0850  177.1720  144.8100 N   0  0  0  0  0  0  0  0  0  0  0  0
  192.2930  177.2300  140.1910 C   0  0  0  0  0  0  0  0  0  0  0  0
  190.1910  176.9030  140.1300 C   0  0  0  0  0  2  0  0  0  0  0  0
  190.5880  177.1800  141.4230 C   0  0  0  0  0  0  0  0  0  0  0  0
  191.2850  176.9360  139.3470 N   0  0  0  0  0  0  0  0  0  0  0  0
  191.9160  177.3890  141.4730 N   0  0  0  0  0  0  0  0  0  0  0  0
  193.6430  177.3620  139.7630 N   0  0  0  0  0  1  0  0  0  0  0  0
  184.2370  178.7730  144.8170 O   0  0  0  0  0  0  0  0  0  0  0  0
  181.0190  178.8610  143.0000 C   0  0  0  0  0  3  0  0  0  0  0  0
  181.4350  178.7240  141.6720 C   0  0  0  0  0  0  0  0  0  0  0  0
  181.9640  178.8700  144.0300 C   0  0  0  0  0  3  0  0  0  0  0  0
  182.7940  178.6010  141.3760 C   0  0  0  0  0  3  0  0  0  0  0  0
  180.2530  178.7120  140.3820 Cl  0  0  0  0  0  0  0  0  0  0  0  0
  183.7370  178.6110  142.4080 C   0  0  0  0  0  3  0  0  0  0  0  0
  183.3290  178.7380  143.7460 C   0  0  0  0  0  0  0  0  0  0  0  0
  1  2  1  0  0  0  0
  2  4  1  0  0  0  0
  3 11  1  0  0  0  0
  5 12  1  0  0  0  0
  6 19  1  0  0  0  0
  6  3  2  0  0  0  0
  7  1  2  0  0  0  0
  8  9  2  0  0  0  0
  8  5  1  0  0  0  0
  9  7  1  0  0  0  0
 10  5  2  0  0  0  0
 10  6  1  0  0  0  0
 11  4  2  0  0  0  0
 12  1  1  0  0  0  0
 12 11  1  0  0  0  0
 13 17  1  0  0  0  0
 14 15  1  0  0  0  0
 15 17  2  0  0  0  0
 15  9  1  0  0  0  0
 16 14  1  0  0  0  0
 16 13  2  0  0  0  0
 18 13  1  0  0  0  0
 20 22  1  0  0  0  0
 21 20  2  0  0  0  0
 23 21  1  0  0  0  0
 23 25  2  0  0  0  0
 24 21  1  0  0  0  0
 25 26  1  0  0  0  0
 26 22  2  0  0  0  0
 26 19  1  0  0  0  0
M  END
>  <MODEL>
3

>  <REMARK>
 VINA RESULT:      -8.5      3.054      4.552
  Name = 
  3 active torsions:
  status: ('A' for Active; 'I' for Inactive)
    1  A    between atoms: C_12  and  C_17
    2  A    between atoms: C_13  and  O_25
    3  A    between atoms: O_25  and  C_26
                            x       y       z     vdW  Elec       q    Type
                         _______ _______ _______ _____ _____    ______ ____

>  <TORSDO>
F 3

$$$$
=
 OpenBabel11062417193D

 26 30  0  0  0  0  0  0  0  0999 V2000
  185.7060  178.2320  144.6130 C   0  0  0  0  0  0  0  0  0  0  0  0
  184.3810  178.9210  144.6890 C   0  0  0  0  0  3  0  0  0  0  0  0
  185.2390  178.8470  141.1040 C   0  0  0  0  0  3  0  0  0  0  0  0
  184.0810  179.1810  143.2640 N   0  0  0  0  0  0  0  0  0  0  0  0
  187.3140  177.8330  142.8120 C   0  0  0  0  0  0  0  0  0  0  0  0
  186.4660  178.5610  140.6080 C   0  0  0  0  0  0  0  0  0  0  0  0
  186.6730  178.1370  145.5300 C   0  0  0  0  0  2  0  0  0  0  0  0
  188.3280  177.5920  143.7990 N   0  0  0  0  0  0  0  0  0  0  0  0
  188.0390  177.6970  145.0780 C   0  0  0  0  0  0  0  0  0  0  0  0
  187.5720  178.0870  141.5220 C   0  0  0  0  0  3  0  0  0  0  0  0
  185.0010  178.6270  142.5360 C   0  0  0  0  0  0  0  0  0  0  0  0
  185.9910  177.9810  143.2750 N   0  0  0  0  0  0  0  0  0  0  0  0
  190.8920  176.8550  146.9850 C   0  0  0  0  0  0  0  0  0  0  0  0
  189.0240  177.7780  147.4160 C   0  0  0  0  0  2  0  0  0  0  0  0
  189.0910  177.4530  146.0750 C   0  0  0  0  0  0  0  0  0  0  0  0
  190.1780  177.3930  147.9910 N   0  0  0  0  0  0  0  0  0  0  0  0
  190.2690  176.8680  145.7920 N   0  0  0  0  0  0  0  0  0  0  0  0
  192.1970  176.3180  147.1660 N   0  0  0  0  0  1  0  0  0  0  0  0
  186.6640  178.7300  139.2300 O   0  0  0  0  0  0  0  0  0  0  0  0
  188.0190  176.3020  136.7940 C   0  0  0  0  0  3  0  0  0  0  0  0
  189.3660  176.6680  136.7420 C   0  0  0  0  0  0  0  0  0  0  0  0
  187.1380  176.9940  137.6300 C   0  0  0  0  0  3  0  0  0  0  0  0
  189.8310  177.7300  137.5220 C   0  0  0  0  0  3  0  0  0  0  0  0
  190.4690  175.8010  135.6970 Cl  0  0  0  0  0  0  0  0  0  0  0  0
  188.9480  178.4230  138.3560 C   0  0  0  0  0  3  0  0  0  0  0  0
  187.5940  178.0550  138.4230 C   0  0  0  0  0  0  0  0  0  0  0  0
  1  2  2  0  0  0  0
  1  7  1  0  0  0  0
  3 11  1  0  0  0  0
  4  2  1  0  0  0  0
  5 12  1  0  0  0  0
  5  8  1  0  0  0  0
  6  3  2  0  0  0  0
  6 10  1  0  0  0  0
  8  9  2  0  0  0  0
  9  7  1  0  0  0  0
  9 15  1  0  0  0  0
 10  5  2  0  0  0  0
 11  4  2  0  0  0  0
 11 12  1  0  0  0  0
 12  1  1  0  0  0  0
 13 18  1  0  0  0  0
 13 16  2  0  0  0  0
 14 16  1  0  0  0  0
 15 14  1  0  0  0  0
 17 15  2  0  0  0  0
 17 13  1  0  0  0  0
 19  6  1  0  0  0  0
 20 22  1  0  0  0  0
 21 20  2  0  0  0  0
 21 23  1  0  0  0  0
 22 26  2  0  0  0  0
 23 25  2  0  0  0  0
 24 21  1  0  0  0  0
 25 26  1  0  0  0  0
 26 19  1  0  0  0  0
M  END
>  <MODEL>
4

>  <REMARK>
 VINA RESULT:      -8.4      2.656      3.287
  Name = 
  3 active torsions:
  status: ('A' for Active; 'I' for Inactive)
    1  A    between atoms: C_12  and  C_17
    2  A    between atoms: C_13  and  O_25
    3  A    between atoms: O_25  and  C_26
                            x       y       z     vdW  Elec       q    Type
                         _______ _______ _______ _____ _____    ______ ____

>  <TORSDO>
F 3

$$$$
=
 OpenBabel11062417193D

 26 30  0  0  0  0  0  0  0  0999 V2000
  182.5680  178.8550  141.6400 C   0  0  0  0  0  0  0  0  0  0  0  0
  181.2070  178.6620  142.2280 C   0  0  0  0  0  2  0  0  0  0  0  0
  183.4920  178.8910  145.1120 C   0  0  0  0  0  3  0  0  0  0  0  0
  181.4840  178.7060  143.6800 N   0  0  0  0  0  0  0  0  0  0  0  0
  184.8320  178.9000  142.5710 C   0  0  0  0  0  0  0  0  0  0  0  0
  184.8410  178.7970  145.0390 C   0  0  0  0  0  0  0  0  0  0  0  0
  183.0420  178.4920  140.4440 C   0  0  0  0  0  3  0  0  0  0  0  0
  185.3540  178.6480  141.2590 N   0  0  0  0  0  0  0  0  0  0  0  0
  184.5330  178.4870  140.2440 C   0  0  0  0  0  0  0  0  0  0  0  0
  185.5350  178.7390  143.6990 C   0  0  0  0  0  3  0  0  0  0  0  0
  182.7360  178.9950  143.8570 C   0  0  0  0  0  0  0  0  0  0  0  0
  183.4500  179.1600  142.6720 N   0  0  0  0  0  0  0  0  0  0  0  0
  186.3800  178.1590  137.2480 C   0  0  0  0  0  0  0  0  0  0  0  0
  184.4370  177.5660  137.8800 C   0  0  0  0  0  2  0  0  0  0  0  0
  185.0860  178.2230  138.9060 C   0  0  0  0  0  0  0  0  0  0  0  0
  185.2700  177.5280  136.8230 N   0  0  0  0  0  0  0  0  0  0  0  0
  186.3160  178.6030  138.5170 N   0  0  0  0  0  0  0  0  0  0  0  0
  187.5270  178.3410  136.4260 N   0  0  0  0  0  1  0  0  0  0  0  0
  185.5520  178.7470  146.2470 O   0  0  0  0  0  0  0  0  0  0  0  0
  188.5910  177.6060  148.0160 C   0  0  0  0  0  3  0  0  0  0  0  0
  189.3680  177.1130  146.9640 C   0  0  0  0  0  0  0  0  0  0  0  0
  187.3290  178.1500  147.7580 C   0  0  0  0  0  3  0  0  0  0  0  0
  188.8810  177.1600  145.6560 C   0  0  0  0  0  3  0  0  0  0  0  0
  190.9480  176.4340  147.2870 Cl  0  0  0  0  0  0  0  0  0  0  0  0
  187.6180  177.7020  145.4000 C   0  0  0  0  0  3  0  0  0  0  0  0
  186.8340  178.2090  146.4490 C   0  0  0  0  0  0  0  0  0  0  0  0
  1  2  1  0  0  0  0
  1 12  1  0  0  0  0
  2  4  1  0  0  0  0
  4 11  2  0  0  0  0
  5 12  1  0  0  0  0
  5 10  2  0  0  0  0
  6  3  2  0  0  0  0
  6 19  1  0  0  0  0
  7  1  2  0  0  0  0
  8  5  1  0  0  0  0
  9  7  1  0  0  0  0
  9  8  2  0  0  0  0
 10  6  1  0  0  0  0
 11  3  1  0  0  0  0
 12 11  1  0  0  0  0
 13 17  1  0  0  0  0
 14 15  1  0  0  0  0
 15  9  1  0  0  0  0
 16 13  2  0  0  0  0
 16 14  1  0  0  0  0
 17 15  2  0  0  0  0
 18 13  1  0  0  0  0
 19 26  1  0  0  0  0
 21 24  1  0  0  0  0
 21 20  2  0  0  0  0
 22 20  1  0  0  0  0
 23 21  1  0  0  0  0
 25 23  2  0  0  0  0
 25 26  1  0  0  0  0
 26 22  2  0  0  0  0
M  END
>  <MODEL>
5

>  <REMARK>
 VINA RESULT:      -8.4      4.393      7.852
  Name = 
  3 active torsions:
  status: ('A' for Active; 'I' for Inactive)
    1  A    between atoms: C_12  and  C_17
    2  A    between atoms: C_13  and  O_25
    3  A    between atoms: O_25  and  C_26
                            x       y       z     vdW  Elec       q    Type
                         _______ _______ _______ _____ _____    ______ ____

>  <TORSDO>
F 3

$$$$
=
 OpenBabel11062417193D

 26 30  0  0  0  0  0  0  0  0999 V2000
  189.2270  177.8590  138.3310 C   0  0  0  0  0  0  0  0  0  0  0  0
  187.8210  178.1970  137.9530 C   0  0  0  0  0  2  0  0  0  0  0  0
  187.8910  178.2970  141.6370 C   0  0  0  0  0  3  0  0  0  0  0  0
  187.1920  178.4390  139.2690 N   0  0  0  0  0  0  0  0  0  0  0  0
  190.3560  177.4120  140.4560 C   0  0  0  0  0  0  0  0  0  0  0  0
  188.8870  177.7950  142.4050 C   0  0  0  0  0  0  0  0  0  0  0  0
  190.1430  177.1470  137.6670 C   0  0  0  0  0  3  0  0  0  0  0  0
  191.4140  176.7660  139.7350 N   0  0  0  0  0  0  0  0  0  0  0  0
  191.3480  176.6610  138.4250 C   0  0  0  0  0  0  0  0  0  0  0  0
  190.1560  177.2730  141.7730 C   0  0  0  0  0  3  0  0  0  0  0  0
  188.1060  178.3730  140.1870 C   0  0  0  0  0  0  0  0  0  0  0  0
  189.3780  178.0840  139.6950 N   0  0  0  0  0  0  0  0  0  0  0  0
  194.2650  175.6160  136.7250 C   0  0  0  0  0  0  0  0  0  0  0  0
  192.4410  174.6740  137.2830 C   0  0  0  0  0  2  0  0  0  0  0  0
  192.4390  175.9900  137.7020 C   0  0  0  0  0  0  0  0  0  0  0  0
  193.6110  174.4410  136.6600 N   0  0  0  0  0  0  0  0  0  0  0  0
  193.5890  176.5950  137.3530 N   0  0  0  0  0  0  0  0  0  0  0  0
  195.5640  175.8070  136.1760 N   0  0  0  0  0  1  0  0  0  0  0  0
  188.6850  177.7730  143.7940 O   0  0  0  0  0  0  0  0  0  0  0  0
  190.0630  176.9540  147.1250 C   0  0  0  0  0  3  0  0  0  0  0  0
  191.3340  176.4720  146.7990 C   0  0  0  0  0  0  0  0  0  0  0  0
  189.2000  177.3860  146.1130 C   0  0  0  0  0  3  0  0  0  0  0  0
  191.7390  176.4190  145.4640 C   0  0  0  0  0  3  0  0  0  0  0  0
  192.4150  175.9330  148.0650 Cl  0  0  0  0  0  0  0  0  0  0  0  0
  190.8730  176.8500  144.4540 C   0  0  0  0  0  3  0  0  0  0  0  0
  189.5980  177.3450  144.7710 C   0  0  0  0  0  0  0  0  0  0  0  0
  1 12  1  0  0  0  0
  2  1  1  0  0  0  0
  2  4  1  0  0  0  0
  3  6  2  0  0  0  0
  4 11  2  0  0  0  0
  5 10  2  0  0  0  0
  6 19  1  0  0  0  0
  7  1  2  0  0  0  0
  7  9  1  0  0  0  0
  8  5  1  0  0  0  0
  9  8  2  0  0  0  0
 10  6  1  0  0  0  0
 11  3  1  0  0  0  0
 12 11  1  0  0  0  0
 12  5  1  0  0  0  0
 13 17  1  0  0  0  0
 14 15  1  0  0  0  0
 15  9  1  0  0  0  0
 16 13  2  0  0  0  0
 16 14  1  0  0  0  0
 17 15  2  0  0  0  0
 18 13  1  0  0  0  0
 19 26  1  0  0  0  0
 21 20  1  0  0  0  0
 21 24  1  0  0  0  0
 22 20  2  0  0  0  0
 23 21  2  0  0  0  0
 25 26  2  0  0  0  0
 25 23  1  0  0  0  0
 26 22  1  0  0  0  0
M  END
>  <MODEL>
6

>  <REMARK>
 VINA RESULT:      -8.3      6.001      8.657
  Name = 
  3 active torsions:
  status: ('A' for Active; 'I' for Inactive)
    1  A    between atoms: C_12  and  C_17
    2  A    between atoms: C_13  and  O_25
    3  A    between atoms: O_25  and  C_26
                            x       y       z     vdW  Elec       q    Type
                         _______ _______ _______ _____ _____    ______ ____

>  <TORSDO>
F 3

$$$$
=
 OpenBabel11062417193D

 26 30  0  0  0  0  0  0  0  0999 V2000
  187.9030  177.8110  142.3960 C   0  0  0  0  0  0  0  0  0  0  0  0
  186.8250  178.6240  141.7540 C   0  0  0  0  0  3  0  0  0  0  0  0
  189.1330  177.7320  139.0210 C   0  0  0  0  0  3  0  0  0  0  0  0
  187.2290  178.6120  140.3310 N   0  0  0  0  0  0  0  0  0  0  0  0
  190.0360  176.8980  141.6180 C   0  0  0  0  0  0  0  0  0  0  0  0
  190.3800  177.2330  139.1940 C   0  0  0  0  0  0  0  0  0  0  0  0
  188.3380  177.8150  143.6590 C   0  0  0  0  0  2  0  0  0  0  0  0
  190.4560  176.7700  142.9830 N   0  0  0  0  0  0  0  0  0  0  0  0
  189.6620  177.1630  143.9550 C   0  0  0  0  0  0  0  0  0  0  0  0
  190.8720  176.8550  140.5710 C   0  0  0  0  0  3  0  0  0  0  0  0
  188.2590  177.8350  140.1970 C   0  0  0  0  0  0  0  0  0  0  0  0
  188.6940  177.2640  141.3910 N   0  0  0  0  0  0  0  0  0  0  0  0
  191.2950  176.6510  147.0470 C   0  0  0  0  0  0  0  0  0  0  0  0
  189.3510  177.2970  146.4710 C   0  0  0  0  0  2  0  0  0  0  0  0
  190.1110  177.0300  145.3490 C   0  0  0  0  0  0  0  0  0  0  0  0
  190.1140  177.0540  147.5530 N   0  0  0  0  0  0  0  0  0  0  0  0
  191.3430  176.6200  145.7030 N   0  0  0  0  0  0  0  0  0  0  0  0
  192.4020  176.2900  147.8650 N   0  0  0  0  0  1  0  0  0  0  0  0
  191.1860  177.0950  138.0540 O   0  0  0  0  0  0  0  0  0  0  0  0
  194.1050  174.8780  137.5760 C   0  0  0  0  0  3  0  0  0  0  0  0
  193.5150  173.7430  137.0140 C   0  0  0  0  0  0  0  0  0  0  0  0
  193.3160  175.9830  137.9100 C   0  0  0  0  0  3  0  0  0  0  0  0
  192.1370  173.7120  136.7900 C   0  0  0  0  0  3  0  0  0  0  0  0
  194.5020  172.3610  136.5950 Cl  0  0  0  0  0  0  0  0  0  0  0  0
  191.3500  174.8180  137.1260 C   0  0  0  0  0  3  0  0  0  0  0  0
  191.9350  175.9660  137.6820 C   0  0  0  0  0  0  0  0  0  0  0  0
  1  7  1  0  0  0  0
  2  1  2  0  0  0  0
  3  6  2  0  0  0  0
  3 11  1  0  0  0  0
  4  2  1  0  0  0  0
  5  8  1  0  0  0  0
  6 10  1  0  0  0  0
  7  9  1  0  0  0  0
  8  9  2  0  0  0  0
  9 15  1  0  0  0  0
 10  5  2  0  0  0  0
 11  4  2  0  0  0  0
 11 12  1  0  0  0  0
 12  5  1  0  0  0  0
 12  1  1  0  0  0  0
 13 16  2  0  0  0  0
 13 18  1  0  0  0  0
 14 16  1  0  0  0  0
 15 17  2  0  0  0  0
 15 14  1  0  0  0  0
 17 13  1  0  0  0  0
 19  6  1  0  0  0  0
 20 22  1  0  0  0  0
 21 20  2  0  0  0  0
 23 21  1  0  0  0  0
 23 25  2  0  0  0  0
 24 21  1  0  0  0  0
 25 26  1  0  0  0  0
 26 22  2  0  0  0  0
 26 19  1  0  0  0  0
M  END
>  <MODEL>
7

>  <REMARK>
 VINA RESULT:      -8.1      5.202      6.297
  Name = 
  3 active torsions:
  status: ('A' for Active; 'I' for Inactive)
    1  A    between atoms: C_12  and  C_17
    2  A    between atoms: C_13  and  O_25
    3  A    between atoms: O_25  and  C_26
                            x       y       z     vdW  Elec       q    Type
                         _______ _______ _______ _____ _____    ______ ____

>  <TORSDO>
F 3

$$$$
=
 OpenBabel11062417193D

 26 30  0  0  0  0  0  0  0  0999 V2000
  190.4680  177.2930  141.6660 C   0  0  0  0  0  0  0  0  0  0  0  0
  190.8790  176.8360  140.3030 C   0  0  0  0  0  3  0  0  0  0  0  0
  187.4880  178.2210  139.8860 C   0  0  0  0  0  3  0  0  0  0  0  0
  189.7120  177.2200  139.4790 N   0  0  0  0  0  0  0  0  0  0  0  0
  188.3780  178.1420  142.6160 C   0  0  0  0  0  0  0  0  0  0  0  0
  186.6360  178.4980  140.9010 C   0  0  0  0  0  0  0  0  0  0  0  0
  190.8690  176.8670  142.8670 C   0  0  0  0  0  2  0  0  0  0  0  0
  188.8640  177.8130  143.9250 N   0  0  0  0  0  0  0  0  0  0  0  0
  190.0420  177.2450  144.0660 C   0  0  0  0  0  0  0  0  0  0  0  0
  187.0920  178.3950  142.3370 C   0  0  0  0  0  3  0  0  0  0  0  0
  188.8760  177.8770  140.2210 C   0  0  0  0  0  0  0  0  0  0  0  0
  189.2860  178.0170  141.5450 N   0  0  0  0  0  0  0  0  0  0  0  0
  191.7350  176.2660  147.0100 C   0  0  0  0  0  0  0  0  0  0  0  0
  189.8000  177.0410  146.5850 C   0  0  0  0  0  2  0  0  0  0  0  0
  190.5220  176.9090  145.4150 C   0  0  0  0  0  0  0  0  0  0  0  0
  190.5810  176.6290  147.6000 N   0  0  0  0  0  0  0  0  0  0  0  0
  191.7480  176.4190  145.6720 N   0  0  0  0  0  0  0  0  0  0  0  0
  192.8500  175.7630  147.7380 N   0  0  0  0  0  1  0  0  0  0  0  0
  185.3260  178.8720  140.5640 O   0  0  0  0  0  0  0  0  0  0  0  0
  181.7970  178.5950  141.6270 C   0  0  0  0  0  3  0  0  0  0  0  0
  181.8980  178.7750  143.0090 C   0  0  0  0  0  0  0  0  0  0  0  0
  182.9460  178.6360  140.8310 C   0  0  0  0  0  3  0  0  0  0  0  0
  183.1470  178.9920  143.5940 C   0  0  0  0  0  3  0  0  0  0  0  0
  180.4600  178.7260  144.0050 Cl  0  0  0  0  0  0  0  0  0  0  0  0
  184.2950  179.0300  142.7970 C   0  0  0  0  0  3  0  0  0  0  0  0
  184.2030  178.8600  141.4060 C   0  0  0  0  0  0  0  0  0  0  0  0
  1  7  1  0  0  0  0
  2  1  2  0  0  0  0
  3 11  1  0  0  0  0
  3  6  2  0  0  0  0
  4 11  2  0  0  0  0
  4  2  1  0  0  0  0
  5  8  1  0  0  0  0
  6 10  1  0  0  0  0
  7  9  1  0  0  0  0
  8  9  2  0  0  0  0
  9 15  1  0  0  0  0
 10  5  2  0  0  0  0
 11 12  1  0  0  0  0
 12  1  1  0  0  0  0
 12  5  1  0  0  0  0
 13 16  2  0  0  0  0
 13 18  1  0  0  0  0
 14 16  1  0  0  0  0
 15 17  2  0  0  0  0
 15 14  1  0  0  0  0
 17 13  1  0  0  0  0
 19  6  1  0  0  0  0
 19 26  1  0  0  0  0
 20 21  1  0  0  0  0
 21 23  2  0  0  0  0
 21 24  1  0  0  0  0
 22 26  1  0  0  0  0
 22 20  2  0  0  0  0
 25 23  1  0  0  0  0
 26 25  2  0  0  0  0
M  END
>  <MODEL>
8

>  <REMARK>
 VINA RESULT:      -8.0      2.811      4.440
  Name = 
  3 active torsions:
  status: ('A' for Active; 'I' for Inactive)
    1  A    between atoms: C_12  and  C_17
    2  A    between atoms: C_13  and  O_25
    3  A    between atoms: O_25  and  C_26
                            x       y       z     vdW  Elec       q    Type
                         _______ _______ _______ _____ _____    ______ ____

>  <TORSDO>
F 3

$$$$
=
 OpenBabel11062417193D

 26 30  0  0  0  0  0  0  0  0999 V2000
  188.7970  177.7400  145.2000 C   0  0  0  0  0  0  0  0  0  0  0  0
  189.8560  177.1680  146.0870 C   0  0  0  0  0  2  0  0  0  0  0  0
  191.0760  176.6420  142.6480 C   0  0  0  0  0  3  0  0  0  0  0  0
  190.8740  176.7200  145.1120 N   0  0  0  0  0  0  0  0  0  0  0  0
  188.4270  177.7470  142.7800 C   0  0  0  0  0  0  0  0  0  0  0  0
  190.3180  176.7610  141.5320 C   0  0  0  0  0  0  0  0  0  0  0  0
  187.4900  177.9010  145.4240 C   0  0  0  0  0  3  0  0  0  0  0  0
  187.0460  178.0580  143.0130 N   0  0  0  0  0  0  0  0  0  0  0  0
  186.5950  178.1670  144.2440 C   0  0  0  0  0  0  0  0  0  0  0  0
  188.9030  177.2840  141.6160 C   0  0  0  0  0  3  0  0  0  0  0  0
  190.5050  177.0910  143.9240 C   0  0  0  0  0  0  0  0  0  0  0  0
  189.2860  177.7660  143.8970 N   0  0  0  0  0  0  0  0  0  0  0  0
  183.1280  178.8460  144.1390 C   0  0  0  0  0  0  0  0  0  0  0  0
  184.5920  178.7710  145.6820 C   0  0  0  0  0  2  0  0  0  0  0  0
  185.1750  178.4810  144.4640 C   0  0  0  0  0  0  0  0  0  0  0  0
  183.2840  179.0030  145.4670 N   0  0  0  0  0  0  0  0  0  0  0  0
  184.2580  178.5260  143.4810 N   0  0  0  0  0  0  0  0  0  0  0  0
  181.8740  179.0040  143.4850 N   0  0  0  0  0  1  0  0  0  0  0  0
  190.8950  176.3730  140.3130 O   0  0  0  0  0  0  0  0  0  0  0  0
  189.3140  178.1530  137.4850 C   0  0  0  0  0  3  0  0  0  0  0  0
  189.3690  177.1900  136.4730 C   0  0  0  0  0  0  0  0  0  0  0  0
  189.8210  177.8610  138.7550 C   0  0  0  0  0  3  0  0  0  0  0  0
  189.9350  175.9400  136.7300 C   0  0  0  0  0  3  0  0  0  0  0  0
  188.7340  177.5550  134.8840 Cl  0  0  0  0  0  0  0  0  0  0  0  0
  190.4430  175.6510  138.0000 C   0  0  0  0  0  3  0  0  0  0  0  0
  190.3830  176.6070  139.0260 C   0  0  0  0  0  0  0  0  0  0  0  0
  1  7  2  0  0  0  0
  1  2  1  0  0  0  0
  3 11  1  0  0  0  0
  4  2  1  0  0  0  0
  5  8  1  0  0  0  0
  5 12  1  0  0  0  0
  6 10  1  0  0  0  0
  6  3  2  0  0  0  0
  8  9  2  0  0  0  0
  9 15  1  0  0  0  0
  9  7  1  0  0  0  0
 10  5  2  0  0  0  0
 11  4  2  0  0  0  0
 12 11  1  0  0  0  0
 12  1  1  0  0  0  0
 13 16  2  0  0  0  0
 15 14  1  0  0  0  0
 16 14  1  0  0  0  0
 17 13  1  0  0  0  0
 17 15  2  0  0  0  0
 18 13  1  0  0  0  0
 19  6  1  0  0  0  0
 20 22  1  0  0  0  0
 21 23  1  0  0  0  0
 21 20  2  0  0  0  0
 22 26  2  0  0  0  0
 23 25  2  0  0  0  0
 24 21  1  0  0  0  0
 25 26  1  0  0  0  0
 26 19  1  0  0  0  0
M  END
>  <MODEL>
9

>  <REMARK>
 VINA RESULT:      -7.9      3.452      6.160
  Name = 
  3 active torsions:
  status: ('A' for Active; 'I' for Inactive)
    1  A    between atoms: C_12  and  C_17
    2  A    between atoms: C_13  and  O_25
    3  A    between atoms: O_25  and  C_26
                            x       y       z     vdW  Elec       q    Type
                         _______ _______ _______ _____ _____    ______ ____

>  <TORSDO>
F 3

$$$$
