=
 OpenBabel11062415183D

 41 45  0  0  1  0  0  0  0  0999 V2000
  188.6720  179.0380  138.9950 N   0  0  0  0  0  2  0  0  0  0  0  0
  189.1520  177.8690  138.7710 C   0  0  0  0  0  0  0  0  0  0  0  0
  190.0220  177.2100  139.8160 C   0  0  1  0  0  0  0  0  0  0  0  0
  190.4960  175.9760  139.3610 O   0  0  0  0  0  1  0  0  0  0  0  0
  191.1110  178.0310  140.0550 F   0  0  0  0  0  0  0  0  0  0  0  0
  189.2510  177.0270  141.1290 C   0  0  2  0  0  3  0  0  0  0  0  0
  187.8830  177.1270  140.9310 F   0  0  0  0  0  0  0  0  0  0  0  0
  189.7350  177.9210  142.2790 C   0  0  0  0  0  2  0  0  0  0  0  0
  190.7580  176.0150  143.4210 C   0  0  0  0  0  2  0  0  0  0  0  0
  190.0960  177.1670  143.5290 C   0  0  0  0  0  0  0  0  0  0  0  0
  189.4550  176.8240  145.9460 C   0  0  0  0  0  0  0  0  0  0  0  0
  189.2620  177.1600  147.4330 C   0  0  0  0  0  2  0  0  0  0  0  0
  188.5520  177.9530  145.4150 C   0  0  1  0  0  3  0  0  0  0  0  0
  190.6290  177.0350  146.9140 C   0  0  0  0  0  2  0  0  0  0  0  0
  189.9480  177.8240  144.8830 C   0  0  2  0  0  3  0  0  0  0  0  0
  187.4820  176.2810  144.0930 O   0  0  0  0  0  0  0  0  0  0  0  0
  187.4310  177.4180  144.5380 C   0  0  0  0  0  0  0  0  0  0  0  0
  186.2120  178.2420  144.2350 C   0  0  0  0  0  2  0  0  0  0  0  0
  184.2750  178.6530  142.7550 C   0  0  0  0  0  2  0  0  0  0  0  0
  185.4950  179.2650  142.1030 C   0  0  0  0  0  2  0  0  0  0  0  0
  185.6190  177.9610  142.8630 C   0  0  0  0  0  3  0  0  0  0  0  0
  188.9640  177.2540  137.4150 C   0  0  0  0  0  2  0  0  0  0  0  0
  185.5020  176.3040  135.9700 C   0  0  1  0  0  3  0  0  0  0  0  0
  186.5370  174.2880  137.1150 C   0  0  0  0  0  2  0  0  0  0  0  0
  186.8330  177.0570  136.1460 C   0  0  0  0  0  2  0  0  0  0  0  0
  185.7080  174.7810  135.9310 C   0  0  0  0  0  2  0  0  0  0  0  0
  187.6380  176.5190  137.3280 C   0  0  1  0  0  3  0  0  0  0  0  0
  187.8720  175.0210  137.1620 C   0  0  0  0  0  2  0  0  0  0  0  0
  183.4500  177.7620  136.1280 C   0  0  0  0  0  1  0  0  0  0  0  0
  183.1320  175.4670  138.7210 C   0  0  0  0  0  2  0  0  0  0  0  0
  183.9650  177.7890  139.0120 C   0  0  2  0  0  3  0  0  0  0  0  0
  184.3410  176.7710  136.8790 C   0  0  2  0  0  0  0  0  0  0  0  0
  184.9180  177.3810  138.0320 O   0  0  0  0  0  0  0  0  0  0  0  0
  182.7600  176.8550  139.1890 C   0  0  0  0  0  2  0  0  0  0  0  0
  183.5060  175.5260  137.2460 C   0  0  0  0  0  2  0  0  0  0  0  0
  184.5580  180.0610  138.8670 O   0  0  0  0  0  0  0  0  0  0  0  0
  183.6390  179.2590  138.9090 C   0  0  0  0  0  0  0  0  0  0  0  0
  181.2540  179.6370  140.4220 O   0  0  0  0  0  1  0  0  0  0  0  0
  181.9470  181.3540  138.5760 O   0  0  0  0  0  1  0  0  0  0  0  0
  181.0390  179.0540  137.7330 O   0  0  0  0  0  0  0  0  0  0  0  0
  181.9470  179.8770  138.8980 P   0  0  0  0  0  0  0  0  0  0  0  0
  2  1  2  0  0  0  0
  2  3  1  0  0  0  0
  3  4  1  6  0  0  0
  3  5  1  0  0  0  0
  3  6  1  0  0  0  0
  6  7  1  6  0  0  0
  6  8  1  0  0  0  0
  8 10  1  0  0  0  0
  9 10  2  0  0  0  0
 11 14  1  0  0  0  0
 11 12  1  0  0  0  0
 13 17  1  6  0  0  0
 13 11  1  0  0  0  0
 14 12  1  0  0  0  0
 15 10  1  6  0  0  0
 15 13  1  0  0  0  0
 15 11  1  0  0  0  0
 16 17  2  0  0  0  0
 18 17  1  0  0  0  0
 19 21  1  0  0  0  0
 20 19  1  0  0  0  0
 20 21  1  0  0  0  0
 21 18  1  0  0  0  0
 22  2  1  0  0  0  0
 23 26  1  1  0  0  0
 23 25  1  0  0  0  0
 23 32  1  0  0  0  0
 24 28  1  0  0  0  0
 25 27  1  0  0  0  0
 26 24  1  0  0  0  0
 27 22  1  6  0  0  0
 28 27  1  0  0  0  0
 30 34  1  0  0  0  0
 31 37  1  6  0  0  0
 31 34  1  0  0  0  0
 32 29  1  6  0  0  0
 32 35  1  0  0  0  0
 32 33  1  0  0  0  0
 33 31  1  0  0  0  0
 35 30  1  0  0  0  0
 36 37  2  0  0  0  0
 39 41  1  0  0  0  0
 40 41  2  0  0  0  0
 41 37  1  0  0  0  0
 41 38  1  0  0  0  0
M  END
>  <MODEL>
1

>  <REMARK>
 VINA RESULT:      -7.8      0.000      0.000
  Name = 
  13 active torsions:
  status: ('A' for Active; 'I' for Inactive)
    1  A    between atoms: C_4  and  C_24
    2  A    between atoms: C_6  and  C_16
    3  A    between atoms: C_6  and  C_34
    4  A    between atoms: C_10  and  C_30
    5  A    between atoms: C_16  and  C_27
    6  A    between atoms: C_19  and  C_32
    7  A    between atoms: C_19  and  C_34
    8  A    between atoms: C_20  and  C_21
    9  A    between atoms: C_20  and  C_25
   10  A    between atoms: C_21  and  C_29
   11  A    between atoms: C_27  and  C_36
   12  A    between atoms: C_30  and  P_40
   13  A    between atoms: C_36  and  C_37
                            x       y       z     vdW  Elec       q    Type
                         _______ _______ _______ _____ _____    ______ ____

>  <TORSDO>
F 13

$$$$
=
 OpenBabel11062415183D

 41 45  0  0  1  0  0  0  0  0999 V2000
  188.9850  177.4630  140.2530 N   0  0  0  0  0  2  0  0  0  0  0  0
  190.1350  176.9700  140.5350 C   0  0  0  0  0  0  0  0  0  0  0  0
  190.5320  176.7890  141.9820 C   0  0  1  0  0  0  0  0  0  0  0  0
  190.4120  175.4500  142.3660 O   0  0  0  0  0  1  0  0  0  0  0  0
  191.8580  177.1630  142.1190 F   0  0  0  0  0  0  0  0  0  0  0  0
  189.6770  177.6770  142.8950 C   0  0  2  0  0  3  0  0  0  0  0  0
  190.4650  178.5110  143.6730 F   0  0  0  0  0  0  0  0  0  0  0  0
  188.6400  176.9150  143.7320 C   0  0  0  0  0  2  0  0  0  0  0  0
  186.8660  178.3460  142.8450 C   0  0  0  0  0  2  0  0  0  0  0  0
  187.3240  177.6280  143.8710 C   0  0  0  0  0  0  0  0  0  0  0  0
  186.2250  178.5620  145.9430 C   0  0  0  0  0  0  0  0  0  0  0  0
  185.3130  178.6040  147.1790 C   0  0  0  0  0  2  0  0  0  0  0  0
  187.0480  177.3430  146.4010 C   0  0  1  0  0  3  0  0  0  0  0  0
  184.6920  178.5870  145.8490 C   0  0  0  0  0  2  0  0  0  0  0  0
  186.4150  177.3270  145.0410 C   0  0  2  0  0  3  0  0  0  0  0  0
  188.9440  178.7770  146.2080 O   0  0  0  0  0  0  0  0  0  0  0  0
  188.5350  177.6540  146.4620 C   0  0  0  0  0  0  0  0  0  0  0  0
  189.5360  176.6150  146.8830 C   0  0  0  0  0  2  0  0  0  0  0  0
  191.8950  175.9880  147.2730 C   0  0  0  0  0  2  0  0  0  0  0  0
  191.7380  176.3090  145.8030 C   0  0  0  0  0  2  0  0  0  0  0  0
  190.9740  177.1090  146.8370 C   0  0  0  0  0  3  0  0  0  0  0  0
  191.1160  176.7330  139.4250 C   0  0  0  0  0  2  0  0  0  0  0  0
  189.7000  176.5590  135.8260 C   0  0  1  0  0  3  0  0  0  0  0  0
  190.5060  174.2600  136.5450 C   0  0  0  0  0  2  0  0  0  0  0  0
  190.3280  177.1510  137.1010 C   0  0  0  0  0  2  0  0  0  0  0  0
  190.4000  175.2600  135.3940 C   0  0  0  0  0  2  0  0  0  0  0  0
  190.4340  176.1130  138.2170 C   0  0  1  0  0  3  0  0  0  0  0  0
  191.2190  174.8990  137.7310 C   0  0  0  0  0  2  0  0  0  0  0  0
  187.5800  177.7610  135.1790 C   0  0  0  0  0  1  0  0  0  0  0  0
  186.6500  174.4340  135.5740 C   0  0  0  0  0  2  0  0  0  0  0  0
  186.3060  176.1880  137.2980 C   0  0  2  0  0  3  0  0  0  0  0  0
  188.1560  176.4910  135.8090 C   0  0  2  0  0  0  0  0  0  0  0  0
  187.7170  176.3510  137.1590 O   0  0  0  0  0  0  0  0  0  0  0  0
  185.6280  175.3510  136.2050 C   0  0  0  0  0  2  0  0  0  0  0  0
  187.7510  175.2770  134.9460 C   0  0  0  0  0  2  0  0  0  0  0  0
  186.3010  178.4740  137.8560 O   0  0  0  0  0  0  0  0  0  0  0  0
  185.6170  177.4850  137.6460 C   0  0  0  0  0  0  0  0  0  0  0  0
  183.4420  179.0750  138.5750 O   0  0  0  0  0  1  0  0  0  0  0  0
  183.1860  177.5810  136.4450 O   0  0  0  0  0  0  0  0  0  0  0  0
  183.2390  176.3280  138.7370 O   0  0  0  0  0  1  0  0  0  0  0  0
  183.8290  177.6150  137.8130 P   0  0  0  0  0  0  0  0  0  0  0  0
  1  2  2  0  0  0  0
  2  3  1  0  0  0  0
  3  5  1  1  0  0  0
  3  4  1  0  0  0  0
  3  6  1  0  0  0  0
  6  7  1  1  0  0  0
  6  8  1  0  0  0  0
  8 10  1  0  0  0  0
  9 10  2  0  0  0  0
 11 13  1  0  0  0  0
 11 12  1  0  0  0  0
 13 17  1  6  0  0  0
 14 11  1  0  0  0  0
 14 12  1  0  0  0  0
 15 10  1  6  0  0  0
 15 11  1  0  0  0  0
 15 13  1  0  0  0  0
 16 17  2  0  0  0  0
 17 18  1  0  0  0  0
 20 21  1  0  0  0  0
 20 19  1  0  0  0  0
 21 18  1  0  0  0  0
 21 19  1  0  0  0  0
 22  2  1  0  0  0  0
 23 26  1  1  0  0  0
 23 25  1  0  0  0  0
 24 28  1  0  0  0  0
 25 27  1  0  0  0  0
 26 24  1  0  0  0  0
 27 22  1  1  0  0  0
 28 27  1  0  0  0  0
 30 34  1  0  0  0  0
 31 37  1  6  0  0  0
 32 29  1  6  0  0  0
 32 23  1  0  0  0  0
 32 33  1  0  0  0  0
 33 31  1  0  0  0  0
 34 31  1  0  0  0  0
 35 30  1  0  0  0  0
 35 32  1  0  0  0  0
 37 41  1  0  0  0  0
 37 36  2  0  0  0  0
 39 41  2  0  0  0  0
 41 38  1  0  0  0  0
 41 40  1  0  0  0  0
M  END
>  <MODEL>
2

>  <REMARK>
 VINA RESULT:      -7.7      2.099      4.089
  Name = 
  13 active torsions:
  status: ('A' for Active; 'I' for Inactive)
    1  A    between atoms: C_4  and  C_24
    2  A    between atoms: C_6  and  C_16
    3  A    between atoms: C_6  and  C_34
    4  A    between atoms: C_10  and  C_30
    5  A    between atoms: C_16  and  C_27
    6  A    between atoms: C_19  and  C_32
    7  A    between atoms: C_19  and  C_34
    8  A    between atoms: C_20  and  C_21
    9  A    between atoms: C_20  and  C_25
   10  A    between atoms: C_21  and  C_29
   11  A    between atoms: C_27  and  C_36
   12  A    between atoms: C_30  and  P_40
   13  A    between atoms: C_36  and  C_37
                            x       y       z     vdW  Elec       q    Type
                         _______ _______ _______ _____ _____    ______ ____

>  <TORSDO>
F 13

$$$$
=
 OpenBabel11062415183D

 41 45  0  0  1  0  0  0  0  0999 V2000
  189.8740  175.6990  138.6360 N   0  0  0  0  0  2  0  0  0  0  0  0
  189.3860  176.8700  138.4430 C   0  0  0  0  0  0  0  0  0  0  0  0
  189.4480  177.8940  139.5530 C   0  0  1  0  0  0  0  0  0  0  0  0
  190.6710  177.8230  140.2270 O   0  0  0  0  0  1  0  0  0  0  0  0
  189.3350  179.1530  138.9890 F   0  0  0  0  0  0  0  0  0  0  0  0
  188.2900  177.6950  140.5400 C   0  0  2  0  0  3  0  0  0  0  0  0
  187.1600  178.3920  140.1420 F   0  0  0  0  0  0  0  0  0  0  0  0
  188.6520  177.9700  142.0060 C   0  0  0  0  0  2  0  0  0  0  0  0
  189.3850  175.8960  143.0760 C   0  0  0  0  0  2  0  0  0  0  0  0
  188.4180  176.8000  142.9220 C   0  0  0  0  0  0  0  0  0  0  0  0
  186.8530  178.2090  144.3140 C   0  0  0  0  0  0  0  0  0  0  0  0
  185.6520  178.5450  145.2110 C   0  0  0  0  0  2  0  0  0  0  0  0
  187.4780  177.1790  145.2740 C   0  0  1  0  0  3  0  0  0  0  0  0
  185.4000  178.1620  143.8160 C   0  0  0  0  0  2  0  0  0  0  0  0
  187.2230  176.7870  143.8490 C   0  0  2  0  0  3  0  0  0  0  0  0
  189.4380  178.5340  145.1650 O   0  0  0  0  0  0  0  0  0  0  0  0
  188.9080  177.5410  145.6420 C   0  0  0  0  0  0  0  0  0  0  0  0
  189.6920  176.7280  146.6330 C   0  0  0  0  0  2  0  0  0  0  0  0
  191.9280  175.8850  147.2640 C   0  0  0  0  0  2  0  0  0  0  0  0
  191.8910  176.0160  145.7580 C   0  0  0  0  0  2  0  0  0  0  0  0
  191.1810  177.0370  146.6240 C   0  0  0  0  0  3  0  0  0  0  0  0
  188.6290  177.1420  137.1760 C   0  0  0  0  0  2  0  0  0  0  0  0
  185.0530  176.2710  135.9780 C   0  0  1  0  0  3  0  0  0  0  0  0
  186.1200  174.2320  137.0500 C   0  0  0  0  0  2  0  0  0  0  0  0
  186.4100  176.9940  136.0600 C   0  0  0  0  0  2  0  0  0  0  0  0
  185.2210  174.7440  135.9260 C   0  0  0  0  0  2  0  0  0  0  0  0
  187.2830  176.4370  137.1830 C   0  0  1  0  0  3  0  0  0  0  0  0
  187.4710  174.9340  137.0030 C   0  0  0  0  0  2  0  0  0  0  0  0
  183.0360  177.7570  136.2710 C   0  0  0  0  0  1  0  0  0  0  0  0
  182.8870  175.4970  138.9100 C   0  0  0  0  0  2  0  0  0  0  0  0
  183.7670  177.8110  139.1080 C   0  0  2  0  0  3  0  0  0  0  0  0
  183.9700  176.7640  136.9660 C   0  0  2  0  0  0  0  0  0  0  0  0
  184.6390  177.3800  138.0650 O   0  0  0  0  0  0  0  0  0  0  0  0
  182.5680  176.8950  139.3870 C   0  0  0  0  0  2  0  0  0  0  0  0
  183.1500  175.5340  137.4100 C   0  0  0  0  0  2  0  0  0  0  0  0
  184.3770  180.0770  138.9360 O   0  0  0  0  0  0  0  0  0  0  0  0
  183.4530  179.2830  139.0120 C   0  0  0  0  0  0  0  0  0  0  0  0
  181.1220  179.6810  140.6020 O   0  0  0  0  0  1  0  0  0  0  0  0
  181.7720  181.3960  138.7390 O   0  0  0  0  0  1  0  0  0  0  0  0
  180.8140  179.1070  137.9210 O   0  0  0  0  0  0  0  0  0  0  0  0
  181.7680  179.9180  139.0570 P   0  0  0  0  0  0  0  0  0  0  0  0
  2  1  2  0  0  0  0
  2  3  1  0  0  0  0
  3  5  1  6  0  0  0
  3  4  1  0  0  0  0
  3  6  1  0  0  0  0
  6  7  1  6  0  0  0
  6  8  1  0  0  0  0
  8 10  1  0  0  0  0
 10  9  2  0  0  0  0
 11 12  1  0  0  0  0
 11 13  1  0  0  0  0
 13 17  1  6  0  0  0
 14 11  1  0  0  0  0
 14 12  1  0  0  0  0
 15 10  1  6  0  0  0
 15 11  1  0  0  0  0
 15 13  1  0  0  0  0
 16 17  2  0  0  0  0
 17 18  1  0  0  0  0
 20 21  1  0  0  0  0
 20 19  1  0  0  0  0
 21 18  1  0  0  0  0
 21 19  1  0  0  0  0
 22  2  1  0  0  0  0
 23 26  1  1  0  0  0
 23 25  1  0  0  0  0
 23 32  1  0  0  0  0
 25 27  1  0  0  0  0
 26 24  1  0  0  0  0
 27 22  1  6  0  0  0
 28 24  1  0  0  0  0
 28 27  1  0  0  0  0
 30 34  1  0  0  0  0
 31 37  1  6  0  0  0
 31 34  1  0  0  0  0
 32 29  1  6  0  0  0
 32 35  1  0  0  0  0
 32 33  1  0  0  0  0
 33 31  1  0  0  0  0
 35 30  1  0  0  0  0
 36 37  2  0  0  0  0
 37 41  1  0  0  0  0
 39 41  1  0  0  0  0
 40 41  2  0  0  0  0
 41 38  1  0  0  0  0
M  END
>  <MODEL>
3

>  <REMARK>
 VINA RESULT:      -7.6      1.214      2.921
  Name = 
  13 active torsions:
  status: ('A' for Active; 'I' for Inactive)
    1  A    between atoms: C_4  and  C_24
    2  A    between atoms: C_6  and  C_16
    3  A    between atoms: C_6  and  C_34
    4  A    between atoms: C_10  and  C_30
    5  A    between atoms: C_16  and  C_27
    6  A    between atoms: C_19  and  C_32
    7  A    between atoms: C_19  and  C_34
    8  A    between atoms: C_20  and  C_21
    9  A    between atoms: C_20  and  C_25
   10  A    between atoms: C_21  and  C_29
   11  A    between atoms: C_27  and  C_36
   12  A    between atoms: C_30  and  P_40
   13  A    between atoms: C_36  and  C_37
                            x       y       z     vdW  Elec       q    Type
                         _______ _______ _______ _____ _____    ______ ____

>  <TORSDO>
F 13

$$$$
=
 OpenBabel11062415183D

 41 45  0  0  1  0  0  0  0  0999 V2000
  184.9460  179.3940  139.8840 N   0  0  0  0  0  2  0  0  0  0  0  0
  184.6380  178.8450  141.0020 C   0  0  0  0  0  0  0  0  0  0  0  0
  185.5910  178.9490  142.1700 C   0  0  1  0  0  0  0  0  0  0  0  0
  186.9180  178.8630  141.7380 O   0  0  0  0  0  1  0  0  0  0  0  0
  185.4090  180.1840  142.7690 F   0  0  0  0  0  0  0  0  0  0  0  0
  185.3020  177.8560  143.2060 C   0  0  2  0  0  3  0  0  0  0  0  0
  184.2890  178.2340  144.0720 F   0  0  0  0  0  0  0  0  0  0  0  0
  186.5420  177.3470  143.9540 C   0  0  0  0  0  2  0  0  0  0  0  0
  185.9690  178.9860  145.6760 C   0  0  0  0  0  2  0  0  0  0  0  0
  186.7150  177.9380  145.3260 C   0  0  0  0  0  0  0  0  0  0  0  0
  188.4950  178.1500  147.1020 C   0  0  0  0  0  0  0  0  0  0  0  0
  189.4100  177.7290  148.2630 C   0  0  0  0  0  2  0  0  0  0  0  0
  188.9910  177.0740  146.1180 C   0  0  1  0  0  3  0  0  0  0  0  0
  187.9700  177.8560  148.5160 C   0  0  0  0  0  2  0  0  0  0  0  0
  187.5200  177.2050  146.3740 C   0  0  2  0  0  3  0  0  0  0  0  0
  189.8360  178.8650  144.7880 O   0  0  0  0  0  0  0  0  0  0  0  0
  189.5200  177.6850  144.8300 C   0  0  0  0  0  0  0  0  0  0  0  0
  189.7200  176.8550  143.5930 C   0  0  0  0  0  2  0  0  0  0  0  0
  191.5400  177.3250  141.9880 C   0  0  0  0  0  2  0  0  0  0  0  0
  190.3820  176.7360  141.2150 C   0  0  0  0  0  2  0  0  0  0  0  0
  190.1170  177.6740  142.3750 C   0  0  0  0  0  3  0  0  0  0  0  0
  183.4130  177.9800  141.0730 C   0  0  0  0  0  2  0  0  0  0  0  0
  180.3820  178.7430  138.7900 C   0  0  1  0  0  3  0  0  0  0  0  0
  179.8930  179.5230  141.1570 C   0  0  0  0  0  2  0  0  0  0  0  0
  181.6640  178.0640  139.3050 C   0  0  0  0  0  2  0  0  0  0  0  0
  179.3220  178.8770  139.8960 C   0  0  0  0  0  2  0  0  0  0  0  0
  182.1880  178.7290  140.5770 C   0  0  1  0  0  3  0  0  0  0  0  0
  181.1020  178.7370  141.6480 C   0  0  0  0  0  2  0  0  0  0  0  0
  181.6260  180.9300  138.6180 C   0  0  0  0  0  1  0  0  0  0  0  0
  180.4540  180.3000  135.4060 C   0  0  0  0  0  2  0  0  0  0  0  0
  179.3520  181.8410  137.0110 C   0  0  2  0  0  3  0  0  0  0  0  0
  180.5930  180.0220  137.9470 C   0  0  2  0  0  0  0  0  0  0  0  0
  179.3330  180.6810  137.8400 O   0  0  0  0  0  0  0  0  0  0  0  0
  180.2510  181.7530  135.7710 C   0  0  0  0  0  2  0  0  0  0  0  0
  181.1320  179.5880  136.5680 C   0  0  0  0  0  2  0  0  0  0  0  0
  179.0600  183.1220  138.9640 O   0  0  0  0  0  0  0  0  0  0  0  0
  179.4770  183.1110  137.8170 C   0  0  0  0  0  0  0  0  0  0  0  0
  179.5550  184.8730  135.5790 O   0  0  0  0  0  0  0  0  0  0  0  0
  179.7990  185.7980  138.0120 O   0  0  0  0  0  1  0  0  0  0  0  0
  181.8570  184.5050  137.0550 O   0  0  0  0  0  1  0  0  0  0  0  0
  180.1720  184.6260  137.1340 P   0  0  0  0  0  0  0  0  0  0  0  0
  1  2  2  0  0  0  0
  2 22  1  0  0  0  0
  2  3  1  0  0  0  0
  3  4  1  6  0  0  0
  3  5  1  0  0  0  0
  3  6  1  0  0  0  0
  6  8  1  0  0  0  0
  6  7  1  1  0  0  0
  8 10  1  0  0  0  0
 10  9  2  0  0  0  0
 11 12  1  0  0  0  0
 11 14  1  0  0  0  0
 12 14  1  0  0  0  0
 13 17  1  6  0  0  0
 13 15  1  0  0  0  0
 13 11  1  0  0  0  0
 15 10  1  6  0  0  0
 15 11  1  0  0  0  0
 16 17  2  0  0  0  0
 18 17  1  0  0  0  0
 19 21  1  0  0  0  0
 20 19  1  0  0  0  0
 20 21  1  0  0  0  0
 21 18  1  0  0  0  0
 23 25  1  1  0  0  0
 23 26  1  0  0  0  0
 24 28  1  0  0  0  0
 25 27  1  0  0  0  0
 26 24  1  0  0  0  0
 27 22  1  1  0  0  0
 27 28  1  0  0  0  0
 30 34  1  0  0  0  0
 30 35  1  0  0  0  0
 31 37  1  1  0  0  0
 31 33  1  0  0  0  0
 32 29  1  1  0  0  0
 32 23  1  0  0  0  0
 33 32  1  0  0  0  0
 34 31  1  0  0  0  0
 35 32  1  0  0  0  0
 37 36  2  0  0  0  0
 38 41  2  0  0  0  0
 40 41  1  0  0  0  0
 41 37  1  0  0  0  0
 41 39  1  0  0  0  0
M  END
>  <MODEL>
4

>  <REMARK>
 VINA RESULT:      -7.6      3.467      5.564
  Name = 
  13 active torsions:
  status: ('A' for Active; 'I' for Inactive)
    1  A    between atoms: C_4  and  C_24
    2  A    between atoms: C_6  and  C_16
    3  A    between atoms: C_6  and  C_34
    4  A    between atoms: C_10  and  C_30
    5  A    between atoms: C_16  and  C_27
    6  A    between atoms: C_19  and  C_32
    7  A    between atoms: C_19  and  C_34
    8  A    between atoms: C_20  and  C_21
    9  A    between atoms: C_20  and  C_25
   10  A    between atoms: C_21  and  C_29
   11  A    between atoms: C_27  and  C_36
   12  A    between atoms: C_30  and  P_40
   13  A    between atoms: C_36  and  C_37
                            x       y       z     vdW  Elec       q    Type
                         _______ _______ _______ _____ _____    ______ ____

>  <TORSDO>
F 13

$$$$
=
 OpenBabel11062415183D

 41 45  0  0  1  0  0  0  0  0999 V2000
  188.1270  178.3490  141.0180 N   0  0  0  0  0  2  0  0  0  0  0  0
  189.1160  178.0510  140.2570 C   0  0  0  0  0  0  0  0  0  0  0  0
  190.3090  177.3290  140.8370 C   0  0  1  0  0  0  0  0  0  0  0  0
  190.1540  175.9440  140.7280 O   0  0  0  0  0  1  0  0  0  0  0  0
  191.4320  177.6980  140.1160 F   0  0  0  0  0  0  0  0  0  0  0  0
  190.5210  177.7220  142.3050 C   0  0  2  0  0  3  0  0  0  0  0  0
  191.8670  177.8570  142.6040 F   0  0  0  0  0  0  0  0  0  0  0  0
  189.7920  176.8230  143.3130 C   0  0  0  0  0  2  0  0  0  0  0  0
  189.6310  178.7360  144.8270 C   0  0  0  0  0  2  0  0  0  0  0  0
  189.1150  177.5750  144.4250 C   0  0  0  0  0  0  0  0  0  0  0  0
  187.0540  178.2840  145.6990 C   0  0  0  0  0  0  0  0  0  0  0  0
  185.6270  178.2040  146.2630 C   0  0  0  0  0  2  0  0  0  0  0  0
  187.5600  176.9960  146.3750 C   0  0  1  0  0  3  0  0  0  0  0  0
  185.8010  178.3650  144.8130 C   0  0  0  0  0  2  0  0  0  0  0  0
  187.7390  177.1610  144.8960 C   0  0  2  0  0  3  0  0  0  0  0  0
  188.8920  178.3080  147.8560 O   0  0  0  0  0  0  0  0  0  0  0  0
  188.7780  177.2550  147.2470 C   0  0  0  0  0  0  0  0  0  0  0  0
  189.8460  176.2130  147.4290 C   0  0  0  0  0  2  0  0  0  0  0  0
  192.2470  175.6670  147.6470 C   0  0  0  0  0  2  0  0  0  0  0  0
  192.0020  176.1170  146.2240 C   0  0  0  0  0  2  0  0  0  0  0  0
  191.2570  176.7790  147.3650 C   0  0  0  0  0  3  0  0  0  0  0  0
  189.1280  178.5650  138.8470 C   0  0  0  0  0  2  0  0  0  0  0  0
  187.0720  177.4360  135.7680 C   0  0  1  0  0  3  0  0  0  0  0  0
  188.7350  175.6250  136.4020 C   0  0  0  0  0  2  0  0  0  0  0  0
  187.7400  178.3730  136.7900 C   0  0  0  0  0  2  0  0  0  0  0  0
  188.0450  176.3620  135.2550 C   0  0  0  0  0  2  0  0  0  0  0  0
  188.4340  177.5950  137.9060 C   0  0  1  0  0  3  0  0  0  0  0  0
  189.4450  176.6190  137.3120 C   0  0  0  0  0  2  0  0  0  0  0  0
  184.6160  177.4270  135.1930 C   0  0  0  0  0  1  0  0  0  0  0  0
  185.0740  174.6620  137.2510 C   0  0  0  0  0  2  0  0  0  0  0  0
  184.1830  176.8440  138.0320 C   0  0  2  0  0  3  0  0  0  0  0  0
  185.6760  176.9000  136.1630 C   0  0  2  0  0  0  0  0  0  0  0  0
  185.4080  177.3370  137.4930 O   0  0  0  0  0  0  0  0  0  0  0  0
  183.8170  175.4080  137.6340 C   0  0  0  0  0  2  0  0  0  0  0  0
  185.7220  175.3600  136.0630 C   0  0  0  0  0  2  0  0  0  0  0  0
  182.1900  177.6700  137.0920 O   0  0  0  0  0  0  0  0  0  0  0  0
  183.0670  177.8550  137.9200 C   0  0  0  0  0  0  0  0  0  0  0  0
  182.0200  180.4930  138.1710 O   0  0  0  0  0  0  0  0  0  0  0  0
  182.4470  179.0220  140.2890 O   0  0  0  0  0  1  0  0  0  0  0  0
  184.5660  179.9850  139.1040 O   0  0  0  0  0  1  0  0  0  0  0  0
  183.0100  179.3480  138.9250 P   0  0  0  0  0  0  0  0  0  0  0  0
  2  3  1  0  0  0  0
  2  1  2  0  0  0  0
  3  5  1  6  0  0  0
  3  6  1  0  0  0  0
  4  3  1  0  0  0  0
  6  7  1  1  0  0  0
  6  8  1  0  0  0  0
  8 10  1  0  0  0  0
 10  9  2  0  0  0  0
 11 12  1  0  0  0  0
 11 13  1  0  0  0  0
 13 17  1  1  0  0  0
 14 11  1  0  0  0  0
 14 12  1  0  0  0  0
 15 10  1  1  0  0  0
 15 11  1  0  0  0  0
 15 13  1  0  0  0  0
 17 18  1  0  0  0  0
 17 16  2  0  0  0  0
 20 21  1  0  0  0  0
 20 19  1  0  0  0  0
 21 18  1  0  0  0  0
 21 19  1  0  0  0  0
 22  2  1  0  0  0  0
 23 26  1  1  0  0  0
 23 32  1  0  0  0  0
 23 25  1  0  0  0  0
 24 28  1  0  0  0  0
 25 27  1  0  0  0  0
 26 24  1  0  0  0  0
 27 22  1  1  0  0  0
 28 27  1  0  0  0  0
 30 34  1  0  0  0  0
 31 37  1  6  0  0  0
 32 29  1  6  0  0  0
 32 33  1  0  0  0  0
 33 31  1  0  0  0  0
 34 31  1  0  0  0  0
 35 32  1  0  0  0  0
 35 30  1  0  0  0  0
 36 37  2  0  0  0  0
 37 41  1  0  0  0  0
 38 41  2  0  0  0  0
 41 40  1  0  0  0  0
 41 39  1  0  0  0  0
M  END
>  <MODEL>
5

>  <REMARK>
 VINA RESULT:      -7.5      1.557      3.470
  Name = 
  13 active torsions:
  status: ('A' for Active; 'I' for Inactive)
    1  A    between atoms: C_4  and  C_24
    2  A    between atoms: C_6  and  C_16
    3  A    between atoms: C_6  and  C_34
    4  A    between atoms: C_10  and  C_30
    5  A    between atoms: C_16  and  C_27
    6  A    between atoms: C_19  and  C_32
    7  A    between atoms: C_19  and  C_34
    8  A    between atoms: C_20  and  C_21
    9  A    between atoms: C_20  and  C_25
   10  A    between atoms: C_21  and  C_29
   11  A    between atoms: C_27  and  C_36
   12  A    between atoms: C_30  and  P_40
   13  A    between atoms: C_36  and  C_37
                            x       y       z     vdW  Elec       q    Type
                         _______ _______ _______ _____ _____    ______ ____

>  <TORSDO>
F 13

$$$$
=
 OpenBabel11062415183D

 41 45  0  0  1  0  0  0  0  0999 V2000
  190.2210  175.9880  139.3850 N   0  0  0  0  0  2  0  0  0  0  0  0
  189.8520  176.9320  140.1720 C   0  0  0  0  0  0  0  0  0  0  0  0
  190.3140  176.9240  141.6110 C   0  0  1  0  0  0  0  0  0  0  0  0
  190.3730  175.6190  142.1070 O   0  0  0  0  0  1  0  0  0  0  0  0
  191.5870  177.4650  141.6610 F   0  0  0  0  0  0  0  0  0  0  0  0
  189.3860  177.7790  142.4840 C   0  0  2  0  0  3  0  0  0  0  0  0
  190.1070  178.6160  143.3200 F   0  0  0  0  0  0  0  0  0  0  0  0
  188.3180  176.9810  143.2450 C   0  0  0  0  0  2  0  0  0  0  0  0
  186.5920  178.6000  142.6290 C   0  0  0  0  0  2  0  0  0  0  0  0
  187.0720  177.7640  143.5500 C   0  0  0  0  0  0  0  0  0  0  0  0
  186.0960  178.6210  145.7140 C   0  0  0  0  0  0  0  0  0  0  0  0
  185.2590  178.6180  147.0030 C   0  0  0  0  0  2  0  0  0  0  0  0
  186.9460  177.3900  146.0800 C   0  0  1  0  0  3  0  0  0  0  0  0
  184.5600  178.6460  145.7120 C   0  0  0  0  0  2  0  0  0  0  0  0
  186.2340  177.4190  144.7600 C   0  0  2  0  0  3  0  0  0  0  0  0
  188.8250  178.8450  145.8810 O   0  0  0  0  0  0  0  0  0  0  0  0
  188.4340  177.7020  146.0640 C   0  0  0  0  0  0  0  0  0  0  0  0
  189.4610  176.6370  146.3230 C   0  0  0  0  0  2  0  0  0  0  0  0
  191.8290  176.0390  146.7040 C   0  0  0  0  0  2  0  0  0  0  0  0
  191.6740  176.4090  145.2460 C   0  0  0  0  0  2  0  0  0  0  0  0
  190.8900  177.1580  146.3040 C   0  0  0  0  0  3  0  0  0  0  0  0
  188.8460  177.9320  139.6840 C   0  0  0  0  0  2  0  0  0  0  0  0
  186.2840  177.5620  136.8060 C   0  0  1  0  0  3  0  0  0  0  0  0
  188.6020  177.9560  135.8480 C   0  0  0  0  0  2  0  0  0  0  0  0
  186.8420  177.8560  138.2110 C   0  0  0  0  0  2  0  0  0  0  0  0
  187.1100  178.2520  135.7080 C   0  0  0  0  0  2  0  0  0  0  0  0
  188.3390  177.5660  138.3000 C   0  0  1  0  0  3  0  0  0  0  0  0
  189.0890  178.3580  137.2340 C   0  0  0  0  0  2  0  0  0  0  0  0
  185.2340  175.9600  135.1660 C   0  0  0  0  0  1  0  0  0  0  0  0
  187.2220  173.9800  137.2190 C   0  0  0  0  0  2  0  0  0  0  0  0
  184.7670  174.2380  137.4900 C   0  0  2  0  0  3  0  0  0  0  0  0
  185.9400  176.0830  136.5180 C   0  0  2  0  0  0  0  0  0  0  0  0
  185.0990  175.6220  137.5730 O   0  0  0  0  0  0  0  0  0  0  0  0
  185.8840  173.3200  136.9770 C   0  0  0  0  0  2  0  0  0  0  0  0
  187.2680  175.2980  136.4590 C   0  0  0  0  0  2  0  0  0  0  0  0
  183.3240  173.3170  135.8750 O   0  0  0  0  0  0  0  0  0  0  0  0
  183.4080  174.0170  136.8710 C   0  0  0  0  0  0  0  0  0  0  0  0
  182.2930  175.6570  138.9180 O   0  0  0  0  0  1  0  0  0  0  0  0
  181.3440  175.7360  136.4830 O   0  0  0  0  0  0  0  0  0  0  0  0
  180.7630  173.6080  137.8820 O   0  0  0  0  0  1  0  0  0  0  0  0
  181.9140  174.7900  137.5160 P   0  0  0  0  0  0  0  0  0  0  0  0
  1  2  2  0  0  0  0
  2  3  1  0  0  0  0
  3  5  1  1  0  0  0
  3  4  1  0  0  0  0
  3  6  1  0  0  0  0
  6  8  1  0  0  0  0
  6  7  1  1  0  0  0
  8 10  1  0  0  0  0
  9 10  2  0  0  0  0
 11 13  1  0  0  0  0
 11 12  1  0  0  0  0
 13 17  1  6  0  0  0
 14 11  1  0  0  0  0
 14 12  1  0  0  0  0
 15 10  1  6  0  0  0
 15 11  1  0  0  0  0
 15 13  1  0  0  0  0
 16 17  2  0  0  0  0
 17 18  1  0  0  0  0
 20 21  1  0  0  0  0
 20 19  1  0  0  0  0
 21 18  1  0  0  0  0
 21 19  1  0  0  0  0
 22  2  1  0  0  0  0
 23 26  1  6  0  0  0
 23 25  1  0  0  0  0
 24 28  1  0  0  0  0
 25 27  1  0  0  0  0
 26 24  1  0  0  0  0
 27 22  1  1  0  0  0
 28 27  1  0  0  0  0
 31 37  1  6  0  0  0
 31 33  1  0  0  0  0
 32 29  1  6  0  0  0
 32 23  1  0  0  0  0
 32 33  1  0  0  0  0
 34 30  1  0  0  0  0
 34 31  1  0  0  0  0
 35 32  1  0  0  0  0
 35 30  1  0  0  0  0
 36 37  2  0  0  0  0
 37 41  1  0  0  0  0
 39 41  2  0  0  0  0
 41 40  1  0  0  0  0
 41 38  1  0  0  0  0
M  END
>  <MODEL>
6

>  <REMARK>
 VINA RESULT:      -7.5      2.484      4.241
  Name = 
  13 active torsions:
  status: ('A' for Active; 'I' for Inactive)
    1  A    between atoms: C_4  and  C_24
    2  A    between atoms: C_6  and  C_16
    3  A    between atoms: C_6  and  C_34
    4  A    between atoms: C_10  and  C_30
    5  A    between atoms: C_16  and  C_27
    6  A    between atoms: C_19  and  C_32
    7  A    between atoms: C_19  and  C_34
    8  A    between atoms: C_20  and  C_21
    9  A    between atoms: C_20  and  C_25
   10  A    between atoms: C_21  and  C_29
   11  A    between atoms: C_27  and  C_36
   12  A    between atoms: C_30  and  P_40
   13  A    between atoms: C_36  and  C_37
                            x       y       z     vdW  Elec       q    Type
                         _______ _______ _______ _____ _____    ______ ____

>  <TORSDO>
F 13

$$$$
=
 OpenBabel11062415183D

 41 45  0  0  1  0  0  0  0  0999 V2000
  185.0930  179.3580  140.8730 N   0  0  0  0  0  2  0  0  0  0  0  0
  184.3720  178.7110  141.7140 C   0  0  0  0  0  0  0  0  0  0  0  0
  184.6710  178.8210  143.1910 C   0  0  1  0  0  0  0  0  0  0  0  0
  184.6460  180.1570  143.6040 O   0  0  0  0  0  1  0  0  0  0  0  0
  183.6910  178.1330  143.8850 F   0  0  0  0  0  0  0  0  0  0  0  0
  186.0330  178.1940  143.5170 C   0  0  2  0  0  3  0  0  0  0  0  0
  186.5540  177.5190  142.4260 F   0  0  0  0  0  0  0  0  0  0  0  0
  186.0470  177.3360  144.7900 C   0  0  0  0  0  2  0  0  0  0  0  0
  186.0470  179.2200  146.3500 C   0  0  0  0  0  2  0  0  0  0  0  0
  186.5800  178.0480  146.0020 C   0  0  0  0  0  0  0  0  0  0  0  0
  188.6340  178.2660  147.4520 C   0  0  0  0  0  0  0  0  0  0  0  0
  189.7070  177.8650  148.4770 C   0  0  0  0  0  2  0  0  0  0  0  0
  188.9150  177.1100  146.4750 C   0  0  1  0  0  3  0  0  0  0  0  0
  188.3340  178.0840  148.9480 C   0  0  0  0  0  2  0  0  0  0  0  0
  187.5120  177.3340  146.9550 C   0  0  2  0  0  3  0  0  0  0  0  0
  189.5580  178.7850  144.9030 O   0  0  0  0  0  0  0  0  0  0  0  0
  189.2530  177.6150  145.0810 C   0  0  0  0  0  0  0  0  0  0  0  0
  189.2750  176.6900  143.8970 C   0  0  0  0  0  2  0  0  0  0  0  0
  190.5680  176.3800  141.8130 C   0  0  0  0  0  2  0  0  0  0  0  0
  191.0290  177.6690  142.4570 C   0  0  0  0  0  2  0  0  0  0  0  0
  190.6670  176.4790  143.3220 C   0  0  0  0  0  3  0  0  0  0  0  0
  183.3510  177.7400  141.1980 C   0  0  0  0  0  2  0  0  0  0  0  0
  182.9600  176.2540  137.6450 C   0  0  1  0  0  3  0  0  0  0  0  0
  182.2470  178.6910  137.6400 C   0  0  0  0  0  2  0  0  0  0  0  0
  183.0620  176.3120  139.1800 C   0  0  0  0  0  2  0  0  0  0  0  0
  181.9650  177.2910  137.0990 C   0  0  0  0  0  2  0  0  0  0  0  0
  183.3230  177.7320  139.6790 C   0  0  1  0  0  3  0  0  0  0  0  0
  182.2410  178.6750  139.1640 C   0  0  0  0  0  2  0  0  0  0  0  0
  185.0370  174.8910  137.2120 C   0  0  0  0  0  1  0  0  0  0  0  0
  184.8910  177.1740  134.5940 C   0  0  0  0  0  2  0  0  0  0  0  0
  186.3220  177.4530  136.6040 C   0  0  2  0  0  3  0  0  0  0  0  0
  184.3060  176.1950  136.8860 C   0  0  2  0  0  0  0  0  0  0  0  0
  185.0780  177.3240  137.2900 O   0  0  0  0  0  0  0  0  0  0  0  0
  186.3020  177.0590  135.1210 C   0  0  0  0  0  2  0  0  0  0  0  0
  183.9920  176.2260  135.3750 C   0  0  0  0  0  2  0  0  0  0  0  0
  187.6090  175.6910  137.4850 O   0  0  0  0  0  0  0  0  0  0  0  0
  187.4730  176.9020  137.4090 C   0  0  0  0  0  0  0  0  0  0  0  0
  188.1150  178.1060  139.9110 O   0  0  0  0  0  1  0  0  0  0  0  0
  190.0060  177.3530  138.2710 O   0  0  0  0  0  1  0  0  0  0  0  0
  188.6710  179.4940  137.5920 O   0  0  0  0  0  0  0  0  0  0  0  0
  188.6220  177.9610  138.3040 P   0  0  0  0  0  0  0  0  0  0  0  0
  1  2  2  0  0  0  0
  2  3  1  0  0  0  0
  3  6  1  0  0  0  0
  3  4  1  1  0  0  0
  3  5  1  0  0  0  0
  6  7  1  6  0  0  0
  6  8  1  0  0  0  0
  8 10  1  0  0  0  0
 10  9  2  0  0  0  0
 11 12  1  0  0  0  0
 11 14  1  0  0  0  0
 12 14  1  0  0  0  0
 13 17  1  6  0  0  0
 13 15  1  0  0  0  0
 13 11  1  0  0  0  0
 15 10  1  6  0  0  0
 15 11  1  0  0  0  0
 16 17  2  0  0  0  0
 18 17  1  0  0  0  0
 19 20  1  0  0  0  0
 19 21  1  0  0  0  0
 20 21  1  0  0  0  0
 21 18  1  0  0  0  0
 22  2  1  0  0  0  0
 23 26  1  6  0  0  0
 23 25  1  0  0  0  0
 24 28  1  0  0  0  0
 25 27  1  0  0  0  0
 26 24  1  0  0  0  0
 27 22  1  1  0  0  0
 28 27  1  0  0  0  0
 30 34  1  0  0  0  0
 30 35  1  0  0  0  0
 31 33  1  0  0  0  0
 31 37  1  1  0  0  0
 32 29  1  1  0  0  0
 32 33  1  0  0  0  0
 32 23  1  0  0  0  0
 34 31  1  0  0  0  0
 35 32  1  0  0  0  0
 37 36  2  0  0  0  0
 37 41  1  0  0  0  0
 39 41  1  0  0  0  0
 40 41  2  0  0  0  0
 41 38  1  0  0  0  0
M  END
>  <MODEL>
7

>  <REMARK>
 VINA RESULT:      -7.4      2.421      5.135
  Name = 
  13 active torsions:
  status: ('A' for Active; 'I' for Inactive)
    1  A    between atoms: C_4  and  C_24
    2  A    between atoms: C_6  and  C_16
    3  A    between atoms: C_6  and  C_34
    4  A    between atoms: C_10  and  C_30
    5  A    between atoms: C_16  and  C_27
    6  A    between atoms: C_19  and  C_32
    7  A    between atoms: C_19  and  C_34
    8  A    between atoms: C_20  and  C_21
    9  A    between atoms: C_20  and  C_25
   10  A    between atoms: C_21  and  C_29
   11  A    between atoms: C_27  and  C_36
   12  A    between atoms: C_30  and  P_40
   13  A    between atoms: C_36  and  C_37
                            x       y       z     vdW  Elec       q    Type
                         _______ _______ _______ _____ _____    ______ ____

>  <TORSDO>
F 13

$$$$
=
 OpenBabel11062415183D

 41 45  0  0  1  0  0  0  0  0999 V2000
  188.6070  178.7510  138.6180 N   0  0  0  0  0  2  0  0  0  0  0  0
  189.3240  178.0250  139.3960 C   0  0  0  0  0  0  0  0  0  0  0  0
  188.9200  177.8610  140.8420 C   0  0  1  0  0  0  0  0  0  0  0  0
  188.2060  178.9770  141.2880 O   0  0  0  0  0  1  0  0  0  0  0  0
  188.0980  176.7520  140.9410 F   0  0  0  0  0  0  0  0  0  0  0  0
  190.1530  177.6360  141.7280 C   0  0  2  0  0  3  0  0  0  0  0  0
  190.3510  176.2890  141.9870 F   0  0  0  0  0  0  0  0  0  0  0  0
  190.1760  178.4810  143.0090 C   0  0  0  0  0  2  0  0  0  0  0  0
  191.1500  176.6750  144.3400 C   0  0  0  0  0  2  0  0  0  0  0  0
  190.2680  177.6720  144.2730 C   0  0  0  0  0  0  0  0  0  0  0  0
  189.0270  176.9560  146.3510 C   0  0  0  0  0  0  0  0  0  0  0  0
  188.3210  177.0900  147.7090 C   0  0  0  0  0  2  0  0  0  0  0  0
  188.0880  177.9140  145.5940 C   0  0  1  0  0  3  0  0  0  0  0  0
  189.7710  177.3130  147.6470 C   0  0  0  0  0  2  0  0  0  0  0  0
  189.5690  178.1410  145.5290 C   0  0  2  0  0  3  0  0  0  0  0  0
  187.8530  176.1660  143.9900 O   0  0  0  0  0  0  0  0  0  0  0  0
  187.4430  177.2440  144.3920 C   0  0  0  0  0  0  0  0  0  0  0  0
  186.2570  177.8530  143.6980 C   0  0  0  0  0  2  0  0  0  0  0  0
  184.5910  179.6780  143.6380 C   0  0  0  0  0  2  0  0  0  0  0  0
  184.0740  178.6090  144.5750 C   0  0  0  0  0  2  0  0  0  0  0  0
  185.5560  178.9190  144.5260 C   0  0  0  0  0  3  0  0  0  0  0  0
  190.6280  177.4850  138.8860 C   0  0  0  0  0  2  0  0  0  0  0  0
  189.7950  175.3730  135.7500 C   0  0  1  0  0  3  0  0  0  0  0  0
  191.4630  174.1290  137.2060 C   0  0  0  0  0  2  0  0  0  0  0  0
  189.9670  176.6100  136.6520 C   0  0  0  0  0  2  0  0  0  0  0  0
  191.0370  174.4680  135.7780 C   0  0  0  0  0  2  0  0  0  0  0  0
  190.4130  176.2260  138.0620 C   0  0  1  0  0  3  0  0  0  0  0  0
  191.6990  175.4080  138.0000 C   0  0  0  0  0  2  0  0  0  0  0  0
  187.6470  174.7310  134.5950 C   0  0  0  0  0  1  0  0  0  0  0  0
  187.9290  172.5290  137.2710 C   0  0  0  0  0  2  0  0  0  0  0  0
  186.5080  174.5660  137.2900 C   0  0  2  0  0  3  0  0  0  0  0  0
  188.4510  174.6230  135.8930 C   0  0  2  0  0  0  0  0  0  0  0  0
  187.7410  175.2140  136.9790 O   0  0  0  0  0  0  0  0  0  0  0  0
  186.5120  173.0380  137.1480 C   0  0  0  0  0  2  0  0  0  0  0  0
  188.7720  173.1370  136.1580 C   0  0  0  0  0  2  0  0  0  0  0  0
  184.4610  174.6080  136.1300 O   0  0  0  0  0  0  0  0  0  0  0  0
  185.3260  175.2740  136.6760 C   0  0  0  0  0  0  0  0  0  0  0  0
  185.1300  177.6300  138.2680 O   0  0  0  0  0  1  0  0  0  0  0  0
  186.3470  177.6830  135.9550 O   0  0  0  0  0  1  0  0  0  0  0  0
  183.7400  177.5220  135.8870 O   0  0  0  0  0  0  0  0  0  0  0  0
  185.1670  177.0690  136.6730 P   0  0  0  0  0  0  0  0  0  0  0  0
  1  2  2  0  0  0  0
  2  3  1  0  0  0  0
  3  5  1  1  0  0  0
  3  4  1  0  0  0  0
  3  6  1  0  0  0  0
  6  7  1  1  0  0  0
  6  8  1  0  0  0  0
  8 10  1  0  0  0  0
 10  9  2  0  0  0  0
 11 14  1  0  0  0  0
 11 12  1  0  0  0  0
 13 17  1  6  0  0  0
 13 11  1  0  0  0  0
 14 12  1  0  0  0  0
 15 10  1  6  0  0  0
 15 13  1  0  0  0  0
 15 11  1  0  0  0  0
 16 17  2  0  0  0  0
 18 17  1  0  0  0  0
 18 21  1  0  0  0  0
 19 21  1  0  0  0  0
 19 20  1  0  0  0  0
 21 20  1  0  0  0  0
 22  2  1  0  0  0  0
 23 26  1  1  0  0  0
 23 32  1  0  0  0  0
 23 25  1  0  0  0  0
 24 28  1  0  0  0  0
 25 27  1  0  0  0  0
 26 24  1  0  0  0  0
 27 22  1  1  0  0  0
 28 27  1  0  0  0  0
 31 37  1  6  0  0  0
 32 29  1  6  0  0  0
 32 35  1  0  0  0  0
 32 33  1  0  0  0  0
 33 31  1  0  0  0  0
 34 30  1  0  0  0  0
 34 31  1  0  0  0  0
 35 30  1  0  0  0  0
 36 37  2  0  0  0  0
 39 41  1  0  0  0  0
 40 41  2  0  0  0  0
 41 37  1  0  0  0  0
 41 38  1  0  0  0  0
M  END
>  <MODEL>
8

>  <REMARK>
 VINA RESULT:      -7.4      2.336      3.569
  Name = 
  13 active torsions:
  status: ('A' for Active; 'I' for Inactive)
    1  A    between atoms: C_4  and  C_24
    2  A    between atoms: C_6  and  C_16
    3  A    between atoms: C_6  and  C_34
    4  A    between atoms: C_10  and  C_30
    5  A    between atoms: C_16  and  C_27
    6  A    between atoms: C_19  and  C_32
    7  A    between atoms: C_19  and  C_34
    8  A    between atoms: C_20  and  C_21
    9  A    between atoms: C_20  and  C_25
   10  A    between atoms: C_21  and  C_29
   11  A    between atoms: C_27  and  C_36
   12  A    between atoms: C_30  and  P_40
   13  A    between atoms: C_36  and  C_37
                            x       y       z     vdW  Elec       q    Type
                         _______ _______ _______ _____ _____    ______ ____

>  <TORSDO>
F 13

$$$$
=
 OpenBabel11062415183D

 41 45  0  0  1  0  0  0  0  0999 V2000
  188.6700  179.0070  138.9670 N   0  0  0  0  0  2  0  0  0  0  0  0
  189.3670  177.9620  138.7030 C   0  0  0  0  0  0  0  0  0  0  0  0
  190.1560  177.2960  139.8070 C   0  0  1  0  0  0  0  0  0  0  0  0
  190.6010  176.0330  139.4060 O   0  0  0  0  0  1  0  0  0  0  0  0
  191.2640  178.0790  140.0820 F   0  0  0  0  0  0  0  0  0  0  0  0
  189.3120  177.1780  141.0820 C   0  0  2  0  0  3  0  0  0  0  0  0
  187.9620  177.3380  140.8130 F   0  0  0  0  0  0  0  0  0  0  0  0
  189.7820  178.0720  142.2380 C   0  0  0  0  0  2  0  0  0  0  0  0
  190.9080  176.2650  143.4410 C   0  0  0  0  0  2  0  0  0  0  0  0
  190.0980  177.3210  143.5020 C   0  0  0  0  0  0  0  0  0  0  0  0
  189.1980  176.8180  145.8070 C   0  0  0  0  0  0  0  0  0  0  0  0
  188.7920  177.0710  147.2670 C   0  0  0  0  0  2  0  0  0  0  0  0
  188.2650  177.8830  145.2010 C   0  0  1  0  0  3  0  0  0  0  0  0
  190.2190  177.0920  146.9220 C   0  0  0  0  0  2  0  0  0  0  0  0
  189.7220  177.9040  144.8470 C   0  0  2  0  0  3  0  0  0  0  0  0
  187.3780  176.1010  143.8880 O   0  0  0  0  0  0  0  0  0  0  0  0
  187.3170  177.2880  144.1720 C   0  0  0  0  0  0  0  0  0  0  0  0
  186.2500  178.1190  143.5170 C   0  0  0  0  0  2  0  0  0  0  0  0
  184.4810  179.7350  144.1240 C   0  0  0  0  0  2  0  0  0  0  0  0
  183.8110  178.5150  143.5330 C   0  0  0  0  0  2  0  0  0  0  0  0
  185.0390  178.3550  144.4050 C   0  0  0  0  0  3  0  0  0  0  0  0
  189.5030  177.5220  137.2750 C   0  0  0  0  0  2  0  0  0  0  0  0
  186.5800  176.0030  135.2430 C   0  0  1  0  0  3  0  0  0  0  0  0
  187.9670  174.1430  136.2750 C   0  0  0  0  0  2  0  0  0  0  0  0
  187.6450  177.0160  135.6980 C   0  0  0  0  0  2  0  0  0  0  0  0
  187.1730  174.5970  135.0510 C   0  0  0  0  0  2  0  0  0  0  0  0
  188.4280  176.5130  136.9100 C   0  0  1  0  0  3  0  0  0  0  0  0
  189.0560  175.1570  136.6010 C   0  0  0  0  0  2  0  0  0  0  0  0
  184.2010  176.8400  135.2510 C   0  0  0  0  0  1  0  0  0  0  0  0
  184.2560  174.2450  137.5650 C   0  0  0  0  0  2  0  0  0  0  0  0
  184.3810  176.6510  138.1700 C   0  0  2  0  0  3  0  0  0  0  0  0
  185.2470  176.0350  136.0260 C   0  0  2  0  0  0  0  0  0  0  0  0
  185.5070  176.6300  137.2950 O   0  0  0  0  0  0  0  0  0  0  0  0
  183.4690  175.4190  138.1000 C   0  0  0  0  0  2  0  0  0  0  0  0
  184.7530  174.5790  136.1660 C   0  0  0  0  0  2  0  0  0  0  0  0
  182.9410  178.2490  137.2170 O   0  0  0  0  0  0  0  0  0  0  0  0
  183.6760  177.9850  138.1540 C   0  0  0  0  0  0  0  0  0  0  0  0
  182.5450  179.2780  140.4280 O   0  0  0  0  0  1  0  0  0  0  0  0
  185.1200  178.8550  140.2800 O   0  0  0  0  0  1  0  0  0  0  0  0
  184.1680  180.7410  138.7430 O   0  0  0  0  0  0  0  0  0  0  0  0
  183.9170  179.2210  139.4410 P   0  0  0  0  0  0  0  0  0  0  0  0
  2  1  2  0  0  0  0
  2  3  1  0  0  0  0
  3  4  1  6  0  0  0
  3  5  1  0  0  0  0
  3  6  1  0  0  0  0
  6  7  1  6  0  0  0
  6  8  1  0  0  0  0
  8 10  1  0  0  0  0
  9 10  2  0  0  0  0
 11 14  1  0  0  0  0
 11 12  1  0  0  0  0
 13 17  1  6  0  0  0
 13 11  1  0  0  0  0
 14 12  1  0  0  0  0
 15 10  1  6  0  0  0
 15 13  1  0  0  0  0
 15 11  1  0  0  0  0
 16 17  2  0  0  0  0
 18 17  1  0  0  0  0
 18 21  1  0  0  0  0
 19 21  1  0  0  0  0
 20 19  1  0  0  0  0
 20 21  1  0  0  0  0
 22  2  1  0  0  0  0
 23 26  1  1  0  0  0
 23 25  1  0  0  0  0
 23 32  1  0  0  0  0
 24 28  1  0  0  0  0
 25 27  1  0  0  0  0
 26 24  1  0  0  0  0
 27 22  1  6  0  0  0
 28 27  1  0  0  0  0
 30 34  1  0  0  0  0
 31 37  1  6  0  0  0
 32 29  1  6  0  0  0
 32 35  1  0  0  0  0
 32 33  1  0  0  0  0
 33 31  1  0  0  0  0
 34 31  1  0  0  0  0
 35 30  1  0  0  0  0
 36 37  2  0  0  0  0
 37 41  1  0  0  0  0
 40 41  2  0  0  0  0
 41 39  1  0  0  0  0
 41 38  1  0  0  0  0
M  END
>  <MODEL>
9

>  <REMARK>
 VINA RESULT:      -7.3      1.044      1.514
  Name = 
  13 active torsions:
  status: ('A' for Active; 'I' for Inactive)
    1  A    between atoms: C_4  and  C_24
    2  A    between atoms: C_6  and  C_16
    3  A    between atoms: C_6  and  C_34
    4  A    between atoms: C_10  and  C_30
    5  A    between atoms: C_16  and  C_27
    6  A    between atoms: C_19  and  C_32
    7  A    between atoms: C_19  and  C_34
    8  A    between atoms: C_20  and  C_21
    9  A    between atoms: C_20  and  C_25
   10  A    between atoms: C_21  and  C_29
   11  A    between atoms: C_27  and  C_36
   12  A    between atoms: C_30  and  P_40
   13  A    between atoms: C_36  and  C_37
                            x       y       z     vdW  Elec       q    Type
                         _______ _______ _______ _____ _____    ______ ____

>  <TORSDO>
F 13

$$$$
