=
 OpenBabel11062412383D

 68 75  0  0  1  0  0  0  0  0999 V2000
  186.8040  173.8960  137.3790 O   0  0  0  0  0  0  0  0  0  0  0  0
  181.5910  176.3510  138.7450 C   0  0  2  0  0  3  0  0  0  0  0  0
  186.0180  176.9900  134.6960 O   0  0  0  0  0  0  0  0  0  0  0  0
  182.3160  177.0340  139.8870 C   0  0  1  0  0  3  0  0  0  0  0  0
  187.6330  175.6890  135.8840 C   0  0  0  0  0  0  0  0  0  0  0  0
  181.4720  178.9370  138.2390 C   0  0  2  0  0  3  0  0  0  0  0  0
  185.4990  177.7700  135.7580 C   0  0  1  0  0  3  0  0  0  0  0  0
  183.9790  177.9190  135.6810 C   0  0  2  0  0  3  0  0  0  0  0  0
  184.1330  178.2410  138.2900 C   0  0  1  0  0  3  0  0  0  0  0  0
  185.9540  177.3060  137.1480 C   0  0  2  0  0  3  0  0  0  0  0  0
  182.0550  178.6070  136.9780 O   0  0  0  0  0  0  0  0  0  0  0  0
  183.2650  177.8670  137.0490 C   0  0  1  0  0  3  0  0  0  0  0  0
  185.6280  175.9490  137.4290 O   0  0  0  0  0  0  0  0  0  0  0  0
  188.8320  175.4040  136.1100 O   0  0  0  0  0  0  0  0  0  0  0  0
  186.5080  175.1060  136.7130 C   0  0  2  0  0  0  0  0  0  0  0  0
  183.7410  177.5330  139.6150 C   0  0  1  0  0  3  0  0  0  0  0  0
  185.9260  173.8230  136.2630 C   0  0  0  0  0  2  0  0  0  0  0  0
  183.4080  176.9930  134.8030 O   0  0  0  0  0  1  0  0  0  0  0  0
  181.1370  177.7400  139.2040 C   0  0  1  0  0  0  0  0  0  0  0  0
  185.5420  178.1920  138.1480 O   0  0  0  0  0  0  0  0  0  0  0  0
  187.3110  176.6840  134.9420 O   0  0  0  0  0  0  0  0  0  0  0  0
  180.3950  174.2390  138.2370 C   0  0  0  0  0  3  0  0  0  0  0  0
  179.5400  173.1820  138.5990 C   0  0  0  0  0  0  0  0  0  0  0  0
  178.9330  173.1790  139.8150 N   0  0  0  0  0  0  0  0  0  0  0  0
  179.1120  174.1880  140.7170 C   0  0  0  0  0  3  0  0  0  0  0  0
  179.3340  172.0970  137.6940 N   0  0  0  0  0  1  0  0  0  0  0  0
  179.9490  175.2610  140.3990 C   0  0  0  0  0  0  0  0  0  0  0  0
  180.1110  176.2740  141.2900 F   0  0  0  0  0  0  0  0  0  0  0  0
  180.5940  175.2940  139.1390 C   0  0  0  0  0  0  0  0  0  0  0  0
  180.2760  179.7520  138.0080 N   0  0  0  0  0  2  0  0  0  0  0  0
  180.3270  181.1850  137.8230 C   0  0  0  0  0  0  0  0  0  0  0  0
  181.2730  181.8610  138.3330 O   0  0  0  0  0  0  0  0  0  0  0  0
  179.3580  181.8730  136.9140 C   0  0  0  0  0  2  0  0  0  0  0  0
  181.1280  181.8150  134.9380 O   0  0  0  0  0  1  0  0  0  0  0  0
  180.2000  182.8300  135.6040 S   0  0  0  0  0  3  0  0  0  0  0  0
  181.2990  183.8200  136.4880 O   0  0  0  0  0  1  0  0  0  0  0  0
  184.0980  178.4140  140.7950 C   0  0  0  0  0  2  0  0  0  0  0  0
  185.4450  179.0330  140.6340 C   0  0  0  0  0  3  0  0  0  0  0  0
  186.4180  178.8380  141.5270 C   0  0  0  0  0  3  0  0  0  0  0  0
  187.7510  179.4900  141.3190 C   0  0  0  0  0  2  0  0  0  0  0  0
  188.7800  178.4590  140.8320 C   0  0  2  0  0  3  0  0  0  0  0  0
  188.1590  177.5270  139.9700 O   0  0  0  0  0  0  0  0  0  0  0  0
  188.6740  177.8250  138.6920 C   0  0  0  0  0  1  0  0  0  0  0  0
  189.5050  177.7510  141.9820 C   0  0  1  0  0  3  0  0  0  0  0  0
  188.5650  177.5050  143.0300 O   0  0  0  0  0  0  0  0  0  0  0  0
  190.1130  177.3530  144.7180 O   0  0  0  0  0  0  0  0  0  0  0  0
  188.9020  177.4650  144.3910 C   0  0  0  0  0  0  0  0  0  0  0  0
  186.6660  177.9960  145.0880 C   0  0  0  0  0  3  0  0  0  0  0  0
  186.6720  178.8440  148.0280 C   0  0  0  0  0  3  0  0  0  0  0  0
  188.2990  177.3240  146.8440 C   0  0  0  0  0  3  0  0  0  0  0  0
  187.8830  177.5860  145.4450 C   0  0  0  0  0  0  0  0  0  0  0  0
  185.4740  178.0760  145.9700 C   0  0  0  0  0  2  0  0  0  0  0  0
  185.6870  178.9730  147.1360 C   0  0  0  0  0  3  0  0  0  0  0  0
  187.7710  177.8620  147.9520 C   0  0  0  0  0  3  0  0  0  0  0  0
  190.2090  176.4700  141.5520 C   0  0  0  0  0  2  0  0  0  0  0  0
  192.1820  177.6530  140.9110 O   0  0  0  0  0  0  0  0  0  0  0  0
  191.3300  176.7510  140.6110 C   0  0  0  0  0  0  0  0  0  0  0  0
  191.3970  176.0940  139.3340 N   0  0  0  0  0  2  0  0  0  0  0  0
  193.4610  174.2310  135.7690 N   0  0  0  0  0  1  0  0  0  0  0  0
  194.2780  175.4310  137.6540 N   0  0  0  0  0  0  0  0  0  0  0  0
  192.3110  176.5770  138.2990 C   0  0  2  0  0  3  0  0  0  0  0  0
  192.1340  175.7850  137.1440 O   0  0  0  0  0  0  0  0  0  0  0  0
  193.7700  176.3250  138.6930 C   0  0  0  0  0  2  0  0  0  0  0  0
  193.3150  175.1560  136.8430 C   0  0  0  0  0  0  0  0  0  0  0  0
  180.0660  177.9500  140.3030 C   0  0  0  0  0  2  0  0  0  0  0  0
  180.2420  179.2890  140.9970 C   0  0  0  0  0  0  0  0  0  0  0  0
  181.3730  179.6560  141.4080 O   0  0  0  0  0  1  0  0  0  0  0  0
  179.1300  180.0860  141.2710 O   0  0  0  0  0  0  0  0  0  0  0  0
  2 29  1  1  0  0  0
  2 19  1  0  0  0  0
  2  4  1  0  0  0  0
  3 21  1  0  0  0  0
  3  7  1  0  0  0  0
  5 14  2  0  0  0  0
  5 15  1  0  0  0  0
  6 19  1  0  0  0  0
  7 10  1  0  0  0  0
  8  7  1  0  0  0  0
  8 12  1  0  0  0  0
  9 16  1  0  0  0  0
 10 13  1  0  0  0  0
 10 20  1  0  0  0  0
 11 12  1  0  0  0  0
 11  6  1  0  0  0  0
 12  9  1  0  0  0  0
 15  1  1  0  0  0  0
 15 13  1  0  0  0  0
 16  4  1  0  0  0  0
 16 37  1  0  0  0  0
 17 15  1  0  0  0  0
 17  1  1  0  0  0  0
 18  8  1  0  0  0  0
 19  4  1  0  0  0  0
 19 65  1  0  0  0  0
 20  9  1  0  0  0  0
 21  5  1  0  0  0  0
 22 23  2  0  0  0  0
 22 29  1  0  0  0  0
 23 24  1  0  0  0  0
 24 25  2  0  0  0  0
 26 23  1  0  0  0  0
 27 25  1  0  0  0  0
 27 28  1  0  0  0  0
 29 27  2  0  0  0  0
 30  6  1  0  0  0  0
 31 30  1  0  0  0  0
 31 32  2  0  0  0  0
 33 31  1  0  0  0  0
 34 35  1  0  0  0  0
 35 36  1  0  0  0  0
 35 33  1  0  0  0  0
 38 37  1  0  0  0  0
 38 39  2  0  0  0  0
 40 39  1  0  0  0  0
 41 40  1  0  0  0  0
 41 44  1  0  0  0  0
 42 41  1  0  0  0  0
 43 42  1  0  0  0  0
 44 45  1  0  0  0  0
 45 47  1  0  0  0  0
 47 46  2  0  0  0  0
 47 51  1  0  0  0  0
 48 51  2  0  0  0  0
 48 52  1  0  0  0  0
 50 54  2  0  0  0  0
 51 50  1  0  0  0  0
 52 53  1  0  0  0  0
 53 49  2  0  0  0  0
 54 49  1  0  0  0  0
 55 44  1  0  0  0  0
 57 56  2  0  0  0  0
 57 55  1  0  0  0  0
 58 57  1  0  0  0  0
 59 64  1  0  0  0  0
 60 63  1  0  0  0  0
 61 63  1  0  0  0  0
 61 58  1  0  0  0  0
 62 61  1  0  0  0  0
 64 62  1  0  0  0  0
 64 60  2  0  0  0  0
 65 66  1  0  0  0  0
 66 68  2  0  0  0  0
 66 67  1  0  0  0  0
M  END
>  <MODEL>
1

>  <REMARK>
 VINA RESULT:      -7.0      0.000      0.000
  Name = 
  18 active torsions:
  status: ('A' for Active; 'I' for Inactive)
    1  A    between atoms: C_6  and  C_29
    2  A    between atoms: C_7  and  C_40
    3  A    between atoms: C_7  and  O_43
    4  A    between atoms: C_7  and  C_51
    5  A    between atoms: C_9  and  C_40
    6  A    between atoms: C_12  and  C_68
    7  A    between atoms: C_14  and  C_36
    8  A    between atoms: S_17  and  C_47
    9  A    between atoms: C_20  and  N_33
   10  A    between atoms: C_25  and  C_61
   11  A    between atoms: C_29  and  C_53
   12  A    between atoms: C_31  and  N_58
   13  A    between atoms: C_36  and  C_64
   14  A    between atoms: C_46  and  C_48
   15  A    between atoms: C_46  and  O_59
   16  A    between atoms: C_47  and  C_60
   17  A    between atoms: C_51  and  O_59
   18  A    between atoms: C_51  and  C_61
                            x       y       z     vdW  Elec       q    Type
                         _______ _______ _______ _____ _____    ______ ____

>  <TORSDO>
F 18

$$$$
=
 OpenBabel11062412383D

 68 75  0  0  1  0  0  0  0  0999 V2000
  181.5980  171.3420  138.0210 O   0  0  0  0  0  0  0  0  0  0  0  0
  181.8800  177.2450  138.3990 C   0  0  2  0  0  3  0  0  0  0  0  0
  179.6140  173.0070  134.7520 O   0  0  0  0  0  0  0  0  0  0  0  0
  183.3140  177.1150  137.9270 C   0  0  1  0  0  3  0  0  0  0  0  0
  180.8880  171.1950  135.6520 C   0  0  0  0  0  0  0  0  0  0  0  0
  181.9870  178.4530  136.0570 C   0  0  2  0  0  3  0  0  0  0  0  0
  180.6250  173.9930  134.6500 C   0  0  1  0  0  3  0  0  0  0  0  0
  180.1340  175.3750  135.0820 C   0  0  2  0  0  3  0  0  0  0  0  0
  182.6670  175.8210  135.6440 C   0  0  1  0  0  3  0  0  0  0  0  0
  181.9360  173.6130  135.3500 C   0  0  2  0  0  3  0  0  0  0  0  0
  180.9180  177.5850  135.6810 O   0  0  0  0  0  0  0  0  0  0  0  0
  181.1710  176.2010  135.8720 C   0  0  1  0  0  3  0  0  0  0  0  0
  181.7770  173.3200  136.7330 O   0  0  0  0  0  0  0  0  0  0  0  0
  181.3890  170.0560  135.5110 O   0  0  0  0  0  0  0  0  0  0  0  0
  181.1800  172.0470  136.8700 C   0  0  2  0  0  0  0  0  0  0  0  0
  183.6070  176.0560  136.8570 C   0  0  1  0  0  3  0  0  0  0  0  0
  180.2870  171.8900  138.0380 C   0  0  0  0  0  2  0  0  0  0  0  0
  178.9310  175.3030  135.7930 O   0  0  0  0  0  1  0  0  0  0  0  0
  182.4960  178.3560  137.5430 C   0  0  1  0  0  0  0  0  0  0  0  0
  182.9460  174.5450  135.0940 O   0  0  0  0  0  0  0  0  0  0  0  0
  180.1570  171.7780  134.6000 O   0  0  0  0  0  0  0  0  0  0  0  0
  182.8490  177.7750  140.6190 C   0  0  0  0  0  3  0  0  0  0  0  0
  182.7430  178.2750  141.9290 C   0  0  0  0  0  0  0  0  0  0  0  0
  181.5400  178.6890  142.4080 N   0  0  0  0  0  0  0  0  0  0  0  0
  180.4010  178.6300  141.6570 C   0  0  0  0  0  3  0  0  0  0  0  0
  183.9090  178.3700  142.7470 N   0  0  0  0  0  1  0  0  0  0  0  0
  180.4580  178.1370  140.3510 C   0  0  0  0  0  0  0  0  0  0  0  0
  179.3210  178.0600  139.6100 F   0  0  0  0  0  0  0  0  0  0  0  0
  181.6960  177.6950  139.8240 C   0  0  0  0  0  0  0  0  0  0  0  0
  181.6090  179.8340  135.7410 N   0  0  0  0  0  2  0  0  0  0  0  0
  180.2780  180.3530  135.9630 C   0  0  0  0  0  0  0  0  0  0  0  0
  179.2780  179.5700  135.9520 O   0  0  0  0  0  0  0  0  0  0  0  0
  180.0700  181.7820  136.3520 C   0  0  0  0  0  2  0  0  0  0  0  0
  180.4750  181.1400  138.8950 O   0  0  0  0  0  1  0  0  0  0  0  0
  180.9350  182.2100  137.9040 S   0  0  0  0  0  3  0  0  0  0  0  0
  180.0920  183.6120  138.4480 O   0  0  0  0  0  1  0  0  0  0  0  0
  185.0130  176.3440  136.3710 C   0  0  0  0  0  2  0  0  0  0  0  0
  186.0420  175.8730  137.3420 C   0  0  0  0  0  3  0  0  0  0  0  0
  187.2730  176.3890  137.3660 C   0  0  0  0  0  3  0  0  0  0  0  0
  188.2690  175.8750  138.3590 C   0  0  0  0  0  2  0  0  0  0  0  0
  188.8940  177.0400  139.1420 C   0  0  2  0  0  3  0  0  0  0  0  0
  190.0710  177.4800  138.4950 O   0  0  0  0  0  0  0  0  0  0  0  0
  189.6200  178.3740  137.5020 C   0  0  0  0  0  1  0  0  0  0  0  0
  189.1650  176.6950  140.6090 C   0  0  1  0  0  3  0  0  0  0  0  0
  190.5660  176.4630  140.7710 O   0  0  0  0  0  0  0  0  0  0  0  0
  192.0160  178.2420  140.8170 O   0  0  0  0  0  0  0  0  0  0  0  0
  191.4290  177.3310  141.4580 C   0  0  0  0  0  0  0  0  0  0  0  0
  191.7150  176.0060  143.4400 C   0  0  0  0  0  3  0  0  0  0  0  0
  190.7890  177.5920  145.8870 C   0  0  0  0  0  3  0  0  0  0  0  0
  191.6660  178.4820  143.6980 C   0  0  0  0  0  3  0  0  0  0  0  0
  191.6380  177.2260  142.9090 C   0  0  0  0  0  0  0  0  0  0  0  0
  192.0330  175.6820  144.8540 C   0  0  0  0  0  2  0  0  0  0  0  0
  191.0670  176.2890  145.8080 C   0  0  0  0  0  3  0  0  0  0  0  0
  191.3070  178.6330  144.9800 C   0  0  0  0  0  3  0  0  0  0  0  0
  188.6600  177.7540  141.5810 C   0  0  0  0  0  2  0  0  0  0  0  0
  188.1650  175.8790  142.9760 O   0  0  0  0  0  0  0  0  0  0  0  0
  188.2310  177.1510  142.8740 C   0  0  0  0  0  0  0  0  0  0  0  0
  187.7920  177.9830  143.9610 N   0  0  0  0  0  2  0  0  0  0  0  0
  183.9410  178.8710  146.1570 N   0  0  0  0  0  1  0  0  0  0  0  0
  186.1980  178.6780  146.8830 N   0  0  0  0  0  0  0  0  0  0  0  0
  187.0970  177.3980  145.1080 C   0  0  2  0  0  3  0  0  0  0  0  0
  185.7150  177.6470  144.9640 O   0  0  0  0  0  0  0  0  0  0  0  0
  187.4640  178.1280  146.4040 C   0  0  0  0  0  2  0  0  0  0  0  0
  185.2770  178.3940  146.0280 C   0  0  0  0  0  0  0  0  0  0  0  0
  183.2420  179.5680  138.1540 C   0  0  0  0  0  2  0  0  0  0  0  0
  184.7300  179.2960  138.2780 C   0  0  0  0  0  0  0  0  0  0  0  0
  185.2040  178.7770  139.3220 O   0  0  0  0  0  1  0  0  0  0  0  0
  185.6030  179.7070  137.2700 O   0  0  0  0  0  0  0  0  0  0  0  0
  1 17  1  0  0  0  0
  2 29  1  1  0  0  0
  4  2  1  0  0  0  0
  5 15  1  0  0  0  0
  6 19  1  0  0  0  0
  7  3  1  0  0  0  0
  7  8  1  0  0  0  0
  7 10  1  0  0  0  0
  8 18  1  0  0  0  0
  8 12  1  0  0  0  0
  9 12  1  0  0  0  0
  9 16  1  0  0  0  0
 10 13  1  0  0  0  0
 11 12  1  0  0  0  0
 11  6  1  0  0  0  0
 13 15  1  0  0  0  0
 14  5  2  0  0  0  0
 15  1  1  0  0  0  0
 15 17  1  0  0  0  0
 16  4  1  0  0  0  0
 19  4  1  0  0  0  0
 19 65  1  0  0  0  0
 19  2  1  0  0  0  0
 20 10  1  0  0  0  0
 20  9  1  0  0  0  0
 21  3  1  0  0  0  0
 21  5  1  0  0  0  0
 22 23  1  0  0  0  0
 23 24  2  0  0  0  0
 23 26  1  0  0  0  0
 25 24  1  0  0  0  0
 27 25  2  0  0  0  0
 28 27  1  0  0  0  0
 29 27  1  0  0  0  0
 29 22  2  0  0  0  0
 30 31  1  0  0  0  0
 30  6  1  0  0  0  0
 31 33  1  0  0  0  0
 32 31  2  0  0  0  0
 33 35  1  0  0  0  0
 35 36  1  0  0  0  0
 35 34  1  0  0  0  0
 37 16  1  0  0  0  0
 37 38  1  0  0  0  0
 38 39  2  0  0  0  0
 39 40  1  0  0  0  0
 40 41  1  0  0  0  0
 41 44  1  0  0  0  0
 42 41  1  0  0  0  0
 43 42  1  0  0  0  0
 44 45  1  0  0  0  0
 44 55  1  0  0  0  0
 45 47  1  0  0  0  0
 46 47  2  0  0  0  0
 47 51  1  0  0  0  0
 48 52  1  0  0  0  0
 50 54  2  0  0  0  0
 51 48  2  0  0  0  0
 51 50  1  0  0  0  0
 52 53  1  0  0  0  0
 53 49  2  0  0  0  0
 54 49  1  0  0  0  0
 55 57  1  0  0  0  0
 57 56  2  0  0  0  0
 57 58  1  0  0  0  0
 58 61  1  0  0  0  0
 61 63  1  0  0  0  0
 62 61  1  0  0  0  0
 62 64  1  0  0  0  0
 63 60  1  0  0  0  0
 64 59  1  0  0  0  0
 64 60  2  0  0  0  0
 65 66  1  0  0  0  0
 66 67  1  0  0  0  0
 68 66  2  0  0  0  0
M  END
>  <MODEL>
2

>  <REMARK>
 VINA RESULT:      -6.9      3.233      5.821
  Name = 
  18 active torsions:
  status: ('A' for Active; 'I' for Inactive)
    1  A    between atoms: C_6  and  C_29
    2  A    between atoms: C_7  and  C_40
    3  A    between atoms: C_7  and  O_43
    4  A    between atoms: C_7  and  C_51
    5  A    between atoms: C_9  and  C_40
    6  A    between atoms: C_12  and  C_68
    7  A    between atoms: C_14  and  C_36
    8  A    between atoms: S_17  and  C_47
    9  A    between atoms: C_20  and  N_33
   10  A    between atoms: C_25  and  C_61
   11  A    between atoms: C_29  and  C_53
   12  A    between atoms: C_31  and  N_58
   13  A    between atoms: C_36  and  C_64
   14  A    between atoms: C_46  and  C_48
   15  A    between atoms: C_46  and  O_59
   16  A    between atoms: C_47  and  C_60
   17  A    between atoms: C_51  and  O_59
   18  A    between atoms: C_51  and  C_61
                            x       y       z     vdW  Elec       q    Type
                         _______ _______ _______ _____ _____    ______ ____

>  <TORSDO>
F 18

$$$$
=
 OpenBabel11062412383D

 68 75  0  0  1  0  0  0  0  0999 V2000
  186.9960  173.8660  137.0470 O   0  0  0  0  0  0  0  0  0  0  0  0
  181.8680  176.2410  138.8150 C   0  0  2  0  0  3  0  0  0  0  0  0
  186.0890  177.1140  134.5940 O   0  0  0  0  0  0  0  0  0  0  0  0
  182.6520  176.8560  139.9580 C   0  0  1  0  0  3  0  0  0  0  0  0
  187.7570  175.7430  135.6210 C   0  0  0  0  0  0  0  0  0  0  0  0
  181.7340  178.8530  138.4690 C   0  0  2  0  0  3  0  0  0  0  0  0
  185.6280  177.8300  135.7250 C   0  0  1  0  0  3  0  0  0  0  0  0
  184.1060  177.9850  135.7330 C   0  0  2  0  0  3  0  0  0  0  0  0
  184.3910  178.1530  138.3450 C   0  0  1  0  0  3  0  0  0  0  0  0
  186.1490  177.2840  137.0610 C   0  0  2  0  0  3  0  0  0  0  0  0
  182.2520  178.5970  137.1630 O   0  0  0  0  0  0  0  0  0  0  0  0
  183.4610  177.8530  137.1290 C   0  0  1  0  0  3  0  0  0  0  0  0
  185.8320  175.9140  137.2770 O   0  0  0  0  0  0  0  0  0  0  0  0
  188.9640  175.4440  135.7690 O   0  0  0  0  0  0  0  0  0  0  0  0
  186.6720  175.1130  136.4700 C   0  0  2  0  0  0  0  0  0  0  0  0
  184.0630  177.3680  139.6440 C   0  0  1  0  0  3  0  0  0  0  0  0
  186.0640  173.8600  135.9750 C   0  0  0  0  0  2  0  0  0  0  0  0
  183.4880  177.1120  134.8310 O   0  0  0  0  0  1  0  0  0  0  0  0
  181.4430  177.6020  139.3770 C   0  0  1  0  0  0  0  0  0  0  0  0
  185.7910  178.1100  138.1300 O   0  0  0  0  0  0  0  0  0  0  0  0
  187.3920  176.7920  134.7570 O   0  0  0  0  0  0  0  0  0  0  0  0
  180.7230  174.9110  140.5660 C   0  0  0  0  0  3  0  0  0  0  0  0
  179.7550  173.9770  140.9770 C   0  0  0  0  0  0  0  0  0  0  0  0
  178.9800  173.3450  140.0560 N   0  0  0  0  0  0  0  0  0  0  0  0
  179.1120  173.5750  138.7170 C   0  0  0  0  0  3  0  0  0  0  0  0
  179.5700  173.7140  142.3680 N   0  0  0  0  0  1  0  0  0  0  0  0
  180.0630  174.4920  138.2620 C   0  0  0  0  0  0  0  0  0  0  0  0
  180.2070  174.7060  136.9280 F   0  0  0  0  0  0  0  0  0  0  0  0
  180.8880  175.1640  139.1970 C   0  0  0  0  0  0  0  0  0  0  0  0
  180.5310  179.6820  138.3470 N   0  0  0  0  0  2  0  0  0  0  0  0
  180.5750  181.0810  137.9880 C   0  0  0  0  0  0  0  0  0  0  0  0
  181.6070  181.7740  138.2490 O   0  0  0  0  0  0  0  0  0  0  0  0
  179.4790  181.6980  137.1790 C   0  0  0  0  0  2  0  0  0  0  0  0
  180.9500  180.6680  135.2260 O   0  0  0  0  0  1  0  0  0  0  0  0
  179.8760  181.7420  135.3960 S   0  0  0  0  0  3  0  0  0  0  0  0
  180.7760  183.2030  135.2310 O   0  0  0  0  0  1  0  0  0  0  0  0
  184.4830  178.1780  140.8540 C   0  0  0  0  0  2  0  0  0  0  0  0
  185.8990  178.6330  140.7510 C   0  0  0  0  0  3  0  0  0  0  0  0
  186.6460  178.8540  141.8350 C   0  0  0  0  0  3  0  0  0  0  0  0
  188.0610  179.3170  141.6740 C   0  0  0  0  0  2  0  0  0  0  0  0
  189.0100  178.4350  142.5010 C   0  0  2  0  0  3  0  0  0  0  0  0
  190.3260  178.9460  142.4320 O   0  0  0  0  0  0  0  0  0  0  0  0
  190.7910  178.9140  143.7630 C   0  0  0  0  0  1  0  0  0  0  0  0
  188.9660  176.9610  142.0870 C   0  0  1  0  0  3  0  0  0  0  0  0
  190.0350  176.7120  141.1720 O   0  0  0  0  0  0  0  0  0  0  0  0
  188.8030  177.1160  139.2780 O   0  0  0  0  0  0  0  0  0  0  0  0
  189.8920  176.7270  139.7770 C   0  0  0  0  0  0  0  0  0  0  0  0
  190.8420  175.2230  138.1640 C   0  0  0  0  0  3  0  0  0  0  0  0
  193.8960  175.3760  138.2780 C   0  0  0  0  0  3  0  0  0  0  0  0
  192.2250  177.1600  138.8970 C   0  0  0  0  0  3  0  0  0  0  0  0
  190.9910  176.3370  138.8810 C   0  0  0  0  0  0  0  0  0  0  0  0
  191.7750  174.7170  137.1250 C   0  0  0  0  0  2  0  0  0  0  0  0
  193.1400  174.4670  137.6590 C   0  0  0  0  0  3  0  0  0  0  0  0
  193.4700  176.7440  138.6300 C   0  0  0  0  0  3  0  0  0  0  0  0
  189.0100  176.0020  143.2700 C   0  0  0  0  0  2  0  0  0  0  0  0
  186.7840  175.2920  143.7690 O   0  0  0  0  0  0  0  0  0  0  0  0
  187.7560  176.0640  144.0720 C   0  0  0  0  0  0  0  0  0  0  0  0
  187.5950  177.0500  145.1060 N   0  0  0  0  0  2  0  0  0  0  0  0
  184.2220  179.9270  144.2160 N   0  0  0  0  0  1  0  0  0  0  0  0
  185.4730  179.4760  146.1890 N   0  0  0  0  0  0  0  0  0  0  0  0
  186.2760  177.3090  145.6840 C   0  0  2  0  0  3  0  0  0  0  0  0
  185.4430  177.8380  144.6740 O   0  0  0  0  0  0  0  0  0  0  0  0
  186.3430  178.4310  146.7250 C   0  0  0  0  0  2  0  0  0  0  0  0
  185.0260  179.0910  145.0440 C   0  0  0  0  0  0  0  0  0  0  0  0
  180.4290  177.7480  140.5400 C   0  0  0  0  0  2  0  0  0  0  0  0
  180.6580  179.0340  141.3130 C   0  0  0  0  0  0  0  0  0  0  0  0
  179.7080  179.8310  141.5300 O   0  0  0  0  0  0  0  0  0  0  0  0
  181.9470  179.3920  141.7100 O   0  0  0  0  0  1  0  0  0  0  0  0
  2 29  1  1  0  0  0
  2 19  1  0  0  0  0
  2  4  1  0  0  0  0
  3 21  1  0  0  0  0
  3  7  1  0  0  0  0
  5 14  2  0  0  0  0
  5 15  1  0  0  0  0
  6 19  1  0  0  0  0
  7  8  1  0  0  0  0
  7 10  1  0  0  0  0
  8 12  1  0  0  0  0
  9 16  1  0  0  0  0
 10 13  1  0  0  0  0
 10 20  1  0  0  0  0
 11  6  1  0  0  0  0
 12 11  1  0  0  0  0
 12  9  1  0  0  0  0
 15  1  1  0  0  0  0
 15 13  1  0  0  0  0
 16  4  1  0  0  0  0
 16 37  1  0  0  0  0
 17 15  1  0  0  0  0
 17  1  1  0  0  0  0
 18  8  1  0  0  0  0
 19  4  1  0  0  0  0
 19 65  1  0  0  0  0
 20  9  1  0  0  0  0
 21  5  1  0  0  0  0
 22 23  1  0  0  0  0
 23 26  1  0  0  0  0
 24 23  2  0  0  0  0
 25 24  1  0  0  0  0
 27 25  2  0  0  0  0
 27 29  1  0  0  0  0
 28 27  1  0  0  0  0
 29 22  2  0  0  0  0
 30  6  1  0  0  0  0
 31 32  2  0  0  0  0
 31 30  1  0  0  0  0
 33 31  1  0  0  0  0
 34 35  1  0  0  0  0
 35 33  1  0  0  0  0
 36 35  1  0  0  0  0
 38 37  1  0  0  0  0
 38 39  2  0  0  0  0
 40 39  1  0  0  0  0
 40 41  1  0  0  0  0
 42 41  1  0  0  0  0
 42 43  1  0  0  0  0
 44 41  1  0  0  0  0
 44 55  1  0  0  0  0
 45 44  1  0  0  0  0
 46 47  2  0  0  0  0
 47 45  1  0  0  0  0
 48 51  2  0  0  0  0
 49 54  1  0  0  0  0
 51 50  1  0  0  0  0
 51 47  1  0  0  0  0
 52 53  1  0  0  0  0
 52 48  1  0  0  0  0
 53 49  2  0  0  0  0
 54 50  2  0  0  0  0
 55 57  1  0  0  0  0
 56 57  2  0  0  0  0
 57 58  1  0  0  0  0
 58 61  1  0  0  0  0
 59 64  1  0  0  0  0
 60 63  1  0  0  0  0
 61 63  1  0  0  0  0
 62 64  1  0  0  0  0
 62 61  1  0  0  0  0
 64 60  2  0  0  0  0
 65 66  1  0  0  0  0
 66 67  2  0  0  0  0
 66 68  1  0  0  0  0
M  END
>  <MODEL>
3

>  <REMARK>
 VINA RESULT:      -6.8      2.387      5.324
  Name = 
  18 active torsions:
  status: ('A' for Active; 'I' for Inactive)
    1  A    between atoms: C_6  and  C_29
    2  A    between atoms: C_7  and  C_40
    3  A    between atoms: C_7  and  O_43
    4  A    between atoms: C_7  and  C_51
    5  A    between atoms: C_9  and  C_40
    6  A    between atoms: C_12  and  C_68
    7  A    between atoms: C_14  and  C_36
    8  A    between atoms: S_17  and  C_47
    9  A    between atoms: C_20  and  N_33
   10  A    between atoms: C_25  and  C_61
   11  A    between atoms: C_29  and  C_53
   12  A    between atoms: C_31  and  N_58
   13  A    between atoms: C_36  and  C_64
   14  A    between atoms: C_46  and  C_48
   15  A    between atoms: C_46  and  O_59
   16  A    between atoms: C_47  and  C_60
   17  A    between atoms: C_51  and  O_59
   18  A    between atoms: C_51  and  C_61
                            x       y       z     vdW  Elec       q    Type
                         _______ _______ _______ _____ _____    ______ ____

>  <TORSDO>
F 18

$$$$
