=
 OpenBabel11062414413D

 68 74  0  0  1  0  0  0  0  0999 V2000
  190.1530  179.6850  141.9470 C   0  0  0  0  0  1  0  0  0  0  0  0
  188.5390  178.4780  143.3880 C   0  0  2  0  0  3  0  0  0  0  0  0
  191.0220  175.4660  138.9900 C   0  0  0  0  0  2  0  0  0  0  0  0
  189.9290  176.4150  139.4630 C   0  0  2  0  0  3  0  0  0  0  0  0
  189.1030  178.5840  141.9640 C   0  0  2  0  0  0  0  0  0  0  0  0
  190.7330  175.1760  137.5340 C   0  0  1  0  0  3  0  0  0  0  0  0
  184.2210  179.0380  138.5400 C   0  0  1  0  0  3  0  0  0  0  0  0
  189.7060  177.2330  141.5090 C   0  0  1  0  0  3  0  0  0  0  0  0
  182.6380  178.4680  139.3590 P   0  0  2  0  0  0  0  0  0  0  0  0
  186.4240  178.2310  142.7440 O   0  0  0  0  0  0  0  0  0  0  0  0
  187.9410  179.0260  141.0790 C   0  0  0  0  0  3  0  0  0  0  0  0
  189.3620  177.1000  138.2280 C   0  0  0  0  0  2  0  0  0  0  0  0
  190.4650  177.3610  140.3400 O   0  0  0  0  0  0  0  0  0  0  0  0
  182.8970  176.6160  139.2960 C   0  0  2  0  0  3  0  0  0  0  0  0
  188.5940  177.2870  144.2420 C   0  0  1  0  0  0  0  0  0  0  0  0
  184.5920  175.3080  138.0940 C   0  0  0  0  0  3  0  0  0  0  0  0
  185.5210  179.3770  140.6930 C   0  0  0  0  0  2  0  0  0  0  0  0
  187.7530  176.2060  135.8460 C   0  0  0  0  0  2  0  0  0  0  0  0
  189.8370  173.9510  137.4540 C   0  0  0  0  0  1  0  0  0  0  0  0
  186.6630  178.8650  141.5020 C   0  0  0  0  0  0  0  0  0  0  0  0
  181.6300  178.5930  137.9510 O   0  0  0  0  0  1  0  0  0  0  0  0
  185.2510  174.9260  137.0390 C   0  0  0  0  0  0  0  0  0  0  0  0
  187.4440  177.3600  143.2250 C   0  0  2  0  0  3  0  0  0  0  0  0
  184.1740  180.5280  138.2560 C   0  0  0  0  0  1  0  0  0  0  0  0
  187.3810  174.7300  135.8980 C   0  0  0  0  0  2  0  0  0  0  0  0
  190.0590  176.4540  137.0440 C   0  0  2  0  0  3  0  0  0  0  0  0
  185.4510  178.6510  139.3550 C   0  0  0  0  0  2  0  0  0  0  0  0
  189.6420  176.2210  143.8600 C   0  0  0  0  0  2  0  0  0  0  0  0
  189.2650  176.4520  135.7220 C   0  0  1  0  0  3  0  0  0  0  0  0
  183.3990  176.1800  137.9300 C   0  0  0  0  0  2  0  0  0  0  0  0
  185.9010  174.5630  135.9630 C   0  0  0  0  0  0  0  0  0  0  0  0
  191.6090  177.3190  143.0090 O   0  0  0  0  0  1  0  0  0  0  0  0
  190.5100  176.5450  142.6290 C   0  0  2  0  0  3  0  0  0  0  0  0
  191.3090  175.7560  134.7160 C   0  0  0  0  0  0  0  0  0  0  0  0
  189.9370  175.6660  134.5960 C   0  0  1  0  0  3  0  0  0  0  0  0
  192.4510  176.4140  134.5940 C   0  0  0  0  0  2  0  0  0  0  0  0
  190.5260  174.5380  135.1020 O   0  0  0  0  0  0  0  0  0  0  0  0
  181.6940  175.9660  139.5850 O   0  0  0  0  0  0  0  0  0  0  0  0
  180.7280  176.9760  139.5930 C   0  0  0  0  0  2  0  0  0  0  0  0
  179.0730  175.5630  140.8070 O   0  0  0  0  0  0  0  0  0  0  0  0
  179.7840  176.7530  140.7220 C   0  0  0  0  0  0  0  0  0  0  0  0
  179.5970  177.6590  141.5750 O   0  0  0  0  0  1  0  0  0  0  0  0
  185.2040  173.8540  134.8460 C   0  0  0  0  0  2  0  0  0  0  0  0
  185.1560  172.4620  135.0780 O   0  0  0  0  0  0  0  0  0  0  0  0
  183.7000  170.7960  134.5990 O   0  0  0  0  0  1  0  0  0  0  0  0
  183.8180  172.0290  135.2450 C   0  0  1  0  0  0  0  0  0  0  0  0
  183.4450  171.7680  137.0260 P   0  0  0  0  0  0  0  0  0  0  0  0
  182.6830  170.2730  137.2450 O   0  0  0  0  0  0  0  0  0  0  0  0
  182.4170  173.0000  137.5630 O   0  0  0  0  0  1  0  0  0  0  0  0
  184.7190  171.8010  137.8400 O   0  0  0  0  0  1  0  0  0  0  0  0
  182.8280  173.0240  134.5960 C   0  0  0  0  0  2  0  0  0  0  0  0
  181.0820  171.4340  134.6180 O   0  0  0  0  0  0  0  0  0  0  0  0
  181.3850  172.6150  134.6720 C   0  0  0  0  0  0  0  0  0  0  0  0
  179.6700  173.4410  136.2310 N   0  0  0  0  0  2  0  0  0  0  0  0
  178.9330  173.2160  134.9730 C   0  0  0  0  0  2  0  0  0  0  0  0
  180.6030  175.1070  134.6570 C   0  0  0  0  0  1  0  0  0  0  0  0
  180.3260  173.6410  134.9320 C   0  0  2  0  0  0  0  0  0  0  0  0
  188.2060  177.4500  145.7260 C   0  0  1  0  0  3  0  0  0  0  0  0
  186.7960  176.9560  146.0550 C   0  0  0  0  0  2  0  0  0  0  0  0
  186.0990  177.9120  147.0130 C   0  0  1  0  0  3  0  0  0  0  0  0
  187.0490  178.5540  147.8080 O   0  0  0  0  0  1  0  0  0  0  0  0
  184.7340  178.6060  145.1550 N   0  0  0  0  0  2  0  0  0  0  0  0
  185.3280  178.9310  146.2460 C   0  0  0  0  0  3  0  0  0  0  0  0
  189.2110  176.7540  146.6350 C   0  0  0  0  0  2  0  0  0  0  0  0
  190.3430  177.7020  146.9790 C   0  0  0  0  0  2  0  0  0  0  0  0
  191.2130  177.0890  147.8790 O   0  0  0  0  0  0  0  0  0  0  0  0
  191.5050  175.8540  147.3010 C   0  0  0  0  0  2  0  0  0  0  0  0
  192.8430  175.3550  147.8110 C   0  0  0  0  0  1  0  0  0  0  0  0
  1  5  1  0  0  0  0
  2 15  1  0  0  0  0
  3  4  1  0  0  0  0
  4 13  1  0  0  0  0
  5  2  1  0  0  0  0
  6  3  1  0  0  0  0
  7 27  1  0  0  0  0
  7  9  1  0  0  0  0
  8  5  1  0  0  0  0
  8 33  1  0  0  0  0
 10 23  1  0  0  0  0
 11 20  2  0  0  0  0
 11  5  1  0  0  0  0
 12  4  1  0  0  0  0
 13  8  1  0  0  0  0
 14  9  1  0  0  0  0
 14 38  1  0  0  0  0
 15 58  1  0  0  0  0
 17 20  1  0  0  0  0
 18 25  1  0  0  0  0
 19  6  1  0  0  0  0
 20 10  1  0  0  0  0
 21  9  1  0  0  0  0
 22 16  2  0  0  0  0
 23  2  1  0  0  0  0
 23 15  1  0  0  0  0
 24  7  1  0  0  0  0
 25 31  1  0  0  0  0
 26  6  1  0  0  0  0
 26 12  1  0  0  0  0
 27 17  1  0  0  0  0
 28 15  1  0  0  0  0
 29 18  1  0  0  0  0
 29 26  1  0  0  0  0
 30 16  1  0  0  0  0
 30 14  1  0  0  0  0
 31 22  2  0  0  0  0
 33 32  1  0  0  0  0
 33 28  1  0  0  0  0
 34 37  1  0  0  0  0
 35 34  1  0  0  0  0
 35 37  1  0  0  0  0
 35 29  1  0  0  0  0
 36 34  2  0  0  0  0
 38 39  1  0  0  0  0
 39 41  1  0  0  0  0
 41 40  2  0  0  0  0
 41 42  1  0  0  0  0
 43 44  1  0  0  0  0
 43 31  1  0  0  0  0
 44 46  1  0  0  0  0
 45 46  1  0  0  0  0
 46 47  1  0  0  0  0
 47 48  2  0  0  0  0
 47 49  1  0  0  0  0
 47 50  1  0  0  0  0
 51 53  1  0  0  0  0
 51 46  1  0  0  0  0
 52 53  2  0  0  0  0
 53 57  1  0  0  0  0
 55 54  1  0  0  0  0
 56 57  1  0  0  0  0
 57 55  1  0  0  0  0
 57 54  1  0  0  0  0
 58 59  1  0  0  0  0
 58 64  1  0  0  0  0
 59 60  1  0  0  0  0
 60 61  1  0  0  0  0
 62 63  2  0  0  0  0
 63 60  1  0  0  0  0
 64 65  1  0  0  0  0
 65 66  1  0  0  0  0
 67 68  1  0  0  0  0
 67 66  1  0  0  0  0
M  END
>  <MODEL>
1

>  <REMARK>
 VINA RESULT:      -3.1      0.000      0.000
  Name = 
  19 active torsions:
  status: ('A' for Active; 'I' for Inactive)
    1  A    between atoms: O_2  and  C_3
    2  A    between atoms: O_2  and  C_42
    3  A    between atoms: C_9  and  C_59
    4  A    between atoms: C_10  and  C_29
    5  A    between atoms: C_10  and  C_42
    6  A    between atoms: C_13  and  C_56
    7  A    between atoms: C_13  and  C_58
    8  A    between atoms: C_18  and  C_46
    9  A    between atoms: C_18  and  O_50
   10  A    between atoms: P_25  and  C_68
   11  A    between atoms: C_28  and  O_50
   12  A    between atoms: C_29  and  C_30
   13  A    between atoms: C_29  and  C_56
   14  A    between atoms: C_38  and  C_48
   15  A    between atoms: C_38  and  C_55
   16  A    between atoms: C_44  and  O_60
   17  A    between atoms: C_44  and  C_62
   18  A    between atoms: C_48  and  C_68
   19  A    between atoms: O_60  and  C_68
                            x       y       z     vdW  Elec       q    Type
                         _______ _______ _______ _____ _____    ______ ____

>  <TORSDO>
F 19

$$$$
=
 OpenBabel11062414413D

 68 74  0  0  1  0  0  0  0  0999 V2000
  190.1010  179.4240  141.9370 C   0  0  0  0  0  1  0  0  0  0  0  0
  188.5460  178.3580  143.5440 C   0  0  2  0  0  3  0  0  0  0  0  0
  190.1130  175.2350  138.8130 C   0  0  0  0  0  2  0  0  0  0  0  0
  189.2020  176.2840  139.4370 C   0  0  2  0  0  3  0  0  0  0  0  0
  188.9420  178.4480  142.0630 C   0  0  2  0  0  0  0  0  0  0  0  0
  189.6190  175.0280  137.4000 C   0  0  1  0  0  3  0  0  0  0  0  0
  183.7650  179.5580  139.2810 C   0  0  1  0  0  3  0  0  0  0  0  0
  189.3260  177.0540  141.5100 C   0  0  1  0  0  3  0  0  0  0  0  0
  182.2380  179.1420  140.2790 P   0  0  2  0  0  0  0  0  0  0  0  0
  186.3540  178.3710  143.1630 O   0  0  0  0  0  0  0  0  0  0  0  0
  187.7390  179.0460  141.3370 C   0  0  0  0  0  3  0  0  0  0  0  0
  188.5720  177.0690  138.2960 C   0  0  0  0  0  2  0  0  0  0  0  0
  189.9460  177.1350  140.2580 O   0  0  0  0  0  0  0  0  0  0  0  0
  182.2730  177.2760  140.1500 C   0  0  2  0  0  3  0  0  0  0  0  0
  188.5670  177.1410  144.3600 C   0  0  1  0  0  0  0  0  0  0  0  0
  183.6480  175.8270  138.7210 C   0  0  0  0  0  3  0  0  0  0  0  0
  185.3470  179.6790  141.2620 C   0  0  0  0  0  2  0  0  0  0  0  0
  186.5950  176.4400  136.1150 C   0  0  0  0  0  2  0  0  0  0  0  0
  188.5850  173.9140  137.4080 C   0  0  0  0  0  1  0  0  0  0  0  0
  186.5120  179.0150  141.9130 C   0  0  0  0  0  0  0  0  0  0  0  0
  181.0880  179.4260  139.0110 O   0  0  0  0  0  1  0  0  0  0  0  0
  184.1250  175.4090  137.5850 C   0  0  0  0  0  0  0  0  0  0  0  0
  187.3180  177.3760  143.4960 C   0  0  2  0  0  3  0  0  0  0  0  0
  183.8560  181.0530  139.0340 C   0  0  0  0  0  1  0  0  0  0  0  0
  186.0640  175.0140  136.1850 C   0  0  0  0  0  2  0  0  0  0  0  0
  189.0420  176.3890  137.0220 C   0  0  2  0  0  3  0  0  0  0  0  0
  185.0320  179.0100  139.9300 C   0  0  0  0  0  2  0  0  0  0  0  0
  189.4310  175.9780  143.8310 C   0  0  0  0  0  2  0  0  0  0  0  0
  188.0980  176.5190  135.8090 C   0  0  1  0  0  3  0  0  0  0  0  0
  182.5520  176.8310  138.7230 C   0  0  0  0  0  2  0  0  0  0  0  0
  184.5940  175.0110  136.4300 C   0  0  0  0  0  0  0  0  0  0  0  0
  191.3930  176.8770  142.7630 O   0  0  0  0  0  1  0  0  0  0  0  0
  190.1750  176.2440  142.5080 C   0  0  2  0  0  3  0  0  0  0  0  0
  189.7060  175.0300  134.8760 C   0  0  0  0  0  0  0  0  0  0  0  0
  188.5340  175.7010  134.5940 C   0  0  1  0  0  3  0  0  0  0  0  0
  191.0180  174.9930  135.0510 C   0  0  0  0  0  2  0  0  0  0  0  0
  188.3640  174.3650  134.8450 O   0  0  0  0  0  0  0  0  0  0  0  0
  181.0470  176.7560  140.5730 O   0  0  0  0  0  0  0  0  0  0  0  0
  181.3320  175.4570  141.0050 C   0  0  0  0  0  2  0  0  0  0  0  0
  179.2650  175.4250  142.3970 O   0  0  0  0  0  1  0  0  0  0  0  0
  180.0780  174.7980  141.4610 C   0  0  0  0  0  0  0  0  0  0  0  0
  179.7760  173.6530  141.0340 O   0  0  0  0  0  0  0  0  0  0  0  0
  183.6900  174.4220  135.3950 C   0  0  0  0  0  2  0  0  0  0  0  0
  183.1480  173.1940  135.8320 O   0  0  0  0  0  0  0  0  0  0  0  0
  181.6620  172.0160  134.5940 O   0  0  0  0  0  1  0  0  0  0  0  0
  181.7810  173.0940  135.4740 C   0  0  1  0  0  0  0  0  0  0  0  0
  180.7540  172.7270  136.9550 P   0  0  0  0  0  0  0  0  0  0  0  0
  181.2120  171.2400  137.6210 O   0  0  0  0  0  1  0  0  0  0  0  0
  179.1280  172.6540  136.4970 O   0  0  0  0  0  0  0  0  0  0  0  0
  180.9250  173.8120  137.9940 O   0  0  0  0  0  1  0  0  0  0  0  0
  181.3020  174.3770  134.7540 C   0  0  0  0  0  2  0  0  0  0  0  0
  178.9590  174.3910  135.0490 O   0  0  0  0  0  0  0  0  0  0  0  0
  180.0190  174.9510  135.2810 C   0  0  0  0  0  0  0  0  0  0  0  0
  179.8750  177.4020  135.4490 N   0  0  0  0  0  2  0  0  0  0  0  0
  181.1620  177.0730  136.0910 C   0  0  0  0  0  2  0  0  0  0  0  0
  179.2520  176.1330  137.4810 C   0  0  0  0  0  1  0  0  0  0  0  0
  180.0450  176.1430  136.1870 C   0  0  2  0  0  0  0  0  0  0  0  0
  188.3830  177.2970  145.8850 C   0  0  1  0  0  3  0  0  0  0  0  0
  186.9360  177.1330  146.3530 C   0  0  0  0  0  2  0  0  0  0  0  0
  186.5670  178.2200  147.3530 C   0  0  1  0  0  3  0  0  0  0  0  0
  187.7220  178.7080  147.9640 O   0  0  0  0  0  1  0  0  0  0  0  0
  184.6720  179.1770  146.2170 N   0  0  0  0  0  2  0  0  0  0  0  0
  185.8670  179.3370  146.6570 C   0  0  0  0  0  3  0  0  0  0  0  0
  189.2750  176.3250  146.6470 C   0  0  0  0  0  2  0  0  0  0  0  0
  189.9350  177.0330  147.8130 C   0  0  0  0  0  2  0  0  0  0  0  0
  191.2820  177.2560  147.5280 O   0  0  0  0  0  0  0  0  0  0  0  0
  191.7820  176.0000  147.1880 C   0  0  0  0  0  2  0  0  0  0  0  0
  192.8700  175.6010  148.1660 C   0  0  0  0  0  1  0  0  0  0  0  0
  1  5  1  0  0  0  0
  2 15  1  0  0  0  0
  3  4  1  0  0  0  0
  4 13  1  0  0  0  0
  5  2  1  0  0  0  0
  6 19  1  0  0  0  0
  6  3  1  0  0  0  0
  7 27  1  0  0  0  0
  7  9  1  0  0  0  0
  8  5  1  0  0  0  0
  8 33  1  0  0  0  0
 10 23  1  0  0  0  0
 11 20  2  0  0  0  0
 11  5  1  0  0  0  0
 12  4  1  0  0  0  0
 13  8  1  0  0  0  0
 14  9  1  0  0  0  0
 14 38  1  0  0  0  0
 15 58  1  0  0  0  0
 16 30  1  0  0  0  0
 17 20  1  0  0  0  0
 18 25  1  0  0  0  0
 20 10  1  0  0  0  0
 21  9  1  0  0  0  0
 22 16  2  0  0  0  0
 23  2  1  0  0  0  0
 23 15  1  0  0  0  0
 24  7  1  0  0  0  0
 25 31  1  0  0  0  0
 26  6  1  0  0  0  0
 26 12  1  0  0  0  0
 27 17  1  0  0  0  0
 28 15  1  0  0  0  0
 29 18  1  0  0  0  0
 29 26  1  0  0  0  0
 30 14  1  0  0  0  0
 31 22  2  0  0  0  0
 33 32  1  0  0  0  0
 33 28  1  0  0  0  0
 34 36  2  0  0  0  0
 35 37  1  0  0  0  0
 35 34  1  0  0  0  0
 35 29  1  0  0  0  0
 37 34  1  0  0  0  0
 38 39  1  0  0  0  0
 39 41  1  0  0  0  0
 41 40  1  0  0  0  0
 42 41  2  0  0  0  0
 43 44  1  0  0  0  0
 43 31  1  0  0  0  0
 45 46  1  0  0  0  0
 46 44  1  0  0  0  0
 46 47  1  0  0  0  0
 47 48  1  0  0  0  0
 47 50  1  0  0  0  0
 49 47  2  0  0  0  0
 51 53  1  0  0  0  0
 51 46  1  0  0  0  0
 52 53  2  0  0  0  0
 53 57  1  0  0  0  0
 54 55  1  0  0  0  0
 54 57  1  0  0  0  0
 55 57  1  0  0  0  0
 57 56  1  0  0  0  0
 58 59  1  0  0  0  0
 58 64  1  0  0  0  0
 59 60  1  0  0  0  0
 60 61  1  0  0  0  0
 62 63  2  0  0  0  0
 63 60  1  0  0  0  0
 64 65  1  0  0  0  0
 66 65  1  0  0  0  0
 67 66  1  0  0  0  0
 67 68  1  0  0  0  0
M  END
>  <MODEL>
2

>  <REMARK>
 VINA RESULT:      -0.7      1.391      1.799
  Name = 
  19 active torsions:
  status: ('A' for Active; 'I' for Inactive)
    1  A    between atoms: O_2  and  C_3
    2  A    between atoms: O_2  and  C_42
    3  A    between atoms: C_9  and  C_59
    4  A    between atoms: C_10  and  C_29
    5  A    between atoms: C_10  and  C_42
    6  A    between atoms: C_13  and  C_56
    7  A    between atoms: C_13  and  C_58
    8  A    between atoms: C_18  and  C_46
    9  A    between atoms: C_18  and  O_50
   10  A    between atoms: P_25  and  C_68
   11  A    between atoms: C_28  and  O_50
   12  A    between atoms: C_29  and  C_30
   13  A    between atoms: C_29  and  C_56
   14  A    between atoms: C_38  and  C_48
   15  A    between atoms: C_38  and  C_55
   16  A    between atoms: C_44  and  O_60
   17  A    between atoms: C_44  and  C_62
   18  A    between atoms: C_48  and  C_68
   19  A    between atoms: O_60  and  C_68
                            x       y       z     vdW  Elec       q    Type
                         _______ _______ _______ _____ _____    ______ ____

>  <TORSDO>
F 19

$$$$
=
 OpenBabel11062414413D

 68 74  0  0  1  0  0  0  0  0999 V2000
  190.0550  179.9990  142.5180 C   0  0  0  0  0  1  0  0  0  0  0  0
  188.6840  178.0670  143.2420 C   0  0  2  0  0  3  0  0  0  0  0  0
  194.0370  176.9320  141.0870 C   0  0  0  0  0  2  0  0  0  0  0  0
  192.5620  177.2090  140.8290 C   0  0  2  0  0  3  0  0  0  0  0  0
  189.7530  178.5340  142.2430 C   0  0  2  0  0  0  0  0  0  0  0  0
  194.6590  176.6480  139.7390 C   0  0  1  0  0  3  0  0  0  0  0  0
  187.5580  176.8650  136.9360 C   0  0  1  0  0  3  0  0  0  0  0  0
  191.0320  177.6700  142.3620 C   0  0  1  0  0  3  0  0  0  0  0  0
  186.2270  175.5520  137.0200 P   0  0  2  0  0  0  0  0  0  0  0  0
  187.5220  176.8930  141.7500 O   0  0  0  0  0  0  0  0  0  0  0  0
  189.1150  178.4340  140.8600 C   0  0  0  0  0  3  0  0  0  0  0  0
  192.4320  177.6320  139.3730 C   0  0  0  0  0  2  0  0  0  0  0  0
  192.1130  178.2290  141.6720 O   0  0  0  0  0  0  0  0  0  0  0  0
  187.2810  174.0570  137.4110 C   0  0  2  0  0  3  0  0  0  0  0  0
  188.8420  176.9860  144.2190 C   0  0  1  0  0  0  0  0  0  0  0  0
  189.7230  173.8040  137.3750 C   0  0  0  0  0  3  0  0  0  0  0  0
  187.3320  177.6210  139.3480 C   0  0  0  0  0  2  0  0  0  0  0  0
  192.7870  176.2610  136.7170 C   0  0  0  0  0  2  0  0  0  0  0  0
  194.5750  175.1550  139.4720 C   0  0  0  0  0  1  0  0  0  0  0  0
  188.0230  177.6550  140.6680 C   0  0  0  0  0  0  0  0  0  0  0  0
  186.1010  175.2880  135.3090 O   0  0  0  0  0  1  0  0  0  0  0  0
  190.9020  173.8610  136.8280 C   0  0  0  0  0  0  0  0  0  0  0  0
  188.4420  176.5790  142.7920 C   0  0  2  0  0  3  0  0  0  0  0  0
  186.9950  178.1710  136.4050 C   0  0  0  0  0  1  0  0  0  0  0  0
  193.1430  174.7860  136.8510 C   0  0  0  0  0  2  0  0  0  0  0  0
  193.8200  177.4850  138.7780 C   0  0  2  0  0  3  0  0  0  0  0  0
  188.2560  177.0500  138.2800 C   0  0  0  0  0  2  0  0  0  0  0  0
  190.2910  176.5770  144.5560 C   0  0  0  0  0  2  0  0  0  0  0  0
  193.8700  177.2040  137.2620 C   0  0  1  0  0  3  0  0  0  0  0  0
  188.5190  174.0140  136.5290 C   0  0  0  0  0  2  0  0  0  0  0  0
  192.0760  173.9320  136.2550 C   0  0  0  0  0  0  0  0  0  0  0  0
  191.6880  178.5380  144.5280 O   0  0  0  0  0  1  0  0  0  0  0  0
  191.3960  177.3650  143.8280 C   0  0  2  0  0  3  0  0  0  0  0  0
  195.1940  176.3430  135.4780 C   0  0  0  0  0  0  0  0  0  0  0  0
  195.2750  176.9180  136.7300 C   0  0  1  0  0  3  0  0  0  0  0  0
  194.9580  175.3160  134.6770 C   0  0  0  0  0  2  0  0  0  0  0  0
  195.5690  177.7760  135.7040 O   0  0  0  0  0  0  0  0  0  0  0  0
  186.5290  172.8940  137.2220 O   0  0  0  0  0  0  0  0  0  0  0  0
  185.2280  173.2360  137.6010 C   0  0  0  0  0  2  0  0  0  0  0  0
  183.0630  172.0010  137.6180 O   0  0  0  0  0  1  0  0  0  0  0  0
  184.2630  172.2890  136.9800 C   0  0  0  0  0  0  0  0  0  0  0  0
  184.5530  171.7130  135.8990 O   0  0  0  0  0  0  0  0  0  0  0  0
  192.4160  173.0610  135.0870 C   0  0  0  0  0  2  0  0  0  0  0  0
  193.8120  173.0010  134.8850 O   0  0  0  0  0  0  0  0  0  0  0  0
  194.1250  172.5870  137.0900 O   0  0  0  0  0  1  0  0  0  0  0  0
  194.4120  172.1100  135.8080 C   0  0  1  0  0  0  0  0  0  0  0  0
  193.6760  170.4320  135.6550 P   0  0  0  0  0  0  0  0  0  0  0  0
  192.0410  170.5550  135.2390 O   0  0  0  0  0  1  0  0  0  0  0  0
  193.8150  169.6280  137.1370 O   0  0  0  0  0  1  0  0  0  0  0  0
  194.4010  169.6350  134.5940 O   0  0  0  0  0  0  0  0  0  0  0  0
  195.9480  172.0760  135.6260 C   0  0  0  0  0  2  0  0  0  0  0  0
  196.4950  171.0710  137.6910 O   0  0  0  0  0  0  0  0  0  0  0  0
  196.7300  171.9730  136.9030 C   0  0  0  0  0  0  0  0  0  0  0  0
  198.9480  172.7440  136.1680 N   0  0  0  0  0  2  0  0  0  0  0  0
  199.1560  172.3400  137.5720 C   0  0  0  0  0  2  0  0  0  0  0  0
  197.6150  174.3610  137.4850 C   0  0  0  0  0  1  0  0  0  0  0  0
  197.8760  172.9020  137.1600 C   0  0  2  0  0  0  0  0  0  0  0  0
  187.7550  176.8340  145.3030 C   0  0  1  0  0  3  0  0  0  0  0  0
  188.3110  176.6200  146.7120 C   0  0  0  0  0  2  0  0  0  0  0  0
  189.2700  177.7400  147.0890 C   0  0  1  0  0  3  0  0  0  0  0  0
  188.5490  178.8310  147.5750 O   0  0  0  0  0  1  0  0  0  0  0  0
  191.3700  176.8070  147.8090 N   0  0  0  0  0  2  0  0  0  0  0  0
  190.2180  177.2680  148.1390 C   0  0  0  0  0  3  0  0  0  0  0  0
  186.8140  178.0330  145.3070 C   0  0  0  0  0  2  0  0  0  0  0  0
  185.9220  177.9870  146.5310 C   0  0  0  0  0  2  0  0  0  0  0  0
  184.6250  178.3620  146.1820 O   0  0  0  0  0  0  0  0  0  0  0  0
  184.6880  178.6170  144.8130 C   0  0  0  0  0  2  0  0  0  0  0  0
  183.5730  179.5650  144.4180 C   0  0  0  0  0  1  0  0  0  0  0  0
  2 15  1  0  0  0  0
  4  3  1  0  0  0  0
  4 13  1  0  0  0  0
  5  8  1  0  0  0  0
  5  1  1  0  0  0  0
  5  2  1  0  0  0  0
  6  3  1  0  0  0  0
  7  9  1  0  0  0  0
  7 27  1  0  0  0  0
  8 33  1  0  0  0  0
  9 14  1  0  0  0  0
 10 23  1  0  0  0  0
 11  5  1  0  0  0  0
 12  4  1  0  0  0  0
 13  8  1  0  0  0  0
 15 28  1  0  0  0  0
 15 58  1  0  0  0  0
 17 20  1  0  0  0  0
 18 25  1  0  0  0  0
 18 29  1  0  0  0  0
 19  6  1  0  0  0  0
 20 11  2  0  0  0  0
 20 10  1  0  0  0  0
 21  9  1  0  0  0  0
 22 16  2  0  0  0  0
 23  2  1  0  0  0  0
 23 15  1  0  0  0  0
 24  7  1  0  0  0  0
 26 12  1  0  0  0  0
 26  6  1  0  0  0  0
 27 17  1  0  0  0  0
 29 26  1  0  0  0  0
 30 16  1  0  0  0  0
 30 14  1  0  0  0  0
 31 22  2  0  0  0  0
 31 25  1  0  0  0  0
 33 32  1  0  0  0  0
 33 28  1  0  0  0  0
 34 37  1  0  0  0  0
 34 35  1  0  0  0  0
 35 29  1  0  0  0  0
 36 34  2  0  0  0  0
 37 35  1  0  0  0  0
 38 14  1  0  0  0  0
 38 39  1  0  0  0  0
 41 39  1  0  0  0  0
 41 40  1  0  0  0  0
 42 41  2  0  0  0  0
 43 31  1  0  0  0  0
 44 43  1  0  0  0  0
 44 46  1  0  0  0  0
 46 45  1  0  0  0  0
 47 46  1  0  0  0  0
 47 49  1  0  0  0  0
 48 47  1  0  0  0  0
 50 47  2  0  0  0  0
 51 46  1  0  0  0  0
 51 53  1  0  0  0  0
 53 57  1  0  0  0  0
 53 52  2  0  0  0  0
 54 57  1  0  0  0  0
 54 55  1  0  0  0  0
 57 56  1  0  0  0  0
 57 55  1  0  0  0  0
 58 64  1  0  0  0  0
 58 59  1  0  0  0  0
 59 60  1  0  0  0  0
 60 61  1  0  0  0  0
 60 63  1  0  0  0  0
 62 63  2  0  0  0  0
 64 65  1  0  0  0  0
 66 65  1  0  0  0  0
 67 66  1  0  0  0  0
 68 67  1  0  0  0  0
M  END
>  <MODEL>
3

>  <REMARK>
 VINA RESULT:      -0.3      4.208      7.747
  Name = 
  19 active torsions:
  status: ('A' for Active; 'I' for Inactive)
    1  A    between atoms: O_2  and  C_3
    2  A    between atoms: O_2  and  C_42
    3  A    between atoms: C_9  and  C_59
    4  A    between atoms: C_10  and  C_29
    5  A    between atoms: C_10  and  C_42
    6  A    between atoms: C_13  and  C_56
    7  A    between atoms: C_13  and  C_58
    8  A    between atoms: C_18  and  C_46
    9  A    between atoms: C_18  and  O_50
   10  A    between atoms: P_25  and  C_68
   11  A    between atoms: C_28  and  O_50
   12  A    between atoms: C_29  and  C_30
   13  A    between atoms: C_29  and  C_56
   14  A    between atoms: C_38  and  C_48
   15  A    between atoms: C_38  and  C_55
   16  A    between atoms: C_44  and  O_60
   17  A    between atoms: C_44  and  C_62
   18  A    between atoms: C_48  and  C_68
   19  A    between atoms: O_60  and  C_68
                            x       y       z     vdW  Elec       q    Type
                         _______ _______ _______ _____ _____    ______ ____

>  <TORSDO>
F 19

$$$$
