=
 OpenBabel11062413253D

 46 49  0  0  1  0  0  0  0  0999 V2000
  189.4320  178.0950  136.8950 C   0  0  0  0  0  1  0  0  0  0  0  0
  190.4090  177.3370  143.0820 O   0  0  0  0  0  0  0  0  0  0  0  0
  183.5040  177.7630  140.3170 C   0  0  1  0  0  3  0  0  0  0  0  0
  183.6680  179.1940  139.8090 C   0  0  0  0  0  2  0  0  0  0  0  0
  187.0050  177.6300  144.5630 N   0  0  0  0  0  0  0  0  0  0  0  0
  182.8220  179.0580  142.8240 O   0  0  0  0  0  0  0  0  0  0  0  0
  188.5600  177.1160  140.7040 C   0  0  0  0  0  2  0  0  0  0  0  0
  187.7450  176.5300  137.9440 C   0  0  0  0  0  2  0  0  0  0  0  0
  183.8480  178.3230  142.7990 C   0  0  0  0  0  0  0  0  0  0  0  0
  186.1210  177.9790  143.6830 C   0  0  0  0  0  3  0  0  0  0  0  0
  190.9690  177.9550  140.7840 C   0  0  0  0  0  2  0  0  0  0  0  0
  185.0670  178.9400  137.7970 C   0  0  0  0  0  3  0  0  0  0  0  0
  186.7220  177.0880  137.0050 C   0  0  0  0  0  3  0  0  0  0  0  0
  185.8970  178.0130  137.4080 C   0  0  0  0  0  0  0  0  0  0  0  0
  184.1890  177.6080  141.6020 N   0  0  0  0  0  2  0  0  0  0  0  0
  188.4070  177.4390  144.2940 C   0  0  0  0  0  3  0  0  0  0  0  0
  188.2900  178.0340  141.8790 C   0  0  0  0  0  2  0  0  0  0  0  0
  184.6800  178.1350  144.0410 C   0  0  1  0  0  3  0  0  0  0  0  0
  189.2200  176.7000  137.5010 C   0  0  2  0  0  0  0  0  0  0  0  0
  189.7640  177.5990  139.8900 C   0  0  1  0  0  3  0  0  0  0  0  0
  185.0510  179.3980  139.2140 C   0  0  0  0  0  2  0  0  0  0  0  0
  191.1530  176.9580  141.9220 C   0  0  0  0  0  2  0  0  0  0  0  0
  191.4710  176.6710  138.4490 O   0  0  0  0  0  1  0  0  0  0  0  0
  189.0260  177.5790  143.1110 C   0  0  0  0  0  0  0  0  0  0  0  0
  190.1130  176.5790  138.7780 C   0  0  2  0  0  3  0  0  0  0  0  0
  189.5850  175.5780  136.4600 C   0  0  1  0  0  0  0  0  0  0  0  0
  188.9940  174.2050  136.8420 C   0  0  2  0  0  3  0  0  0  0  0  0
  186.1380  172.9630  136.0840 C   0  0  0  0  0  2  0  0  0  0  0  0
  189.0320  175.8710  135.0540 C   0  0  0  0  0  2  0  0  0  0  0  0
  189.9370  173.3910  137.4770 O   0  0  0  0  0  1  0  0  0  0  0  0
  188.0990  174.7400  134.6610 C   0  0  2  0  0  3  0  0  0  0  0  0
  186.6620  175.2040  134.9450 C   0  0  0  0  0  2  0  0  0  0  0  0
  190.9780  175.4810  136.3520 O   0  0  0  0  0  1  0  0  0  0  0  0
  187.5100  172.4490  135.6710 C   0  0  1  0  0  3  0  0  0  0  0  0
  188.5520  173.5740  135.5380 C   0  0  2  0  0  3  0  0  0  0  0  0
  184.6500  174.0220  134.5940 O   0  0  0  0  0  0  0  0  0  0  0  0
  187.9440  171.4680  136.5640 O   0  0  0  0  0  1  0  0  0  0  0  0
  185.7360  174.0500  135.1470 C   0  0  0  0  0  0  0  0  0  0  0  0
  184.9830  180.5200  144.7170 O   0  0  0  0  0  0  0  0  0  0  0  0
  184.5010  179.2550  145.0240 C   0  0  0  0  0  0  0  0  0  0  0  0
  183.9180  179.0590  146.1240 O   0  0  0  0  0  1  0  0  0  0  0  0
  181.7840  176.0490  139.6970 C   0  0  0  0  0  1  0  0  0  0  0  0
  182.0270  177.3670  140.4170 C   0  0  2  0  0  3  0  0  0  0  0  0
  181.1420  178.4430  139.7980 C   0  0  0  0  0  2  0  0  0  0  0  0
  179.9880  178.8000  140.7210 C   0  0  0  0  0  2  0  0  0  0  0  0
  180.1440  180.1030  141.1970 O   0  0  0  0  0  1  0  0  0  0  0  0
  2 24  1  0  0  0  0
  3 43  1  1  0  0  0
  3 15  1  0  0  0  0
  4  3  1  0  0  0  0
  7 17  1  0  0  0  0
  9  6  2  0  0  0  0
  9 18  1  0  0  0  0
 10 18  1  0  0  0  0
 10  5  2  0  0  0  0
 11 22  1  0  0  0  0
 12 21  1  0  0  0  0
 13 14  2  0  0  0  0
 13  8  1  0  0  0  0
 14 12  2  0  0  0  0
 15  9  1  0  0  0  0
 16  5  1  0  0  0  0
 17 24  1  0  0  0  0
 18 40  1  1  0  0  0
 19  1  1  6  0  0  0
 19  8  1  0  0  0  0
 19 25  1  0  0  0  0
 20  7  1  1  0  0  0
 20 11  1  0  0  0  0
 21  4  1  0  0  0  0
 22  2  1  0  0  0  0
 24 16  2  0  0  0  0
 25 23  1  6  0  0  0
 25 20  1  0  0  0  0
 26 33  1  6  0  0  0
 26 27  1  0  0  0  0
 26 19  1  0  0  0  0
 27 30  1  6  0  0  0
 29 26  1  0  0  0  0
 31 32  1  1  0  0  0
 31 29  1  0  0  0  0
 31 35  1  0  0  0  0
 32 38  1  0  0  0  0
 34 28  1  0  0  0  0
 34 37  1  1  0  0  0
 35 34  1  0  0  0  0
 35 27  1  0  0  0  0
 36 38  2  0  0  0  0
 38 28  1  0  0  0  0
 39 40  2  0  0  0  0
 40 41  1  0  0  0  0
 42 43  1  0  0  0  0
 44 43  1  0  0  0  0
 44 45  1  0  0  0  0
 45 46  1  0  0  0  0
M  END
>  <MODEL>
1

>  <REMARK>
 VINA RESULT:      -7.7      0.000      0.000
  Name = 
  5 active torsions:
  status: ('A' for Active; 'I' for Inactive)
    1  A    between atoms: C_1  and  C_35
    2  A    between atoms: C_7  and  C_32
    3  A    between atoms: C_9  and  C_46
    4  A    between atoms: C_25  and  C_30
    5  A    between atoms: C_32  and  C_46
                            x       y       z     vdW  Elec       q    Type
                         _______ _______ _______ _____ _____    ______ ____

>  <TORSDO>
F 5

$$$$
=
 OpenBabel11062413253D

 46 49  0  0  1  0  0  0  0  0999 V2000
  182.5130  176.7050  135.7230 C   0  0  0  0  0  1  0  0  0  0  0  0
  185.5470  171.2090  135.0900 O   0  0  0  0  0  0  0  0  0  0  0  0
  188.8330  177.0450  138.3520 C   0  0  1  0  0  3  0  0  0  0  0  0
  188.8050  177.9140  137.0960 C   0  0  0  0  0  2  0  0  0  0  0  0
  189.0060  171.9640  136.2430 N   0  0  0  0  0  0  0  0  0  0  0  0
  191.2940  176.0130  137.2090 O   0  0  0  0  0  0  0  0  0  0  0  0
  185.2850  173.8800  136.4760 C   0  0  0  0  0  2  0  0  0  0  0  0
  183.9360  176.1600  137.7420 C   0  0  0  0  0  2  0  0  0  0  0  0
  190.3330  175.2090  137.3680 C   0  0  0  0  0  0  0  0  0  0  0  0
  189.1760  173.2260  136.4750 C   0  0  0  0  0  3  0  0  0  0  0  0
  183.8580  172.9070  134.5970 C   0  0  0  0  0  2  0  0  0  0  0  0
  186.4480  178.6150  136.9270 C   0  0  0  0  0  3  0  0  0  0  0  0
  184.2280  177.6230  137.8650 C   0  0  0  0  0  3  0  0  0  0  0  0
  185.3400  178.1120  137.3950 C   0  0  0  0  0  0  0  0  0  0  0  0
  189.1200  175.6560  137.9910 N   0  0  0  0  0  2  0  0  0  0  0  0
  187.7790  171.3660  135.7840 C   0  0  0  0  0  3  0  0  0  0  0  0
  186.4930  173.4940  135.6460 C   0  0  0  0  0  2  0  0  0  0  0  0
  190.4780  173.7620  136.9720 C   0  0  1  0  0  3  0  0  0  0  0  0
  182.6490  175.8010  136.9570 C   0  0  2  0  0  0  0  0  0  0  0  0
  184.0450  174.0660  135.5960 C   0  0  1  0  0  3  0  0  0  0  0  0
  187.4970  177.7320  136.3450 C   0  0  0  0  0  2  0  0  0  0  0  0
  184.1660  171.5530  135.2250 C   0  0  0  0  0  2  0  0  0  0  0  0
  181.6390  173.9070  135.7920 O   0  0  0  0  0  1  0  0  0  0  0  0
  186.6220  171.9990  135.5280 C   0  0  0  0  0  0  0  0  0  0  0  0
  182.7920  174.3230  136.4680 C   0  0  2  0  0  3  0  0  0  0  0  0
  181.4010  175.9560  137.9020 C   0  0  1  0  0  0  0  0  0  0  0  0
  181.7410  176.7000  139.2100 C   0  0  2  0  0  3  0  0  0  0  0  0
  181.6720  179.8470  139.8110 C   0  0  0  0  0  2  0  0  0  0  0  0
  180.2690  176.7780  137.2600 C   0  0  0  0  0  2  0  0  0  0  0  0
  181.9570  175.8150  140.2710 O   0  0  0  0  0  1  0  0  0  0  0  0
  180.0080  177.9930  138.1310 C   0  0  2  0  0  3  0  0  0  0  0  0
  180.7550  179.1810  137.5060 C   0  0  0  0  0  2  0  0  0  0  0  0
  180.8840  174.6880  138.1980 O   0  0  0  0  0  1  0  0  0  0  0  0
  180.8130  178.7650  140.4490 C   0  0  1  0  0  3  0  0  0  0  0  0
  180.5440  177.5820  139.5000 C   0  0  2  0  0  3  0  0  0  0  0  0
  180.8360  181.4160  138.2610 O   0  0  0  0  0  0  0  0  0  0  0  0
  181.3970  178.3280  141.6390 O   0  0  0  0  0  1  0  0  0  0  0  0
  181.0510  180.2420  138.5140 C   0  0  0  0  0  0  0  0  0  0  0  0
  191.3430  173.9550  134.6370 O   0  0  0  0  0  0  0  0  0  0  0  0
  191.5570  173.5550  135.9490 C   0  0  0  0  0  0  0  0  0  0  0  0
  192.6530  173.0220  136.2680 O   0  0  0  0  0  1  0  0  0  0  0  0
  190.2190  176.4770  140.3610 C   0  0  0  0  0  1  0  0  0  0  0  0
  189.8370  177.5760  139.3810 C   0  0  2  0  0  3  0  0  0  0  0  0
  189.2400  178.7470  140.1550 C   0  0  0  0  0  2  0  0  0  0  0  0
  188.0720  178.2950  141.0160 C   0  0  0  0  0  2  0  0  0  0  0  0
  186.8910  178.8870  140.5660 O   0  0  0  0  0  1  0  0  0  0  0  0
  2 22  1  0  0  0  0
  2 24  1  0  0  0  0
  3 43  1  1  0  0  0
  4  3  1  0  0  0  0
  5 10  2  0  0  0  0
  6  9  2  0  0  0  0
  8 13  1  0  0  0  0
  9 15  1  0  0  0  0
 10 18  1  0  0  0  0
 11 22  1  0  0  0  0
 12 14  2  0  0  0  0
 14 13  2  0  0  0  0
 15  3  1  0  0  0  0
 16  5  1  0  0  0  0
 17  7  1  0  0  0  0
 18 40  1  6  0  0  0
 18  9  1  0  0  0  0
 19  1  1  6  0  0  0
 19  8  1  0  0  0  0
 19 26  1  0  0  0  0
 20 11  1  1  0  0  0
 20 25  1  0  0  0  0
 20  7  1  0  0  0  0
 21 12  1  0  0  0  0
 21  4  1  0  0  0  0
 24 17  1  0  0  0  0
 24 16  2  0  0  0  0
 25 23  1  6  0  0  0
 25 19  1  0  0  0  0
 26 33  1  1  0  0  0
 26 27  1  0  0  0  0
 27 35  1  0  0  0  0
 27 30  1  1  0  0  0
 28 34  1  0  0  0  0
 29 26  1  0  0  0  0
 31 29  1  6  0  0  0
 31 35  1  0  0  0  0
 32 31  1  0  0  0  0
 32 38  1  0  0  0  0
 34 37  1  1  0  0  0
 35 34  1  0  0  0  0
 36 38  2  0  0  0  0
 38 28  1  0  0  0  0
 39 40  2  0  0  0  0
 40 41  1  0  0  0  0
 43 44  1  0  0  0  0
 43 42  1  0  0  0  0
 44 45  1  0  0  0  0
 46 45  1  0  0  0  0
M  END
>  <MODEL>
2

>  <REMARK>
 VINA RESULT:      -6.0      2.787      8.861
  Name = 
  5 active torsions:
  status: ('A' for Active; 'I' for Inactive)
    1  A    between atoms: C_1  and  C_35
    2  A    between atoms: C_7  and  C_32
    3  A    between atoms: C_9  and  C_46
    4  A    between atoms: C_25  and  C_30
    5  A    between atoms: C_32  and  C_46
                            x       y       z     vdW  Elec       q    Type
                         _______ _______ _______ _____ _____    ______ ____

>  <TORSDO>
F 5

$$$$
=
 OpenBabel11062413253D

 46 49  0  0  1  0  0  0  0  0999 V2000
  182.9920  179.1530  137.9500 C   0  0  0  0  0  1  0  0  0  0  0  0
  187.7530  176.2350  135.0120 O   0  0  0  0  0  0  0  0  0  0  0  0
  187.8850  177.3140  142.3820 C   0  0  1  0  0  3  0  0  0  0  0  0
  187.9010  178.8370  142.2790 C   0  0  0  0  0  2  0  0  0  0  0  0
  190.3150  175.8050  137.6790 N   0  0  0  0  0  0  0  0  0  0  0  0
  190.7590  177.5690  142.0670 O   0  0  0  0  0  0  0  0  0  0  0  0
  186.2470  176.8100  137.5670 C   0  0  0  0  0  2  0  0  0  0  0  0
  183.9230  177.2350  139.3110 C   0  0  0  0  0  2  0  0  0  0  0  0
  190.1200  176.9440  141.1760 C   0  0  0  0  0  0  0  0  0  0  0  0
  189.9810  176.4090  138.7750 C   0  0  0  0  0  3  0  0  0  0  0  0
  185.7870  177.6760  135.2100 C   0  0  0  0  0  2  0  0  0  0  0  0
  185.5820  179.4020  141.6670 C   0  0  0  0  0  3  0  0  0  0  0  0
  183.6610  178.0480  140.5390 C   0  0  0  0  0  3  0  0  0  0  0  0
  184.6260  178.7220  141.0990 C   0  0  0  0  0  0  0  0  0  0  0  0
  188.7080  176.7320  141.3210 N   0  0  0  0  0  2  0  0  0  0  0  0
  189.5310  175.7920  136.4720 C   0  0  0  0  0  3  0  0  0  0  0  0
  187.6890  177.2220  137.3460 C   0  0  0  0  0  2  0  0  0  0  0  0
  190.8450  176.3550  139.9930 C   0  0  1  0  0  3  0  0  0  0  0  0
  183.0910  177.6250  138.0630 C   0  0  2  0  0  0  0  0  0  0  0  0
  185.2990  177.6140  136.6710 C   0  0  1  0  0  3  0  0  0  0  0  0
  186.9810  179.3100  141.1660 C   0  0  0  0  0  2  0  0  0  0  0  0
  186.3540  176.3420  134.7380 C   0  0  0  0  0  2  0  0  0  0  0  0
  183.1280  177.3580  135.6350 O   0  0  0  0  0  1  0  0  0  0  0  0
  188.3410  176.3840  136.2780 C   0  0  0  0  0  0  0  0  0  0  0  0
  183.8490  177.0890  136.8050 C   0  0  2  0  0  3  0  0  0  0  0  0
  181.6600  176.9790  138.1670 C   0  0  1  0  0  0  0  0  0  0  0  0
  181.2740  176.6340  139.6200 C   0  0  2  0  0  3  0  0  0  0  0  0
  179.8090  178.4680  141.8020 C   0  0  0  0  0  2  0  0  0  0  0  0
  180.5470  177.9210  137.6730 C   0  0  0  0  0  2  0  0  0  0  0  0
  181.4880  175.2830  139.9090 O   0  0  0  0  0  1  0  0  0  0  0  0
  179.5850  178.1670  138.8210 C   0  0  2  0  0  3  0  0  0  0  0  0
  179.9620  179.5130  139.4610 C   0  0  0  0  0  2  0  0  0  0  0  0
  181.6140  175.8240  137.3760 O   0  0  0  0  0  1  0  0  0  0  0  0
  179.2910  177.1800  141.1780 C   0  0  1  0  0  3  0  0  0  0  0  0
  179.8020  176.9680  139.7410 C   0  0  2  0  0  3  0  0  0  0  0  0
  178.9360  180.5970  141.2890 O   0  0  0  0  0  0  0  0  0  0  0  0
  179.6120  176.0910  141.9890 O   0  0  0  0  0  1  0  0  0  0  0  0
  179.5040  179.5990  140.8800 C   0  0  0  0  0  0  0  0  0  0  0  0
  192.8690  176.7290  138.5790 O   0  0  0  0  0  0  0  0  0  0  0  0
  192.1610  177.0290  139.7350 C   0  0  0  0  0  0  0  0  0  0  0  0
  192.6280  177.8630  140.5550 O   0  0  0  0  0  1  0  0  0  0  0  0
  187.1380  176.6630  144.6850 C   0  0  0  0  0  1  0  0  0  0  0  0
  188.3380  176.8380  143.7670 C   0  0  2  0  0  3  0  0  0  0  0  0
  189.2980  177.8470  144.3910 C   0  0  0  0  0  2  0  0  0  0  0  0
  190.0290  177.2440  145.5800 C   0  0  0  0  0  2  0  0  0  0  0  0
  191.4070  177.3140  145.3770 O   0  0  0  0  0  1  0  0  0  0  0  0
  2 24  1  0  0  0  0
  3 43  1  1  0  0  0
  4  3  1  0  0  0  0
  5 10  2  0  0  0  0
  8 13  1  0  0  0  0
  9 15  1  0  0  0  0
  9  6  2  0  0  0  0
 10 18  1  0  0  0  0
 13 14  2  0  0  0  0
 14 12  2  0  0  0  0
 15  3  1  0  0  0  0
 16  5  1  0  0  0  0
 17  7  1  0  0  0  0
 18 40  1  6  0  0  0
 18  9  1  0  0  0  0
 19  1  1  6  0  0  0
 19 26  1  0  0  0  0
 19  8  1  0  0  0  0
 20 11  1  6  0  0  0
 20 25  1  0  0  0  0
 20  7  1  0  0  0  0
 21 12  1  0  0  0  0
 21  4  1  0  0  0  0
 22  2  1  0  0  0  0
 22 11  1  0  0  0  0
 24 16  2  0  0  0  0
 24 17  1  0  0  0  0
 25 23  1  6  0  0  0
 25 19  1  0  0  0  0
 26 33  1  6  0  0  0
 26 27  1  0  0  0  0
 27 35  1  0  0  0  0
 27 30  1  6  0  0  0
 29 26  1  0  0  0  0
 31 29  1  6  0  0  0
 31 32  1  0  0  0  0
 31 35  1  0  0  0  0
 32 38  1  0  0  0  0
 34 28  1  0  0  0  0
 34 37  1  1  0  0  0
 35 34  1  0  0  0  0
 38 36  2  0  0  0  0
 38 28  1  0  0  0  0
 39 40  2  0  0  0  0
 40 41  1  0  0  0  0
 43 44  1  0  0  0  0
 43 42  1  0  0  0  0
 44 45  1  0  0  0  0
 46 45  1  0  0  0  0
M  END
>  <MODEL>
3

>  <REMARK>
 VINA RESULT:      -5.8      2.713      8.139
  Name = 
  5 active torsions:
  status: ('A' for Active; 'I' for Inactive)
    1  A    between atoms: C_1  and  C_35
    2  A    between atoms: C_7  and  C_32
    3  A    between atoms: C_9  and  C_46
    4  A    between atoms: C_25  and  C_30
    5  A    between atoms: C_32  and  C_46
                            x       y       z     vdW  Elec       q    Type
                         _______ _______ _______ _____ _____    ______ ____

>  <TORSDO>
F 5

$$$$
=
 OpenBabel11062413253D

 46 49  0  0  1  0  0  0  0  0999 V2000
  182.7940  179.0120  138.2520 C   0  0  0  0  0  1  0  0  0  0  0  0
  187.5060  176.1250  135.2070 O   0  0  0  0  0  0  0  0  0  0  0  0
  187.8570  177.3270  142.5510 C   0  0  1  0  0  3  0  0  0  0  0  0
  187.8430  178.8480  142.4230 C   0  0  0  0  0  2  0  0  0  0  0  0
  190.1600  175.7820  137.7970 N   0  0  0  0  0  0  0  0  0  0  0  0
  190.7150  177.6240  142.1390 O   0  0  0  0  0  0  0  0  0  0  0  0
  186.0730  176.7180  137.8000 C   0  0  0  0  0  2  0  0  0  0  0  0
  183.8000  177.1330  139.6110 C   0  0  0  0  0  2  0  0  0  0  0  0
  190.0580  176.9740  141.2790 C   0  0  0  0  0  0  0  0  0  0  0  0
  189.8510  176.3970  138.8930 C   0  0  0  0  0  3  0  0  0  0  0  0
  185.5240  177.5360  135.4460 C   0  0  0  0  0  2  0  0  0  0  0  0
  185.4970  179.3650  141.8780 C   0  0  0  0  0  3  0  0  0  0  0  0
  183.5640  177.9620  140.8350 C   0  0  0  0  0  3  0  0  0  0  0  0
  184.5350  178.6600  141.3520 C   0  0  0  0  0  0  0  0  0  0  0  0
  188.6550  176.7420  141.4730 N   0  0  0  0  0  2  0  0  0  0  0  0
  189.3370  175.7360  136.6150 C   0  0  0  0  0  3  0  0  0  0  0  0
  187.5000  177.1490  137.5260 C   0  0  0  0  0  2  0  0  0  0  0  0
  190.7540  176.3780  140.0830 C   0  0  1  0  0  3  0  0  0  0  0  0
  182.9220  177.4880  138.3850 C   0  0  2  0  0  0  0  0  0  0  0  0
  185.0840  177.4910  136.9230 C   0  0  1  0  0  3  0  0  0  0  0  0
  186.8800  179.2880  141.3340 C   0  0  0  0  0  2  0  0  0  0  0  0
  186.0970  176.2040  134.9770 C   0  0  0  0  0  2  0  0  0  0  0  0
  182.8850  177.1820  135.9630 O   0  0  0  0  0  1  0  0  0  0  0  0
  188.1320  176.3050  136.4510 C   0  0  0  0  0  0  0  0  0  0  0  0
  183.6480  176.9440  137.1120 C   0  0  2  0  0  3  0  0  0  0  0  0
  181.5060  176.8210  138.5460 C   0  0  1  0  0  0  0  0  0  0  0  0
  180.7750  176.6570  137.1970 C   0  0  2  0  0  3  0  0  0  0  0  0
  180.8880  174.2100  135.1320 C   0  0  0  0  0  2  0  0  0  0  0  0
  181.5830  175.3990  139.1310 C   0  0  0  0  0  2  0  0  0  0  0  0
  179.8480  177.6810  136.9800 O   0  0  0  0  0  1  0  0  0  0  0  0
  180.9780  174.4360  138.1260 C   0  0  2  0  0  3  0  0  0  0  0  0
  182.1350  173.8000  137.3390 C   0  0  0  0  0  2  0  0  0  0  0  0
  180.7270  177.5930  139.4180 O   0  0  0  0  0  1  0  0  0  0  0  0
  179.6830  174.6990  135.9200 C   0  0  1  0  0  3  0  0  0  0  0  0
  180.0690  175.3200  137.2760 C   0  0  2  0  0  3  0  0  0  0  0  0
  182.0180  172.1960  135.6120 O   0  0  0  0  0  0  0  0  0  0  0  0
  178.9400  175.5980  135.1530 O   0  0  0  0  0  1  0  0  0  0  0  0
  181.6900  173.3030  136.0030 C   0  0  0  0  0  0  0  0  0  0  0  0
  192.7760  176.6890  138.6510 O   0  0  0  0  0  0  0  0  0  0  0  0
  192.0490  177.0690  139.7710 C   0  0  0  0  0  0  0  0  0  0  0  0
  192.4830  177.9880  140.5150 O   0  0  0  0  0  1  0  0  0  0  0  0
  187.1910  176.6340  144.8670 C   0  0  0  0  0  1  0  0  0  0  0  0
  188.3630  176.8820  143.9280 C   0  0  2  0  0  3  0  0  0  0  0  0
  189.2690  177.9480  144.5350 C   0  0  0  0  0  2  0  0  0  0  0  0
  190.1740  177.3540  145.6020 C   0  0  0  0  0  2  0  0  0  0  0  0
  189.7480  177.7600  146.8680 O   0  0  0  0  0  1  0  0  0  0  0  0
  2 24  1  0  0  0  0
  3 43  1  1  0  0  0
  4  3  1  0  0  0  0
  5 10  2  0  0  0  0
  8 13  1  0  0  0  0
  9 15  1  0  0  0  0
  9  6  2  0  0  0  0
 10 18  1  0  0  0  0
 13 14  2  0  0  0  0
 14 12  2  0  0  0  0
 15  3  1  0  0  0  0
 16  5  1  0  0  0  0
 17  7  1  0  0  0  0
 18 40  1  6  0  0  0
 18  9  1  0  0  0  0
 19  1  1  6  0  0  0
 19 26  1  0  0  0  0
 19  8  1  0  0  0  0
 20 11  1  6  0  0  0
 20 25  1  0  0  0  0
 20  7  1  0  0  0  0
 21 12  1  0  0  0  0
 21  4  1  0  0  0  0
 22  2  1  0  0  0  0
 22 11  1  0  0  0  0
 24 16  2  0  0  0  0
 24 17  1  0  0  0  0
 25 23  1  6  0  0  0
 25 19  1  0  0  0  0
 26 29  1  0  0  0  0
 26 33  1  1  0  0  0
 27 30  1  1  0  0  0
 27 35  1  0  0  0  0
 27 26  1  0  0  0  0
 28 34  1  0  0  0  0
 28 38  1  0  0  0  0
 31 32  1  6  0  0  0
 31 29  1  0  0  0  0
 34 37  1  6  0  0  0
 34 35  1  0  0  0  0
 35 31  1  0  0  0  0
 36 38  2  0  0  0  0
 38 32  1  0  0  0  0
 39 40  2  0  0  0  0
 40 41  1  0  0  0  0
 43 44  1  0  0  0  0
 43 42  1  0  0  0  0
 44 45  1  0  0  0  0
 45 46  1  0  0  0  0
M  END
>  <MODEL>
4

>  <REMARK>
 VINA RESULT:      -5.6      2.768      7.556
  Name = 
  5 active torsions:
  status: ('A' for Active; 'I' for Inactive)
    1  A    between atoms: C_1  and  C_35
    2  A    between atoms: C_7  and  C_32
    3  A    between atoms: C_9  and  C_46
    4  A    between atoms: C_25  and  C_30
    5  A    between atoms: C_32  and  C_46
                            x       y       z     vdW  Elec       q    Type
                         _______ _______ _______ _____ _____    ______ ____

>  <TORSDO>
F 5

$$$$
=
 OpenBabel11062413253D

 46 49  0  0  1  0  0  0  0  0999 V2000
  182.7400  179.5850  139.2290 C   0  0  0  0  0  1  0  0  0  0  0  0
  188.5630  177.4840  138.0090 O   0  0  0  0  0  0  0  0  0  0  0  0
  186.0520  177.9680  145.0060 C   0  0  1  0  0  3  0  0  0  0  0  0
  185.8940  179.4860  144.9710 C   0  0  0  0  0  2  0  0  0  0  0  0
  190.1080  177.1380  141.3790 N   0  0  0  0  0  0  0  0  0  0  0  0
  188.8000  178.5780  145.7120 O   0  0  0  0  0  0  0  0  0  0  0  0
  186.2200  177.6720  139.9060 C   0  0  0  0  0  2  0  0  0  0  0  0
  183.4090  177.6830  140.7550 C   0  0  0  0  0  2  0  0  0  0  0  0
  188.5910  177.9580  144.6330 C   0  0  0  0  0  0  0  0  0  0  0  0
  189.3450  177.6070  142.3140 C   0  0  0  0  0  3  0  0  0  0  0  0
  186.4690  178.6680  137.5690 C   0  0  0  0  0  2  0  0  0  0  0  0
  183.8630  179.8280  143.6170 C   0  0  0  0  0  3  0  0  0  0  0  0
  182.6390  178.3580  141.8470 C   0  0  0  0  0  3  0  0  0  0  0  0
  183.2570  179.0900  142.7290 C   0  0  0  0  0  0  0  0  0  0  0  0
  187.2560  177.5740  144.2730 N   0  0  0  0  0  2  0  0  0  0  0  0
  189.7870  177.1320  139.9750 C   0  0  0  0  0  3  0  0  0  0  0  0
  187.5810  178.2640  140.2120 C   0  0  0  0  0  2  0  0  0  0  0  0
  189.7460  177.5550  143.7520 C   0  0  1  0  0  3  0  0  0  0  0  0
  183.0020  178.0740  139.3120 C   0  0  2  0  0  0  0  0  0  0  0  0
  185.5300  178.4310  138.7680 C   0  0  1  0  0  3  0  0  0  0  0  0
  185.3480  179.9390  143.6270 C   0  0  0  0  0  2  0  0  0  0  0  0
  187.3380  177.4510  137.2730 C   0  0  0  0  0  2  0  0  0  0  0  0
  183.8920  178.0120  137.0380 O   0  0  0  0  0  1  0  0  0  0  0  0
  188.6630  177.5970  139.4050 C   0  0  0  0  0  0  0  0  0  0  0  0
  184.2050  177.7330  138.3740 C   0  0  2  0  0  3  0  0  0  0  0  0
  181.7220  177.2620  138.8920 C   0  0  1  0  0  0  0  0  0  0  0  0
  181.5050  177.2520  137.3640 C   0  0  2  0  0  3  0  0  0  0  0  0
  182.6360  175.1920  135.1850 C   0  0  0  0  0  2  0  0  0  0  0  0
  181.8040  175.7770  139.2910 C   0  0  0  0  0  2  0  0  0  0  0  0
  180.5650  178.2070  136.9660 O   0  0  0  0  0  1  0  0  0  0  0  0
  181.7060  174.9370  138.0300 C   0  0  2  0  0  3  0  0  0  0  0  0
  183.1350  174.5480  137.6210 C   0  0  0  0  0  2  0  0  0  0  0  0
  180.5990  177.8060  139.5270 O   0  0  0  0  0  1  0  0  0  0  0  0
  181.1820  175.4340  135.5620 C   0  0  1  0  0  3  0  0  0  0  0  0
  181.0110  175.8600  137.0320 C   0  0  2  0  0  3  0  0  0  0  0  0
  183.8200  173.2410  135.7780 O   0  0  0  0  0  0  0  0  0  0  0  0
  180.6130  176.3730  134.7000 O   0  0  0  0  0  1  0  0  0  0  0  0
  183.2280  174.2350  136.1630 C   0  0  0  0  0  0  0  0  0  0  0  0
  192.0840  177.8260  144.5850 O   0  0  0  0  0  1  0  0  0  0  0  0
  190.9670  178.3940  143.9880 C   0  0  0  0  0  0  0  0  0  0  0  0
  190.9880  179.6080  143.6520 O   0  0  0  0  0  0  0  0  0  0  0  0
  184.6690  177.4520  147.0320 C   0  0  0  0  0  1  0  0  0  0  0  0
  186.0720  177.4370  146.4440 C   0  0  2  0  0  3  0  0  0  0  0  0
  186.9850  178.2920  147.3170 C   0  0  0  0  0  2  0  0  0  0  0  0
  187.6140  177.4630  148.4260 C   0  0  0  0  0  2  0  0  0  0  0  0
  188.7300  178.1240  148.9400 O   0  0  0  0  0  1  0  0  0  0  0  0
  2 24  1  0  0  0  0
  3 43  1  1  0  0  0
  4  3  1  0  0  0  0
  5 10  2  0  0  0  0
  7 17  1  0  0  0  0
  8 13  1  0  0  0  0
  9  6  2  0  0  0  0
 10 18  1  0  0  0  0
 12 21  1  0  0  0  0
 13 14  2  0  0  0  0
 14 12  2  0  0  0  0
 15  9  1  0  0  0  0
 15  3  1  0  0  0  0
 16  5  1  0  0  0  0
 18 40  1  6  0  0  0
 18  9  1  0  0  0  0
 19  1  1  6  0  0  0
 19  8  1  0  0  0  0
 20 11  1  6  0  0  0
 20  7  1  0  0  0  0
 21  4  1  0  0  0  0
 22 11  1  0  0  0  0
 22  2  1  0  0  0  0
 24 16  2  0  0  0  0
 24 17  1  0  0  0  0
 25 23  1  6  0  0  0
 25 20  1  0  0  0  0
 25 19  1  0  0  0  0
 26 29  1  0  0  0  0
 26 19  1  0  0  0  0
 26 33  1  1  0  0  0
 27 30  1  1  0  0  0
 27 26  1  0  0  0  0
 28 34  1  0  0  0  0
 28 38  1  0  0  0  0
 31 32  1  6  0  0  0
 31 29  1  0  0  0  0
 34 37  1  6  0  0  0
 34 35  1  0  0  0  0
 35 27  1  0  0  0  0
 35 31  1  0  0  0  0
 36 38  2  0  0  0  0
 38 32  1  0  0  0  0
 40 39  1  0  0  0  0
 41 40  2  0  0  0  0
 43 42  1  0  0  0  0
 43 44  1  0  0  0  0
 44 45  1  0  0  0  0
 45 46  1  0  0  0  0
M  END
>  <MODEL>
5

>  <REMARK>
 VINA RESULT:      -5.6      2.651      6.725
  Name = 
  5 active torsions:
  status: ('A' for Active; 'I' for Inactive)
    1  A    between atoms: C_1  and  C_35
    2  A    between atoms: C_7  and  C_32
    3  A    between atoms: C_9  and  C_46
    4  A    between atoms: C_25  and  C_30
    5  A    between atoms: C_32  and  C_46
                            x       y       z     vdW  Elec       q    Type
                         _______ _______ _______ _____ _____    ______ ____

>  <TORSDO>
F 5

$$$$
=
 OpenBabel11062413253D

 46 49  0  0  1  0  0  0  0  0999 V2000
  189.7750  178.2180  137.3660 C   0  0  0  0  0  1  0  0  0  0  0  0
  190.0030  177.5350  143.6340 O   0  0  0  0  0  0  0  0  0  0  0  0
  183.4830  177.7110  140.0340 C   0  0  1  0  0  3  0  0  0  0  0  0
  183.6620  179.1430  139.5340 C   0  0  0  0  0  2  0  0  0  0  0  0
  186.4340  177.7240  144.6810 N   0  0  0  0  0  0  0  0  0  0  0  0
  182.4540  178.9990  142.4230 O   0  0  0  0  0  0  0  0  0  0  0  0
  188.4700  177.2360  141.0480 C   0  0  0  0  0  2  0  0  0  0  0  0
  188.0230  176.6050  138.2160 C   0  0  0  0  0  2  0  0  0  0  0  0
  183.4980  178.2990  142.5320 C   0  0  0  0  0  0  0  0  0  0  0  0
  185.6550  178.0370  143.6950 C   0  0  0  0  0  3  0  0  0  0  0  0
  190.8220  178.1560  141.4160 C   0  0  0  0  0  2  0  0  0  0  0  0
  185.3070  178.9220  137.7130 C   0  0  0  0  0  3  0  0  0  0  0  0
  187.1060  177.1220  137.1520 C   0  0  0  0  0  3  0  0  0  0  0  0
  186.2080  178.0210  137.4400 C   0  0  0  0  0  0  0  0  0  0  0  0
  184.0080  177.5870  141.3950 N   0  0  0  0  0  2  0  0  0  0  0  0
  187.8640  177.5790  144.5890 C   0  0  0  0  0  3  0  0  0  0  0  0
  188.0270  178.1520  142.1710 C   0  0  0  0  0  2  0  0  0  0  0  0
  184.1760  178.1470  143.8700 C   0  0  1  0  0  3  0  0  0  0  0  0
  189.5350  176.8210  137.9570 C   0  0  2  0  0  0  0  0  0  0  0  0
  189.7490  177.7540  140.3850 C   0  0  1  0  0  3  0  0  0  0  0  0
  185.1000  179.3890  139.1120 C   0  0  0  0  0  2  0  0  0  0  0  0
  190.8960  177.1730  142.5790 C   0  0  0  0  0  2  0  0  0  0  0  0
  191.6510  176.8740  139.1750 O   0  0  0  0  0  1  0  0  0  0  0  0
  188.6200  177.7310  143.4890 C   0  0  0  0  0  0  0  0  0  0  0  0
  190.2660  176.7390  139.3360 C   0  0  2  0  0  3  0  0  0  0  0  0
  190.0620  175.7050  136.9810 C   0  0  1  0  0  0  0  0  0  0  0  0
  191.2850  176.1670  136.1610 C   0  0  2  0  0  3  0  0  0  0  0  0
  194.3960  175.9660  136.9030 C   0  0  0  0  0  2  0  0  0  0  0  0
  190.5360  174.4430  137.7240 C   0  0  0  0  0  2  0  0  0  0  0  0
  190.9220  176.5860  134.8770 O   0  0  0  0  0  1  0  0  0  0  0  0
  192.0020  174.2200  137.3990 C   0  0  2  0  0  3  0  0  0  0  0  0
  192.8260  174.7930  138.5630 C   0  0  0  0  0  2  0  0  0  0  0  0
  189.0290  175.3200  136.1160 O   0  0  0  0  0  1  0  0  0  0  0  0
  193.6720  175.2780  135.7540 C   0  0  1  0  0  3  0  0  0  0  0  0
  192.2000  174.9640  136.0810 C   0  0  2  0  0  3  0  0  0  0  0  0
  195.1730  174.8230  138.8130 O   0  0  0  0  0  0  0  0  0  0  0  0
  193.7740  176.0470  134.5940 O   0  0  0  0  0  1  0  0  0  0  0  0
  194.2120  175.1500  138.1370 C   0  0  0  0  0  0  0  0  0  0  0  0
  184.1170  180.5770  144.4450 O   0  0  0  0  0  0  0  0  0  0  0  0
  183.8400  179.2670  144.8110 C   0  0  0  0  0  0  0  0  0  0  0  0
  183.3100  179.0310  145.9300 O   0  0  0  0  0  1  0  0  0  0  0  0
  181.9320  175.8000  139.5600 C   0  0  0  0  0  1  0  0  0  0  0  0
  182.0180  177.2660  139.9550 C   0  0  2  0  0  3  0  0  0  0  0  0
  181.2600  178.1030  138.9300 C   0  0  0  0  0  2  0  0  0  0  0  0
  179.7980  178.2540  139.3210 C   0  0  0  0  0  2  0  0  0  0  0  0
  179.4030  179.5850  139.1820 O   0  0  0  0  0  1  0  0  0  0  0  0
  3 43  1  1  0  0  0
  3 15  1  0  0  0  0
  4  3  1  0  0  0  0
  6  9  2  0  0  0  0
  7 17  1  0  0  0  0
  9 18  1  0  0  0  0
 10 18  1  0  0  0  0
 10  5  2  0  0  0  0
 11 22  1  0  0  0  0
 12 21  1  0  0  0  0
 13 14  2  0  0  0  0
 13  8  1  0  0  0  0
 14 12  2  0  0  0  0
 15  9  1  0  0  0  0
 16  5  1  0  0  0  0
 17 24  1  0  0  0  0
 18 40  1  1  0  0  0
 19  1  1  6  0  0  0
 19  8  1  0  0  0  0
 19 25  1  0  0  0  0
 20  7  1  1  0  0  0
 20 11  1  0  0  0  0
 21  4  1  0  0  0  0
 22  2  1  0  0  0  0
 24  2  1  0  0  0  0
 24 16  2  0  0  0  0
 25 23  1  6  0  0  0
 25 20  1  0  0  0  0
 26 33  1  6  0  0  0
 26 29  1  0  0  0  0
 26 19  1  0  0  0  0
 27 30  1  6  0  0  0
 27 26  1  0  0  0  0
 28 38  1  0  0  0  0
 31 29  1  1  0  0  0
 31 32  1  0  0  0  0
 34 37  1  6  0  0  0
 34 35  1  0  0  0  0
 34 28  1  0  0  0  0
 35 27  1  0  0  0  0
 35 31  1  0  0  0  0
 38 32  1  0  0  0  0
 38 36  2  0  0  0  0
 39 40  2  0  0  0  0
 40 41  1  0  0  0  0
 42 43  1  0  0  0  0
 44 45  1  0  0  0  0
 44 43  1  0  0  0  0
 46 45  1  0  0  0  0
M  END
>  <MODEL>
6

>  <REMARK>
 VINA RESULT:      -5.4      1.831      3.438
  Name = 
  5 active torsions:
  status: ('A' for Active; 'I' for Inactive)
    1  A    between atoms: C_1  and  C_35
    2  A    between atoms: C_7  and  C_32
    3  A    between atoms: C_9  and  C_46
    4  A    between atoms: C_25  and  C_30
    5  A    between atoms: C_32  and  C_46
                            x       y       z     vdW  Elec       q    Type
                         _______ _______ _______ _____ _____    ______ ____

>  <TORSDO>
F 5

$$$$
=
 OpenBabel11062413253D

 46 49  0  0  1  0  0  0  0  0999 V2000
  187.4730  179.3840  142.9380 C   0  0  0  0  0  1  0  0  0  0  0  0
  181.2750  178.6320  142.0280 O   0  0  0  0  0  0  0  0  0  0  0  0
  186.1900  176.5430  136.8350 C   0  0  1  0  0  3  0  0  0  0  0  0
  186.7110  177.9570  136.5880 C   0  0  0  0  0  2  0  0  0  0  0  0
  181.0270  177.4790  138.4960 N   0  0  0  0  0  0  0  0  0  0  0  0
  184.1440  177.2930  134.9170 O   0  0  0  0  0  0  0  0  0  0  0  0
  184.1100  177.8790  141.3080 C   0  0  0  0  0  2  0  0  0  0  0  0
  186.9370  177.2190  141.7460 C   0  0  0  0  0  2  0  0  0  0  0  0
  183.7790  177.0170  136.0930 C   0  0  0  0  0  0  0  0  0  0  0  0
  182.1710  177.5190  137.8910 C   0  0  0  0  0  3  0  0  0  0  0  0
  183.2950  179.5780  143.0290 C   0  0  0  0  0  2  0  0  0  0  0  0
  188.1250  178.4070  138.5560 C   0  0  0  0  0  3  0  0  0  0  0  0
  188.1970  177.4010  140.9590 C   0  0  0  0  0  3  0  0  0  0  0  0
  188.1540  177.9030  139.7580 C   0  0  0  0  0  0  0  0  0  0  0  0
  184.7440  176.5750  137.0590 N   0  0  0  0  0  2  0  0  0  0  0  0
  180.8030  177.8650  139.8650 C   0  0  0  0  0  3  0  0  0  0  0  0
  183.1550  178.5360  140.3310 C   0  0  0  0  0  2  0  0  0  0  0  0
  182.3210  177.0790  136.4720 C   0  0  1  0  0  3  0  0  0  0  0  0
  186.8780  177.9770  143.0960 C   0  0  2  0  0  0  0  0  0  0  0  0
  184.5100  178.8470  142.4260 C   0  0  1  0  0  3  0  0  0  0  0  0
  186.8280  178.7220  137.8960 C   0  0  0  0  0  2  0  0  0  0  0  0
  182.0950  178.6530  143.1990 C   0  0  0  0  0  2  0  0  0  0  0  0
  185.2390  178.7560  144.7310 O   0  0  0  0  0  1  0  0  0  0  0  0
  181.7210  178.3170  140.7350 C   0  0  0  0  0  0  0  0  0  0  0  0
  185.3720  178.1230  143.4890 C   0  0  2  0  0  3  0  0  0  0  0  0
  187.6620  177.1600  144.1890 C   0  0  1  0  0  0  0  0  0  0  0  0
  188.9280  176.4840  143.6230 C   0  0  2  0  0  3  0  0  0  0  0  0
  191.9050  177.6490  143.4040 C   0  0  0  0  0  2  0  0  0  0  0  0
  188.1660  178.0450  145.3430 C   0  0  0  0  0  2  0  0  0  0  0  0
  188.7060  175.1360  143.3200 O   0  0  0  0  0  1  0  0  0  0  0  0
  189.6790  177.9370  145.4010 C   0  0  2  0  0  3  0  0  0  0  0  0
  190.2590  179.1590  144.6720 C   0  0  0  0  0  2  0  0  0  0  0  0
  186.8130  176.1930  144.7410 O   0  0  0  0  0  1  0  0  0  0  0  0
  191.4340  176.4640  144.2340 C   0  0  1  0  0  3  0  0  0  0  0  0
  189.9760  176.6100  144.7080 C   0  0  2  0  0  3  0  0  0  0  0  0
  192.5280  179.7210  144.3420 O   0  0  0  0  0  0  0  0  0  0  0  0
  191.6120  175.2770  143.5210 O   0  0  0  0  0  1  0  0  0  0  0  0
  191.6420  178.9010  144.1710 C   0  0  0  0  0  0  0  0  0  0  0  0
  181.5530  179.3440  135.7540 O   0  0  0  0  0  1  0  0  0  0  0  0
  181.5310  177.9700  135.5590 C   0  0  0  0  0  0  0  0  0  0  0  0
  180.8480  177.4840  134.6180 O   0  0  0  0  0  0  0  0  0  0  0  0
  186.0640  174.1910  135.9780 C   0  0  0  0  0  1  0  0  0  0  0  0
  186.5580  175.5990  135.6840 C   0  0  2  0  0  3  0  0  0  0  0  0
  188.0700  175.5640  135.4840 C   0  0  0  0  0  2  0  0  0  0  0  0
  188.7330  174.6340  136.4870 C   0  0  0  0  0  2  0  0  0  0  0  0
  189.5190  175.3720  137.3730 O   0  0  0  0  0  1  0  0  0  0  0  0
  2 22  1  0  0  0  0
  3 43  1  6  0  0  0
  3 15  1  0  0  0  0
  4  3  1  0  0  0  0
  4 21  1  0  0  0  0
  5 16  1  0  0  0  0
  6  9  2  0  0  0  0
  8 19  1  0  0  0  0
  9 18  1  0  0  0  0
  9 15  1  0  0  0  0
 10  5  2  0  0  0  0
 11 22  1  0  0  0  0
 12 14  2  0  0  0  0
 13  8  1  0  0  0  0
 14 13  2  0  0  0  0
 16 24  2  0  0  0  0
 17 24  1  0  0  0  0
 17  7  1  0  0  0  0
 18 40  1  6  0  0  0
 18 10  1  0  0  0  0
 19  1  1  6  0  0  0
 19 25  1  0  0  0  0
 19 26  1  0  0  0  0
 20  7  1  6  0  0  0
 20 11  1  0  0  0  0
 20 25  1  0  0  0  0
 21 12  1  0  0  0  0
 24  2  1  0  0  0  0
 25 23  1  1  0  0  0
 26 33  1  1  0  0  0
 26 29  1  0  0  0  0
 27 30  1  1  0  0  0
 27 26  1  0  0  0  0
 27 35  1  0  0  0  0
 28 38  1  0  0  0  0
 28 34  1  0  0  0  0
 29 31  1  0  0  0  0
 31 32  1  6  0  0  0
 34 37  1  6  0  0  0
 34 35  1  0  0  0  0
 35 31  1  0  0  0  0
 38 36  2  0  0  0  0
 38 32  1  0  0  0  0
 40 39  1  0  0  0  0
 41 40  2  0  0  0  0
 43 42  1  0  0  0  0
 44 43  1  0  0  0  0
 44 45  1  0  0  0  0
 45 46  1  0  0  0  0
M  END
>  <MODEL>
7

>  <REMARK>
 VINA RESULT:      -5.0      2.424      8.273
  Name = 
  5 active torsions:
  status: ('A' for Active; 'I' for Inactive)
    1  A    between atoms: C_1  and  C_35
    2  A    between atoms: C_7  and  C_32
    3  A    between atoms: C_9  and  C_46
    4  A    between atoms: C_25  and  C_30
    5  A    between atoms: C_32  and  C_46
                            x       y       z     vdW  Elec       q    Type
                         _______ _______ _______ _____ _____    ______ ____

>  <TORSDO>
F 5

$$$$
