=
 OpenBabel11062414043D

 53 58  0  0  1  0  0  0  0  0999 V2000
  185.5810  177.8600  140.6390 C   0  0  0  0  0  3  0  0  0  0  0  0
  182.6510  176.7200  140.3460 N   0  0  0  0  0  2  0  0  0  0  0  0
  187.5300  178.6780  136.4360 C   0  0  0  0  0  1  0  0  0  0  0  0
  182.8170  177.2540  137.5210 C   0  0  2  0  0  3  0  0  0  0  0  0
  186.7200  178.1320  141.5330 C   0  0  0  0  0  0  0  0  0  0  0  0
  179.2920  175.7640  137.9040 C   0  0  0  0  0  3  0  0  0  0  0  0
  184.3590  178.3500  140.8830 C   0  0  0  0  0  0  0  0  0  0  0  0
  189.4420  178.6400  138.9870 O   0  0  0  0  0  0  0  0  0  0  0  0
  184.5170  175.9850  135.9470 C   0  0  2  0  0  3  0  0  0  0  0  0
  186.4760  178.9150  142.7670 C   0  0  0  0  0  3  0  0  0  0  0  0
  184.4350  177.2310  135.0790 C   0  0  0  0  0  1  0  0  0  0  0  0
  183.5190  175.9830  137.0800 C   0  0  0  0  0  0  0  0  0  0  0  0
  188.0990  177.0260  139.9680 O   0  0  0  0  0  0  0  0  0  0  0  0
  183.2250  178.0160  139.9590 C   0  0  1  0  0  3  0  0  0  0  0  0
  181.5640  176.2610  139.4680 C   0  0  1  0  0  3  0  0  0  0  0  0
  187.6120  177.1870  136.7100 C   0  0  1  0  0  3  0  0  0  0  0  0
  184.1310  179.1430  142.1120 C   0  0  0  0  0  0  0  0  0  0  0  0
  188.8270  177.5430  138.8910 C   0  0  0  0  0  0  0  0  0  0  0  0
  185.9660  175.7310  136.3980 C   0  0  1  0  0  3  0  0  0  0  0  0
  180.2130  176.2400  140.1640 C   0  0  0  0  0  2  0  0  0  0  0  0
  180.4110  176.4370  137.2820 N   0  0  0  0  0  0  0  0  0  0  0  0
  183.7050  178.0410  138.4860 C   0  0  0  0  0  2  0  0  0  0  0  0
  188.8200  176.8240  137.5820 C   0  0  0  0  0  2  0  0  0  0  0  0
  183.2910  174.9260  137.6500 O   0  0  0  0  0  0  0  0  0  0  0  0
  186.4160  176.7250  137.2770 O   0  0  0  0  0  0  0  0  0  0  0  0
  182.9900  179.6030  142.3780 O   0  0  0  0  0  0  0  0  0  0  0  0
  187.9430  177.7080  141.1830 C   0  0  0  0  0  0  0  0  0  0  0  0
  179.1880  175.6480  139.2360 C   0  0  0  0  0  3  0  0  0  0  0  0
  181.4340  177.0420  138.1560 C   0  0  2  0  0  3  0  0  0  0  0  0
  185.2550  179.3890  143.0390 C   0  0  0  0  0  3  0  0  0  0  0  0
  189.1320  177.9600  142.0720 C   0  0  2  0  0  3  0  0  0  0  0  0
  190.4740  177.1780  143.9740 N   0  0  0  0  0  2  0  0  0  0  0  0
  190.3340  177.9890  141.3020 O   0  0  0  0  0  0  0  0  0  0  0  0
  191.6000  176.8100  143.1180 C   0  0  0  0  0  2  0  0  0  0  0  0
  189.2310  176.9560  143.2380 C   0  0  1  0  0  3  0  0  0  0  0  0
  192.6250  177.8000  141.1960 O   0  0  0  0  0  0  0  0  0  0  0  0
  191.5610  177.5840  141.8340 C   0  0  0  0  0  0  0  0  0  0  0  0
  188.0310  177.0170  144.1860 C   0  0  0  0  0  2  0  0  0  0  0  0
  188.4070  177.4250  145.6080 C   0  0  0  0  0  2  0  0  0  0  0  0
  187.3430  177.1730  146.4760 O   0  0  0  0  0  0  0  0  0  0  0  0
  187.3900  178.2140  147.4120 C   0  0  0  0  0  2  0  0  0  0  0  0
  186.1510  179.0930  147.2780 C   0  0  0  0  0  2  0  0  0  0  0  0
  184.9680  178.2960  146.8320 C   0  0  0  0  0  3  0  0  0  0  0  0
  184.1680  178.7420  145.8670 C   0  0  0  0  0  2  0  0  0  0  0  0
  180.2020  177.8810  135.2990 C   0  0  0  0  0  2  0  0  0  0  0  0
  179.2970  175.9460  135.1000 C   0  0  0  0  0  2  0  0  0  0  0  0
  180.5350  176.4860  135.8130 C   0  0  0  0  0  3  0  0  0  0  0  0
  178.9720  177.3370  134.5940 C   0  0  0  0  0  2  0  0  0  0  0  0
  186.1440  174.3500  137.0380 C   0  0  0  0  0  2  0  0  0  0  0  0
  187.8280  172.5080  136.8260 C   0  0  0  0  0  1  0  0  0  0  0  0
  187.3660  173.9630  134.8710 C   0  0  0  0  0  1  0  0  0  0  0  0
  185.7660  172.4470  135.6980 F   0  0  0  0  0  0  0  0  0  0  0  0
  186.7630  173.3100  136.1040 C   0  0  0  0  0  0  0  0  0  0  0  0
  1  7  2  0  0  0  0
  1  5  1  0  0  0  0
  4 29  1  0  0  0  0
  4 22  1  1  0  0  0
  5 10  1  0  0  0  0
  6 28  2  0  0  0  0
  7 17  1  0  0  0  0
  9 11  1  1  0  0  0
  9 19  1  0  0  0  0
  9 12  1  0  0  0  0
 10 30  2  0  0  0  0
 12  4  1  0  0  0  0
 12 24  2  0  0  0  0
 13 27  1  0  0  0  0
 14 22  1  6  0  0  0
 14  2  1  0  0  0  0
 14  7  1  0  0  0  0
 15 20  1  1  0  0  0
 15  2  1  0  0  0  0
 16  3  1  1  0  0  0
 16 25  1  0  0  0  0
 16 23  1  0  0  0  0
 17 26  2  0  0  0  0
 17 30  1  0  0  0  0
 18  8  2  0  0  0  0
 18 13  1  0  0  0  0
 19 49  1  1  0  0  0
 19 25  1  0  0  0  0
 21  6  1  0  0  0  0
 23 18  1  0  0  0  0
 27  5  2  0  0  0  0
 28 20  1  0  0  0  0
 29 21  1  6  0  0  0
 29 15  1  0  0  0  0
 31 27  1  6  0  0  0
 31 35  1  0  0  0  0
 33 37  1  0  0  0  0
 33 31  1  0  0  0  0
 34 32  1  0  0  0  0
 35 32  1  0  0  0  0
 35 38  1  1  0  0  0
 36 37  2  0  0  0  0
 37 34  1  0  0  0  0
 38 39  1  0  0  0  0
 39 40  1  0  0  0  0
 40 41  1  0  0  0  0
 42 41  1  0  0  0  0
 43 42  1  0  0  0  0
 44 43  2  0  0  0  0
 45 47  1  0  0  0  0
 46 47  1  0  0  0  0
 47 21  1  0  0  0  0
 48 46  1  0  0  0  0
 48 45  1  0  0  0  0
 51 53  1  0  0  0  0
 52 53  1  0  0  0  0
 53 50  1  0  0  0  0
 53 49  1  0  0  0  0
M  END
>  <MODEL>
1

>  <REMARK>
 VINA RESULT:      -6.7      0.000      0.000
  Name = 
  10 active torsions:
  status: ('A' for Active; 'I' for Inactive)
    1  A    between atoms: C_3  and  C_44
    2  A    between atoms: O_14  and  C_30
    3  A    between atoms: O_14  and  C_34
    4  A    between atoms: C_17  and  C_49
    5  A    between atoms: C_28  and  C_29
    6  A    between atoms: C_28  and  C_47
    7  A    between atoms: C_30  and  C_50
    8  A    between atoms: N_32  and  C_37
    9  A    between atoms: C_34  and  C_49
   10  A    between atoms: C_39  and  C_50
                            x       y       z     vdW  Elec       q    Type
                         _______ _______ _______ _____ _____    ______ ____

>  <TORSDO>
F 10

$$$$
=
 OpenBabel11062414043D

 53 58  0  0  1  0  0  0  0  0999 V2000
  185.3750  177.8520  140.7720 C   0  0  0  0  0  3  0  0  0  0  0  0
  182.4870  176.6300  140.4030 N   0  0  0  0  0  2  0  0  0  0  0  0
  187.3800  178.7980  136.6220 C   0  0  0  0  0  1  0  0  0  0  0  0
  182.6910  177.2160  137.5900 C   0  0  2  0  0  3  0  0  0  0  0  0
  186.4880  178.1430  141.6920 C   0  0  0  0  0  0  0  0  0  0  0  0
  179.2070  175.6140  137.8790 C   0  0  0  0  0  3  0  0  0  0  0  0
  184.1350  178.3010  141.0000 C   0  0  0  0  0  0  0  0  0  0  0  0
  189.2420  178.7750  139.2090 O   0  0  0  0  0  0  0  0  0  0  0  0
  184.4590  176.0240  136.0290 C   0  0  2  0  0  3  0  0  0  0  0  0
  186.1970  178.8970  142.9340 C   0  0  0  0  0  3  0  0  0  0  0  0
  184.3560  177.2810  135.1800 C   0  0  0  0  0  1  0  0  0  0  0  0
  183.4400  175.9740  137.1430 C   0  0  0  0  0  0  0  0  0  0  0  0
  187.9300  177.1050  140.1370 O   0  0  0  0  0  0  0  0  0  0  0  0
  183.0300  177.9480  140.0480 C   0  0  1  0  0  3  0  0  0  0  0  0
  181.4320  176.1530  139.4960 C   0  0  1  0  0  3  0  0  0  0  0  0
  187.5010  177.3050  136.8740 C   0  0  1  0  0  3  0  0  0  0  0  0
  183.8590  179.0660  142.2360 C   0  0  0  0  0  0  0  0  0  0  0  0
  188.6630  177.6620  139.0840 C   0  0  0  0  0  0  0  0  0  0  0  0
  185.9060  175.8060  136.5060 C   0  0  1  0  0  3  0  0  0  0  0  0
  180.0690  176.0800  140.1650 C   0  0  0  0  0  2  0  0  0  0  0  0
  180.3170  176.3310  137.2900 N   0  0  0  0  0  0  0  0  0  0  0  0
  183.5360  178.0130  138.5850 C   0  0  0  0  0  2  0  0  0  0  0  0
  188.7030  176.9640  137.7630 C   0  0  0  0  0  2  0  0  0  0  0  0
  183.2330  174.9010  137.6910 O   0  0  0  0  0  0  0  0  0  0  0  0
  186.3090  176.7980  137.4080 O   0  0  0  0  0  0  0  0  0  0  0  0
  182.7000  179.4870  142.4870 O   0  0  0  0  0  0  0  0  0  0  0  0
  187.7300  177.7620  141.3600 C   0  0  0  0  0  0  0  0  0  0  0  0
  179.0800  175.4730  139.2070 C   0  0  0  0  0  3  0  0  0  0  0  0
  181.3040  176.9520  138.1940 C   0  0  2  0  0  3  0  0  0  0  0  0
  184.9570  179.3300  143.1890 C   0  0  0  0  0  3  0  0  0  0  0  0
  188.8930  178.0340  142.2760 C   0  0  2  0  0  3  0  0  0  0  0  0
  190.2080  177.2730  144.2050 N   0  0  0  0  0  2  0  0  0  0  0  0
  190.1110  178.0900  141.5330 O   0  0  0  0  0  0  0  0  0  0  0  0
  191.3600  176.9300  143.3740 C   0  0  0  0  0  2  0  0  0  0  0  0
  188.9860  177.0280  143.4400 C   0  0  1  0  0  3  0  0  0  0  0  0
  192.4070  177.9480  141.4780 O   0  0  0  0  0  0  0  0  0  0  0  0
  191.3340  177.7080  142.0920 C   0  0  0  0  0  0  0  0  0  0  0  0
  187.7650  177.0620  144.3610 C   0  0  0  0  0  2  0  0  0  0  0  0
  188.0260  177.7790  145.6830 C   0  0  0  0  0  2  0  0  0  0  0  0
  188.3850  176.8560  146.6670 O   0  0  0  0  0  0  0  0  0  0  0  0
  188.8590  177.6330  147.7310 C   0  0  0  0  0  2  0  0  0  0  0  0
  190.3730  177.4970  147.8450 C   0  0  0  0  0  2  0  0  0  0  0  0
  190.8320  176.1530  147.3780 C   0  0  0  0  0  3  0  0  0  0  0  0
  192.1120  175.9280  147.0960 C   0  0  0  0  0  2  0  0  0  0  0  0
  180.1570  177.8160  135.3330 C   0  0  0  0  0  2  0  0  0  0  0  0
  179.2380  175.8940  135.0800 C   0  0  0  0  0  2  0  0  0  0  0  0
  180.4670  176.4080  135.8250 C   0  0  0  0  0  3  0  0  0  0  0  0
  178.9350  177.2980  134.5950 C   0  0  0  0  0  2  0  0  0  0  0  0
  186.1130  174.4210  137.1270 C   0  0  0  0  0  2  0  0  0  0  0  0
  188.3920  173.4010  136.9140 C   0  0  0  0  0  1  0  0  0  0  0  0
  187.1250  173.9840  134.8630 C   0  0  0  0  0  1  0  0  0  0  0  0
  186.4440  172.2410  136.2900 F   0  0  0  0  0  0  0  0  0  0  0  0
  187.0090  173.4990  136.2980 C   0  0  0  0  0  0  0  0  0  0  0  0
  1  7  2  0  0  0  0
  1  5  1  0  0  0  0
  4 29  1  0  0  0  0
  4 22  1  1  0  0  0
  5 10  1  0  0  0  0
  6 28  2  0  0  0  0
  7 17  1  0  0  0  0
  9 11  1  1  0  0  0
  9 19  1  0  0  0  0
  9 12  1  0  0  0  0
 10 30  2  0  0  0  0
 12  4  1  0  0  0  0
 12 24  2  0  0  0  0
 13 27  1  0  0  0  0
 14 22  1  6  0  0  0
 14  2  1  0  0  0  0
 14  7  1  0  0  0  0
 15 20  1  1  0  0  0
 15  2  1  0  0  0  0
 16  3  1  1  0  0  0
 16 25  1  0  0  0  0
 16 23  1  0  0  0  0
 17 26  2  0  0  0  0
 17 30  1  0  0  0  0
 18  8  2  0  0  0  0
 18 13  1  0  0  0  0
 19 49  1  1  0  0  0
 19 25  1  0  0  0  0
 21  6  1  0  0  0  0
 23 18  1  0  0  0  0
 27  5  2  0  0  0  0
 28 20  1  0  0  0  0
 29 21  1  6  0  0  0
 29 15  1  0  0  0  0
 31 27  1  6  0  0  0
 31 35  1  0  0  0  0
 33 37  1  0  0  0  0
 33 31  1  0  0  0  0
 34 32  1  0  0  0  0
 35 32  1  0  0  0  0
 35 38  1  1  0  0  0
 36 37  2  0  0  0  0
 37 34  1  0  0  0  0
 38 39  1  0  0  0  0
 39 40  1  0  0  0  0
 40 41  1  0  0  0  0
 41 42  1  0  0  0  0
 43 42  1  0  0  0  0
 44 43  2  0  0  0  0
 45 47  1  0  0  0  0
 46 47  1  0  0  0  0
 47 21  1  0  0  0  0
 48 46  1  0  0  0  0
 48 45  1  0  0  0  0
 51 53  1  0  0  0  0
 52 53  1  0  0  0  0
 53 50  1  0  0  0  0
 53 49  1  0  0  0  0
M  END
>  <MODEL>
2

>  <REMARK>
 VINA RESULT:      -6.6      0.924      1.633
  Name = 
  10 active torsions:
  status: ('A' for Active; 'I' for Inactive)
    1  A    between atoms: C_3  and  C_44
    2  A    between atoms: O_14  and  C_30
    3  A    between atoms: O_14  and  C_34
    4  A    between atoms: C_17  and  C_49
    5  A    between atoms: C_28  and  C_29
    6  A    between atoms: C_28  and  C_47
    7  A    between atoms: C_30  and  C_50
    8  A    between atoms: N_32  and  C_37
    9  A    between atoms: C_34  and  C_49
   10  A    between atoms: C_39  and  C_50
                            x       y       z     vdW  Elec       q    Type
                         _______ _______ _______ _____ _____    ______ ____

>  <TORSDO>
F 10

$$$$
=
 OpenBabel11062414043D

 53 58  0  0  1  0  0  0  0  0999 V2000
  186.6860  177.2000  138.7660 C   0  0  0  0  0  3  0  0  0  0  0  0
  184.7160  177.8530  141.1450 N   0  0  0  0  0  2  0  0  0  0  0  0
  184.6070  177.8390  134.5940 C   0  0  0  0  0  1  0  0  0  0  0  0
  182.8430  178.8650  139.2050 C   0  0  2  0  0  3  0  0  0  0  0  0
  187.9760  176.6230  138.3490 C   0  0  0  0  0  0  0  0  0  0  0  0
  180.9880  179.3820  142.5330 C   0  0  0  0  0  3  0  0  0  0  0  0
  186.6110  178.1810  139.6740 C   0  0  0  0  0  0  0  0  0  0  0  0
  187.3510  176.2200  134.6620 O   0  0  0  0  0  0  0  0  0  0  0  0
  181.7060  177.3040  137.4010 C   0  0  2  0  0  3  0  0  0  0  0  0
  189.2100  177.1060  139.0120 C   0  0  0  0  0  3  0  0  0  0  0  0
  181.5940  178.5740  136.5700 C   0  0  0  0  0  1  0  0  0  0  0  0
  182.1790  177.5580  138.8130 C   0  0  0  0  0  0  0  0  0  0  0  0
  186.7930  175.3620  136.7410 O   0  0  0  0  0  0  0  0  0  0  0  0
  185.2690  178.7100  140.0880 C   0  0  1  0  0  3  0  0  0  0  0  0
  183.3690  178.2460  141.5890 C   0  0  1  0  0  3  0  0  0  0  0  0
  184.1390  176.5060  135.1530 C   0  0  1  0  0  3  0  0  0  0  0  0
  187.8530  178.6650  140.3180 C   0  0  0  0  0  0  0  0  0  0  0  0
  186.5020  175.6600  135.4060 C   0  0  0  0  0  0  0  0  0  0  0  0
  182.5280  176.2380  136.6560 C   0  0  1  0  0  3  0  0  0  0  0  0
  183.3490  178.7680  143.0170 C   0  0  0  0  0  2  0  0  0  0  0  0
  181.2830  179.4980  141.1230 N   0  0  0  0  0  0  0  0  0  0  0  0
  184.3320  178.8250  138.8600 C   0  0  0  0  0  2  0  0  0  0  0  0
  185.1360  175.3770  134.8680 C   0  0  0  0  0  2  0  0  0  0  0  0
  182.0230  176.6750  139.6430 O   0  0  0  0  0  0  0  0  0  0  0  0
  183.8700  176.6160  136.5240 O   0  0  0  0  0  0  0  0  0  0  0  0
  187.8130  179.5730  141.1880 O   0  0  0  0  0  0  0  0  0  0  0  0
  188.0000  175.7210  137.3580 C   0  0  0  0  0  0  0  0  0  0  0  0
  181.9250  179.0300  143.4260 C   0  0  0  0  0  3  0  0  0  0  0  0
  182.6700  179.2610  140.6790 C   0  0  2  0  0  3  0  0  0  0  0  0
  189.1490  178.0670  139.9400 C   0  0  0  0  0  3  0  0  0  0  0  0
  189.2980  175.1030  136.9070 C   0  0  2  0  0  3  0  0  0  0  0  0
  190.3930  173.4920  135.4130 N   0  0  0  0  0  2  0  0  0  0  0  0
  190.1730  176.1030  136.3860 O   0  0  0  0  0  0  0  0  0  0  0  0
  190.9850  174.5470  134.5940 C   0  0  0  0  0  2  0  0  0  0  0  0
  189.0950  173.9500  135.9050 C   0  0  1  0  0  3  0  0  0  0  0  0
  191.9780  176.6700  135.0760 O   0  0  0  0  0  0  0  0  0  0  0  0
  191.0990  175.8210  135.3780 C   0  0  0  0  0  0  0  0  0  0  0  0
  188.3020  172.7790  136.4890 C   0  0  0  0  0  2  0  0  0  0  0  0
  188.0220  171.6740  135.4740 C   0  0  0  0  0  2  0  0  0  0  0  0
  187.6100  170.5130  136.1300 O   0  0  0  0  0  0  0  0  0  0  0  0
  186.8300  169.8280  135.1910 C   0  0  0  0  0  2  0  0  0  0  0  0
  185.7020  170.7260  134.6950 C   0  0  0  0  0  2  0  0  0  0  0  0
  184.6080  170.8300  135.7080 C   0  0  0  0  0  3  0  0  0  0  0  0
  184.4940  171.9060  136.4820 C   0  0  0  0  0  2  0  0  0  0  0  0
  180.4890  181.1580  139.4860 C   0  0  0  0  0  2  0  0  0  0  0  0
  178.9810  180.4190  140.8220 C   0  0  0  0  0  2  0  0  0  0  0  0
  180.2160  179.8160  140.1560 C   0  0  0  0  0  3  0  0  0  0  0  0
  179.2600  181.7500  140.1520 C   0  0  0  0  0  2  0  0  0  0  0  0
  182.4370  174.8610  137.3220 C   0  0  0  0  0  2  0  0  0  0  0  0
  181.2240  174.0800  135.2740 C   0  0  0  0  0  1  0  0  0  0  0  0
  179.9660  174.3830  137.3900 C   0  0  0  0  0  1  0  0  0  0  0  0
  181.5670  172.6770  137.1300 F   0  0  0  0  0  0  0  0  0  0  0  0
  181.3030  173.9870  136.7860 C   0  0  0  0  0  0  0  0  0  0  0  0
  1  7  2  0  0  0  0
  2 15  1  0  0  0  0
  4 22  1  1  0  0  0
  4 29  1  0  0  0  0
  5  1  1  0  0  0  0
  5 10  1  0  0  0  0
  6 28  2  0  0  0  0
  7 14  1  0  0  0  0
  7 17  1  0  0  0  0
  8 18  2  0  0  0  0
  9 11  1  6  0  0  0
  9 12  1  0  0  0  0
 10 30  2  0  0  0  0
 12  4  1  0  0  0  0
 12 24  2  0  0  0  0
 13 27  1  0  0  0  0
 14 22  1  6  0  0  0
 14  2  1  0  0  0  0
 15 20  1  1  0  0  0
 16  3  1  1  0  0  0
 16 25  1  0  0  0  0
 17 26  2  0  0  0  0
 18 13  1  0  0  0  0
 19 49  1  1  0  0  0
 19  9  1  0  0  0  0
 20 28  1  0  0  0  0
 21  6  1  0  0  0  0
 23 16  1  0  0  0  0
 23 18  1  0  0  0  0
 25 19  1  0  0  0  0
 27  5  2  0  0  0  0
 29 21  1  1  0  0  0
 29 15  1  0  0  0  0
 30 17  1  0  0  0  0
 31 27  1  6  0  0  0
 32 35  1  0  0  0  0
 33 31  1  0  0  0  0
 34 37  1  0  0  0  0
 34 32  1  0  0  0  0
 35 38  1  1  0  0  0
 35 31  1  0  0  0  0
 36 37  2  0  0  0  0
 37 33  1  0  0  0  0
 39 40  1  0  0  0  0
 39 38  1  0  0  0  0
 41 40  1  0  0  0  0
 42 41  1  0  0  0  0
 42 43  1  0  0  0  0
 43 44  2  0  0  0  0
 45 48  1  0  0  0  0
 45 47  1  0  0  0  0
 47 46  1  0  0  0  0
 47 21  1  0  0  0  0
 48 46  1  0  0  0  0
 50 53  1  0  0  0  0
 53 52  1  0  0  0  0
 53 49  1  0  0  0  0
 53 51  1  0  0  0  0
M  END
>  <MODEL>
3

>  <REMARK>
 VINA RESULT:      -5.6      3.014      6.610
  Name = 
  10 active torsions:
  status: ('A' for Active; 'I' for Inactive)
    1  A    between atoms: C_3  and  C_44
    2  A    between atoms: O_14  and  C_30
    3  A    between atoms: O_14  and  C_34
    4  A    between atoms: C_17  and  C_49
    5  A    between atoms: C_28  and  C_29
    6  A    between atoms: C_28  and  C_47
    7  A    between atoms: C_30  and  C_50
    8  A    between atoms: N_32  and  C_37
    9  A    between atoms: C_34  and  C_49
   10  A    between atoms: C_39  and  C_50
                            x       y       z     vdW  Elec       q    Type
                         _______ _______ _______ _____ _____    ______ ____

>  <TORSDO>
F 10

$$$$
=
 OpenBabel11062414043D

 53 58  0  0  1  0  0  0  0  0999 V2000
  184.8010  175.2850  137.0790 C   0  0  0  0  0  3  0  0  0  0  0  0
  186.3660  172.5900  136.5680 N   0  0  0  0  0  2  0  0  0  0  0  0
  187.6060  179.0240  136.5500 C   0  0  0  0  0  1  0  0  0  0  0  0
  188.6060  174.1620  135.6670 C   0  0  2  0  0  3  0  0  0  0  0  0
  183.5690  175.9270  137.5680 C   0  0  0  0  0  0  0  0  0  0  0  0
  189.8860  170.5550  135.2910 C   0  0  0  0  0  3  0  0  0  0  0  0
  184.7780  174.3610  136.1100 C   0  0  0  0  0  0  0  0  0  0  0  0
  184.7960  179.4580  137.9890 O   0  0  0  0  0  0  0  0  0  0  0  0
  189.9380  175.7690  137.2870 C   0  0  2  0  0  3  0  0  0  0  0  0
  182.2710  175.4790  137.0120 C   0  0  0  0  0  3  0  0  0  0  0  0
  190.2710  176.5460  136.0220 C   0  0  0  0  0  1  0  0  0  0  0  0
  189.2450  174.4560  137.0120 C   0  0  0  0  0  0  0  0  0  0  0  0
  184.9310  177.3290  138.8930 O   0  0  0  0  0  0  0  0  0  0  0  0
  186.0580  173.7130  135.6710 C   0  0  1  0  0  3  0  0  0  0  0  0
  187.6370  171.9140  136.2660 C   0  0  1  0  0  3  0  0  0  0  0  0
  187.8860  178.4160  137.9130 C   0  0  1  0  0  3  0  0  0  0  0  0
  183.4760  173.9320  135.5510 C   0  0  0  0  0  0  0  0  0  0  0  0
  185.4670  178.5890  138.6070 C   0  0  0  0  0  0  0  0  0  0  0  0
  189.1930  176.6630  138.2940 C   0  0  1  0  0  3  0  0  0  0  0  0
  187.4430  170.4960  135.7540 C   0  0  0  0  0  2  0  0  0  0  0  0
  189.8460  171.9930  135.1470 N   0  0  0  0  0  0  0  0  0  0  0  0
  187.1990  174.7590  135.6090 C   0  0  0  0  0  2  0  0  0  0  0  0
  186.8840  178.8880  138.9730 C   0  0  0  0  0  2  0  0  0  0  0  0
  189.2000  173.6260  137.9080 O   0  0  0  0  0  0  0  0  0  0  0  0
  187.9200  177.0170  137.8290 O   0  0  0  0  0  0  0  0  0  0  0  0
  183.4210  173.0530  134.6520 O   0  0  0  0  0  0  0  0  0  0  0  0
  183.6600  176.9230  138.4610 C   0  0  0  0  0  0  0  0  0  0  0  0
  188.7880  169.8430  135.5870 C   0  0  0  0  0  3  0  0  0  0  0  0
  188.5450  172.6730  135.2920 C   0  0  2  0  0  3  0  0  0  0  0  0
  182.2300  174.5370  136.0620 C   0  0  0  0  0  3  0  0  0  0  0  0
  182.4240  177.6010  138.9920 C   0  0  2  0  0  3  0  0  0  0  0  0
  181.5070  179.3030  140.5060 N   0  0  0  0  0  2  0  0  0  0  0  0
  181.7070  178.2320  137.9310 O   0  0  0  0  0  0  0  0  0  0  0  0
  181.1210  180.1780  139.4020 C   0  0  0  0  0  2  0  0  0  0  0  0
  182.7280  178.5880  140.1360 C   0  0  1  0  0  3  0  0  0  0  0  0
  180.1810  179.8070  137.2330 O   0  0  0  0  0  0  0  0  0  0  0  0
  180.9480  179.3880  138.1390 C   0  0  0  0  0  0  0  0  0  0  0  0
  183.3450  177.9140  141.3630 C   0  0  0  0  0  2  0  0  0  0  0  0
  183.9260  178.9050  142.3680 C   0  0  0  0  0  2  0  0  0  0  0  0
  184.3560  178.2320  143.5120 O   0  0  0  0  0  0  0  0  0  0  0  0
  185.7540  178.2440  143.4320 C   0  0  0  0  0  2  0  0  0  0  0  0
  186.3580  177.9050  144.7900 C   0  0  0  0  0  2  0  0  0  0  0  0
  187.8460  177.7880  144.7050 C   0  0  0  0  0  3  0  0  0  0  0  0
  188.5480  177.2600  145.7050 C   0  0  0  0  0  2  0  0  0  0  0  0
  192.2420  171.8080  134.6070 C   0  0  0  0  0  2  0  0  0  0  0  0
  191.7800  173.1920  136.1790 C   0  0  0  0  0  2  0  0  0  0  0  0
  191.0830  172.7550  134.8930 C   0  0  0  0  0  3  0  0  0  0  0  0
  192.9280  172.2460  135.8880 C   0  0  0  0  0  2  0  0  0  0  0  0
  189.0810  176.0140  139.6770 C   0  0  0  0  0  2  0  0  0  0  0  0
  191.0240  177.4420  140.3560 C   0  0  0  0  0  1  0  0  0  0  0  0
  189.9240  176.0020  142.0490 C   0  0  0  0  0  1  0  0  0  0  0  0
  188.8390  177.8700  141.1120 F   0  0  0  0  0  0  0  0  0  0  0  0
  189.7050  176.8420  140.8010 C   0  0  0  0  0  0  0  0  0  0  0  0
  1  5  1  0  0  0  0
  4 22  1  1  0  0  0
  4 12  1  0  0  0  0
  5 27  2  0  0  0  0
  6 28  2  0  0  0  0
  7  1  2  0  0  0  0
  8 18  2  0  0  0  0
  9 11  1  6  0  0  0
  9 19  1  0  0  0  0
 10  5  1  0  0  0  0
 12  9  1  0  0  0  0
 12 24  2  0  0  0  0
 14 22  1  1  0  0  0
 14  7  1  0  0  0  0
 14  2  1  0  0  0  0
 15 20  1  6  0  0  0
 15  2  1  0  0  0  0
 16  3  1  6  0  0  0
 16 23  1  0  0  0  0
 17 30  1  0  0  0  0
 17  7  1  0  0  0  0
 18 13  1  0  0  0  0
 18 23  1  0  0  0  0
 19 49  1  1  0  0  0
 21  6  1  0  0  0  0
 25 16  1  0  0  0  0
 25 19  1  0  0  0  0
 26 17  2  0  0  0  0
 27 13  1  0  0  0  0
 28 20  1  0  0  0  0
 29 21  1  1  0  0  0
 29  4  1  0  0  0  0
 29 15  1  0  0  0  0
 30 10  2  0  0  0  0
 31 27  1  6  0  0  0
 31 35  1  0  0  0  0
 33 37  1  0  0  0  0
 33 31  1  0  0  0  0
 34 32  1  0  0  0  0
 35 32  1  0  0  0  0
 35 38  1  1  0  0  0
 36 37  2  0  0  0  0
 37 34  1  0  0  0  0
 38 39  1  0  0  0  0
 39 40  1  0  0  0  0
 41 40  1  0  0  0  0
 41 42  1  0  0  0  0
 43 42  1  0  0  0  0
 43 44  2  0  0  0  0
 45 47  1  0  0  0  0
 45 48  1  0  0  0  0
 47 21  1  0  0  0  0
 47 46  1  0  0  0  0
 48 46  1  0  0  0  0
 49 53  1  0  0  0  0
 50 53  1  0  0  0  0
 53 52  1  0  0  0  0
 53 51  1  0  0  0  0
M  END
>  <MODEL>
4

>  <REMARK>
 VINA RESULT:      -4.2      3.128      7.858
  Name = 
  10 active torsions:
  status: ('A' for Active; 'I' for Inactive)
    1  A    between atoms: C_3  and  C_44
    2  A    between atoms: O_14  and  C_30
    3  A    between atoms: O_14  and  C_34
    4  A    between atoms: C_17  and  C_49
    5  A    between atoms: C_28  and  C_29
    6  A    between atoms: C_28  and  C_47
    7  A    between atoms: C_30  and  C_50
    8  A    between atoms: N_32  and  C_37
    9  A    between atoms: C_34  and  C_49
   10  A    between atoms: C_39  and  C_50
                            x       y       z     vdW  Elec       q    Type
                         _______ _______ _______ _____ _____    ______ ____

>  <TORSDO>
F 10

$$$$
=
 OpenBabel11062414043D

 53 58  0  0  1  0  0  0  0  0999 V2000
  184.6500  175.2710  137.4600 C   0  0  0  0  0  3  0  0  0  0  0  0
  187.2390  173.6300  136.7010 N   0  0  0  0  0  2  0  0  0  0  0  0
  185.5730  179.8720  137.7940 C   0  0  0  0  0  1  0  0  0  0  0  0
  188.5990  176.1330  136.2810 C   0  0  2  0  0  3  0  0  0  0  0  0
  183.2500  175.2340  137.9170 C   0  0  0  0  0  0  0  0  0  0  0  0
  191.3220  173.5370  135.4860 C   0  0  0  0  0  3  0  0  0  0  0  0
  185.0530  174.6160  136.3640 C   0  0  0  0  0  0  0  0  0  0  0  0
  182.8180  178.8110  138.9940 O   0  0  0  0  0  0  0  0  0  0  0  0
  189.0650  177.8290  138.2530 C   0  0  2  0  0  3  0  0  0  0  0  0
  182.2880  174.3890  137.1700 C   0  0  0  0  0  3  0  0  0  0  0  0
  189.0600  178.8890  137.1630 C   0  0  0  0  0  1  0  0  0  0  0  0
  189.0150  176.4200  137.7120 C   0  0  0  0  0  0  0  0  0  0  0  0
  183.8390  176.8120  139.5700 O   0  0  0  0  0  0  0  0  0  0  0  0
  186.4980  174.6600  135.9600 C   0  0  1  0  0  3  0  0  0  0  0  0
  188.6840  173.6200  136.4270 C   0  0  1  0  0  3  0  0  0  0  0  0
  186.0550  179.2010  139.0690 C   0  0  1  0  0  3  0  0  0  0  0  0
  184.0790  173.7880  135.6180 C   0  0  0  0  0  0  0  0  0  0  0  0
  183.7840  178.2090  139.5360 C   0  0  0  0  0  0  0  0  0  0  0  0
  187.9830  178.1260  139.3050 C   0  0  1  0  0  3  0  0  0  0  0  0
  189.1350  172.3710  135.6880 C   0  0  0  0  0  2  0  0  0  0  0  0
  190.6680  174.8240  135.5610 N   0  0  0  0  0  0  0  0  0  0  0  0
  187.0740  176.0810  136.1740 C   0  0  0  0  0  2  0  0  0  0  0  0
  184.9230  179.0060  140.0840 C   0  0  0  0  0  2  0  0  0  0  0  0
  189.3120  175.5010  138.4610 O   0  0  0  0  0  0  0  0  0  0  0  0
  186.6930  177.9890  138.7760 O   0  0  0  0  0  0  0  0  0  0  0  0
  184.4310  173.1470  134.5940 O   0  0  0  0  0  0  0  0  0  0  0  0
  182.8790  175.9940  138.9560 C   0  0  0  0  0  0  0  0  0  0  0  0
  190.6340  172.3880  135.5580 C   0  0  0  0  0  3  0  0  0  0  0  0
  189.1980  174.8540  135.6780 C   0  0  2  0  0  3  0  0  0  0  0  0
  182.6810  173.7080  136.0880 C   0  0  0  0  0  3  0  0  0  0  0  0
  181.4590  175.9790  139.4580 C   0  0  2  0  0  3  0  0  0  0  0  0
  179.0770  175.8780  138.8720 N   0  0  0  0  0  2  0  0  0  0  0  0
  181.2440  174.8560  140.3130 O   0  0  0  0  0  0  0  0  0  0  0  0
  178.9340  174.5210  139.3940 C   0  0  0  0  0  2  0  0  0  0  0  0
  180.4220  176.0300  138.3190 C   0  0  1  0  0  3  0  0  0  0  0  0
  179.7930  173.3750  141.3100 O   0  0  0  0  0  0  0  0  0  0  0  0
  179.9970  174.2340  140.4130 C   0  0  0  0  0  0  0  0  0  0  0  0
  180.5130  177.3080  137.4810 C   0  0  0  0  0  2  0  0  0  0  0  0
  179.1490  177.8820  137.1070 C   0  0  0  0  0  2  0  0  0  0  0  0
  179.2760  178.7550  136.0250 O   0  0  0  0  0  0  0  0  0  0  0  0
  180.5320  179.3500  136.1900 C   0  0  0  0  0  2  0  0  0  0  0  0
  180.3710  180.8360  136.4910 C   0  0  0  0  0  2  0  0  0  0  0  0
  181.3470  181.2860  137.5300 C   0  0  0  0  0  3  0  0  0  0  0  0
  180.9290  181.7710  138.6960 C   0  0  0  0  0  2  0  0  0  0  0  0
  192.6540  175.9320  134.6160 C   0  0  0  0  0  2  0  0  0  0  0  0
  192.4190  176.1650  136.7360 C   0  0  0  0  0  2  0  0  0  0  0  0
  191.4590  176.0690  135.5520 C   0  0  0  0  0  3  0  0  0  0  0  0
  193.6020  176.0270  135.7990 C   0  0  0  0  0  2  0  0  0  0  0  0
  188.1290  177.2510  140.5540 C   0  0  0  0  0  2  0  0  0  0  0  0
  189.6740  177.6680  142.4820 C   0  0  0  0  0  1  0  0  0  0  0  0
  187.2230  177.8130  142.8360 C   0  0  0  0  0  1  0  0  0  0  0  0
  188.3850  179.3860  141.5250 F   0  0  0  0  0  0  0  0  0  0  0  0
  188.3510  178.0440  141.8430 C   0  0  0  0  0  0  0  0  0  0  0  0
  1  5  1  0  0  0  0
  4 22  1  1  0  0  0
  4 12  1  0  0  0  0
  5 27  2  0  0  0  0
  6 28  2  0  0  0  0
  6 21  1  0  0  0  0
  7  1  2  0  0  0  0
  8 18  2  0  0  0  0
  9 11  1  6  0  0  0
  9 19  1  0  0  0  0
 10  5  1  0  0  0  0
 12  9  1  0  0  0  0
 12 24  2  0  0  0  0
 14 22  1  1  0  0  0
 14  7  1  0  0  0  0
 14  2  1  0  0  0  0
 15 20  1  6  0  0  0
 15  2  1  0  0  0  0
 16  3  1  6  0  0  0
 16 23  1  0  0  0  0
 17 30  1  0  0  0  0
 17  7  1  0  0  0  0
 18 13  1  0  0  0  0
 18 23  1  0  0  0  0
 19 49  1  1  0  0  0
 25 16  1  0  0  0  0
 25 19  1  0  0  0  0
 26 17  2  0  0  0  0
 27 13  1  0  0  0  0
 28 20  1  0  0  0  0
 29 21  1  1  0  0  0
 29  4  1  0  0  0  0
 29 15  1  0  0  0  0
 30 10  2  0  0  0  0
 31 27  1  6  0  0  0
 31 33  1  0  0  0  0
 32 34  1  0  0  0  0
 33 37  1  0  0  0  0
 34 37  1  0  0  0  0
 35 38  1  1  0  0  0
 35 32  1  0  0  0  0
 35 31  1  0  0  0  0
 37 36  2  0  0  0  0
 39 38  1  0  0  0  0
 40 41  1  0  0  0  0
 40 39  1  0  0  0  0
 41 42  1  0  0  0  0
 42 43  1  0  0  0  0
 43 44  2  0  0  0  0
 45 47  1  0  0  0  0
 45 48  1  0  0  0  0
 47 21  1  0  0  0  0
 47 46  1  0  0  0  0
 48 46  1  0  0  0  0
 49 53  1  0  0  0  0
 52 53  1  0  0  0  0
 53 50  1  0  0  0  0
 53 51  1  0  0  0  0
M  END
>  <MODEL>
5

>  <REMARK>
 VINA RESULT:      -4.2      3.237      9.118
  Name = 
  10 active torsions:
  status: ('A' for Active; 'I' for Inactive)
    1  A    between atoms: C_3  and  C_44
    2  A    between atoms: O_14  and  C_30
    3  A    between atoms: O_14  and  C_34
    4  A    between atoms: C_17  and  C_49
    5  A    between atoms: C_28  and  C_29
    6  A    between atoms: C_28  and  C_47
    7  A    between atoms: C_30  and  C_50
    8  A    between atoms: N_32  and  C_37
    9  A    between atoms: C_34  and  C_49
   10  A    between atoms: C_39  and  C_50
                            x       y       z     vdW  Elec       q    Type
                         _______ _______ _______ _____ _____    ______ ____

>  <TORSDO>
F 10

$$$$
