=
 OpenBabel11062414333D

 31 35  0  0  0  0  0  0  0  0999 V2000
  191.5360  176.3800  146.5770 S   0  0  0  0  0  0  0  0  0  0  0  0
  190.1210  176.8650  145.8660 C   0  0  0  0  0  0  0  0  0  0  0  0
  188.7410  177.0690  143.9130 C   0  0  0  0  0  0  0  0  0  0  0  0
  187.8980  177.8330  146.0490 C   0  0  0  0  0  0  0  0  0  0  0  0
  184.6590  178.5190  142.5700 N   0  0  0  0  0  0  0  0  0  0  0  0
  188.2310  178.1910  148.7890 C   0  0  0  0  0  3  0  0  0  0  0  0
  187.7060  177.6640  144.6710 C   0  0  0  0  0  0  0  0  0  0  0  0
  188.5490  176.8190  142.4510 C   0  0  0  0  0  2  0  0  0  0  0  0
  184.1450  178.7800  141.3410 C   0  0  0  0  0  3  0  0  0  0  0  0
  186.4360  178.0610  144.1110 N   0  0  0  0  0  2  0  0  0  0  0  0
  186.8490  178.3620  141.6480 C   0  0  0  0  0  0  0  0  0  0  0  0
  185.9870  178.3020  142.7660 C   0  0  0  0  0  0  0  0  0  0  0  0
  189.9220  176.6990  144.5130 N   0  0  0  0  0  0  0  0  0  0  0  0
  187.0770  178.5660  148.1810 N   0  0  0  0  0  0  0  0  0  0  0  0
  184.9970  178.8360  140.2430 C   0  0  0  0  0  3  0  0  0  0  0  0
  188.3120  178.1350  141.7520 C   0  0  0  0  0  2  0  0  0  0  0  0
  189.2610  177.6240  148.0410 C   0  0  0  0  0  3  0  0  0  0  0  0
  186.8920  178.4010  146.8460 C   0  0  0  0  0  3  0  0  0  0  0  0
  189.1050  177.4370  146.6560 C   0  0  0  0  0  0  0  0  0  0  0  0
  186.3270  178.6280  140.4220 N   0  0  0  0  0  0  0  0  0  0  0  0
  190.9910  176.1240  143.6840 C   0  0  0  0  0  2  0  0  0  0  0  0
  191.7520  176.7290  141.3560 N   0  0  0  0  0  2  0  0  0  0  0  0
  191.4900  177.1270  142.6990 C   0  0  0  0  0  0  0  0  0  0  0  0
  191.6890  178.3160  143.0650 O   0  0  0  0  0  0  0  0  0  0  0  0
  192.2650  177.6550  140.3510 C   0  0  0  0  0  2  0  0  0  0  0  0
  193.0110  176.5390  138.3770 C   0  0  0  0  0  2  0  0  0  0  0  0
  192.6000  175.9350  137.0360 C   0  0  0  0  0  2  0  0  0  0  0  0
  191.1630  175.4210  137.1100 C   0  0  0  0  0  2  0  0  0  0  0  0
  190.6620  176.4100  139.0760 C   0  0  0  0  0  2  0  0  0  0  0  0
  190.8150  175.1560  138.4450 O   0  0  0  0  0  0  0  0  0  0  0  0
  191.8830  177.2430  139.0000 N   0  0  0  0  0  0  0  0  0  0  0  0
  2  1  2  0  0  0  0
  2 19  1  0  0  0  0
  3 13  1  0  0  0  0
  3  7  2  0  0  0  0
  4 19  2  0  0  0  0
  4 18  1  0  0  0  0
  5 12  2  0  0  0  0
  7  4  1  0  0  0  0
  8  3  1  0  0  0  0
  9  5  1  0  0  0  0
 10  7  1  0  0  0  0
 11 16  1  0  0  0  0
 11 12  1  0  0  0  0
 12 10  1  0  0  0  0
 13  2  1  0  0  0  0
 14  6  1  0  0  0  0
 15 20  1  0  0  0  0
 15  9  2  0  0  0  0
 16  8  1  0  0  0  0
 17  6  2  0  0  0  0
 18 14  2  0  0  0  0
 19 17  1  0  0  0  0
 20 11  2  0  0  0  0
 21 13  1  0  0  0  0
 22 23  1  0  0  0  0
 23 24  2  0  0  0  0
 23 21  1  0  0  0  0
 25 22  1  0  0  0  0
 26 31  1  0  0  0  0
 27 28  1  0  0  0  0
 27 26  1  0  0  0  0
 28 30  1  0  0  0  0
 30 29  1  0  0  0  0
 31 29  1  0  0  0  0
 31 25  1  0  0  0  0
M  END
>  <MODEL>
1

>  <REMARK>
 VINA RESULT:      -9.5      0.000      0.000
  Name = 
  4 active torsions:
  status: ('A' for Active; 'I' for Inactive)
    1  A    between atoms: C_2  and  N_9
    2  A    between atoms: C_2  and  N_30
    3  A    between atoms: C_8  and  C_13
    4  A    between atoms: C_8  and  N_22
                            x       y       z     vdW  Elec       q    Type
                         _______ _______ _______ _____ _____    ______ ____

>  <TORSDO>
F 4

$$$$
=
 OpenBabel11062414333D

 31 35  0  0  1  0  0  0  0  0999 V2000
  191.6530  176.3000  145.9290 S   0  0  0  0  0  0  0  0  0  0  0  0
  190.1120  176.7980  145.5760 C   0  0  0  0  0  0  0  0  0  0  0  0
  188.3010  177.0010  144.0150 C   0  0  0  0  0  0  0  0  0  0  0  0
  188.0120  177.7990  146.2820 C   0  0  0  0  0  0  0  0  0  0  0  0
  184.0310  178.4940  143.6860 N   0  0  0  0  0  0  0  0  0  0  0  0
  189.0050  178.1800  148.8530 C   0  0  0  0  0  3  0  0  0  0  0  0
  187.4890  177.6180  144.9940 C   0  0  0  0  0  0  0  0  0  0  0  0
  187.7560  176.7390  142.6470 C   0  0  0  0  0  2  0  0  0  0  0  0
  183.2360  178.7500  142.6150 C   0  0  0  0  0  2  0  0  0  0  0  0
  186.1250  178.0270  144.7550 N   0  0  0  0  0  2  0  0  0  0  0  0
  185.9290  178.2970  142.2610 C   0  0  1  0  0  3  0  0  0  0  0  0
  185.3650  178.2610  143.5550 C   0  0  0  0  0  0  0  0  0  0  0  0
  189.5880  176.6210  144.3150 N   0  0  0  0  0  0  0  0  0  0  0  0
  187.7420  178.5650  148.5390 N   0  0  0  0  0  0  0  0  0  0  0  0
  183.7970  178.7820  141.3420 C   0  0  0  0  0  3  0  0  0  0  0  0
  187.3710  178.0500  142.0090 C   0  0  0  0  0  2  0  0  0  0  0  0
  189.8160  177.5910  147.8850 C   0  0  0  0  0  3  0  0  0  0  0  0
  187.2360  178.3890  147.2910 C   0  0  0  0  0  3  0  0  0  0  0  0
  189.3250  177.3920  146.5820 C   0  0  0  0  0  0  0  0  0  0  0  0
  185.1270  178.5570  141.1950 N   0  0  0  0  0  0  0  0  0  0  0  0
  190.4170  176.0210  143.2590 C   0  0  0  0  0  2  0  0  0  0  0  0
  190.5710  176.7680  140.8530 N   0  0  0  0  0  2  0  0  0  0  0  0
  190.7850  177.0440  142.2360 C   0  0  0  0  0  0  0  0  0  0  0  0
  191.2930  178.1370  142.6000 O   0  0  0  0  0  0  0  0  0  0  0  0
  190.9310  177.7150  139.8030 C   0  0  0  0  0  2  0  0  0  0  0  0
  189.2690  176.3680  138.7440 C   0  0  0  0  0  2  0  0  0  0  0  0
  188.1660  176.3220  137.6890 C   0  0  0  0  0  2  0  0  0  0  0  0
  187.5370  177.7050  137.5250 C   0  0  0  0  0  2  0  0  0  0  0  0
  189.1110  178.8170  138.7000 C   0  0  0  0  0  2  0  0  0  0  0  0
  187.7430  178.4680  138.6860 O   0  0  0  0  0  0  0  0  0  0  0  0
  190.0040  177.6380  138.6730 N   0  0  0  0  0  0  0  0  0  0  0  0
  2  1  2  0  0  0  0
  2 19  1  0  0  0  0
  3 13  1  0  0  0  0
  3  7  2  0  0  0  0
  4 19  2  0  0  0  0
  4 18  1  0  0  0  0
  7  4  1  0  0  0  0
  8  3  1  0  0  0  0
  9  5  1  0  0  0  0
 10  7  1  0  0  0  0
 11 16  1  6  0  0  0
 11 12  1  0  0  0  0
 12  5  2  0  0  0  0
 12 10  1  0  0  0  0
 13  2  1  0  0  0  0
 14  6  1  0  0  0  0
 15  9  1  0  0  0  0
 16  8  1  0  0  0  0
 17  6  2  0  0  0  0
 18 14  2  0  0  0  0
 19 17  1  0  0  0  0
 20 15  2  0  0  0  0
 20 11  1  0  0  0  0
 21 13  1  0  0  0  0
 22 23  1  0  0  0  0
 23 24  2  0  0  0  0
 23 21  1  0  0  0  0
 25 22  1  0  0  0  0
 27 26  1  0  0  0  0
 28 27  1  0  0  0  0
 28 30  1  0  0  0  0
 30 29  1  0  0  0  0
 31 29  1  0  0  0  0
 31 26  1  0  0  0  0
 31 25  1  0  0  0  0
M  END
>  <MODEL>
2

>  <REMARK>
 VINA RESULT:      -9.5      1.548      1.859
  Name = 
  4 active torsions:
  status: ('A' for Active; 'I' for Inactive)
    1  A    between atoms: C_2  and  N_9
    2  A    between atoms: C_2  and  N_30
    3  A    between atoms: C_8  and  C_13
    4  A    between atoms: C_8  and  N_22
                            x       y       z     vdW  Elec       q    Type
                         _______ _______ _______ _____ _____    ______ ____

>  <TORSDO>
F 4

$$$$
=
 OpenBabel11062414333D

 31 35  0  0  1  0  0  0  0  0999 V2000
  189.4360  177.8510  138.2850 S   0  0  0  0  0  0  0  0  0  0  0  0
  187.8670  178.0160  138.7930 C   0  0  0  0  0  0  0  0  0  0  0  0
  186.2870  178.6690  140.4770 C   0  0  0  0  0  0  0  0  0  0  0  0
  185.4830  177.8350  138.3530 C   0  0  0  0  0  0  0  0  0  0  0  0
  181.8300  178.9630  141.2590 N   0  0  0  0  0  0  0  0  0  0  0  0
  185.9840  176.8640  135.7930 C   0  0  0  0  0  3  0  0  0  0  0  0
  185.2050  178.3220  139.6370 C   0  0  0  0  0  0  0  0  0  0  0  0
  186.0290  179.2460  141.8330 C   0  0  0  0  0  2  0  0  0  0  0  0
  181.1150  179.1310  142.4020 C   0  0  0  0  0  2  0  0  0  0  0  0
  183.8210  178.4900  140.0110 N   0  0  0  0  0  2  0  0  0  0  0  0
  183.8040  178.5500  142.5260 C   0  0  1  0  0  3  0  0  0  0  0  0
  183.1600  178.6780  141.2760 C   0  0  0  0  0  0  0  0  0  0  0  0
  187.5850  178.4970  140.0520 N   0  0  0  0  0  0  0  0  0  0  0  0
  184.7090  177.0240  136.2320 N   0  0  0  0  0  0  0  0  0  0  0  0
  181.7550  179.0060  143.6310 C   0  0  0  0  0  3  0  0  0  0  0  0
  185.2510  178.2480  142.6540 C   0  0  0  0  0  2  0  0  0  0  0  0
  187.0540  177.1860  136.6260 C   0  0  0  0  0  3  0  0  0  0  0  0
  184.4410  177.4960  137.4760 C   0  0  0  0  0  3  0  0  0  0  0  0
  186.8140  177.6780  137.9210 C   0  0  0  0  0  0  0  0  0  0  0  0
  183.0810  178.7170  143.6650 N   0  0  0  0  0  0  0  0  0  0  0  0
  188.6840  178.8290  140.9690 C   0  0  0  0  0  2  0  0  0  0  0  0
  189.0490  178.2180  143.3910 N   0  0  0  0  0  2  0  0  0  0  0  0
  188.7930  177.8050  142.0500 C   0  0  0  0  0  0  0  0  0  0  0  0
  188.6720  176.5840  141.7680 O   0  0  0  0  0  0  0  0  0  0  0  0
  189.1920  177.2670  144.4880 C   0  0  0  0  0  2  0  0  0  0  0  0
  187.3480  177.8020  145.9070 C   0  0  0  0  0  2  0  0  0  0  0  0
  186.9180  178.2530  147.3010 C   0  0  0  0  0  2  0  0  0  0  0  0
  187.9310  177.7800  148.3420 C   0  0  0  0  0  2  0  0  0  0  0  0
  189.5180  177.1640  146.8600 C   0  0  0  0  0  2  0  0  0  0  0  0
  188.6430  176.6720  147.8530 O   0  0  0  0  0  0  0  0  0  0  0  0
  188.8090  177.8650  145.7670 N   0  0  0  0  0  0  0  0  0  0  0  0
  1  2  2  0  0  0  0
  2 13  1  0  0  0  0
  3  8  1  0  0  0  0
  4  7  1  0  0  0  0
  5 12  2  0  0  0  0
  5  9  1  0  0  0  0
  6 14  2  0  0  0  0
  6 17  1  0  0  0  0
  7 10  1  0  0  0  0
  7  3  2  0  0  0  0
  8 16  1  0  0  0  0
  9 15  1  0  0  0  0
 10 12  1  0  0  0  0
 11 16  1  6  0  0  0
 11 20  1  0  0  0  0
 12 11  1  0  0  0  0
 13  3  1  0  0  0  0
 13 21  1  0  0  0  0
 14 18  1  0  0  0  0
 15 20  2  0  0  0  0
 17 19  2  0  0  0  0
 18  4  2  0  0  0  0
 19  4  1  0  0  0  0
 19  2  1  0  0  0  0
 21 23  1  0  0  0  0
 22 25  1  0  0  0  0
 23 22  1  0  0  0  0
 24 23  2  0  0  0  0
 25 31  1  0  0  0  0
 26 27  1  0  0  0  0
 27 28  1  0  0  0  0
 29 30  1  0  0  0  0
 30 28  1  0  0  0  0
 31 26  1  0  0  0  0
 31 29  1  0  0  0  0
M  END
>  <MODEL>
3

>  <REMARK>
 VINA RESULT:      -8.2      3.096      7.444
  Name = 
  4 active torsions:
  status: ('A' for Active; 'I' for Inactive)
    1  A    between atoms: C_2  and  N_9
    2  A    between atoms: C_2  and  N_30
    3  A    between atoms: C_8  and  C_13
    4  A    between atoms: C_8  and  N_22
                            x       y       z     vdW  Elec       q    Type
                         _______ _______ _______ _____ _____    ______ ____

>  <TORSDO>
F 4

$$$$
=
 OpenBabel11062414333D

 31 35  0  0  1  0  0  0  0  0999 V2000
  185.1400  178.9470  138.7080 S   0  0  0  0  0  0  0  0  0  0  0  0
  185.9380  178.6250  140.1230 C   0  0  0  0  0  0  0  0  0  0  0  0
  187.9840  178.2000  141.3040 C   0  0  0  0  0  0  0  0  0  0  0  0
  185.9020  178.3000  142.5330 C   0  0  0  0  0  0  0  0  0  0  0  0
  189.6000  177.4280  145.4700 N   0  0  0  0  0  0  0  0  0  0  0  0
  183.1450  178.6740  142.5860 C   0  0  0  0  0  3  0  0  0  0  0  0
  187.2900  178.1080  142.5310 C   0  0  0  0  0  0  0  0  0  0  0  0
  189.4730  178.0600  141.2720 C   0  0  0  0  0  2  0  0  0  0  0  0
  190.7940  176.9540  145.9100 C   0  0  0  0  0  2  0  0  0  0  0  0
  187.9420  177.8780  143.7990 N   0  0  0  0  0  2  0  0  0  0  0  0
  190.1430  176.7960  143.2390 C   0  0  1  0  0  3  0  0  0  0  0  0
  189.2400  177.3740  144.1590 C   0  0  0  0  0  0  0  0  0  0  0  0
  187.3030  178.4380  140.1320 N   0  0  0  0  0  0  0  0  0  0  0  0
  183.8280  178.4220  143.7320 N   0  0  0  0  0  0  0  0  0  0  0  0
  191.6800  176.3880  144.9990 C   0  0  0  0  0  3  0  0  0  0  0  0
  189.8510  176.6930  141.7880 C   0  0  0  0  0  2  0  0  0  0  0  0
  183.8230  178.7440  141.3710 C   0  0  0  0  0  3  0  0  0  0  0  0
  185.1730  178.2370  143.7300 C   0  0  0  0  0  3  0  0  0  0  0  0
  185.2160  178.5580  141.3310 C   0  0  0  0  0  0  0  0  0  0  0  0
  191.3350  176.3210  143.6880 N   0  0  0  0  0  0  0  0  0  0  0  0
  188.0540  178.4850  138.8700 C   0  0  0  0  0  2  0  0  0  0  0  0
  189.6350  176.6500  138.1630 N   0  0  0  0  0  2  0  0  0  0  0  0
  188.2980  177.1070  138.3530 C   0  0  0  0  0  0  0  0  0  0  0  0
  187.3220  176.3620  138.0750 O   0  0  0  0  0  0  0  0  0  0  0  0
  189.9420  175.3240  137.6370 C   0  0  0  0  0  2  0  0  0  0  0  0
  191.8810  174.1720  136.8550 C   0  0  0  0  0  2  0  0  0  0  0  0
  193.3590  173.8780  137.1000 C   0  0  0  0  0  2  0  0  0  0  0  0
  194.0160  175.0550  137.8200 C   0  0  0  0  0  2  0  0  0  0  0  0
  192.0920  176.1120  138.3430 C   0  0  0  0  0  2  0  0  0  0  0  0
  193.2820  176.2300  137.5920 O   0  0  0  0  0  0  0  0  0  0  0  0
  191.3030  174.9130  137.9830 N   0  0  0  0  0  0  0  0  0  0  0  0
  1  2  2  0  0  0  0
  2 13  1  0  0  0  0
  2 19  1  0  0  0  0
  3  7  2  0  0  0  0
  4 18  1  0  0  0  0
  5  9  1  0  0  0  0
  6 14  1  0  0  0  0
  7  4  1  0  0  0  0
  7 10  1  0  0  0  0
  8  3  1  0  0  0  0
  8 16  1  0  0  0  0
 10 12  1  0  0  0  0
 11 16  1  6  0  0  0
 11 20  1  0  0  0  0
 11 12  1  0  0  0  0
 12  5  2  0  0  0  0
 13  3  1  0  0  0  0
 15  9  1  0  0  0  0
 17  6  2  0  0  0  0
 18 14  2  0  0  0  0
 19 17  1  0  0  0  0
 19  4  2  0  0  0  0
 20 15  2  0  0  0  0
 21 13  1  0  0  0  0
 22 23  1  0  0  0  0
 23 21  1  0  0  0  0
 24 23  2  0  0  0  0
 25 31  1  0  0  0  0
 25 22  1  0  0  0  0
 26 27  1  0  0  0  0
 26 31  1  0  0  0  0
 27 28  1  0  0  0  0
 30 28  1  0  0  0  0
 30 29  1  0  0  0  0
 31 29  1  0  0  0  0
M  END
>  <MODEL>
4

>  <REMARK>
 VINA RESULT:      -7.9      2.893      5.370
  Name = 
  4 active torsions:
  status: ('A' for Active; 'I' for Inactive)
    1  A    between atoms: C_2  and  N_9
    2  A    between atoms: C_2  and  N_30
    3  A    between atoms: C_8  and  C_13
    4  A    between atoms: C_8  and  N_22
                            x       y       z     vdW  Elec       q    Type
                         _______ _______ _______ _____ _____    ______ ____

>  <TORSDO>
F 4

$$$$
=
 OpenBabel11062414333D

 31 35  0  0  1  0  0  0  0  0999 V2000
  181.7190  179.2210  138.2530 S   0  0  0  0  0  0  0  0  0  0  0  0
  182.1810  179.0600  139.8360 C   0  0  0  0  0  0  0  0  0  0  0  0
  183.8930  179.1260  141.5180 C   0  0  0  0  0  0  0  0  0  0  0  0
  181.6100  178.6500  142.1640 C   0  0  0  0  0  0  0  0  0  0  0  0
  184.5230  178.6380  145.9820 N   0  0  0  0  0  0  0  0  0  0  0  0
  178.9310  178.3090  141.4930 C   0  0  0  0  0  3  0  0  0  0  0  0
  182.9530  178.8160  142.5270 C   0  0  0  0  0  0  0  0  0  0  0  0
  185.3240  179.3690  141.8760 C   0  0  0  0  0  2  0  0  0  0  0  0
  185.6440  178.4660  146.7300 C   0  0  0  0  0  2  0  0  0  0  0  0
  183.2930  178.7120  143.9270 N   0  0  0  0  0  2  0  0  0  0  0  0
  185.7640  178.2460  143.9870 C   0  0  1  0  0  3  0  0  0  0  0  0
  184.5390  178.5420  144.6250 C   0  0  0  0  0  0  0  0  0  0  0  0
  183.4980  179.2260  140.2030 N   0  0  0  0  0  0  0  0  0  0  0  0
  179.3360  178.1980  142.7830 N   0  0  0  0  0  0  0  0  0  0  0  0
  186.8480  178.1780  146.0960 C   0  0  0  0  0  3  0  0  0  0  0  0
  185.8910  178.1250  142.5140 C   0  0  0  0  0  2  0  0  0  0  0  0
  179.8580  178.5940  140.4920 C   0  0  0  0  0  3  0  0  0  0  0  0
  180.6380  178.3600  143.1340 C   0  0  0  0  0  3  0  0  0  0  0  0
  181.2140  178.7690  140.8180 C   0  0  0  0  0  0  0  0  0  0  0  0
  186.8810  178.0720  144.7430 N   0  0  0  0  0  0  0  0  0  0  0  0
  184.5110  179.5080  139.1760 C   0  0  0  0  0  2  0  0  0  0  0  0
  186.6330  178.2460  138.6510 N   0  0  0  0  0  2  0  0  0  0  0  0
  185.2120  178.2540  138.7720 C   0  0  0  0  0  0  0  0  0  0  0  0
  184.5440  177.2150  138.5280 O   0  0  0  0  0  0  0  0  0  0  0  0
  187.3760  177.0610  138.2370 C   0  0  0  0  0  2  0  0  0  0  0  0
  189.1830  177.2980  139.7800 C   0  0  0  0  0  2  0  0  0  0  0  0
  190.7000  177.3330  139.9520 C   0  0  0  0  0  2  0  0  0  0  0  0
  191.3690  176.4700  138.8820 C   0  0  0  0  0  2  0  0  0  0  0  0
  189.5240  176.2000  137.6110 C   0  0  0  0  0  2  0  0  0  0  0  0
  190.4650  175.5080  138.4040 O   0  0  0  0  0  0  0  0  0  0  0  0
  188.8200  177.2670  138.3570 N   0  0  0  0  0  0  0  0  0  0  0  0
  1  2  2  0  0  0  0
  2 13  1  0  0  0  0
  2 19  1  0  0  0  0
  3  8  1  0  0  0  0
  3  7  2  0  0  0  0
  4  7  1  0  0  0  0
  4 18  1  0  0  0  0
  5  9  1  0  0  0  0
  6 14  1  0  0  0  0
  7 10  1  0  0  0  0
  8 16  1  0  0  0  0
 10 12  1  0  0  0  0
 11 16  1  6  0  0  0
 11 12  1  0  0  0  0
 11 20  1  0  0  0  0
 12  5  2  0  0  0  0
 13  3  1  0  0  0  0
 14 18  2  0  0  0  0
 15  9  1  0  0  0  0
 17 19  1  0  0  0  0
 17  6  2  0  0  0  0
 19  4  2  0  0  0  0
 20 15  2  0  0  0  0
 21 13  1  0  0  0  0
 22 23  1  0  0  0  0
 23 21  1  0  0  0  0
 24 23  2  0  0  0  0
 25 31  1  0  0  0  0
 25 22  1  0  0  0  0
 26 27  1  0  0  0  0
 28 27  1  0  0  0  0
 29 31  1  0  0  0  0
 29 30  1  0  0  0  0
 30 28  1  0  0  0  0
 31 26  1  0  0  0  0
M  END
>  <MODEL>
5

>  <REMARK>
 VINA RESULT:      -7.9      3.605      6.841
  Name = 
  4 active torsions:
  status: ('A' for Active; 'I' for Inactive)
    1  A    between atoms: C_2  and  N_9
    2  A    between atoms: C_2  and  N_30
    3  A    between atoms: C_8  and  C_13
    4  A    between atoms: C_8  and  N_22
                            x       y       z     vdW  Elec       q    Type
                         _______ _______ _______ _____ _____    ______ ____

>  <TORSDO>
F 4

$$$$
=
 OpenBabel11062414333D

 31 35  0  0  1  0  0  0  0  0999 V2000
  185.7770  178.6630  138.4970 S   0  0  0  0  0  0  0  0  0  0  0  0
  186.4400  178.4130  139.9950 C   0  0  0  0  0  0  0  0  0  0  0  0
  188.3640  178.0310  141.3780 C   0  0  0  0  0  0  0  0  0  0  0  0
  186.1820  178.2280  142.4060 C   0  0  0  0  0  0  0  0  0  0  0  0
  189.5860  177.4800  145.7100 N   0  0  0  0  0  0  0  0  0  0  0  0
  183.4380  178.6390  142.1890 C   0  0  0  0  0  3  0  0  0  0  0  0
  187.5620  178.0190  142.5410 C   0  0  0  0  0  0  0  0  0  0  0  0
  189.8470  177.8700  141.4890 C   0  0  0  0  0  2  0  0  0  0  0  0
  190.7280  177.0170  146.2820 C   0  0  0  0  0  2  0  0  0  0  0  0
  188.0930  177.8530  143.8740 N   0  0  0  0  0  2  0  0  0  0  0  0
  190.3160  176.7130  143.5760 C   0  0  1  0  0  3  0  0  0  0  0  0
  189.3450  177.3550  144.3770 C   0  0  0  0  0  0  0  0  0  0  0  0
  187.7950  178.2100  140.1380 N   0  0  0  0  0  0  0  0  0  0  0  0
  184.0120  178.4450  143.4040 N   0  0  0  0  0  0  0  0  0  0  0  0
  191.6820  176.3890  145.4880 C   0  0  0  0  0  3  0  0  0  0  0  0
  190.1520  176.5310  142.1130 C   0  0  0  0  0  2  0  0  0  0  0  0
  184.2240  178.6310  141.0380 C   0  0  0  0  0  3  0  0  0  0  0  0
  185.3480  178.2430  143.5340 C   0  0  0  0  0  3  0  0  0  0  0  0
  185.6110  178.4250  141.1340 C   0  0  0  0  0  0  0  0  0  0  0  0
  191.4540  176.2500  144.1570 N   0  0  0  0  0  0  0  0  0  0  0  0
  188.6560  178.1740  138.9480 C   0  0  0  0  0  2  0  0  0  0  0  0
  187.7540  176.1880  137.6790 N   0  0  0  0  0  2  0  0  0  0  0  0
  188.8020  176.7770  138.4470 C   0  0  0  0  0  0  0  0  0  0  0  0
  189.8430  176.1220  138.7160 O   0  0  0  0  0  0  0  0  0  0  0  0
  187.8240  174.8180  137.1810 C   0  0  0  0  0  2  0  0  0  0  0  0
  186.0870  173.2310  137.5810 C   0  0  0  0  0  2  0  0  0  0  0  0
  184.6500  172.8240  137.2590 C   0  0  0  0  0  2  0  0  0  0  0  0
  183.8150  174.0600  136.9280 C   0  0  0  0  0  2  0  0  0  0  0  0
  185.5610  175.4790  136.7470 C   0  0  0  0  0  2  0  0  0  0  0  0
  184.3990  175.2020  137.5000 O   0  0  0  0  0  0  0  0  0  0  0  0
  186.5150  174.3480  136.7280 N   0  0  0  0  0  0  0  0  0  0  0  0
  1  2  2  0  0  0  0
  2 13  1  0  0  0  0
  2 19  1  0  0  0  0
  3  8  1  0  0  0  0
  3  7  2  0  0  0  0
  4  7  1  0  0  0  0
  4 18  1  0  0  0  0
  5  9  1  0  0  0  0
  6 14  1  0  0  0  0
  7 10  1  0  0  0  0
  8 16  1  0  0  0  0
 10 12  1  0  0  0  0
 11 16  1  6  0  0  0
 11 20  1  0  0  0  0
 11 12  1  0  0  0  0
 12  5  2  0  0  0  0
 13  3  1  0  0  0  0
 14 18  2  0  0  0  0
 15  9  1  0  0  0  0
 17 19  1  0  0  0  0
 17  6  2  0  0  0  0
 19  4  2  0  0  0  0
 20 15  2  0  0  0  0
 21 13  1  0  0  0  0
 22 23  1  0  0  0  0
 23 24  2  0  0  0  0
 23 21  1  0  0  0  0
 25 22  1  0  0  0  0
 27 26  1  0  0  0  0
 28 27  1  0  0  0  0
 28 30  1  0  0  0  0
 29 30  1  0  0  0  0
 31 29  1  0  0  0  0
 31 25  1  0  0  0  0
 31 26  1  0  0  0  0
M  END
>  <MODEL>
6

>  <REMARK>
 VINA RESULT:      -7.7      3.508      6.152
  Name = 
  4 active torsions:
  status: ('A' for Active; 'I' for Inactive)
    1  A    between atoms: C_2  and  N_9
    2  A    between atoms: C_2  and  N_30
    3  A    between atoms: C_8  and  C_13
    4  A    between atoms: C_8  and  N_22
                            x       y       z     vdW  Elec       q    Type
                         _______ _______ _______ _____ _____    ______ ____

>  <TORSDO>
F 4

$$$$
=
 OpenBabel11062414333D

 31 35  0  0  1  0  0  0  0  0999 V2000
  180.3480  179.1510  143.5460 S   0  0  0  0  0  0  0  0  0  0  0  0
  181.7360  179.0030  142.6520 C   0  0  0  0  0  0  0  0  0  0  0  0
  182.8320  178.9040  140.5200 C   0  0  0  0  0  0  0  0  0  0  0  0
  184.1550  178.7930  142.5420 C   0  0  0  0  0  0  0  0  0  0  0  0
  186.9440  178.5480  138.6400 N   0  0  0  0  0  0  0  0  0  0  0  0
  184.3280  178.8100  145.3200 C   0  0  0  0  0  3  0  0  0  0  0  0
  184.0950  178.7820  141.1420 C   0  0  0  0  0  0  0  0  0  0  0  0
  182.7340  178.9540  139.0280 C   0  0  0  0  0  2  0  0  0  0  0  0
  187.3440  178.2540  137.3760 C   0  0  0  0  0  2  0  0  0  0  0  0
  185.3380  178.6990  140.4130 N   0  0  0  0  0  2  0  0  0  0  0  0
  184.7170  177.8840  138.1150 C   0  0  1  0  0  3  0  0  0  0  0  0
  185.6550  178.3850  139.0450 C   0  0  0  0  0  0  0  0  0  0  0  0
  181.6860  178.9950  141.2760 N   0  0  0  0  0  0  0  0  0  0  0  0
  185.4480  178.7040  144.5610 N   0  0  0  0  0  0  0  0  0  0  0  0
  186.4160  177.7640  136.4630 C   0  0  0  0  0  3  0  0  0  0  0  0
  183.2880  177.6740  138.4530 C   0  0  0  0  0  2  0  0  0  0  0  0
  183.0790  178.9090  144.7090 C   0  0  0  0  0  3  0  0  0  0  0  0
  185.3880  178.6950  143.2050 C   0  0  0  0  0  3  0  0  0  0  0  0
  182.9790  178.9020  143.3070 C   0  0  0  0  0  0  0  0  0  0  0  0
  185.1280  177.5890  136.8530 N   0  0  0  0  0  0  0  0  0  0  0  0
  180.3870  179.0770  140.5930 C   0  0  0  0  0  2  0  0  0  0  0  0
  180.0340  181.0300  139.0330 N   0  0  0  0  0  2  0  0  0  0  0  0
  180.0070  180.5000  140.3570 C   0  0  0  0  0  0  0  0  0  0  0  0
  179.6770  181.2280  141.3310 O   0  0  0  0  0  0  0  0  0  0  0  0
  179.6980  182.4190  138.7390 C   0  0  0  0  0  2  0  0  0  0  0  0
  179.9790  182.2850  136.3720 C   0  0  0  0  0  2  0  0  0  0  0  0
  180.6290  182.9120  135.1410 C   0  0  0  0  0  2  0  0  0  0  0  0
  180.8080  184.4160  135.3500 C   0  0  0  0  0  2  0  0  0  0  0  0
  180.3540  184.3990  137.5600 C   0  0  0  0  0  2  0  0  0  0  0  0
  179.8970  184.8790  136.3130 O   0  0  0  0  0  0  0  0  0  0  0  0
  180.4660  182.9250  137.6010 N   0  0  0  0  0  0  0  0  0  0  0  0
  2 19  1  0  0  0  0
  2  1  2  0  0  0  0
  3  7  2  0  0  0  0
  3 13  1  0  0  0  0
  4 18  2  0  0  0  0
  4 19  1  0  0  0  0
  5 12  2  0  0  0  0
  7  4  1  0  0  0  0
  8  3  1  0  0  0  0
  9  5  1  0  0  0  0
 10  7  1  0  0  0  0
 11 16  1  6  0  0  0
 11 12  1  0  0  0  0
 12 10  1  0  0  0  0
 13  2  1  0  0  0  0
 14  6  2  0  0  0  0
 15 20  2  0  0  0  0
 15  9  1  0  0  0  0
 16  8  1  0  0  0  0
 17  6  1  0  0  0  0
 18 14  1  0  0  0  0
 19 17  2  0  0  0  0
 20 11  1  0  0  0  0
 21 13  1  0  0  0  0
 22 23  1  0  0  0  0
 23 21  1  0  0  0  0
 23 24  2  0  0  0  0
 25 22  1  0  0  0  0
 26 31  1  0  0  0  0
 27 28  1  0  0  0  0
 27 26  1  0  0  0  0
 28 30  1  0  0  0  0
 29 31  1  0  0  0  0
 30 29  1  0  0  0  0
 31 25  1  0  0  0  0
M  END
>  <MODEL>
7

>  <REMARK>
 VINA RESULT:      -7.6      5.856      9.361
  Name = 
  4 active torsions:
  status: ('A' for Active; 'I' for Inactive)
    1  A    between atoms: C_2  and  N_9
    2  A    between atoms: C_2  and  N_30
    3  A    between atoms: C_8  and  C_13
    4  A    between atoms: C_8  and  N_22
                            x       y       z     vdW  Elec       q    Type
                         _______ _______ _______ _____ _____    ______ ____

>  <TORSDO>
F 4

$$$$
=
 OpenBabel11062414333D

 31 35  0  0  1  0  0  0  0  0999 V2000
  185.7440  179.0030  139.9350 S   0  0  0  0  0  0  0  0  0  0  0  0
  186.4700  178.6310  141.3770 C   0  0  0  0  0  0  0  0  0  0  0  0
  188.4540  178.1630  142.6440 C   0  0  0  0  0  0  0  0  0  0  0  0
  186.3120  178.2220  143.7690 C   0  0  0  0  0  0  0  0  0  0  0  0
  189.8570  177.2440  146.8570 N   0  0  0  0  0  0  0  0  0  0  0  0
  183.5560  178.5970  143.6960 C   0  0  0  0  0  3  0  0  0  0  0  0
  187.6990  178.0290  143.8310 C   0  0  0  0  0  0  0  0  0  0  0  0
  189.9430  178.0210  142.6830 C   0  0  0  0  0  2  0  0  0  0  0  0
  191.0280  176.7530  147.3400 C   0  0  0  0  0  2  0  0  0  0  0  0
  188.2850  177.7530  145.1220 N   0  0  0  0  0  2  0  0  0  0  0  0
  190.5130  176.6890  144.6360 C   0  0  1  0  0  3  0  0  0  0  0  0
  189.5650  177.2350  145.5290 C   0  0  0  0  0  0  0  0  0  0  0  0
  187.8330  178.4420  141.4490 N   0  0  0  0  0  0  0  0  0  0  0  0
  184.1800  178.3050  144.8660 N   0  0  0  0  0  0  0  0  0  0  0  0
  191.9600  176.2180  146.4560 C   0  0  0  0  0  3  0  0  0  0  0  0
  190.2940  176.6370  143.1690 C   0  0  0  0  0  2  0  0  0  0  0  0
  184.2950  178.7090  142.5200 C   0  0  0  0  0  3  0  0  0  0  0  0
  185.5240  178.1180  144.9250 C   0  0  0  0  0  3  0  0  0  0  0  0
  185.6880  178.5230  142.5440 C   0  0  0  0  0  0  0  0  0  0  0  0
  191.6810  176.1970  145.1280 N   0  0  0  0  0  0  0  0  0  0  0  0
  188.6460  178.5320  140.2280 C   0  0  0  0  0  2  0  0  0  0  0  0
  187.8580  177.0650  138.3320 N   0  0  0  0  0  2  0  0  0  0  0  0
  188.6530  177.2270  139.5050 C   0  0  0  0  0  0  0  0  0  0  0  0
  189.3510  176.2750  139.9420 O   0  0  0  0  0  0  0  0  0  0  0  0
  187.8020  175.8080  137.5930 C   0  0  0  0  0  2  0  0  0  0  0  0
  188.4720  177.2960  135.8510 C   0  0  0  0  0  2  0  0  0  0  0  0
  189.3530  177.4800  134.6180 C   0  0  0  0  0  2  0  0  0  0  0  0
  190.6110  176.6210  134.7380 C   0  0  0  0  0  2  0  0  0  0  0  0
  189.8960  175.4050  136.5000 C   0  0  0  0  0  2  0  0  0  0  0  0
  190.8730  176.3370  136.0880 O   0  0  0  0  0  0  0  0  0  0  0  0
  188.5150  175.9050  136.3190 N   0  0  0  0  0  0  0  0  0  0  0  0
  1  2  2  0  0  0  0
  2 13  1  0  0  0  0
  2 19  1  0  0  0  0
  3  8  1  0  0  0  0
  3  7  2  0  0  0  0
  4  7  1  0  0  0  0
  4 18  1  0  0  0  0
  5  9  1  0  0  0  0
  6 14  1  0  0  0  0
  7 10  1  0  0  0  0
  8 16  1  0  0  0  0
 10 12  1  0  0  0  0
 11 16  1  6  0  0  0
 11 20  1  0  0  0  0
 11 12  1  0  0  0  0
 12  5  2  0  0  0  0
 13  3  1  0  0  0  0
 14 18  2  0  0  0  0
 15  9  1  0  0  0  0
 17 19  1  0  0  0  0
 17  6  2  0  0  0  0
 19  4  2  0  0  0  0
 20 15  2  0  0  0  0
 21 13  1  0  0  0  0
 22 23  1  0  0  0  0
 23 24  2  0  0  0  0
 23 21  1  0  0  0  0
 25 22  1  0  0  0  0
 26 31  1  0  0  0  0
 27 28  1  0  0  0  0
 27 26  1  0  0  0  0
 28 30  1  0  0  0  0
 30 29  1  0  0  0  0
 31 29  1  0  0  0  0
 31 25  1  0  0  0  0
M  END
>  <MODEL>
8

>  <REMARK>
 VINA RESULT:      -7.6      2.844      5.274
  Name = 
  4 active torsions:
  status: ('A' for Active; 'I' for Inactive)
    1  A    between atoms: C_2  and  N_9
    2  A    between atoms: C_2  and  N_30
    3  A    between atoms: C_8  and  C_13
    4  A    between atoms: C_8  and  N_22
                            x       y       z     vdW  Elec       q    Type
                         _______ _______ _______ _____ _____    ______ ____

>  <TORSDO>
F 4

$$$$
=
 OpenBabel11062414333D

 31 35  0  0  1  0  0  0  0  0999 V2000
  188.4500  178.4500  138.6130 S   0  0  0  0  0  0  0  0  0  0  0  0
  188.6290  178.2040  140.2420 C   0  0  0  0  0  0  0  0  0  0  0  0
  190.0360  177.7490  142.1310 C   0  0  0  0  0  0  0  0  0  0  0  0
  187.6670  178.1050  142.4730 C   0  0  0  0  0  0  0  0  0  0  0  0
  189.9020  177.2520  146.6370 N   0  0  0  0  0  0  0  0  0  0  0  0
  185.1390  178.6720  141.4570 C   0  0  0  0  0  3  0  0  0  0  0  0
  188.9300  177.8180  143.0080 C   0  0  0  0  0  0  0  0  0  0  0  0
  191.4080  177.5030  142.6740 C   0  0  0  0  0  2  0  0  0  0  0  0
  190.7940  176.7380  147.5230 C   0  0  0  0  0  2  0  0  0  0  0  0
  189.0370  177.6600  144.4400 N   0  0  0  0  0  2  0  0  0  0  0  0
  191.1710  176.3820  144.8190 C   0  0  1  0  0  3  0  0  0  0  0  0
  190.0530  177.1020  145.2930 C   0  0  0  0  0  0  0  0  0  0  0  0
  189.8670  177.9260  140.7770 N   0  0  0  0  0  0  0  0  0  0  0  0
  185.3190  178.4800  142.7890 N   0  0  0  0  0  0  0  0  0  0  0  0
  191.8950  176.0310  147.0500 C   0  0  0  0  0  3  0  0  0  0  0  0
  191.4300  176.1670  143.3740 C   0  0  0  0  0  2  0  0  0  0  0  0
  186.2240  178.5840  140.5870 C   0  0  0  0  0  3  0  0  0  0  0  0
  186.5430  178.2030  143.3070 C   0  0  0  0  0  3  0  0  0  0  0  0
  187.5060  178.2990  141.0880 C   0  0  0  0  0  0  0  0  0  0  0  0
  192.0570  175.8680  145.7130 N   0  0  0  0  0  0  0  0  0  0  0  0
  191.0340  177.8040  139.8920 C   0  0  0  0  0  2  0  0  0  0  0  0
  191.8730  176.3130  138.0380 N   0  0  0  0  0  2  0  0  0  0  0  0
  190.9890  176.5180  139.1380 C   0  0  0  0  0  0  0  0  0  0  0  0
  190.1630  175.6270  139.4700 O   0  0  0  0  0  0  0  0  0  0  0  0
  191.8630  175.0880  137.2440 C   0  0  0  0  0  2  0  0  0  0  0  0
  193.5140  173.8010  136.0970 C   0  0  0  0  0  2  0  0  0  0  0  0
  194.8990  173.1630  136.1800 C   0  0  0  0  0  2  0  0  0  0  0  0
  195.7910  173.9650  137.1260 C   0  0  0  0  0  2  0  0  0  0  0  0
  194.1340  175.2250  137.9980 C   0  0  0  0  0  2  0  0  0  0  0  0
  195.3190  175.2830  137.2320 O   0  0  0  0  0  0  0  0  0  0  0  0
  193.1090  174.3390  137.4030 N   0  0  0  0  0  0  0  0  0  0  0  0
  1  2  2  0  0  0  0
  2 13  1  0  0  0  0
  2 19  1  0  0  0  0
  3  8  1  0  0  0  0
  3  7  2  0  0  0  0
  4  7  1  0  0  0  0
  4 18  1  0  0  0  0
  5  9  1  0  0  0  0
  6 14  1  0  0  0  0
  7 10  1  0  0  0  0
  8 16  1  0  0  0  0
 10 12  1  0  0  0  0
 11 16  1  6  0  0  0
 11 12  1  0  0  0  0
 11 20  1  0  0  0  0
 12  5  2  0  0  0  0
 13  3  1  0  0  0  0
 14 18  2  0  0  0  0
 15  9  1  0  0  0  0
 17 19  1  0  0  0  0
 17  6  2  0  0  0  0
 19  4  2  0  0  0  0
 20 15  2  0  0  0  0
 21 13  1  0  0  0  0
 22 23  1  0  0  0  0
 23 24  2  0  0  0  0
 23 21  1  0  0  0  0
 25 31  1  0  0  0  0
 25 22  1  0  0  0  0
 26 27  1  0  0  0  0
 26 31  1  0  0  0  0
 27 28  1  0  0  0  0
 28 30  1  0  0  0  0
 30 29  1  0  0  0  0
 31 29  1  0  0  0  0
M  END
>  <MODEL>
9

>  <REMARK>
 VINA RESULT:      -7.6      2.514      5.478
  Name = 
  4 active torsions:
  status: ('A' for Active; 'I' for Inactive)
    1  A    between atoms: C_2  and  N_9
    2  A    between atoms: C_2  and  N_30
    3  A    between atoms: C_8  and  C_13
    4  A    between atoms: C_8  and  N_22
                            x       y       z     vdW  Elec       q    Type
                         _______ _______ _______ _____ _____    ______ ____

>  <TORSDO>
F 4

$$$$
