=
 OpenBabel11062417523D

 39 42  0  0  1  0  0  0  0  0999 V2000
  182.9280  179.3580  139.2610 C   0  0  1  0  0  3  0  0  0  0  0  0
  187.4050  175.2400  136.3050 C   0  0  0  0  0  0  0  0  0  0  0  0
  185.1920  176.4670  136.4800 C   0  0  0  0  0  2  0  0  0  0  0  0
  183.2110  179.3790  140.7630 C   0  0  0  0  0  2  0  0  0  0  0  0
  184.5050  175.7240  137.6120 C   0  0  0  0  0  2  0  0  0  0  0  0
  185.6860  179.3770  141.0570 C   0  0  0  0  0  2  0  0  0  0  0  0
  182.0450  178.1810  138.7710 C   0  0  2  0  0  0  0  0  0  0  0  0
  181.3850  177.3610  139.8880 C   0  0  0  0  0  1  0  0  0  0  0  0
  182.7580  177.3530  137.8640 O   0  0  0  0  0  0  0  0  0  0  0  0
  188.1960  177.2190  137.4250 N   0  0  0  0  0  2  0  0  0  0  0  0
  183.8080  176.7050  138.5390 C   0  0  0  0  0  2  0  0  0  0  0  0
  180.4950  178.2670  136.7330 C   0  0  0  0  0  1  0  0  0  0  0  0
  182.3550  180.5850  138.8780 O   0  0  0  0  0  0  0  0  0  0  0  0
  186.9110  178.0930  139.3050 C   0  0  0  0  0  2  0  0  0  0  0  0
  186.9400  178.5550  140.7610 C   0  0  2  0  0  3  0  0  0  0  0  0
  181.4610  180.2970  137.8370 C   0  0  1  0  0  3  0  0  0  0  0  0
  188.3050  177.8150  138.7500 C   0  0  2  0  0  3  0  0  0  0  0  0
  184.4230  178.5250  141.0830 C   0  0  0  0  0  2  0  0  0  0  0  0
  187.8950  175.8050  137.5960 C   0  0  0  0  0  2  0  0  0  0  0  0
  188.1530  174.4710  135.6470 O   0  0  0  0  0  0  0  0  0  0  0  0
  186.1150  175.5800  135.7870 N   0  0  0  0  0  2  0  0  0  0  0  0
  180.9260  178.9050  138.0500 C   0  0  2  0  0  3  0  0  0  0  0  0
  179.2190  181.3720  136.4150 O   0  0  0  0  0  0  0  0  0  0  0  0
  180.1030  181.5080  137.8510 P   0  0  0  0  0  0  0  0  0  0  0  0
  180.6640  182.9060  137.9630 O   0  0  0  0  0  1  0  0  0  0  0  0
  179.0830  181.2040  139.1640 O   0  0  0  0  0  1  0  0  0  0  0  0
  189.0560  179.6230  137.3030 N   0  0  0  0  0  1  0  0  0  0  0  0
  189.1030  179.1060  138.6590 C   0  0  0  0  0  2  0  0  0  0  0  0
  187.0780  177.3900  141.7410 C   0  0  0  0  0  2  0  0  0  0  0  0
  188.5240  177.1490  142.1340 C   0  0  0  0  0  2  0  0  0  0  0  0
  189.4290  177.8620  144.2960 C   0  0  1  0  0  3  0  0  0  0  0  0
  188.6100  176.8340  143.6150 C   0  0  1  0  0  3  0  0  0  0  0  0
  188.0210  177.8780  144.3490 O   0  0  0  0  0  0  0  0  0  0  0  0
  190.1950  176.7470  147.6540 O   0  0  0  0  0  0  0  0  0  0  0  0
  192.4300  175.6970  147.6840 C   0  0  0  0  0  1  0  0  0  0  0  0
  191.2300  176.7080  145.6880 C   0  0  0  0  0  3  0  0  0  0  0  0
  191.2860  176.3790  147.0250 C   0  0  0  0  0  0  0  0  0  0  0  0
  189.3760  177.3170  146.8020 C   0  0  0  0  0  3  0  0  0  0  0  0
  189.9880  177.2990  145.5620 C   0  0  0  0  0  0  0  0  0  0  0  0
  1  4  1  1  0  0  0
  2 19  1  0  0  0  0
  3  5  1  0  0  0  0
  4 18  1  0  0  0  0
  5 11  1  0  0  0  0
  6 18  1  0  0  0  0
  7  1  1  0  0  0  0
  7  8  1  1  0  0  0
  9 11  1  0  0  0  0
  9  7  1  0  0  0  0
 10 19  1  0  0  0  0
 10 17  1  0  0  0  0
 13  1  1  0  0  0  0
 14 15  1  0  0  0  0
 15  6  1  0  0  0  0
 15 29  1  1  0  0  0
 16 24  1  1  0  0  0
 16 22  1  0  0  0  0
 16 13  1  0  0  0  0
 17 28  1  6  0  0  0
 17 14  1  0  0  0  0
 20  2  2  0  0  0  0
 21  2  1  0  0  0  0
 21  3  1  0  0  0  0
 22 12  1  6  0  0  0
 22  7  1  0  0  0  0
 23 24  2  0  0  0  0
 24 25  1  0  0  0  0
 24 26  1  0  0  0  0
 27 28  1  0  0  0  0
 29 30  1  0  0  0  0
 31 33  1  0  0  0  0
 31 39  1  1  0  0  0
 32 30  1  6  0  0  0
 32 31  1  0  0  0  0
 32 33  1  0  0  0  0
 36 37  2  0  0  0  0
 37 34  1  0  0  0  0
 37 35  1  0  0  0  0
 38 34  1  0  0  0  0
 39 36  1  0  0  0  0
 39 38  2  0  0  0  0
M  END
>  <MODEL>
1

>  <REMARK>
 VINA RESULT:      -6.9      0.000      0.000
  Name = 
  6 active torsions:
  status: ('A' for Active; 'I' for Inactive)
    1  A    between atoms: C_1  and  C_21
    2  A    between atoms: C_1  and  C_34
    3  A    between atoms: P_7  and  C_24
    4  A    between atoms: C_21  and  C_23
    5  A    between atoms: C_27  and  C_33
    6  A    between atoms: C_28  and  C_35
                            x       y       z     vdW  Elec       q    Type
                         _______ _______ _______ _____ _____    ______ ____

>  <TORSDO>
F 6

$$$$
=
 OpenBabel11062417523D

 39 42  0  0  1  0  0  0  0  0999 V2000
  183.2100  179.0300  138.5300 C   0  0  1  0  0  3  0  0  0  0  0  0
  184.8480  173.3510  135.2400 C   0  0  0  0  0  0  0  0  0  0  0  0
  183.2340  175.0570  136.1990 C   0  0  0  0  0  2  0  0  0  0  0  0
  184.3580  179.3880  139.4740 C   0  0  0  0  0  2  0  0  0  0  0  0
  183.3750  174.8240  137.6930 C   0  0  0  0  0  2  0  0  0  0  0  0
  186.4890  178.8940  138.2800 C   0  0  0  0  0  2  0  0  0  0  0  0
  182.1920  178.0010  139.0860 C   0  0  2  0  0  0  0  0  0  0  0  0
  182.3450  177.6860  140.5810 C   0  0  0  0  0  1  0  0  0  0  0  0
  182.1820  176.8180  138.3000 O   0  0  0  0  0  0  0  0  0  0  0  0
  186.1960  175.3210  134.9200 N   0  0  0  0  0  2  0  0  0  0  0  0
  183.4130  176.1510  138.4300 C   0  0  0  0  0  2  0  0  0  0  0  0
  179.7180  177.8900  138.4290 C   0  0  0  0  0  1  0  0  0  0  0  0
  182.5440  180.2060  138.1380 O   0  0  0  0  0  0  0  0  0  0  0  0
  186.3550  176.9400  136.7370 C   0  0  0  0  0  2  0  0  0  0  0  0
  187.2810  177.7570  137.6360 C   0  0  2  0  0  3  0  0  0  0  0  0
  181.1940  179.8630  137.9780 C   0  0  1  0  0  3  0  0  0  0  0  0
  187.1070  176.2090  135.6290 C   0  0  2  0  0  3  0  0  0  0  0  0
  185.4940  178.3960  139.3220 C   0  0  0  0  0  2  0  0  0  0  0  0
  186.0380  174.1140  135.7180 C   0  0  0  0  0  2  0  0  0  0  0  0
  185.0200  172.2830  134.5980 O   0  0  0  0  0  0  0  0  0  0  0  0
  183.5190  173.8270  135.4720 N   0  0  0  0  0  2  0  0  0  0  0  0
  180.8790  178.7420  138.9340 C   0  0  2  0  0  3  0  0  0  0  0  0
  179.6580  181.2590  139.9520 O   0  0  0  0  0  1  0  0  0  0  0  0
  180.1530  181.3120  138.3360 P   0  0  0  0  0  0  0  0  0  0  0  0
  178.9370  181.3030  137.4390 O   0  0  0  0  0  0  0  0  0  0  0  0
  181.0370  182.7280  138.0700 O   0  0  0  0  0  1  0  0  0  0  0  0
  189.1460  177.0640  134.6110 N   0  0  0  0  0  1  0  0  0  0  0  0
  187.7020  177.2080  134.6500 C   0  0  0  0  0  2  0  0  0  0  0  0
  187.9720  176.8990  138.6970 C   0  0  0  0  0  2  0  0  0  0  0  0
  189.0790  177.6580  139.4050 C   0  0  0  0  0  2  0  0  0  0  0  0
  189.0690  178.3660  141.7510 C   0  0  1  0  0  3  0  0  0  0  0  0
  189.1780  177.1990  140.8470 C   0  0  1  0  0  3  0  0  0  0  0  0
  187.9800  177.5020  141.5170 O   0  0  0  0  0  0  0  0  0  0  0  0
  191.2260  177.6520  144.5690 O   0  0  0  0  0  0  0  0  0  0  0  0
  189.8460  177.1220  146.5480 C   0  0  0  0  0  1  0  0  0  0  0  0
  189.0320  177.7220  144.2190 C   0  0  0  0  0  3  0  0  0  0  0  0
  190.0470  177.4960  145.1240 C   0  0  0  0  0  0  0  0  0  0  0  0
  191.0690  177.9820  143.3090 C   0  0  0  0  0  3  0  0  0  0  0  0
  189.7100  178.0460  143.0610 C   0  0  0  0  0  0  0  0  0  0  0  0
  1  7  1  0  0  0  0
  1  4  1  1  0  0  0
  2 21  1  0  0  0  0
  2 19  1  0  0  0  0
  3  5  1  0  0  0  0
  5 11  1  0  0  0  0
  6 18  1  0  0  0  0
  7  8  1  1  0  0  0
  9 11  1  0  0  0  0
  9  7  1  0  0  0  0
 10 17  1  0  0  0  0
 10 19  1  0  0  0  0
 13  1  1  0  0  0  0
 14 15  1  0  0  0  0
 15  6  1  0  0  0  0
 15 29  1  1  0  0  0
 16 13  1  0  0  0  0
 16 24  1  1  0  0  0
 16 22  1  0  0  0  0
 17 28  1  6  0  0  0
 17 14  1  0  0  0  0
 18  4  1  0  0  0  0
 20  2  2  0  0  0  0
 21  3  1  0  0  0  0
 22 12  1  6  0  0  0
 22  7  1  0  0  0  0
 24 23  1  0  0  0  0
 25 24  2  0  0  0  0
 26 24  1  0  0  0  0
 27 28  1  0  0  0  0
 29 30  1  0  0  0  0
 31 39  1  1  0  0  0
 32 30  1  6  0  0  0
 32 33  1  0  0  0  0
 32 31  1  0  0  0  0
 33 31  1  0  0  0  0
 34 37  1  0  0  0  0
 36 37  2  0  0  0  0
 37 35  1  0  0  0  0
 38 34  1  0  0  0  0
 39 38  2  0  0  0  0
 39 36  1  0  0  0  0
M  END
>  <MODEL>
2

>  <REMARK>
 VINA RESULT:      -6.3      1.769      2.714
  Name = 
  6 active torsions:
  status: ('A' for Active; 'I' for Inactive)
    1  A    between atoms: C_1  and  C_21
    2  A    between atoms: C_1  and  C_34
    3  A    between atoms: P_7  and  C_24
    4  A    between atoms: C_21  and  C_23
    5  A    between atoms: C_27  and  C_33
    6  A    between atoms: C_28  and  C_35
                            x       y       z     vdW  Elec       q    Type
                         _______ _______ _______ _____ _____    ______ ____

>  <TORSDO>
F 6

$$$$
=
 OpenBabel11062417523D

 39 42  0  0  1  0  0  0  0  0999 V2000
  183.5420  179.1390  139.2890 C   0  0  1  0  0  3  0  0  0  0  0  0
  187.3910  175.0660  135.5030 C   0  0  0  0  0  0  0  0  0  0  0  0
  185.2630  176.3210  136.0780 C   0  0  0  0  0  2  0  0  0  0  0  0
  184.0640  179.0980  140.7250 C   0  0  0  0  0  2  0  0  0  0  0  0
  184.7520  175.5460  137.2790 C   0  0  0  0  0  2  0  0  0  0  0  0
  186.5540  179.0450  140.6140 C   0  0  0  0  0  2  0  0  0  0  0  0
  182.5650  177.9970  138.9070 C   0  0  2  0  0  0  0  0  0  0  0  0
  182.0770  177.1450  140.0870 C   0  0  0  0  0  1  0  0  0  0  0  0
  183.1050  177.1920  137.8680 O   0  0  0  0  0  0  0  0  0  0  0  0
  188.3960  176.9880  136.5490 N   0  0  0  0  0  2  0  0  0  0  0  0
  184.2350  176.5020  138.3410 C   0  0  0  0  0  2  0  0  0  0  0  0
  180.7100  178.1860  137.1510 C   0  0  0  0  0  1  0  0  0  0  0  0
  182.9420  180.3890  139.0480 O   0  0  0  0  0  0  0  0  0  0  0  0
  187.4510  177.8090  138.6420 C   0  0  0  0  0  2  0  0  0  0  0  0
  187.7250  178.2150  140.0900 C   0  0  2  0  0  3  0  0  0  0  0  0
  181.8860  180.1560  138.1550 C   0  0  1  0  0  3  0  0  0  0  0  0
  188.7310  177.5300  137.8590 C   0  0  2  0  0  3  0  0  0  0  0  0
  185.2920  178.2130  140.8140 C   0  0  0  0  0  2  0  0  0  0  0  0
  188.0950  175.5730  136.7160 C   0  0  0  0  0  2  0  0  0  0  0  0
  188.0060  174.3110  134.7060 O   0  0  0  0  0  0  0  0  0  0  0  0
  186.0420  175.4470  135.2130 N   0  0  0  0  0  2  0  0  0  0  0  0
  181.3610  178.7650  138.4030 C   0  0  2  0  0  3  0  0  0  0  0  0
  181.0910  182.8930  137.8590 O   0  0  0  0  0  1  0  0  0  0  0  0
  180.5740  181.3870  138.4320 P   0  0  0  0  0  0  0  0  0  0  0  0
  180.2740  181.4910  139.9090 O   0  0  0  0  0  1  0  0  0  0  0  0
  179.1750  180.9250  137.6040 O   0  0  0  0  0  0  0  0  0  0  0  0
  188.6740  179.8670  137.1790 N   0  0  0  0  0  1  0  0  0  0  0  0
  189.5310  178.8110  137.6860 C   0  0  0  0  0  2  0  0  0  0  0  0
  187.9930  177.0110  140.9930 C   0  0  0  0  0  2  0  0  0  0  0  0
  189.2730  177.1760  141.7910 C   0  0  0  0  0  2  0  0  0  0  0  0
  188.9280  176.8770  144.1980 C   0  0  1  0  0  3  0  0  0  0  0  0
  188.9770  177.8730  143.1040 C   0  0  1  0  0  3  0  0  0  0  0  0
  190.0580  177.6920  143.9840 O   0  0  0  0  0  0  0  0  0  0  0  0
  187.5290  178.0780  147.3130 O   0  0  0  0  0  0  0  0  0  0  0  0
  185.1480  178.6430  146.9840 C   0  0  0  0  0  1  0  0  0  0  0  0
  186.7720  177.7430  145.2510 C   0  0  0  0  0  3  0  0  0  0  0  0
  186.4790  178.1610  146.5320 C   0  0  0  0  0  0  0  0  0  0  0  0
  188.5470  177.6220  146.6220 C   0  0  0  0  0  3  0  0  0  0  0  0
  188.1100  177.4140  145.3270 C   0  0  0  0  0  0  0  0  0  0  0  0
  1  4  1  1  0  0  0
  2 19  1  0  0  0  0
  3  5  1  0  0  0  0
  4 18  1  0  0  0  0
  5 11  1  0  0  0  0
  6 18  1  0  0  0  0
  7  1  1  0  0  0  0
  7  8  1  1  0  0  0
  9 11  1  0  0  0  0
  9  7  1  0  0  0  0
 10 19  1  0  0  0  0
 10 17  1  0  0  0  0
 13  1  1  0  0  0  0
 14 15  1  0  0  0  0
 15  6  1  0  0  0  0
 15 29  1  1  0  0  0
 16 22  1  0  0  0  0
 16 24  1  1  0  0  0
 16 13  1  0  0  0  0
 17 28  1  6  0  0  0
 17 14  1  0  0  0  0
 20  2  2  0  0  0  0
 21  2  1  0  0  0  0
 21  3  1  0  0  0  0
 22 12  1  6  0  0  0
 22  7  1  0  0  0  0
 23 24  1  0  0  0  0
 24 25  1  0  0  0  0
 26 24  2  0  0  0  0
 27 28  1  0  0  0  0
 29 30  1  0  0  0  0
 31 39  1  1  0  0  0
 32 30  1  6  0  0  0
 32 33  1  0  0  0  0
 32 31  1  0  0  0  0
 33 31  1  0  0  0  0
 36 39  1  0  0  0  0
 36 37  2  0  0  0  0
 37 35  1  0  0  0  0
 37 34  1  0  0  0  0
 38 34  1  0  0  0  0
 39 38  2  0  0  0  0
M  END
>  <MODEL>
3

>  <REMARK>
 VINA RESULT:      -6.3      1.389      2.049
  Name = 
  6 active torsions:
  status: ('A' for Active; 'I' for Inactive)
    1  A    between atoms: C_1  and  C_21
    2  A    between atoms: C_1  and  C_34
    3  A    between atoms: P_7  and  C_24
    4  A    between atoms: C_21  and  C_23
    5  A    between atoms: C_27  and  C_33
    6  A    between atoms: C_28  and  C_35
                            x       y       z     vdW  Elec       q    Type
                         _______ _______ _______ _____ _____    ______ ____

>  <TORSDO>
F 6

$$$$
=
 OpenBabel11062417523D

 39 42  0  0  1  0  0  0  0  0999 V2000
  183.3480  177.4780  137.4130 C   0  0  1  0  0  3  0  0  0  0  0  0
  187.0600  172.1110  135.6340 C   0  0  0  0  0  0  0  0  0  0  0  0
  184.8980  173.4090  135.9110 C   0  0  0  0  0  2  0  0  0  0  0  0
  184.1080  178.2540  138.4890 C   0  0  0  0  0  2  0  0  0  0  0  0
  184.7210  173.4120  137.4190 C   0  0  0  0  0  2  0  0  0  0  0  0
  186.5210  178.2250  137.8670 C   0  0  0  0  0  2  0  0  0  0  0  0
  182.5020  176.2850  137.9300 C   0  0  2  0  0  0  0  0  0  0  0  0
  182.3550  176.2130  139.4570 C   0  0  0  0  0  1  0  0  0  0  0  0
  182.9710  175.0570  137.3910 O   0  0  0  0  0  0  0  0  0  0  0  0
  187.9300  174.3210  135.2360 N   0  0  0  0  0  2  0  0  0  0  0  0
  184.2550  174.7790  137.8910 C   0  0  0  0  0  2  0  0  0  0  0  0
  180.3680  175.4130  136.8150 C   0  0  0  0  0  1  0  0  0  0  0  0
  182.5360  178.3660  136.6840 O   0  0  0  0  0  0  0  0  0  0  0  0
  187.2440  176.1340  136.7170 C   0  0  0  0  0  2  0  0  0  0  0  0
  187.6970  177.2800  137.6190 C   0  0  2  0  0  3  0  0  0  0  0  0
  181.3900  177.6460  136.3180 C   0  0  1  0  0  3  0  0  0  0  0  0
  188.3980  175.5080  135.9400 C   0  0  2  0  0  3  0  0  0  0  0  0
  185.4510  177.6040  138.7570 C   0  0  0  0  0  2  0  0  0  0  0  0
  187.8770  173.2270  136.1950 C   0  0  0  0  0  2  0  0  0  0  0  0
  187.6360  171.0610  135.2490 O   0  0  0  0  0  0  0  0  0  0  0  0
  185.6410  172.2260  135.4970 N   0  0  0  0  0  2  0  0  0  0  0  0
  181.1290  176.6090  137.3800 C   0  0  2  0  0  3  0  0  0  0  0  0
  179.1920  178.8810  137.6770 O   0  0  0  0  0  1  0  0  0  0  0  0
  179.9760  178.7830  136.1810 P   0  0  0  0  0  0  0  0  0  0  0  0
  179.0060  178.2710  135.1420 O   0  0  0  0  0  0  0  0  0  0  0  0
  180.5210  180.3190  135.7350 O   0  0  0  0  0  1  0  0  0  0  0  0
  190.3230  176.1490  134.5950 N   0  0  0  0  0  1  0  0  0  0  0  0
  188.9570  176.5020  134.9350 C   0  0  0  0  0  2  0  0  0  0  0  0
  188.2920  176.7860  138.9380 C   0  0  0  0  0  2  0  0  0  0  0  0
  188.8520  177.9270  139.7680 C   0  0  0  0  0  2  0  0  0  0  0  0
  189.0150  178.2720  142.1880 C   0  0  1  0  0  3  0  0  0  0  0  0
  189.4150  177.3890  141.0690 C   0  0  1  0  0  3  0  0  0  0  0  0
  188.3580  177.0510  141.9320 O   0  0  0  0  0  0  0  0  0  0  0  0
  191.6860  178.4210  144.6270 O   0  0  0  0  0  0  0  0  0  0  0  0
  191.3980  176.6050  146.2760 C   0  0  0  0  0  1  0  0  0  0  0  0
  189.9150  177.1240  144.2820 C   0  0  0  0  0  3  0  0  0  0  0  0
  191.0130  177.3870  145.0730 C   0  0  0  0  0  0  0  0  0  0  0  0
  191.0940  178.8930  143.5560 C   0  0  0  0  0  3  0  0  0  0  0  0
  189.9770  178.1120  143.3190 C   0  0  0  0  0  0  0  0  0  0  0  0
  1  7  1  0  0  0  0
  1  4  1  1  0  0  0
  2 19  1  0  0  0  0
  3  5  1  0  0  0  0
  4 18  1  0  0  0  0
  5 11  1  0  0  0  0
  6 18  1  0  0  0  0
  7  8  1  1  0  0  0
  9 11  1  0  0  0  0
  9  7  1  0  0  0  0
 10 17  1  0  0  0  0
 10 19  1  0  0  0  0
 13  1  1  0  0  0  0
 14 15  1  0  0  0  0
 15  6  1  0  0  0  0
 15 29  1  1  0  0  0
 16 24  1  1  0  0  0
 16 13  1  0  0  0  0
 16 22  1  0  0  0  0
 17 28  1  6  0  0  0
 17 14  1  0  0  0  0
 20  2  2  0  0  0  0
 21  2  1  0  0  0  0
 21  3  1  0  0  0  0
 22 12  1  6  0  0  0
 22  7  1  0  0  0  0
 24 23  1  0  0  0  0
 25 24  2  0  0  0  0
 26 24  1  0  0  0  0
 27 28  1  0  0  0  0
 29 30  1  0  0  0  0
 31 39  1  1  0  0  0
 32 30  1  6  0  0  0
 32 33  1  0  0  0  0
 32 31  1  0  0  0  0
 33 31  1  0  0  0  0
 34 37  1  0  0  0  0
 36 37  2  0  0  0  0
 37 35  1  0  0  0  0
 38 34  1  0  0  0  0
 39 38  2  0  0  0  0
 39 36  1  0  0  0  0
M  END
>  <MODEL>
4

>  <REMARK>
 VINA RESULT:      -6.1      2.300      3.124
  Name = 
  6 active torsions:
  status: ('A' for Active; 'I' for Inactive)
    1  A    between atoms: C_1  and  C_21
    2  A    between atoms: C_1  and  C_34
    3  A    between atoms: P_7  and  C_24
    4  A    between atoms: C_21  and  C_23
    5  A    between atoms: C_27  and  C_33
    6  A    between atoms: C_28  and  C_35
                            x       y       z     vdW  Elec       q    Type
                         _______ _______ _______ _____ _____    ______ ____

>  <TORSDO>
F 6

$$$$
=
 OpenBabel11062417523D

 39 42  0  0  1  0  0  0  0  0999 V2000
  187.3730  177.7770  141.0320 C   0  0  1  0  0  3  0  0  0  0  0  0
  184.4150  175.0030  135.6190 C   0  0  0  0  0  0  0  0  0  0  0  0
  186.3460  175.4210  137.2090 C   0  0  0  0  0  2  0  0  0  0  0  0
  186.6390  179.0750  141.3700 C   0  0  0  0  0  2  0  0  0  0  0  0
  186.7140  176.8600  136.8910 C   0  0  0  0  0  2  0  0  0  0  0  0
  184.2050  178.6690  141.0200 C   0  0  0  0  0  2  0  0  0  0  0  0
  188.4660  177.9010  139.9380 C   0  0  2  0  0  0  0  0  0  0  0  0
  188.8180  179.3410  139.5390 C   0  0  0  0  0  1  0  0  0  0  0  0
  188.1450  177.1070  138.8050 O   0  0  0  0  0  0  0  0  0  0  0  0
  183.1430  175.2560  137.6480 N   0  0  0  0  0  2  0  0  0  0  0  0
  187.0000  177.6240  138.1720 C   0  0  0  0  0  2  0  0  0  0  0  0
  190.5550  176.4260  139.7850 C   0  0  0  0  0  1  0  0  0  0  0  0
  187.9240  177.2340  142.2070 O   0  0  0  0  0  0  0  0  0  0  0  0
  183.7010  177.0870  139.1590 C   0  0  0  0  0  2  0  0  0  0  0  0
  183.1820  178.2870  139.9500 C   0  0  2  0  0  3  0  0  0  0  0  0
  189.1180  176.6020  141.8300 C   0  0  1  0  0  3  0  0  0  0  0  0
  182.5770  176.2750  138.5210 C   0  0  2  0  0  3  0  0  0  0  0  0
  185.4690  179.2790  140.4270 C   0  0  0  0  0  2  0  0  0  0  0  0
  183.5020  175.8950  136.3900 C   0  0  0  0  0  2  0  0  0  0  0  0
  183.9790  174.4110  134.5980 O   0  0  0  0  0  0  0  0  0  0  0  0
  185.7660  174.7820  136.0360 N   0  0  0  0  0  2  0  0  0  0  0  0
  189.6830  177.3390  140.6430 C   0  0  2  0  0  3  0  0  0  0  0  0
  191.4160  177.8820  142.9640 O   0  0  0  0  0  0  0  0  0  0  0  0
  190.2920  176.6440  143.2190 P   0  0  0  0  0  0  0  0  0  0  0  0
  191.0180  175.3220  143.3160 O   0  0  0  0  0  1  0  0  0  0  0  0
  189.4590  176.9350  144.6610 O   0  0  0  0  0  1  0  0  0  0  0  0
  180.3480  176.0120  139.4620 N   0  0  0  0  0  1  0  0  0  0  0  0
  181.7350  175.6080  139.5970 C   0  0  0  0  0  2  0  0  0  0  0  0
  182.8530  179.4810  139.0530 C   0  0  0  0  0  2  0  0  0  0  0  0
  181.3650  179.5880  138.7770 C   0  0  0  0  0  2  0  0  0  0  0  0
  180.1450  181.4720  137.7960 C   0  0  1  0  0  3  0  0  0  0  0  0
  180.9040  181.0170  138.9830 C   0  0  1  0  0  3  0  0  0  0  0  0
  179.4990  181.0600  138.9780 O   0  0  0  0  0  0  0  0  0  0  0  0
  180.8620  184.9870  137.3120 O   0  0  0  0  0  0  0  0  0  0  0  0
  179.0340  186.3410  138.2750 C   0  0  0  0  0  1  0  0  0  0  0  0
  179.2220  183.8080  138.2390 C   0  0  0  0  0  3  0  0  0  0  0  0
  179.7110  185.0620  137.9380 C   0  0  0  0  0  0  0  0  0  0  0  0
  181.1910  183.7260  137.1620 C   0  0  0  0  0  3  0  0  0  0  0  0
  180.1820  182.9630  137.7190 C   0  0  0  0  0  0  0  0  0  0  0  0
  1  4  1  1  0  0  0
  1 13  1  0  0  0  0
  2 21  1  0  0  0  0
  2 19  1  0  0  0  0
  5  3  1  0  0  0  0
  5 11  1  0  0  0  0
  7  8  1  6  0  0  0
  7 22  1  0  0  0  0
  7  1  1  0  0  0  0
  9  7  1  0  0  0  0
 10 17  1  0  0  0  0
 11  9  1  0  0  0  0
 14 15  1  0  0  0  0
 15 29  1  6  0  0  0
 15  6  1  0  0  0  0
 16 13  1  0  0  0  0
 16 24  1  1  0  0  0
 17 14  1  0  0  0  0
 17 28  1  1  0  0  0
 18  6  1  0  0  0  0
 18  4  1  0  0  0  0
 19 10  1  0  0  0  0
 20  2  2  0  0  0  0
 21  3  1  0  0  0  0
 22 12  1  6  0  0  0
 22 16  1  0  0  0  0
 23 24  2  0  0  0  0
 24 25  1  0  0  0  0
 24 26  1  0  0  0  0
 27 28  1  0  0  0  0
 30 29  1  0  0  0  0
 31 39  1  1  0  0  0
 31 33  1  0  0  0  0
 31 32  1  0  0  0  0
 32 30  1  6  0  0  0
 33 32  1  0  0  0  0
 34 37  1  0  0  0  0
 37 36  2  0  0  0  0
 37 35  1  0  0  0  0
 38 34  1  0  0  0  0
 38 39  2  0  0  0  0
 39 36  1  0  0  0  0
M  END
>  <MODEL>
5

>  <REMARK>
 VINA RESULT:      -6.0      3.433      9.571
  Name = 
  6 active torsions:
  status: ('A' for Active; 'I' for Inactive)
    1  A    between atoms: C_1  and  C_21
    2  A    between atoms: C_1  and  C_34
    3  A    between atoms: P_7  and  C_24
    4  A    between atoms: C_21  and  C_23
    5  A    between atoms: C_27  and  C_33
    6  A    between atoms: C_28  and  C_35
                            x       y       z     vdW  Elec       q    Type
                         _______ _______ _______ _____ _____    ______ ____

>  <TORSDO>
F 6

$$$$
=
 OpenBabel11062417523D

 39 42  0  0  1  0  0  0  0  0999 V2000
  186.4440  176.8070  137.3600 C   0  0  1  0  0  3  0  0  0  0  0  0
  181.2450  172.9380  135.4250 C   0  0  0  0  0  0  0  0  0  0  0  0
  183.6980  173.5590  135.5900 C   0  0  0  0  0  2  0  0  0  0  0  0
  185.9310  178.2310  137.5750 C   0  0  0  0  0  2  0  0  0  0  0  0
  183.7810  174.7720  134.6800 C   0  0  0  0  0  2  0  0  0  0  0  0
  183.6890  178.0640  138.6510 C   0  0  0  0  0  2  0  0  0  0  0  0
  186.8060  176.4470  135.8960 C   0  0  2  0  0  0  0  0  0  0  0  0
  186.8340  177.6380  134.9280 C   0  0  0  0  0  1  0  0  0  0  0  0
  185.9820  175.3970  135.4110 O   0  0  0  0  0  0  0  0  0  0  0  0
  181.1960  173.9610  137.6050 N   0  0  0  0  0  2  0  0  0  0  0  0
  184.6530  175.8440  135.3110 C   0  0  0  0  0  2  0  0  0  0  0  0
  188.5810  174.7330  135.2070 C   0  0  0  0  0  1  0  0  0  0  0  0
  187.5480  176.5770  138.2020 O   0  0  0  0  0  0  0  0  0  0  0  0
  182.3690  176.0740  137.9330 C   0  0  0  0  0  2  0  0  0  0  0  0
  182.2800  177.5140  138.4340 C   0  0  2  0  0  3  0  0  0  0  0  0
  188.4020  175.7090  137.5070 C   0  0  1  0  0  3  0  0  0  0  0  0
  181.1170  175.2620  138.2540 C   0  0  2  0  0  3  0  0  0  0  0  0
  184.4340  178.2920  137.3410 C   0  0  0  0  0  2  0  0  0  0  0  0
  180.8220  174.1350  136.2090 C   0  0  0  0  0  2  0  0  0  0  0  0
  180.3710  172.1280  135.0210 O   0  0  0  0  0  0  0  0  0  0  0  0
  182.6250  172.6780  135.1520 N   0  0  0  0  0  2  0  0  0  0  0  0
  188.2370  175.9700  136.0320 C   0  0  2  0  0  3  0  0  0  0  0  0
  190.1380  176.6500  139.5840 O   0  0  0  0  0  1  0  0  0  0  0  0
  190.1230  176.0140  138.0160 P   0  0  0  0  0  0  0  0  0  0  0  0
  190.7690  177.0010  137.0710 O   0  0  0  0  0  0  0  0  0  0  0  0
  190.9900  174.5640  137.9940 O   0  0  0  0  0  1  0  0  0  0  0  0
  179.8510  174.2130  140.0480 N   0  0  0  0  0  1  0  0  0  0  0  0
  180.9850  175.0700  139.7560 C   0  0  0  0  0  2  0  0  0  0  0  0
  181.4790  178.4120  137.4900 C   0  0  0  0  0  2  0  0  0  0  0  0
  180.3300  179.1000  138.2040 C   0  0  0  0  0  2  0  0  0  0  0  0
  180.1210  179.7700  140.5510 C   0  0  1  0  0  3  0  0  0  0  0  0
  180.2470  178.6130  139.6370 C   0  0  1  0  0  3  0  0  0  0  0  0
  179.0080  178.9860  140.1860 O   0  0  0  0  0  0  0  0  0  0  0  0
  180.5960  178.7970  144.0050 O   0  0  0  0  0  0  0  0  0  0  0  0
  183.0100  178.7760  144.5310 C   0  0  0  0  0  1  0  0  0  0  0  0
  181.9210  179.3590  142.3120 C   0  0  0  0  0  3  0  0  0  0  0  0
  181.8420  178.9720  143.6320 C   0  0  0  0  0  0  0  0  0  0  0  0
  179.8030  179.0440  142.9900 C   0  0  0  0  0  3  0  0  0  0  0  0
  180.5990  179.3870  141.9130 C   0  0  0  0  0  0  0  0  0  0  0  0
  1  4  1  6  0  0  0
  1 13  1  0  0  0  0
  2 19  1  0  0  0  0
  5 11  1  0  0  0  0
  5  3  1  0  0  0  0
  7  8  1  6  0  0  0
  7 22  1  0  0  0  0
  7  1  1  0  0  0  0
  9  7  1  0  0  0  0
 10 17  1  0  0  0  0
 11  9  1  0  0  0  0
 14 17  1  0  0  0  0
 14 15  1  0  0  0  0
 15 29  1  6  0  0  0
 15  6  1  0  0  0  0
 16 24  1  1  0  0  0
 16 13  1  0  0  0  0
 17 28  1  1  0  0  0
 18  4  1  0  0  0  0
 18  6  1  0  0  0  0
 19 10  1  0  0  0  0
 20  2  2  0  0  0  0
 21  2  1  0  0  0  0
 21  3  1  0  0  0  0
 22 12  1  6  0  0  0
 22 16  1  0  0  0  0
 24 23  1  0  0  0  0
 25 24  2  0  0  0  0
 26 24  1  0  0  0  0
 28 27  1  0  0  0  0
 29 30  1  0  0  0  0
 31 39  1  1  0  0  0
 32 30  1  6  0  0  0
 32 33  1  0  0  0  0
 32 31  1  0  0  0  0
 33 31  1  0  0  0  0
 36 37  2  0  0  0  0
 37 34  1  0  0  0  0
 37 35  1  0  0  0  0
 38 34  1  0  0  0  0
 39 36  1  0  0  0  0
 39 38  2  0  0  0  0
M  END
>  <MODEL>
6

>  <REMARK>
 VINA RESULT:      -5.9      5.178      8.343
  Name = 
  6 active torsions:
  status: ('A' for Active; 'I' for Inactive)
    1  A    between atoms: C_1  and  C_21
    2  A    between atoms: C_1  and  C_34
    3  A    between atoms: P_7  and  C_24
    4  A    between atoms: C_21  and  C_23
    5  A    between atoms: C_27  and  C_33
    6  A    between atoms: C_28  and  C_35
                            x       y       z     vdW  Elec       q    Type
                         _______ _______ _______ _____ _____    ______ ____

>  <TORSDO>
F 6

$$$$
=
 OpenBabel11062417523D

 39 42  0  0  1  0  0  0  0  0999 V2000
  181.5430  175.6490  138.1460 C   0  0  1  0  0  3  0  0  0  0  0  0
  179.3950  182.0550  137.8360 C   0  0  0  0  0  0  0  0  0  0  0  0
  179.7190  179.7040  136.9410 C   0  0  0  0  0  2  0  0  0  0  0  0
  182.7120  175.5800  139.1290 C   0  0  0  0  0  2  0  0  0  0  0  0
  181.2140  179.6680  136.6770 C   0  0  0  0  0  2  0  0  0  0  0  0
  182.1720  177.0870  141.0390 C   0  0  0  0  0  2  0  0  0  0  0  0
  181.9180  176.0700  136.7010 C   0  0  2  0  0  0  0  0  0  0  0  0
  183.4250  176.1130  136.4120 C   0  0  0  0  0  1  0  0  0  0  0  0
  181.2820  177.2890  136.3450 O   0  0  0  0  0  0  0  0  0  0  0  0
  179.2360  180.8660  139.9240 N   0  0  0  0  0  2  0  0  0  0  0  0
  181.7960  178.3390  137.1270 C   0  0  0  0  0  2  0  0  0  0  0  0
  180.6540  175.3470  134.5940 C   0  0  0  0  0  1  0  0  0  0  0  0
  180.8740  174.4120  138.1310 O   0  0  0  0  0  0  0  0  0  0  0  0
  180.8560  179.1040  140.3950 C   0  0  0  0  0  2  0  0  0  0  0  0
  181.8770  178.5460  141.3840 C   0  0  2  0  0  3  0  0  0  0  0  0
  180.4030  174.2310  136.8220 C   0  0  1  0  0  3  0  0  0  0  0  0
  180.0630  180.2750  140.9680 C   0  0  2  0  0  3  0  0  0  0  0  0
  182.9640  176.9420  139.7450 C   0  0  0  0  0  2  0  0  0  0  0  0
  180.0850  181.7320  139.1190 C   0  0  0  0  0  2  0  0  0  0  0  0
  178.9320  183.2120  137.6610 O   0  0  0  0  0  0  0  0  0  0  0  0
  179.2210  181.0660  136.8160 N   0  0  0  0  0  2  0  0  0  0  0  0
  181.3540  174.9270  135.8820 C   0  0  2  0  0  3  0  0  0  0  0  0
  178.9580  172.1410  135.5010 O   0  0  0  0  0  0  0  0  0  0  0  0
  180.3270  172.4530  136.4440 P   0  0  0  0  0  0  0  0  0  0  0  0
  180.2410  171.6600  137.7270 O   0  0  0  0  0  1  0  0  0  0  0  0
  181.7100  171.9920  135.5890 O   0  0  0  0  0  1  0  0  0  0  0  0
  179.8380  180.0320  143.3790 N   0  0  0  0  0  1  0  0  0  0  0  0
  179.1760  179.8020  142.1080 C   0  0  0  0  0  2  0  0  0  0  0  0
  183.1630  179.3720  141.4260 C   0  0  0  0  0  2  0  0  0  0  0  0
  184.3850  178.5040  141.6630 C   0  0  0  0  0  2  0  0  0  0  0  0
  185.7060  177.8470  143.6190 C   0  0  1  0  0  3  0  0  0  0  0  0
  185.1420  178.9990  142.8800 C   0  0  1  0  0  3  0  0  0  0  0  0
  186.4970  178.6420  142.7650 O   0  0  0  0  0  0  0  0  0  0  0  0
  185.6340  179.0770  147.0230 O   0  0  0  0  0  0  0  0  0  0  0  0
  187.7730  178.5450  148.1360 C   0  0  0  0  0  1  0  0  0  0  0  0
  187.1000  177.9960  145.7500 C   0  0  0  0  0  3  0  0  0  0  0  0
  186.8320  178.5460  146.9860 C   0  0  0  0  0  0  0  0  0  0  0  0
  185.0530  178.9140  145.8580 C   0  0  0  0  0  3  0  0  0  0  0  0
  185.9380  178.2320  145.0430 C   0  0  0  0  0  0  0  0  0  0  0  0
  1  4  1  1  0  0  0
  2 19  1  0  0  0  0
  4 18  1  0  0  0  0
  5  3  1  0  0  0  0
  5 11  1  0  0  0  0
  6 15  1  0  0  0  0
  7  8  1  6  0  0  0
  7  1  1  0  0  0  0
  9  7  1  0  0  0  0
  9 11  1  0  0  0  0
 10 17  1  0  0  0  0
 13  1  1  0  0  0  0
 14 17  1  0  0  0  0
 14 15  1  0  0  0  0
 15 29  1  6  0  0  0
 16 24  1  6  0  0  0
 16 13  1  0  0  0  0
 17 28  1  1  0  0  0
 18  6  1  0  0  0  0
 19 10  1  0  0  0  0
 20  2  2  0  0  0  0
 21  3  1  0  0  0  0
 21  2  1  0  0  0  0
 22 12  1  6  0  0  0
 22  7  1  0  0  0  0
 22 16  1  0  0  0  0
 23 24  2  0  0  0  0
 24 25  1  0  0  0  0
 26 24  1  0  0  0  0
 28 27  1  0  0  0  0
 29 30  1  0  0  0  0
 31 39  1  1  0  0  0
 32 30  1  6  0  0  0
 32 31  1  0  0  0  0
 33 32  1  0  0  0  0
 33 31  1  0  0  0  0
 36 37  2  0  0  0  0
 37 34  1  0  0  0  0
 37 35  1  0  0  0  0
 38 34  1  0  0  0  0
 39 36  1  0  0  0  0
 39 38  2  0  0  0  0
M  END
>  <MODEL>
7

>  <REMARK>
 VINA RESULT:      -5.6      4.323      6.847
  Name = 
  6 active torsions:
  status: ('A' for Active; 'I' for Inactive)
    1  A    between atoms: C_1  and  C_21
    2  A    between atoms: C_1  and  C_34
    3  A    between atoms: P_7  and  C_24
    4  A    between atoms: C_21  and  C_23
    5  A    between atoms: C_27  and  C_33
    6  A    between atoms: C_28  and  C_35
                            x       y       z     vdW  Elec       q    Type
                         _______ _______ _______ _____ _____    ______ ____

>  <TORSDO>
F 6

$$$$
=
 OpenBabel11062417523D

 39 42  0  0  1  0  0  0  0  0999 V2000
  187.3260  177.7920  140.5920 C   0  0  1  0  0  3  0  0  0  0  0  0
  184.9200  174.0070  135.5290 C   0  0  0  0  0  0  0  0  0  0  0  0
  186.7010  174.7850  137.1590 C   0  0  0  0  0  2  0  0  0  0  0  0
  186.5150  179.0860  140.6530 C   0  0  0  0  0  2  0  0  0  0  0  0
  187.0330  176.1690  136.6300 C   0  0  0  0  0  2  0  0  0  0  0  0
  184.1350  178.4980  140.2050 C   0  0  0  0  0  2  0  0  0  0  0  0
  188.4960  177.7920  139.5740 C   0  0  2  0  0  0  0  0  0  0  0  0
  188.8190  179.1620  138.9630 C   0  0  0  0  0  1  0  0  0  0  0  0
  188.2970  176.8050  138.5710 O   0  0  0  0  0  0  0  0  0  0  0  0
  183.4830  174.5230  137.3910 N   0  0  0  0  0  2  0  0  0  0  0  0
  187.1860  177.1490  137.7810 C   0  0  0  0  0  2  0  0  0  0  0  0
  190.6490  176.4260  139.8210 C   0  0  0  0  0  1  0  0  0  0  0  0
  187.8040  177.4800  141.8780 O   0  0  0  0  0  0  0  0  0  0  0  0
  183.8440  176.6060  138.6070 C   0  0  0  0  0  2  0  0  0  0  0  0
  183.2160  177.8910  139.1450 C   0  0  2  0  0  3  0  0  0  0  0  0
  189.0490  176.8600  141.6990 C   0  0  1  0  0  3  0  0  0  0  0  0
  182.8090  175.6410  138.0370 C   0  0  2  0  0  3  0  0  0  0  0  0
  185.4160  179.0690  139.6090 C   0  0  0  0  0  2  0  0  0  0  0  0
  183.9130  174.9640  136.0720 C   0  0  0  0  0  2  0  0  0  0  0  0
  184.5900  173.2320  134.5940 O   0  0  0  0  0  0  0  0  0  0  0  0
  186.2420  173.9310  136.0720 N   0  0  0  0  0  2  0  0  0  0  0  0
  189.6760  177.4200  140.4480 C   0  0  2  0  0  3  0  0  0  0  0  0
  191.3150  178.2940  142.7060 O   0  0  0  0  0  0  0  0  0  0  0  0
  190.1070  177.1930  143.1410 P   0  0  0  0  0  0  0  0  0  0  0  0
  190.7480  175.9090  143.6140 O   0  0  0  0  0  1  0  0  0  0  0  0
  189.1770  177.8510  144.3900 O   0  0  0  0  0  1  0  0  0  0  0  0
  180.6090  174.7680  138.6100 N   0  0  0  0  0  1  0  0  0  0  0  0
  181.9120  175.1160  139.1470 C   0  0  0  0  0  2  0  0  0  0  0  0
  182.9110  178.9010  138.0390 C   0  0  0  0  0  2  0  0  0  0  0  0
  181.4280  178.9580  137.7190 C   0  0  0  0  0  2  0  0  0  0  0  0
  180.2390  180.0970  139.5320 C   0  0  1  0  0  3  0  0  0  0  0  0
  180.6190  178.7740  138.9880 C   0  0  1  0  0  3  0  0  0  0  0  0
  179.3310  179.3050  138.8020 O   0  0  0  0  0  0  0  0  0  0  0  0
  179.2760  180.4330  143.0060 O   0  0  0  0  0  0  0  0  0  0  0  0
  180.1190  178.4960  144.2850 C   0  0  0  0  0  1  0  0  0  0  0  0
  180.4070  178.9450  141.8030 C   0  0  0  0  0  3  0  0  0  0  0  0
  179.9270  179.2950  143.0470 C   0  0  0  0  0  0  0  0  0  0  0  0
  179.2800  180.8880  141.7760 C   0  0  0  0  0  3  0  0  0  0  0  0
  179.9670  179.9770  140.9960 C   0  0  0  0  0  0  0  0  0  0  0  0
  1  4  1  1  0  0  0
  1 13  1  0  0  0  0
  2 21  1  0  0  0  0
  2 19  1  0  0  0  0
  5  3  1  0  0  0  0
  5 11  1  0  0  0  0
  7  8  1  6  0  0  0
  7 22  1  0  0  0  0
  7  1  1  0  0  0  0
  9  7  1  0  0  0  0
 10 17  1  0  0  0  0
 11  9  1  0  0  0  0
 14 15  1  0  0  0  0
 15 29  1  6  0  0  0
 15  6  1  0  0  0  0
 16 13  1  0  0  0  0
 16 24  1  1  0  0  0
 17 14  1  0  0  0  0
 17 28  1  1  0  0  0
 18  6  1  0  0  0  0
 18  4  1  0  0  0  0
 19 10  1  0  0  0  0
 20  2  2  0  0  0  0
 21  3  1  0  0  0  0
 22 12  1  6  0  0  0
 22 16  1  0  0  0  0
 23 24  2  0  0  0  0
 24 25  1  0  0  0  0
 24 26  1  0  0  0  0
 27 28  1  0  0  0  0
 30 29  1  0  0  0  0
 31 39  1  1  0  0  0
 32 30  1  6  0  0  0
 32 31  1  0  0  0  0
 33 32  1  0  0  0  0
 33 31  1  0  0  0  0
 34 37  1  0  0  0  0
 36 37  2  0  0  0  0
 37 35  1  0  0  0  0
 38 34  1  0  0  0  0
 39 38  2  0  0  0  0
 39 36  1  0  0  0  0
M  END
>  <MODEL>
8

>  <REMARK>
 VINA RESULT:      -5.5      3.503      8.477
  Name = 
  6 active torsions:
  status: ('A' for Active; 'I' for Inactive)
    1  A    between atoms: C_1  and  C_21
    2  A    between atoms: C_1  and  C_34
    3  A    between atoms: P_7  and  C_24
    4  A    between atoms: C_21  and  C_23
    5  A    between atoms: C_27  and  C_33
    6  A    between atoms: C_28  and  C_35
                            x       y       z     vdW  Elec       q    Type
                         _______ _______ _______ _____ _____    ______ ____

>  <TORSDO>
F 6

$$$$
=
 OpenBabel11062417523D

 39 42  0  0  1  0  0  0  0  0999 V2000
  181.7440  175.6130  137.9410 C   0  0  1  0  0  3  0  0  0  0  0  0
  179.4450  181.9490  138.5030 C   0  0  0  0  0  0  0  0  0  0  0  0
  179.6320  179.6720  137.4030 C   0  0  0  0  0  2  0  0  0  0  0  0
  183.0880  175.5220  138.6650 C   0  0  0  0  0  2  0  0  0  0  0  0
  181.0440  179.7030  136.8450 C   0  0  0  0  0  2  0  0  0  0  0  0
  182.9110  176.8870  140.7430 C   0  0  0  0  0  2  0  0  0  0  0  0
  181.8130  176.1370  136.4830 C   0  0  2  0  0  0  0  0  0  0  0  0
  183.2300  176.2490  135.9040 C   0  0  0  0  0  1  0  0  0  0  0  0
  181.0930  177.3540  136.3450 O   0  0  0  0  0  0  0  0  0  0  0  0
  179.7330  180.6270  140.4950 N   0  0  0  0  0  2  0  0  0  0  0  0
  181.7320  178.3690  137.0790 C   0  0  0  0  0  2  0  0  0  0  0  0
  180.1670  175.5050  134.6250 C   0  0  0  0  0  1  0  0  0  0  0  0
  181.1110  174.3570  137.9750 O   0  0  0  0  0  0  0  0  0  0  0  0
  181.4510  178.8950  140.5130 C   0  0  0  0  0  2  0  0  0  0  0  0
  182.6610  178.3110  141.2390 C   0  0  2  0  0  3  0  0  0  0  0  0
  180.3910  174.2440  136.7770 C   0  0  1  0  0  3  0  0  0  0  0  0
  180.7650  180.0010  141.3100 C   0  0  2  0  0  3  0  0  0  0  0  0
  183.4300  176.8510  139.3100 C   0  0  0  0  0  2  0  0  0  0  0  0
  180.3860  181.5700  139.5980 C   0  0  0  0  0  2  0  0  0  0  0  0
  178.9340  183.0990  138.5030 O   0  0  0  0  0  0  0  0  0  0  0  0
  179.0920  181.0220  137.4730 N   0  0  0  0  0  2  0  0  0  0  0  0
  181.1200  175.0290  135.7170 C   0  0  2  0  0  3  0  0  0  0  0  0
  181.5880  172.0960  135.3070 O   0  0  0  0  0  0  0  0  0  0  0  0
  180.2770  172.4910  136.3010 P   0  0  0  0  0  0  0  0  0  0  0  0
  178.9890  172.2470  135.5510 O   0  0  0  0  0  1  0  0  0  0  0  0
  180.3150  171.5210  137.6850 O   0  0  0  0  0  1  0  0  0  0  0  0
  179.2590  180.4120  143.1780 N   0  0  0  0  0  1  0  0  0  0  0  0
  180.1350  179.4270  142.5690 C   0  0  0  0  0  2  0  0  0  0  0  0
  183.9120  179.1760  141.0810 C   0  0  0  0  0  2  0  0  0  0  0  0
  184.7640  179.1730  142.3370 C   0  0  0  0  0  2  0  0  0  0  0  0
  186.6560  178.0960  143.4620 C   0  0  1  0  0  3  0  0  0  0  0  0
  185.8450  178.1150  142.2240 C   0  0  1  0  0  3  0  0  0  0  0  0
  185.6500  177.1400  143.2180 O   0  0  0  0  0  0  0  0  0  0  0  0
  189.6310  176.0920  142.9820 O   0  0  0  0  0  0  0  0  0  0  0  0
  191.4800  177.5340  142.2050 C   0  0  0  0  0  1  0  0  0  0  0  0
  189.1010  178.2380  142.7490 C   0  0  0  0  0  3  0  0  0  0  0  0
  190.0830  177.2760  142.6430 C   0  0  0  0  0  0  0  0  0  0  0  0
  188.3670  176.1920  143.3170 C   0  0  0  0  0  3  0  0  0  0  0  0
  188.0010  177.5170  143.1710 C   0  0  0  0  0  0  0  0  0  0  0  0
  1 13  1  0  0  0  0
  1  4  1  6  0  0  0
  2 20  2  0  0  0  0
  2 19  1  0  0  0  0
  3 21  1  0  0  0  0
  4 18  1  0  0  0  0
  5 11  1  0  0  0  0
  5  3  1  0  0  0  0
  6 15  1  0  0  0  0
  7  8  1  6  0  0  0
  7  1  1  0  0  0  0
  9  7  1  0  0  0  0
  9 11  1  0  0  0  0
 10 17  1  0  0  0  0
 14 15  1  0  0  0  0
 14 17  1  0  0  0  0
 15 29  1  6  0  0  0
 16 24  1  6  0  0  0
 16 13  1  0  0  0  0
 17 28  1  1  0  0  0
 18  6  1  0  0  0  0
 19 10  1  0  0  0  0
 21  2  1  0  0  0  0
 22 12  1  6  0  0  0
 22  7  1  0  0  0  0
 22 16  1  0  0  0  0
 23 24  2  0  0  0  0
 24 26  1  0  0  0  0
 25 24  1  0  0  0  0
 28 27  1  0  0  0  0
 29 30  1  0  0  0  0
 31 39  1  6  0  0  0
 32 30  1  1  0  0  0
 32 33  1  0  0  0  0
 32 31  1  0  0  0  0
 33 31  1  0  0  0  0
 34 38  1  0  0  0  0
 35 37  1  0  0  0  0
 36 39  1  0  0  0  0
 37 36  2  0  0  0  0
 37 34  1  0  0  0  0
 39 38  2  0  0  0  0
M  END
>  <MODEL>
9

>  <REMARK>
 VINA RESULT:      -5.5      4.193      6.704
  Name = 
  6 active torsions:
  status: ('A' for Active; 'I' for Inactive)
    1  A    between atoms: C_1  and  C_21
    2  A    between atoms: C_1  and  C_34
    3  A    between atoms: P_7  and  C_24
    4  A    between atoms: C_21  and  C_23
    5  A    between atoms: C_27  and  C_33
    6  A    between atoms: C_28  and  C_35
                            x       y       z     vdW  Elec       q    Type
                         _______ _______ _______ _____ _____    ______ ____

>  <TORSDO>
F 6

$$$$
