=
 OpenBabel11062414343D

 31 34  0  0  1  0  0  0  0  0999 V2000
  187.6260  178.1840  144.2570 C   0  0  2  0  0  3  0  0  0  0  0  0
  181.9430  179.1520  142.7220 O   0  0  0  0  0  0  0  0  0  0  0  0
  185.9050  178.5200  142.3630 C   0  0  2  0  0  3  0  0  0  0  0  0
  185.2940  178.5330  143.7300 C   0  0  0  0  0  0  0  0  0  0  0  0
  186.2310  178.2790  144.8560 C   0  0  0  0  0  2  0  0  0  0  0  0
  183.3410  178.7800  145.2380 C   0  0  0  0  0  1  0  0  0  0  0  0
  183.1510  178.7930  142.6690 C   0  0  0  0  0  0  0  0  0  0  0  0
  183.9750  178.7160  143.8860 C   0  0  0  0  0  0  0  0  0  0  0  0
  185.0310  177.8210  141.4170 N   0  0  0  0  0  2  0  0  0  0  0  0
  183.7720  178.4580  141.4160 N   0  0  0  0  0  0  0  0  0  0  0  0
  187.4870  177.6530  142.5190 S   0  0  0  0  0  0  0  0  0  0  0  0
  188.4770  177.1920  145.0320 C   0  0  0  0  0  2  0  0  0  0  0  0
  191.7760  176.3790  146.9000 O   0  0  0  0  0  0  0  0  0  0  0  0
  188.4760  177.3990  148.2710 C   0  0  0  0  0  2  0  0  0  0  0  0
  190.8710  177.9160  145.2780 C   0  0  0  0  0  2  0  0  0  0  0  0
  189.6840  178.1310  148.3350 O   0  0  0  0  0  0  0  0  0  0  0  0
  189.4810  177.9080  145.9290 C   0  0  2  0  0  3  0  0  0  0  0  0
  190.5200  176.0370  147.4370 C   0  0  0  0  0  2  0  0  0  0  0  0
  191.5970  176.5850  145.5180 C   0  0  0  0  0  2  0  0  0  0  0  0
  189.5550  177.2100  147.2840 C   0  0  2  0  0  0  0  0  0  0  0  0
  183.1590  178.8120  140.1440 C   0  0  0  0  0  2  0  0  0  0  0  0
  184.2280  179.2300  139.1480 C   0  0  0  0  0  2  0  0  0  0  0  0
  184.3060  178.2290  138.0050 C   0  0  2  0  0  3  0  0  0  0  0  0
  182.4880  176.7780  136.8520 S   0  0  0  0  0  1  0  0  0  0  0  0
  183.4380  177.1010  138.3040 N   0  0  0  0  0  2  0  0  0  0  0  0
  186.1120  177.8640  136.4770 O   0  0  0  0  0  1  0  0  0  0  0  0
  185.7400  177.7350  137.8170 C   0  0  1  0  0  3  0  0  0  0  0  0
  186.6300  178.4900  138.6280 O   0  0  0  0  0  0  0  0  0  0  0  0
  187.9960  178.2100  138.6840 C   0  0  0  0  0  0  0  0  0  0  0  0
  188.3810  177.0430  138.9560 O   0  0  0  0  0  1  0  0  0  0  0  0
  188.9360  179.2040  138.4390 O   0  0  0  0  0  0  0  0  0  0  0  0
  1  5  1  0  0  0  0
  1 12  1  1  0  0  0
  3  9  1  6  0  0  0
  3 11  1  0  0  0  0
  3  4  1  0  0  0  0
  4  8  2  0  0  0  0
  4  5  1  0  0  0  0
  7  2  2  0  0  0  0
  7  8  1  0  0  0  0
  8  6  1  0  0  0  0
 10  9  1  0  0  0  0
 10  7  1  0  0  0  0
 11  1  1  0  0  0  0
 13 18  1  0  0  0  0
 14 16  1  0  0  0  0
 15 19  1  0  0  0  0
 15 17  1  0  0  0  0
 17 12  1  6  0  0  0
 17 20  1  0  0  0  0
 19 13  1  0  0  0  0
 20 18  1  1  0  0  0
 20 14  1  0  0  0  0
 20 16  1  0  0  0  0
 21 10  1  0  0  0  0
 22 21  1  0  0  0  0
 23 25  1  0  0  0  0
 23 22  1  1  0  0  0
 24 25  1  0  0  0  0
 27 26  1  6  0  0  0
 27 23  1  0  0  0  0
 27 28  1  0  0  0  0
 28 29  1  0  0  0  0
 29 30  1  0  0  0  0
 31 29  2  0  0  0  0
M  END
>  <MODEL>
1

>  <REMARK>
 VINA RESULT:      -7.4      0.000      0.000
  Name = 
  9 active torsions:
  status: ('A' for Active; 'I' for Inactive)
    1  A    between atoms: C_1  and  C_17
    2  A    between atoms: C_1  and  C_19
    3  A    between atoms: C_1  and  N_24
    4  A    between atoms: C_3  and  C_16
    5  A    between atoms: C_5  and  O_9
    6  A    between atoms: O_9  and  C_17
    7  A    between atoms: C_14  and  C_16
    8  A    between atoms: C_19  and  C_30
    9  A    between atoms: N_28  and  C_30
                            x       y       z     vdW  Elec       q    Type
                         _______ _______ _______ _____ _____    ______ ____

>  <TORSDO>
F 9

$$$$
=
 OpenBabel11062414343D

 31 34  0  0  1  0  0  0  0  0999 V2000
  184.4450  179.0230  140.3600 C   0  0  2  0  0  3  0  0  0  0  0  0
  189.9430  177.9960  142.4350 O   0  0  0  0  0  0  0  0  0  0  0  0
  185.9590  178.5900  142.4050 C   0  0  2  0  0  3  0  0  0  0  0  0
  186.6980  178.5680  141.1030 C   0  0  0  0  0  0  0  0  0  0  0  0
  185.8630  178.7470  139.8860 C   0  0  0  0  0  2  0  0  0  0  0  0
  188.7940  178.3650  139.7950 C   0  0  0  0  0  1  0  0  0  0  0  0
  188.6850  178.0270  142.3460 C   0  0  0  0  0  0  0  0  0  0  0  0
  188.0200  178.3480  141.0740 C   0  0  0  0  0  0  0  0  0  0  0  0
  186.4700  177.5510  143.3040 N   0  0  0  0  0  2  0  0  0  0  0  0
  187.8530  177.7610  143.4900 N   0  0  0  0  0  0  0  0  0  0  0  0
  184.2190  178.2810  142.0090 S   0  0  0  0  0  0  0  0  0  0  0  0
  183.4310  178.4390  139.3890 C   0  0  0  0  0  2  0  0  0  0  0  0
  180.3700  176.2300  138.5040 O   0  0  0  0  0  0  0  0  0  0  0  0
  180.6150  179.0860  140.8680 C   0  0  0  0  0  2  0  0  0  0  0  0
  182.5830  176.0740  139.4490 C   0  0  0  0  0  2  0  0  0  0  0  0
  180.3490  177.7380  141.1940 O   0  0  0  0  0  0  0  0  0  0  0  0
  182.4920  177.4650  140.0930 C   0  0  2  0  0  3  0  0  0  0  0  0
  180.2350  177.6050  138.7740 C   0  0  0  0  0  2  0  0  0  0  0  0
  181.7220  175.9990  138.1800 C   0  0  0  0  0  2  0  0  0  0  0  0
  181.0570  177.9750  140.0050 C   0  0  2  0  0  0  0  0  0  0  0  0
  188.3930  177.7600  144.8400 C   0  0  0  0  0  2  0  0  0  0  0  0
  187.4020  177.1220  145.7990 C   0  0  0  0  0  2  0  0  0  0  0  0
  187.8020  177.4080  147.2400 C   0  0  2  0  0  3  0  0  0  0  0  0
  185.5130  178.5530  146.8110 S   0  0  0  0  0  1  0  0  0  0  0  0
  187.0170  178.5270  147.7350 N   0  0  0  0  0  2  0  0  0  0  0  0
  189.5380  178.4800  148.4920 O   0  0  0  0  0  1  0  0  0  0  0  0
  189.2890  177.7460  147.3300 C   0  0  1  0  0  3  0  0  0  0  0  0
  190.0650  176.5540  147.3510 O   0  0  0  0  0  0  0  0  0  0  0  0
  191.4250  176.5530  147.0410 C   0  0  0  0  0  0  0  0  0  0  0  0
  191.7890  176.6530  145.8390 O   0  0  0  0  0  0  0  0  0  0  0  0
  192.3830  176.4470  148.0420 O   0  0  0  0  0  1  0  0  0  0  0  0
  1 12  1  6  0  0  0
  1 11  1  0  0  0  0
  3  4  1  6  0  0  0
  3  9  1  0  0  0  0
  5  1  1  0  0  0  0
  5  4  1  0  0  0  0
  6  8  1  0  0  0  0
  7  2  2  0  0  0  0
  7 10  1  0  0  0  0
  8  4  2  0  0  0  0
  8  7  1  0  0  0  0
  9 10  1  0  0  0  0
 10 21  1  0  0  0  0
 11  3  1  0  0  0  0
 13 18  1  0  0  0  0
 14 16  1  0  0  0  0
 15 17  1  0  0  0  0
 17 12  1  6  0  0  0
 19 13  1  0  0  0  0
 19 15  1  0  0  0  0
 20 18  1  6  0  0  0
 20 17  1  0  0  0  0
 20 14  1  0  0  0  0
 20 16  1  0  0  0  0
 21 22  1  0  0  0  0
 23 22  1  6  0  0  0
 23 27  1  0  0  0  0
 23 25  1  0  0  0  0
 24 25  1  0  0  0  0
 27 28  1  0  0  0  0
 27 26  1  1  0  0  0
 29 28  1  0  0  0  0
 29 31  1  0  0  0  0
 30 29  2  0  0  0  0
M  END
>  <MODEL>
2

>  <REMARK>
 VINA RESULT:      -7.1      2.912      8.936
  Name = 
  9 active torsions:
  status: ('A' for Active; 'I' for Inactive)
    1  A    between atoms: C_1  and  C_17
    2  A    between atoms: C_1  and  C_19
    3  A    between atoms: C_1  and  N_24
    4  A    between atoms: C_3  and  C_16
    5  A    between atoms: C_5  and  O_9
    6  A    between atoms: O_9  and  C_17
    7  A    between atoms: C_14  and  C_16
    8  A    between atoms: C_19  and  C_30
    9  A    between atoms: N_28  and  C_30
                            x       y       z     vdW  Elec       q    Type
                         _______ _______ _______ _____ _____    ______ ____

>  <TORSDO>
F 9

$$$$
=
 OpenBabel11062414343D

 31 34  0  0  1  0  0  0  0  0999 V2000
  184.6840  179.0710  141.3900 C   0  0  2  0  0  3  0  0  0  0  0  0
  190.4430  177.5840  141.8510 O   0  0  0  0  0  0  0  0  0  0  0  0
  186.6210  178.2940  142.9080 C   0  0  2  0  0  3  0  0  0  0  0  0
  187.0150  178.4440  141.4710 C   0  0  0  0  0  0  0  0  0  0  0  0
  185.9220  178.8270  140.5400 C   0  0  0  0  0  2  0  0  0  0  0  0
  188.7090  178.3760  139.6620 C   0  0  0  0  0  1  0  0  0  0  0  0
  189.2060  177.6650  142.0870 C   0  0  0  0  0  0  0  0  0  0  0  0
  188.2720  178.1920  141.0790 C   0  0  0  0  0  0  0  0  0  0  0  0
  187.2680  177.1180  143.4980 N   0  0  0  0  0  2  0  0  0  0  0  0
  188.6640  177.2570  143.3560 N   0  0  0  0  0  0  0  0  0  0  0  0
  184.8210  178.0990  142.9250 S   0  0  0  0  0  0  0  0  0  0  0  0
  183.4270  178.6690  140.6350 C   0  0  0  0  0  2  0  0  0  0  0  0
  181.1000  179.3310  137.6050 O   0  0  0  0  0  0  0  0  0  0  0  0
  183.5050  176.5550  138.1730 C   0  0  0  0  0  2  0  0  0  0  0  0
  182.9340  180.3270  138.8120 C   0  0  0  0  0  2  0  0  0  0  0  0
  183.5810  177.5520  137.1750 O   0  0  0  0  0  0  0  0  0  0  0  0
  183.5590  178.9650  139.1450 C   0  0  2  0  0  3  0  0  0  0  0  0
  181.3710  178.0250  138.0570 C   0  0  0  0  0  2  0  0  0  0  0  0
  181.4110  180.2110  138.6610 C   0  0  0  0  0  2  0  0  0  0  0  0
  182.8630  177.8730  138.3380 C   0  0  2  0  0  0  0  0  0  0  0  0
  189.5180  177.0390  144.5130 C   0  0  0  0  0  2  0  0  0  0  0  0
  189.3580  178.1800  145.5030 C   0  0  0  0  0  2  0  0  0  0  0  0
  189.3140  177.6440  146.9270 C   0  0  2  0  0  3  0  0  0  0  0  0
  191.5750  176.4780  147.4410 S   0  0  0  0  0  1  0  0  0  0  0  0
  189.8890  176.3080  146.9460 N   0  0  0  0  0  2  0  0  0  0  0  0
  187.8050  178.1490  148.7160 O   0  0  0  0  0  1  0  0  0  0  0  0
  187.8750  177.5890  147.4380 C   0  0  1  0  0  3  0  0  0  0  0  0
  187.0130  178.3050  146.5620 O   0  0  0  0  0  0  0  0  0  0  0  0
  185.8330  178.8980  147.0100 C   0  0  0  0  0  0  0  0  0  0  0  0
  185.8730  180.0360  147.5470 O   0  0  0  0  0  1  0  0  0  0  0  0
  184.6120  178.2490  146.8670 O   0  0  0  0  0  0  0  0  0  0  0  0
  1 12  1  6  0  0  0
  1 11  1  0  0  0  0
  2  7  2  0  0  0  0
  3  4  1  6  0  0  0
  3 11  1  0  0  0  0
  3  9  1  0  0  0  0
  5  1  1  0  0  0  0
  5  4  1  0  0  0  0
  6  8  1  0  0  0  0
  7 10  1  0  0  0  0
  8  4  2  0  0  0  0
  8  7  1  0  0  0  0
 10  9  1  0  0  0  0
 10 21  1  0  0  0  0
 13 18  1  0  0  0  0
 13 19  1  0  0  0  0
 14 20  1  0  0  0  0
 15 17  1  0  0  0  0
 16 14  1  0  0  0  0
 16 20  1  0  0  0  0
 17 12  1  1  0  0  0
 19 15  1  0  0  0  0
 20 18  1  6  0  0  0
 20 17  1  0  0  0  0
 21 22  1  0  0  0  0
 23 22  1  6  0  0  0
 23 25  1  0  0  0  0
 23 27  1  0  0  0  0
 25 24  1  0  0  0  0
 27 26  1  1  0  0  0
 28 29  1  0  0  0  0
 28 27  1  0  0  0  0
 29 30  1  0  0  0  0
 31 29  2  0  0  0  0
M  END
>  <MODEL>
3

>  <REMARK>
 VINA RESULT:      -7.0      3.086      9.176
  Name = 
  9 active torsions:
  status: ('A' for Active; 'I' for Inactive)
    1  A    between atoms: C_1  and  C_17
    2  A    between atoms: C_1  and  C_19
    3  A    between atoms: C_1  and  N_24
    4  A    between atoms: C_3  and  C_16
    5  A    between atoms: C_5  and  O_9
    6  A    between atoms: O_9  and  C_17
    7  A    between atoms: C_14  and  C_16
    8  A    between atoms: C_19  and  C_30
    9  A    between atoms: N_28  and  C_30
                            x       y       z     vdW  Elec       q    Type
                         _______ _______ _______ _____ _____    ______ ____

>  <TORSDO>
F 9

$$$$
=
 OpenBabel11062414343D

 31 34  0  0  1  0  0  0  0  0999 V2000
  189.5210  177.7770  142.8520 C   0  0  2  0  0  3  0  0  0  0  0  0
  188.5240  177.6020  136.9720 O   0  0  0  0  0  0  0  0  0  0  0  0
  190.4190  177.1920  140.5030 C   0  0  2  0  0  3  0  0  0  0  0  0
  189.0110  177.7020  140.4920 C   0  0  0  0  0  0  0  0  0  0  0  0
  188.4200  177.9930  141.8240 C   0  0  0  0  0  2  0  0  0  0  0  0
  186.9520  178.3750  139.2860 C   0  0  0  0  0  1  0  0  0  0  0  0
  189.0010  177.3470  138.1120 C   0  0  0  0  0  0  0  0  0  0  0  0
  188.3420  177.8270  139.3370 C   0  0  0  0  0  0  0  0  0  0  0  0
  190.5810  176.1080  139.5310 N   0  0  0  0  0  2  0  0  0  0  0  0
  190.2160  176.5900  138.2570 N   0  0  0  0  0  0  0  0  0  0  0  0
  190.7280  176.5870  142.1820 S   0  0  0  0  0  0  0  0  0  0  0  0
  188.9440  177.2460  144.1540 C   0  0  0  0  0  2  0  0  0  0  0  0
  191.1740  176.6930  147.2770 O   0  0  0  0  0  0  0  0  0  0  0  0
  187.5660  177.5630  147.0760 C   0  0  0  0  0  2  0  0  0  0  0  0
  190.9800  178.1180  145.3430 C   0  0  0  0  0  2  0  0  0  0  0  0
  188.6040  178.3660  147.6000 O   0  0  0  0  0  0  0  0  0  0  0  0
  189.4460  178.0510  145.3480 C   0  0  2  0  0  3  0  0  0  0  0  0
  189.8230  176.2960  147.2540 C   0  0  0  0  0  2  0  0  0  0  0  0
  191.5870  176.8410  145.9380 C   0  0  0  0  0  2  0  0  0  0  0  0
  188.9680  177.4040  146.6450 C   0  0  2  0  0  0  0  0  0  0  0  0
  191.1070  176.3580  137.1310 C   0  0  0  0  0  2  0  0  0  0  0  0
  192.4690  175.9010  137.6270 C   0  0  0  0  0  2  0  0  0  0  0  0
  193.4400  175.7740  136.4620 C   0  0  2  0  0  3  0  0  0  0  0  0
  193.0550  173.2670  135.9110 S   0  0  0  0  0  1  0  0  0  0  0  0
  192.8330  174.9500  135.4280 N   0  0  0  0  0  2  0  0  0  0  0  0
  195.8270  175.7540  136.2780 O   0  0  0  0  0  1  0  0  0  0  0  0
  194.7510  175.1360  136.9200 C   0  0  1  0  0  3  0  0  0  0  0  0
  194.9000  175.2750  138.3280 O   0  0  0  0  0  0  0  0  0  0  0  0
  195.7040  174.4120  139.0730 C   0  0  0  0  0  0  0  0  0  0  0  0
  195.4810  173.1730  139.0430 O   0  0  0  0  0  0  0  0  0  0  0  0
  196.7490  174.9040  139.8450 O   0  0  0  0  0  1  0  0  0  0  0  0
  1 12  1  1  0  0  0
  2  7  2  0  0  0  0
  3  9  1  6  0  0  0
  3 11  1  0  0  0  0
  4  3  1  0  0  0  0
  4  5  1  0  0  0  0
  5  1  1  0  0  0  0
  6  8  1  0  0  0  0
  7 10  1  0  0  0  0
  7  8  1  0  0  0  0
  8  4  2  0  0  0  0
 10  9  1  0  0  0  0
 11  1  1  0  0  0  0
 14 16  1  0  0  0  0
 15 17  1  0  0  0  0
 15 19  1  0  0  0  0
 17 12  1  6  0  0  0
 17 20  1  0  0  0  0
 18 13  1  0  0  0  0
 19 13  1  0  0  0  0
 20 14  1  6  0  0  0
 20 18  1  0  0  0  0
 20 16  1  0  0  0  0
 21 22  1  0  0  0  0
 21 10  1  0  0  0  0
 23 27  1  0  0  0  0
 23 22  1  1  0  0  0
 25 24  1  0  0  0  0
 25 23  1  0  0  0  0
 27 26  1  6  0  0  0
 27 28  1  0  0  0  0
 28 29  1  0  0  0  0
 29 31  1  0  0  0  0
 30 29  2  0  0  0  0
M  END
>  <MODEL>
4

>  <REMARK>
 VINA RESULT:      -7.0      5.018      6.653
  Name = 
  9 active torsions:
  status: ('A' for Active; 'I' for Inactive)
    1  A    between atoms: C_1  and  C_17
    2  A    between atoms: C_1  and  C_19
    3  A    between atoms: C_1  and  N_24
    4  A    between atoms: C_3  and  C_16
    5  A    between atoms: C_5  and  O_9
    6  A    between atoms: O_9  and  C_17
    7  A    between atoms: C_14  and  C_16
    8  A    between atoms: C_19  and  C_30
    9  A    between atoms: N_28  and  C_30
                            x       y       z     vdW  Elec       q    Type
                         _______ _______ _______ _____ _____    ______ ____

>  <TORSDO>
F 9

$$$$
=
 OpenBabel11062414343D

 31 34  0  0  1  0  0  0  0  0999 V2000
  183.2900  178.3850  139.8260 C   0  0  2  0  0  3  0  0  0  0  0  0
  183.0670  179.0130  145.7550 O   0  0  0  0  0  0  0  0  0  0  0  0
  184.5830  178.5130  142.0560 C   0  0  2  0  0  3  0  0  0  0  0  0
  183.1050  178.6900  142.2150 C   0  0  0  0  0  0  0  0  0  0  0  0
  182.3170  178.6910  140.9550 C   0  0  0  0  0  2  0  0  0  0  0  0
  181.0930  179.0190  143.6270 C   0  0  0  0  0  1  0  0  0  0  0  0
  183.4920  179.0210  144.5670 C   0  0  0  0  0  0  0  0  0  0  0  0
  182.5690  178.8840  143.4290 C   0  0  0  0  0  0  0  0  0  0  0  0
  185.3090  179.4130  142.9570 N   0  0  0  0  0  2  0  0  0  0  0  0
  184.8950  179.1510  144.2800 N   0  0  0  0  0  0  0  0  0  0  0  0
  184.9610  178.9080  140.3300 S   0  0  0  0  0  0  0  0  0  0  0  0
  182.8840  179.1130  138.5550 C   0  0  0  0  0  2  0  0  0  0  0  0
  180.3650  179.7610  135.6790 O   0  0  0  0  0  0  0  0  0  0  0  0
  180.6230  181.3990  139.0050 C   0  0  0  0  0  2  0  0  0  0  0  0
  181.0850  178.0190  137.1810 C   0  0  0  0  0  2  0  0  0  0  0  0
  179.5600  180.5960  138.5360 O   0  0  0  0  0  0  0  0  0  0  0  0
  181.3810  179.0100  138.3160 C   0  0  2  0  0  3  0  0  0  0  0  0
  180.8460  180.8080  136.4900 C   0  0  0  0  0  2  0  0  0  0  0  0
  181.2650  178.6850  135.8100 C   0  0  0  0  0  2  0  0  0  0  0  0
  180.8190  180.3820  137.9550 C   0  0  2  0  0  0  0  0  0  0  0  0
  185.9040  178.9620  145.3120 C   0  0  0  0  0  2  0  0  0  0  0  0
  186.4990  177.5680  145.2120 C   0  0  0  0  0  2  0  0  0  0  0  0
  187.9380  177.6420  144.7190 C   0  0  2  0  0  3  0  0  0  0  0  0
  188.5440  177.2580  142.2250 S   0  0  0  0  0  1  0  0  0  0  0  0
  188.1790  176.5430  143.7970 N   0  0  0  0  0  2  0  0  0  0  0  0
  188.2500  177.0740  147.0240 O   0  0  0  0  0  1  0  0  0  0  0  0
  188.9140  177.5500  145.8910 C   0  0  1  0  0  3  0  0  0  0  0  0
  189.9870  176.6740  145.5710 O   0  0  0  0  0  0  0  0  0  0  0  0
  191.3140  177.1040  145.5620 C   0  0  0  0  0  0  0  0  0  0  0  0
  192.0990  176.7210  146.4690 O   0  0  0  0  0  1  0  0  0  0  0  0
  191.7810  177.9490  144.5620 O   0  0  0  0  0  0  0  0  0  0  0  0
  1 12  1  6  0  0  0
  1 11  1  0  0  0  0
  1  5  1  0  0  0  0
  3 11  1  6  0  0  0
  3  4  1  0  0  0  0
  3  9  1  0  0  0  0
  4  8  2  0  0  0  0
  5  4  1  0  0  0  0
  7  2  2  0  0  0  0
  8  6  1  0  0  0  0
  8  7  1  0  0  0  0
  9 10  1  0  0  0  0
 10  7  1  0  0  0  0
 10 21  1  0  0  0  0
 13 19  1  0  0  0  0
 13 18  1  0  0  0  0
 15 17  1  0  0  0  0
 16 14  1  0  0  0  0
 17 12  1  6  0  0  0
 19 15  1  0  0  0  0
 20 18  1  6  0  0  0
 20 17  1  0  0  0  0
 20 16  1  0  0  0  0
 20 14  1  0  0  0  0
 22 21  1  0  0  0  0
 23 22  1  1  0  0  0
 23 27  1  0  0  0  0
 24 25  1  0  0  0  0
 25 23  1  0  0  0  0
 27 26  1  1  0  0  0
 28 27  1  0  0  0  0
 29 28  1  0  0  0  0
 29 30  1  0  0  0  0
 31 29  2  0  0  0  0
M  END
>  <MODEL>
5

>  <REMARK>
 VINA RESULT:      -6.9      3.221      8.857
  Name = 
  9 active torsions:
  status: ('A' for Active; 'I' for Inactive)
    1  A    between atoms: C_1  and  C_17
    2  A    between atoms: C_1  and  C_19
    3  A    between atoms: C_1  and  N_24
    4  A    between atoms: C_3  and  C_16
    5  A    between atoms: C_5  and  O_9
    6  A    between atoms: O_9  and  C_17
    7  A    between atoms: C_14  and  C_16
    8  A    between atoms: C_19  and  C_30
    9  A    between atoms: N_28  and  C_30
                            x       y       z     vdW  Elec       q    Type
                         _______ _______ _______ _____ _____    ______ ____

>  <TORSDO>
F 9

$$$$
=
 OpenBabel11062414343D

 31 34  0  0  1  0  0  0  0  0999 V2000
  188.6640  177.2870  143.5210 C   0  0  2  0  0  3  0  0  0  0  0  0
  190.3170  177.6880  137.8030 O   0  0  0  0  0  0  0  0  0  0  0  0
  187.9520  177.6210  141.0630 C   0  0  2  0  0  3  0  0  0  0  0  0
  189.4320  177.4800  141.2390 C   0  0  0  0  0  0  0  0  0  0  0  0
  189.9040  177.3500  142.6420 C   0  0  0  0  0  2  0  0  0  0  0  0
  191.7290  177.3390  140.3150 C   0  0  0  0  0  1  0  0  0  0  0  0
  189.6520  177.8180  138.8670 C   0  0  0  0  0  0  0  0  0  0  0  0
  190.2510  177.5220  140.1780 C   0  0  0  0  0  0  0  0  0  0  0  0
  187.6490  178.6280  140.0420 N   0  0  0  0  0  2  0  0  0  0  0  0
  188.2800  178.2480  138.8380 N   0  0  0  0  0  0  0  0  0  0  0  0
  187.2940  178.1340  142.6700 S   0  0  0  0  0  0  0  0  0  0  0  0
  188.9240  177.9490  144.8650 C   0  0  0  0  0  2  0  0  0  0  0  0
  188.1460  178.0680  148.6610 O   0  0  0  0  0  0  0  0  0  0  0  0
  191.1460  176.7530  146.9060 C   0  0  0  0  0  2  0  0  0  0  0  0
  187.3080  177.1280  146.6060 C   0  0  0  0  0  2  0  0  0  0  0  0
  190.2130  176.0090  147.6620 O   0  0  0  0  0  0  0  0  0  0  0  0
  188.7150  176.9670  146.0130 C   0  0  2  0  0  3  0  0  0  0  0  0
  189.4520  178.2570  148.1680 C   0  0  0  0  0  2  0  0  0  0  0  0
  187.2590  178.3030  147.5920 C   0  0  0  0  0  2  0  0  0  0  0  0
  189.7580  177.2120  147.0990 C   0  0  2  0  0  0  0  0  0  0  0  0
  187.5080  178.2470  137.6050 C   0  0  0  0  0  2  0  0  0  0  0  0
  187.1820  176.8210  137.1940 C   0  0  0  0  0  2  0  0  0  0  0  0
  185.7420  176.4820  137.5560 C   0  0  2  0  0  3  0  0  0  0  0  0
  185.2610  173.9540  137.2180 S   0  0  0  0  0  1  0  0  0  0  0  0
  185.2000  175.5860  136.5470 N   0  0  0  0  0  2  0  0  0  0  0  0
  183.9060  177.7130  136.6360 O   0  0  0  0  0  1  0  0  0  0  0  0
  184.8910  177.7500  137.6260 C   0  0  1  0  0  3  0  0  0  0  0  0
  184.2740  177.8590  138.9020 O   0  0  0  0  0  0  0  0  0  0  0  0
  184.3550  179.0240  139.6640 C   0  0  0  0  0  0  0  0  0  0  0  0
  184.5550  180.1280  139.0930 O   0  0  0  0  0  0  0  0  0  0  0  0
  184.2140  178.9810  141.0460 O   0  0  0  0  0  1  0  0  0  0  0  0
  1 12  1  1  0  0  0
  2  7  2  0  0  0  0
  3  9  1  6  0  0  0
  3  4  1  0  0  0  0
  3 11  1  0  0  0  0
  4  5  1  0  0  0  0
  5  1  1  0  0  0  0
  7  8  1  0  0  0  0
  8  6  1  0  0  0  0
  8  4  2  0  0  0  0
 10  7  1  0  0  0  0
 10  9  1  0  0  0  0
 11  1  1  0  0  0  0
 14 16  1  0  0  0  0
 15 19  1  0  0  0  0
 17 12  1  6  0  0  0
 17 15  1  0  0  0  0
 17 20  1  0  0  0  0
 18 13  1  0  0  0  0
 19 13  1  0  0  0  0
 20 14  1  6  0  0  0
 20 16  1  0  0  0  0
 20 18  1  0  0  0  0
 21 10  1  0  0  0  0
 22 21  1  0  0  0  0
 23 22  1  6  0  0  0
 23 27  1  0  0  0  0
 25 24  1  0  0  0  0
 25 23  1  0  0  0  0
 27 26  1  6  0  0  0
 27 28  1  0  0  0  0
 28 29  1  0  0  0  0
 29 31  1  0  0  0  0
 30 29  2  0  0  0  0
M  END
>  <MODEL>
6

>  <REMARK>
 VINA RESULT:      -6.8      2.397      4.516
  Name = 
  9 active torsions:
  status: ('A' for Active; 'I' for Inactive)
    1  A    between atoms: C_1  and  C_17
    2  A    between atoms: C_1  and  C_19
    3  A    between atoms: C_1  and  N_24
    4  A    between atoms: C_3  and  C_16
    5  A    between atoms: C_5  and  O_9
    6  A    between atoms: O_9  and  C_17
    7  A    between atoms: C_14  and  C_16
    8  A    between atoms: C_19  and  C_30
    9  A    between atoms: N_28  and  C_30
                            x       y       z     vdW  Elec       q    Type
                         _______ _______ _______ _____ _____    ______ ____

>  <TORSDO>
F 9

$$$$
=
 OpenBabel11062414343D

 31 34  0  0  1  0  0  0  0  0999 V2000
  184.7940  178.9750  139.4450 C   0  0  2  0  0  3  0  0  0  0  0  0
  190.3660  177.3550  140.8310 O   0  0  0  0  0  0  0  0  0  0  0  0
  186.6150  178.7600  141.2610 C   0  0  2  0  0  3  0  0  0  0  0  0
  187.0490  178.2520  139.9210 C   0  0  0  0  0  0  0  0  0  0  0  0
  186.0170  178.2920  138.8520 C   0  0  0  0  0  2  0  0  0  0  0  0
  188.7610  177.2810  138.4140 C   0  0  0  0  0  1  0  0  0  0  0  0
  189.1390  177.6300  140.9380 C   0  0  0  0  0  0  0  0  0  0  0  0
  188.2820  177.7540  139.7480 C   0  0  0  0  0  0  0  0  0  0  0  0
  187.1290  177.8980  142.3290 N   0  0  0  0  0  2  0  0  0  0  0  0
  188.5350  177.8470  142.2250 N   0  0  0  0  0  0  0  0  0  0  0  0
  184.8040  178.7410  141.2520 S   0  0  0  0  0  0  0  0  0  0  0  0
  183.5170  178.3960  138.8570 C   0  0  0  0  0  2  0  0  0  0  0  0
  180.4110  176.0780  138.9850 O   0  0  0  0  0  0  0  0  0  0  0  0
  181.0400  179.2840  140.7570 C   0  0  0  0  0  2  0  0  0  0  0  0
  182.7730  176.0740  139.4700 C   0  0  0  0  0  2  0  0  0  0  0  0
  180.8870  178.0080  141.3430 O   0  0  0  0  0  0  0  0  0  0  0  0
  182.7710  177.5520  139.8850 C   0  0  2  0  0  3  0  0  0  0  0  0
  180.2910  177.4800  139.0500 C   0  0  0  0  0  2  0  0  0  0  0  0
  181.6760  175.7940  138.4330 C   0  0  0  0  0  2  0  0  0  0  0  0
  181.3320  178.0450  140.0120 C   0  0  2  0  0  0  0  0  0  0  0  0
  189.3410  178.0720  143.4150 C   0  0  0  0  0  2  0  0  0  0  0  0
  189.0970  176.9680  144.4290 C   0  0  0  0  0  2  0  0  0  0  0  0
  189.0040  177.5490  145.8330 C   0  0  2  0  0  3  0  0  0  0  0  0
  191.4680  176.7510  146.0060 S   0  0  0  0  0  1  0  0  0  0  0  0
  189.8550  176.7750  146.7230 N   0  0  0  0  0  2  0  0  0  0  0  0
  187.5470  177.6340  147.7310 O   0  0  0  0  0  1  0  0  0  0  0  0
  187.5630  177.5100  146.3390 C   0  0  1  0  0  3  0  0  0  0  0  0
  186.8100  178.5690  145.7640 O   0  0  0  0  0  0  0  0  0  0  0  0
  185.4180  178.6150  145.8450 C   0  0  0  0  0  0  0  0  0  0  0  0
  184.8620  178.6370  146.9750 O   0  0  0  0  0  1  0  0  0  0  0  0
  184.6380  178.6380  144.6950 O   0  0  0  0  0  0  0  0  0  0  0  0
  1 12  1  6  0  0  0
  1 11  1  0  0  0  0
  2  7  2  0  0  0  0
  3  4  1  6  0  0  0
  3  9  1  0  0  0  0
  5  1  1  0  0  0  0
  5  4  1  0  0  0  0
  6  8  1  0  0  0  0
  7 10  1  0  0  0  0
  8  4  2  0  0  0  0
  8  7  1  0  0  0  0
 10  9  1  0  0  0  0
 10 21  1  0  0  0  0
 11  3  1  0  0  0  0
 13 18  1  0  0  0  0
 14 16  1  0  0  0  0
 15 17  1  0  0  0  0
 17 12  1  6  0  0  0
 17 20  1  0  0  0  0
 19 13  1  0  0  0  0
 19 15  1  0  0  0  0
 20 18  1  6  0  0  0
 20 14  1  0  0  0  0
 20 16  1  0  0  0  0
 21 22  1  0  0  0  0
 23 22  1  6  0  0  0
 23 27  1  0  0  0  0
 23 25  1  0  0  0  0
 24 25  1  0  0  0  0
 27 26  1  1  0  0  0
 28 29  1  0  0  0  0
 28 27  1  0  0  0  0
 29 30  1  0  0  0  0
 31 29  2  0  0  0  0
M  END
>  <MODEL>
7

>  <REMARK>
 VINA RESULT:      -6.8      2.971      8.810
  Name = 
  9 active torsions:
  status: ('A' for Active; 'I' for Inactive)
    1  A    between atoms: C_1  and  C_17
    2  A    between atoms: C_1  and  C_19
    3  A    between atoms: C_1  and  N_24
    4  A    between atoms: C_3  and  C_16
    5  A    between atoms: C_5  and  O_9
    6  A    between atoms: O_9  and  C_17
    7  A    between atoms: C_14  and  C_16
    8  A    between atoms: C_19  and  C_30
    9  A    between atoms: N_28  and  C_30
                            x       y       z     vdW  Elec       q    Type
                         _______ _______ _______ _____ _____    ______ ____

>  <TORSDO>
F 9

$$$$
=
 OpenBabel11062414343D

 31 34  0  0  1  0  0  0  0  0999 V2000
  184.0930  178.2580  142.1450 C   0  0  2  0  0  3  0  0  0  0  0  0
  189.5330  177.3120  144.4020 O   0  0  0  0  0  0  0  0  0  0  0  0
  186.6300  178.0680  141.7140 C   0  0  2  0  0  3  0  0  0  0  0  0
  186.2590  177.9080  143.1550 C   0  0  0  0  0  0  0  0  0  0  0  0
  184.8150  178.0730  143.4700 C   0  0  0  0  0  2  0  0  0  0  0  0
  186.8600  177.4700  145.5210 C   0  0  0  0  0  1  0  0  0  0  0  0
  188.6060  177.7030  143.6410 C   0  0  0  0  0  0  0  0  0  0  0  0
  187.2020  177.6800  144.0810 C   0  0  0  0  0  0  0  0  0  0  0  0
  187.8730  178.8350  141.5850 N   0  0  0  0  0  2  0  0  0  0  0  0
  188.8850  178.1720  142.3100 N   0  0  0  0  0  0  0  0  0  0  0  0
  185.2590  178.9520  140.9290 S   0  0  0  0  0  0  0  0  0  0  0  0
  182.9030  179.1900  142.3080 C   0  0  0  0  0  2  0  0  0  0  0  0
  179.4900  180.2330  140.7920 O   0  0  0  0  0  0  0  0  0  0  0  0
  180.2270  178.5980  144.0470 C   0  0  0  0  0  2  0  0  0  0  0  0
  181.3700  178.7880  140.3570 C   0  0  0  0  0  2  0  0  0  0  0  0
  179.5110  178.0430  142.9630 O   0  0  0  0  0  0  0  0  0  0  0  0
  181.6120  178.5210  141.8490 C   0  0  2  0  0  3  0  0  0  0  0  0
  179.7440  180.3260  142.1750 C   0  0  0  0  0  2  0  0  0  0  0  0
  180.7380  180.1710  140.1420 C   0  0  0  0  0  2  0  0  0  0  0  0
  180.4350  179.0550  142.6610 C   0  0  2  0  0  0  0  0  0  0  0  0
  190.1690  177.9290  141.6710 C   0  0  0  0  0  2  0  0  0  0  0  0
  190.1210  176.6370  140.8740 C   0  0  0  0  0  2  0  0  0  0  0  0
  190.1880  176.9320  139.3830 C   0  0  2  0  0  3  0  0  0  0  0  0
  188.5370  178.2840  137.9050 S   0  0  0  0  0  1  0  0  0  0  0  0
  188.8550  176.8050  138.8150 N   0  0  0  0  0  2  0  0  0  0  0  0
  190.4010  174.9890  138.0010 O   0  0  0  0  0  1  0  0  0  0  0  0
  191.1370  175.9610  138.6830 C   0  0  1  0  0  3  0  0  0  0  0  0
  191.9640  176.6590  137.7600 O   0  0  0  0  0  0  0  0  0  0  0  0
  193.3560  176.6320  137.8480 C   0  0  0  0  0  0  0  0  0  0  0  0
  194.0470  176.7200  136.8000 O   0  0  0  0  0  0  0  0  0  0  0  0
  193.9880  176.5120  139.0800 O   0  0  0  0  0  1  0  0  0  0  0  0
  1 12  1  1  0  0  0
  1  5  1  0  0  0  0
  3 11  1  6  0  0  0
  3  4  1  0  0  0  0
  4  5  1  0  0  0  0
  4  8  2  0  0  0  0
  7  8  1  0  0  0  0
  7  2  2  0  0  0  0
  8  6  1  0  0  0  0
  9  3  1  0  0  0  0
  9 10  1  0  0  0  0
 10  7  1  0  0  0  0
 11  1  1  0  0  0  0
 13 18  1  0  0  0  0
 15 17  1  0  0  0  0
 16 14  1  0  0  0  0
 17 12  1  1  0  0  0
 17 20  1  0  0  0  0
 19 15  1  0  0  0  0
 19 13  1  0  0  0  0
 20 18  1  6  0  0  0
 20 16  1  0  0  0  0
 20 14  1  0  0  0  0
 21 10  1  0  0  0  0
 22 21  1  0  0  0  0
 23 22  1  1  0  0  0
 24 25  1  0  0  0  0
 25 23  1  0  0  0  0
 27 26  1  6  0  0  0
 27 23  1  0  0  0  0
 28 29  1  0  0  0  0
 28 27  1  0  0  0  0
 29 31  1  0  0  0  0
 30 29  2  0  0  0  0
M  END
>  <MODEL>
8

>  <REMARK>
 VINA RESULT:      -6.7      3.321      7.363
  Name = 
  9 active torsions:
  status: ('A' for Active; 'I' for Inactive)
    1  A    between atoms: C_1  and  C_17
    2  A    between atoms: C_1  and  C_19
    3  A    between atoms: C_1  and  N_24
    4  A    between atoms: C_3  and  C_16
    5  A    between atoms: C_5  and  O_9
    6  A    between atoms: O_9  and  C_17
    7  A    between atoms: C_14  and  C_16
    8  A    between atoms: C_19  and  C_30
    9  A    between atoms: N_28  and  C_30
                            x       y       z     vdW  Elec       q    Type
                         _______ _______ _______ _____ _____    ______ ____

>  <TORSDO>
F 9

$$$$
=
 OpenBabel11062414343D

 31 34  0  0  1  0  0  0  0  0999 V2000
  183.2810  178.3980  139.8280 C   0  0  2  0  0  3  0  0  0  0  0  0
  183.4240  178.8590  145.7750 O   0  0  0  0  0  0  0  0  0  0  0  0
  184.7010  178.3870  141.9830 C   0  0  2  0  0  3  0  0  0  0  0  0
  183.2470  178.6410  142.2310 C   0  0  0  0  0  0  0  0  0  0  0  0
  182.3910  178.7230  141.0180 C   0  0  0  0  0  2  0  0  0  0  0  0
  181.3390  179.0380  143.7640 C   0  0  0  0  0  1  0  0  0  0  0  0
  183.7820  178.8790  144.5650 C   0  0  0  0  0  0  0  0  0  0  0  0
  182.7910  178.8280  143.4780 C   0  0  0  0  0  0  0  0  0  0  0  0
  185.5260  179.2180  142.8650 N   0  0  0  0  0  2  0  0  0  0  0  0
  185.1730  178.9410  144.2020 N   0  0  0  0  0  0  0  0  0  0  0  0
  185.0050  178.8120  140.2490 S   0  0  0  0  0  0  0  0  0  0  0  0
  182.8470  179.1860  138.6020 C   0  0  0  0  0  2  0  0  0  0  0  0
  180.2940  179.9180  135.7780 O   0  0  0  0  0  0  0  0  0  0  0  0
  180.5310  181.3830  139.1850 C   0  0  0  0  0  2  0  0  0  0  0  0
  181.0690  178.1180  137.1820 C   0  0  0  0  0  2  0  0  0  0  0  0
  179.4850  180.5780  138.6790 O   0  0  0  0  0  0  0  0  0  0  0  0
  181.3460  179.0550  138.3660 C   0  0  2  0  0  3  0  0  0  0  0  0
  180.7530  180.9320  136.6410 C   0  0  0  0  0  2  0  0  0  0  0  0
  181.2220  178.8600  135.8470 C   0  0  0  0  0  2  0  0  0  0  0  0
  180.7470  180.4290  138.0810 C   0  0  2  0  0  0  0  0  0  0  0  0
  186.2240  178.6650  145.1690 C   0  0  0  0  0  2  0  0  0  0  0  0
  186.7450  177.2500  144.9870 C   0  0  0  0  0  2  0  0  0  0  0  0
  188.2670  177.2460  144.9600 C   0  0  2  0  0  3  0  0  0  0  0  0
  189.6850  176.9200  147.1100 S   0  0  0  0  0  1  0  0  0  0  0  0
  188.7610  178.0220  146.0870 N   0  0  0  0  0  2  0  0  0  0  0  0
  190.0640  178.3760  143.8540 O   0  0  0  0  0  1  0  0  0  0  0  0
  188.7850  177.8490  143.6560 C   0  0  1  0  0  3  0  0  0  0  0  0
  188.8380  176.8560  142.6400 O   0  0  0  0  0  0  0  0  0  0  0  0
  189.2360  177.1520  141.3370 C   0  0  0  0  0  0  0  0  0  0  0  0
  188.5600  177.9630  140.6490 O   0  0  0  0  0  0  0  0  0  0  0  0
  190.3710  176.5670  140.7890 O   0  0  0  0  0  1  0  0  0  0  0  0
  1 12  1  6  0  0  0
  1 11  1  0  0  0  0
  1  5  1  0  0  0  0
  3 11  1  6  0  0  0
  3  4  1  0  0  0  0
  3  9  1  0  0  0  0
  4  8  2  0  0  0  0
  5  4  1  0  0  0  0
  7  2  2  0  0  0  0
  8  6  1  0  0  0  0
  8  7  1  0  0  0  0
  9 10  1  0  0  0  0
 10  7  1  0  0  0  0
 10 21  1  0  0  0  0
 13 19  1  0  0  0  0
 13 18  1  0  0  0  0
 15 17  1  0  0  0  0
 16 14  1  0  0  0  0
 17 12  1  6  0  0  0
 19 15  1  0  0  0  0
 20 18  1  6  0  0  0
 20 17  1  0  0  0  0
 20 16  1  0  0  0  0
 20 14  1  0  0  0  0
 22 21  1  0  0  0  0
 23 22  1  6  0  0  0
 23 25  1  0  0  0  0
 25 24  1  0  0  0  0
 27 26  1  1  0  0  0
 27 23  1  0  0  0  0
 28 27  1  0  0  0  0
 29 28  1  0  0  0  0
 30 29  2  0  0  0  0
 31 29  1  0  0  0  0
M  END
>  <MODEL>
9

>  <REMARK>
 VINA RESULT:      -6.7      3.159      8.602
  Name = 
  9 active torsions:
  status: ('A' for Active; 'I' for Inactive)
    1  A    between atoms: C_1  and  C_17
    2  A    between atoms: C_1  and  C_19
    3  A    between atoms: C_1  and  N_24
    4  A    between atoms: C_3  and  C_16
    5  A    between atoms: C_5  and  O_9
    6  A    between atoms: O_9  and  C_17
    7  A    between atoms: C_14  and  C_16
    8  A    between atoms: C_19  and  C_30
    9  A    between atoms: N_28  and  C_30
                            x       y       z     vdW  Elec       q    Type
                         _______ _______ _______ _____ _____    ______ ____

>  <TORSDO>
F 9

$$$$
