=
 OpenBabel11062414403D

 38 40  0  0  1  0  0  0  0  0999 V2000
  189.6270  177.1230  140.9930 C   0  0  0  0  0  0  0  0  0  0  0  0
  190.4300  177.6970  138.8080 N   0  0  0  0  0  1  0  0  0  0  0  0
  190.4360  176.1170  141.5220 C   0  0  0  0  0  3  0  0  0  0  0  0
  189.1870  178.0270  143.1790 C   0  0  0  0  0  3  0  0  0  0  0  0
  189.2510  177.3460  139.5830 C   0  0  2  0  0  3  0  0  0  0  0  0
  188.3130  178.4820  139.5910 N   0  0  0  0  0  2  0  0  0  0  0  0
  189.0220  178.0420  141.7910 C   0  0  0  0  0  0  0  0  0  0  0  0
  190.6210  176.0760  142.9140 C   0  0  0  0  0  3  0  0  0  0  0  0
  188.1820  178.9480  140.9820 C   0  0  2  0  0  3  0  0  0  0  0  0
  190.0000  177.0350  143.7480 C   0  0  0  0  0  0  0  0  0  0  0  0
  186.7840  178.8370  141.4110 C   0  0  0  0  0  0  0  0  0  0  0  0
  185.6270  178.7940  141.7400 C   0  0  0  0  0  0  0  0  0  0  0  0
  184.2300  178.7870  142.1090 C   0  0  0  0  0  0  0  0  0  0  0  0
  183.2700  178.9160  141.1790 C   0  0  0  0  0  3  0  0  0  0  0  0
  184.3650  180.1280  139.4180 O   0  0  0  0  0  1  0  0  0  0  0  0
  183.4830  179.0820  139.6950 C   0  0  1  0  0  3  0  0  0  0  0  0
  181.6230  176.8250  139.3580 C   0  0  0  0  0  2  0  0  0  0  0  0
  182.4830  174.6320  137.7750 C   0  0  0  0  0  3  0  0  0  0  0  0
  182.9600  176.7680  138.7590 N   0  0  0  0  0  0  0  0  0  0  0  0
  180.6210  176.0840  138.4790 C   0  0  0  0  0  2  0  0  0  0  0  0
  185.0910  177.7060  138.5730 O   0  0  0  0  0  0  0  0  0  0  0  0
  183.9070  177.8210  138.9970 C   0  0  0  0  0  0  0  0  0  0  0  0
  183.3720  175.5820  138.0620 C   0  0  0  0  0  3  0  0  0  0  0  0
  181.1360  174.8060  138.1120 O   0  0  0  0  0  0  0  0  0  0  0  0
  183.8650  178.6400  143.5340 C   0  0  0  0  0  0  0  0  0  0  0  0
  182.6520  178.6310  143.8770 O   0  0  0  0  0  0  0  0  0  0  0  0
  184.9090  178.4720  144.5920 C   0  0  0  0  0  2  0  0  0  0  0  0
  184.2950  178.6720  145.9640 C   0  0  0  0  0  1  0  0  0  0  0  0
  190.1210  176.9720  145.2400 C   0  0  1  0  0  3  0  0  0  0  0  0
  191.5810  176.9440  145.6990 C   0  0  0  0  0  2  0  0  0  0  0  0
  191.9860  175.6070  146.3040 C   0  0  0  0  0  2  0  0  0  0  0  0
  192.3700  175.7870  147.7600 C   0  0  0  0  0  2  0  0  0  0  0  0
  192.1130  177.0990  148.1590 O   0  0  0  0  0  1  0  0  0  0  0  0
  189.2940  178.0470  145.9450 C   0  0  0  0  0  2  0  0  0  0  0  0
  188.1700  177.4270  146.7580 C   0  0  0  0  0  2  0  0  0  0  0  0
  188.3160  177.7570  148.2030 C   0  0  0  0  0  0  0  0  0  0  0  0
  189.2940  178.6540  148.6140 O   0  0  0  0  0  0  0  0  0  0  0  0
  187.5380  177.2460  149.0500 O   0  0  0  0  0  1  0  0  0  0  0  0
  1  3  2  0  0  0  0
  1  7  1  0  0  0  0
  3  8  1  0  0  0  0
  4 10  1  0  0  0  0
  5  2  1  6  0  0  0
  5  6  1  0  0  0  0
  5  1  1  0  0  0  0
  6  9  1  0  0  0  0
  7  4  2  0  0  0  0
  8 10  2  0  0  0  0
  9 11  1  1  0  0  0
  9  7  1  0  0  0  0
 10 29  1  0  0  0  0
 11 12  3  0  0  0  0
 12 13  1  0  0  0  0
 13 25  1  0  0  0  0
 14 13  2  0  0  0  0
 16 15  1  1  0  0  0
 16 14  1  0  0  0  0
 18 23  2  0  0  0  0
 18 24  1  0  0  0  0
 19 22  1  0  0  0  0
 19 17  1  0  0  0  0
 20 17  1  0  0  0  0
 21 22  2  0  0  0  0
 22 16  1  0  0  0  0
 23 19  1  0  0  0  0
 24 20  1  0  0  0  0
 25 26  2  0  0  0  0
 25 27  1  0  0  0  0
 27 28  1  0  0  0  0
 29 30  1  6  0  0  0
 29 34  1  0  0  0  0
 30 31  1  0  0  0  0
 31 32  1  0  0  0  0
 32 33  1  0  0  0  0
 34 35  1  0  0  0  0
 35 36  1  0  0  0  0
 36 37  2  0  0  0  0
 36 38  1  0  0  0  0
M  END
>  <MODEL>
1

>  <REMARK>
 VINA RESULT:      -8.2      0.000      0.000
  Name = 
  13 active torsions:
  status: ('A' for Active; 'I' for Inactive)
    1  A    between atoms: C_2  and  C_8
    2  A    between atoms: C_2  and  C_20
    3  A    between atoms: C_5  and  C_12
    4  A    between atoms: C_6  and  C_16
    5  A    between atoms: C_8  and  C_14
    6  A    between atoms: C_12  and  C_21
    7  A    between atoms: C_16  and  C_38
    8  A    between atoms: C_17  and  C_27
    9  A    between atoms: C_19  and  C_33
   10  A    between atoms: C_21  and  C_24
   11  A    between atoms: C_24  and  C_34
   12  A    between atoms: C_24  and  C_38
   13  A    between atoms: C_27  and  C_32
                            x       y       z     vdW  Elec       q    Type
                         _______ _______ _______ _____ _____    ______ ____

>  <TORSDO>
F 13

$$$$
=
 OpenBabel11062414403D

 38 40  0  0  1  0  0  0  0  0999 V2000
  189.7250  177.0450  144.2730 C   0  0  0  0  0  0  0  0  0  0  0  0
  191.6530  177.2740  145.6810 N   0  0  0  0  0  1  0  0  0  0  0  0
  188.6350  176.6680  145.0570 C   0  0  0  0  0  3  0  0  0  0  0  0
  188.3100  178.2440  142.7410 C   0  0  0  0  0  3  0  0  0  0  0  0
  191.1460  176.6870  144.4510 C   0  0  2  0  0  3  0  0  0  0  0  0
  191.8570  177.2710  143.3000 N   0  0  0  0  0  2  0  0  0  0  0  0
  189.5690  177.8020  143.1540 C   0  0  0  0  0  0  0  0  0  0  0  0
  187.3560  177.0970  144.6660 C   0  0  0  0  0  3  0  0  0  0  0  0
  190.8710  178.0030  142.4870 C   0  0  2  0  0  3  0  0  0  0  0  0
  187.1890  177.8910  143.5090 C   0  0  0  0  0  0  0  0  0  0  0  0
  190.8240  177.4340  141.1360 C   0  0  0  0  0  0  0  0  0  0  0  0
  190.7510  177.0070  140.0120 C   0  0  0  0  0  0  0  0  0  0  0  0
  190.6350  176.5360  138.6510 C   0  0  0  0  0  0  0  0  0  0  0  0
  189.5990  176.9040  137.8800 C   0  0  0  0  0  3  0  0  0  0  0  0
  188.9290  179.0030  138.8330 O   0  0  0  0  0  1  0  0  0  0  0  0
  188.4630  177.8080  138.2850 C   0  0  1  0  0  3  0  0  0  0  0  0
  186.8870  175.6220  137.0990 C   0  0  0  0  0  2  0  0  0  0  0  0
  184.8620  176.3160  135.2360 C   0  0  0  0  0  3  0  0  0  0  0  0
  186.6450  177.0070  136.6850 N   0  0  0  0  0  0  0  0  0  0  0  0
  185.5860  174.8260  137.0610 C   0  0  0  0  0  2  0  0  0  0  0  0
  187.3300  179.2400  136.7350 O   0  0  0  0  0  0  0  0  0  0  0  0
  187.4720  178.0690  137.1860 C   0  0  0  0  0  0  0  0  0  0  0  0
  185.6800  177.2790  135.6560 C   0  0  0  0  0  3  0  0  0  0  0  0
  184.9080  175.0470  135.8250 O   0  0  0  0  0  0  0  0  0  0  0  0
  191.6750  175.6320  138.1140 C   0  0  0  0  0  0  0  0  0  0  0  0
  191.4090  174.4170  137.9080 O   0  0  0  0  0  0  0  0  0  0  0  0
  193.0430  176.1320  137.7790 C   0  0  0  0  0  2  0  0  0  0  0  0
  193.7970  175.0860  136.9810 C   0  0  0  0  0  1  0  0  0  0  0  0
  185.8300  178.3030  143.0290 C   0  0  1  0  0  3  0  0  0  0  0  0
  185.1680  179.3120  143.9700 C   0  0  0  0  0  2  0  0  0  0  0  0
  184.0330  178.7060  144.7840 C   0  0  0  0  0  2  0  0  0  0  0  0
  184.4270  178.6170  146.2450 C   0  0  0  0  0  2  0  0  0  0  0  0
  185.5210  179.4460  146.4930 O   0  0  0  0  0  1  0  0  0  0  0  0
  185.8320  178.7590  141.5700 C   0  0  0  0  0  2  0  0  0  0  0  0
  184.4160  178.9010  141.0390 C   0  0  0  0  0  2  0  0  0  0  0  0
  184.4160  179.0190  139.5540 C   0  0  0  0  0  0  0  0  0  0  0  0
  184.1610  177.9020  138.7690 O   0  0  0  0  0  0  0  0  0  0  0  0
  184.6190  180.1350  139.0090 O   0  0  0  0  0  1  0  0  0  0  0  0
  1  5  1  0  0  0  0
  1  3  1  0  0  0  0
  4  7  1  0  0  0  0
  4 10  2  0  0  0  0
  5  2  1  1  0  0  0
  6  5  1  0  0  0  0
  7  1  2  0  0  0  0
  8  3  2  0  0  0  0
  9 11  1  6  0  0  0
  9  7  1  0  0  0  0
  9  6  1  0  0  0  0
 10  8  1  0  0  0  0
 12 11  3  0  0  0  0
 13 12  1  0  0  0  0
 14 16  1  0  0  0  0
 14 13  2  0  0  0  0
 16 15  1  6  0  0  0
 18 23  2  0  0  0  0
 18 24  1  0  0  0  0
 19 17  1  0  0  0  0
 19 22  1  0  0  0  0
 20 17  1  0  0  0  0
 21 22  2  0  0  0  0
 22 16  1  0  0  0  0
 23 19  1  0  0  0  0
 24 20  1  0  0  0  0
 25 13  1  0  0  0  0
 26 25  2  0  0  0  0
 27 25  1  0  0  0  0
 28 27  1  0  0  0  0
 29 34  1  6  0  0  0
 29 10  1  0  0  0  0
 29 30  1  0  0  0  0
 30 31  1  0  0  0  0
 31 32  1  0  0  0  0
 32 33  1  0  0  0  0
 35 34  1  0  0  0  0
 36 35  1  0  0  0  0
 37 36  2  0  0  0  0
 38 36  1  0  0  0  0
M  END
>  <MODEL>
2

>  <REMARK>
 VINA RESULT:      -8.2      3.028      6.803
  Name = 
  13 active torsions:
  status: ('A' for Active; 'I' for Inactive)
    1  A    between atoms: C_2  and  C_8
    2  A    between atoms: C_2  and  C_20
    3  A    between atoms: C_5  and  C_12
    4  A    between atoms: C_6  and  C_16
    5  A    between atoms: C_8  and  C_14
    6  A    between atoms: C_12  and  C_21
    7  A    between atoms: C_16  and  C_38
    8  A    between atoms: C_17  and  C_27
    9  A    between atoms: C_19  and  C_33
   10  A    between atoms: C_21  and  C_24
   11  A    between atoms: C_24  and  C_34
   12  A    between atoms: C_24  and  C_38
   13  A    between atoms: C_27  and  C_32
                            x       y       z     vdW  Elec       q    Type
                         _______ _______ _______ _____ _____    ______ ____

>  <TORSDO>
F 13

$$$$
=
 OpenBabel11062414403D

 38 40  0  0  1  0  0  0  0  0999 V2000
  189.6580  177.0320  141.4460 C   0  0  0  0  0  0  0  0  0  0  0  0
  190.4540  177.2690  139.1970 N   0  0  0  0  0  1  0  0  0  0  0  0
  190.4580  176.1050  142.1140 C   0  0  0  0  0  3  0  0  0  0  0  0
  189.2420  178.2540  143.4770 C   0  0  0  0  0  3  0  0  0  0  0  0
  189.2760  177.0510  140.0200 C   0  0  2  0  0  3  0  0  0  0  0  0
  188.3520  178.1880  139.8650 N   0  0  0  0  0  2  0  0  0  0  0  0
  189.0680  178.0670  142.1030 C   0  0  0  0  0  0  0  0  0  0  0  0
  190.6510  176.2670  143.4960 C   0  0  0  0  0  3  0  0  0  0  0  0
  188.2350  178.8550  141.1730 C   0  0  2  0  0  3  0  0  0  0  0  0
  190.0470  177.3450  144.1820 C   0  0  0  0  0  0  0  0  0  0  0  0
  186.8380  178.8260  141.6200 C   0  0  0  0  0  0  0  0  0  0  0  0
  185.6990  178.7510  142.0020 C   0  0  0  0  0  0  0  0  0  0  0  0
  184.3420  178.6130  142.4780 C   0  0  0  0  0  0  0  0  0  0  0  0
  183.3340  178.3670  141.6270 C   0  0  0  0  0  3  0  0  0  0  0  0
  182.5460  177.2610  139.6460 O   0  0  0  0  0  1  0  0  0  0  0  0
  183.4480  178.2080  140.1320 C   0  0  1  0  0  3  0  0  0  0  0  0
  180.8210  179.3970  139.5340 C   0  0  0  0  0  2  0  0  0  0  0  0
  180.7790  181.9720  138.3430 C   0  0  0  0  0  3  0  0  0  0  0  0
  182.0480  180.1120  139.1720 N   0  0  0  0  0  0  0  0  0  0  0  0
  179.7250  180.3880  139.9100 C   0  0  0  0  0  2  0  0  0  0  0  0
  184.3730  180.0760  138.9510 O   0  0  0  0  0  0  0  0  0  0  0  0
  183.3320  179.5000  139.3720 C   0  0  0  0  0  0  0  0  0  0  0  0
  181.9560  181.3630  138.4720 C   0  0  0  0  0  3  0  0  0  0  0  0
  179.6340  181.4190  138.9280 O   0  0  0  0  0  0  0  0  0  0  0  0
  184.0720  178.7530  143.9250 C   0  0  0  0  0  0  0  0  0  0  0  0
  182.8900  178.6720  144.3570 O   0  0  0  0  0  0  0  0  0  0  0  0
  185.1800  178.9620  144.9070 C   0  0  0  0  0  2  0  0  0  0  0  0
  184.7600  178.4700  146.2780 C   0  0  0  0  0  1  0  0  0  0  0  0
  190.1760  177.5010  145.6660 C   0  0  1  0  0  3  0  0  0  0  0  0
  188.9560  178.1900  146.2820 C   0  0  0  0  0  2  0  0  0  0  0  0
  187.9830  177.2090  146.9240 C   0  0  0  0  0  2  0  0  0  0  0  0
  188.0260  177.3430  148.4330 C   0  0  0  0  0  2  0  0  0  0  0  0
  188.6400  178.5450  148.7860 O   0  0  0  0  0  1  0  0  0  0  0  0
  190.5410  176.1930  146.3690 C   0  0  0  0  0  2  0  0  0  0  0  0
  192.0450  176.0670  146.5450 C   0  0  0  0  0  2  0  0  0  0  0  0
  192.4170  176.1400  147.9850 C   0  0  0  0  0  0  0  0  0  0  0  0
  192.8860  175.0070  148.6380 O   0  0  0  0  0  1  0  0  0  0  0  0
  192.3350  177.2320  148.6040 O   0  0  0  0  0  0  0  0  0  0  0  0
  1  7  2  0  0  0  0
  1  3  1  0  0  0  0
  3  8  2  0  0  0  0
  4 10  2  0  0  0  0
  5  2  1  6  0  0  0
  5  1  1  0  0  0  0
  6  5  1  0  0  0  0
  6  9  1  0  0  0  0
  7  4  1  0  0  0  0
  8 10  1  0  0  0  0
  9 11  1  1  0  0  0
  9  7  1  0  0  0  0
 10 29  1  0  0  0  0
 11 12  3  0  0  0  0
 12 13  1  0  0  0  0
 13 25  1  0  0  0  0
 14 13  2  0  0  0  0
 16 15  1  6  0  0  0
 16 14  1  0  0  0  0
 17 20  1  0  0  0  0
 18 23  2  0  0  0  0
 18 24  1  0  0  0  0
 19 22  1  0  0  0  0
 19 17  1  0  0  0  0
 21 22  2  0  0  0  0
 22 16  1  0  0  0  0
 23 19  1  0  0  0  0
 24 20  1  0  0  0  0
 25 26  2  0  0  0  0
 25 27  1  0  0  0  0
 27 28  1  0  0  0  0
 29 30  1  1  0  0  0
 29 34  1  0  0  0  0
 30 31  1  0  0  0  0
 31 32  1  0  0  0  0
 32 33  1  0  0  0  0
 34 35  1  0  0  0  0
 35 36  1  0  0  0  0
 36 38  2  0  0  0  0
 36 37  1  0  0  0  0
M  END
>  <MODEL>
3

>  <REMARK>
 VINA RESULT:      -8.1      1.696      3.087
  Name = 
  13 active torsions:
  status: ('A' for Active; 'I' for Inactive)
    1  A    between atoms: C_2  and  C_8
    2  A    between atoms: C_2  and  C_20
    3  A    between atoms: C_5  and  C_12
    4  A    between atoms: C_6  and  C_16
    5  A    between atoms: C_8  and  C_14
    6  A    between atoms: C_12  and  C_21
    7  A    between atoms: C_16  and  C_38
    8  A    between atoms: C_17  and  C_27
    9  A    between atoms: C_19  and  C_33
   10  A    between atoms: C_21  and  C_24
   11  A    between atoms: C_24  and  C_34
   12  A    between atoms: C_24  and  C_38
   13  A    between atoms: C_27  and  C_32
                            x       y       z     vdW  Elec       q    Type
                         _______ _______ _______ _____ _____    ______ ____

>  <TORSDO>
F 13

$$$$
=
 OpenBabel11062414403D

 38 40  0  0  1  0  0  0  0  0999 V2000
  189.0720  176.6770  142.8800 C   0  0  0  0  0  0  0  0  0  0  0  0
  191.3500  176.5210  143.6150 N   0  0  0  0  0  1  0  0  0  0  0  0
  188.2310  176.3550  143.9450 C   0  0  0  0  0  3  0  0  0  0  0  0
  187.4500  178.1950  141.9550 C   0  0  0  0  0  3  0  0  0  0  0  0
  190.4100  176.1330  142.5750 C   0  0  2  0  0  3  0  0  0  0  0  0
  190.8120  176.7440  141.2960 N   0  0  0  0  0  2  0  0  0  0  0  0
  188.6960  177.5620  141.9180 C   0  0  0  0  0  0  0  0  0  0  0  0
  186.9720  176.9750  144.0080 C   0  0  0  0  0  3  0  0  0  0  0  0
  189.7460  177.6720  140.8850 C   0  0  2  0  0  3  0  0  0  0  0  0
  186.5790  177.9020  143.0150 C   0  0  0  0  0  0  0  0  0  0  0  0
  189.2030  177.2580  139.5870 C   0  0  0  0  0  0  0  0  0  0  0  0
  188.8080  176.9200  138.5010 C   0  0  0  0  0  0  0  0  0  0  0  0
  188.3830  176.5120  137.1820 C   0  0  0  0  0  0  0  0  0  0  0  0
  189.0680  175.5860  136.4920 C   0  0  0  0  0  3  0  0  0  0  0  0
  190.0260  173.5770  137.3920 O   0  0  0  0  0  1  0  0  0  0  0  0
  190.3120  174.8700  136.9540 C   0  0  1  0  0  3  0  0  0  0  0  0
  193.0970  175.4300  137.7300 C   0  0  0  0  0  2  0  0  0  0  0  0
  195.1080  175.0980  135.7560 C   0  0  0  0  0  3  0  0  0  0  0  0
  192.7840  175.0430  136.3500 N   0  0  0  0  0  0  0  0  0  0  0  0
  194.4700  174.8980  138.1270 C   0  0  0  0  0  2  0  0  0  0  0  0
  191.1570  174.6430  134.7240 O   0  0  0  0  0  0  0  0  0  0  0  0
  191.4210  174.8610  135.9380 C   0  0  0  0  0  0  0  0  0  0  0  0
  193.8370  175.0010  135.3730 C   0  0  0  0  0  3  0  0  0  0  0  0
  195.4280  175.1980  137.1150 O   0  0  0  0  0  0  0  0  0  0  0  0
  187.1790  177.1360  136.5920 C   0  0  0  0  0  0  0  0  0  0  0  0
  187.0680  177.2320  135.3390 O   0  0  0  0  0  0  0  0  0  0  0  0
  186.0620  177.6380  137.4490 C   0  0  0  0  0  2  0  0  0  0  0  0
  184.8660  176.7120  137.3390 C   0  0  0  0  0  1  0  0  0  0  0  0
  185.2160  178.5230  143.0180 C   0  0  1  0  0  3  0  0  0  0  0  0
  184.9970  179.4260  144.2350 C   0  0  0  0  0  2  0  0  0  0  0  0
  184.0200  178.8350  145.2430 C   0  0  0  0  0  2  0  0  0  0  0  0
  184.7610  178.3840  146.4860 C   0  0  0  0  0  2  0  0  0  0  0  0
  185.4800  179.4520  147.0230 O   0  0  0  0  0  1  0  0  0  0  0  0
  184.8770  179.2110  141.6960 C   0  0  0  0  0  2  0  0  0  0  0  0
  183.6730  178.5620  141.0340 C   0  0  0  0  0  2  0  0  0  0  0  0
  183.4140  179.1670  139.6970 C   0  0  0  0  0  0  0  0  0  0  0  0
  184.2520  180.1630  139.2120 O   0  0  0  0  0  1  0  0  0  0  0  0
  182.4540  178.7570  138.9940 O   0  0  0  0  0  0  0  0  0  0  0  0
  1  3  1  0  0  0  0
  3  8  2  0  0  0  0
  4 10  2  0  0  0  0
  5  1  1  0  0  0  0
  5  2  1  1  0  0  0
  6  5  1  0  0  0  0
  7  4  1  0  0  0  0
  7  1  2  0  0  0  0
  9 11  1  6  0  0  0
  9  6  1  0  0  0  0
  9  7  1  0  0  0  0
 10 29  1  0  0  0  0
 10  8  1  0  0  0  0
 12 11  3  0  0  0  0
 13 12  1  0  0  0  0
 14 16  1  0  0  0  0
 14 13  2  0  0  0  0
 16 15  1  6  0  0  0
 17 20  1  0  0  0  0
 18 24  1  0  0  0  0
 19 17  1  0  0  0  0
 21 22  2  0  0  0  0
 22 19  1  0  0  0  0
 22 16  1  0  0  0  0
 23 18  2  0  0  0  0
 23 19  1  0  0  0  0
 24 20  1  0  0  0  0
 25 13  1  0  0  0  0
 25 27  1  0  0  0  0
 26 25  2  0  0  0  0
 28 27  1  0  0  0  0
 29 34  1  6  0  0  0
 29 30  1  0  0  0  0
 30 31  1  0  0  0  0
 31 32  1  0  0  0  0
 32 33  1  0  0  0  0
 35 34  1  0  0  0  0
 36 35  1  0  0  0  0
 37 36  1  0  0  0  0
 38 36  2  0  0  0  0
M  END
>  <MODEL>
4

>  <REMARK>
 VINA RESULT:      -8.1      3.839      8.042
  Name = 
  13 active torsions:
  status: ('A' for Active; 'I' for Inactive)
    1  A    between atoms: C_2  and  C_8
    2  A    between atoms: C_2  and  C_20
    3  A    between atoms: C_5  and  C_12
    4  A    between atoms: C_6  and  C_16
    5  A    between atoms: C_8  and  C_14
    6  A    between atoms: C_12  and  C_21
    7  A    between atoms: C_16  and  C_38
    8  A    between atoms: C_17  and  C_27
    9  A    between atoms: C_19  and  C_33
   10  A    between atoms: C_21  and  C_24
   11  A    between atoms: C_24  and  C_34
   12  A    between atoms: C_24  and  C_38
   13  A    between atoms: C_27  and  C_32
                            x       y       z     vdW  Elec       q    Type
                         _______ _______ _______ _____ _____    ______ ____

>  <TORSDO>
F 13

$$$$
=
 OpenBabel11062414403D

 38 40  0  0  1  0  0  0  0  0999 V2000
  189.9940  176.9030  141.1980 C   0  0  0  0  0  0  0  0  0  0  0  0
  192.1660  177.3710  140.2930 N   0  0  0  0  0  1  0  0  0  0  0  0
  190.1410  176.1170  142.3400 C   0  0  0  0  0  3  0  0  0  0  0  0
  188.0120  177.9470  142.0730 C   0  0  0  0  0  3  0  0  0  0  0  0
  190.8250  176.9060  139.9770 C   0  0  2  0  0  3  0  0  0  0  0  0
  190.1810  177.8550  139.0530 N   0  0  0  0  0  2  0  0  0  0  0  0
  188.9670  177.7840  141.0660 C   0  0  0  0  0  0  0  0  0  0  0  0
  189.1960  176.2590  143.3700 C   0  0  0  0  0  3  0  0  0  0  0  0
  189.0190  178.4380  139.7430 C   0  0  2  0  0  3  0  0  0  0  0  0
  188.1290  177.1780  143.2420 C   0  0  0  0  0  0  0  0  0  0  0  0
  187.7940  178.1320  138.9960 C   0  0  0  0  0  0  0  0  0  0  0  0
  186.7610  177.8930  138.4260 C   0  0  0  0  0  0  0  0  0  0  0  0
  185.4940  177.6230  137.7860 C   0  0  0  0  0  0  0  0  0  0  0  0
  184.3610  178.1900  138.2290 C   0  0  0  0  0  3  0  0  0  0  0  0
  184.3120  180.4700  138.9820 O   0  0  0  0  0  1  0  0  0  0  0  0
  184.2370  179.1390  139.3940 C   0  0  1  0  0  3  0  0  0  0  0  0
  181.5800  180.0690  138.5290 C   0  0  0  0  0  2  0  0  0  0  0  0
  179.3410  179.3080  140.0970 C   0  0  0  0  0  3  0  0  0  0  0  0
  181.7160  179.2830  139.7590 N   0  0  0  0  0  0  0  0  0  0  0  0
  180.2490  179.7600  137.8510 C   0  0  0  0  0  2  0  0  0  0  0  0
  183.1280  178.3320  141.3580 O   0  0  0  0  0  0  0  0  0  0  0  0
  183.0160  178.9070  140.2400 C   0  0  0  0  0  0  0  0  0  0  0  0
  180.5550  179.0260  140.5650 C   0  0  0  0  0  3  0  0  0  0  0  0
  179.1870  179.8140  138.8010 O   0  0  0  0  0  0  0  0  0  0  0  0
  185.4580  176.7010  136.6300 C   0  0  0  0  0  0  0  0  0  0  0  0
  184.6180  176.8790  135.7070 O   0  0  0  0  0  0  0  0  0  0  0  0
  186.4220  175.5640  136.5110 C   0  0  0  0  0  2  0  0  0  0  0  0
  185.7830  174.2860  137.0200 C   0  0  0  0  0  1  0  0  0  0  0  0
  187.0670  177.2990  144.2920 C   0  0  1  0  0  3  0  0  0  0  0  0
  187.5460  178.0980  145.5060 C   0  0  0  0  0  2  0  0  0  0  0  0
  187.4640  177.3080  146.8050 C   0  0  0  0  0  2  0  0  0  0  0  0
  188.8540  177.0760  147.3640 C   0  0  0  0  0  2  0  0  0  0  0  0
  189.8040  177.6690  146.5330 O   0  0  0  0  0  1  0  0  0  0  0  0
  185.7370  177.8020  143.7320 C   0  0  0  0  0  2  0  0  0  0  0  0
  185.3200  179.1030  144.3970 C   0  0  0  0  0  2  0  0  0  0  0  0
  184.0910  178.9080  145.2160 C   0  0  0  0  0  0  0  0  0  0  0  0
  182.8450  178.8820  144.6020 O   0  0  0  0  0  0  0  0  0  0  0  0
  184.1810  178.7390  146.4600 O   0  0  0  0  0  1  0  0  0  0  0  0
  1  3  1  0  0  0  0
  3  8  2  0  0  0  0
  4 10  2  0  0  0  0
  5  2  1  1  0  0  0
  5  1  1  0  0  0  0
  6  9  1  0  0  0  0
  6  5  1  0  0  0  0
  7  1  2  0  0  0  0
  7  4  1  0  0  0  0
  9 11  1  6  0  0  0
  9  7  1  0  0  0  0
 10  8  1  0  0  0  0
 10 29  1  0  0  0  0
 12 11  3  0  0  0  0
 13 14  2  0  0  0  0
 13 12  1  0  0  0  0
 14 16  1  0  0  0  0
 16 15  1  6  0  0  0
 16 22  1  0  0  0  0
 17 19  1  0  0  0  0
 18 23  2  0  0  0  0
 19 22  1  0  0  0  0
 19 23  1  0  0  0  0
 20 17  1  0  0  0  0
 20 24  1  0  0  0  0
 22 21  2  0  0  0  0
 24 18  1  0  0  0  0
 25 13  1  0  0  0  0
 26 25  2  0  0  0  0
 27 25  1  0  0  0  0
 27 28  1  0  0  0  0
 29 34  1  6  0  0  0
 29 30  1  0  0  0  0
 30 31  1  0  0  0  0
 31 32  1  0  0  0  0
 33 32  1  0  0  0  0
 34 35  1  0  0  0  0
 35 36  1  0  0  0  0
 36 38  1  0  0  0  0
 37 36  2  0  0  0  0
M  END
>  <MODEL>
5

>  <REMARK>
 VINA RESULT:      -8.0      2.206      4.413
  Name = 
  13 active torsions:
  status: ('A' for Active; 'I' for Inactive)
    1  A    between atoms: C_2  and  C_8
    2  A    between atoms: C_2  and  C_20
    3  A    between atoms: C_5  and  C_12
    4  A    between atoms: C_6  and  C_16
    5  A    between atoms: C_8  and  C_14
    6  A    between atoms: C_12  and  C_21
    7  A    between atoms: C_16  and  C_38
    8  A    between atoms: C_17  and  C_27
    9  A    between atoms: C_19  and  C_33
   10  A    between atoms: C_21  and  C_24
   11  A    between atoms: C_24  and  C_34
   12  A    between atoms: C_24  and  C_38
   13  A    between atoms: C_27  and  C_32
                            x       y       z     vdW  Elec       q    Type
                         _______ _______ _______ _____ _____    ______ ____

>  <TORSDO>
F 13

$$$$
=
 OpenBabel11062414403D

 38 40  0  0  1  0  0  0  0  0999 V2000
  189.8060  177.0300  140.9620 C   0  0  0  0  0  0  0  0  0  0  0  0
  191.8940  177.3110  139.8170 N   0  0  0  0  0  1  0  0  0  0  0  0
  190.0390  176.3790  142.1730 C   0  0  0  0  0  3  0  0  0  0  0  0
  187.9390  178.2390  141.8800 C   0  0  0  0  0  3  0  0  0  0  0  0
  190.5190  176.8600  139.6800 C   0  0  2  0  0  3  0  0  0  0  0  0
  189.8150  177.7160  138.7100 N   0  0  0  0  0  2  0  0  0  0  0  0
  188.7920  177.9250  140.8190 C   0  0  0  0  0  0  0  0  0  0  0  0
  189.1970  176.6740  143.2580 C   0  0  0  0  0  3  0  0  0  0  0  0
  188.7360  178.4170  139.4270 C   0  0  2  0  0  3  0  0  0  0  0  0
  188.1460  177.6090  143.1170 C   0  0  0  0  0  0  0  0  0  0  0  0
  187.4410  178.0680  138.8340 C   0  0  0  0  0  0  0  0  0  0  0  0
  186.3950  177.8020  138.3000 C   0  0  0  0  0  0  0  0  0  0  0  0
  185.1610  177.4970  137.6140 C   0  0  0  0  0  0  0  0  0  0  0  0
  184.0070  178.0820  137.9750 C   0  0  0  0  0  3  0  0  0  0  0  0
  184.7860  180.0960  139.0260 O   0  0  0  0  0  1  0  0  0  0  0  0
  183.8270  179.0840  139.0870 C   0  0  1  0  0  3  0  0  0  0  0  0
  182.0810  178.5540  141.3980 C   0  0  0  0  0  2  0  0  0  0  0  0
  179.6090  179.9400  141.5310 C   0  0  0  0  0  3  0  0  0  0  0  0
  181.6400  179.4700  140.3420 N   0  0  0  0  0  0  0  0  0  0  0  0
  181.5370  179.0060  142.7490 C   0  0  0  0  0  2  0  0  0  0  0  0
  181.9980  180.3610  138.2130 O   0  0  0  0  0  0  0  0  0  0  0  0
  182.4410  179.6620  139.1660 C   0  0  0  0  0  0  0  0  0  0  0  0
  180.3300  180.0540  140.4170 C   0  0  0  0  0  3  0  0  0  0  0  0
  180.1430  179.2900  142.6490 O   0  0  0  0  0  0  0  0  0  0  0  0
  185.1800  176.5210  136.5030 C   0  0  0  0  0  0  0  0  0  0  0  0
  186.2800  176.0780  136.0730 O   0  0  0  0  0  0  0  0  0  0  0  0
  183.9150  176.0180  135.8860 C   0  0  0  0  0  2  0  0  0  0  0  0
  183.5810  174.6430  136.4330 C   0  0  0  0  0  1  0  0  0  0  0  0
  187.1900  177.8890  144.2360 C   0  0  1  0  0  3  0  0  0  0  0  0
  185.7340  177.8770  143.7660 C   0  0  0  0  0  2  0  0  0  0  0  0
  184.9440  179.0840  144.2540 C   0  0  0  0  0  2  0  0  0  0  0  0
  183.9710  178.6670  145.3400 C   0  0  0  0  0  2  0  0  0  0  0  0
  184.5070  178.9600  146.5950 O   0  0  0  0  0  1  0  0  0  0  0  0
  187.4310  177.0000  145.4560 C   0  0  0  0  0  2  0  0  0  0  0  0
  187.5610  177.8310  146.7220 C   0  0  0  0  0  2  0  0  0  0  0  0
  188.8870  177.6150  147.3630 C   0  0  0  0  0  0  0  0  0  0  0  0
  189.8080  176.7540  146.7800 O   0  0  0  0  0  0  0  0  0  0  0  0
  189.1870  178.2340  148.4170 O   0  0  0  0  0  1  0  0  0  0  0  0
  1  3  1  0  0  0  0
  3  8  2  0  0  0  0
  4 10  2  0  0  0  0
  5  2  1  1  0  0  0
  5  1  1  0  0  0  0
  6  9  1  0  0  0  0
  6  5  1  0  0  0  0
  7  1  2  0  0  0  0
  7  4  1  0  0  0  0
  9 11  1  6  0  0  0
  9  7  1  0  0  0  0
 10  8  1  0  0  0  0
 10 29  1  0  0  0  0
 12 11  3  0  0  0  0
 13 14  2  0  0  0  0
 13 12  1  0  0  0  0
 14 16  1  0  0  0  0
 16 15  1  6  0  0  0
 16 22  1  0  0  0  0
 17 20  1  0  0  0  0
 18 24  1  0  0  0  0
 19 23  1  0  0  0  0
 19 17  1  0  0  0  0
 21 22  2  0  0  0  0
 22 19  1  0  0  0  0
 23 18  2  0  0  0  0
 24 20  1  0  0  0  0
 25 13  1  0  0  0  0
 26 25  2  0  0  0  0
 27 28  1  0  0  0  0
 27 25  1  0  0  0  0
 29 30  1  6  0  0  0
 29 34  1  0  0  0  0
 30 31  1  0  0  0  0
 31 32  1  0  0  0  0
 32 33  1  0  0  0  0
 34 35  1  0  0  0  0
 35 36  1  0  0  0  0
 36 38  1  0  0  0  0
 37 36  2  0  0  0  0
M  END
>  <MODEL>
6

>  <REMARK>
 VINA RESULT:      -7.8      2.164      4.821
  Name = 
  13 active torsions:
  status: ('A' for Active; 'I' for Inactive)
    1  A    between atoms: C_2  and  C_8
    2  A    between atoms: C_2  and  C_20
    3  A    between atoms: C_5  and  C_12
    4  A    between atoms: C_6  and  C_16
    5  A    between atoms: C_8  and  C_14
    6  A    between atoms: C_12  and  C_21
    7  A    between atoms: C_16  and  C_38
    8  A    between atoms: C_17  and  C_27
    9  A    between atoms: C_19  and  C_33
   10  A    between atoms: C_21  and  C_24
   11  A    between atoms: C_24  and  C_34
   12  A    between atoms: C_24  and  C_38
   13  A    between atoms: C_27  and  C_32
                            x       y       z     vdW  Elec       q    Type
                         _______ _______ _______ _____ _____    ______ ____

>  <TORSDO>
F 13

$$$$
=
 OpenBabel11062414403D

 38 40  0  0  1  0  0  0  0  0999 V2000
  189.4260  176.9580  143.6380 C   0  0  0  0  0  0  0  0  0  0  0  0
  191.4570  176.8450  144.9080 N   0  0  0  0  0  1  0  0  0  0  0  0
  188.3450  176.7530  144.4960 C   0  0  0  0  0  3  0  0  0  0  0  0
  188.1260  178.3990  142.2170 C   0  0  0  0  0  3  0  0  0  0  0  0
  190.7770  176.3690  143.7130 C   0  0  2  0  0  3  0  0  0  0  0  0
  191.4930  176.8470  142.5180 N   0  0  0  0  0  2  0  0  0  0  0  0
  189.3200  177.7500  142.5380 C   0  0  0  0  0  0  0  0  0  0  0  0
  187.1310  177.3930  144.1990 C   0  0  0  0  0  3  0  0  0  0  0  0
  190.5880  177.7450  141.7800 C   0  0  2  0  0  3  0  0  0  0  0  0
  187.0180  178.2230  143.0600 C   0  0  0  0  0  0  0  0  0  0  0  0
  190.3540  177.2130  140.4330 C   0  0  0  0  0  0  0  0  0  0  0  0
  190.2150  176.7690  139.3230 C   0  0  0  0  0  0  0  0  0  0  0  0
  190.0990  176.2250  137.9900 C   0  0  0  0  0  0  0  0  0  0  0  0
  189.0880  176.5830  137.1830 C   0  0  0  0  0  3  0  0  0  0  0  0
  188.4800  178.7740  137.9560 O   0  0  0  0  0  1  0  0  0  0  0  0
  187.9780  177.5470  137.5200 C   0  0  1  0  0  3  0  0  0  0  0  0
  185.6600  175.7550  137.2270 C   0  0  0  0  0  2  0  0  0  0  0  0
  183.7230  176.4150  135.2620 C   0  0  0  0  0  3  0  0  0  0  0  0
  185.8070  176.9130  136.3400 N   0  0  0  0  0  0  0  0  0  0  0  0
  184.1840  175.4820  137.4950 C   0  0  0  0  0  2  0  0  0  0  0  0
  187.1500  178.6610  135.5670 O   0  0  0  0  0  0  0  0  0  0  0  0
  186.9810  177.7380  136.4120 C   0  0  0  0  0  0  0  0  0  0  0  0
  184.8470  177.1280  135.2940 C   0  0  0  0  0  3  0  0  0  0  0  0
  183.4510  175.4850  136.2720 O   0  0  0  0  0  0  0  0  0  0  0  0
  191.1140  175.2560  137.5200 C   0  0  0  0  0  0  0  0  0  0  0  0
  190.8840  174.0180  137.5930 O   0  0  0  0  0  0  0  0  0  0  0  0
  192.4090  175.7100  136.9290 C   0  0  0  0  0  2  0  0  0  0  0  0
  193.5110  175.6300  137.9680 C   0  0  0  0  0  1  0  0  0  0  0  0
  185.7160  178.8600  142.6800 C   0  0  1  0  0  3  0  0  0  0  0  0
  185.5200  178.9100  141.1630 C   0  0  0  0  0  2  0  0  0  0  0  0
  184.1700  178.3600  140.7220 C   0  0  0  0  0  2  0  0  0  0  0  0
  183.5950  179.2160  139.6110 C   0  0  0  0  0  2  0  0  0  0  0  0
  184.5550  180.1270  139.1690 O   0  0  0  0  0  1  0  0  0  0  0  0
  184.5220  178.2520  143.4170 C   0  0  0  0  0  2  0  0  0  0  0  0
  183.9580  179.2220  144.4400 C   0  0  0  0  0  2  0  0  0  0  0  0
  184.5940  179.0170  145.7710 C   0  0  0  0  0  0  0  0  0  0  0  0
  185.6920  179.7830  146.1410 O   0  0  0  0  0  0  0  0  0  0  0  0
  184.1210  178.1700  146.5740 O   0  0  0  0  0  1  0  0  0  0  0  0
  1  5  1  0  0  0  0
  1  3  1  0  0  0  0
  4  7  1  0  0  0  0
  4 10  2  0  0  0  0
  5  2  1  1  0  0  0
  6  5  1  0  0  0  0
  7  1  2  0  0  0  0
  8  3  2  0  0  0  0
  9 11  1  6  0  0  0
  9  6  1  0  0  0  0
  9  7  1  0  0  0  0
 10  8  1  0  0  0  0
 12 11  3  0  0  0  0
 13 12  1  0  0  0  0
 14 16  1  0  0  0  0
 14 13  2  0  0  0  0
 16 15  1  6  0  0  0
 17 20  1  0  0  0  0
 18 23  2  0  0  0  0
 18 24  1  0  0  0  0
 19 22  1  0  0  0  0
 19 17  1  0  0  0  0
 21 22  2  0  0  0  0
 22 16  1  0  0  0  0
 23 19  1  0  0  0  0
 24 20  1  0  0  0  0
 25 26  2  0  0  0  0
 25 13  1  0  0  0  0
 27 25  1  0  0  0  0
 27 28  1  0  0  0  0
 29 30  1  6  0  0  0
 29 10  1  0  0  0  0
 29 34  1  0  0  0  0
 31 30  1  0  0  0  0
 32 31  1  0  0  0  0
 33 32  1  0  0  0  0
 34 35  1  0  0  0  0
 35 36  1  0  0  0  0
 36 37  2  0  0  0  0
 36 38  1  0  0  0  0
M  END
>  <MODEL>
7

>  <REMARK>
 VINA RESULT:      -7.5      2.885      6.445
  Name = 
  13 active torsions:
  status: ('A' for Active; 'I' for Inactive)
    1  A    between atoms: C_2  and  C_8
    2  A    between atoms: C_2  and  C_20
    3  A    between atoms: C_5  and  C_12
    4  A    between atoms: C_6  and  C_16
    5  A    between atoms: C_8  and  C_14
    6  A    between atoms: C_12  and  C_21
    7  A    between atoms: C_16  and  C_38
    8  A    between atoms: C_17  and  C_27
    9  A    between atoms: C_19  and  C_33
   10  A    between atoms: C_21  and  C_24
   11  A    between atoms: C_24  and  C_34
   12  A    between atoms: C_24  and  C_38
   13  A    between atoms: C_27  and  C_32
                            x       y       z     vdW  Elec       q    Type
                         _______ _______ _______ _____ _____    ______ ____

>  <TORSDO>
F 13

$$$$
=
 OpenBabel11062414403D

 38 40  0  0  1  0  0  0  0  0999 V2000
  186.4270  178.4190  145.1760 C   0  0  0  0  0  0  0  0  0  0  0  0
  184.4580  178.6790  146.5210 N   0  0  0  0  0  1  0  0  0  0  0  0
  187.5510  178.6240  145.9760 C   0  0  0  0  0  3  0  0  0  0  0  0
  187.6080  176.8560  143.7790 C   0  0  0  0  0  3  0  0  0  0  0  0
  185.1030  179.0650  145.2760 C   0  0  2  0  0  3  0  0  0  0  0  0
  184.3180  178.5560  144.1380 N   0  0  0  0  0  2  0  0  0  0  0  0
  186.4540  177.5690  144.1150 C   0  0  0  0  0  0  0  0  0  0  0  0
  188.7260  177.9210  145.6630 C   0  0  0  0  0  3  0  0  0  0  0  0
  185.1550  177.5870  143.4120 C   0  0  2  0  0  3  0  0  0  0  0  0
  188.7570  177.0310  144.5660 C   0  0  0  0  0  0  0  0  0  0  0  0
  185.3500  178.0380  142.0300 C   0  0  0  0  0  0  0  0  0  0  0  0
  185.4950  178.3600  140.8790 C   0  0  0  0  0  0  0  0  0  0  0  0
  185.6500  178.7000  139.4840 C   0  0  0  0  0  0  0  0  0  0  0  0
  184.6480  179.2680  138.7960 C   0  0  0  0  0  3  0  0  0  0  0  0
  182.8350  180.8420  138.8350 O   0  0  0  0  0  1  0  0  0  0  0  0
  183.2840  179.6200  139.3350 C   0  0  1  0  0  3  0  0  0  0  0  0
  181.6430  178.6360  141.5730 C   0  0  0  0  0  2  0  0  0  0  0  0
  179.5550  176.8100  140.9750 C   0  0  0  0  0  3  0  0  0  0  0  0
  181.3990  178.1440  140.2140 N   0  0  0  0  0  0  0  0  0  0  0  0
  180.3340  178.6980  142.3540 C   0  0  0  0  0  2  0  0  0  0  0  0
  182.1060  178.0250  137.9910 O   0  0  0  0  0  0  0  0  0  0  0  0
  182.2540  178.5440  139.1320 C   0  0  0  0  0  0  0  0  0  0  0  0
  180.3970  177.1370  139.9970 C   0  0  0  0  0  3  0  0  0  0  0  0
  179.6110  177.4780  142.2040 O   0  0  0  0  0  0  0  0  0  0  0  0
  186.9350  178.4050  138.8130 C   0  0  0  0  0  0  0  0  0  0  0  0
  187.9090  177.9630  139.4810 O   0  0  0  0  0  0  0  0  0  0  0  0
  187.1060  178.5950  137.3400 C   0  0  0  0  0  2  0  0  0  0  0  0
  188.5810  178.6620  136.9920 C   0  0  0  0  0  1  0  0  0  0  0  0
  190.0160  176.3230  144.1660 C   0  0  1  0  0  3  0  0  0  0  0  0
  190.1150  176.1350  142.6500 C   0  0  0  0  0  2  0  0  0  0  0  0
  190.4770  177.4200  141.9170 C   0  0  0  0  0  2  0  0  0  0  0  0
  191.1900  177.0980  140.6180 C   0  0  0  0  0  2  0  0  0  0  0  0
  190.5680  176.0180  139.9910 O   0  0  0  0  0  1  0  0  0  0  0  0
  191.2680  176.9550  144.7720 C   0  0  0  0  0  2  0  0  0  0  0  0
  192.0570  175.9410  145.5820 C   0  0  0  0  0  2  0  0  0  0  0  0
  191.7400  176.0590  147.0330 C   0  0  0  0  0  0  0  0  0  0  0  0
  191.1930  174.9790  147.7140 O   0  0  0  0  0  1  0  0  0  0  0  0
  191.9920  177.1270  147.6490 O   0  0  0  0  0  0  0  0  0  0  0  0
  1  5  1  0  0  0  0
  1  3  1  0  0  0  0
  4  7  1  0  0  0  0
  4 10  2  0  0  0  0
  5  2  1  1  0  0  0
  6  5  1  0  0  0  0
  7  1  2  0  0  0  0
  8  3  2  0  0  0  0
  9 11  1  6  0  0  0
  9  7  1  0  0  0  0
  9  6  1  0  0  0  0
 10  8  1  0  0  0  0
 12 11  3  0  0  0  0
 13 12  1  0  0  0  0
 14 16  1  0  0  0  0
 14 13  2  0  0  0  0
 16 15  1  6  0  0  0
 17 20  1  0  0  0  0
 18 24  1  0  0  0  0
 19 17  1  0  0  0  0
 21 22  2  0  0  0  0
 22 16  1  0  0  0  0
 22 19  1  0  0  0  0
 23 19  1  0  0  0  0
 23 18  2  0  0  0  0
 24 20  1  0  0  0  0
 25 26  2  0  0  0  0
 25 13  1  0  0  0  0
 27 25  1  0  0  0  0
 28 27  1  0  0  0  0
 29 30  1  6  0  0  0
 29 10  1  0  0  0  0
 29 34  1  0  0  0  0
 31 30  1  0  0  0  0
 32 31  1  0  0  0  0
 33 32  1  0  0  0  0
 34 35  1  0  0  0  0
 35 36  1  0  0  0  0
 36 38  2  0  0  0  0
 36 37  1  0  0  0  0
M  END
>  <MODEL>
8

>  <REMARK>
 VINA RESULT:      -7.4      2.634      4.912
  Name = 
  13 active torsions:
  status: ('A' for Active; 'I' for Inactive)
    1  A    between atoms: C_2  and  C_8
    2  A    between atoms: C_2  and  C_20
    3  A    between atoms: C_5  and  C_12
    4  A    between atoms: C_6  and  C_16
    5  A    between atoms: C_8  and  C_14
    6  A    between atoms: C_12  and  C_21
    7  A    between atoms: C_16  and  C_38
    8  A    between atoms: C_17  and  C_27
    9  A    between atoms: C_19  and  C_33
   10  A    between atoms: C_21  and  C_24
   11  A    between atoms: C_24  and  C_34
   12  A    between atoms: C_24  and  C_38
   13  A    between atoms: C_27  and  C_32
                            x       y       z     vdW  Elec       q    Type
                         _______ _______ _______ _____ _____    ______ ____

>  <TORSDO>
F 13

$$$$
=
 OpenBabel11062414403D

 38 40  0  0  1  0  0  0  0  0999 V2000
  190.8280  177.4190  143.7450 C   0  0  0  0  0  0  0  0  0  0  0  0
  191.9340  176.6300  145.7210 N   0  0  0  0  0  1  0  0  0  0  0  0
  191.7890  177.8450  142.8280 C   0  0  0  0  0  3  0  0  0  0  0  0
  189.3310  176.7510  141.9840 C   0  0  0  0  0  3  0  0  0  0  0  0
  190.8750  177.4900  145.2190 C   0  0  2  0  0  3  0  0  0  0  0  0
  189.5710  176.9890  145.6890 N   0  0  0  0  0  2  0  0  0  0  0  0
  189.6410  176.8940  143.3390 C   0  0  0  0  0  0  0  0  0  0  0  0
  191.5050  177.7140  141.4590 C   0  0  0  0  0  3  0  0  0  0  0  0
  188.7930  176.5820  144.5070 C   0  0  2  0  0  3  0  0  0  0  0  0
  190.2760  177.1620  141.0310 C   0  0  0  0  0  0  0  0  0  0  0  0
  187.5540  177.3650  144.4370 C   0  0  0  0  0  0  0  0  0  0  0  0
  186.5100  177.9610  144.3750 C   0  0  0  0  0  0  0  0  0  0  0  0
  185.2320  178.6310  144.2980 C   0  0  0  0  0  0  0  0  0  0  0  0
  184.7800  179.1230  143.1340 C   0  0  0  0  0  3  0  0  0  0  0  0
  186.2110  177.8770  141.6620 O   0  0  0  0  0  1  0  0  0  0  0  0
  185.4900  179.0630  141.8050 C   0  0  1  0  0  3  0  0  0  0  0  0
  182.6060  178.4830  141.9500 C   0  0  0  0  0  2  0  0  0  0  0  0
  180.9980  179.2280  139.7340 C   0  0  0  0  0  3  0  0  0  0  0  0
  183.1710  179.0910  140.7420 N   0  0  0  0  0  0  0  0  0  0  0  0
  181.1860  178.9910  142.1800 C   0  0  0  0  0  2  0  0  0  0  0  0
  185.0740  179.7060  139.5350 O   0  0  0  0  0  0  0  0  0  0  0  0
  184.5890  179.2900  140.6230 C   0  0  0  0  0  0  0  0  0  0  0  0
  182.3190  179.3430  139.6130 C   0  0  0  0  0  3  0  0  0  0  0  0
  180.4310  178.9070  140.9730 O   0  0  0  0  0  0  0  0  0  0  0  0
  184.4230  178.7740  145.5270 C   0  0  0  0  0  0  0  0  0  0  0  0
  183.2710  179.2840  145.4680 O   0  0  0  0  0  0  0  0  0  0  0  0
  184.9280  178.2990  146.8520 C   0  0  0  0  0  2  0  0  0  0  0  0
  186.0460  179.2020  147.3360 C   0  0  0  0  0  1  0  0  0  0  0  0
  189.9180  177.0770  139.5790 C   0  0  1  0  0  3  0  0  0  0  0  0
  188.8960  178.1420  139.1740 C   0  0  0  0  0  2  0  0  0  0  0  0
  187.9410  177.6650  138.0880 C   0  0  0  0  0  2  0  0  0  0  0  0
  187.9610  178.6250  136.9160 C   0  0  0  0  0  2  0  0  0  0  0  0
  188.7520  179.7330  137.2230 O   0  0  0  0  0  1  0  0  0  0  0  0
  191.1450  177.0500  138.6680 C   0  0  0  0  0  2  0  0  0  0  0  0
  191.5530  175.6240  138.3410 C   0  0  0  0  0  2  0  0  0  0  0  0
  190.5890  175.0020  137.3900 C   0  0  0  0  0  0  0  0  0  0  0  0
  190.1790  175.7010  136.2620 O   0  0  0  0  0  0  0  0  0  0  0  0
  190.1680  173.8330  137.5920 O   0  0  0  0  0  1  0  0  0  0  0  0
  1  5  1  0  0  0  0
  3  1  2  0  0  0  0
  4  7  2  0  0  0  0
  5  6  1  0  0  0  0
  5  2  1  1  0  0  0
  7  1  1  0  0  0  0
  7  9  1  0  0  0  0
  8  3  1  0  0  0  0
  9 11  1  6  0  0  0
  9  6  1  0  0  0  0
 10  8  2  0  0  0  0
 10  4  1  0  0  0  0
 12 11  3  0  0  0  0
 13 12  1  0  0  0  0
 13 25  1  0  0  0  0
 14 13  2  0  0  0  0
 16 15  1  6  0  0  0
 16 14  1  0  0  0  0
 17 20  1  0  0  0  0
 18 24  1  0  0  0  0
 19 17  1  0  0  0  0
 21 22  2  0  0  0  0
 22 19  1  0  0  0  0
 22 16  1  0  0  0  0
 23 18  2  0  0  0  0
 23 19  1  0  0  0  0
 24 20  1  0  0  0  0
 25 27  1  0  0  0  0
 26 25  2  0  0  0  0
 27 28  1  0  0  0  0
 29 34  1  6  0  0  0
 29 10  1  0  0  0  0
 30 29  1  0  0  0  0
 31 30  1  0  0  0  0
 32 33  1  0  0  0  0
 32 31  1  0  0  0  0
 35 34  1  0  0  0  0
 36 38  1  0  0  0  0
 36 35  1  0  0  0  0
 37 36  2  0  0  0  0
M  END
>  <MODEL>
9

>  <REMARK>
 VINA RESULT:      -7.4      3.256      6.102
  Name = 
  13 active torsions:
  status: ('A' for Active; 'I' for Inactive)
    1  A    between atoms: C_2  and  C_8
    2  A    between atoms: C_2  and  C_20
    3  A    between atoms: C_5  and  C_12
    4  A    between atoms: C_6  and  C_16
    5  A    between atoms: C_8  and  C_14
    6  A    between atoms: C_12  and  C_21
    7  A    between atoms: C_16  and  C_38
    8  A    between atoms: C_17  and  C_27
    9  A    between atoms: C_19  and  C_33
   10  A    between atoms: C_21  and  C_24
   11  A    between atoms: C_24  and  C_34
   12  A    between atoms: C_24  and  C_38
   13  A    between atoms: C_27  and  C_32
                            x       y       z     vdW  Elec       q    Type
                         _______ _______ _______ _____ _____    ______ ____

>  <TORSDO>
F 13

$$$$
