=
 OpenBabel11062416513D

 34 38  0  0  1  0  0  0  0  0999 V2000
  184.9880  178.1620  138.5200 C   0  0  0  0  0  0  0  0  0  0  0  0
  188.5500  172.7590  136.0650 N   0  0  0  0  0  0  0  0  0  0  0  0
  186.3940  177.1230  136.4970 C   0  0  2  0  0  3  0  0  0  0  0  0
  189.6760  173.3030  136.4230 C   0  0  0  0  0  3  0  0  0  0  0  0
  181.9750  174.1520  136.9930 C   0  0  1  0  0  0  0  0  0  0  0  0
  182.9600  173.1890  137.2280 O   0  0  0  0  0  1  0  0  0  0  0  0
  183.7630  175.8430  135.6340 C   0  0  0  0  0  2  0  0  0  0  0  0
  182.7660  176.6530  139.4780 C   0  0  0  0  0  0  0  0  0  0  0  0
  185.0740  173.7930  135.2510 C   0  0  0  0  0  3  0  0  0  0  0  0
  181.4680  176.7850  139.3080 C   0  0  0  0  0  0  0  0  0  0  0  0
  184.1570  178.7580  139.5790 C   0  0  2  0  0  3  0  0  0  0  0  0
  182.0350  175.2210  138.0510 C   0  0  0  0  0  0  0  0  0  0  0  0
  189.7010  174.5990  137.1200 C   0  0  0  0  0  3  0  0  0  0  0  0
  181.0070  177.8810  140.1110 C   0  0  0  0  0  0  0  0  0  0  0  0
  186.2070  171.6450  134.8280 C   0  0  0  0  0  1  0  0  0  0  0  0
  186.2430  172.9840  135.3930 N   0  0  0  0  0  0  0  0  0  0  0  0
  187.3190  174.8260  136.6460 C   0  0  0  0  0  0  0  0  0  0  0  0
  182.0200  178.4230  140.7280 N   0  0  0  0  0  0  0  0  0  0  0  0
  187.2390  173.3260  136.4100 C   0  0  2  0  0  3  0  0  0  0  0  0
  184.9980  179.4880  140.5110 N   0  0  0  0  0  1  0  0  0  0  0  0
  186.0520  177.7650  135.3070 O   0  0  0  0  0  1  0  0  0  0  0  0
  183.2220  175.6310  138.6830 C   0  0  0  0  0  3  0  0  0  0  0  0
  186.2580  175.6230  136.3660 C   0  0  0  0  0  0  0  0  0  0  0  0
  188.6600  176.5180  137.8800 F   0  0  0  0  0  0  0  0  0  0  0  0
  182.2230  174.8800  135.3240 S   0  0  0  0  0  0  0  0  0  0  0  0
  185.0230  175.0250  135.7650 C   0  0  0  0  0  0  0  0  0  0  0  0
  188.5920  175.3310  137.2280 C   0  0  0  0  0  0  0  0  0  0  0  0
  180.9870  175.9370  138.4450 O   0  0  0  0  0  0  0  0  0  0  0  0
  179.6010  178.3380  140.2620 C   0  0  0  0  0  1  0  0  0  0  0  0
  185.6260  177.6770  137.6170 C   0  0  0  0  0  0  0  0  0  0  0  0
  183.2840  177.7500  140.3480 C   0  0  1  0  0  3  0  0  0  0  0  0
  180.6050  173.4700  136.9940 C   0  0  0  0  0  2  0  0  0  0  0  0
  180.6550  172.0830  137.5540 C   0  0  0  0  0  3  0  0  0  0  0  0
  179.8550  171.2440  137.1770 O   0  0  0  0  0  0  0  0  0  0  0  0
  1 11  1  0  0  0  0
  2  4  2  0  0  0  0
  3 21  1  6  0  0  0
  3 30  1  0  0  0  0
  4 13  1  0  0  0  0
  5 32  1  0  0  0  0
  5  6  1  1  0  0  0
  5 12  1  0  0  0  0
  7 26  1  0  0  0  0
  9 16  1  0  0  0  0
  9 26  2  0  0  0  0
 10  8  2  0  0  0  0
 10 14  1  0  0  0  0
 11 31  1  0  0  0  0
 11 20  1  1  0  0  0
 12 28  1  0  0  0  0
 12 22  2  0  0  0  0
 13 27  2  0  0  0  0
 14 29  1  0  0  0  0
 14 18  2  0  0  0  0
 15 16  1  0  0  0  0
 16 19  1  0  0  0  0
 17 27  1  0  0  0  0
 19  2  1  6  0  0  0
 19 17  1  0  0  0  0
 22  8  1  0  0  0  0
 23  3  1  0  0  0  0
 23 17  2  0  0  0  0
 25  7  1  0  0  0  0
 25  5  1  0  0  0  0
 26 23  1  0  0  0  0
 27 24  1  0  0  0  0
 28 10  1  0  0  0  0
 30  1  3  0  0  0  0
 31  8  1  6  0  0  0
 31 18  1  0  0  0  0
 32 33  1  0  0  0  0
 34 33  2  0  0  0  0
M  END
>  <MODEL>
1

>  <REMARK>
 VINA RESULT:      -6.2      0.000      0.000
  Name = 
  2 active torsions:
  status: ('A' for Active; 'I' for Inactive)
    1  A    between atoms: C_3  and  C_6
    2  A    between atoms: C_3  and  C_10
                            x       y       z     vdW  Elec       q    Type
                         _______ _______ _______ _____ _____    ______ ____

>  <TORSDO>
F 2

$$$$
=
 OpenBabel11062416513D

 34 38  0  0  1  0  0  0  0  0999 V2000
  182.7690  178.6890  143.1350 C   0  0  0  0  0  0  0  0  0  0  0  0
  179.8320  181.8560  137.7290 N   0  0  0  0  0  0  0  0  0  0  0  0
  180.8440  178.6570  141.2810 C   0  0  2  0  0  3  0  0  0  0  0  0
  178.9300  182.3930  138.4970 C   0  0  0  0  0  3  0  0  0  0  0  0
  185.5010  178.2520  138.6810 C   0  0  1  0  0  0  0  0  0  0  0  0
  185.0080  179.4440  138.1430 O   0  0  0  0  0  1  0  0  0  0  0  0
  182.9410  177.3900  139.4620 C   0  0  0  0  0  2  0  0  0  0  0  0
  185.4590  178.9590  142.2240 C   0  0  0  0  0  0  0  0  0  0  0  0
  182.1260  178.9320  137.7220 C   0  0  0  0  0  3  0  0  0  0  0  0
  186.4390  178.0920  142.0930 C   0  0  0  0  0  0  0  0  0  0  0  0
  183.8460  178.6270  144.1390 C   0  0  2  0  0  3  0  0  0  0  0  0
  185.7150  178.4050  140.1630 C   0  0  0  0  0  0  0  0  0  0  0  0
  178.9460  182.1680  139.9510 C   0  0  0  0  0  3  0  0  0  0  0  0
  186.9620  177.7880  143.3940 C   0  0  0  0  0  0  0  0  0  0  0  0
  181.4650  180.4060  135.8600 C   0  0  0  0  0  1  0  0  0  0  0  0
  181.3980  180.0770  137.2740 N   0  0  0  0  0  0  0  0  0  0  0  0
  180.6710  180.4780  139.6050 C   0  0  0  0  0  0  0  0  0  0  0  0
  186.2830  178.4370  144.2980 N   0  0  0  0  0  0  0  0  0  0  0  0
  180.9720  181.0870  138.2440 C   0  0  2  0  0  3  0  0  0  0  0  0
  183.4190  179.2910  145.3570 N   0  0  0  0  0  1  0  0  0  0  0  0
  180.4060  177.3480  141.0790 O   0  0  0  0  0  1  0  0  0  0  0  0
  184.9250  179.2260  140.9880 C   0  0  0  0  0  3  0  0  0  0  0  0
  181.2440  179.3060  139.9750 C   0  0  0  0  0  0  0  0  0  0  0  0
  179.7460  181.0870  141.8310 F   0  0  0  0  0  0  0  0  0  0  0  0
  184.3120  176.8930  138.3370 S   0  0  0  0  0  0  0  0  0  0  0  0
  182.1320  178.5810  139.0110 C   0  0  0  0  0  0  0  0  0  0  0  0
  179.7630  181.2600  140.4870 C   0  0  0  0  0  0  0  0  0  0  0  0
  186.6230  177.7260  140.8570 O   0  0  0  0  0  0  0  0  0  0  0  0
  188.1150  176.9000  143.6990 C   0  0  0  0  0  1  0  0  0  0  0  0
  181.9060  178.6920  142.2920 C   0  0  0  0  0  0  0  0  0  0  0  0
  185.1890  179.2150  143.6700 C   0  0  1  0  0  3  0  0  0  0  0  0
  186.8140  177.8970  137.9810 C   0  0  0  0  0  2  0  0  0  0  0  0
  187.1450  178.8430  136.8690 C   0  0  0  0  0  3  0  0  0  0  0  0
  188.1780  179.4900  136.9070 O   0  0  0  0  0  0  0  0  0  0  0  0
  1 11  1  0  0  0  0
  2  4  2  0  0  0  0
  3 21  1  6  0  0  0
  3 30  1  0  0  0  0
  4 13  1  0  0  0  0
  5  6  1  6  0  0  0
  5 12  1  0  0  0  0
  9 26  2  0  0  0  0
 10  8  2  0  0  0  0
 10 14  1  0  0  0  0
 11 20  1  1  0  0  0
 12 28  1  0  0  0  0
 12 22  2  0  0  0  0
 13 27  2  0  0  0  0
 14 29  1  0  0  0  0
 14 18  2  0  0  0  0
 15 16  1  0  0  0  0
 16  9  1  0  0  0  0
 16 19  1  0  0  0  0
 17 23  2  0  0  0  0
 17 27  1  0  0  0  0
 19  2  1  6  0  0  0
 19 17  1  0  0  0  0
 22  8  1  0  0  0  0
 23  3  1  0  0  0  0
 25  5  1  0  0  0  0
 25  7  1  0  0  0  0
 26  7  1  0  0  0  0
 26 23  1  0  0  0  0
 27 24  1  0  0  0  0
 28 10  1  0  0  0  0
 30  1  3  0  0  0  0
 31  8  1  6  0  0  0
 31 11  1  0  0  0  0
 31 18  1  0  0  0  0
 32  5  1  0  0  0  0
 33 34  2  0  0  0  0
 33 32  1  0  0  0  0
M  END
>  <MODEL>
2

>  <REMARK>
 VINA RESULT:      -6.1      4.798      8.093
  Name = 
  2 active torsions:
  status: ('A' for Active; 'I' for Inactive)
    1  A    between atoms: C_3  and  C_6
    2  A    between atoms: C_3  and  C_10
                            x       y       z     vdW  Elec       q    Type
                         _______ _______ _______ _____ _____    ______ ____

>  <TORSDO>
F 2

$$$$
=
 OpenBabel11062416513D

 34 38  0  0  1  0  0  0  0  0999 V2000
  184.6470  177.0100  137.8750 C   0  0  0  0  0  0  0  0  0  0  0  0
  191.0600  176.9960  140.4750 N   0  0  0  0  0  0  0  0  0  0  0  0
  187.0070  178.2520  138.0520 C   0  0  2  0  0  3  0  0  0  0  0  0
  190.6980  177.7820  141.4460 C   0  0  0  0  0  3  0  0  0  0  0  0
  187.8820  173.6230  135.5190 C   0  0  1  0  0  0  0  0  0  0  0  0
  188.6940  173.4580  136.6450 O   0  0  0  0  0  1  0  0  0  0  0  0
  187.8760  176.4230  135.7690 C   0  0  0  0  0  2  0  0  0  0  0  0
  184.6600  174.2910  137.0120 C   0  0  0  0  0  0  0  0  0  0  0  0
  189.9620  176.1000  137.0390 C   0  0  0  0  0  3  0  0  0  0  0  0
  184.3580  173.7270  135.8620 C   0  0  0  0  0  0  0  0  0  0  0  0
  183.3480  176.3370  137.6960 C   0  0  2  0  0  3  0  0  0  0  0  0
  186.4420  173.7530  135.9360 C   0  0  0  0  0  0  0  0  0  0  0  0
  189.3020  178.2270  141.5770 C   0  0  0  0  0  3  0  0  0  0  0  0
  182.9310  173.7150  135.7160 C   0  0  0  0  0  0  0  0  0  0  0  0
  192.1040  175.6350  138.1680 C   0  0  0  0  0  1  0  0  0  0  0  0
  190.7590  176.1850  138.2220 N   0  0  0  0  0  0  0  0  0  0  0  0
  188.8590  177.2690  139.3770 C   0  0  0  0  0  0  0  0  0  0  0  0
  182.3840  174.2950  136.7480 N   0  0  0  0  0  0  0  0  0  0  0  0
  190.1110  176.4180  139.5140 C   0  0  2  0  0  3  0  0  0  0  0  0
  182.4260  176.7690  138.7310 N   0  0  0  0  0  1  0  0  0  0  0  0
  187.1780  179.0970  136.9550 O   0  0  0  0  0  1  0  0  0  0  0  0
  186.0260  174.3430  137.1420 C   0  0  0  0  0  3  0  0  0  0  0  0
  188.1820  177.3120  138.2040 C   0  0  0  0  0  0  0  0  0  0  0  0
  187.1460  178.4210  140.7650 F   0  0  0  0  0  0  0  0  0  0  0  0
  188.4240  175.1150  134.5940 S   0  0  0  0  0  0  0  0  0  0  0  0
  188.7080  176.5600  137.0190 C   0  0  0  0  0  0  0  0  0  0  0  0
  188.4230  177.9940  140.6020 C   0  0  0  0  0  0  0  0  0  0  0  0
  185.4130  173.3900  135.1770 O   0  0  0  0  0  0  0  0  0  0  0  0
  182.1610  173.1170  134.5940 C   0  0  0  0  0  1  0  0  0  0  0  0
  185.7180  177.5570  137.9670 C   0  0  0  0  0  0  0  0  0  0  0  0
  183.4240  174.8000  137.6750 C   0  0  1  0  0  3  0  0  0  0  0  0
  188.0690  172.4190  134.5940 C   0  0  0  0  0  2  0  0  0  0  0  0
  188.1370  171.1240  135.3420 C   0  0  0  0  0  3  0  0  0  0  0  0
  187.1880  170.3590  135.3240 O   0  0  0  0  0  0  0  0  0  0  0  0
  1 30  3  0  0  0  0
  2  4  2  0  0  0  0
  3 21  1  6  0  0  0
  3 23  1  0  0  0  0
  4 13  1  0  0  0  0
  5 12  1  0  0  0  0
  5  6  1  1  0  0  0
  7 26  1  0  0  0  0
  8 22  1  0  0  0  0
  8 31  1  0  0  0  0
  9 16  1  0  0  0  0
 10  8  2  0  0  0  0
 11  1  1  0  0  0  0
 11 20  1  1  0  0  0
 12 22  2  0  0  0  0
 14 10  1  0  0  0  0
 14 18  2  0  0  0  0
 15 16  1  0  0  0  0
 16 19  1  0  0  0  0
 17 27  1  0  0  0  0
 19 17  1  6  0  0  0
 19  2  1  0  0  0  0
 23 17  2  0  0  0  0
 25  5  1  0  0  0  0
 25  7  1  0  0  0  0
 26  9  2  0  0  0  0
 26 23  1  0  0  0  0
 27 24  1  0  0  0  0
 27 13  2  0  0  0  0
 28 10  1  0  0  0  0
 28 12  1  0  0  0  0
 29 14  1  0  0  0  0
 30  3  1  0  0  0  0
 31 18  1  6  0  0  0
 31 11  1  0  0  0  0
 32 33  1  0  0  0  0
 32  5  1  0  0  0  0
 34 33  2  0  0  0  0
M  END
>  <MODEL>
3

>  <REMARK>
 VINA RESULT:      -6.1      3.245      5.376
  Name = 
  2 active torsions:
  status: ('A' for Active; 'I' for Inactive)
    1  A    between atoms: C_3  and  C_6
    2  A    between atoms: C_3  and  C_10
                            x       y       z     vdW  Elec       q    Type
                         _______ _______ _______ _____ _____    ______ ____

>  <TORSDO>
F 2

$$$$
=
 OpenBabel11062416513D

 34 38  0  0  1  0  0  0  0  0999 V2000
  184.4700  178.1310  138.4530 C   0  0  0  0  0  0  0  0  0  0  0  0
  190.8760  175.5160  138.3150 N   0  0  0  0  0  0  0  0  0  0  0  0
  186.9190  178.2280  137.3860 C   0  0  2  0  0  3  0  0  0  0  0  0
  191.3040  176.4520  139.1100 C   0  0  0  0  0  3  0  0  0  0  0  0
  184.8190  173.5050  136.0100 C   0  0  1  0  0  0  0  0  0  0  0  0
  185.9350  173.0880  136.7410 O   0  0  0  0  0  1  0  0  0  0  0  0
  185.9320  176.0380  135.5050 C   0  0  0  0  0  2  0  0  0  0  0  0
  183.1140  175.6230  138.3890 C   0  0  0  0  0  0  0  0  0  0  0  0
  188.0940  174.9340  135.9200 C   0  0  0  0  0  3  0  0  0  0  0  0
  182.1420  175.1620  137.6310 C   0  0  0  0  0  0  0  0  0  0  0  0
  183.0890  178.0810  138.9640 C   0  0  2  0  0  3  0  0  0  0  0  0
  183.8830  174.2820  136.8950 C   0  0  0  0  0  0  0  0  0  0  0  0
  190.3860  177.4700  139.6440 C   0  0  0  0  0  3  0  0  0  0  0  0
  180.9070  175.7630  138.0500 C   0  0  0  0  0  0  0  0  0  0  0  0
  190.1880  173.6670  136.2250 C   0  0  0  0  0  1  0  0  0  0  0  0
  189.3130  174.7510  136.6430 N   0  0  0  0  0  0  0  0  0  0  0  0
  188.6800  176.6380  138.1110 C   0  0  0  0  0  0  0  0  0  0  0  0
  181.1400  176.6000  139.0220 N   0  0  0  0  0  0  0  0  0  0  0  0
  189.4580  175.3390  137.9760 C   0  0  2  0  0  3  0  0  0  0  0  0
  182.9630  178.9490  140.1220 N   0  0  0  0  0  1  0  0  0  0  0  0
  186.8610  178.8290  136.1280 O   0  0  0  0  0  1  0  0  0  0  0  0
  184.3050  175.0830  137.9700 C   0  0  0  0  0  3  0  0  0  0  0  0
  187.6090  176.8850  137.3170 C   0  0  0  0  0  0  0  0  0  0  0  0
  188.3290  178.5230  139.6960 F   0  0  0  0  0  0  0  0  0  0  0  0
  185.3740  174.5370  134.5940 S   0  0  0  0  0  0  0  0  0  0  0  0
  187.2290  175.8920  136.2610 C   0  0  0  0  0  0  0  0  0  0  0  0
  189.1420  177.5710  139.1750 C   0  0  0  0  0  0  0  0  0  0  0  0
  182.5680  174.3490  136.7090 O   0  0  0  0  0  0  0  0  0  0  0  0
  179.5550  175.4780  137.5030 C   0  0  0  0  0  1  0  0  0  0  0  0
  185.5810  178.1610  137.9830 C   0  0  0  0  0  0  0  0  0  0  0  0
  182.5910  176.6690  139.3170 C   0  0  1  0  0  3  0  0  0  0  0  0
  184.1190  172.2750  135.4300 C   0  0  0  0  0  2  0  0  0  0  0  0
  183.9950  171.1630  136.4250 C   0  0  0  0  0  3  0  0  0  0  0  0
  182.8930  170.8060  136.8070 O   0  0  0  0  0  0  0  0  0  0  0  0
  1 11  1  0  0  0  0
  2  4  2  0  0  0  0
  3 21  1  6  0  0  0
  3 30  1  0  0  0  0
  4 13  1  0  0  0  0
  5  6  1  1  0  0  0
  5 12  1  0  0  0  0
  7 26  1  0  0  0  0
  9 26  2  0  0  0  0
  9 16  1  0  0  0  0
 10 14  1  0  0  0  0
 10  8  2  0  0  0  0
 11 31  1  0  0  0  0
 11 20  1  1  0  0  0
 12 22  2  0  0  0  0
 14 18  2  0  0  0  0
 15 16  1  0  0  0  0
 16 19  1  0  0  0  0
 17 27  1  0  0  0  0
 18 31  1  0  0  0  0
 19 17  1  6  0  0  0
 19  2  1  0  0  0  0
 22  8  1  0  0  0  0
 23  3  1  0  0  0  0
 23 17  2  0  0  0  0
 25  7  1  0  0  0  0
 25  5  1  0  0  0  0
 26 23  1  0  0  0  0
 27 13  2  0  0  0  0
 27 24  1  0  0  0  0
 28 12  1  0  0  0  0
 28 10  1  0  0  0  0
 29 14  1  0  0  0  0
 30  1  3  0  0  0  0
 31  8  1  6  0  0  0
 32  5  1  0  0  0  0
 32 33  1  0  0  0  0
 33 34  2  0  0  0  0
M  END
>  <MODEL>
4

>  <REMARK>
 VINA RESULT:      -5.9      2.027      2.912
  Name = 
  2 active torsions:
  status: ('A' for Active; 'I' for Inactive)
    1  A    between atoms: C_3  and  C_6
    2  A    between atoms: C_3  and  C_10
                            x       y       z     vdW  Elec       q    Type
                         _______ _______ _______ _____ _____    ______ ____

>  <TORSDO>
F 2

$$$$
=
 OpenBabel11062416513D

 34 38  0  0  1  0  0  0  0  0999 V2000
  182.9950  177.2950  139.4640 C   0  0  0  0  0  0  0  0  0  0  0  0
  189.1610  177.6990  142.5810 N   0  0  0  0  0  0  0  0  0  0  0  0
  184.9350  178.8650  140.4230 C   0  0  2  0  0  3  0  0  0  0  0  0
  188.5950  177.8780  143.7380 C   0  0  0  0  0  3  0  0  0  0  0  0
  187.0350  176.1350  136.3300 C   0  0  1  0  0  0  0  0  0  0  0  0
  187.8540  175.7010  137.3760 O   0  0  0  0  0  1  0  0  0  0  0  0
  186.2770  178.4640  137.7120 C   0  0  0  0  0  2  0  0  0  0  0  0
  183.7420  175.3040  137.5640 C   0  0  0  0  0  0  0  0  0  0  0  0
  188.3640  178.1350  138.9770 C   0  0  0  0  0  3  0  0  0  0  0  0
  183.6100  175.2350  136.2560 C   0  0  0  0  0  0  0  0  0  0  0  0
  181.9250  176.4760  138.8680 C   0  0  2  0  0  3  0  0  0  0  0  0
  185.6100  175.7250  136.5860 C   0  0  0  0  0  0  0  0  0  0  0  0
  187.1300  177.8750  143.8720 C   0  0  0  0  0  3  0  0  0  0  0  0
  182.2390  174.9460  135.9470 C   0  0  0  0  0  0  0  0  0  0  0  0
  190.5450  177.7570  140.0630 C   0  0  0  0  0  1  0  0  0  0  0  0
  189.1020  177.8910  140.1760 N   0  0  0  0  0  0  0  0  0  0  0  0
  186.9740  177.8810  141.4370 C   0  0  0  0  0  0  0  0  0  0  0  0
  181.5500  174.8760  137.0520 N   0  0  0  0  0  0  0  0  0  0  0  0
  188.4080  177.3820  141.3600 C   0  0  2  0  0  3  0  0  0  0  0  0
  180.9140  176.1850  139.8680 N   0  0  0  0  0  1  0  0  0  0  0  0
  184.8800  180.1130  139.8020 O   0  0  0  0  0  1  0  0  0  0  0  0
  185.0430  175.6200  137.8680 C   0  0  0  0  0  3  0  0  0  0  0  0
  186.3170  178.2620  140.3140 C   0  0  0  0  0  0  0  0  0  0  0  0
  185.0060  177.8770  142.9580 F   0  0  0  0  0  0  0  0  0  0  0  0
  187.1630  177.9620  136.1770 S   0  0  0  0  0  0  0  0  0  0  0  0
  187.0330  178.2440  138.9980 C   0  0  0  0  0  0  0  0  0  0  0  0
  186.3520  177.8810  142.7890 C   0  0  0  0  0  0  0  0  0  0  0  0
  184.7200  175.4900  135.6260 O   0  0  0  0  0  0  0  0  0  0  0  0
  181.6650  174.7250  134.5940 C   0  0  0  0  0  1  0  0  0  0  0  0
  183.8800  177.9880  139.9030 C   0  0  0  0  0  0  0  0  0  0  0  0
  182.4110  175.1650  138.2240 C   0  0  1  0  0  3  0  0  0  0  0  0
  187.5430  175.5310  135.0200 C   0  0  0  0  0  2  0  0  0  0  0  0
  188.1170  174.1610  135.2040 C   0  0  0  0  0  3  0  0  0  0  0  0
  187.3910  173.1830  135.1440 O   0  0  0  0  0  0  0  0  0  0  0  0
  1 30  3  0  0  0  0
  2  4  2  0  0  0  0
  3 21  1  6  0  0  0
  4 13  1  0  0  0  0
  5 12  1  0  0  0  0
  5  6  1  1  0  0  0
  7 26  1  0  0  0  0
  8 22  1  0  0  0  0
  8 31  1  0  0  0  0
  9 26  2  0  0  0  0
  9 16  1  0  0  0  0
 10  8  2  0  0  0  0
 11  1  1  0  0  0  0
 11 20  1  1  0  0  0
 12 22  2  0  0  0  0
 14 10  1  0  0  0  0
 14 18  2  0  0  0  0
 15 16  1  0  0  0  0
 16 19  1  0  0  0  0
 17 27  1  0  0  0  0
 19 17  1  1  0  0  0
 19  2  1  0  0  0  0
 23  3  1  0  0  0  0
 23 17  2  0  0  0  0
 25  5  1  0  0  0  0
 25  7  1  0  0  0  0
 26 23  1  0  0  0  0
 27 24  1  0  0  0  0
 27 13  2  0  0  0  0
 28 10  1  0  0  0  0
 28 12  1  0  0  0  0
 29 14  1  0  0  0  0
 30  3  1  0  0  0  0
 31 18  1  6  0  0  0
 31 11  1  0  0  0  0
 32 33  1  0  0  0  0
 32  5  1  0  0  0  0
 34 33  2  0  0  0  0
M  END
>  <MODEL>
5

>  <REMARK>
 VINA RESULT:      -5.8      3.417      5.871
  Name = 
  2 active torsions:
  status: ('A' for Active; 'I' for Inactive)
    1  A    between atoms: C_3  and  C_6
    2  A    between atoms: C_3  and  C_10
                            x       y       z     vdW  Elec       q    Type
                         _______ _______ _______ _____ _____    ______ ____

>  <TORSDO>
F 2

$$$$
=
 OpenBabel11062416513D

 34 38  0  0  1  0  0  0  0  0999 V2000
  187.1430  178.2530  140.4800 C   0  0  0  0  0  0  0  0  0  0  0  0
  184.0350  174.9250  135.2690 N   0  0  0  0  0  0  0  0  0  0  0  0
  186.4650  178.2530  137.8940 C   0  0  2  0  0  3  0  0  0  0  0  0
  185.1730  174.4490  134.8570 C   0  0  0  0  0  3  0  0  0  0  0  0
  181.9060  178.4090  140.6870 C   0  0  1  0  0  0  0  0  0  0  0  0
  181.7410  177.2080  139.9920 O   0  0  0  0  0  1  0  0  0  0  0  0
  183.7890  179.3760  138.8370 C   0  0  0  0  0  2  0  0  0  0  0  0
  185.0520  177.8660  142.3800 C   0  0  0  0  0  0  0  0  0  0  0  0
  182.7530  177.7800  137.2730 C   0  0  0  0  0  3  0  0  0  0  0  0
  184.4120  178.6990  143.1730 C   0  0  0  0  0  0  0  0  0  0  0  0
  187.4890  178.3300  141.9090 C   0  0  2  0  0  3  0  0  0  0  0  0
  183.1010  178.3190  141.5970 C   0  0  0  0  0  0  0  0  0  0  0  0
  186.4200  174.7390  135.5820 C   0  0  0  0  0  3  0  0  0  0  0  0
  185.2750  179.0480  144.2660 C   0  0  0  0  0  0  0  0  0  0  0  0
  181.5320  176.2410  135.7840 C   0  0  0  0  0  1  0  0  0  0  0  0
  182.7800  176.6370  136.4170 N   0  0  0  0  0  0  0  0  0  0  0  0
  185.1860  176.3630  136.9200 C   0  0  0  0  0  0  0  0  0  0  0  0
  186.4290  178.4600  144.1130 N   0  0  0  0  0  0  0  0  0  0  0  0
  183.8870  175.6840  136.5170 C   0  0  2  0  0  3  0  0  0  0  0  0
  188.7940  177.7350  142.1310 N   0  0  0  0  0  1  0  0  0  0  0  0
  186.4330  179.5630  137.4150 O   0  0  0  0  0  1  0  0  0  0  0  0
  184.2490  177.5580  141.3100 C   0  0  0  0  0  3  0  0  0  0  0  0
  185.1670  177.5340  137.6030 C   0  0  0  0  0  0  0  0  0  0  0  0
  187.6100  175.8830  137.2000 F   0  0  0  0  0  0  0  0  0  0  0  0
  182.1130  179.7830  139.4840 S   0  0  0  0  0  0  0  0  0  0  0  0
  183.8550  178.1890  137.9090 C   0  0  0  0  0  0  0  0  0  0  0  0
  186.4390  175.6480  136.5580 C   0  0  0  0  0  0  0  0  0  0  0  0
  183.2270  179.0030  142.7310 O   0  0  0  0  0  0  0  0  0  0  0  0
  184.9310  179.9160  145.4230 C   0  0  0  0  0  1  0  0  0  0  0  0
  186.8290  178.2360  139.3140 C   0  0  0  0  0  0  0  0  0  0  0  0
  186.4570  177.6850  142.8510 C   0  0  1  0  0  3  0  0  0  0  0  0
  180.6370  178.6950  141.4910 C   0  0  0  0  0  2  0  0  0  0  0  0
  180.1700  180.1090  141.3440 C   0  0  0  0  0  3  0  0  0  0  0  0
  180.0550  180.8190  142.3290 O   0  0  0  0  0  0  0  0  0  0  0  0
  1 11  1  0  0  0  0
  3 21  1  1  0  0  0
  3 30  1  0  0  0  0
  4  2  2  0  0  0  0
  4 13  1  0  0  0  0
  5  6  1  6  0  0  0
  5 32  1  0  0  0  0
  5 12  1  0  0  0  0
  7 25  1  0  0  0  0
  8 10  2  0  0  0  0
  9 26  2  0  0  0  0
 10 14  1  0  0  0  0
 11 20  1  6  0  0  0
 11 31  1  0  0  0  0
 12 28  1  0  0  0  0
 13 27  2  0  0  0  0
 14 29  1  0  0  0  0
 15 16  1  0  0  0  0
 16 19  1  0  0  0  0
 16  9  1  0  0  0  0
 17 23  2  0  0  0  0
 18 14  2  0  0  0  0
 19  2  1  6  0  0  0
 19 17  1  0  0  0  0
 22 12  2  0  0  0  0
 22  8  1  0  0  0  0
 23  3  1  0  0  0  0
 23 26  1  0  0  0  0
 25  5  1  0  0  0  0
 26  7  1  0  0  0  0
 27 17  1  0  0  0  0
 27 24  1  0  0  0  0
 28 10  1  0  0  0  0
 30  1  3  0  0  0  0
 31  8  1  6  0  0  0
 31 18  1  0  0  0  0
 33 32  1  0  0  0  0
 33 34  2  0  0  0  0
M  END
>  <MODEL>
6

>  <REMARK>
 VINA RESULT:      -5.5      3.188      5.118
  Name = 
  2 active torsions:
  status: ('A' for Active; 'I' for Inactive)
    1  A    between atoms: C_3  and  C_6
    2  A    between atoms: C_3  and  C_10
                            x       y       z     vdW  Elec       q    Type
                         _______ _______ _______ _____ _____    ______ ____

>  <TORSDO>
F 2

$$$$
=
 OpenBabel11062416513D

 34 38  0  0  1  0  0  0  0  0999 V2000
  185.1690  173.2650  135.3840 C   0  0  0  0  0  0  0  0  0  0  0  0
  182.0720  177.4730  139.9230 N   0  0  0  0  0  0  0  0  0  0  0  0
  183.5130  175.3270  135.7760 C   0  0  2  0  0  3  0  0  0  0  0  0
  180.9900  176.7520  139.8960 C   0  0  0  0  0  3  0  0  0  0  0  0
  188.3540  176.8950  137.4250 C   0  0  1  0  0  0  0  0  0  0  0  0
  187.6270  177.0120  138.6130 O   0  0  0  0  0  1  0  0  0  0  0  0
  186.0380  177.0400  135.8370 C   0  0  0  0  0  2  0  0  0  0  0  0
  187.7740  173.4430  136.5300 C   0  0  0  0  0  0  0  0  0  0  0  0
  185.0320  178.1630  137.7850 C   0  0  0  0  0  3  0  0  0  0  0  0
  188.9540  173.7050  136.0090 C   0  0  0  0  0  0  0  0  0  0  0  0
  186.1180  172.1730  135.1090 C   0  0  2  0  0  3  0  0  0  0  0  0
  188.3710  175.4610  136.9690 C   0  0  0  0  0  0  0  0  0  0  0  0
  180.9170  175.5300  139.0800 C   0  0  0  0  0  3  0  0  0  0  0  0
  189.4040  172.5500  135.2860 C   0  0  0  0  0  0  0  0  0  0  0  0
  184.2040  179.3930  139.7550 C   0  0  0  0  0  1  0  0  0  0  0  0
  184.0820  178.2640  138.8470 N   0  0  0  0  0  0  0  0  0  0  0  0
  183.0460  176.1580  138.0670 C   0  0  0  0  0  0  0  0  0  0  0  0
  188.4920  171.6190  135.3430 N   0  0  0  0  0  0  0  0  0  0  0  0
  183.3140  177.0820  139.2440 C   0  0  2  0  0  3  0  0  0  0  0  0
  185.4140  170.9030  135.0930 N   0  0  0  0  0  1  0  0  0  0  0  0
  183.4500  176.1080  134.6210 O   0  0  0  0  0  1  0  0  0  0  0  0
  187.3180  174.5570  137.1910 C   0  0  0  0  0  3  0  0  0  0  0  0
  183.8610  176.1690  136.9840 C   0  0  0  0  0  0  0  0  0  0  0  0
  181.7750  174.1030  137.4760 F   0  0  0  0  0  0  0  0  0  0  0  0
  187.5970  177.9720  136.1420 S   0  0  0  0  0  0  0  0  0  0  0  0
  184.9990  177.1410  136.9260 C   0  0  0  0  0  0  0  0  0  0  0  0
  181.8830  175.2400  138.2070 C   0  0  0  0  0  0  0  0  0  0  0  0
  189.3490  174.9220  136.2480 O   0  0  0  0  0  0  0  0  0  0  0  0
  190.7100  172.3930  134.5940 C   0  0  0  0  0  1  0  0  0  0  0  0
  184.4240  174.1940  135.5800 C   0  0  0  0  0  0  0  0  0  0  0  0
  187.3030  172.0980  136.0880 C   0  0  1  0  0  3  0  0  0  0  0  0
  189.7780  177.4020  137.6640 C   0  0  0  0  0  2  0  0  0  0  0  0
  190.2980  177.0360  139.0190 C   0  0  0  0  0  3  0  0  0  0  0  0
  190.9410  176.0110  139.1690 O   0  0  0  0  0  0  0  0  0  0  0  0
  1 30  3  0  0  0  0
  3 21  1  6  0  0  0
  3 23  1  0  0  0  0
  4  2  2  0  0  0  0
  5 32  1  0  0  0  0
  5  6  1  1  0  0  0
  7 25  1  0  0  0  0
  7 26  1  0  0  0  0
  8 22  1  0  0  0  0
  9 16  1  0  0  0  0
 10 28  1  0  0  0  0
 10  8  2  0  0  0  0
 11 20  1  1  0  0  0
 11  1  1  0  0  0  0
 11 31  1  0  0  0  0
 12 22  2  0  0  0  0
 12  5  1  0  0  0  0
 13  4  1  0  0  0  0
 14 18  2  0  0  0  0
 14 10  1  0  0  0  0
 16 19  1  0  0  0  0
 16 15  1  0  0  0  0
 17 27  1  0  0  0  0
 19 17  1  6  0  0  0
 19  2  1  0  0  0  0
 23 17  2  0  0  0  0
 24 27  1  0  0  0  0
 25  5  1  0  0  0  0
 26 23  1  0  0  0  0
 26  9  2  0  0  0  0
 27 13  2  0  0  0  0
 28 12  1  0  0  0  0
 29 14  1  0  0  0  0
 30  3  1  0  0  0  0
 31 18  1  6  0  0  0
 31  8  1  0  0  0  0
 32 33  1  0  0  0  0
 33 34  2  0  0  0  0
M  END
>  <MODEL>
7

>  <REMARK>
 VINA RESULT:      -5.5      2.638      7.840
  Name = 
  2 active torsions:
  status: ('A' for Active; 'I' for Inactive)
    1  A    between atoms: C_3  and  C_6
    2  A    between atoms: C_3  and  C_10
                            x       y       z     vdW  Elec       q    Type
                         _______ _______ _______ _____ _____    ______ ____

>  <TORSDO>
F 2

$$$$
=
 OpenBabel11062416513D

 34 38  0  0  1  0  0  0  0  0999 V2000
  182.4450  177.7160  139.7280 C   0  0  0  0  0  0  0  0  0  0  0  0
  189.2640  177.8770  140.9020 N   0  0  0  0  0  0  0  0  0  0  0  0
  184.6940  179.1620  139.7430 C   0  0  2  0  0  3  0  0  0  0  0  0
  189.0750  178.3610  142.0940 C   0  0  0  0  0  3  0  0  0  0  0  0
  185.2960  175.4040  135.9840 C   0  0  1  0  0  0  0  0  0  0  0  0
  186.3490  175.0790  136.8450 O   0  0  0  0  0  1  0  0  0  0  0  0
  185.1530  178.0440  136.9410 C   0  0  0  0  0  2  0  0  0  0  0  0
  182.4530  175.3010  138.2120 C   0  0  0  0  0  0  0  0  0  0  0  0
  187.4880  177.6890  137.6430 C   0  0  0  0  0  3  0  0  0  0  0  0
  181.9400  174.9910  137.0400 C   0  0  0  0  0  0  0  0  0  0  0  0
  181.1890  176.9510  139.6460 C   0  0  2  0  0  3  0  0  0  0  0  0
  183.9810  175.2550  136.7000 C   0  0  0  0  0  0  0  0  0  0  0  0
  187.7170  178.5880  142.6110 C   0  0  0  0  0  3  0  0  0  0  0  0
  180.5210  174.8390  137.1840 C   0  0  0  0  0  0  0  0  0  0  0  0
  189.8550  177.2380  138.1620 C   0  0  0  0  0  1  0  0  0  0  0  0
  188.5220  177.5900  138.6230 N   0  0  0  0  0  0  0  0  0  0  0  0
  186.8590  178.1280  140.3740 C   0  0  0  0  0  0  0  0  0  0  0  0
  180.1800  175.0880  138.4180 N   0  0  0  0  0  0  0  0  0  0  0  0
  188.1660  177.4300  140.0340 C   0  0  2  0  0  3  0  0  0  0  0  0
  180.4950  177.0100  140.9190 N   0  0  0  0  0  1  0  0  0  0  0  0
  184.5560  180.2560  138.8890 O   0  0  0  0  0  1  0  0  0  0  0  0
  183.8060  175.4880  138.0750 C   0  0  0  0  0  3  0  0  0  0  0  0
  185.9350  178.3640  139.4110 C   0  0  0  0  0  0  0  0  0  0  0  0
  185.4260  178.7010  142.3240 F   0  0  0  0  0  0  0  0  0  0  0  0
  185.5130  177.1270  135.3840 S   0  0  0  0  0  0  0  0  0  0  0  0
  186.2330  177.9840  137.9930 C   0  0  0  0  0  0  0  0  0  0  0  0
  186.6600  178.4850  141.8050 C   0  0  0  0  0  0  0  0  0  0  0  0
  182.8350  174.9580  136.0940 O   0  0  0  0  0  0  0  0  0  0  0  0
  179.5620  174.4330  136.1230 C   0  0  0  0  0  1  0  0  0  0  0  0
  183.4700  178.3540  139.7410 C   0  0  0  0  0  0  0  0  0  0  0  0
  181.3640  175.4840  139.2170 C   0  0  1  0  0  3  0  0  0  0  0  0
  185.3530  174.4850  134.7630 C   0  0  0  0  0  2  0  0  0  0  0  0
  185.9070  173.1330  135.0870 C   0  0  0  0  0  3  0  0  0  0  0  0
  185.1630  172.2420  135.4580 O   0  0  0  0  0  0  0  0  0  0  0  0
  1 30  3  0  0  0  0
  2  4  2  0  0  0  0
  3 21  1  6  0  0  0
  4 13  1  0  0  0  0
  5 12  1  0  0  0  0
  5  6  1  1  0  0  0
  7 26  1  0  0  0  0
  9 26  2  0  0  0  0
  9 16  1  0  0  0  0
 10 14  1  0  0  0  0
 10  8  2  0  0  0  0
 11  1  1  0  0  0  0
 11 20  1  1  0  0  0
 12 22  2  0  0  0  0
 14 18  2  0  0  0  0
 15 16  1  0  0  0  0
 16 19  1  0  0  0  0
 17 27  1  0  0  0  0
 18 31  1  0  0  0  0
 19 17  1  1  0  0  0
 19  2  1  0  0  0  0
 22  8  1  0  0  0  0
 23  3  1  0  0  0  0
 23 17  2  0  0  0  0
 25  5  1  0  0  0  0
 25  7  1  0  0  0  0
 26 23  1  0  0  0  0
 27 24  1  0  0  0  0
 27 13  2  0  0  0  0
 28 12  1  0  0  0  0
 28 10  1  0  0  0  0
 29 14  1  0  0  0  0
 30  3  1  0  0  0  0
 31  8  1  6  0  0  0
 31 11  1  0  0  0  0
 32 33  1  0  0  0  0
 32  5  1  0  0  0  0
 33 34  2  0  0  0  0
M  END
>  <MODEL>
8

>  <REMARK>
 VINA RESULT:      -5.5      2.808      4.813
  Name = 
  2 active torsions:
  status: ('A' for Active; 'I' for Inactive)
    1  A    between atoms: C_3  and  C_6
    2  A    between atoms: C_3  and  C_10
                            x       y       z     vdW  Elec       q    Type
                         _______ _______ _______ _____ _____    ______ ____

>  <TORSDO>
F 2

$$$$
=
 OpenBabel11062416513D

 34 38  0  0  1  0  0  0  0  0999 V2000
  186.3380  178.2710  138.0690 C   0  0  0  0  0  0  0  0  0  0  0  0
  179.6310  179.8800  137.5130 N   0  0  0  0  0  0  0  0  0  0  0  0
  183.9590  178.4510  139.2740 C   0  0  2  0  0  3  0  0  0  0  0  0
  179.8460  181.0650  138.0040 C   0  0  0  0  0  3  0  0  0  0  0  0
  183.5020  174.6830  135.5050 C   0  0  1  0  0  0  0  0  0  0  0  0
  182.5470  175.6040  135.0660 O   0  0  0  0  0  1  0  0  0  0  0  0
  183.4350  175.6680  138.1370 C   0  0  0  0  0  2  0  0  0  0  0  0
  186.4800  176.7220  135.6780 C   0  0  0  0  0  0  0  0  0  0  0  0
  181.2000  176.5120  137.5370 C   0  0  0  0  0  3  0  0  0  0  0  0
  186.9440  175.5150  135.4330 C   0  0  0  0  0  0  0  0  0  0  0  0
  187.6580  178.0970  137.4390 C   0  0  2  0  0  3  0  0  0  0  0  0
  184.8700  175.3100  135.4870 C   0  0  0  0  0  0  0  0  0  0  0  0
  181.2040  181.4980  138.3660 C   0  0  0  0  0  3  0  0  0  0  0  0
  188.3790  175.5660  135.4270 C   0  0  0  0  0  0  0  0  0  0  0  0
  178.9310  177.1750  136.8380 C   0  0  0  0  0  1  0  0  0  0  0  0
  180.2480  177.5550  137.3230 N   0  0  0  0  0  0  0  0  0  0  0  0
  181.9570  179.2040  138.0160 C   0  0  0  0  0  0  0  0  0  0  0  0
  188.7710  176.7790  135.7000 N   0  0  0  0  0  0  0  0  0  0  0  0
  180.7100  178.9380  137.1890 C   0  0  2  0  0  3  0  0  0  0  0  0
  188.4250  179.3240  137.5580 N   0  0  0  0  0  1  0  0  0  0  0  0
  183.9270  177.6060  140.3840 O   0  0  0  0  0  1  0  0  0  0  0  0
  185.1090  176.6750  135.7260 C   0  0  0  0  0  3  0  0  0  0  0  0
  182.7870  178.1870  138.3540 C   0  0  0  0  0  0  0  0  0  0  0  0
  183.4480  181.0670  138.7190 F   0  0  0  0  0  0  0  0  0  0  0  0
  183.0710  174.1230  137.2010 S   0  0  0  0  0  0  0  0  0  0  0  0
  182.4390  176.7850  137.9570 C   0  0  0  0  0  0  0  0  0  0  0  0
  182.2120  180.6240  138.3800 C   0  0  0  0  0  0  0  0  0  0  0  0
  185.9980  174.6280  135.3150 O   0  0  0  0  0  0  0  0  0  0  0  0
  189.3020  174.4390  135.1320 C   0  0  0  0  0  1  0  0  0  0  0  0
  185.2570  178.3590  138.5970 C   0  0  0  0  0  0  0  0  0  0  0  0
  187.6070  177.6570  135.9650 C   0  0  1  0  0  3  0  0  0  0  0  0
  183.4610  173.4540  134.5950 C   0  0  0  0  0  2  0  0  0  0  0  0
  183.4470  172.1700  135.3650 C   0  0  0  0  0  3  0  0  0  0  0  0
  184.1010  171.2180  134.9740 O   0  0  0  0  0  0  0  0  0  0  0  0
  1 30  3  0  0  0  0
  2  4  2  0  0  0  0
  3 21  1  1  0  0  0
  4 13  1  0  0  0  0
  5  6  1  6  0  0  0
  5 25  1  0  0  0  0
  8 22  1  0  0  0  0
  9 26  2  0  0  0  0
 10  8  2  0  0  0  0
 11 20  1  6  0  0  0
 11  1  1  0  0  0  0
 12  5  1  0  0  0  0
 12 22  2  0  0  0  0
 13 27  2  0  0  0  0
 14 10  1  0  0  0  0
 14 18  2  0  0  0  0
 15 16  1  0  0  0  0
 16  9  1  0  0  0  0
 17 23  2  0  0  0  0
 17 27  1  0  0  0  0
 18 31  1  0  0  0  0
 19 16  1  0  0  0  0
 19  2  1  1  0  0  0
 19 17  1  0  0  0  0
 23  3  1  0  0  0  0
 25  7  1  0  0  0  0
 26  7  1  0  0  0  0
 26 23  1  0  0  0  0
 27 24  1  0  0  0  0
 28 10  1  0  0  0  0
 28 12  1  0  0  0  0
 29 14  1  0  0  0  0
 30  3  1  0  0  0  0
 31  8  1  1  0  0  0
 31 11  1  0  0  0  0
 32 33  1  0  0  0  0
 32  5  1  0  0  0  0
 34 33  2  0  0  0  0
M  END
>  <MODEL>
9

>  <REMARK>
 VINA RESULT:      -5.4      2.837      6.643
  Name = 
  2 active torsions:
  status: ('A' for Active; 'I' for Inactive)
    1  A    between atoms: C_3  and  C_6
    2  A    between atoms: C_3  and  C_10
                            x       y       z     vdW  Elec       q    Type
                         _______ _______ _______ _____ _____    ______ ____

>  <TORSDO>
F 2

$$$$
