=
 OpenBabel11062416103D

 59 62  0  0  1  0  0  0  0  0999 V2000
  189.7680  177.1100  140.1810 C   0  0  2  0  0  3  0  0  0  0  0  0
  187.1750  179.3430  141.3170 C   0  0  0  0  0  3  0  0  0  0  0  0
  187.8380  178.2300  141.1350 C   0  0  0  0  0  0  0  0  0  0  0  0
  188.4890  177.1150  140.9520 C   0  0  0  0  0  3  0  0  0  0  0  0
  185.7980  179.4330  141.0940 O   0  0  0  0  0  0  0  0  0  0  0  0
  184.8400  178.7410  141.8880 C   0  0  2  0  0  3  0  0  0  0  0  0
  183.5090  178.9810  141.3390 N   0  0  0  0  0  2  0  0  0  0  0  0
  183.3300  176.9140  140.2580 O   0  0  0  0  0  0  0  0  0  0  0  0
  182.7980  178.0190  140.5560 C   0  0  0  0  0  0  0  0  0  0  0  0
  180.7020  179.2020  141.1930 C   0  0  0  0  0  1  0  0  0  0  0  0
  181.3860  178.3100  140.1700 C   0  0  1  0  0  3  0  0  0  0  0  0
  181.3480  178.9560  138.7950 C   0  0  0  0  0  2  0  0  0  0  0  0
  179.9970  178.7310  138.1310 C   0  0  0  0  0  2  0  0  0  0  0  0
  179.5850  179.9240  137.2770 C   0  0  0  0  0  2  0  0  0  0  0  0
  180.0820  182.0410  138.5070 C   0  0  0  0  0  1  0  0  0  0  0  0
  180.5610  181.0790  137.4340 C   0  0  0  0  0  2  0  0  0  0  0  0
  184.7900  178.0830  144.3040 C   0  0  2  0  0  3  0  0  0  0  0  0
  184.8970  179.2430  143.3250 C   0  0  2  0  0  3  0  0  0  0  0  0
  183.5780  178.9420  144.0060 C   0  0  0  0  0  2  0  0  0  0  0  0
  185.3360  178.4680  145.5310 O   0  0  0  0  0  0  0  0  0  0  0  0
  186.3790  177.5680  145.7790 C   0  0  0  0  0  2  0  0  0  0  0  0
  187.5420  178.2860  146.4440 C   0  0  2  0  0  3  0  0  0  0  0  0
  189.1900  177.9980  148.4040 C   0  0  0  0  0  2  0  0  0  0  0  0
  188.7970  177.6470  146.0950 N   0  0  0  0  0  0  0  0  0  0  0  0
  190.9230  176.9560  146.8470 N   0  0  0  0  0  2  0  0  0  0  0  0
  189.6380  177.5410  147.0640 C   0  0  0  0  0  0  0  0  0  0  0  0
  187.3940  178.2450  148.2620 S   0  0  0  0  0  0  0  0  0  0  0  0
  192.5960  175.5950  147.6080 C   0  0  0  0  0  1  0  0  0  0  0  0
  191.8390  176.7980  147.8950 N   0  0  0  0  0  2  0  0  0  0  0  0
  190.9250  177.1770  141.1210 C   0  0  0  0  0  0  0  0  0  0  0  0
  192.4260  177.4530  140.5140 S   0  0  0  0  0  0  0  0  0  0  0  0
  191.3370  177.7480  143.5010 C   0  0  0  0  0  1  0  0  0  0  0  0
  190.7080  176.9730  142.4880 O   0  0  0  0  0  0  0  0  0  0  0  0
  189.8120  178.2200  139.2910 O   0  0  0  0  0  0  0  0  0  0  0  0
  189.3180  178.1630  137.9850 C   0  0  0  0  0  0  0  0  0  0  0  0
  188.2520  178.7680  137.6770 O   0  0  0  0  0  0  0  0  0  0  0  0
  190.0310  177.3670  136.9370 C   0  0  2  0  0  3  0  0  0  0  0  0
  189.0570  176.5520  136.1020 C   0  0  0  0  0  2  0  0  0  0  0  0
  188.1990  175.6850  137.0090 C   0  0  0  0  0  2  0  0  0  0  0  0
  181.8830  175.4770  136.7750 C   0  0  0  0  0  2  0  0  0  0  0  0
  187.1640  174.8970  136.2130 C   0  0  2  0  0  3  0  0  0  0  0  0
  183.3190  175.8800  137.0570 C   0  0  0  0  0  2  0  0  0  0  0  0
  180.7170  173.8710  138.0240 O   0  0  0  0  0  0  0  0  0  0  0  0
  185.1640  176.3500  135.6990 C   0  0  0  0  0  2  0  0  0  0  0  0
  182.4780  172.7940  135.4140 O   0  0  0  0  0  1  0  0  0  0  0  0
  182.5010  172.9390  136.8040 C   0  0  2  0  0  3  0  0  0  0  0  0
  181.6280  174.0810  137.2430 C   0  0  0  0  0  0  0  0  0  0  0  0
  183.9270  173.1040  137.3330 C   0  0  0  0  0  2  0  0  0  0  0  0
  184.8220  174.0330  136.4950 C   0  0  2  0  0  3  0  0  0  0  0  0
  186.4720  175.7750  135.1570 C   0  0  0  0  0  2  0  0  0  0  0  0
  186.1690  174.2520  137.1820 C   0  0  0  0  0  2  0  0  0  0  0  0
  184.1890  175.3030  136.0360 N   0  0  1  0  0  0  0  0  0  0  0  0
  191.1520  176.5040  137.5050 C   0  0  0  0  0  2  0  0  0  0  0  0
  191.4110  175.4040  136.6790 O   0  0  0  0  0  0  0  0  0  0  0  0
  193.8340  176.7090  137.0680 O   0  0  0  0  0  1  0  0  0  0  0  0
  192.9630  175.6750  136.0490 P   0  0  2  0  0  0  0  0  0  0  0  0
  192.8430  176.3160  134.6860 O   0  0  0  0  0  0  0  0  0  0  0  0
  193.8050  173.3900  137.1660 N   0  0  0  0  0  1  0  0  0  0  0  0
  193.8460  174.0960  135.8970 C   0  0  0  0  0  2  0  0  0  0  0  0
  1  4  1  1  0  0  0
  1 30  1  0  0  0  0
  3  2  2  0  0  0  0
  4  3  2  0  0  0  0
  5  2  1  0  0  0  0
  6  5  1  6  0  0  0
  7  6  1  0  0  0  0
  8  9  2  0  0  0  0
  9  7  1  0  0  0  0
 11  9  1  0  0  0  0
 11 10  1  1  0  0  0
 12 11  1  0  0  0  0
 13 12  1  0  0  0  0
 14 16  1  0  0  0  0
 14 13  1  0  0  0  0
 16 15  1  0  0  0  0
 17 20  1  1  0  0  0
 18  6  1  6  0  0  0
 18 19  1  0  0  0  0
 18 17  1  0  0  0  0
 19 17  1  0  0  0  0
 20 21  1  0  0  0  0
 22 21  1  6  0  0  0
 22 27  1  0  0  0  0
 24 22  1  0  0  0  0
 24 26  2  0  0  0  0
 25 26  1  0  0  0  0
 25 29  1  0  0  0  0
 26 23  1  0  0  0  0
 27 23  1  0  0  0  0
 28 29  1  0  0  0  0
 30 33  1  0  0  0  0
 31 30  2  0  0  0  0
 33 32  1  0  0  0  0
 34  1  1  0  0  0  0
 35 34  1  0  0  0  0
 36 35  2  0  0  0  0
 37 38  1  1  0  0  0
 37 53  1  0  0  0  0
 37 35  1  0  0  0  0
 38 39  1  0  0  0  0
 40 42  1  0  0  0  0
 40 47  1  0  0  0  0
 41 39  1  1  0  0  0
 41 51  1  0  0  0  0
 46 45  1  6  0  0  0
 46 47  1  0  0  0  0
 46 48  1  0  0  0  0
 47 43  2  0  0  0  0
 49 51  1  1  0  0  0
 49 48  1  0  0  0  0
 50 44  1  0  0  0  0
 50 41  1  0  0  0  0
 52 44  1  1  0  0  0
 52 49  1  0  0  0  0
 52 42  1  0  0  0  0
 54 53  1  0  0  0  0
 56 57  2  6  0  0  0
 56 54  1  0  0  0  0
 56 55  1  0  0  0  0
 59 56  1  0  0  0  0
 59 58  1  0  0  0  0
M  END
>  <MODEL>
1

>  <REMARK>
 VINA RESULT:      -6.2      0.000      0.000
  Name = 
  26 active torsions:
  status: ('A' for Active; 'I' for Inactive)
    1  A    between atoms: C_2  and  O_20
    2  A    between atoms: C_2  and  C_24
    3  A    between atoms: C_4  and  O_6
    4  A    between atoms: O_6  and  C_44
    5  A    between atoms: C_9  and  C_48
    6  A    between atoms: C_10  and  C_40
    7  A    between atoms: C_10  and  O_41
    8  A    between atoms: C_12  and  C_59
    9  A    between atoms: C_15  and  C_30
   10  A    between atoms: C_15  and  C_51
   11  A    between atoms: O_18  and  C_19
   12  A    between atoms: O_18  and  C_40
   13  A    between atoms: C_19  and  C_24
   14  A    between atoms: O_20  and  P_53
   15  A    between atoms: C_21  and  O_31
   16  A    between atoms: C_23  and  C_44
   17  A    between atoms: C_24  and  C_56
   18  A    between atoms: C_30  and  C_46
   19  A    between atoms: O_31  and  C_59
   20  A    between atoms: N_32  and  N_39
   21  A    between atoms: N_34  and  C_59
   22  A    between atoms: C_37  and  C_46
   23  A    between atoms: C_37  and  C_57
   24  A    between atoms: C_40  and  C_47
   25  A    between atoms: C_48  and  C_56
   26  A    between atoms: P_53  and  C_54
                            x       y       z     vdW  Elec       q    Type
                         _______ _______ _______ _____ _____    ______ ____

>  <TORSDO>
F 26

$$$$
=
 OpenBabel11062416103D

 59 62  0  0  1  0  0  0  0  0999 V2000
  186.0750  175.7480  137.1610 C   0  0  2  0  0  3  0  0  0  0  0  0
  189.0130  177.5200  136.0540 C   0  0  0  0  0  3  0  0  0  0  0  0
  188.1020  176.5840  136.1220 C   0  0  0  0  0  0  0  0  0  0  0  0
  187.2020  175.6420  136.1870 C   0  0  0  0  0  3  0  0  0  0  0  0
  190.3800  177.2270  136.0360 O   0  0  0  0  0  0  0  0  0  0  0  0
  191.1450  177.0310  137.2200 C   0  0  2  0  0  3  0  0  0  0  0  0
  191.6630  175.6670  137.2290 N   0  0  0  0  0  2  0  0  0  0  0  0
  193.8950  176.2650  136.8670 O   0  0  0  0  0  0  0  0  0  0  0  0
  193.0480  175.3520  137.0740 C   0  0  0  0  0  0  0  0  0  0  0  0
  192.8800  173.0330  136.1850 C   0  0  0  0  0  1  0  0  0  0  0  0
  193.4870  173.9360  137.2460 C   0  0  1  0  0  3  0  0  0  0  0  0
  195.0040  173.8550  137.2060 C   0  0  0  0  0  2  0  0  0  0  0  0
  195.4690  172.4080  137.2830 C   0  0  0  0  0  2  0  0  0  0  0  0
  196.9460  172.3110  137.6470 C   0  0  0  0  0  2  0  0  0  0  0  0
  196.8310  171.1220  135.4530 C   0  0  0  0  0  1  0  0  0  0  0  0
  197.7530  171.6920  136.5170 C   0  0  0  0  0  2  0  0  0  0  0  0
  191.0880  177.1220  139.7220 C   0  0  2  0  0  3  0  0  0  0  0  0
  190.2690  177.2520  138.4470 C   0  0  2  0  0  3  0  0  0  0  0  0
  190.2190  175.9730  139.2550 C   0  0  0  0  0  2  0  0  0  0  0  0
  190.4370  177.8010  140.7560 O   0  0  0  0  0  0  0  0  0  0  0  0
  189.8460  176.8080  141.5470 C   0  0  0  0  0  2  0  0  0  0  0  0
  190.6220  176.6410  142.8420 C   0  0  2  0  0  3  0  0  0  0  0  0
  191.2310  177.9560  144.9730 C   0  0  0  0  0  2  0  0  0  0  0  0
  189.7120  176.4500  143.9560 N   0  0  0  0  0  0  0  0  0  0  0  0
  189.2420  176.9490  146.2130 N   0  0  0  0  0  2  0  0  0  0  0  0
  190.0390  177.0740  145.0340 C   0  0  0  0  0  0  0  0  0  0  0  0
  191.6320  178.1160  143.2060 S   0  0  0  0  0  0  0  0  0  0  0  0
  188.3120  177.8540  148.0960 C   0  0  0  0  0  1  0  0  0  0  0  0
  189.5600  177.6470  147.3850 N   0  0  0  0  0  2  0  0  0  0  0  0
  185.0400  174.7200  136.8490 C   0  0  0  0  0  0  0  0  0  0  0  0
  185.4880  173.1410  136.7680 S   0  0  0  0  0  0  0  0  0  0  0  0
  182.6270  174.7570  137.4290 C   0  0  0  0  0  1  0  0  0  0  0  0
  183.7240  175.1260  136.6020 O   0  0  0  0  0  0  0  0  0  0  0  0
  185.4910  177.0440  137.1010 O   0  0  0  0  0  0  0  0  0  0  0  0
  185.3740  177.8740  138.2210 C   0  0  0  0  0  0  0  0  0  0  0  0
  186.3560  178.5670  138.6100 O   0  0  0  0  0  0  0  0  0  0  0  0
  184.0910  177.9360  138.9890 C   0  0  2  0  0  3  0  0  0  0  0  0
  182.9540  178.4610  138.1260 C   0  0  0  0  0  2  0  0  0  0  0  0
  181.6200  178.1460  138.7820 C   0  0  0  0  0  2  0  0  0  0  0  0
  179.8810  182.8390  134.9160 C   0  0  0  0  0  2  0  0  0  0  0  0
  180.7500  179.3930  138.9050 C   0  0  2  0  0  3  0  0  0  0  0  0
  180.4300  181.5390  135.4760 C   0  0  0  0  0  2  0  0  0  0  0  0
  181.0740  184.8570  134.9130 O   0  0  0  0  0  0  0  0  0  0  0  0
  179.5060  179.8070  136.7470 C   0  0  0  0  0  2  0  0  0  0  0  0
  179.2170  184.1830  137.5910 O   0  0  0  0  0  1  0  0  0  0  0  0
  180.5200  184.1440  137.0870 C   0  0  2  0  0  3  0  0  0  0  0  0
  180.5170  184.0110  135.5900 C   0  0  0  0  0  0  0  0  0  0  0  0
  181.3450  183.0290  137.7330 C   0  0  0  0  0  2  0  0  0  0  0  0
  180.5980  181.6960  137.9120 C   0  0  2  0  0  3  0  0  0  0  0  0
  179.4150  179.2280  138.1590 C   0  0  0  0  0  2  0  0  0  0  0  0
  181.5450  180.6100  138.4230 C   0  0  0  0  0  2  0  0  0  0  0  0
  179.7760  181.2520  136.7500 N   0  0  1  0  0  0  0  0  0  0  0  0
  184.2150  178.7110  140.2960 C   0  0  0  0  0  2  0  0  0  0  0  0
  184.1990  177.8490  141.3980 O   0  0  0  0  0  0  0  0  0  0  0  0
  183.8800  179.0760  143.8720 O   0  0  0  0  0  1  0  0  0  0  0  0
  184.9800  178.7000  142.6410 P   0  0  2  0  0  0  0  0  0  0  0  0
  185.5510  179.9840  142.0840 O   0  0  0  0  0  0  0  0  0  0  0  0
  186.1840  177.6010  144.7670 N   0  0  0  0  0  1  0  0  0  0  0  0
  186.3240  177.6890  143.3240 C   0  0  0  0  0  2  0  0  0  0  0  0
  1  4  1  6  0  0  0
  2  3  2  0  0  0  0
  3  4  2  0  0  0  0
  5  2  1  0  0  0  0
  6  5  1  6  0  0  0
  6  7  1  0  0  0  0
  8  9  2  0  0  0  0
  9  7  1  0  0  0  0
  9 11  1  0  0  0  0
 11 10  1  6  0  0  0
 12 11  1  0  0  0  0
 12 13  1  0  0  0  0
 13 14  1  0  0  0  0
 15 16  1  0  0  0  0
 16 14  1  0  0  0  0
 17 20  1  1  0  0  0
 18  6  1  6  0  0  0
 18 19  1  0  0  0  0
 18 17  1  0  0  0  0
 19 17  1  0  0  0  0
 20 21  1  0  0  0  0
 22 21  1  6  0  0  0
 22 27  1  0  0  0  0
 22 24  1  0  0  0  0
 23 26  1  0  0  0  0
 24 26  2  0  0  0  0
 25 29  1  0  0  0  0
 26 25  1  0  0  0  0
 27 23  1  0  0  0  0
 29 28  1  0  0  0  0
 30  1  1  0  0  0  0
 31 30  2  0  0  0  0
 33 30  1  0  0  0  0
 33 32  1  0  0  0  0
 34  1  1  0  0  0  0
 34 35  1  0  0  0  0
 35 36  2  0  0  0  0
 35 37  1  0  0  0  0
 37 38  1  6  0  0  0
 37 53  1  0  0  0  0
 38 39  1  0  0  0  0
 40 42  1  0  0  0  0
 40 47  1  0  0  0  0
 41 39  1  6  0  0  0
 43 47  2  0  0  0  0
 44 52  1  0  0  0  0
 44 50  1  0  0  0  0
 46 45  1  1  0  0  0
 46 48  1  0  0  0  0
 47 46  1  0  0  0  0
 49 48  1  6  0  0  0
 49 51  1  0  0  0  0
 50 41  1  0  0  0  0
 51 41  1  0  0  0  0
 52 42  1  6  0  0  0
 52 49  1  0  0  0  0
 53 54  1  0  0  0  0
 54 56  1  0  0  0  0
 56 57  2  6  0  0  0
 56 59  1  0  0  0  0
 56 55  1  0  0  0  0
 59 58  1  0  0  0  0
M  END
>  <MODEL>
2

>  <REMARK>
 VINA RESULT:      -5.7      3.300      9.590
  Name = 
  26 active torsions:
  status: ('A' for Active; 'I' for Inactive)
    1  A    between atoms: C_2  and  O_20
    2  A    between atoms: C_2  and  C_24
    3  A    between atoms: C_4  and  O_6
    4  A    between atoms: O_6  and  C_44
    5  A    between atoms: C_9  and  C_48
    6  A    between atoms: C_10  and  C_40
    7  A    between atoms: C_10  and  O_41
    8  A    between atoms: C_12  and  C_59
    9  A    between atoms: C_15  and  C_30
   10  A    between atoms: C_15  and  C_51
   11  A    between atoms: O_18  and  C_19
   12  A    between atoms: O_18  and  C_40
   13  A    between atoms: C_19  and  C_24
   14  A    between atoms: O_20  and  P_53
   15  A    between atoms: C_21  and  O_31
   16  A    between atoms: C_23  and  C_44
   17  A    between atoms: C_24  and  C_56
   18  A    between atoms: C_30  and  C_46
   19  A    between atoms: O_31  and  C_59
   20  A    between atoms: N_32  and  N_39
   21  A    between atoms: N_34  and  C_59
   22  A    between atoms: C_37  and  C_46
   23  A    between atoms: C_37  and  C_57
   24  A    between atoms: C_40  and  C_47
   25  A    between atoms: C_48  and  C_56
   26  A    between atoms: P_53  and  C_54
                            x       y       z     vdW  Elec       q    Type
                         _______ _______ _______ _____ _____    ______ ____

>  <TORSDO>
F 26

$$$$
=
 OpenBabel11062416103D

 59 62  0  0  1  0  0  0  0  0999 V2000
  190.3720  176.7220  141.2640 C   0  0  2  0  0  3  0  0  0  0  0  0
  187.3030  178.3050  142.3010 C   0  0  0  0  0  3  0  0  0  0  0  0
  188.1070  177.4970  141.6590 C   0  0  0  0  0  0  0  0  0  0  0  0
  188.9010  176.6930  141.0080 C   0  0  0  0  0  3  0  0  0  0  0  0
  186.3210  179.0540  141.6450 O   0  0  0  0  0  0  0  0  0  0  0  0
  184.9280  178.8530  141.8550 C   0  0  2  0  0  3  0  0  0  0  0  0
  184.1950  179.4050  140.7200 N   0  0  0  0  0  2  0  0  0  0  0  0
  182.8850  177.5040  140.3440 O   0  0  0  0  0  0  0  0  0  0  0  0
  183.1690  178.6910  140.0260 C   0  0  0  0  0  0  0  0  0  0  0  0
  182.2970  178.5890  137.6960 C   0  0  0  0  0  1  0  0  0  0  0  0
  182.3830  179.4040  138.9760 C   0  0  1  0  0  3  0  0  0  0  0  0
  180.9910  179.7210  139.4970 C   0  0  0  0  0  2  0  0  0  0  0  0
  180.6250  181.1700  139.2100 C   0  0  0  0  0  2  0  0  0  0  0  0
  181.7380  181.8930  138.4630 C   0  0  0  0  0  2  0  0  0  0  0  0
  182.0540  184.2380  137.6620 C   0  0  0  0  0  1  0  0  0  0  0  0
  181.1830  182.9970  137.5770 C   0  0  0  0  0  2  0  0  0  0  0  0
  184.2210  178.5370  144.2360 C   0  0  2  0  0  3  0  0  0  0  0  0
  184.4890  179.5520  143.1340 C   0  0  2  0  0  3  0  0  0  0  0  0
  183.0690  179.1400  143.4600 C   0  0  0  0  0  2  0  0  0  0  0  0
  184.3220  179.1710  145.4770 O   0  0  0  0  0  0  0  0  0  0  0  0
  185.6930  179.3470  145.7020 C   0  0  0  0  0  2  0  0  0  0  0  0
  186.1860  178.3440  146.7320 C   0  0  2  0  0  3  0  0  0  0  0  0
  188.0950  176.6520  147.0960 C   0  0  0  0  0  2  0  0  0  0  0  0
  187.3380  178.8700  147.4390 N   0  0  0  0  0  0  0  0  0  0  0  0
  189.4540  178.3960  148.3690 N   0  0  0  0  0  2  0  0  0  0  0  0
  188.2760  178.0140  147.6580 C   0  0  0  0  0  0  0  0  0  0  0  0
  186.6930  176.7790  145.9440 S   0  0  0  0  0  0  0  0  0  0  0  0
  191.2630  177.4340  147.3540 C   0  0  0  0  0  1  0  0  0  0  0  0
  190.5000  177.4900  148.5870 N   0  0  0  0  0  2  0  0  0  0  0  0
  190.6370  177.2910  142.6180 C   0  0  0  0  0  0  0  0  0  0  0  0
  190.2440  176.4040  143.9430 S   0  0  0  0  0  0  0  0  0  0  0  0
  191.1480  179.3390  143.9250 C   0  0  0  0  0  1  0  0  0  0  0  0
  191.1840  178.5750  142.7260 O   0  0  0  0  0  0  0  0  0  0  0  0
  191.0300  177.5120  140.2790 O   0  0  0  0  0  0  0  0  0  0  0  0
  190.6740  177.4850  138.9270 C   0  0  0  0  0  0  0  0  0  0  0  0
  189.7120  178.1860  138.5050 O   0  0  0  0  0  0  0  0  0  0  0  0
  191.4140  176.6100  137.9650 C   0  0  2  0  0  3  0  0  0  0  0  0
  190.6960  175.2860  137.7560 C   0  0  0  0  0  2  0  0  0  0  0  0
  190.9230  174.7940  136.3360 C   0  0  0  0  0  2  0  0  0  0  0  0
  184.8850  176.4990  137.1280 C   0  0  0  0  0  2  0  0  0  0  0  0
  189.6050  174.4910  135.6320 C   0  0  2  0  0  3  0  0  0  0  0  0
  186.3980  176.4080  137.2160 C   0  0  0  0  0  2  0  0  0  0  0  0
  183.4300  175.1230  138.3470 O   0  0  0  0  0  0  0  0  0  0  0  0
  188.1200  176.5340  135.6380 C   0  0  0  0  0  2  0  0  0  0  0  0
  184.4340  174.0280  135.3700 O   0  0  0  0  0  1  0  0  0  0  0  0
  184.6680  173.9240  136.7430 C   0  0  2  0  0  3  0  0  0  0  0  0
  184.2600  175.1820  137.4570 C   0  0  0  0  0  0  0  0  0  0  0  0
  186.1250  173.5710  137.0450 C   0  0  0  0  0  2  0  0  0  0  0  0
  187.1610  174.3220  136.1900 C   0  0  2  0  0  3  0  0  0  0  0  0
  189.1050  175.6980  134.8210 C   0  0  0  0  0  2  0  0  0  0  0  0
  188.5800  174.0150  136.6660 C   0  0  0  0  0  2  0  0  0  0  0  0
  186.9120  175.7800  136.0020 N   0  0  1  0  0  0  0  0  0  0  0  0
  192.8760  176.4080  138.3460 C   0  0  0  0  0  2  0  0  0  0  0  0
  193.1720  175.0500  138.5150 O   0  0  0  0  0  0  0  0  0  0  0  0
  194.9760  176.1700  136.7220 O   0  0  0  0  0  1  0  0  0  0  0  0
  194.5870  174.7870  137.6170 P   0  0  2  0  0  0  0  0  0  0  0  0
  194.3670  173.6320  136.6670 O   0  0  0  0  0  0  0  0  0  0  0  0
  195.8870  175.2400  139.9150 N   0  0  0  0  0  1  0  0  0  0  0  0
  195.9580  174.3910  138.7390 C   0  0  0  0  0  2  0  0  0  0  0  0
  1  4  1  6  0  0  0
  1 30  1  0  0  0  0
  3  2  2  0  0  0  0
  4  3  2  0  0  0  0
  5  6  1  0  0  0  0
  5  2  1  0  0  0  0
  6  7  1  6  0  0  0
  9  8  2  0  0  0  0
  9  7  1  0  0  0  0
 11 10  1  6  0  0  0
 11 12  1  0  0  0  0
 11  9  1  0  0  0  0
 13 12  1  0  0  0  0
 14 13  1  0  0  0  0
 16 15  1  0  0  0  0
 16 14  1  0  0  0  0
 17 20  1  1  0  0  0
 18  6  1  6  0  0  0
 18 19  1  0  0  0  0
 18 17  1  0  0  0  0
 19 17  1  0  0  0  0
 20 21  1  0  0  0  0
 22 21  1  6  0  0  0
 22 24  1  0  0  0  0
 23 26  1  0  0  0  0
 24 26  2  0  0  0  0
 25 29  1  0  0  0  0
 26 25  1  0  0  0  0
 27 22  1  0  0  0  0
 27 23  1  0  0  0  0
 28 29  1  0  0  0  0
 30 33  1  0  0  0  0
 30 31  2  0  0  0  0
 33 32  1  0  0  0  0
 34  1  1  0  0  0  0
 35 34  1  0  0  0  0
 36 35  2  0  0  0  0
 37 38  1  1  0  0  0
 37 53  1  0  0  0  0
 37 35  1  0  0  0  0
 39 38  1  0  0  0  0
 40 42  1  0  0  0  0
 40 47  1  0  0  0  0
 41 39  1  1  0  0  0
 41 51  1  0  0  0  0
 46 45  1  6  0  0  0
 46 48  1  0  0  0  0
 46 47  1  0  0  0  0
 47 43  2  0  0  0  0
 49 51  1  1  0  0  0
 49 48  1  0  0  0  0
 50 41  1  0  0  0  0
 50 44  1  0  0  0  0
 52 44  1  1  0  0  0
 52 49  1  0  0  0  0
 52 42  1  0  0  0  0
 53 54  1  0  0  0  0
 55 56  1  0  0  0  0
 56 57  2  6  0  0  0
 56 54  1  0  0  0  0
 56 59  1  0  0  0  0
 59 58  1  0  0  0  0
M  END
>  <MODEL>
3

>  <REMARK>
 VINA RESULT:      -5.1      1.847      2.296
  Name = 
  26 active torsions:
  status: ('A' for Active; 'I' for Inactive)
    1  A    between atoms: C_2  and  O_20
    2  A    between atoms: C_2  and  C_24
    3  A    between atoms: C_4  and  O_6
    4  A    between atoms: O_6  and  C_44
    5  A    between atoms: C_9  and  C_48
    6  A    between atoms: C_10  and  C_40
    7  A    between atoms: C_10  and  O_41
    8  A    between atoms: C_12  and  C_59
    9  A    between atoms: C_15  and  C_30
   10  A    between atoms: C_15  and  C_51
   11  A    between atoms: O_18  and  C_19
   12  A    between atoms: O_18  and  C_40
   13  A    between atoms: C_19  and  C_24
   14  A    between atoms: O_20  and  P_53
   15  A    between atoms: C_21  and  O_31
   16  A    between atoms: C_23  and  C_44
   17  A    between atoms: C_24  and  C_56
   18  A    between atoms: C_30  and  C_46
   19  A    between atoms: O_31  and  C_59
   20  A    between atoms: N_32  and  N_39
   21  A    between atoms: N_34  and  C_59
   22  A    between atoms: C_37  and  C_46
   23  A    between atoms: C_37  and  C_57
   24  A    between atoms: C_40  and  C_47
   25  A    between atoms: C_48  and  C_56
   26  A    between atoms: P_53  and  C_54
                            x       y       z     vdW  Elec       q    Type
                         _______ _______ _______ _____ _____    ______ ____

>  <TORSDO>
F 26

$$$$
=
 OpenBabel11062416103D

 59 62  0  0  1  0  0  0  0  0999 V2000
  191.2510  177.7890  142.5410 C   0  0  2  0  0  3  0  0  0  0  0  0
  192.9920  177.5540  139.3920 C   0  0  0  0  0  3  0  0  0  0  0  0
  192.2370  177.2050  140.4030 C   0  0  0  0  0  0  0  0  0  0  0  0
  191.4900  176.8450  141.4080 C   0  0  0  0  0  3  0  0  0  0  0  0
  193.9990  176.7220  138.8940 O   0  0  0  0  0  0  0  0  0  0  0  0
  193.7290  175.4800  138.2550 C   0  0  2  0  0  3  0  0  0  0  0  0
  194.9380  175.0240  137.5760 N   0  0  0  0  0  2  0  0  0  0  0  0
  195.3880  173.2710  139.0580 O   0  0  0  0  0  0  0  0  0  0  0  0
  195.7060  173.9000  138.0110 C   0  0  0  0  0  0  0  0  0  0  0  0
  198.1810  173.8350  137.7490 C   0  0  0  0  0  1  0  0  0  0  0  0
  196.8400  173.4320  137.1600 C   0  0  1  0  0  3  0  0  0  0  0  0
  196.7690  171.9230  136.9880 C   0  0  0  0  0  2  0  0  0  0  0  0
  195.8300  171.5540  135.8490 C   0  0  0  0  0  2  0  0  0  0  0  0
  194.8600  170.4510  136.2570 C   0  0  0  0  0  2  0  0  0  0  0  0
  193.1220  171.1910  134.6220 C   0  0  0  0  0  1  0  0  0  0  0  0
  193.4160  170.8940  136.0820 C   0  0  0  0  0  2  0  0  0  0  0  0
  191.8080  174.3650  137.0990 C   0  0  2  0  0  3  0  0  0  0  0  0
  192.6080  175.6510  137.2380 C   0  0  2  0  0  3  0  0  0  0  0  0
  192.8570  174.7230  136.0680 C   0  0  0  0  0  2  0  0  0  0  0  0
  190.5410  174.6660  136.5920 O   0  0  0  0  0  0  0  0  0  0  0  0
  190.2820  173.6930  135.6190 C   0  0  0  0  0  2  0  0  0  0  0  0
  188.7890  173.6130  135.3450 C   0  0  2  0  0  3  0  0  0  0  0  0
  186.5380  174.2400  136.4290 C   0  0  0  0  0  2  0  0  0  0  0  0
  188.2740  174.9150  134.9670 N   0  0  0  0  0  0  0  0  0  0  0  0
  186.4960  176.4540  135.1610 N   0  0  0  0  0  2  0  0  0  0  0  0
  187.1280  175.2120  135.4760 C   0  0  0  0  0  0  0  0  0  0  0  0
  187.8710  173.0680  136.8240 S   0  0  0  0  0  0  0  0  0  0  0  0
  184.3740  177.1220  134.6320 C   0  0  0  0  0  1  0  0  0  0  0  0
  185.2680  176.8110  135.7320 N   0  0  0  0  0  2  0  0  0  0  0  0
  191.2760  177.0430  143.8330 C   0  0  0  0  0  0  0  0  0  0  0  0
  191.5320  175.4210  143.8090 S   0  0  0  0  0  0  0  0  0  0  0  0
  191.2090  177.1480  146.3120 C   0  0  0  0  0  1  0  0  0  0  0  0
  191.0500  177.7370  145.0280 O   0  0  0  0  0  0  0  0  0  0  0  0
  189.9920  178.4350  142.3890 O   0  0  0  0  0  0  0  0  0  0  0  0
  189.0180  177.9920  141.4890 C   0  0  0  0  0  0  0  0  0  0  0  0
  189.2850  177.8810  140.2600 O   0  0  0  0  0  0  0  0  0  0  0  0
  187.6380  177.6620  141.9660 C   0  0  2  0  0  3  0  0  0  0  0  0
  186.6690  178.8010  141.6890 C   0  0  0  0  0  2  0  0  0  0  0  0
  185.8540  178.4930  140.4440 C   0  0  0  0  0  2  0  0  0  0  0  0
  180.5840  177.9580  136.9910 C   0  0  0  0  0  2  0  0  0  0  0  0
  184.3860  178.8630  140.6330 C   0  0  2  0  0  3  0  0  0  0  0  0
  182.0000  177.8220  137.5200 C   0  0  0  0  0  2  0  0  0  0  0  0
  179.8600  179.7570  135.6720 O   0  0  0  0  0  0  0  0  0  0  0  0
  182.9030  177.1220  139.5610 C   0  0  0  0  0  2  0  0  0  0  0  0
  179.6140  180.0860  138.9740 O   0  0  0  0  0  1  0  0  0  0  0  0
  180.4020  180.4120  137.8670 C   0  0  2  0  0  3  0  0  0  0  0  0
  180.2410  179.3960  136.7710 C   0  0  0  0  0  0  0  0  0  0  0  0
  181.8740  180.5790  138.2480 C   0  0  0  0  0  2  0  0  0  0  0  0
  182.4100  179.5230  139.2300 C   0  0  2  0  0  3  0  0  0  0  0  0
  183.5150  177.6170  140.8710 C   0  0  0  0  0  2  0  0  0  0  0  0
  183.9160  179.6850  139.4290 C   0  0  0  0  0  2  0  0  0  0  0  0
  182.0070  178.1150  138.9510 N   0  0  1  0  0  0  0  0  0  0  0  0
  187.6010  177.2290  143.4280 C   0  0  0  0  0  2  0  0  0  0  0  0
  186.2870  177.1880  143.9090 O   0  0  0  0  0  0  0  0  0  0  0  0
  187.9260  178.4390  145.7730 O   0  0  0  0  0  0  0  0  0  0  0  0
  186.3460  177.9400  145.4290 P   0  0  2  0  0  0  0  0  0  0  0  0
  185.9000  176.9580  146.4890 O   0  0  0  0  0  1  0  0  0  0  0  0
  183.9270  178.9850  145.9100 N   0  0  0  0  0  1  0  0  0  0  0  0
  185.2430  179.3820  145.4420 C   0  0  0  0  0  2  0  0  0  0  0  0
  1  4  1  6  0  0  0
  1 30  1  0  0  0  0
  2  3  2  0  0  0  0
  3  4  2  0  0  0  0
  5  2  1  0  0  0  0
  6  7  1  6  0  0  0
  6  5  1  0  0  0  0
  7  9  1  0  0  0  0
  9  8  2  0  0  0  0
 11 10  1  1  0  0  0
 11  9  1  0  0  0  0
 12 11  1  0  0  0  0
 13 14  1  0  0  0  0
 13 12  1  0  0  0  0
 15 16  1  0  0  0  0
 16 14  1  0  0  0  0
 17 20  1  6  0  0  0
 17 18  1  0  0  0  0
 18  6  1  1  0  0  0
 19 17  1  0  0  0  0
 19 18  1  0  0  0  0
 21 20  1  0  0  0  0
 22 21  1  1  0  0  0
 22 27  1  0  0  0  0
 23 27  1  0  0  0  0
 24 22  1  0  0  0  0
 24 26  2  0  0  0  0
 25 26  1  0  0  0  0
 25 29  1  0  0  0  0
 26 23  1  0  0  0  0
 28 29  1  0  0  0  0
 30 33  1  0  0  0  0
 31 30  2  0  0  0  0
 33 32  1  0  0  0  0
 34  1  1  0  0  0  0
 35 37  1  0  0  0  0
 35 34  1  0  0  0  0
 36 35  2  0  0  0  0
 37 38  1  1  0  0  0
 37 53  1  0  0  0  0
 39 38  1  0  0  0  0
 40 42  1  0  0  0  0
 41 39  1  6  0  0  0
 41 50  1  0  0  0  0
 43 47  2  0  0  0  0
 44 50  1  0  0  0  0
 46 48  1  0  0  0  0
 46 45  1  1  0  0  0
 47 40  1  0  0  0  0
 47 46  1  0  0  0  0
 49 48  1  6  0  0  0
 49 51  1  0  0  0  0
 51 41  1  0  0  0  0
 52 42  1  6  0  0  0
 52 49  1  0  0  0  0
 52 44  1  0  0  0  0
 53 54  1  0  0  0  0
 54 56  1  0  0  0  0
 56 59  1  0  0  0  0
 56 55  2  1  0  0  0
 56 57  1  0  0  0  0
 59 58  1  0  0  0  0
M  END
>  <MODEL>
4

>  <REMARK>
 VINA RESULT:      -5.0      3.438     10.490
  Name = 
  26 active torsions:
  status: ('A' for Active; 'I' for Inactive)
    1  A    between atoms: C_2  and  O_20
    2  A    between atoms: C_2  and  C_24
    3  A    between atoms: C_4  and  O_6
    4  A    between atoms: O_6  and  C_44
    5  A    between atoms: C_9  and  C_48
    6  A    between atoms: C_10  and  C_40
    7  A    between atoms: C_10  and  O_41
    8  A    between atoms: C_12  and  C_59
    9  A    between atoms: C_15  and  C_30
   10  A    between atoms: C_15  and  C_51
   11  A    between atoms: O_18  and  C_19
   12  A    between atoms: O_18  and  C_40
   13  A    between atoms: C_19  and  C_24
   14  A    between atoms: O_20  and  P_53
   15  A    between atoms: C_21  and  O_31
   16  A    between atoms: C_23  and  C_44
   17  A    between atoms: C_24  and  C_56
   18  A    between atoms: C_30  and  C_46
   19  A    between atoms: O_31  and  C_59
   20  A    between atoms: N_32  and  N_39
   21  A    between atoms: N_34  and  C_59
   22  A    between atoms: C_37  and  C_46
   23  A    between atoms: C_37  and  C_57
   24  A    between atoms: C_40  and  C_47
   25  A    between atoms: C_48  and  C_56
   26  A    between atoms: P_53  and  C_54
                            x       y       z     vdW  Elec       q    Type
                         _______ _______ _______ _____ _____    ______ ____

>  <TORSDO>
F 26

$$$$
=
 OpenBabel11062416103D

 59 62  0  0  1  0  0  0  0  0999 V2000
  187.0810  178.3210  138.6050 C   0  0  2  0  0  3  0  0  0  0  0  0
  189.4750  177.5930  141.2000 C   0  0  0  0  0  3  0  0  0  0  0  0
  188.4750  177.4200  140.3740 C   0  0  0  0  0  0  0  0  0  0  0  0
  187.4730  177.2410  139.5600 C   0  0  0  0  0  3  0  0  0  0  0  0
  189.3770  177.2880  142.5610 O   0  0  0  0  0  0  0  0  0  0  0  0
  188.3870  177.8580  143.4110 C   0  0  2  0  0  3  0  0  0  0  0  0
  188.5750  177.3470  144.7650 N   0  0  0  0  0  2  0  0  0  0  0  0
  190.5090  178.5840  145.2130 O   0  0  0  0  0  0  0  0  0  0  0  0
  189.6380  177.7680  145.6230 C   0  0  0  0  0  0  0  0  0  0  0  0
  189.9120  178.4330  148.0060 C   0  0  0  0  0  1  0  0  0  0  0  0
  189.6500  177.2920  147.0380 C   0  0  1  0  0  3  0  0  0  0  0  0
  188.3310  176.6110  147.3660 C   0  0  0  0  0  2  0  0  0  0  0  0
  187.3820  177.5790  148.0580 C   0  0  0  0  0  2  0  0  0  0  0  0
  186.0420  177.6640  147.3370 C   0  0  0  0  0  2  0  0  0  0  0  0
  186.5170  180.0720  147.7990 C   0  0  0  0  0  1  0  0  0  0  0  0
  185.7070  179.0980  146.9620 C   0  0  0  0  0  2  0  0  0  0  0  0
  186.0130  178.6160  143.1730 C   0  0  2  0  0  3  0  0  0  0  0  0
  186.9970  177.4850  142.9130 C   0  0  2  0  0  3  0  0  0  0  0  0
  186.0530  177.4150  144.0940 C   0  0  0  0  0  2  0  0  0  0  0  0
  184.9300  178.4900  142.2980 O   0  0  0  0  0  0  0  0  0  0  0  0
  183.8470  179.0950  142.9470 C   0  0  0  0  0  2  0  0  0  0  0  0
  182.5820  178.2850  142.7190 C   0  0  2  0  0  3  0  0  0  0  0  0
  180.2060  178.5480  141.7550 C   0  0  0  0  0  2  0  0  0  0  0  0
  182.4520  177.9350  141.3170 N   0  0  0  0  0  0  0  0  0  0  0  0
  180.9860  177.6820  139.4850 N   0  0  0  0  0  2  0  0  0  0  0  0
  181.2560  178.0260  140.8460 C   0  0  0  0  0  0  0  0  0  0  0  0
  181.0950  179.2330  143.1870 S   0  0  0  0  0  0  0  0  0  0  0  0
  179.7250  178.9800  138.0880 C   0  0  0  0  0  1  0  0  0  0  0  0
  179.7010  177.8080  138.9430 N   0  0  0  0  0  2  0  0  0  0  0  0
  185.5940  178.4080  138.5240 C   0  0  0  0  0  0  0  0  0  0  0  0
  184.7840  177.3260  137.5900 S   0  0  0  0  0  0  0  0  0  0  0  0
  183.6510  179.9220  138.8380 C   0  0  0  0  0  1  0  0  0  0  0  0
  184.9290  179.4250  139.2180 O   0  0  0  0  0  0  0  0  0  0  0  0
  187.6130  178.0540  137.3120 O   0  0  0  0  0  0  0  0  0  0  0  0
  188.9820  177.8890  137.0760 C   0  0  0  0  0  0  0  0  0  0  0  0
  189.7060  178.8830  136.7880 O   0  0  0  0  0  0  0  0  0  0  0  0
  189.6040  176.5300  137.1400 C   0  0  2  0  0  3  0  0  0  0  0  0
  191.1030  176.6180  137.3800 C   0  0  0  0  0  2  0  0  0  0  0  0
  191.8490  175.9680  136.2260 C   0  0  0  0  0  2  0  0  0  0  0  0
  196.8970  172.2460  135.4190 C   0  0  0  0  0  2  0  0  0  0  0  0
  193.3580  176.1320  136.3730 C   0  0  2  0  0  3  0  0  0  0  0  0
  195.4910  172.8180  135.4080 C   0  0  0  0  0  2  0  0  0  0  0  0
  197.8210  171.1110  137.2520 O   0  0  0  0  0  0  0  0  0  0  0  0
  194.5600  174.8030  134.5940 C   0  0  0  0  0  2  0  0  0  0  0  0
  198.2030  174.4150  137.1480 O   0  0  0  0  0  1  0  0  0  0  0  0
  197.4360  173.3890  137.7060 C   0  0  2  0  0  3  0  0  0  0  0  0
  197.4250  172.1780  136.8160 C   0  0  0  0  0  0  0  0  0  0  0  0
  196.0110  173.8510  138.0180 C   0  0  0  0  0  2  0  0  0  0  0  0
  195.3650  174.7290  136.9320 C   0  0  2  0  0  3  0  0  0  0  0  0
  194.0580  176.1870  135.0050 C   0  0  0  0  0  2  0  0  0  0  0  0
  193.9010  175.0120  137.2650 C   0  0  0  0  0  2  0  0  0  0  0  0
  195.5640  174.2720  135.5260 N   0  0  1  0  0  0  0  0  0  0  0  0
  189.2730  175.6650  135.9290 C   0  0  0  0  0  2  0  0  0  0  0  0
  188.0490  176.0380  135.3610 O   0  0  0  0  0  0  0  0  0  0  0  0
  187.8110  173.3770  134.5940 O   0  0  0  0  0  0  0  0  0  0  0  0
  187.0790  174.6480  135.4400 P   0  0  2  0  0  0  0  0  0  0  0  0
  185.7340  174.9430  134.8150 O   0  0  0  0  0  1  0  0  0  0  0  0
  185.6890  173.2910  137.2840 N   0  0  0  0  0  1  0  0  0  0  0  0
  186.8460  174.1620  137.1730 C   0  0  0  0  0  2  0  0  0  0  0  0
  1  4  1  1  0  0  0
  2  5  1  0  0  0  0
  3  2  2  0  0  0  0
  4  3  2  0  0  0  0
  6  5  1  6  0  0  0
  6  7  1  0  0  0  0
  7  9  1  0  0  0  0
  8  9  2  0  0  0  0
  9 11  1  0  0  0  0
 11 12  1  0  0  0  0
 11 10  1  1  0  0  0
 12 13  1  0  0  0  0
 14 13  1  0  0  0  0
 16 14  1  0  0  0  0
 16 15  1  0  0  0  0
 17 20  1  6  0  0  0
 17 19  1  0  0  0  0
 18 17  1  0  0  0  0
 18  6  1  1  0  0  0
 18 19  1  0  0  0  0
 20 21  1  0  0  0  0
 22 21  1  6  0  0  0
 22 27  1  0  0  0  0
 23 27  1  0  0  0  0
 24 22  1  0  0  0  0
 25 26  1  0  0  0  0
 26 24  2  0  0  0  0
 26 23  1  0  0  0  0
 28 29  1  0  0  0  0
 29 25  1  0  0  0  0
 30  1  1  0  0  0  0
 30 33  1  0  0  0  0
 31 30  2  0  0  0  0
 32 33  1  0  0  0  0
 34  1  1  0  0  0  0
 35 37  1  0  0  0  0
 35 34  1  0  0  0  0
 36 35  2  0  0  0  0
 37 53  1  6  0  0  0
 37 38  1  0  0  0  0
 39 38  1  0  0  0  0
 40 47  1  0  0  0  0
 41 39  1  6  0  0  0
 41 51  1  0  0  0  0
 42 40  1  0  0  0  0
 42 52  1  0  0  0  0
 44 50  1  0  0  0  0
 46 45  1  6  0  0  0
 46 48  1  0  0  0  0
 47 43  2  0  0  0  0
 47 46  1  0  0  0  0
 49 51  1  1  0  0  0
 49 48  1  0  0  0  0
 50 41  1  0  0  0  0
 52 44  1  6  0  0  0
 52 49  1  0  0  0  0
 54 56  1  0  0  0  0
 54 53  1  0  0  0  0
 56 55  2  6  0  0  0
 56 59  1  0  0  0  0
 57 56  1  0  0  0  0
 59 58  1  0  0  0  0
M  END
>  <MODEL>
5

>  <REMARK>
 VINA RESULT:      -4.3      3.048      9.114
  Name = 
  26 active torsions:
  status: ('A' for Active; 'I' for Inactive)
    1  A    between atoms: C_2  and  O_20
    2  A    between atoms: C_2  and  C_24
    3  A    between atoms: C_4  and  O_6
    4  A    between atoms: O_6  and  C_44
    5  A    between atoms: C_9  and  C_48
    6  A    between atoms: C_10  and  C_40
    7  A    between atoms: C_10  and  O_41
    8  A    between atoms: C_12  and  C_59
    9  A    between atoms: C_15  and  C_30
   10  A    between atoms: C_15  and  C_51
   11  A    between atoms: O_18  and  C_19
   12  A    between atoms: O_18  and  C_40
   13  A    between atoms: C_19  and  C_24
   14  A    between atoms: O_20  and  P_53
   15  A    between atoms: C_21  and  O_31
   16  A    between atoms: C_23  and  C_44
   17  A    between atoms: C_24  and  C_56
   18  A    between atoms: C_30  and  C_46
   19  A    between atoms: O_31  and  C_59
   20  A    between atoms: N_32  and  N_39
   21  A    between atoms: N_34  and  C_59
   22  A    between atoms: C_37  and  C_46
   23  A    between atoms: C_37  and  C_57
   24  A    between atoms: C_40  and  C_47
   25  A    between atoms: C_48  and  C_56
   26  A    between atoms: P_53  and  C_54
                            x       y       z     vdW  Elec       q    Type
                         _______ _______ _______ _____ _____    ______ ____

>  <TORSDO>
F 26

$$$$
=
 OpenBabel11062416103D

 59 62  0  0  1  0  0  0  0  0999 V2000
  187.3380  178.3180  143.8560 C   0  0  2  0  0  3  0  0  0  0  0  0
  189.0690  177.6620  140.7620 C   0  0  0  0  0  3  0  0  0  0  0  0
  188.3880  178.3140  141.6690 C   0  0  0  0  0  0  0  0  0  0  0  0
  187.7040  178.9710  142.5630 C   0  0  0  0  0  3  0  0  0  0  0  0
  188.6900  177.6450  139.4160 O   0  0  0  0  0  0  0  0  0  0  0  0
  189.6310  177.6460  138.3480 C   0  0  2  0  0  3  0  0  0  0  0  0
  188.9610  177.2090  137.1280 N   0  0  0  0  0  2  0  0  0  0  0  0
  186.8090  177.1760  138.0430 O   0  0  0  0  0  0  0  0  0  0  0  0
  187.5480  177.0180  137.0320 C   0  0  0  0  0  0  0  0  0  0  0  0
  186.7830  177.9710  134.8630 C   0  0  0  0  0  1  0  0  0  0  0  0
  186.9530  176.7130  135.6980 C   0  0  1  0  0  3  0  0  0  0  0  0
  187.8200  175.7030  134.9630 C   0  0  0  0  0  2  0  0  0  0  0  0
  187.0290  174.4410  134.6490 C   0  0  0  0  0  2  0  0  0  0  0  0
  187.1130  173.4290  135.7850 C   0  0  0  0  0  2  0  0  0  0  0  0
  185.5410  172.6940  137.5820 C   0  0  0  0  0  1  0  0  0  0  0  0
  185.7530  172.8190  136.0830 C   0  0  0  0  0  2  0  0  0  0  0  0
  191.5750  176.3770  137.4100 C   0  0  2  0  0  3  0  0  0  0  0  0
  190.7800  176.6980  138.6670 C   0  0  2  0  0  3  0  0  0  0  0  0
  190.5560  175.3900  137.9390 C   0  0  0  0  0  2  0  0  0  0  0  0
  192.8570  175.9570  137.7740 O   0  0  0  0  0  0  0  0  0  0  0  0
  193.7280  176.5660  136.8630 C   0  0  0  0  0  2  0  0  0  0  0  0
  194.6400  175.5240  136.2360 C   0  0  2  0  0  3  0  0  0  0  0  0
  197.1290  175.1400  135.6910 C   0  0  0  0  0  2  0  0  0  0  0  0
  195.3860  174.8220  137.2630 N   0  0  0  0  0  0  0  0  0  0  0  0
  197.4580  173.8820  137.8870 N   0  0  0  0  0  2  0  0  0  0  0  0
  196.6200  174.5920  136.9730 C   0  0  0  0  0  0  0  0  0  0  0  0
  195.8510  176.2950  135.1100 S   0  0  0  0  0  0  0  0  0  0  0  0
  198.8850  172.3660  136.9420 C   0  0  0  0  0  1  0  0  0  0  0  0
  198.8110  173.6530  137.6080 N   0  0  0  0  0  2  0  0  0  0  0  0
  188.2360  177.1520  144.1040 C   0  0  0  0  0  0  0  0  0  0  0  0
  187.9760  175.7590  143.2730 S   0  0  0  0  0  0  0  0  0  0  0  0
  190.2570  178.2710  145.0120 C   0  0  0  0  0  1  0  0  0  0  0  0
  189.2550  177.2630  145.0570 O   0  0  0  0  0  0  0  0  0  0  0  0
  185.9850  177.8780  143.8230 O   0  0  0  0  0  0  0  0  0  0  0  0
  184.9210  178.7280  143.5060 C   0  0  0  0  0  0  0  0  0  0  0  0
  184.9100  179.9210  143.9210 O   0  0  0  0  0  0  0  0  0  0  0  0
  183.7700  178.2310  142.6890 C   0  0  2  0  0  3  0  0  0  0  0  0
  184.1280  178.1580  141.2130 C   0  0  0  0  0  2  0  0  0  0  0  0
  183.2050  179.0620  140.4130 C   0  0  0  0  0  2  0  0  0  0  0  0
  180.1530  175.4630  136.2020 C   0  0  0  0  0  2  0  0  0  0  0  0
  183.3250  178.7970  138.9160 C   0  0  2  0  0  3  0  0  0  0  0  0
  180.5490  176.2230  137.4560 C   0  0  0  0  0  2  0  0  0  0  0  0
  180.9830  173.3390  135.6570 O   0  0  0  0  0  0  0  0  0  0  0  0
  181.0370  178.4670  137.9000 C   0  0  0  0  0  2  0  0  0  0  0  0
  182.7120  175.9760  134.5940 O   0  0  0  0  0  1  0  0  0  0  0  0
  182.6500  174.9990  135.5910 C   0  0  2  0  0  3  0  0  0  0  0  0
  181.2400  174.5220  135.7940 C   0  0  0  0  0  0  0  0  0  0  0  0
  183.2540  175.4950  136.9070 C   0  0  0  0  0  2  0  0  0  0  0  0
  182.8820  176.9390  137.2840 C   0  0  2  0  0  3  0  0  0  0  0  0
  182.1790  179.4560  138.1300 C   0  0  0  0  0  2  0  0  0  0  0  0
  183.4070  177.2870  138.6770 C   0  0  0  0  0  2  0  0  0  0  0  0
  181.4510  177.3120  137.0910 N   0  0  1  0  0  0  0  0  0  0  0  0
  182.4870  179.0220  142.9240 C   0  0  0  0  0  2  0  0  0  0  0  0
  181.8840  178.6600  144.1340 O   0  0  0  0  0  0  0  0  0  0  0  0
  179.3040  179.6590  144.4060 O   0  0  0  0  0  1  0  0  0  0  0  0
  180.2480  178.4120  143.7590 P   0  0  2  0  0  0  0  0  0  0  0  0
  179.7960  177.0960  144.3500 O   0  0  0  0  0  0  0  0  0  0  0  0
  178.9420  177.4720  141.6170 N   0  0  0  0  0  1  0  0  0  0  0  0
  180.0330  178.3680  141.9570 C   0  0  0  0  0  2  0  0  0  0  0  0
  1  4  1  6  0  0  0
  1 30  1  0  0  0  0
  2  3  2  0  0  0  0
  3  4  2  0  0  0  0
  5  2  1  0  0  0  0
  6  7  1  6  0  0  0
  6  5  1  0  0  0  0
  9  7  1  0  0  0  0
  9  8  2  0  0  0  0
 11 10  1  6  0  0  0
 11  9  1  0  0  0  0
 12 11  1  0  0  0  0
 13 12  1  0  0  0  0
 13 14  1  0  0  0  0
 14 16  1  0  0  0  0
 16 15  1  0  0  0  0
 17 20  1  1  0  0  0
 17 19  1  0  0  0  0
 17 18  1  0  0  0  0
 18  6  1  6  0  0  0
 19 18  1  0  0  0  0
 21 20  1  0  0  0  0
 22 21  1  1  0  0  0
 22 24  1  0  0  0  0
 23 26  1  0  0  0  0
 26 24  2  0  0  0  0
 26 25  1  0  0  0  0
 27 23  1  0  0  0  0
 27 22  1  0  0  0  0
 28 29  1  0  0  0  0
 29 25  1  0  0  0  0
 30 33  1  0  0  0  0
 31 30  2  0  0  0  0
 32 33  1  0  0  0  0
 34  1  1  0  0  0  0
 35 34  1  0  0  0  0
 35 36  2  0  0  0  0
 37 38  1  6  0  0  0
 37 53  1  0  0  0  0
 37 35  1  0  0  0  0
 39 38  1  0  0  0  0
 40 42  1  0  0  0  0
 41 39  1  1  0  0  0
 43 47  2  0  0  0  0
 44 50  1  0  0  0  0
 46 45  1  6  0  0  0
 46 47  1  0  0  0  0
 46 48  1  0  0  0  0
 47 40  1  0  0  0  0
 49 48  1  1  0  0  0
 49 51  1  0  0  0  0
 50 41  1  0  0  0  0
 51 41  1  0  0  0  0
 52 49  1  0  0  0  0
 52 42  1  1  0  0  0
 52 44  1  0  0  0  0
 53 54  1  0  0  0  0
 56 54  1  0  0  0  0
 56 57  2  1  0  0  0
 56 55  1  0  0  0  0
 58 59  1  0  0  0  0
 59 56  1  0  0  0  0
M  END
>  <MODEL>
6

>  <REMARK>
 VINA RESULT:      -4.2      3.763      9.011
  Name = 
  26 active torsions:
  status: ('A' for Active; 'I' for Inactive)
    1  A    between atoms: C_2  and  O_20
    2  A    between atoms: C_2  and  C_24
    3  A    between atoms: C_4  and  O_6
    4  A    between atoms: O_6  and  C_44
    5  A    between atoms: C_9  and  C_48
    6  A    between atoms: C_10  and  C_40
    7  A    between atoms: C_10  and  O_41
    8  A    between atoms: C_12  and  C_59
    9  A    between atoms: C_15  and  C_30
   10  A    between atoms: C_15  and  C_51
   11  A    between atoms: O_18  and  C_19
   12  A    between atoms: O_18  and  C_40
   13  A    between atoms: C_19  and  C_24
   14  A    between atoms: O_20  and  P_53
   15  A    between atoms: C_21  and  O_31
   16  A    between atoms: C_23  and  C_44
   17  A    between atoms: C_24  and  C_56
   18  A    between atoms: C_30  and  C_46
   19  A    between atoms: O_31  and  C_59
   20  A    between atoms: N_32  and  N_39
   21  A    between atoms: N_34  and  C_59
   22  A    between atoms: C_37  and  C_46
   23  A    between atoms: C_37  and  C_57
   24  A    between atoms: C_40  and  C_47
   25  A    between atoms: C_48  and  C_56
   26  A    between atoms: P_53  and  C_54
                            x       y       z     vdW  Elec       q    Type
                         _______ _______ _______ _____ _____    ______ ____

>  <TORSDO>
F 26

$$$$
=
 OpenBabel11062416103D

 59 62  0  0  1  0  0  0  0  0999 V2000
  184.9880  177.6280  136.8720 C   0  0  2  0  0  3  0  0  0  0  0  0
  182.8610  179.8680  138.7300 C   0  0  0  0  0  3  0  0  0  0  0  0
  183.8550  179.0580  138.4700 C   0  0  0  0  0  0  0  0  0  0  0  0
  184.8450  178.2460  138.2230 C   0  0  0  0  0  3  0  0  0  0  0  0
  182.0790  179.7410  139.8820 O   0  0  0  0  0  0  0  0  0  0  0  0
  181.9480  178.5160  140.5950 C   0  0  2  0  0  3  0  0  0  0  0  0
  183.1550  178.2980  141.3860 N   0  0  0  0  0  2  0  0  0  0  0  0
  182.2350  179.0150  143.4140 O   0  0  0  0  0  0  0  0  0  0  0  0
  183.2260  178.5410  142.7930 C   0  0  0  0  0  0  0  0  0  0  0  0
  185.6100  177.8570  142.5730 C   0  0  0  0  0  1  0  0  0  0  0  0
  184.4630  178.1440  143.5280 C   0  0  1  0  0  3  0  0  0  0  0  0
  184.8530  179.2360  144.5110 C   0  0  0  0  0  2  0  0  0  0  0  0
  184.8710  178.6980  145.9350 C   0  0  0  0  0  2  0  0  0  0  0  0
  186.0110  177.7090  146.1480 C   0  0  0  0  0  2  0  0  0  0  0  0
  188.3540  177.9030  146.9910 C   0  0  0  0  0  1  0  0  0  0  0  0
  186.8870  178.1200  147.3200 C   0  0  0  0  0  2  0  0  0  0  0  0
  180.5850  176.4920  140.0300 C   0  0  2  0  0  3  0  0  0  0  0  0
  181.7630  177.3620  139.6180 C   0  0  2  0  0  3  0  0  0  0  0  0
  182.0010  176.0560  140.3450 C   0  0  0  0  0  2  0  0  0  0  0  0
  180.1230  175.7880  138.9150 O   0  0  0  0  0  0  0  0  0  0  0  0
  179.6500  174.5670  139.4090 C   0  0  0  0  0  2  0  0  0  0  0  0
  179.1050  173.7190  138.2710 C   0  0  2  0  0  3  0  0  0  0  0  0
  179.5670  173.1980  135.7900 C   0  0  0  0  0  2  0  0  0  0  0  0
  179.9630  172.5720  138.0390 N   0  0  0  0  0  0  0  0  0  0  0  0
  180.9640  171.1620  136.4340 N   0  0  0  0  0  2  0  0  0  0  0  0
  180.1600  172.2860  136.7990 C   0  0  0  0  0  0  0  0  0  0  0  0
  179.0270  174.6680  136.7150 S   0  0  0  0  0  0  0  0  0  0  0  0
  182.6550  170.9600  134.9080 C   0  0  0  0  0  1  0  0  0  0  0  0
  181.2200  170.8550  135.0920 N   0  0  0  0  0  2  0  0  0  0  0  0
  183.9440  176.5780  136.6840 C   0  0  0  0  0  0  0  0  0  0  0  0
  182.3990  177.0420  136.3760 S   0  0  0  0  0  0  0  0  0  0  0  0
  183.5030  174.2740  137.4940 C   0  0  0  0  0  1  0  0  0  0  0  0
  184.2990  175.2300  136.8060 O   0  0  0  0  0  0  0  0  0  0  0  0
  186.2790  177.0460  136.7280 O   0  0  0  0  0  0  0  0  0  0  0  0
  187.4220  177.5830  137.3290 C   0  0  0  0  0  0  0  0  0  0  0  0
  187.3660  178.6890  137.9350 O   0  0  0  0  0  0  0  0  0  0  0  0
  188.7320  176.8650  137.2450 C   0  0  2  0  0  3  0  0  0  0  0  0
  188.6900  175.7550  136.2060 C   0  0  0  0  0  2  0  0  0  0  0  0
  189.7290  174.6970  136.5390 C   0  0  0  0  0  2  0  0  0  0  0  0
  195.6810  173.4800  134.7840 C   0  0  0  0  0  2  0  0  0  0  0  0
  191.0940  175.3210  136.8110 C   0  0  2  0  0  3  0  0  0  0  0  0
  194.1670  173.4910  134.8940 C   0  0  0  0  0  2  0  0  0  0  0  0
  197.0720  172.1990  136.1700 O   0  0  0  0  0  0  0  0  0  0  0  0
  192.5480  175.1740  134.7520 C   0  0  0  0  0  2  0  0  0  0  0  0
  196.2760  175.2590  137.2090 O   0  0  0  0  0  1  0  0  0  0  0  0
  195.9560  173.9060  137.3460 C   0  0  2  0  0  3  0  0  0  0  0  0
  196.3000  173.1390  136.1010 C   0  0  0  0  0  0  0  0  0  0  0  0
  194.4860  173.7060  137.7230 C   0  0  0  0  0  2  0  0  0  0  0  0
  193.4980  174.6100  136.9650 C   0  0  2  0  0  3  0  0  0  0  0  0
  191.6290  176.0710  135.5800 C   0  0  0  0  0  2  0  0  0  0  0  0
  192.0550  174.2330  137.2990 C   0  0  0  0  0  2  0  0  0  0  0  0
  193.7400  174.7500  135.5000 N   0  0  1  0  0  0  0  0  0  0  0  0
  189.2220  176.3580  138.5970 C   0  0  0  0  0  2  0  0  0  0  0  0
  188.5830  177.0260  139.6490 O   0  0  0  0  0  0  0  0  0  0  0  0
  189.9940  176.1570  141.8810 O   0  0  0  0  0  1  0  0  0  0  0  0
  189.8170  177.4040  140.7500 P   0  0  2  0  0  0  0  0  0  0  0  0
  189.4610  178.6800  141.4780 O   0  0  0  0  0  0  0  0  0  0  0  0
  192.4370  176.8890  140.5250 N   0  0  0  0  0  1  0  0  0  0  0  0
  191.3820  177.6350  139.8600 C   0  0  0  0  0  2  0  0  0  0  0  0
  1  4  1  1  0  0  0
  2  5  1  0  0  0  0
  3  2  2  0  0  0  0
  4  3  2  0  0  0  0
  6  5  1  6  0  0  0
  6  7  1  0  0  0  0
  7  9  1  0  0  0  0
  9  8  2  0  0  0  0
  9 11  1  0  0  0  0
 11 10  1  6  0  0  0
 11 12  1  0  0  0  0
 12 13  1  0  0  0  0
 13 14  1  0  0  0  0
 14 16  1  0  0  0  0
 15 16  1  0  0  0  0
 17 20  1  6  0  0  0
 17 19  1  0  0  0  0
 18 17  1  0  0  0  0
 18 19  1  0  0  0  0
 18  6  1  1  0  0  0
 20 21  1  0  0  0  0
 22 21  1  1  0  0  0
 23 27  1  0  0  0  0
 23 26  1  0  0  0  0
 24 22  1  0  0  0  0
 25 26  1  0  0  0  0
 26 24  2  0  0  0  0
 27 22  1  0  0  0  0
 28 29  1  0  0  0  0
 29 25  1  0  0  0  0
 30 33  1  0  0  0  0
 30  1  1  0  0  0  0
 31 30  2  0  0  0  0
 33 32  1  0  0  0  0
 34  1  1  0  0  0  0
 34 35  1  0  0  0  0
 35 36  2  0  0  0  0
 37 38  1  6  0  0  0
 37 35  1  0  0  0  0
 37 53  1  0  0  0  0
 38 39  1  0  0  0  0
 40 42  1  0  0  0  0
 40 47  1  0  0  0  0
 41 39  1  6  0  0  0
 41 51  1  0  0  0  0
 42 52  1  0  0  0  0
 44 50  1  0  0  0  0
 46 45  1  6  0  0  0
 46 48  1  0  0  0  0
 47 43  2  0  0  0  0
 47 46  1  0  0  0  0
 49 51  1  6  0  0  0
 49 48  1  0  0  0  0
 50 41  1  0  0  0  0
 52 44  1  6  0  0  0
 52 49  1  0  0  0  0
 53 54  1  0  0  0  0
 54 56  1  0  0  0  0
 56 57  2  1  0  0  0
 56 55  1  0  0  0  0
 59 58  1  0  0  0  0
 59 56  1  0  0  0  0
M  END
>  <MODEL>
7

>  <REMARK>
 VINA RESULT:      -4.1      3.607      9.331
  Name = 
  26 active torsions:
  status: ('A' for Active; 'I' for Inactive)
    1  A    between atoms: C_2  and  O_20
    2  A    between atoms: C_2  and  C_24
    3  A    between atoms: C_4  and  O_6
    4  A    between atoms: O_6  and  C_44
    5  A    between atoms: C_9  and  C_48
    6  A    between atoms: C_10  and  C_40
    7  A    between atoms: C_10  and  O_41
    8  A    between atoms: C_12  and  C_59
    9  A    between atoms: C_15  and  C_30
   10  A    between atoms: C_15  and  C_51
   11  A    between atoms: O_18  and  C_19
   12  A    between atoms: O_18  and  C_40
   13  A    between atoms: C_19  and  C_24
   14  A    between atoms: O_20  and  P_53
   15  A    between atoms: C_21  and  O_31
   16  A    between atoms: C_23  and  C_44
   17  A    between atoms: C_24  and  C_56
   18  A    between atoms: C_30  and  C_46
   19  A    between atoms: O_31  and  C_59
   20  A    between atoms: N_32  and  N_39
   21  A    between atoms: N_34  and  C_59
   22  A    between atoms: C_37  and  C_46
   23  A    between atoms: C_37  and  C_57
   24  A    between atoms: C_40  and  C_47
   25  A    between atoms: C_48  and  C_56
   26  A    between atoms: P_53  and  C_54
                            x       y       z     vdW  Elec       q    Type
                         _______ _______ _______ _____ _____    ______ ____

>  <TORSDO>
F 26

$$$$
=
 OpenBabel11062416103D

 59 62  0  0  1  0  0  0  0  0999 V2000
  186.9200  176.3210  136.3580 C   0  0  2  0  0  3  0  0  0  0  0  0
  187.8590  178.3590  139.1800 C   0  0  0  0  0  3  0  0  0  0  0  0
  187.5610  177.2890  138.4880 C   0  0  0  0  0  0  0  0  0  0  0  0
  187.2580  176.2180  137.8090 C   0  0  0  0  0  3  0  0  0  0  0  0
  187.2860  178.6210  140.4280 O   0  0  0  0  0  0  0  0  0  0  0  0
  187.5210  177.8080  141.5720 C   0  0  2  0  0  3  0  0  0  0  0  0
  186.8160  178.3820  142.7140 N   0  0  0  0  0  2  0  0  0  0  0  0
  184.6690  178.0580  141.8450 O   0  0  0  0  0  0  0  0  0  0  0  0
  185.3910  178.4530  142.8010 C   0  0  0  0  0  0  0  0  0  0  0  0
  183.2660  179.0700  143.9430 C   0  0  0  0  0  1  0  0  0  0  0  0
  184.7730  178.9250  144.0760 C   0  0  1  0  0  3  0  0  0  0  0  0
  185.1150  177.9640  145.2030 C   0  0  0  0  0  2  0  0  0  0  0  0
  184.9160  178.6290  146.5570 C   0  0  0  0  0  2  0  0  0  0  0  0
  186.2440  179.0400  147.1810 C   0  0  0  0  0  2  0  0  0  0  0  0
  188.2470  178.0450  148.2930 C   0  0  0  0  0  1  0  0  0  0  0  0
  187.2400  177.8910  147.1670 C   0  0  0  0  0  2  0  0  0  0  0  0
  189.4160  176.3590  142.3340 C   0  0  2  0  0  3  0  0  0  0  0  0
  189.0140  177.7520  141.8710 C   0  0  2  0  0  3  0  0  0  0  0  0
  189.2120  177.4680  143.3450 C   0  0  0  0  0  2  0  0  0  0  0  0
  190.7850  176.1810  142.1150 O   0  0  0  0  0  0  0  0  0  0  0  0
  191.2760  177.4400  141.7500 C   0  0  0  0  0  2  0  0  0  0  0  0
  191.5040  177.4970  140.2490 C   0  0  2  0  0  3  0  0  0  0  0  0
  192.8820  176.3350  138.4070 C   0  0  0  0  0  2  0  0  0  0  0  0
  190.8330  176.3910  139.5940 N   0  0  0  0  0  0  0  0  0  0  0  0
  190.9450  174.7530  137.8990 N   0  0  0  0  0  2  0  0  0  0  0  0
  191.5040  175.8360  138.6440 C   0  0  0  0  0  0  0  0  0  0  0  0
  193.2790  177.3790  139.8430 S   0  0  0  0  0  0  0  0  0  0  0  0
  190.7150  173.3510  136.1070 C   0  0  0  0  0  1  0  0  0  0  0  0
  191.6720  174.1130  136.8870 N   0  0  0  0  0  2  0  0  0  0  0  0
  187.6050  177.5050  135.7630 C   0  0  0  0  0  0  0  0  0  0  0  0
  186.7150  178.5950  134.9170 S   0  0  0  0  0  0  0  0  0  0  0  0
  189.9320  176.8960  135.1480 C   0  0  0  0  0  1  0  0  0  0  0  0
  188.9900  177.6400  135.9120 O   0  0  0  0  0  0  0  0  0  0  0  0
  185.5130  176.4500  136.1870 O   0  0  0  0  0  0  0  0  0  0  0  0
  184.6930  177.0930  137.1200 C   0  0  0  0  0  0  0  0  0  0  0  0
  185.1990  177.7130  138.0970 O   0  0  0  0  0  0  0  0  0  0  0  0
  183.2040  177.0400  136.9860 C   0  0  2  0  0  3  0  0  0  0  0  0
  182.5740  178.3970  137.2590 C   0  0  0  0  0  2  0  0  0  0  0  0
  182.1650  178.4910  138.7200 C   0  0  0  0  0  2  0  0  0  0  0  0
  179.8020  183.1810  135.1970 C   0  0  0  0  0  2  0  0  0  0  0  0
  181.3340  179.7420  138.9870 C   0  0  2  0  0  3  0  0  0  0  0  0
  180.4350  181.8810  135.6580 C   0  0  0  0  0  2  0  0  0  0  0  0
  180.9840  185.1950  134.9810 O   0  0  0  0  0  0  0  0  0  0  0  0
  179.7370  180.1560  137.0750 C   0  0  0  0  0  2  0  0  0  0  0  0
  179.6160  184.5350  137.9420 O   0  0  0  0  0  1  0  0  0  0  0  0
  180.8120  184.4890  137.2200 C   0  0  2  0  0  3  0  0  0  0  0  0
  180.5490  184.3530  135.7470 C   0  0  0  0  0  0  0  0  0  0  0  0
  181.7320  183.3720  137.7180 C   0  0  0  0  0  2  0  0  0  0  0  0
  181.0220  182.0430  138.0280 C   0  0  2  0  0  3  0  0  0  0  0  0
  179.8900  179.5810  138.4830 C   0  0  0  0  0  2  0  0  0  0  0  0
  182.0380  180.9550  138.3710 C   0  0  0  0  0  2  0  0  0  0  0  0
  180.0100  181.5990  137.0260 N   0  0  1  0  0  0  0  0  0  0  0  0
  182.5680  175.9390  137.8290 C   0  0  0  0  0  2  0  0  0  0  0  0
  181.4280  175.4190  137.2060 O   0  0  0  0  0  0  0  0  0  0  0  0
  178.9330  175.8300  138.3600 O   0  0  0  0  0  0  0  0  0  0  0  0
  180.3910  174.9770  138.4730 P   0  0  2  0  0  0  0  0  0  0  0  0
  181.0500  175.3030  139.7940 O   0  0  0  0  0  1  0  0  0  0  0  0
  180.8220  172.6000  137.3140 N   0  0  0  0  0  1  0  0  0  0  0  0
  180.0520  173.1950  138.3920 C   0  0  0  0  0  2  0  0  0  0  0  0
  1  4  1  1  0  0  0
  2  5  1  0  0  0  0
  3  2  2  0  0  0  0
  4  3  2  0  0  0  0
  6  5  1  6  0  0  0
  6  7  1  0  0  0  0
  7  9  1  0  0  0  0
  8  9  2  0  0  0  0
  9 11  1  0  0  0  0
 11 10  1  6  0  0  0
 11 12  1  0  0  0  0
 12 13  1  0  0  0  0
 13 14  1  0  0  0  0
 16 14  1  0  0  0  0
 16 15  1  0  0  0  0
 17 20  1  6  0  0  0
 17 19  1  0  0  0  0
 18  6  1  1  0  0  0
 18 17  1  0  0  0  0
 18 19  1  0  0  0  0
 21 20  1  0  0  0  0
 22 21  1  1  0  0  0
 23 26  1  0  0  0  0
 23 27  1  0  0  0  0
 24 22  1  0  0  0  0
 25 26  1  0  0  0  0
 26 24  2  0  0  0  0
 27 22  1  0  0  0  0
 28 29  1  0  0  0  0
 29 25  1  0  0  0  0
 30 33  1  0  0  0  0
 30  1  1  0  0  0  0
 31 30  2  0  0  0  0
 32 33  1  0  0  0  0
 34  1  1  0  0  0  0
 34 35  1  0  0  0  0
 35 36  2  0  0  0  0
 37 35  1  0  0  0  0
 37 38  1  1  0  0  0
 37 53  1  0  0  0  0
 38 39  1  0  0  0  0
 40 42  1  0  0  0  0
 40 47  1  0  0  0  0
 41 39  1  6  0  0  0
 43 47  2  0  0  0  0
 44 50  1  0  0  0  0
 46 48  1  0  0  0  0
 46 45  1  1  0  0  0
 47 46  1  0  0  0  0
 49 48  1  6  0  0  0
 49 51  1  0  0  0  0
 50 41  1  0  0  0  0
 51 41  1  0  0  0  0
 52 42  1  6  0  0  0
 52 44  1  0  0  0  0
 52 49  1  0  0  0  0
 54 53  1  0  0  0  0
 54 56  1  0  0  0  0
 56 55  2  6  0  0  0
 56 57  1  0  0  0  0
 58 59  1  0  0  0  0
 59 56  1  0  0  0  0
M  END
>  <MODEL>
8

>  <REMARK>
 VINA RESULT:      -4.0      3.391      8.586
  Name = 
  26 active torsions:
  status: ('A' for Active; 'I' for Inactive)
    1  A    between atoms: C_2  and  O_20
    2  A    between atoms: C_2  and  C_24
    3  A    between atoms: C_4  and  O_6
    4  A    between atoms: O_6  and  C_44
    5  A    between atoms: C_9  and  C_48
    6  A    between atoms: C_10  and  C_40
    7  A    between atoms: C_10  and  O_41
    8  A    between atoms: C_12  and  C_59
    9  A    between atoms: C_15  and  C_30
   10  A    between atoms: C_15  and  C_51
   11  A    between atoms: O_18  and  C_19
   12  A    between atoms: O_18  and  C_40
   13  A    between atoms: C_19  and  C_24
   14  A    between atoms: O_20  and  P_53
   15  A    between atoms: C_21  and  O_31
   16  A    between atoms: C_23  and  C_44
   17  A    between atoms: C_24  and  C_56
   18  A    between atoms: C_30  and  C_46
   19  A    between atoms: O_31  and  C_59
   20  A    between atoms: N_32  and  N_39
   21  A    between atoms: N_34  and  C_59
   22  A    between atoms: C_37  and  C_46
   23  A    between atoms: C_37  and  C_57
   24  A    between atoms: C_40  and  C_47
   25  A    between atoms: C_48  and  C_56
   26  A    between atoms: P_53  and  C_54
                            x       y       z     vdW  Elec       q    Type
                         _______ _______ _______ _____ _____    ______ ____

>  <TORSDO>
F 26

$$$$
=
 OpenBabel11062416103D

 59 62  0  0  1  0  0  0  0  0999 V2000
  186.2990  177.7490  143.4690 C   0  0  2  0  0  3  0  0  0  0  0  0
  183.7530  177.6880  140.9180 C   0  0  0  0  0  3  0  0  0  0  0  0
  184.8430  178.0390  141.5510 C   0  0  0  0  0  0  0  0  0  0  0  0
  185.9270  178.4010  142.1780 C   0  0  0  0  0  3  0  0  0  0  0  0
  182.8440  178.6280  140.4230 O   0  0  0  0  0  0  0  0  0  0  0  0
  182.6680  178.8750  139.0330 C   0  0  2  0  0  3  0  0  0  0  0  0
  181.3240  179.4000  138.8120 N   0  0  0  0  0  2  0  0  0  0  0  0
  182.0150  181.3760  137.7690 O   0  0  0  0  0  0  0  0  0  0  0  0
  181.0640  180.6400  138.1520 C   0  0  0  0  0  0  0  0  0  0  0  0
  179.4090  182.4970  138.0450 C   0  0  0  0  0  1  0  0  0  0  0  0
  179.6490  181.0100  137.8490 C   0  0  1  0  0  3  0  0  0  0  0  0
  179.3010  180.6000  136.4270 C   0  0  0  0  0  2  0  0  0  0  0  0
  180.2080  179.4750  135.9530 C   0  0  0  0  0  2  0  0  0  0  0  0
  179.4070  178.2570  135.5070 C   0  0  0  0  0  2  0  0  0  0  0  0
  180.0870  175.8690  135.7760 C   0  0  0  0  0  1  0  0  0  0  0  0
  180.3190  177.1520  134.9980 C   0  0  0  0  0  2  0  0  0  0  0  0
  184.2770  177.4480  137.7500 C   0  0  2  0  0  3  0  0  0  0  0  0
  182.8450  177.5820  138.2480 C   0  0  2  0  0  3  0  0  0  0  0  0
  183.1850  177.9180  136.8120 C   0  0  0  0  0  2  0  0  0  0  0  0
  184.5510  176.1010  137.5000 O   0  0  0  0  0  0  0  0  0  0  0  0
  184.8490  176.0220  136.1350 C   0  0  0  0  0  2  0  0  0  0  0  0
  184.6880  174.5920  135.6460 C   0  0  2  0  0  3  0  0  0  0  0  0
  184.1490  172.2390  136.5460 C   0  0  0  0  0  2  0  0  0  0  0  0
  183.2850  174.2290  135.5980 N   0  0  0  0  0  0  0  0  0  0  0  0
  181.6790  172.5450  135.9860 N   0  0  0  0  0  2  0  0  0  0  0  0
  183.0200  173.0370  136.0080 C   0  0  0  0  0  0  0  0  0  0  0  0
  185.5210  173.4130  136.7610 S   0  0  0  0  0  0  0  0  0  0  0  0
  180.0030  170.9890  136.0400 C   0  0  0  0  0  1  0  0  0  0  0  0
  181.3640  171.2660  136.4610 N   0  0  0  0  0  2  0  0  0  0  0  0
  185.6300  178.4540  144.6020 C   0  0  0  0  0  0  0  0  0  0  0  0
  184.5890  179.6790  144.2700 S   0  0  0  0  0  0  0  0  0  0  0  0
  185.5490  178.8410  147.0520 C   0  0  0  0  0  1  0  0  0  0  0  0
  185.9290  178.0750  145.9150 O   0  0  0  0  0  0  0  0  0  0  0  0
  187.7100  177.7860  143.6530 O   0  0  0  0  0  0  0  0  0  0  0  0
  188.5810  178.3530  142.7170 C   0  0  0  0  0  0  0  0  0  0  0  0
  188.5410  179.5920  142.4740 O   0  0  0  0  0  0  0  0  0  0  0  0
  189.5570  177.4980  141.9720 C   0  0  2  0  0  3  0  0  0  0  0  0
  188.8880  176.7700  140.8170 C   0  0  0  0  0  2  0  0  0  0  0  0
  188.3610  177.7770  139.8080 C   0  0  0  0  0  2  0  0  0  0  0  0
  190.9780  173.7710  135.6730 C   0  0  0  0  0  2  0  0  0  0  0  0
  189.2940  177.9050  138.6080 C   0  0  2  0  0  3  0  0  0  0  0  0
  190.1160  174.3880  136.7610 C   0  0  0  0  0  2  0  0  0  0  0  0
  193.1470  172.9600  136.0410 O   0  0  0  0  0  0  0  0  0  0  0  0
  188.6690  176.2230  136.8320 C   0  0  0  0  0  2  0  0  0  0  0  0
  192.8340  176.1700  135.2210 O   0  0  0  0  0  1  0  0  0  0  0  0
  193.0060  175.2960  136.2970 C   0  0  2  0  0  3  0  0  0  0  0  0
  192.4280  173.9420  135.9920 C   0  0  0  0  0  0  0  0  0  0  0  0
  192.4150  175.8640  137.5890 C   0  0  0  0  0  2  0  0  0  0  0  0
  191.0480  176.5500  137.4260 C   0  0  2  0  0  3  0  0  0  0  0  0
  188.5470  177.6780  137.2830 C   0  0  0  0  0  2  0  0  0  0  0  0
  190.4760  176.9490  138.7860 C   0  0  0  0  0  2  0  0  0  0  0  0
  190.0610  175.8340  136.5670 N   0  0  1  0  0  0  0  0  0  0  0  0
  190.3230  176.5410  142.8790 C   0  0  0  0  0  2  0  0  0  0  0  0
  189.7910  176.5360  144.1740 O   0  0  0  0  0  0  0  0  0  0  0  0
  191.8880  178.3100  144.5970 O   0  0  0  0  0  0  0  0  0  0  0  0
  191.0880  176.9410  145.1900 P   0  0  2  0  0  0  0  0  0  0  0  0
  192.0610  175.7860  145.2400 O   0  0  0  0  0  1  0  0  0  0  0  0
  189.1190  176.7680  146.9990 N   0  0  0  0  0  1  0  0  0  0  0  0
  190.4710  177.2820  146.8630 C   0  0  0  0  0  2  0  0  0  0  0  0
  1  4  1  6  0  0  0
  1 34  1  0  0  0  0
  1 30  1  0  0  0  0
  2  3  2  0  0  0  0
  3  4  2  0  0  0  0
  5  2  1  0  0  0  0
  6  7  1  1  0  0  0
  6  5  1  0  0  0  0
  8  9  2  0  0  0  0
  9  7  1  0  0  0  0
 11 10  1  6  0  0  0
 11  9  1  0  0  0  0
 12 11  1  0  0  0  0
 13 12  1  0  0  0  0
 14 13  1  0  0  0  0
 16 14  1  0  0  0  0
 16 15  1  0  0  0  0
 17 20  1  6  0  0  0
 17 18  1  0  0  0  0
 18  6  1  1  0  0  0
 19 17  1  0  0  0  0
 19 18  1  0  0  0  0
 21 20  1  0  0  0  0
 22 21  1  1  0  0  0
 22 27  1  0  0  0  0
 23 27  1  0  0  0  0
 24 22  1  0  0  0  0
 24 26  2  0  0  0  0
 25 26  1  0  0  0  0
 25 29  1  0  0  0  0
 26 23  1  0  0  0  0
 28 29  1  0  0  0  0
 30 33  1  0  0  0  0
 31 30  2  0  0  0  0
 33 32  1  0  0  0  0
 35 34  1  0  0  0  0
 36 35  2  0  0  0  0
 37 38  1  6  0  0  0
 37 35  1  0  0  0  0
 37 53  1  0  0  0  0
 39 38  1  0  0  0  0
 40 47  1  0  0  0  0
 40 42  1  0  0  0  0
 41 51  1  0  0  0  0
 41 39  1  1  0  0  0
 44 50  1  0  0  0  0
 46 45  1  6  0  0  0
 46 48  1  0  0  0  0
 47 43  2  0  0  0  0
 47 46  1  0  0  0  0
 49 48  1  1  0  0  0
 49 51  1  0  0  0  0
 50 41  1  0  0  0  0
 52 42  1  1  0  0  0
 52 44  1  0  0  0  0
 52 49  1  0  0  0  0
 53 54  1  0  0  0  0
 54 56  1  0  0  0  0
 56 55  2  6  0  0  0
 56 57  1  0  0  0  0
 56 59  1  0  0  0  0
 59 58  1  0  0  0  0
M  END
>  <MODEL>
9

>  <REMARK>
 VINA RESULT:      -3.9      2.792      8.282
  Name = 
  26 active torsions:
  status: ('A' for Active; 'I' for Inactive)
    1  A    between atoms: C_2  and  O_20
    2  A    between atoms: C_2  and  C_24
    3  A    between atoms: C_4  and  O_6
    4  A    between atoms: O_6  and  C_44
    5  A    between atoms: C_9  and  C_48
    6  A    between atoms: C_10  and  C_40
    7  A    between atoms: C_10  and  O_41
    8  A    between atoms: C_12  and  C_59
    9  A    between atoms: C_15  and  C_30
   10  A    between atoms: C_15  and  C_51
   11  A    between atoms: O_18  and  C_19
   12  A    between atoms: O_18  and  C_40
   13  A    between atoms: C_19  and  C_24
   14  A    between atoms: O_20  and  P_53
   15  A    between atoms: C_21  and  O_31
   16  A    between atoms: C_23  and  C_44
   17  A    between atoms: C_24  and  C_56
   18  A    between atoms: C_30  and  C_46
   19  A    between atoms: O_31  and  C_59
   20  A    between atoms: N_32  and  N_39
   21  A    between atoms: N_34  and  C_59
   22  A    between atoms: C_37  and  C_46
   23  A    between atoms: C_37  and  C_57
   24  A    between atoms: C_40  and  C_47
   25  A    between atoms: C_48  and  C_56
   26  A    between atoms: P_53  and  C_54
                            x       y       z     vdW  Elec       q    Type
                         _______ _______ _______ _____ _____    ______ ____

>  <TORSDO>
F 26

$$$$
