=
 OpenBabel11062412523D

 50 56  0  0  1  0  0  0  0  0999 V2000
  185.7220  178.7260  139.4020 N   0  0  0  0  0  0  0  0  0  0  0  0
  187.4970  178.3550  141.0180 C   0  0  0  0  0  0  0  0  0  0  0  0
  186.0820  178.6590  140.6500 C   0  0  0  0  0  0  0  0  0  0  0  0
  186.5770  178.3980  138.2600 C   0  0  1  0  0  3  0  0  0  0  0  0
  187.8550  178.1510  142.4660 C   0  0  1  0  0  3  0  0  0  0  0  0
  188.4070  178.2040  140.0460 C   0  0  0  0  0  3  0  0  0  0  0  0
  188.0260  178.2920  138.6360 C   0  0  0  0  0  0  0  0  0  0  0  0
  185.9850  177.8930  143.7440 C   0  0  0  0  0  2  0  0  0  0  0  0
  185.2940  179.0650  143.0110 C   0  0  1  0  0  3  0  0  0  0  0  0
  185.0820  178.8220  141.6190 O   0  0  0  0  0  0  0  0  0  0  0  0
  188.9100  178.2390  137.7390 O   0  0  0  0  0  0  0  0  0  0  0  0
  186.9630  177.2080  142.9920 O   0  0  0  0  0  0  0  0  0  0  0  0
  183.9530  179.4040  143.6730 C   0  0  2  0  0  3  0  0  0  0  0  0
  183.9210  178.9080  144.9750 O   0  0  0  0  0  1  0  0  0  0  0  0
  182.6840  178.8170  142.8350 C   0  0  0  0  0  2  0  0  0  0  0  0
  182.0820  178.7270  142.3260 N   0  0  0  0  0  2  0  0  0  0  0  0
  181.3620  179.3240  143.4080 C   0  0  0  0  0  3  0  0  0  0  0  0
  180.4600  178.6210  143.9550 O   0  0  0  0  0  0  0  0  0  0  0  0
  189.3030  177.6780  142.6770 C   0  0  0  0  0  2  0  0  0  0  0  0
  188.8820  177.4940  148.6400 F   0  0  0  0  0  0  0  0  0  0  0  0
  190.0320  178.3460  143.8440 C   0  0  1  0  0  0  0  0  0  0  0  0
  191.4630  175.9400  146.3700 C   0  0  0  0  0  3  0  0  0  0  0  0
  189.0620  178.2240  146.4690 C   0  0  0  0  0  3  0  0  0  0  0  0
  191.8330  176.5160  145.0100 C   0  0  0  0  0  2  0  0  0  0  0  0
  189.4880  177.3900  147.4340 C   0  0  0  0  0  0  0  0  0  0  0  0
  190.5510  176.3160  147.3140 C   0  0  0  0  0  3  0  0  0  0  0  0
  190.7460  179.5110  143.5730 O   0  0  0  0  0  1  0  0  0  0  0  0
  189.6910  178.1430  145.1830 C   0  0  0  0  0  0  0  0  0  0  0  0
  190.7840  177.4460  144.6000 C   0  0  0  0  0  0  0  0  0  0  0  0
  186.0770  177.1300  137.5560 C   0  0  0  0  0  2  0  0  0  0  0  0
  184.6480  176.7410  137.9350 C   0  0  0  0  0  2  0  0  0  0  0  0
  183.6810  177.0700  136.8080 C   0  0  1  0  0  3  0  0  0  0  0  0
  182.9900  175.8160  136.3230 C   0  0  0  0  0  2  0  0  0  0  0  0
  182.2620  176.7740  137.2570 C   0  0  2  0  0  3  0  0  0  0  0  0
  179.6560  175.8940  136.1520 O   0  0  0  0  0  1  0  0  0  0  0  0
  181.7570  179.5390  138.2150 C   0  0  0  0  0  2  0  0  0  0  0  0
  179.8070  177.2220  136.5670 C   0  0  1  0  0  3  0  0  0  0  0  0
  179.9840  178.6160  139.8360 O   0  0  0  0  0  0  0  0  0  0  0  0
  179.4410  181.0690  140.8520 C   0  0  0  0  0  1  0  0  0  0  0  0
  180.2340  181.0610  139.5580 C   0  0  2  0  0  3  0  0  0  0  0  0
  179.4660  180.4920  138.5110 O   0  0  0  0  0  0  0  0  0  0  0  0
  181.4940  179.1660  136.7490 C   0  0  0  0  0  2  0  0  0  0  0  0
  180.0340  177.4210  139.0950 C   0  0  2  0  0  3  0  0  0  0  0  0
  180.4840  179.6820  139.0550 C   0  0  1  0  0  0  0  0  0  0  0  0
  179.0730  177.4500  137.9000 C   0  0  0  0  0  2  0  0  0  0  0  0
  181.2850  177.6650  136.4800 C   0  0  1  0  0  3  0  0  0  0  0  0
  179.4190  176.5560  141.2660 O   0  0  0  0  0  1  0  0  0  0  0  0
  181.1110  175.5730  140.1290 F   0  0  0  0  0  0  0  0  0  0  0  0
  178.9310  175.1510  139.4170 C   0  0  0  0  0  1  0  0  0  0  0  0
  179.8820  176.1850  140.0030 C   0  0  2  0  0  0  0  0  0  0  0  0
  1  3  2  0  0  0  0
  2  5  1  0  0  0  0
  3  2  1  0  0  0  0
  3 10  1  0  0  0  0
  4 30  1  1  0  0  0
  4  7  1  0  0  0  0
  4  1  1  0  0  0  0
  5 19  1  6  0  0  0
  5 12  1  0  0  0  0
  6  2  2  0  0  0  0
  7  6  1  0  0  0  0
  9 13  1  1  0  0  0
  9  8  1  0  0  0  0
 10  9  1  0  0  0  0
 11  7  2  0  0  0  0
 12  8  1  0  0  0  0
 13 14  1  1  0  0  0
 15 13  1  0  0  0  0
 16 15  1  0  0  0  0
 16 17  1  0  0  0  0
 17 18  2  0  0  0  0
 19 21  1  0  0  0  0
 21 27  1  6  0  0  0
 21 29  1  0  0  0  0
 21 28  1  0  0  0  0
 22 26  2  0  0  0  0
 23 25  2  0  0  0  0
 24 22  1  0  0  0  0
 25 20  1  0  0  0  0
 26 25  1  0  0  0  0
 28 23  1  0  0  0  0
 29 24  1  0  0  0  0
 29 28  2  0  0  0  0
 30 31  1  0  0  0  0
 32 34  1  0  0  0  0
 32 31  1  1  0  0  0
 33 32  1  0  0  0  0
 34 33  1  6  0  0  0
 37 35  1  1  0  0  0
 37 45  1  0  0  0  0
 40 39  1  1  0  0  0
 41 44  1  0  0  0  0
 41 40  1  0  0  0  0
 42 36  1  0  0  0  0
 43 38  1  0  0  0  0
 43 50  1  1  0  0  0
 44 36  1  6  0  0  0
 44 40  1  0  0  0  0
 44 38  1  0  0  0  0
 45 43  1  0  0  0  0
 46 37  1  0  0  0  0
 46 42  1  1  0  0  0
 46 34  1  0  0  0  0
 50 49  1  6  0  0  0
 50 48  1  0  0  0  0
 50 47  1  0  0  0  0
M  END
>  <MODEL>
1

>  <REMARK>
 VINA RESULT:      -9.2      0.000      0.000
  Name = 
  10 active torsions:
  status: ('A' for Active; 'I' for Inactive)
    1  A    between atoms: C_3  and  C_15
    2  A    between atoms: C_6  and  C_21
    3  A    between atoms: C_8  and  C_14
    4  A    between atoms: C_14  and  C_19
    5  A    between atoms: C_15  and  C_21
    6  A    between atoms: C_20  and  C_24
    7  A    between atoms: C_24  and  C_35
    8  A    between atoms: C_28  and  C_44
    9  A    between atoms: C_35  and  C_46
   10  A    between atoms: C_37  and  C_45
                            x       y       z     vdW  Elec       q    Type
                         _______ _______ _______ _____ _____    ______ ____

>  <TORSDO>
F 10

$$$$
=
 OpenBabel11062412523D

 50 56  0  0  1  0  0  0  0  0999 V2000
  186.0780  178.5720  139.6040 N   0  0  0  0  0  0  0  0  0  0  0  0
  187.9190  178.1660  141.1360 C   0  0  0  0  0  0  0  0  0  0  0  0
  186.4780  178.4130  140.8320 C   0  0  0  0  0  0  0  0  0  0  0  0
  186.9170  178.4070  138.4170 C   0  0  1  0  0  3  0  0  0  0  0  0
  188.3310  177.8520  142.5500 C   0  0  1  0  0  3  0  0  0  0  0  0
  188.8080  178.1640  140.1330 C   0  0  0  0  0  3  0  0  0  0  0  0
  188.3810  178.3580  138.7480 C   0  0  0  0  0  0  0  0  0  0  0  0
  186.5180  177.3600  143.8410 C   0  0  0  0  0  2  0  0  0  0  0  0
  185.7370  178.5480  143.2380 C   0  0  1  0  0  3  0  0  0  0  0  0
  185.4990  178.4210  141.8350 O   0  0  0  0  0  0  0  0  0  0  0  0
  189.2390  178.4450  137.8290 O   0  0  0  0  0  0  0  0  0  0  0  0
  187.5140  176.8100  143.0050 O   0  0  0  0  0  0  0  0  0  0  0  0
  184.3980  178.7390  143.9610 C   0  0  2  0  0  3  0  0  0  0  0  0
  183.9540  180.0520  143.8140 O   0  0  0  0  0  1  0  0  0  0  0  0
  184.4930  178.3710  145.5470 C   0  0  0  0  0  2  0  0  0  0  0  0
  184.1570  178.7360  146.1660 N   0  0  0  0  0  2  0  0  0  0  0  0
  185.4690  179.2950  146.2710 C   0  0  0  0  0  3  0  0  0  0  0  0
  186.1280  179.0210  147.3190 O   0  0  0  0  0  0  0  0  0  0  0  0
  189.8110  177.4550  142.6810 C   0  0  0  0  0  2  0  0  0  0  0  0
  188.9880  177.7230  148.5990 F   0  0  0  0  0  0  0  0  0  0  0  0
  190.5460  178.0980  143.8580 C   0  0  1  0  0  0  0  0  0  0  0  0
  191.4790  175.7010  146.6140 C   0  0  0  0  0  3  0  0  0  0  0  0
  189.4020  178.2770  146.4080 C   0  0  0  0  0  3  0  0  0  0  0  0
  192.0080  176.1320  145.2540 C   0  0  0  0  0  2  0  0  0  0  0  0
  189.6510  177.4620  147.4480 C   0  0  0  0  0  0  0  0  0  0  0  0
  190.5660  176.2530  147.4670 C   0  0  0  0  0  3  0  0  0  0  0  0
  191.4250  179.1410  143.5730 O   0  0  0  0  0  1  0  0  0  0  0  0
  190.0960  178.0310  145.1780 C   0  0  0  0  0  0  0  0  0  0  0  0
  191.1210  177.1610  144.7160 C   0  0  0  0  0  0  0  0  0  0  0  0
  186.4750  177.1800  137.6080 C   0  0  0  0  0  2  0  0  0  0  0  0
  185.0040  176.8120  137.8070 C   0  0  0  0  0  2  0  0  0  0  0  0
  184.0970  177.9210  137.2940 C   0  0  1  0  0  3  0  0  0  0  0  0
  183.1670  177.3880  136.2280 C   0  0  0  0  0  2  0  0  0  0  0  0
  182.6570  177.5970  137.6480 C   0  0  2  0  0  3  0  0  0  0  0  0
  180.0570  178.1210  136.3240 O   0  0  0  0  0  1  0  0  0  0  0  0
  182.4110  178.9190  140.2960 C   0  0  0  0  0  2  0  0  0  0  0  0
  180.3320  178.7340  137.5520 C   0  0  1  0  0  3  0  0  0  0  0  0
  180.4220  177.3800  140.8410 O   0  0  0  0  0  0  0  0  0  0  0  0
  180.0980  178.4480  143.3100 C   0  0  0  0  0  1  0  0  0  0  0  0
  180.9820  179.2440  142.3660 C   0  0  2  0  0  3  0  0  0  0  0  0
  180.2340  179.6900  141.2490 O   0  0  0  0  0  0  0  0  0  0  0  0
  182.2190  179.7280  139.0050 C   0  0  0  0  0  2  0  0  0  0  0  0
  180.3870  177.0620  139.4710 C   0  0  2  0  0  3  0  0  0  0  0  0
  181.1040  178.6030  141.0280 C   0  0  1  0  0  0  0  0  0  0  0  0
  179.5310  178.0550  138.6760 C   0  0  0  0  0  2  0  0  0  0  0  0
  181.8540  178.9000  137.7590 C   0  0  1  0  0  3  0  0  0  0  0  0
  181.1580  174.8320  138.9440 O   0  0  0  0  0  1  0  0  0  0  0  0
  179.1320  175.5030  138.1910 F   0  0  0  0  0  0  0  0  0  0  0  0
  179.3300  174.9650  140.4510 C   0  0  0  0  0  1  0  0  0  0  0  0
  180.0200  175.5820  139.2430 C   0  0  2  0  0  0  0  0  0  0  0  0
  1  3  2  0  0  0  0
  2  5  1  0  0  0  0
  3  2  1  0  0  0  0
  3 10  1  0  0  0  0
  4 30  1  1  0  0  0
  4  7  1  0  0  0  0
  4  1  1  0  0  0  0
  5 19  1  6  0  0  0
  5 12  1  0  0  0  0
  6  2  2  0  0  0  0
  7  6  1  0  0  0  0
  9  8  1  0  0  0  0
  9 13  1  1  0  0  0
 10  9  1  0  0  0  0
 11  7  2  0  0  0  0
 12  8  1  0  0  0  0
 13 14  1  1  0  0  0
 13 15  1  0  0  0  0
 15 16  1  0  0  0  0
 16 17  1  0  0  0  0
 17 18  2  0  0  0  0
 19 21  1  0  0  0  0
 21 27  1  6  0  0  0
 21 29  1  0  0  0  0
 21 28  1  0  0  0  0
 22 26  2  0  0  0  0
 23 25  2  0  0  0  0
 24 22  1  0  0  0  0
 25 26  1  0  0  0  0
 25 20  1  0  0  0  0
 28 23  1  0  0  0  0
 29 28  2  0  0  0  0
 29 24  1  0  0  0  0
 30 31  1  0  0  0  0
 32 34  1  0  0  0  0
 32 31  1  1  0  0  0
 33 32  1  0  0  0  0
 34 33  1  6  0  0  0
 34 46  1  0  0  0  0
 37 35  1  6  0  0  0
 37 46  1  0  0  0  0
 37 45  1  0  0  0  0
 38 44  1  0  0  0  0
 40 39  1  1  0  0  0
 41 40  1  0  0  0  0
 42 36  1  0  0  0  0
 43 50  1  1  0  0  0
 43 38  1  0  0  0  0
 44 36  1  6  0  0  0
 44 41  1  0  0  0  0
 44 40  1  0  0  0  0
 45 43  1  0  0  0  0
 46 42  1  1  0  0  0
 47 50  1  0  0  0  0
 48 50  1  0  0  0  0
 50 49  1  1  0  0  0
M  END
>  <MODEL>
2

>  <REMARK>
 VINA RESULT:      -8.9      1.453      2.004
  Name = 
  10 active torsions:
  status: ('A' for Active; 'I' for Inactive)
    1  A    between atoms: C_3  and  C_15
    2  A    between atoms: C_6  and  C_21
    3  A    between atoms: C_8  and  C_14
    4  A    between atoms: C_14  and  C_19
    5  A    between atoms: C_15  and  C_21
    6  A    between atoms: C_20  and  C_24
    7  A    between atoms: C_24  and  C_35
    8  A    between atoms: C_28  and  C_44
    9  A    between atoms: C_35  and  C_46
   10  A    between atoms: C_37  and  C_45
                            x       y       z     vdW  Elec       q    Type
                         _______ _______ _______ _____ _____    ______ ____

>  <TORSDO>
F 10

$$$$
=
 OpenBabel11062412523D

 50 56  0  0  1  0  0  0  0  0999 V2000
  186.5110  178.3720  138.9250 N   0  0  0  0  0  0  0  0  0  0  0  0
  188.1280  178.2860  140.7360 C   0  0  0  0  0  0  0  0  0  0  0  0
  186.7320  178.3290  140.2060 C   0  0  0  0  0  0  0  0  0  0  0  0
  187.5380  178.2550  137.8890 C   0  0  1  0  0  3  0  0  0  0  0  0
  188.3510  178.1010  142.2140 C   0  0  1  0  0  3  0  0  0  0  0  0
  189.1550  178.3470  139.8780 C   0  0  0  0  0  3  0  0  0  0  0  0
  188.9280  178.4130  138.4340 C   0  0  0  0  0  0  0  0  0  0  0  0
  186.4310  177.4450  143.2550 C   0  0  0  0  0  2  0  0  0  0  0  0
  185.6160  178.4910  142.4620 C   0  0  1  0  0  3  0  0  0  0  0  0
  185.6160  178.2630  141.0510 O   0  0  0  0  0  0  0  0  0  0  0  0
  189.9020  178.5620  137.6480 O   0  0  0  0  0  0  0  0  0  0  0  0
  187.6030  176.9870  142.6160 O   0  0  0  0  0  0  0  0  0  0  0  0
  184.1680  178.5450  142.9640 C   0  0  0  0  0  0  0  0  0  0  0  0
  183.2960  178.7440  141.8960 O   0  0  0  0  0  0  0  0  0  0  0  0
  183.9430  179.7150  144.0770 C   0  0  0  0  0  1  0  0  0  0  0  0
  183.8090  178.9330  144.0460 N   0  0  0  0  0  0  0  0  0  0  0  0
  183.6810  179.1200  145.4590 C   0  0  0  0  0  3  0  0  0  0  0  0
  184.5260  178.5280  146.1950 O   0  0  0  0  0  0  0  0  0  0  0  0
  189.8290  177.9040  142.5890 C   0  0  0  0  0  2  0  0  0  0  0  0
  188.2380  177.1920  148.3100 F   0  0  0  0  0  0  0  0  0  0  0  0
  190.2400  178.5290  143.9230 C   0  0  1  0  0  0  0  0  0  0  0  0
  191.3600  176.0470  146.5300 C   0  0  0  0  0  3  0  0  0  0  0  0
  188.7790  178.1120  146.2760 C   0  0  0  0  0  3  0  0  0  0  0  0
  191.9380  176.7610  145.3170 C   0  0  0  0  0  2  0  0  0  0  0  0
  189.0810  177.2380  147.2520 C   0  0  0  0  0  0  0  0  0  0  0  0
  190.2450  176.2670  147.2860 C   0  0  0  0  0  3  0  0  0  0  0  0
  190.8790  179.7670  143.8820 O   0  0  0  0  0  1  0  0  0  0  0  0
  189.6580  178.1890  145.1450 C   0  0  0  0  0  0  0  0  0  0  0  0
  190.9080  177.6340  144.7580 C   0  0  0  0  0  0  0  0  0  0  0  0
  187.3760  176.9430  137.1120 C   0  0  0  0  0  2  0  0  0  0  0  0
  186.3630  175.9820  137.7350 C   0  0  0  0  0  2  0  0  0  0  0  0
  185.6680  175.1590  136.6600 C   0  0  1  0  0  3  0  0  0  0  0  0
  185.3350  173.7810  137.1860 C   0  0  0  0  0  2  0  0  0  0  0  0
  184.2500  174.8470  137.1000 C   0  0  2  0  0  3  0  0  0  0  0  0
  182.0040  172.9210  136.9110 O   0  0  0  0  0  1  0  0  0  0  0  0
  183.3140  177.2180  135.5760 C   0  0  0  0  0  2  0  0  0  0  0  0
  181.9480  174.1090  136.1730 C   0  0  1  0  0  3  0  0  0  0  0  0
  181.3490  177.4560  137.2210 O   0  0  0  0  0  0  0  0  0  0  0  0
  180.3940  179.6620  135.9700 C   0  0  0  0  0  1  0  0  0  0  0  0
  181.4240  178.8650  135.1900 C   0  0  2  0  0  3  0  0  0  0  0  0
  180.9320  177.5670  134.9070 O   0  0  0  0  0  0  0  0  0  0  0  0
  183.3800  175.8390  134.9030 C   0  0  0  0  0  2  0  0  0  0  0  0
  181.6540  176.1550  137.6600 C   0  0  2  0  0  3  0  0  0  0  0  0
  181.8930  177.6640  135.9340 C   0  0  1  0  0  0  0  0  0  0  0  0
  180.9490  175.0870  136.8140 C   0  0  0  0  0  2  0  0  0  0  0  0
  183.3670  174.6370  135.8640 C   0  0  1  0  0  3  0  0  0  0  0  0
  181.0510  177.2190  139.7440 O   0  0  0  0  0  1  0  0  0  0  0  0
  182.6240  175.5920  139.7550 F   0  0  0  0  0  0  0  0  0  0  0  0
  180.3950  174.9500  139.5140 C   0  0  0  0  0  1  0  0  0  0  0  0
  181.4400  176.0050  139.1790 C   0  0  2  0  0  0  0  0  0  0  0  0
  1  3  2  0  0  0  0
  2  5  1  0  0  0  0
  3  2  1  0  0  0  0
  3 10  1  0  0  0  0
  4 30  1  1  0  0  0
  4  7  1  0  0  0  0
  4  1  1  0  0  0  0
  5 19  1  6  0  0  0
  5 12  1  0  0  0  0
  6  2  2  0  0  0  0
  7  6  1  0  0  0  0
  9 13  1  1  0  0  0
  9  8  1  0  0  0  0
 10  9  1  0  0  0  0
 11  7  2  0  0  0  0
 12  8  1  0  0  0  0
 13 16  1  0  0  0  0
 14 13  2  0  0  0  0
 16 15  1  0  0  0  0
 16 17  1  0  0  0  0
 17 18  2  0  0  0  0
 19 21  1  0  0  0  0
 21 27  1  6  0  0  0
 21 29  1  0  0  0  0
 21 28  1  0  0  0  0
 22 26  2  0  0  0  0
 23 25  2  0  0  0  0
 24 22  1  0  0  0  0
 25 26  1  0  0  0  0
 25 20  1  0  0  0  0
 28 23  1  0  0  0  0
 29 28  2  0  0  0  0
 29 24  1  0  0  0  0
 30 31  1  0  0  0  0
 32 34  1  0  0  0  0
 32 33  1  0  0  0  0
 32 31  1  1  0  0  0
 34 33  1  1  0  0  0
 37 45  1  0  0  0  0
 37 35  1  1  0  0  0
 38 43  1  0  0  0  0
 40 44  1  0  0  0  0
 40 39  1  1  0  0  0
 41 40  1  0  0  0  0
 41 44  1  0  0  0  0
 42 36  1  0  0  0  0
 43 50  1  1  0  0  0
 44 36  1  6  0  0  0
 44 38  1  0  0  0  0
 45 43  1  0  0  0  0
 46 42  1  1  0  0  0
 46 37  1  0  0  0  0
 46 34  1  0  0  0  0
 50 49  1  1  0  0  0
 50 47  1  0  0  0  0
 50 48  1  0  0  0  0
M  END
>  <MODEL>
3

>  <REMARK>
 VINA RESULT:      -8.7      1.811      2.457
  Name = 
  10 active torsions:
  status: ('A' for Active; 'I' for Inactive)
    1  A    between atoms: C_3  and  C_15
    2  A    between atoms: C_6  and  C_21
    3  A    between atoms: C_8  and  C_14
    4  A    between atoms: C_14  and  C_19
    5  A    between atoms: C_15  and  C_21
    6  A    between atoms: C_20  and  C_24
    7  A    between atoms: C_24  and  C_35
    8  A    between atoms: C_28  and  C_44
    9  A    between atoms: C_35  and  C_46
   10  A    between atoms: C_37  and  C_45
                            x       y       z     vdW  Elec       q    Type
                         _______ _______ _______ _____ _____    ______ ____

>  <TORSDO>
F 10

$$$$
=
 OpenBabel11062412523D

 50 56  0  0  1  0  0  0  0  0999 V2000
  187.1530  178.2020  138.4580 N   0  0  0  0  0  0  0  0  0  0  0  0
  189.4120  177.4340  138.0000 C   0  0  0  0  0  0  0  0  0  0  0  0
  188.3240  177.8750  138.9230 C   0  0  0  0  0  0  0  0  0  0  0  0
  186.7310  178.0600  137.0640 C   0  0  1  0  0  3  0  0  0  0  0  0
  190.7110  176.9340  138.5760 C   0  0  1  0  0  3  0  0  0  0  0  0
  189.1870  177.4290  136.6790 C   0  0  0  0  0  3  0  0  0  0  0  0
  187.8830  177.8090  136.1350 C   0  0  0  0  0  0  0  0  0  0  0  0
  190.5120  176.5280  140.8100 C   0  0  0  0  0  2  0  0  0  0  0  0
  189.7430  177.8540  141.0070 C   0  0  1  0  0  3  0  0  0  0  0  0
  188.4950  177.8960  140.3130 O   0  0  0  0  0  0  0  0  0  0  0  0
  187.7180  177.8870  134.8880 O   0  0  0  0  0  0  0  0  0  0  0  0
  190.4000  175.9530  139.5260 O   0  0  0  0  0  0  0  0  0  0  0  0
  189.5020  178.1250  142.4970 C   0  0  2  0  0  3  0  0  0  0  0  0
  190.7180  178.2760  143.1610 O   0  0  0  0  0  1  0  0  0  0  0  0
  188.6360  176.9400  143.2090 C   0  0  0  0  0  2  0  0  0  0  0  0
  188.1590  176.3790  143.5020 N   0  0  0  0  0  2  0  0  0  0  0  0
  187.5740  177.5170  144.1410 C   0  0  0  0  0  3  0  0  0  0  0  0
  187.6250  177.5540  145.4070 O   0  0  0  0  0  0  0  0  0  0  0  0
  191.6660  176.3570  137.5190 C   0  0  0  0  0  2  0  0  0  0  0  0
  196.0550  172.3140  137.1030 F   0  0  0  0  0  0  0  0  0  0  0  0
  193.1320  176.2880  137.9490 C   0  0  1  0  0  0  0  0  0  0  0  0
  195.5420  175.5050  135.1580 C   0  0  0  0  0  3  0  0  0  0  0  0
  194.5890  173.8970  137.8950 C   0  0  0  0  0  3  0  0  0  0  0  0
  194.7980  176.7110  135.7130 C   0  0  0  0  0  2  0  0  0  0  0  0
  195.4530  173.5160  136.9380 C   0  0  0  0  0  0  0  0  0  0  0  0
  195.8030  174.2660  135.6680 C   0  0  0  0  0  3  0  0  0  0  0  0
  193.5500  177.1670  138.9460 O   0  0  0  0  0  1  0  0  0  0  0  0
  193.9420  175.1680  137.7510 C   0  0  0  0  0  0  0  0  0  0  0  0
  194.0140  176.2800  136.8680 C   0  0  0  0  0  0  0  0  0  0  0  0
  185.6490  176.9800  136.9340 C   0  0  0  0  0  2  0  0  0  0  0  0
  184.7990  177.1130  135.6700 C   0  0  0  0  0  2  0  0  0  0  0  0
  183.4210  176.5040  135.8790 C   0  0  1  0  0  3  0  0  0  0  0  0
  183.5310  175.2070  136.6490 C   0  0  0  0  0  2  0  0  0  0  0  0
  183.0990  176.4830  137.3620 C   0  0  2  0  0  3  0  0  0  0  0  0
  181.6490  175.4480  139.7310 O   0  0  0  0  0  1  0  0  0  0  0  0
  181.6070  178.9350  136.6030 C   0  0  0  0  0  2  0  0  0  0  0  0
  181.1170  176.5350  139.0280 C   0  0  1  0  0  3  0  0  0  0  0  0
  182.1500  179.9380  138.9090 O   0  0  0  0  0  0  0  0  0  0  0  0
  180.8690  182.2600  138.3520 C   0  0  0  0  0  1  0  0  0  0  0  0
  180.5760  181.1100  137.4050 C   0  0  2  0  0  3  0  0  0  0  0  0
  179.9430  180.0490  138.0980 O   0  0  0  0  0  0  0  0  0  0  0  0
  180.8850  177.5820  136.6810 C   0  0  0  0  0  2  0  0  0  0  0  0
  182.5230  178.6400  139.3040 C   0  0  2  0  0  3  0  0  0  0  0  0
  181.3050  179.8670  137.7790 C   0  0  1  0  0  0  0  0  0  0  0  0
  181.3250  177.8360  139.8230 C   0  0  0  0  0  2  0  0  0  0  0  0
  181.5770  176.5180  137.5530 C   0  0  1  0  0  3  0  0  0  0  0  0
  184.5560  179.7560  139.9830 O   0  0  0  0  0  1  0  0  0  0  0  0
  184.4500  177.4980  140.0940 F   0  0  0  0  0  0  0  0  0  0  0  0
  183.3140  178.7230  141.7210 C   0  0  0  0  0  1  0  0  0  0  0  0
  183.7330  178.6640  140.2590 C   0  0  2  0  0  0  0  0  0  0  0  0
  1  3  2  0  0  0  0
  2  5  1  0  0  0  0
  2  3  1  0  0  0  0
  3 10  1  0  0  0  0
  4 30  1  1  0  0  0
  4  1  1  0  0  0  0
  5 19  1  6  0  0  0
  5 12  1  0  0  0  0
  6  2  2  0  0  0  0
  7  6  1  0  0  0  0
  7  4  1  0  0  0  0
  8  9  1  0  0  0  0
  9 13  1  1  0  0  0
 10  9  1  0  0  0  0
 11  7  2  0  0  0  0
 12  8  1  0  0  0  0
 13 14  1  1  0  0  0
 13 15  1  0  0  0  0
 15 16  1  0  0  0  0
 16 17  1  0  0  0  0
 17 18  2  0  0  0  0
 19 21  1  0  0  0  0
 21 27  1  1  0  0  0
 22 26  2  0  0  0  0
 22 24  1  0  0  0  0
 24 29  1  0  0  0  0
 25 20  1  0  0  0  0
 25 23  2  0  0  0  0
 26 25  1  0  0  0  0
 28 23  1  0  0  0  0
 28 21  1  0  0  0  0
 29 28  2  0  0  0  0
 29 21  1  0  0  0  0
 31 30  1  0  0  0  0
 32 31  1  1  0  0  0
 32 33  1  0  0  0  0
 32 34  1  0  0  0  0
 34 33  1  6  0  0  0
 34 46  1  0  0  0  0
 36 42  1  0  0  0  0
 37 35  1  1  0  0  0
 37 45  1  0  0  0  0
 38 43  1  0  0  0  0
 40 44  1  0  0  0  0
 40 41  1  0  0  0  0
 40 39  1  1  0  0  0
 43 45  1  0  0  0  0
 43 50  1  1  0  0  0
 44 36  1  6  0  0  0
 44 41  1  0  0  0  0
 44 38  1  0  0  0  0
 46 42  1  6  0  0  0
 46 37  1  0  0  0  0
 47 50  1  0  0  0  0
 48 50  1  0  0  0  0
 50 49  1  1  0  0  0
M  END
>  <MODEL>
4

>  <REMARK>
 VINA RESULT:      -8.1      4.251      6.010
  Name = 
  10 active torsions:
  status: ('A' for Active; 'I' for Inactive)
    1  A    between atoms: C_3  and  C_15
    2  A    between atoms: C_6  and  C_21
    3  A    between atoms: C_8  and  C_14
    4  A    between atoms: C_14  and  C_19
    5  A    between atoms: C_15  and  C_21
    6  A    between atoms: C_20  and  C_24
    7  A    between atoms: C_24  and  C_35
    8  A    between atoms: C_28  and  C_44
    9  A    between atoms: C_35  and  C_46
   10  A    between atoms: C_37  and  C_45
                            x       y       z     vdW  Elec       q    Type
                         _______ _______ _______ _____ _____    ______ ____

>  <TORSDO>
F 10

$$$$
=
 OpenBabel11062412523D

 50 56  0  0  1  0  0  0  0  0999 V2000
  186.9720  178.2470  138.5630 N   0  0  0  0  0  0  0  0  0  0  0  0
  189.2240  177.4920  138.0560 C   0  0  0  0  0  0  0  0  0  0  0  0
  188.1530  177.9230  139.0020 C   0  0  0  0  0  0  0  0  0  0  0  0
  186.5230  178.1100  137.1770 C   0  0  1  0  0  3  0  0  0  0  0  0
  190.5370  176.9960  138.6030 C   0  0  1  0  0  3  0  0  0  0  0  0
  188.9740  177.4940  136.7400 C   0  0  0  0  0  3  0  0  0  0  0  0
  187.6570  177.8710  136.2240 C   0  0  0  0  0  0  0  0  0  0  0  0
  190.3840  176.5770  140.8390 C   0  0  0  0  0  2  0  0  0  0  0  0
  189.6130  177.8970  141.0580 C   0  0  1  0  0  3  0  0  0  0  0  0
  188.3510  177.9380  140.3900 O   0  0  0  0  0  0  0  0  0  0  0  0
  187.4670  177.9540  134.9810 O   0  0  0  0  0  0  0  0  0  0  0  0
  190.2490  176.0090  139.5540 O   0  0  0  0  0  0  0  0  0  0  0  0
  189.4000  178.1590  142.5540 C   0  0  2  0  0  3  0  0  0  0  0  0
  190.6280  178.3230  143.1930 O   0  0  0  0  0  1  0  0  0  0  0  0
  188.5660  176.9600  143.2790 C   0  0  0  0  0  2  0  0  0  0  0  0
  188.0970  176.4110  143.6080 N   0  0  0  0  0  2  0  0  0  0  0  0
  188.0020  177.4150  144.6230 C   0  0  0  0  0  3  0  0  0  0  0  0
  188.4570  177.1170  145.7680 O   0  0  0  0  0  0  0  0  0  0  0  0
  191.4740  176.4290  137.5240 C   0  0  0  0  0  2  0  0  0  0  0  0
  195.7270  172.2560  137.0100 F   0  0  0  0  0  0  0  0  0  0  0  0
  192.9380  176.3040  137.9480 C   0  0  1  0  0  0  0  0  0  0  0  0
  195.3140  175.5010  135.1330 C   0  0  0  0  0  3  0  0  0  0  0  0
  194.3160  173.8680  137.8400 C   0  0  0  0  0  3  0  0  0  0  0  0
  194.6110  176.7190  135.7160 C   0  0  0  0  0  2  0  0  0  0  0  0
  195.1640  173.4790  136.8720 C   0  0  0  0  0  0  0  0  0  0  0  0
  195.5360  174.2440  135.6170 C   0  0  0  0  0  3  0  0  0  0  0  0
  193.3870  177.1480  138.9620 O   0  0  0  0  0  1  0  0  0  0  0  0
  193.7100  175.1630  137.7240 C   0  0  0  0  0  0  0  0  0  0  0  0
  193.8170  176.2890  136.8640 C   0  0  0  0  0  0  0  0  0  0  0  0
  185.4430  177.0260  137.0620 C   0  0  0  0  0  2  0  0  0  0  0  0
  184.3220  177.1650  138.0920 C   0  0  0  0  0  2  0  0  0  0  0  0
  183.3560  178.2700  137.6940 C   0  0  1  0  0  3  0  0  0  0  0  0
  182.4580  177.8030  136.5710 C   0  0  0  0  0  2  0  0  0  0  0  0
  181.9360  177.8340  138.0010 C   0  0  2  0  0  3  0  0  0  0  0  0
  179.1320  178.1540  137.0930 O   0  0  0  0  0  1  0  0  0  0  0  0
  181.9970  179.1420  140.6660 C   0  0  0  0  0  2  0  0  0  0  0  0
  179.5440  178.7900  138.2700 C   0  0  1  0  0  3  0  0  0  0  0  0
  180.2370  177.4590  141.4960 O   0  0  0  0  0  0  0  0  0  0  0  0
  180.2130  178.5080  143.9940 C   0  0  0  0  0  1  0  0  0  0  0  0
  180.8800  179.3650  142.9330 C   0  0  2  0  0  3  0  0  0  0  0  0
  179.9380  179.7500  141.9460 O   0  0  0  0  0  0  0  0  0  0  0  0
  181.5500  179.9300  139.4260 C   0  0  0  0  0  2  0  0  0  0  0  0
  180.0180  177.1340  140.1440 C   0  0  2  0  0  3  0  0  0  0  0  0
  180.8450  178.7310  141.5870 C   0  0  1  0  0  0  0  0  0  0  0  0
  178.9780  178.0570  139.4970 C   0  0  0  0  0  2  0  0  0  0  0  0
  181.0640  179.0720  138.2440 C   0  0  1  0  0  3  0  0  0  0  0  0
  179.0380  175.1240  141.0610 O   0  0  0  0  0  1  0  0  0  0  0  0
  180.9340  174.9640  139.8340 F   0  0  0  0  0  0  0  0  0  0  0  0
  178.9310  175.3430  138.7010 C   0  0  0  0  0  1  0  0  0  0  0  0
  179.7330  175.6300  139.9620 C   0  0  2  0  0  0  0  0  0  0  0  0
  1  3  2  0  0  0  0
  2  5  1  0  0  0  0
  2  3  1  0  0  0  0
  3 10  1  0  0  0  0
  4 30  1  1  0  0  0
  4  1  1  0  0  0  0
  5 19  1  6  0  0  0
  5 12  1  0  0  0  0
  6  2  2  0  0  0  0
  7  6  1  0  0  0  0
  7  4  1  0  0  0  0
  8  9  1  0  0  0  0
  9 13  1  1  0  0  0
 10  9  1  0  0  0  0
 11  7  2  0  0  0  0
 12  8  1  0  0  0  0
 13 14  1  1  0  0  0
 13 15  1  0  0  0  0
 15 16  1  0  0  0  0
 16 17  1  0  0  0  0
 17 18  2  0  0  0  0
 19 21  1  0  0  0  0
 21 27  1  1  0  0  0
 22 26  2  0  0  0  0
 22 24  1  0  0  0  0
 24 29  1  0  0  0  0
 25 20  1  0  0  0  0
 25 23  2  0  0  0  0
 26 25  1  0  0  0  0
 28 23  1  0  0  0  0
 28 21  1  0  0  0  0
 29 28  2  0  0  0  0
 29 21  1  0  0  0  0
 30 31  1  0  0  0  0
 32 34  1  0  0  0  0
 32 31  1  1  0  0  0
 33 32  1  0  0  0  0
 34 33  1  6  0  0  0
 34 46  1  0  0  0  0
 37 35  1  6  0  0  0
 37 45  1  0  0  0  0
 38 44  1  0  0  0  0
 40 39  1  1  0  0  0
 41 40  1  0  0  0  0
 42 36  1  0  0  0  0
 43 50  1  1  0  0  0
 43 38  1  0  0  0  0
 44 36  1  6  0  0  0
 44 41  1  0  0  0  0
 44 40  1  0  0  0  0
 45 43  1  0  0  0  0
 46 37  1  0  0  0  0
 46 42  1  1  0  0  0
 48 50  1  0  0  0  0
 50 49  1  6  0  0  0
 50 47  1  0  0  0  0
M  END
>  <MODEL>
5

>  <REMARK>
 VINA RESULT:      -8.0      4.133      5.842
  Name = 
  10 active torsions:
  status: ('A' for Active; 'I' for Inactive)
    1  A    between atoms: C_3  and  C_15
    2  A    between atoms: C_6  and  C_21
    3  A    between atoms: C_8  and  C_14
    4  A    between atoms: C_14  and  C_19
    5  A    between atoms: C_15  and  C_21
    6  A    between atoms: C_20  and  C_24
    7  A    between atoms: C_24  and  C_35
    8  A    between atoms: C_28  and  C_44
    9  A    between atoms: C_35  and  C_46
   10  A    between atoms: C_37  and  C_45
                            x       y       z     vdW  Elec       q    Type
                         _______ _______ _______ _____ _____    ______ ____

>  <TORSDO>
F 10

$$$$
=
 OpenBabel11062412523D

 50 56  0  0  1  0  0  0  0  0999 V2000
  187.0210  178.2580  139.0090 N   0  0  0  0  0  0  0  0  0  0  0  0
  189.2710  177.6680  138.3120 C   0  0  0  0  0  0  0  0  0  0  0  0
  188.2270  177.9110  139.3510 C   0  0  0  0  0  0  0  0  0  0  0  0
  186.5200  178.3220  137.6360 C   0  0  1  0  0  3  0  0  0  0  0  0
  190.6180  177.1380  138.7280 C   0  0  1  0  0  3  0  0  0  0  0  0
  188.9680  177.8640  137.0210 C   0  0  0  0  0  3  0  0  0  0  0  0
  187.6220  178.2710  136.6170 C   0  0  0  0  0  0  0  0  0  0  0  0
  190.5670  176.3740  140.8760 C   0  0  0  0  0  2  0  0  0  0  0  0
  189.7690  177.6180  141.3240 C   0  0  1  0  0  3  0  0  0  0  0  0
  188.4800  177.7180  140.7160 O   0  0  0  0  0  0  0  0  0  0  0  0
  187.3800  178.5390  135.4100 O   0  0  0  0  0  0  0  0  0  0  0  0
  190.3970  176.0070  139.5230 O   0  0  0  0  0  0  0  0  0  0  0  0
  189.6090  177.6380  142.8500 C   0  0  2  0  0  3  0  0  0  0  0  0
  188.4760  178.3670  143.2050 O   0  0  0  0  0  1  0  0  0  0  0  0
  190.9150  178.2620  143.6000 C   0  0  0  0  0  2  0  0  0  0  0  0
  191.6880  178.3850  143.7320 N   0  0  0  0  0  2  0  0  0  0  0  0
  191.4900  177.2790  144.6170 C   0  0  0  0  0  3  0  0  0  0  0  0
  191.6680  177.4950  145.8530 O   0  0  0  0  0  0  0  0  0  0  0  0
  191.5270  176.7770  137.5420 C   0  0  0  0  0  2  0  0  0  0  0  0
  195.0580  172.0290  136.6700 F   0  0  0  0  0  0  0  0  0  0  0  0
  192.9580  176.3960  137.9230 C   0  0  1  0  0  0  0  0  0  0  0  0
  195.1400  175.4150  135.0100 C   0  0  0  0  0  3  0  0  0  0  0  0
  193.9310  173.7860  137.6310 C   0  0  0  0  0  3  0  0  0  0  0  0
  194.6470  176.6870  135.6840 C   0  0  0  0  0  2  0  0  0  0  0  0
  194.6940  173.3320  136.6220 C   0  0  0  0  0  0  0  0  0  0  0  0
  195.1660  174.1090  135.4080 C   0  0  0  0  0  3  0  0  0  0  0  0
  193.5480  177.0900  138.9770 O   0  0  0  0  0  1  0  0  0  0  0  0
  193.5360  175.1640  137.6110 C   0  0  0  0  0  0  0  0  0  0  0  0
  193.8090  176.3140  136.8210 C   0  0  0  0  0  0  0  0  0  0  0  0
  185.4680  177.2330  137.3910 C   0  0  0  0  0  2  0  0  0  0  0  0
  186.0660  175.8690  137.0420 C   0  0  0  0  0  2  0  0  0  0  0  0
  185.0570  175.0150  136.2880 C   0  0  1  0  0  3  0  0  0  0  0  0
  184.5660  173.8860  137.1650 C   0  0  0  0  0  2  0  0  0  0  0  0
  183.7020  175.1230  136.9610 C   0  0  2  0  0  3  0  0  0  0  0  0
  181.3110  173.4280  137.4080 O   0  0  0  0  0  1  0  0  0  0  0  0
  182.7010  177.3820  135.3140 C   0  0  0  0  0  2  0  0  0  0  0  0
  181.2190  174.5210  136.5380 C   0  0  1  0  0  3  0  0  0  0  0  0
  181.0870  178.0110  137.2180 O   0  0  0  0  0  0  0  0  0  0  0  0
  180.1030  180.1410  135.8630 C   0  0  0  0  0  1  0  0  0  0  0  0
  180.9100  179.1580  135.0340 C   0  0  2  0  0  3  0  0  0  0  0  0
  180.2730  177.8920  135.0120 O   0  0  0  0  0  0  0  0  0  0  0  0
  182.5350  175.9360  134.8280 C   0  0  0  0  0  2  0  0  0  0  0  0
  181.3610  176.7450  137.7680 C   0  0  2  0  0  3  0  0  0  0  0  0
  181.4070  178.0100  135.8420 C   0  0  1  0  0  0  0  0  0  0  0  0
  180.4320  175.6640  137.2020 C   0  0  0  0  0  2  0  0  0  0  0  0
  182.5980  174.8610  135.9290 C   0  0  1  0  0  3  0  0  0  0  0  0
  181.0120  175.5760  139.8550 O   0  0  0  0  0  1  0  0  0  0  0  0
  180.5620  177.7920  139.7460 F   0  0  0  0  0  0  0  0  0  0  0  0
  182.7990  177.1370  139.8300 C   0  0  0  0  0  1  0  0  0  0  0  0
  181.4100  176.7960  139.3080 C   0  0  2  0  0  0  0  0  0  0  0  0
  1  3  2  0  0  0  0
  2  5  1  0  0  0  0
  2  3  1  0  0  0  0
  3 10  1  0  0  0  0
  4 30  1  6  0  0  0
  4  1  1  0  0  0  0
  5 19  1  6  0  0  0
  5 12  1  0  0  0  0
  6  2  2  0  0  0  0
  7  6  1  0  0  0  0
  7  4  1  0  0  0  0
  8  9  1  0  0  0  0
  9 13  1  1  0  0  0
 10  9  1  0  0  0  0
 11  7  2  0  0  0  0
 12  8  1  0  0  0  0
 13 14  1  6  0  0  0
 13 15  1  0  0  0  0
 15 16  1  0  0  0  0
 16 17  1  0  0  0  0
 17 18  2  0  0  0  0
 19 21  1  0  0  0  0
 21 27  1  1  0  0  0
 22 26  2  0  0  0  0
 22 24  1  0  0  0  0
 24 29  1  0  0  0  0
 25 20  1  0  0  0  0
 25 23  2  0  0  0  0
 26 25  1  0  0  0  0
 28 23  1  0  0  0  0
 28 21  1  0  0  0  0
 29 28  2  0  0  0  0
 29 21  1  0  0  0  0
 31 30  1  0  0  0  0
 32 34  1  0  0  0  0
 32 31  1  1  0  0  0
 32 33  1  0  0  0  0
 34 33  1  1  0  0  0
 37 45  1  0  0  0  0
 37 35  1  1  0  0  0
 38 43  1  0  0  0  0
 40 44  1  0  0  0  0
 40 39  1  1  0  0  0
 41 40  1  0  0  0  0
 41 44  1  0  0  0  0
 42 36  1  0  0  0  0
 43 50  1  1  0  0  0
 44 36  1  6  0  0  0
 44 38  1  0  0  0  0
 45 43  1  0  0  0  0
 46 42  1  1  0  0  0
 46 37  1  0  0  0  0
 46 34  1  0  0  0  0
 50 48  1  0  0  0  0
 50 49  1  1  0  0  0
 50 47  1  0  0  0  0
M  END
>  <MODEL>
6

>  <REMARK>
 VINA RESULT:      -7.5      4.253      6.330
  Name = 
  10 active torsions:
  status: ('A' for Active; 'I' for Inactive)
    1  A    between atoms: C_3  and  C_15
    2  A    between atoms: C_6  and  C_21
    3  A    between atoms: C_8  and  C_14
    4  A    between atoms: C_14  and  C_19
    5  A    between atoms: C_15  and  C_21
    6  A    between atoms: C_20  and  C_24
    7  A    between atoms: C_24  and  C_35
    8  A    between atoms: C_28  and  C_44
    9  A    between atoms: C_35  and  C_46
   10  A    between atoms: C_37  and  C_45
                            x       y       z     vdW  Elec       q    Type
                         _______ _______ _______ _____ _____    ______ ____

>  <TORSDO>
F 10

$$$$
=
 OpenBabel11062412523D

 50 56  0  0  1  0  0  0  0  0999 V2000
  186.0560  178.2400  141.5880 N   0  0  0  0  0  0  0  0  0  0  0  0
  188.1960  177.2100  142.0970 C   0  0  0  0  0  0  0  0  0  0  0  0
  187.2510  177.9220  141.1850 C   0  0  0  0  0  0  0  0  0  0  0  0
  185.5550  178.0730  142.9530 C   0  0  1  0  0  3  0  0  0  0  0  0
  189.6150  176.9740  141.6510 C   0  0  1  0  0  3  0  0  0  0  0  0
  187.7810  176.8540  143.3200 C   0  0  0  0  0  3  0  0  0  0  0  0
  186.4350  177.1870  143.7870 C   0  0  0  0  0  0  0  0  0  0  0  0
  190.1100  178.2200  139.8070 C   0  0  0  0  0  2  0  0  0  0  0  0
  188.7560  177.8490  139.1630 C   0  0  1  0  0  3  0  0  0  0  0  0
  187.6270  178.3260  139.8970 O   0  0  0  0  0  0  0  0  0  0  0  0
  186.0310  176.7650  144.9030 O   0  0  0  0  0  0  0  0  0  0  0  0
  190.1290  178.2030  141.2180 O   0  0  0  0  0  0  0  0  0  0  0  0
  188.6790  178.3710  137.7240 C   0  0  2  0  0  3  0  0  0  0  0  0
  189.0540  179.7120  137.6780 O   0  0  0  0  0  1  0  0  0  0  0  0
  187.1890  178.2010  137.0830 C   0  0  0  0  0  2  0  0  0  0  0  0
  186.4710  178.1480  136.7500 N   0  0  0  0  0  2  0  0  0  0  0  0
  187.2620  177.7750  135.6190 C   0  0  0  0  0  3  0  0  0  0  0  0
  187.2190  178.5400  134.6090 O   0  0  0  0  0  0  0  0  0  0  0  0
  190.5130  176.3880  142.7530 C   0  0  0  0  0  2  0  0  0  0  0  0
  188.3940  178.3940  147.9740 F   0  0  0  0  0  0  0  0  0  0  0  0
  190.9770  177.3960  143.8050 C   0  0  1  0  0  0  0  0  0  0  0  0
  191.2300  176.0010  147.2980 C   0  0  0  0  0  3  0  0  0  0  0  0
  189.2960  178.2790  145.8640 C   0  0  0  0  0  3  0  0  0  0  0  0
  192.0570  176.0260  146.0210 C   0  0  0  0  0  2  0  0  0  0  0  0
  189.2920  177.8320  147.1310 C   0  0  0  0  0  0  0  0  0  0  0  0
  190.1590  176.7360  147.7190 C   0  0  0  0  0  3  0  0  0  0  0  0
  191.9160  178.3480  143.4120 O   0  0  0  0  0  1  0  0  0  0  0  0
  190.2420  177.7080  144.9500 C   0  0  0  0  0  0  0  0  0  0  0  0
  191.3300  176.7950  145.0130 C   0  0  0  0  0  0  0  0  0  0  0  0
  185.3270  179.4370  143.6170 C   0  0  0  0  0  2  0  0  0  0  0  0
  183.8730  179.9090  143.5650 C   0  0  0  0  0  2  0  0  0  0  0  0
  182.9250  178.7250  143.4530 C   0  0  1  0  0  3  0  0  0  0  0  0
  181.4970  179.1730  143.6680 C   0  0  0  0  0  2  0  0  0  0  0  0
  182.0120  178.9210  142.2570 C   0  0  2  0  0  3  0  0  0  0  0  0
  179.2240  177.9160  142.3300 O   0  0  0  0  0  1  0  0  0  0  0  0
  183.0840  177.9230  139.6740 C   0  0  0  0  0  2  0  0  0  0  0  0
  180.0710  177.5020  141.2950 C   0  0  1  0  0  3  0  0  0  0  0  0
  181.2630  179.2600  138.4410 O   0  0  0  0  0  0  0  0  0  0  0  0
  182.1500  178.4790  136.0030 C   0  0  0  0  0  1  0  0  0  0  0  0
  182.6930  177.6870  137.1780 C   0  0  2  0  0  3  0  0  0  0  0  0
  181.6410  177.0130  137.8480 O   0  0  0  0  0  0  0  0  0  0  0  0
  182.5210  176.9410  140.7110 C   0  0  0  0  0  2  0  0  0  0  0  0
  180.6230  179.3960  139.6870 C   0  0  2  0  0  3  0  0  0  0  0  0
  182.1540  178.1640  138.4810 C   0  0  1  0  0  0  0  0  0  0  0  0
  179.6950  178.2120  139.9840 C   0  0  0  0  0  2  0  0  0  0  0  0
  181.5510  177.5540  141.7380 C   0  0  1  0  0  3  0  0  0  0  0  0
  178.9430  180.9380  138.8860 O   0  0  0  0  0  1  0  0  0  0  0  0
  180.9130  181.7540  139.6470 F   0  0  0  0  0  0  0  0  0  0  0  0
  179.3680  180.9920  141.2200 C   0  0  0  0  0  1  0  0  0  0  0  0
  179.9560  180.7780  139.8320 C   0  0  2  0  0  0  0  0  0  0  0  0
  1  4  1  0  0  0  0
  2  6  2  0  0  0  0
  3  1  2  0  0  0  0
  3  2  1  0  0  0  0
  4 30  1  1  0  0  0
  4  7  1  0  0  0  0
  5  2  1  0  0  0  0
  5 19  1  1  0  0  0
  6  7  1  0  0  0  0
  7 11  2  0  0  0  0
  8 12  1  0  0  0  0
  9 13  1  6  0  0  0
  9  8  1  0  0  0  0
  9 10  1  0  0  0  0
 10  3  1  0  0  0  0
 12  5  1  0  0  0  0
 13 14  1  1  0  0  0
 15 13  1  0  0  0  0
 16 15  1  0  0  0  0
 17 16  1  0  0  0  0
 18 17  2  0  0  0  0
 19 21  1  0  0  0  0
 21 27  1  6  0  0  0
 21 28  1  0  0  0  0
 21 29  1  0  0  0  0
 22 26  2  0  0  0  0
 23 25  2  0  0  0  0
 24 22  1  0  0  0  0
 25 26  1  0  0  0  0
 25 20  1  0  0  0  0
 28 29  2  0  0  0  0
 28 23  1  0  0  0  0
 29 24  1  0  0  0  0
 31 30  1  0  0  0  0
 32 31  1  6  0  0  0
 32 33  1  0  0  0  0
 34 32  1  0  0  0  0
 34 33  1  1  0  0  0
 36 42  1  0  0  0  0
 37 46  1  0  0  0  0
 37 35  1  1  0  0  0
 38 44  1  0  0  0  0
 38 43  1  0  0  0  0
 40 39  1  6  0  0  0
 40 41  1  0  0  0  0
 40 44  1  0  0  0  0
 41 44  1  0  0  0  0
 43 50  1  6  0  0  0
 43 45  1  0  0  0  0
 44 36  1  1  0  0  0
 45 37  1  0  0  0  0
 46 42  1  6  0  0  0
 46 34  1  0  0  0  0
 47 50  1  0  0  0  0
 48 50  1  0  0  0  0
 50 49  1  1  0  0  0
M  END
>  <MODEL>
7

>  <REMARK>
 VINA RESULT:      -7.4      1.871      5.073
  Name = 
  10 active torsions:
  status: ('A' for Active; 'I' for Inactive)
    1  A    between atoms: C_3  and  C_15
    2  A    between atoms: C_6  and  C_21
    3  A    between atoms: C_8  and  C_14
    4  A    between atoms: C_14  and  C_19
    5  A    between atoms: C_15  and  C_21
    6  A    between atoms: C_20  and  C_24
    7  A    between atoms: C_24  and  C_35
    8  A    between atoms: C_28  and  C_44
    9  A    between atoms: C_35  and  C_46
   10  A    between atoms: C_37  and  C_45
                            x       y       z     vdW  Elec       q    Type
                         _______ _______ _______ _____ _____    ______ ____

>  <TORSDO>
F 10

$$$$
=
 OpenBabel11062412523D

 50 56  0  0  1  0  0  0  0  0999 V2000
  184.5990  178.2720  139.4870 N   0  0  0  0  0  0  0  0  0  0  0  0
  186.3970  178.2550  141.1190 C   0  0  0  0  0  0  0  0  0  0  0  0
  185.8730  178.1660  139.7230 C   0  0  0  0  0  0  0  0  0  0  0  0
  183.5820  178.6050  140.4840 C   0  0  1  0  0  3  0  0  0  0  0  0
  187.8860  178.2640  141.3500 C   0  0  1  0  0  3  0  0  0  0  0  0
  185.5330  178.3900  142.1340 C   0  0  0  0  0  3  0  0  0  0  0  0
  184.0940  178.4930  141.8910 C   0  0  0  0  0  0  0  0  0  0  0  0
  189.0130  178.6200  139.4000 C   0  0  0  0  0  2  0  0  0  0  0  0
  188.0940  177.6220  138.6600 C   0  0  1  0  0  3  0  0  0  0  0  0
  186.7260  178.0310  138.6190 O   0  0  0  0  0  0  0  0  0  0  0  0
  183.2910  178.5270  142.8610 O   0  0  0  0  0  0  0  0  0  0  0  0
  188.4330  179.2520  140.5210 O   0  0  0  0  0  0  0  0  0  0  0  0
  188.5930  177.3860  137.2290 C   0  0  2  0  0  3  0  0  0  0  0  0
  189.3400  178.4790  136.7940 O   0  0  0  0  0  1  0  0  0  0  0  0
  187.3700  177.1120  136.1860 C   0  0  0  0  0  2  0  0  0  0  0  0
  187.3180  177.1970  135.3980 N   0  0  0  0  0  2  0  0  0  0  0  0
  187.5600  175.7880  135.4480 C   0  0  0  0  0  3  0  0  0  0  0  0
  188.6320  175.3700  134.9170 O   0  0  0  0  0  0  0  0  0  0  0  0
  188.2760  178.5310  142.8130 C   0  0  0  0  0  2  0  0  0  0  0  0
  191.2330  177.1240  147.8170 F   0  0  0  0  0  0  0  0  0  0  0  0
  188.4310  177.2760  143.6730 C   0  0  1  0  0  0  0  0  0  0  0  0
  187.5500  177.7570  147.3080 C   0  0  0  0  0  3  0  0  0  0  0  0
  190.3650  177.0850  145.6910 C   0  0  0  0  0  3  0  0  0  0  0  0
  186.8350  177.5080  145.9870 C   0  0  0  0  0  2  0  0  0  0  0  0
  190.1570  177.2610  147.0070 C   0  0  0  0  0  0  0  0  0  0  0  0
  188.8550  177.6330  147.6890 C   0  0  0  0  0  3  0  0  0  0  0  0
  188.1260  176.0510  143.0830 O   0  0  0  0  0  1  0  0  0  0  0  0
  189.2420  177.2160  144.8080 C   0  0  0  0  0  0  0  0  0  0  0  0
  187.8380  177.4040  144.9300 C   0  0  0  0  0  0  0  0  0  0  0  0
  182.9830  179.9900  140.2050 C   0  0  0  0  0  2  0  0  0  0  0  0
  182.8110  180.2950  138.7170 C   0  0  0  0  0  2  0  0  0  0  0  0
  181.3400  180.2750  138.3280 C   0  0  1  0  0  3  0  0  0  0  0  0
  181.1830  180.5480  136.8500 C   0  0  0  0  0  2  0  0  0  0  0  0
  181.0860  179.1210  137.3760 C   0  0  2  0  0  3  0  0  0  0  0  0
  179.4230  178.1070  135.1410 O   0  0  0  0  0  1  0  0  0  0  0  0
  180.2630  177.4770  139.7070 C   0  0  0  0  0  2  0  0  0  0  0  0
  179.1830  177.6360  136.4380 C   0  0  1  0  0  3  0  0  0  0  0  0
  181.0430  175.3700  138.4540 O   0  0  0  0  0  0  0  0  0  0  0  0
  180.3900  173.7370  140.5150 C   0  0  0  0  0  1  0  0  0  0  0  0
  179.8160  175.1410  140.5890 C   0  0  2  0  0  3  0  0  0  0  0  0
  178.9350  175.3700  139.5020 O   0  0  0  0  0  0  0  0  0  0  0  0
  179.2230  178.2980  138.9310 C   0  0  0  0  0  2  0  0  0  0  0  0
  181.0750  176.1630  137.2920 C   0  0  2  0  0  3  0  0  0  0  0  0
  180.2070  175.9750  139.4190 C   0  0  1  0  0  0  0  0  0  0  0  0
  179.7130  176.2000  136.5880 C   0  0  0  0  0  2  0  0  0  0  0  0
  179.6240  178.6750  137.4930 C   0  0  1  0  0  3  0  0  0  0  0  0
  181.8480  175.7420  135.0410 O   0  0  0  0  0  1  0  0  0  0  0  0
  182.7110  174.5280  136.7460 F   0  0  0  0  0  0  0  0  0  0  0  0
  183.4270  176.7350  136.5080 C   0  0  0  0  0  1  0  0  0  0  0  0
  182.2530  175.7750  136.3750 C   0  0  2  0  0  0  0  0  0  0  0  0
  1  3  2  0  0  0  0
  1  4  1  0  0  0  0
  2  5  1  0  0  0  0
  2  6  2  0  0  0  0
  3  2  1  0  0  0  0
  4 30  1  6  0  0  0
  4  7  1  0  0  0  0
  5 19  1  1  0  0  0
  7  6  1  0  0  0  0
  7 11  2  0  0  0  0
  8 12  1  0  0  0  0
  9 13  1  6  0  0  0
  9  8  1  0  0  0  0
 10  9  1  0  0  0  0
 10  3  1  0  0  0  0
 12  5  1  0  0  0  0
 13 14  1  6  0  0  0
 15 13  1  0  0  0  0
 16 17  1  0  0  0  0
 16 15  1  0  0  0  0
 18 17  2  0  0  0  0
 19 21  1  0  0  0  0
 21 27  1  6  0  0  0
 21 28  1  0  0  0  0
 21 29  1  0  0  0  0
 22 26  2  0  0  0  0
 23 25  2  0  0  0  0
 24 22  1  0  0  0  0
 25 26  1  0  0  0  0
 25 20  1  0  0  0  0
 28 29  2  0  0  0  0
 28 23  1  0  0  0  0
 29 24  1  0  0  0  0
 31 30  1  0  0  0  0
 32 31  1  6  0  0  0
 33 32  1  0  0  0  0
 34 33  1  6  0  0  0
 34 46  1  0  0  0  0
 34 32  1  0  0  0  0
 37 35  1  6  0  0  0
 37 45  1  0  0  0  0
 37 46  1  0  0  0  0
 38 44  1  0  0  0  0
 40 39  1  6  0  0  0
 41 40  1  0  0  0  0
 42 36  1  0  0  0  0
 43 50  1  6  0  0  0
 43 38  1  0  0  0  0
 44 41  1  0  0  0  0
 44 36  1  1  0  0  0
 44 40  1  0  0  0  0
 45 43  1  0  0  0  0
 46 42  1  1  0  0  0
 47 50  1  0  0  0  0
 50 49  1  1  0  0  0
 50 48  1  0  0  0  0
M  END
>  <MODEL>
8

>  <REMARK>
 VINA RESULT:      -7.4      1.967      5.034
  Name = 
  10 active torsions:
  status: ('A' for Active; 'I' for Inactive)
    1  A    between atoms: C_3  and  C_15
    2  A    between atoms: C_6  and  C_21
    3  A    between atoms: C_8  and  C_14
    4  A    between atoms: C_14  and  C_19
    5  A    between atoms: C_15  and  C_21
    6  A    between atoms: C_20  and  C_24
    7  A    between atoms: C_24  and  C_35
    8  A    between atoms: C_28  and  C_44
    9  A    between atoms: C_35  and  C_46
   10  A    between atoms: C_37  and  C_45
                            x       y       z     vdW  Elec       q    Type
                         _______ _______ _______ _____ _____    ______ ____

>  <TORSDO>
F 10

$$$$
=
 OpenBabel11062412523D

 50 56  0  0  1  0  0  0  0  0999 V2000
  187.1700  178.4100  139.5870 N   0  0  0  0  0  0  0  0  0  0  0  0
  189.4870  177.8790  139.0880 C   0  0  0  0  0  0  0  0  0  0  0  0
  188.3530  178.1040  140.0330 C   0  0  0  0  0  0  0  0  0  0  0  0
  186.7840  178.4400  138.1750 C   0  0  1  0  0  3  0  0  0  0  0  0
  190.8090  177.3960  139.6240 C   0  0  1  0  0  3  0  0  0  0  0  0
  189.2870  178.0480  137.7740 C   0  0  0  0  0  3  0  0  0  0  0  0
  187.9680  178.4080  137.2530 C   0  0  0  0  0  0  0  0  0  0  0  0
  190.6020  176.6600  141.7710 C   0  0  0  0  0  2  0  0  0  0  0  0
  189.7330  177.8850  142.1320 C   0  0  1  0  0  3  0  0  0  0  0  0
  188.4970  177.9380  141.4170 O   0  0  0  0  0  0  0  0  0  0  0  0
  187.8200  178.6530  136.0250 O   0  0  0  0  0  0  0  0  0  0  0  0
  190.5550  176.2690  140.4160 O   0  0  0  0  0  0  0  0  0  0  0  0
  189.4460  177.9220  143.6380 C   0  0  0  0  0  0  0  0  0  0  0  0
  190.6020  177.6210  144.3550 O   0  0  0  0  0  0  0  0  0  0  0  0
  188.2570  176.8910  144.0660 C   0  0  0  0  0  1  0  0  0  0  0  0
  188.5300  177.5910  144.3200 N   0  0  0  0  0  0  0  0  0  0  0  0
  187.3960  177.4750  145.1840 C   0  0  0  0  0  3  0  0  0  0  0  0
  186.4830  178.3450  145.0540 O   0  0  0  0  0  0  0  0  0  0  0  0
  191.8240  177.0460  138.5220 C   0  0  0  0  0  2  0  0  0  0  0  0
  187.0600  173.9880  136.5920 F   0  0  0  0  0  0  0  0  0  0  0  0
  191.5950  175.6930  137.8470 C   0  0  1  0  0  0  0  0  0  0  0  0
  189.6630  175.8700  134.6150 C   0  0  0  0  0  3  0  0  0  0  0  0
  189.0430  174.5660  137.5990 C   0  0  0  0  0  3  0  0  0  0  0  0
  191.0910  176.0770  135.0990 C   0  0  0  0  0  2  0  0  0  0  0  0
  188.2670  174.5950  136.5010 C   0  0  0  0  0  0  0  0  0  0  0  0
  188.5760  175.2650  135.1770 C   0  0  0  0  0  3  0  0  0  0  0  0
  192.6100  174.7440  137.9510 O   0  0  0  0  0  1  0  0  0  0  0  0
  190.3300  175.1940  137.5300 C   0  0  0  0  0  0  0  0  0  0  0  0
  191.1350  175.8130  136.5350 C   0  0  0  0  0  0  0  0  0  0  0  0
  185.7880  177.3160  137.8620 C   0  0  0  0  0  2  0  0  0  0  0  0
  185.2450  177.3580  136.4340 C   0  0  0  0  0  2  0  0  0  0  0  0
  183.9060  176.6410  136.3440 C   0  0  1  0  0  3  0  0  0  0  0  0
  183.9380  175.3640  137.1540 C   0  0  0  0  0  2  0  0  0  0  0  0
  183.2590  176.6060  137.7170 C   0  0  2  0  0  3  0  0  0  0  0  0
  181.4220  175.2330  139.5950 O   0  0  0  0  0  1  0  0  0  0  0  0
  181.7590  179.0210  136.8580 C   0  0  0  0  0  2  0  0  0  0  0  0
  180.9640  176.3510  138.8880 C   0  0  1  0  0  3  0  0  0  0  0  0
  181.6920  179.8080  139.3070 O   0  0  0  0  0  0  0  0  0  0  0  0
  180.3640  182.0860  138.6800 C   0  0  0  0  0  1  0  0  0  0  0  0
  180.3900  181.0260  137.5940 C   0  0  2  0  0  3  0  0  0  0  0  0
  179.7160  179.8570  138.0290 O   0  0  0  0  0  0  0  0  0  0  0  0
  181.1600  177.6220  136.6520 C   0  0  0  0  0  2  0  0  0  0  0  0
  182.0830  178.5030  139.6600 C   0  0  2  0  0  3  0  0  0  0  0  0
  181.1250  179.8010  138.0130 C   0  0  1  0  0  0  0  0  0  0  0  0
  180.8760  177.5710  139.8210 C   0  0  0  0  0  2  0  0  0  0  0  0
  181.7360  176.5200  137.5600 C   0  0  1  0  0  3  0  0  0  0  0  0
  184.1170  179.3720  140.6340 O   0  0  0  0  0  1  0  0  0  0  0  0
  183.5260  177.2270  141.0510 F   0  0  0  0  0  0  0  0  0  0  0  0
  182.3550  178.9150  142.1560 C   0  0  0  0  0  1  0  0  0  0  0  0
  183.0470  178.5070  140.8630 C   0  0  2  0  0  0  0  0  0  0  0  0
  1  3  2  0  0  0  0
  2  5  1  0  0  0  0
  2  3  1  0  0  0  0
  3 10  1  0  0  0  0
  4 30  1  6  0  0  0
  4  1  1  0  0  0  0
  5 19  1  6  0  0  0
  5 12  1  0  0  0  0
  6  2  2  0  0  0  0
  7  6  1  0  0  0  0
  7  4  1  0  0  0  0
  8  9  1  0  0  0  0
  9 13  1  1  0  0  0
 10  9  1  0  0  0  0
 11  7  2  0  0  0  0
 12  8  1  0  0  0  0
 13 16  1  0  0  0  0
 13 14  2  0  0  0  0
 15 16  1  0  0  0  0
 16 17  1  0  0  0  0
 18 17  2  0  0  0  0
 21 27  1  1  0  0  0
 21 19  1  0  0  0  0
 22 24  1  0  0  0  0
 22 26  2  0  0  0  0
 24 29  1  0  0  0  0
 25 20  1  0  0  0  0
 25 23  2  0  0  0  0
 26 25  1  0  0  0  0
 28 23  1  0  0  0  0
 28 21  1  0  0  0  0
 29 28  2  0  0  0  0
 29 21  1  0  0  0  0
 31 30  1  0  0  0  0
 32 31  1  1  0  0  0
 32 33  1  0  0  0  0
 32 34  1  0  0  0  0
 34 33  1  1  0  0  0
 37 35  1  1  0  0  0
 37 45  1  0  0  0  0
 38 43  1  0  0  0  0
 40 44  1  0  0  0  0
 40 41  1  0  0  0  0
 40 39  1  1  0  0  0
 42 36  1  0  0  0  0
 43 45  1  0  0  0  0
 43 50  1  1  0  0  0
 44 36  1  6  0  0  0
 44 41  1  0  0  0  0
 44 38  1  0  0  0  0
 46 42  1  1  0  0  0
 46 34  1  0  0  0  0
 46 37  1  0  0  0  0
 47 50  1  0  0  0  0
 50 48  1  0  0  0  0
 50 49  1  1  0  0  0
M  END
>  <MODEL>
9

>  <REMARK>
 VINA RESULT:      -7.2      2.775      5.591
  Name = 
  10 active torsions:
  status: ('A' for Active; 'I' for Inactive)
    1  A    between atoms: C_3  and  C_15
    2  A    between atoms: C_6  and  C_21
    3  A    between atoms: C_8  and  C_14
    4  A    between atoms: C_14  and  C_19
    5  A    between atoms: C_15  and  C_21
    6  A    between atoms: C_20  and  C_24
    7  A    between atoms: C_24  and  C_35
    8  A    between atoms: C_28  and  C_44
    9  A    between atoms: C_35  and  C_46
   10  A    between atoms: C_37  and  C_45
                            x       y       z     vdW  Elec       q    Type
                         _______ _______ _______ _____ _____    ______ ____

>  <TORSDO>
F 10

$$$$
