=
 OpenBabel11062413423D

 35 39  0  0  1  0  0  0  0  0999 V2000
  187.9290  178.0040  142.3750 C   0  0  2  0  0  3  0  0  0  0  0  0
  189.8710  178.1900  145.3320 N   0  0  0  0  0  0  0  0  0  0  0  0
  189.4830  177.5560  144.0910 C   0  0  1  0  0  0  0  0  0  0  0  0
  187.2720  176.9600  143.2760 C   0  0  0  0  0  2  0  0  0  0  0  0
  189.1350  178.5460  143.0400 N   0  0  1  0  0  0  0  0  0  0  0  0
  190.3100  177.6520  142.8900 C   0  0  1  0  0  0  0  0  0  0  0  0
  187.9250  177.0090  145.5880 N   0  0  0  0  0  2  0  0  0  0  0  0
  188.9630  177.8050  146.1770 C   0  0  0  0  0  3  0  0  0  0  0  0
  188.2570  176.8270  144.3540 C   0  0  2  0  0  3  0  0  0  0  0  0
  191.5130  178.3420  143.0410 O   0  0  0  0  0  1  0  0  0  0  0  0
  187.0080  179.0550  142.1080 O   0  0  0  0  0  0  0  0  0  0  0  0
  183.5990  178.9220  143.5140 C   0  0  0  0  0  3  0  0  0  0  0  0
  184.8550  178.5270  141.0770 C   0  0  0  0  0  3  0  0  0  0  0  0
  184.9830  179.0860  143.4230 C   0  0  0  0  0  0  0  0  0  0  0  0
  185.6210  178.8900  142.1950 C   0  0  0  0  0  0  0  0  0  0  0  0
  183.4700  178.3520  141.2060 C   0  0  0  0  0  0  0  0  0  0  0  0
  182.8800  178.5690  142.4150 N   0  0  0  0  0  0  0  0  0  0  0  0
  185.6940  179.4380  144.5220 F   0  0  0  0  0  0  0  0  0  0  0  0
  182.6280  178.0140  140.0060 C   0  0  0  0  0  0  0  0  0  0  0  0
  181.2850  178.3060  140.2550 O   0  0  0  0  0  1  0  0  0  0  0  0
  183.0530  178.7540  138.9000 O   0  0  0  0  0  1  0  0  0  0  0  0
  182.7640  176.5360  139.6920 C   0  0  0  0  0  1  0  0  0  0  0  0
  190.2480  176.5470  141.8260 C   0  0  0  0  0  2  0  0  0  0  0  0
  190.9410  176.9730  140.5390 C   0  0  0  0  0  2  0  0  0  0  0  0
  190.1210  176.8440  136.9170 C   0  0  0  0  0  2  0  0  0  0  0  0
  188.9110  177.5910  137.4810 C   0  0  1  0  0  0  0  0  0  0  0  0
  191.0130  176.4790  138.0880 C   0  0  0  0  0  2  0  0  0  0  0  0
  189.1250  177.6560  138.9870 C   0  0  0  0  0  2  0  0  0  0  0  0
  188.9110  178.9990  136.9050 C   0  0  0  0  0  1  0  0  0  0  0  0
  190.1320  176.5790  139.3130 C   0  0  2  0  0  3  0  0  0  0  0  0
  187.6180  175.5820  136.5640 C   0  0  0  0  0  1  0  0  0  0  0  0
  187.6340  176.9110  137.1730 N   0  0  0  0  0  0  0  0  0  0  0  0
  186.3670  177.5350  137.4620 C   0  0  0  0  0  0  0  0  0  0  0  0
  185.2890  176.9390  137.1970 O   0  0  0  0  0  0  0  0  0  0  0  0
  186.3140  178.7980  138.0390 O   0  0  0  0  0  1  0  0  0  0  0  0
  1 11  1  1  0  0  0
  1  5  1  0  0  0  0
  1  4  1  0  0  0  0
  2  8  2  0  0  0  0
  3  9  1  0  0  0  0
  3  2  1  1  0  0  0
  4  9  1  0  0  0  0
  5  3  1  0  0  0  0
  6  5  1  0  0  0  0
  6 10  1  0  0  0  0
  6  3  1  0  0  0  0
  7  8  1  0  0  0  0
  9  7  1  0  0  0  0
 11 15  1  0  0  0  0
 13 16  2  0  0  0  0
 13 15  1  0  0  0  0
 14 12  1  0  0  0  0
 14 18  1  0  0  0  0
 15 14  2  0  0  0  0
 16 17  1  0  0  0  0
 17 12  2  0  0  0  0
 19 20  1  0  0  0  0
 19 16  1  0  0  0  0
 21 19  1  0  0  0  0
 22 19  1  0  0  0  0
 23  6  1  0  0  0  0
 24 23  1  0  0  0  0
 25 26  1  0  0  0  0
 25 27  1  0  0  0  0
 26 28  1  0  0  0  0
 27 30  1  0  0  0  0
 28 30  1  0  0  0  0
 29 26  1  0  0  0  0
 30 24  1  0  0  0  0
 31 32  1  0  0  0  0
 32 33  1  0  0  0  0
 32 26  1  0  0  0  0
 33 35  1  0  0  0  0
 34 33  2  0  0  0  0
M  END
>  <MODEL>
1

>  <REMARK>
 VINA RESULT:      -8.0      0.000      0.000
  Name = 
  7 active torsions:
  status: ('A' for Active; 'I' for Inactive)
    1  A    between atoms: C_3  and  O_17
    2  A    between atoms: C_4  and  C_21
    3  A    between atoms: C_4  and  C_34
    4  A    between atoms: C_5  and  C_24
    5  A    between atoms: N_7  and  C_10
    6  A    between atoms: O_17  and  C_18
    7  A    between atoms: C_21  and  C_23
                            x       y       z     vdW  Elec       q    Type
                         _______ _______ _______ _____ _____    ______ ____

>  <TORSDO>
F 7

$$$$
=
 OpenBabel11062413423D

 35 39  0  0  1  0  0  0  0  0999 V2000
  190.3030  176.8410  138.4340 C   0  0  2  0  0  3  0  0  0  0  0  0
  187.2290  178.5020  137.8500 N   0  0  0  0  0  0  0  0  0  0  0  0
  188.0750  177.5970  138.5970 C   0  0  1  0  0  0  0  0  0  0  0  0
  189.4400  175.7440  137.8130 C   0  0  0  0  0  2  0  0  0  0  0  0
  189.4870  178.0580  138.6420 N   0  0  1  0  0  0  0  0  0  0  0  0
  188.6660  177.9800  139.8770 C   0  0  1  0  0  0  0  0  0  0  0  0
  187.3860  176.4730  136.8000 N   0  0  0  0  0  2  0  0  0  0  0  0
  186.8200  177.7900  136.8450 C   0  0  0  0  0  3  0  0  0  0  0  0
  188.1030  176.3450  137.8660 C   0  0  2  0  0  3  0  0  0  0  0  0
  188.3130  179.2450  140.3490 O   0  0  0  0  0  1  0  0  0  0  0  0
  191.3990  177.1320  137.5750 O   0  0  0  0  0  0  0  0  0  0  0  0
  193.2230  174.6530  135.5410 C   0  0  0  0  0  3  0  0  0  0  0  0
  193.3580  175.7600  138.0760 C   0  0  0  0  0  3  0  0  0  0  0  0
  192.2800  175.6100  135.9210 C   0  0  0  0  0  0  0  0  0  0  0  0
  192.3460  176.1730  137.1980 C   0  0  0  0  0  0  0  0  0  0  0  0
  194.2780  174.7830  137.6720 C   0  0  0  0  0  0  0  0  0  0  0  0
  194.1950  174.2690  136.4120 N   0  0  0  0  0  0  0  0  0  0  0  0
  191.3140  175.9890  135.0480 F   0  0  0  0  0  0  0  0  0  0  0  0
  195.4010  174.3650  138.5820 C   0  0  0  0  0  0  0  0  0  0  0  0
  195.5390  175.2730  139.6340 O   0  0  0  0  0  1  0  0  0  0  0  0
  195.1410  173.0980  139.1100 O   0  0  0  0  0  1  0  0  0  0  0  0
  196.6970  174.3160  137.7970 C   0  0  0  0  0  1  0  0  0  0  0  0
  189.0170  176.9020  140.9130 C   0  0  0  0  0  2  0  0  0  0  0  0
  188.1270  177.0020  142.1440 C   0  0  0  0  0  2  0  0  0  0  0  0
  189.6270  177.6400  145.4830 C   0  0  0  0  0  2  0  0  0  0  0  0
  190.8650  177.3160  144.6450 C   0  0  1  0  0  0  0  0  0  0  0  0
  188.4180  177.4900  144.5800 C   0  0  0  0  0  2  0  0  0  0  0  0
  190.3510  176.9860  143.2500 C   0  0  0  0  0  2  0  0  0  0  0  0
  191.7380  178.5610  144.5850 C   0  0  0  0  0  1  0  0  0  0  0  0
  188.8880  176.6510  143.4130 C   0  0  2  0  0  3  0  0  0  0  0  0
  192.0300  175.0590  144.3370 C   0  0  0  0  0  1  0  0  0  0  0  0
  191.6340  176.1770  145.1910 N   0  0  0  0  0  0  0  0  0  0  0  0
  192.0160  176.1310  146.5810 C   0  0  0  0  0  0  0  0  0  0  0  0
  192.6740  175.1540  147.0280 O   0  0  0  0  0  0  0  0  0  0  0  0
  191.6680  177.1620  147.4460 O   0  0  0  0  0  1  0  0  0  0  0  0
  1 11  1  6  0  0  0
  1  5  1  0  0  0  0
  3  2  1  6  0  0  0
  3  5  1  0  0  0  0
  3  6  1  0  0  0  0
  4  9  1  0  0  0  0
  4  1  1  0  0  0  0
  5  6  1  0  0  0  0
  6 10  1  0  0  0  0
  6 23  1  0  0  0  0
  7  8  1  0  0  0  0
  7  9  1  0  0  0  0
  8  2  2  0  0  0  0
  9  3  1  0  0  0  0
 12 14  2  0  0  0  0
 12 17  1  0  0  0  0
 14 15  1  0  0  0  0
 15 11  1  0  0  0  0
 15 13  2  0  0  0  0
 16 13  1  0  0  0  0
 16 19  1  0  0  0  0
 17 16  2  0  0  0  0
 18 14  1  0  0  0  0
 19 21  1  0  0  0  0
 19 20  1  0  0  0  0
 22 19  1  0  0  0  0
 23 24  1  0  0  0  0
 24 30  1  0  0  0  0
 26 32  1  0  0  0  0
 26 25  1  0  0  0  0
 27 25  1  0  0  0  0
 28 30  1  0  0  0  0
 28 26  1  0  0  0  0
 29 26  1  0  0  0  0
 30 27  1  0  0  0  0
 31 32  1  0  0  0  0
 32 33  1  0  0  0  0
 33 34  2  0  0  0  0
 33 35  1  0  0  0  0
M  END
>  <MODEL>
2

>  <REMARK>
 VINA RESULT:      -8.0      3.889      9.261
  Name = 
  7 active torsions:
  status: ('A' for Active; 'I' for Inactive)
    1  A    between atoms: C_3  and  O_17
    2  A    between atoms: C_4  and  C_21
    3  A    between atoms: C_4  and  C_34
    4  A    between atoms: C_5  and  C_24
    5  A    between atoms: N_7  and  C_10
    6  A    between atoms: O_17  and  C_18
    7  A    between atoms: C_21  and  C_23
                            x       y       z     vdW  Elec       q    Type
                         _______ _______ _______ _____ _____    ______ ____

>  <TORSDO>
F 7

$$$$
=
 OpenBabel11062413423D

 35 39  0  0  1  0  0  0  0  0999 V2000
  183.5940  178.3850  141.3700 C   0  0  2  0  0  3  0  0  0  0  0  0
  181.5290  180.0060  138.9910 N   0  0  0  0  0  0  0  0  0  0  0  0
  182.4120  178.9380  139.4050 C   0  0  1  0  0  0  0  0  0  0  0  0
  184.6080  179.0510  140.4410 C   0  0  0  0  0  2  0  0  0  0  0  0
  182.2270  178.5810  140.8350 N   0  0  1  0  0  0  0  0  0  0  0  0
  181.9010  177.6150  139.7570 C   0  0  1  0  0  0  0  0  0  0  0  0
  183.7180  180.6730  138.9070 N   0  0  0  0  0  2  0  0  0  0  0  0
  182.3360  180.9720  138.6700 C   0  0  0  0  0  3  0  0  0  0  0  0
  183.7660  179.4470  139.3080 C   0  0  2  0  0  3  0  0  0  0  0  0
  180.5240  177.4420  139.6100 O   0  0  0  0  0  1  0  0  0  0  0  0
  183.6920  178.9500  142.6710 O   0  0  0  0  0  0  0  0  0  0  0  0
  185.3920  178.3120  145.8830 C   0  0  0  0  0  3  0  0  0  0  0  0
  185.9190  178.0780  143.1740 C   0  0  0  0  0  3  0  0  0  0  0  0
  184.4140  178.6890  144.9610 C   0  0  0  0  0  0  0  0  0  0  0  0
  184.6750  178.5710  143.5930 C   0  0  0  0  0  0  0  0  0  0  0  0
  186.8870  177.7260  144.1250 C   0  0  0  0  0  0  0  0  0  0  0  0
  186.5910  177.8370  145.4510 N   0  0  0  0  0  0  0  0  0  0  0  0
  183.2200  179.1620  145.3980 F   0  0  0  0  0  0  0  0  0  0  0  0
  188.2070  177.1470  143.6940 C   0  0  0  0  0  0  0  0  0  0  0  0
  188.0360  175.8480  143.2100 O   0  0  0  0  0  1  0  0  0  0  0  0
  188.7670  177.9350  142.6860 O   0  0  0  0  0  1  0  0  0  0  0  0
  189.1550  177.1140  144.8780 C   0  0  0  0  0  1  0  0  0  0  0  0
  182.7980  176.3790  139.5960 C   0  0  0  0  0  2  0  0  0  0  0  0
  182.5770  175.7020  138.2510 C   0  0  0  0  0  2  0  0  0  0  0  0
  185.0770  175.4230  135.5150 C   0  0  0  0  0  2  0  0  0  0  0  0
  185.8960  176.1060  136.6130 C   0  0  1  0  0  0  0  0  0  0  0  0
  183.6660  175.2510  136.0440 C   0  0  0  0  0  2  0  0  0  0  0  0
  184.9380  176.3150  137.7790 C   0  0  0  0  0  2  0  0  0  0  0  0
  187.0100  175.1600  137.0320 C   0  0  0  0  0  1  0  0  0  0  0  0
  183.5470  176.2190  137.1990 C   0  0  2  0  0  3  0  0  0  0  0  0
  186.3780  177.8210  134.7770 C   0  0  0  0  0  1  0  0  0  0  0  0
  186.4590  177.4010  136.1740 N   0  0  0  0  0  0  0  0  0  0  0  0
  187.1050  178.2890  137.1080 C   0  0  0  0  0  0  0  0  0  0  0  0
  187.5760  179.3900  136.7170 O   0  0  0  0  0  0  0  0  0  0  0  0
  187.2170  177.9470  138.4500 O   0  0  0  0  0  1  0  0  0  0  0  0
  1 11  1  1  0  0  0
  3  2  1  6  0  0  0
  3  6  1  0  0  0  0
  3  5  1  0  0  0  0
  4  1  1  0  0  0  0
  5  1  1  0  0  0  0
  6  5  1  0  0  0  0
  7  9  1  0  0  0  0
  8  7  1  0  0  0  0
  8  2  2  0  0  0  0
  9  3  1  0  0  0  0
  9  4  1  0  0  0  0
 10  6  1  0  0  0  0
 11 15  1  0  0  0  0
 13 15  2  0  0  0  0
 13 16  1  0  0  0  0
 14 18  1  0  0  0  0
 14 12  2  0  0  0  0
 15 14  1  0  0  0  0
 16 17  2  0  0  0  0
 17 12  1  0  0  0  0
 19 16  1  0  0  0  0
 19 22  1  0  0  0  0
 20 19  1  0  0  0  0
 21 19  1  0  0  0  0
 23  6  1  0  0  0  0
 24 23  1  0  0  0  0
 25 27  1  0  0  0  0
 25 26  1  0  0  0  0
 26 29  1  0  0  0  0
 26 28  1  0  0  0  0
 27 30  1  0  0  0  0
 30 28  1  0  0  0  0
 30 24  1  0  0  0  0
 31 32  1  0  0  0  0
 32 26  1  0  0  0  0
 32 33  1  0  0  0  0
 33 35  1  0  0  0  0
 34 33  2  0  0  0  0
M  END
>  <MODEL>
3

>  <REMARK>
 VINA RESULT:      -7.6      2.251      6.298
  Name = 
  7 active torsions:
  status: ('A' for Active; 'I' for Inactive)
    1  A    between atoms: C_3  and  O_17
    2  A    between atoms: C_4  and  C_21
    3  A    between atoms: C_4  and  C_34
    4  A    between atoms: C_5  and  C_24
    5  A    between atoms: N_7  and  C_10
    6  A    between atoms: O_17  and  C_18
    7  A    between atoms: C_21  and  C_23
                            x       y       z     vdW  Elec       q    Type
                         _______ _______ _______ _____ _____    ______ ____

>  <TORSDO>
F 7

$$$$
=
 OpenBabel11062413423D

 35 39  0  0  1  0  0  0  0  0999 V2000
  184.1620  179.0780  139.2910 C   0  0  2  0  0  3  0  0  0  0  0  0
  181.2820  177.2600  140.2630 N   0  0  0  0  0  0  0  0  0  0  0  0
  182.2120  177.7530  139.2710 C   0  0  1  0  0  0  0  0  0  0  0  0
  183.0220  180.0120  138.8900 C   0  0  0  0  0  2  0  0  0  0  0  0
  183.6050  177.7980  139.7830 N   0  0  1  0  0  0  0  0  0  0  0  0
  183.2260  176.8870  138.6750 C   0  0  1  0  0  0  0  0  0  0  0  0
  180.8520  179.4510  139.7540 N   0  0  0  0  0  2  0  0  0  0  0  0
  180.4880  178.2660  140.4750 C   0  0  0  0  0  3  0  0  0  0  0  0
  181.8550  179.1330  139.0070 C   0  0  2  0  0  3  0  0  0  0  0  0
  183.1950  175.5530  139.0830 O   0  0  0  0  0  1  0  0  0  0  0  0
  184.9470  179.6890  140.3080 O   0  0  0  0  0  0  0  0  0  0  0  0
  184.6570  178.2670  143.7010 C   0  0  0  0  0  3  0  0  0  0  0  0
  186.5670  178.5130  141.7110 C   0  0  0  0  0  3  0  0  0  0  0  0
  184.3240  178.9150  142.5090 C   0  0  0  0  0  0  0  0  0  0  0  0
  185.2840  179.0390  141.5010 C   0  0  0  0  0  0  0  0  0  0  0  0
  186.8750  177.8850  142.9250 C   0  0  0  0  0  0  0  0  0  0  0  0
  185.9080  177.7660  143.8790 N   0  0  0  0  0  0  0  0  0  0  0  0
  183.0740  179.4120  142.3370 F   0  0  0  0  0  0  0  0  0  0  0  0
  188.2300  177.2700  143.1470 C   0  0  0  0  0  0  0  0  0  0  0  0
  188.1480  175.8770  143.0870 O   0  0  0  0  0  1  0  0  0  0  0  0
  189.1210  177.7120  142.1660 O   0  0  0  0  0  1  0  0  0  0  0  0
  188.7540  177.6780  144.5100 C   0  0  0  0  0  1  0  0  0  0  0  0
  183.7640  177.1920  137.2700 C   0  0  0  0  0  2  0  0  0  0  0  0
  184.9740  176.3290  136.9370 C   0  0  0  0  0  2  0  0  0  0  0  0
  188.1660  178.0520  136.1270 C   0  0  0  0  0  2  0  0  0  0  0  0
  188.6630  176.8220  136.8900 C   0  0  1  0  0  0  0  0  0  0  0  0
  186.6510  177.9990  136.1240 C   0  0  0  0  0  2  0  0  0  0  0  0
  187.4150  176.0630  137.3170 C   0  0  0  0  0  2  0  0  0  0  0  0
  189.4790  175.9660  135.9340 C   0  0  0  0  0  1  0  0  0  0  0  0
  186.2770  177.0530  137.2420 C   0  0  2  0  0  3  0  0  0  0  0  0
  189.3790  178.5130  138.6720 C   0  0  0  0  0  1  0  0  0  0  0  0
  189.4740  177.1830  138.0740 N   0  0  0  0  0  0  0  0  0  0  0  0
  190.3810  176.2370  138.6740 C   0  0  0  0  0  0  0  0  0  0  0  0
  191.0600  176.5610  139.6850 O   0  0  0  0  0  1  0  0  0  0  0  0
  190.5180  174.9570  138.1520 O   0  0  0  0  0  0  0  0  0  0  0  0
  1  5  1  0  0  0  0
  1 11  1  1  0  0  0
  2  8  2  0  0  0  0
  3  5  1  0  0  0  0
  3  2  1  1  0  0  0
  4  9  1  0  0  0  0
  4  1  1  0  0  0  0
  6 10  1  0  0  0  0
  6  3  1  0  0  0  0
  6  5  1  0  0  0  0
  7  8  1  0  0  0  0
  9  3  1  0  0  0  0
  9  7  1  0  0  0  0
 11 15  1  0  0  0  0
 12 17  1  0  0  0  0
 13 16  1  0  0  0  0
 14 12  2  0  0  0  0
 15 13  2  0  0  0  0
 15 14  1  0  0  0  0
 16 19  1  0  0  0  0
 16 17  2  0  0  0  0
 18 14  1  0  0  0  0
 19 22  1  0  0  0  0
 20 19  1  0  0  0  0
 21 19  1  0  0  0  0
 23  6  1  0  0  0  0
 24 30  1  0  0  0  0
 24 23  1  0  0  0  0
 25 26  1  0  0  0  0
 26 28  1  0  0  0  0
 26 32  1  0  0  0  0
 27 25  1  0  0  0  0
 27 30  1  0  0  0  0
 29 26  1  0  0  0  0
 30 28  1  0  0  0  0
 32 31  1  0  0  0  0
 32 33  1  0  0  0  0
 33 34  1  0  0  0  0
 35 33  2  0  0  0  0
M  END
>  <MODEL>
4

>  <REMARK>
 VINA RESULT:      -7.6      2.273      6.046
  Name = 
  7 active torsions:
  status: ('A' for Active; 'I' for Inactive)
    1  A    between atoms: C_3  and  O_17
    2  A    between atoms: C_4  and  C_21
    3  A    between atoms: C_4  and  C_34
    4  A    between atoms: C_5  and  C_24
    5  A    between atoms: N_7  and  C_10
    6  A    between atoms: O_17  and  C_18
    7  A    between atoms: C_21  and  C_23
                            x       y       z     vdW  Elec       q    Type
                         _______ _______ _______ _____ _____    ______ ____

>  <TORSDO>
F 7

$$$$
=
 OpenBabel11062413423D

 35 39  0  0  1  0  0  0  0  0999 V2000
  185.0490  178.6520  141.7050 C   0  0  2  0  0  3  0  0  0  0  0  0
  182.6240  180.1280  143.8240 N   0  0  0  0  0  0  0  0  0  0  0  0
  183.6060  179.1130  143.5120 C   0  0  1  0  0  0  0  0  0  0  0  0
  183.8390  177.7370  141.5220 C   0  0  0  0  0  2  0  0  0  0  0  0
  184.7560  179.6600  142.7480 N   0  0  1  0  0  0  0  0  0  0  0  0
  184.9350  179.1200  144.1180 C   0  0  1  0  0  0  0  0  0  0  0  0
  181.7590  178.5620  142.3950 N   0  0  0  0  0  2  0  0  0  0  0  0
  181.5600  179.7390  143.1900 C   0  0  0  0  0  3  0  0  0  0  0  0
  182.9660  178.1660  142.6190 C   0  0  2  0  0  3  0  0  0  0  0  0
  185.1660  180.1320  145.0520 O   0  0  0  0  0  1  0  0  0  0  0  0
  185.3510  179.2990  140.4750 O   0  0  0  0  0  0  0  0  0  0  0  0
  185.6570  177.6550  137.1860 C   0  0  0  0  0  3  0  0  0  0  0  0
  187.2600  178.2530  139.3640 C   0  0  0  0  0  3  0  0  0  0  0  0
  185.1040  178.3240  138.2800 C   0  0  0  0  0  0  0  0  0  0  0  0
  185.9090  178.6290  139.3800 C   0  0  0  0  0  0  0  0  0  0  0  0
  187.7810  177.5670  138.2580 C   0  0  0  0  0  0  0  0  0  0  0  0
  186.9700  177.3010  137.1950 N   0  0  0  0  0  0  0  0  0  0  0  0
  183.7940  178.6740  138.2650 F   0  0  0  0  0  0  0  0  0  0  0  0
  189.2390  177.2020  138.2020 C   0  0  0  0  0  0  0  0  0  0  0  0
  189.3920  175.8190  138.0750 O   0  0  0  0  0  1  0  0  0  0  0  0
  189.8450  177.8250  137.1090 O   0  0  0  0  0  1  0  0  0  0  0  0
  189.9250  177.6610  139.4740 C   0  0  0  0  0  1  0  0  0  0  0  0
  185.7110  177.8060  144.2830 C   0  0  0  0  0  2  0  0  0  0  0  0
  186.3180  177.6870  145.6740 C   0  0  0  0  0  2  0  0  0  0  0  0
  189.9880  177.6720  146.2640 C   0  0  0  0  0  2  0  0  0  0  0  0
  189.9200  177.6630  144.7350 C   0  0  1  0  0  0  0  0  0  0  0  0
  188.5620  177.6250  146.7790 C   0  0  0  0  0  2  0  0  0  0  0  0
  188.4400  177.6180  144.3820 C   0  0  0  0  0  2  0  0  0  0  0  0
  190.5270  178.9610  144.2250 C   0  0  0  0  0  1  0  0  0  0  0  0
  187.7300  177.1240  145.6200 C   0  0  2  0  0  3  0  0  0  0  0  0
  190.2710  176.0050  142.8180 C   0  0  0  0  0  1  0  0  0  0  0  0
  190.6230  176.5030  144.1460 N   0  0  0  0  0  0  0  0  0  0  0  0
  191.6760  175.8250  144.8620 C   0  0  0  0  0  0  0  0  0  0  0  0
  192.2670  174.8410  144.3430 O   0  0  0  0  0  0  0  0  0  0  0  0
  192.0570  176.2480  146.1300 O   0  0  0  0  0  1  0  0  0  0  0  0
  1 11  1  6  0  0  0
  1  5  1  0  0  0  0
  3  2  1  1  0  0  0
  3  6  1  0  0  0  0
  4  1  1  0  0  0  0
  4  9  1  0  0  0  0
  5  3  1  0  0  0  0
  5  6  1  0  0  0  0
  6 23  1  0  0  0  0
  6 10  1  0  0  0  0
  7  9  1  0  0  0  0
  7  8  1  0  0  0  0
  8  2  2  0  0  0  0
  9  3  1  0  0  0  0
 12 17  2  0  0  0  0
 12 14  1  0  0  0  0
 13 15  1  0  0  0  0
 14 15  2  0  0  0  0
 15 11  1  0  0  0  0
 16 13  2  0  0  0  0
 17 16  1  0  0  0  0
 18 14  1  0  0  0  0
 19 16  1  0  0  0  0
 19 22  1  0  0  0  0
 20 19  1  0  0  0  0
 21 19  1  0  0  0  0
 23 24  1  0  0  0  0
 25 27  1  0  0  0  0
 26 25  1  0  0  0  0
 28 26  1  0  0  0  0
 28 30  1  0  0  0  0
 29 26  1  0  0  0  0
 30 24  1  0  0  0  0
 30 27  1  0  0  0  0
 31 32  1  0  0  0  0
 32 26  1  0  0  0  0
 32 33  1  0  0  0  0
 33 35  1  0  0  0  0
 34 33  2  0  0  0  0
M  END
>  <MODEL>
5

>  <REMARK>
 VINA RESULT:      -7.5      2.327      6.851
  Name = 
  7 active torsions:
  status: ('A' for Active; 'I' for Inactive)
    1  A    between atoms: C_3  and  O_17
    2  A    between atoms: C_4  and  C_21
    3  A    between atoms: C_4  and  C_34
    4  A    between atoms: C_5  and  C_24
    5  A    between atoms: N_7  and  C_10
    6  A    between atoms: O_17  and  C_18
    7  A    between atoms: C_21  and  C_23
                            x       y       z     vdW  Elec       q    Type
                         _______ _______ _______ _____ _____    ______ ____

>  <TORSDO>
F 7

$$$$
=
 OpenBabel11062413423D

 35 39  0  0  1  0  0  0  0  0999 V2000
  185.4340  178.2870  143.2730 C   0  0  2  0  0  3  0  0  0  0  0  0
  181.9230  178.3210  142.8000 N   0  0  0  0  0  0  0  0  0  0  0  0
  183.2630  178.7720  142.4910 C   0  0  1  0  0  0  0  0  0  0  0  0
  185.0110  179.5760  143.9760 C   0  0  0  0  0  2  0  0  0  0  0  0
  184.2620  177.6790  142.6040 N   0  0  1  0  0  0  0  0  0  0  0  0
  183.9680  178.3150  141.2960 C   0  0  1  0  0  0  0  0  0  0  0  0
  182.6530  179.8440  144.3470 N   0  0  0  0  0  2  0  0  0  0  0  0
  181.5990  179.0040  143.8560 C   0  0  0  0  0  3  0  0  0  0  0  0
  183.6300  179.7350  143.5110 C   0  0  2  0  0  3  0  0  0  0  0  0
  183.2440  177.4700  140.4550 O   0  0  0  0  0  1  0  0  0  0  0  0
  185.9750  177.3780  144.2240 O   0  0  0  0  0  0  0  0  0  0  0  0
  189.0420  177.8120  146.2290 C   0  0  0  0  0  3  0  0  0  0  0  0
  188.3230  176.9430  143.7000 C   0  0  0  0  0  3  0  0  0  0  0  0
  187.6940  177.8140  145.8630 C   0  0  0  0  0  0  0  0  0  0  0  0
  187.3270  177.3740  144.5880 C   0  0  0  0  0  0  0  0  0  0  0  0
  189.6680  176.9710  144.0920 C   0  0  0  0  0  0  0  0  0  0  0  0
  189.9880  177.3890  145.3490 N   0  0  0  0  0  0  0  0  0  0  0  0
  186.7550  178.2360  146.7450 F   0  0  0  0  0  0  0  0  0  0  0  0
  190.7440  176.4640  143.1710 C   0  0  0  0  0  0  0  0  0  0  0  0
  191.7030  175.7460  143.8890 O   0  0  0  0  0  1  0  0  0  0  0  0
  190.1860  175.6270  142.2010 O   0  0  0  0  0  1  0  0  0  0  0  0
  191.4160  177.6370  142.4830 C   0  0  0  0  0  1  0  0  0  0  0  0
  185.0510  179.1990  140.6610 C   0  0  0  0  0  2  0  0  0  0  0  0
  185.3240  178.7960  139.2190 C   0  0  0  0  0  2  0  0  0  0  0  0
  188.9260  177.8910  139.3650 C   0  0  0  0  0  2  0  0  0  0  0  0
  188.6060  177.6480  137.8880 C   0  0  1  0  0  0  0  0  0  0  0  0
  187.6370  178.3150  140.0420 C   0  0  0  0  0  2  0  0  0  0  0  0
  187.1210  177.9460  137.7280 C   0  0  0  0  0  2  0  0  0  0  0  0
  189.4160  178.6320  137.0590 C   0  0  0  0  0  1  0  0  0  0  0  0
  186.5290  177.8720  139.1150 C   0  0  2  0  0  3  0  0  0  0  0  0
  188.0420  175.5700  136.5070 C   0  0  0  0  0  1  0  0  0  0  0  0
  188.8990  176.2610  137.4680 N   0  0  0  0  0  0  0  0  0  0  0  0
  190.0360  175.5460  137.9930 C   0  0  0  0  0  0  0  0  0  0  0  0
  190.2730  174.3660  137.6200 O   0  0  0  0  0  0  0  0  0  0  0  0
  190.8890  176.1460  138.9120 O   0  0  0  0  0  1  0  0  0  0  0  0
  1  4  1  0  0  0  0
  1 11  1  1  0  0  0
  2  8  2  0  0  0  0
  3  5  1  0  0  0  0
  3  2  1  1  0  0  0
  3  9  1  0  0  0  0
  5  1  1  0  0  0  0
  6  3  1  0  0  0  0
  6  5  1  0  0  0  0
  8  7  1  0  0  0  0
  9  4  1  0  0  0  0
  9  7  1  0  0  0  0
 10  6  1  0  0  0  0
 11 15  1  0  0  0  0
 13 16  2  0  0  0  0
 13 15  1  0  0  0  0
 14 12  1  0  0  0  0
 14 18  1  0  0  0  0
 15 14  2  0  0  0  0
 16 17  1  0  0  0  0
 17 12  2  0  0  0  0
 19 20  1  0  0  0  0
 19 16  1  0  0  0  0
 21 19  1  0  0  0  0
 22 19  1  0  0  0  0
 23  6  1  0  0  0  0
 24 23  1  0  0  0  0
 25 27  1  0  0  0  0
 26 25  1  0  0  0  0
 28 26  1  0  0  0  0
 28 30  1  0  0  0  0
 29 26  1  0  0  0  0
 30 24  1  0  0  0  0
 30 27  1  0  0  0  0
 31 32  1  0  0  0  0
 32 26  1  0  0  0  0
 32 33  1  0  0  0  0
 33 35  1  0  0  0  0
 34 33  2  0  0  0  0
M  END
>  <MODEL>
6

>  <REMARK>
 VINA RESULT:      -7.5      1.946      5.801
  Name = 
  7 active torsions:
  status: ('A' for Active; 'I' for Inactive)
    1  A    between atoms: C_3  and  O_17
    2  A    between atoms: C_4  and  C_21
    3  A    between atoms: C_4  and  C_34
    4  A    between atoms: C_5  and  C_24
    5  A    between atoms: N_7  and  C_10
    6  A    between atoms: O_17  and  C_18
    7  A    between atoms: C_21  and  C_23
                            x       y       z     vdW  Elec       q    Type
                         _______ _______ _______ _____ _____    ______ ____

>  <TORSDO>
F 7

$$$$
=
 OpenBabel11062413423D

 35 39  0  0  1  0  0  0  0  0999 V2000
  190.4350  176.5380  138.0130 C   0  0  2  0  0  3  0  0  0  0  0  0
  187.4540  178.4060  137.5920 N   0  0  0  0  0  0  0  0  0  0  0  0
  188.2860  177.4640  138.3080 C   0  0  1  0  0  0  0  0  0  0  0  0
  189.4500  175.4910  137.4960 C   0  0  0  0  0  2  0  0  0  0  0  0
  189.7260  177.8190  138.2350 N   0  0  1  0  0  0  0  0  0  0  0  0
  188.9970  177.8420  139.5270 C   0  0  1  0  0  0  0  0  0  0  0  0
  187.3850  176.3390  136.6090 N   0  0  0  0  0  2  0  0  0  0  0  0
  186.9200  177.6960  136.6450 C   0  0  0  0  0  3  0  0  0  0  0  0
  188.1680  176.1920  137.6230 C   0  0  2  0  0  3  0  0  0  0  0  0
  188.7730  179.1440  139.9770 O   0  0  0  0  0  1  0  0  0  0  0  0
  191.4810  176.7200  137.0670 O   0  0  0  0  0  0  0  0  0  0  0  0
  193.4620  174.0990  135.3880 C   0  0  0  0  0  3  0  0  0  0  0  0
  193.4560  175.4750  137.7910 C   0  0  0  0  0  3  0  0  0  0  0  0
  192.4770  175.0600  135.6230 C   0  0  0  0  0  0  0  0  0  0  0  0
  192.4710  175.7580  136.8340 C   0  0  0  0  0  0  0  0  0  0  0  0
  194.4200  174.4910  137.5320 C   0  0  0  0  0  0  0  0  0  0  0  0
  194.4060  173.8430  136.3330 N   0  0  0  0  0  0  0  0  0  0  0  0
  191.5390  175.3110  134.6770 F   0  0  0  0  0  0  0  0  0  0  0  0
  195.5140  174.2110  138.5260 C   0  0  0  0  0  0  0  0  0  0  0  0
  195.5090  175.1710  139.5400 O   0  0  0  0  0  1  0  0  0  0  0  0
  195.3280  172.9500  139.0970 O   0  0  0  0  0  1  0  0  0  0  0  0
  196.8570  174.2410  137.8220 C   0  0  0  0  0  1  0  0  0  0  0  0
  189.3450  176.7740  140.5740 C   0  0  0  0  0  2  0  0  0  0  0  0
  190.4040  177.2730  141.5480 C   0  0  0  0  0  2  0  0  0  0  0  0
  190.3920  178.6910  144.9830 C   0  0  0  0  0  2  0  0  0  0  0  0
  189.6690  177.3600  145.1960 C   0  0  1  0  0  0  0  0  0  0  0  0
  190.7010  178.8060  143.5030 C   0  0  0  0  0  2  0  0  0  0  0  0
  189.5740  176.7110  143.8220 C   0  0  0  0  0  2  0  0  0  0  0  0
  190.5230  176.4950  146.1100 C   0  0  0  0  0  1  0  0  0  0  0  0
  189.7770  177.8230  142.8200 C   0  0  2  0  0  3  0  0  0  0  0  0
  187.1210  177.3320  144.9610 C   0  0  0  0  0  1  0  0  0  0  0  0
  188.3180  177.5370  145.7730 N   0  0  0  0  0  0  0  0  0  0  0  0
  188.1390  177.9190  147.1520 C   0  0  0  0  0  0  0  0  0  0  0  0
  186.9820  178.0610  147.6280 O   0  0  0  0  0  0  0  0  0  0  0  0
  189.2380  178.1310  147.9770 O   0  0  0  0  0  1  0  0  0  0  0  0
  1 11  1  6  0  0  0
  1  5  1  0  0  0  0
  3  2  1  6  0  0  0
  3  6  1  0  0  0  0
  4  9  1  0  0  0  0
  4  1  1  0  0  0  0
  5  3  1  0  0  0  0
  5  6  1  0  0  0  0
  6 10  1  0  0  0  0
  6 23  1  0  0  0  0
  7  8  1  0  0  0  0
  7  9  1  0  0  0  0
  8  2  2  0  0  0  0
  9  3  1  0  0  0  0
 12 14  2  0  0  0  0
 12 17  1  0  0  0  0
 14 15  1  0  0  0  0
 15 11  1  0  0  0  0
 15 13  2  0  0  0  0
 16 13  1  0  0  0  0
 16 19  1  0  0  0  0
 17 16  2  0  0  0  0
 18 14  1  0  0  0  0
 19 21  1  0  0  0  0
 19 20  1  0  0  0  0
 22 19  1  0  0  0  0
 23 24  1  0  0  0  0
 24 30  1  0  0  0  0
 25 26  1  0  0  0  0
 26 32  1  0  0  0  0
 26 29  1  0  0  0  0
 27 25  1  0  0  0  0
 28 26  1  0  0  0  0
 30 27  1  0  0  0  0
 30 28  1  0  0  0  0
 31 32  1  0  0  0  0
 32 33  1  0  0  0  0
 33 34  2  0  0  0  0
 33 35  1  0  0  0  0
M  END
>  <MODEL>
7

>  <REMARK>
 VINA RESULT:      -7.4      3.994      9.315
  Name = 
  7 active torsions:
  status: ('A' for Active; 'I' for Inactive)
    1  A    between atoms: C_3  and  O_17
    2  A    between atoms: C_4  and  C_21
    3  A    between atoms: C_4  and  C_34
    4  A    between atoms: C_5  and  C_24
    5  A    between atoms: N_7  and  C_10
    6  A    between atoms: O_17  and  C_18
    7  A    between atoms: C_21  and  C_23
                            x       y       z     vdW  Elec       q    Type
                         _______ _______ _______ _____ _____    ______ ____

>  <TORSDO>
F 7

$$$$
=
 OpenBabel11062413423D

 35 39  0  0  1  0  0  0  0  0999 V2000
  187.9310  176.6990  137.5290 C   0  0  2  0  0  3  0  0  0  0  0  0
  190.7740  175.6790  135.6790 N   0  0  0  0  0  0  0  0  0  0  0  0
  190.1310  176.4550  136.7160 C   0  0  1  0  0  0  0  0  0  0  0  0
  188.1680  177.8840  136.5950 C   0  0  0  0  0  2  0  0  0  0  0  0
  189.0220  175.7110  137.3670 N   0  0  1  0  0  0  0  0  0  0  0  0
  190.2400  176.0890  138.1260 C   0  0  1  0  0  0  0  0  0  0  0  0
  189.7170  177.5090  134.7970 N   0  0  0  0  0  2  0  0  0  0  0  0
  190.5440  176.3550  134.5940 C   0  0  0  0  0  3  0  0  0  0  0  0
  189.5040  177.5900  136.0670 C   0  0  2  0  0  3  0  0  0  0  0  0
  191.0460  174.9840  138.4020 O   0  0  0  0  0  1  0  0  0  0  0  0
  186.6790  176.0930  137.2270 O   0  0  0  0  0  0  0  0  0  0  0  0
  183.2240  177.1700  136.5120 C   0  0  0  0  0  3  0  0  0  0  0  0
  185.2430  177.7410  138.3200 C   0  0  0  0  0  3  0  0  0  0  0  0
  184.4410  176.4920  136.4160 C   0  0  0  0  0  0  0  0  0  0  0  0
  185.4610  176.7750  137.3270 C   0  0  0  0  0  0  0  0  0  0  0  0
  184.0170  178.4180  138.3790 C   0  0  0  0  0  0  0  0  0  0  0  0
  183.0370  178.1030  137.4840 N   0  0  0  0  0  0  0  0  0  0  0  0
  184.6210  175.5630  135.4440 F   0  0  0  0  0  0  0  0  0  0  0  0
  183.7470  179.4190  139.4690 C   0  0  0  0  0  0  0  0  0  0  0  0
  184.8780  179.5830  140.2720 O   0  0  0  0  0  1  0  0  0  0  0  0
  183.4070  180.6530  138.9090 O   0  0  0  0  0  1  0  0  0  0  0  0
  182.5950  178.9330  140.3280 C   0  0  0  0  0  1  0  0  0  0  0  0
  190.1110  177.1680  139.2110 C   0  0  0  0  0  2  0  0  0  0  0  0
  191.1820  177.0130  140.2810 C   0  0  0  0  0  2  0  0  0  0  0  0
  189.1510  178.1570  143.1750 C   0  0  0  0  0  2  0  0  0  0  0  0
  190.5550  178.1130  143.7820 C   0  0  1  0  0  0  0  0  0  0  0  0
  189.2610  177.6690  141.7440 C   0  0  0  0  0  2  0  0  0  0  0  0
  191.4710  177.6010  142.6780 C   0  0  0  0  0  2  0  0  0  0  0  0
  190.9540  179.5310  144.1590 C   0  0  0  0  0  1  0  0  0  0  0  0
  190.5730  176.9210  141.6720 C   0  0  2  0  0  3  0  0  0  0  0  0
  191.7040  176.2430  145.0970 C   0  0  0  0  0  1  0  0  0  0  0  0
  190.6320  177.2260  144.9630 N   0  0  0  0  0  0  0  0  0  0  0  0
  189.6530  177.3030  146.0190 C   0  0  0  0  0  0  0  0  0  0  0  0
  189.7360  176.5420  147.0200 O   0  0  0  0  0  1  0  0  0  0  0  0
  188.6060  178.2150  145.9510 O   0  0  0  0  0  0  0  0  0  0  0  0
  1 11  1  6  0  0  0
  3  2  1  6  0  0  0
  3  5  1  0  0  0  0
  3  6  1  0  0  0  0
  4  1  1  0  0  0  0
  5  1  1  0  0  0  0
  5  6  1  0  0  0  0
  6 10  1  0  0  0  0
  6 23  1  0  0  0  0
  7  9  1  0  0  0  0
  8  7  1  0  0  0  0
  8  2  2  0  0  0  0
  9  4  1  0  0  0  0
  9  3  1  0  0  0  0
 11 15  1  0  0  0  0
 12 17  1  0  0  0  0
 13 16  1  0  0  0  0
 14 12  2  0  0  0  0
 14 15  1  0  0  0  0
 15 13  2  0  0  0  0
 16 19  1  0  0  0  0
 17 16  2  0  0  0  0
 18 14  1  0  0  0  0
 19 20  1  0  0  0  0
 19 22  1  0  0  0  0
 21 19  1  0  0  0  0
 23 24  1  0  0  0  0
 24 30  1  0  0  0  0
 25 26  1  0  0  0  0
 26 29  1  0  0  0  0
 26 32  1  0  0  0  0
 27 25  1  0  0  0  0
 28 26  1  0  0  0  0
 30 27  1  0  0  0  0
 30 28  1  0  0  0  0
 32 31  1  0  0  0  0
 32 33  1  0  0  0  0
 33 34  1  0  0  0  0
 35 33  2  0  0  0  0
M  END
>  <MODEL>
8

>  <REMARK>
 VINA RESULT:      -7.3      2.910      6.788
  Name = 
  7 active torsions:
  status: ('A' for Active; 'I' for Inactive)
    1  A    between atoms: C_3  and  O_17
    2  A    between atoms: C_4  and  C_21
    3  A    between atoms: C_4  and  C_34
    4  A    between atoms: C_5  and  C_24
    5  A    between atoms: N_7  and  C_10
    6  A    between atoms: O_17  and  C_18
    7  A    between atoms: C_21  and  C_23
                            x       y       z     vdW  Elec       q    Type
                         _______ _______ _______ _____ _____    ______ ____

>  <TORSDO>
F 7

$$$$
=
 OpenBabel11062413423D

 35 39  0  0  1  0  0  0  0  0999 V2000
  188.9010  178.1330  138.4550 C   0  0  2  0  0  3  0  0  0  0  0  0
  187.3830  175.8840  136.1780 N   0  0  0  0  0  0  0  0  0  0  0  0
  188.5130  176.6400  136.6720 C   0  0  1  0  0  0  0  0  0  0  0  0
  188.6800  179.0020  137.2180 C   0  0  0  0  0  2  0  0  0  0  0  0
  188.5190  176.7350  138.1540 N   0  0  1  0  0  0  0  0  0  0  0  0
  189.5880  176.0040  137.4290 C   0  0  1  0  0  0  0  0  0  0  0  0
  187.2510  178.0740  135.5250 N   0  0  0  0  0  2  0  0  0  0  0  0
  186.7070  176.7480  135.4840 C   0  0  0  0  0  3  0  0  0  0  0  0
  188.3480  178.0010  136.2000 C   0  0  2  0  0  3  0  0  0  0  0  0
  189.4780  174.6220  137.5890 O   0  0  0  0  0  1  0  0  0  0  0  0
  188.1170  178.6280  139.5350 O   0  0  0  0  0  0  0  0  0  0  0  0
  187.4500  177.8670  143.0830 C   0  0  0  0  0  3  0  0  0  0  0  0
  189.5880  177.8430  141.3230 C   0  0  0  0  0  3  0  0  0  0  0  0
  187.2480  178.2530  141.7560 C   0  0  0  0  0  0  0  0  0  0  0  0
  188.3240  178.2410  140.8640 C   0  0  0  0  0  0  0  0  0  0  0  0
  189.7610  177.4800  142.6650 C   0  0  0  0  0  0  0  0  0  0  0  0
  188.6860  177.4870  143.5030 N   0  0  0  0  0  0  0  0  0  0  0  0
  186.0130  178.6310  141.3430 F   0  0  0  0  0  0  0  0  0  0  0  0
  191.0990  177.0020  143.1620 C   0  0  0  0  0  0  0  0  0  0  0  0
  191.0250  175.6620  143.5490 O   0  0  0  0  0  1  0  0  0  0  0  0
  192.0550  177.1280  142.1510 O   0  0  0  0  0  1  0  0  0  0  0  0
  191.5250  177.8390  144.3520 C   0  0  0  0  0  1  0  0  0  0  0  0
  190.9980  176.6110  137.4140 C   0  0  0  0  0  2  0  0  0  0  0  0
  191.9900  175.7370  138.1700 C   0  0  0  0  0  2  0  0  0  0  0  0
  193.9090  173.0450  136.4720 C   0  0  0  0  0  2  0  0  0  0  0  0
  195.0000  173.7270  137.3000 C   0  0  1  0  0  0  0  0  0  0  0  0
  192.6230  173.8160  136.6970 C   0  0  0  0  0  2  0  0  0  0  0  0
  194.3210  174.8920  138.0070 C   0  0  0  0  0  2  0  0  0  0  0  0
  195.5070  172.7300  138.3310 C   0  0  0  0  0  1  0  0  0  0  0  0
  193.0480  175.1610  137.2410 C   0  0  2  0  0  3  0  0  0  0  0  0
  196.1070  174.0410  135.0150 C   0  0  0  0  0  1  0  0  0  0  0  0
  196.1190  174.2160  136.4660 N   0  0  0  0  0  0  0  0  0  0  0  0
  197.2570  174.8780  137.0550 C   0  0  0  0  0  0  0  0  0  0  0  0
  198.1990  175.2910  136.3290 O   0  0  0  0  0  0  0  0  0  0  0  0
  197.3300  175.0720  138.4290 O   0  0  0  0  0  1  0  0  0  0  0  0
  1 11  1  1  0  0  0
  3  2  1  6  0  0  0
  3  6  1  0  0  0  0
  3  5  1  0  0  0  0
  4  1  1  0  0  0  0
  5  1  1  0  0  0  0
  6 10  1  0  0  0  0
  6  5  1  0  0  0  0
  7  9  1  0  0  0  0
  8  7  1  0  0  0  0
  8  2  2  0  0  0  0
  9  3  1  0  0  0  0
  9  4  1  0  0  0  0
 11 15  1  0  0  0  0
 12 17  1  0  0  0  0
 13 16  1  0  0  0  0
 14 12  2  0  0  0  0
 15 13  2  0  0  0  0
 15 14  1  0  0  0  0
 16 19  1  0  0  0  0
 16 17  2  0  0  0  0
 18 14  1  0  0  0  0
 19 20  1  0  0  0  0
 19 22  1  0  0  0  0
 21 19  1  0  0  0  0
 23  6  1  0  0  0  0
 23 24  1  0  0  0  0
 25 27  1  0  0  0  0
 25 26  1  0  0  0  0
 26 28  1  0  0  0  0
 26 29  1  0  0  0  0
 27 30  1  0  0  0  0
 30 28  1  0  0  0  0
 30 24  1  0  0  0  0
 31 32  1  0  0  0  0
 32 33  1  0  0  0  0
 32 26  1  0  0  0  0
 33 35  1  0  0  0  0
 34 33  2  0  0  0  0
M  END
>  <MODEL>
9

>  <REMARK>
 VINA RESULT:      -7.3      3.866      7.558
  Name = 
  7 active torsions:
  status: ('A' for Active; 'I' for Inactive)
    1  A    between atoms: C_3  and  O_17
    2  A    between atoms: C_4  and  C_21
    3  A    between atoms: C_4  and  C_34
    4  A    between atoms: C_5  and  C_24
    5  A    between atoms: N_7  and  C_10
    6  A    between atoms: O_17  and  C_18
    7  A    between atoms: C_21  and  C_23
                            x       y       z     vdW  Elec       q    Type
                         _______ _______ _______ _____ _____    ______ ____

>  <TORSDO>
F 7

$$$$
