=
 OpenBabel11062416543D

 56 60  0  0  1  0  0  0  0  0999 V2000
  186.0060  173.6810  135.0960 O   0  0  0  0  0  1  0  0  0  0  0  0
  180.9690  179.7370  140.1220 C   0  0  1  0  0  3  0  0  0  0  0  0
  182.7320  178.3030  141.3760 C   0  0  2  0  0  0  0  0  0  0  0  0
  184.1530  178.7850  141.0890 C   0  0  1  0  0  3  0  0  0  0  0  0
  179.7160  177.3530  137.4140 C   0  0  0  0  0  2  0  0  0  0  0  0
  189.0120  173.1500  137.2620 C   0  0  0  0  0  2  0  0  0  0  0  0
  183.7840  178.2980  142.4840 C   0  0  1  0  0  3  0  0  0  0  0  0
  179.0480  179.5480  138.0540 O   0  0  0  0  0  0  0  0  0  0  0  0
  188.9290  177.0660  137.3400 C   0  0  2  0  0  3  0  0  0  0  0  0
  186.8020  177.4380  138.7150 C   0  0  2  0  0  3  0  0  0  0  0  0
  183.5160  175.7860  136.1350 N   0  0  0  0  0  2  0  0  0  0  0  0
  182.4200  175.8320  135.1790 C   0  0  0  0  0  2  0  0  0  0  0  0
  187.2190  174.0070  135.7050 C   0  0  1  0  0  3  0  0  0  0  0  0
  185.1370  176.4610  134.5940 O   0  0  0  0  0  0  0  0  0  0  0  0
  186.0320  177.4260  137.4040 C   0  0  0  0  0  2  0  0  0  0  0  0
  182.3160  176.8800  141.0120 C   0  0  0  0  0  1  0  0  0  0  0  0
  185.9350  176.0150  136.8130 C   0  0  2  0  0  3  0  0  0  0  0  0
  186.1580  178.4090  139.6840 C   0  0  0  0  0  2  0  0  0  0  0  0
  187.2870  175.4640  136.2570 C   0  0  1  0  0  3  0  0  0  0  0  0
  180.7110  178.5780  139.3360 O   0  0  0  0  0  0  0  0  0  0  0  0
  188.2530  177.8460  138.4800 C   0  0  0  0  0  2  0  0  0  0  0  0
  181.0970  175.9190  135.9180 C   0  0  0  0  0  2  0  0  0  0  0  0
  189.5500  174.5660  137.0690 C   0  0  0  0  0  2  0  0  0  0  0  0
  187.5640  172.9770  136.7760 C   0  0  0  0  0  2  0  0  0  0  0  0
  181.6360  179.3780  141.4620 C   0  0  0  0  0  2  0  0  0  0  0  0
  184.8640  176.0820  135.7650 C   0  0  0  0  0  0  0  0  0  0  0  0
  184.9880  177.7380  140.3740 C   0  0  0  0  0  2  0  0  0  0  0  0
  180.9620  177.2910  136.5550 C   0  0  0  0  0  2  0  0  0  0  0  0
  179.7890  178.5570  138.2870 C   0  0  0  0  0  0  0  0  0  0  0  0
  188.4450  175.6080  137.2800 C   0  0  1  0  0  3  0  0  0  0  0  0
  190.4500  177.2820  137.2970 C   0  0  2  0  0  3  0  0  0  0  0  0
  191.0400  176.9890  135.9270 C   0  0  0  0  0  1  0  0  0  0  0  0
  191.1360  176.4290  138.3540 C   0  0  0  0  0  2  0  0  0  0  0  0
  192.2100  177.7860  139.9840 O   0  0  0  0  0  1  0  0  0  0  0  0
  191.0370  177.0760  139.7310 C   0  0  2  0  0  3  0  0  0  0  0  0
  190.1890  176.3370  141.9950 C   0  0  0  0  0  0  0  0  0  0  0  0
  190.8630  176.0620  140.7660 N   0  0  0  0  0  2  0  0  0  0  0  0
  189.6450  177.6400  142.2430 N   0  0  0  0  0  2  0  0  0  0  0  0
  190.0640  175.4000  142.8780 N   0  0  0  0  0  2  0  0  0  0  0  0
  189.8560  178.4640  146.7860 F   0  0  0  0  0  0  0  0  0  0  0  0
  188.7860  176.8730  145.5590 O   0  0  0  0  0  0  0  0  0  0  0  0
  189.9380  177.6690  145.6600 C   0  0  1  0  0  0  0  0  0  0  0  0
  188.4780  176.7840  144.1920 C   0  0  0  0  0  2  0  0  0  0  0  0
  190.0320  178.5540  144.4410 C   0  0  0  0  0  2  0  0  0  0  0  0
  189.0030  178.0140  143.4950 C   0  0  1  0  0  3  0  0  0  0  0  0
  191.1790  176.7930  145.7500 C   0  0  0  0  0  2  0  0  0  0  0  0
  191.7190  176.8450  147.0370 O   0  0  0  0  0  1  0  0  0  0  0  0
  181.6860  180.8310  139.3120 C   0  0  0  0  0  3  0  0  0  0  0  0
  180.7800  181.5990  138.3990 C   0  0  0  0  0  3  0  0  0  0  0  0
  181.0000  182.7730  138.1470 O   0  0  0  0  0  0  0  0  0  0  0  0
  182.8510  180.2750  138.5580 C   0  0  0  0  0  3  0  0  0  0  0  0
  183.9620  180.7600  138.6960 O   0  0  0  0  0  0  0  0  0  0  0  0
  183.7230  179.5000  143.4190 C   0  0  0  0  0  2  0  0  0  0  0  0
  184.3080  179.1440  144.7390 C   0  0  0  0  0  0  0  0  0  0  0  0
  185.5340  178.8770  144.8320 O   0  0  0  0  0  0  0  0  0  0  0  0
  183.4950  179.0710  145.8620 O   0  0  0  0  0  1  0  0  0  0  0  0
  2 48  1  6  0  0  0
  2 25  1  0  0  0  0
  3 16  1  6  0  0  0
  3 25  1  0  0  0  0
  3  7  1  0  0  0  0
  4 27  1  6  0  0  0
  4  3  1  0  0  0  0
  4  7  1  0  0  0  0
  5 29  1  0  0  0  0
  7 53  1  1  0  0  0
  8 29  2  0  0  0  0
  9 31  1  1  0  0  0
  9 21  1  0  0  0  0
 10 15  1  6  0  0  0
 10 18  1  0  0  0  0
 12 22  1  0  0  0  0
 12 11  1  0  0  0  0
 13  1  1  1  0  0  0
 13 19  1  0  0  0  0
 13 24  1  0  0  0  0
 14 26  2  0  0  0  0
 17 15  1  6  0  0  0
 18 27  1  0  0  0  0
 19 17  1  0  0  0  0
 19 30  1  0  0  0  0
 20  2  1  0  0  0  0
 21 10  1  0  0  0  0
 22 28  1  0  0  0  0
 23  6  1  0  0  0  0
 23 30  1  0  0  0  0
 24  6  1  0  0  0  0
 26 11  1  0  0  0  0
 26 17  1  0  0  0  0
 28  5  1  0  0  0  0
 29 20  1  0  0  0  0
 30  9  1  0  0  0  0
 31 33  1  0  0  0  0
 32 31  1  0  0  0  0
 33 35  1  0  0  0  0
 35 34  1  0  0  0  0
 35 37  1  0  0  0  0
 36 38  1  0  0  0  0
 36 39  2  0  0  0  0
 37 36  1  0  0  0  0
 38 45  1  0  0  0  0
 41 42  1  0  0  0  0
 42 46  1  0  0  0  0
 42 40  1  0  0  0  0
 43 41  1  0  0  0  0
 44 42  1  0  0  0  0
 45 43  1  0  0  0  0
 45 44  1  0  0  0  0
 46 47  1  0  0  0  0
 49 48  1  0  0  0  0
 50 49  2  0  0  0  0
 51 52  2  0  0  0  0
 51 48  1  0  0  0  0
 53 54  1  0  0  0  0
 54 55  2  0  0  0  0
 54 56  1  0  0  0  0
M  END
>  <MODEL>
1

>  <REMARK>
 VINA RESULT:      -6.7      0.000      0.000
  Name = 
  11 active torsions:
  status: ('A' for Active; 'I' for Inactive)
    1  A    between atoms: C_2  and  C_9
    2  A    between atoms: C_7  and  C_22
    3  A    between atoms: C_9  and  C_13
    4  A    between atoms: C_9  and  C_27
    5  A    between atoms: C_10  and  C_22
    6  A    between atoms: C_14  and  C_24
    7  A    between atoms: C_24  and  C_34
    8  A    between atoms: C_29  and  C_43
    9  A    between atoms: N_30  and  C_52
   10  A    between atoms: N_33  and  C_55
   11  A    between atoms: C_34  and  C_52
                            x       y       z     vdW  Elec       q    Type
                         _______ _______ _______ _____ _____    ______ ____

>  <TORSDO>
F 11

$$$$
=
 OpenBabel11062416543D

 56 60  0  0  1  0  0  0  0  0999 V2000
  178.9320  176.7990  139.7400 O   0  0  0  0  0  1  0  0  0  0  0  0
  186.8550  174.4620  135.3730 C   0  0  1  0  0  3  0  0  0  0  0  0
  186.4280  176.9810  135.8280 C   0  0  2  0  0  0  0  0  0  0  0  0
  186.6260  177.3250  137.3040 C   0  0  1  0  0  3  0  0  0  0  0  0
  183.3440  173.1200  134.6980 C   0  0  0  0  0  2  0  0  0  0  0  0
  179.7570  180.1710  141.1440 C   0  0  0  0  0  2  0  0  0  0  0  0
  187.0710  178.3080  136.2290 C   0  0  1  0  0  3  0  0  0  0  0  0
  185.4960  172.1060  134.5950 O   0  0  0  0  0  0  0  0  0  0  0  0
  182.9500  178.2460  142.3490 C   0  0  2  0  0  3  0  0  0  0  0  0
  184.0960  177.8310  140.0980 C   0  0  2  0  0  3  0  0  0  0  0  0
  181.2740  175.1040  137.9090 N   0  0  0  0  0  2  0  0  0  0  0  0
  180.7560  173.8360  137.4200 C   0  0  0  0  0  2  0  0  0  0  0  0
  179.5410  177.7140  140.6020 C   0  0  1  0  0  3  0  0  0  0  0  0
  180.8770  174.6140  140.1580 O   0  0  0  0  0  0  0  0  0  0  0  0
  183.3150  176.5290  140.0160 C   0  0  0  0  0  2  0  0  0  0  0  0
  185.0740  177.2100  135.1620 C   0  0  0  0  0  1  0  0  0  0  0  0
  181.8310  176.7720  139.7190 C   0  0  2  0  0  3  0  0  0  0  0  0
  185.4610  177.6550  139.4650 C   0  0  0  0  0  2  0  0  0  0  0  0
  181.0390  177.4050  140.9070 C   0  0  1  0  0  3  0  0  0  0  0  0
  185.4600  174.3600  135.1100 O   0  0  0  0  0  0  0  0  0  0  0  0
  184.2640  178.2620  141.5520 C   0  0  0  0  0  2  0  0  0  0  0  0
  181.2830  173.5700  136.0210 C   0  0  0  0  0  2  0  0  0  0  0  0
  180.7730  179.6350  142.1510 C   0  0  0  0  0  2  0  0  0  0  0  0
  179.3480  179.1350  140.0830 C   0  0  0  0  0  2  0  0  0  0  0  0
  187.3570  175.9100  135.2330 C   0  0  0  0  0  2  0  0  0  0  0  0
  181.2740  175.4440  139.2960 C   0  0  0  0  0  0  0  0  0  0  0  0
  185.3480  177.8130  137.9620 C   0  0  0  0  0  2  0  0  0  0  0  0
  182.7660  173.2510  136.0920 C   0  0  0  0  0  2  0  0  0  0  0  0
  184.8290  173.1570  134.7840 C   0  0  0  0  0  0  0  0  0  0  0  0
  181.7490  178.6600  141.4820 C   0  0  1  0  0  3  0  0  0  0  0  0
  183.0780  178.9410  143.7140 C   0  0  2  0  0  3  0  0  0  0  0  0
  181.7330  179.3750  144.2740 C   0  0  0  0  0  1  0  0  0  0  0  0
  184.0120  180.1370  143.6130 C   0  0  0  0  0  2  0  0  0  0  0  0
  186.0430  179.3670  142.6450 O   0  0  0  0  0  1  0  0  0  0  0  0
  185.4600  179.7270  143.8600 C   0  0  2  0  0  3  0  0  0  0  0  0
  186.7550  177.9350  145.0840 C   0  0  0  0  0  0  0  0  0  0  0  0
  185.5250  178.5910  144.7730 N   0  0  0  0  0  2  0  0  0  0  0  0
  187.9840  178.3930  144.5040 N   0  0  0  0  0  2  0  0  0  0  0  0
  186.7550  176.9310  145.9010 N   0  0  0  0  0  2  0  0  0  0  0  0
  192.2570  177.3410  143.0900 F   0  0  0  0  0  0  0  0  0  0  0  0
  190.4110  176.0690  143.4910 O   0  0  0  0  0  0  0  0  0  0  0  0
  190.8780  177.3070  143.0190 C   0  0  1  0  0  0  0  0  0  0  0  0
  189.2200  176.3280  144.1870 C   0  0  0  0  0  2  0  0  0  0  0  0
  190.3140  178.4070  143.8860 C   0  0  0  0  0  2  0  0  0  0  0  0
  189.2650  177.7370  144.7210 C   0  0  1  0  0  3  0  0  0  0  0  0
  190.4410  177.5200  141.5780 C   0  0  0  0  0  2  0  0  0  0  0  0
  191.5470  177.4880  140.7250 O   0  0  0  0  0  1  0  0  0  0  0  0
  187.2420  173.7650  136.6900 C   0  0  0  0  0  3  0  0  0  0  0  0
  188.2520  172.6720  136.5210 C   0  0  0  0  0  3  0  0  0  0  0  0
  189.0090  172.6680  135.5620 O   0  0  0  0  0  0  0  0  0  0  0  0
  186.0350  173.2640  137.4160 C   0  0  0  0  0  3  0  0  0  0  0  0
  186.1370  172.8200  138.5480 O   0  0  0  0  0  0  0  0  0  0  0  0
  188.5940  178.3140  136.1750 C   0  0  0  0  0  2  0  0  0  0  0  0
  189.1490  178.2400  137.5540 C   0  0  0  0  0  0  0  0  0  0  0  0
  189.7830  177.2180  137.9220 O   0  0  0  0  0  0  0  0  0  0  0  0
  188.9340  179.2820  138.4450 O   0  0  0  0  0  1  0  0  0  0  0  0
  2 48  1  1  0  0  0
  3 16  1  6  0  0  0
  3  7  1  0  0  0  0
  3  4  1  0  0  0  0
  4 27  1  1  0  0  0
  5 29  1  0  0  0  0
  5 28  1  0  0  0  0
  6 23  1  0  0  0  0
  7 53  1  6  0  0  0
  7  4  1  0  0  0  0
  8 29  2  0  0  0  0
  9 31  1  1  0  0  0
 10 18  1  1  0  0  0
 10 21  1  0  0  0  0
 11 26  1  0  0  0  0
 12 11  1  0  0  0  0
 13  1  1  6  0  0  0
 13 19  1  0  0  0  0
 15 10  1  0  0  0  0
 17 15  1  1  0  0  0
 17 19  1  0  0  0  0
 19 30  1  0  0  0  0
 20  2  1  0  0  0  0
 21  9  1  0  0  0  0
 22 28  1  0  0  0  0
 22 12  1  0  0  0  0
 24 13  1  0  0  0  0
 24  6  1  0  0  0  0
 25  2  1  0  0  0  0
 25  3  1  0  0  0  0
 26 17  1  0  0  0  0
 26 14  2  0  0  0  0
 27 18  1  0  0  0  0
 29 20  1  0  0  0  0
 30 23  1  0  0  0  0
 30  9  1  0  0  0  0
 31 32  1  0  0  0  0
 33 31  1  0  0  0  0
 33 35  1  0  0  0  0
 34 35  1  0  0  0  0
 35 37  1  0  0  0  0
 36 39  2  0  0  0  0
 37 36  1  0  0  0  0
 38 45  1  0  0  0  0
 38 36  1  0  0  0  0
 41 43  1  0  0  0  0
 42 40  1  0  0  0  0
 42 41  1  0  0  0  0
 42 44  1  0  0  0  0
 43 45  1  0  0  0  0
 44 45  1  0  0  0  0
 46 42  1  0  0  0  0
 47 46  1  0  0  0  0
 48 51  1  0  0  0  0
 49 48  1  0  0  0  0
 50 49  2  0  0  0  0
 51 52  2  0  0  0  0
 53 54  1  0  0  0  0
 54 55  2  0  0  0  0
 54 56  1  0  0  0  0
M  END
>  <MODEL>
2

>  <REMARK>
 VINA RESULT:      -5.4      2.496      7.408
  Name = 
  11 active torsions:
  status: ('A' for Active; 'I' for Inactive)
    1  A    between atoms: C_2  and  C_9
    2  A    between atoms: C_7  and  C_22
    3  A    between atoms: C_9  and  C_13
    4  A    between atoms: C_9  and  C_27
    5  A    between atoms: C_10  and  C_22
    6  A    between atoms: C_14  and  C_24
    7  A    between atoms: C_24  and  C_34
    8  A    between atoms: C_29  and  C_43
    9  A    between atoms: N_30  and  C_52
   10  A    between atoms: N_33  and  C_55
   11  A    between atoms: C_34  and  C_52
                            x       y       z     vdW  Elec       q    Type
                         _______ _______ _______ _____ _____    ______ ____

>  <TORSDO>
F 11

$$$$
=
 OpenBabel11062416543D

 56 60  0  0  1  0  0  0  0  0999 V2000
  178.9310  176.8380  139.9580 O   0  0  0  0  0  1  0  0  0  0  0  0
  186.2370  173.7320  135.0320 C   0  0  1  0  0  3  0  0  0  0  0  0
  185.9770  176.2980  135.3150 C   0  0  2  0  0  0  0  0  0  0  0  0
  186.3440  176.7460  136.7280 C   0  0  1  0  0  3  0  0  0  0  0  0
  182.6150  172.5360  134.8260 C   0  0  0  0  0  2  0  0  0  0  0  0
  180.0540  180.2580  140.9850 C   0  0  0  0  0  2  0  0  0  0  0  0
  186.7200  177.6150  135.5360 C   0  0  1  0  0  3  0  0  0  0  0  0
  184.6960  171.4000  134.5940 O   0  0  0  0  0  0  0  0  0  0  0  0
  183.2610  178.2610  142.0220 C   0  0  2  0  0  3  0  0  0  0  0  0
  184.1450  177.6080  139.7100 C   0  0  2  0  0  3  0  0  0  0  0  0
  180.9870  174.8780  138.0510 N   0  0  0  0  0  2  0  0  0  0  0  0
  180.3610  173.6050  137.7240 C   0  0  0  0  0  2  0  0  0  0  0  0
  179.6680  177.7830  140.6750 C   0  0  1  0  0  3  0  0  0  0  0  0
  180.8030  174.5880  140.3620 O   0  0  0  0  0  0  0  0  0  0  0  0
  183.3000  176.3490  139.8160 C   0  0  0  0  0  2  0  0  0  0  0  0
  184.5740  176.5490  134.7700 C   0  0  0  0  0  1  0  0  0  0  0  0
  181.8060  176.6490  139.6490 C   0  0  2  0  0  3  0  0  0  0  0  0
  185.4270  177.3090  138.9600 C   0  0  0  0  0  2  0  0  0  0  0  0
  181.1740  177.4170  140.8540 C   0  0  1  0  0  3  0  0  0  0  0  0
  184.8180  173.6860  134.9190 O   0  0  0  0  0  0  0  0  0  0  0  0
  184.4840  178.1430  141.0980 C   0  0  0  0  0  2  0  0  0  0  0  0
  180.7270  173.2020  136.3070 C   0  0  0  0  0  2  0  0  0  0  0  0
  181.1430  179.7480  141.9270 C   0  0  0  0  0  2  0  0  0  0  0  0
  179.4880  179.1670  140.0610 C   0  0  0  0  0  2  0  0  0  0  0  0
  186.7890  175.1340  134.7210 C   0  0  0  0  0  2  0  0  0  0  0  0
  181.1470  175.3250  139.3980 C   0  0  0  0  0  0  0  0  0  0  0  0
  185.1660  177.3540  137.4680 C   0  0  0  0  0  2  0  0  0  0  0  0
  182.1930  172.8080  136.2550 C   0  0  0  0  0  2  0  0  0  0  0  0
  184.1020  172.4980  134.7600 C   0  0  0  0  0  0  0  0  0  0  0  0
  181.9970  178.6720  141.2480 C   0  0  1  0  0  3  0  0  0  0  0  0
  183.5630  179.0540  143.3040 C   0  0  2  0  0  3  0  0  0  0  0  0
  182.5180  180.1210  143.5880 C   0  0  0  0  0  1  0  0  0  0  0  0
  184.9450  179.6840  143.2230 C   0  0  0  0  0  2  0  0  0  0  0  0
  186.9090  178.7310  144.1650 O   0  0  0  0  0  1  0  0  0  0  0  0
  186.0290  178.6200  143.0890 C   0  0  2  0  0  3  0  0  0  0  0  0
  188.1150  178.3310  141.6910 C   0  0  0  0  0  0  0  0  0  0  0  0
  186.7720  178.7950  141.8460 N   0  0  0  0  0  2  0  0  0  0  0  0
  188.7740  177.6580  142.7710 N   0  0  0  0  0  2  0  0  0  0  0  0
  188.7280  178.5150  140.5660 N   0  0  0  0  0  2  0  0  0  0  0  0
  192.3510  175.3740  144.6020 F   0  0  0  0  0  0  0  0  0  0  0  0
  191.9950  177.5800  144.1630 O   0  0  0  0  0  0  0  0  0  0  0  0
  191.3990  176.3740  144.5660 C   0  0  1  0  0  0  0  0  0  0  0  0
  191.0560  178.2410  143.3560 C   0  0  0  0  0  2  0  0  0  0  0  0
  190.3300  175.9970  143.5690 C   0  0  0  0  0  2  0  0  0  0  0  0
  190.1600  177.2150  142.7110 C   0  0  1  0  0  3  0  0  0  0  0  0
  190.7770  176.5280  145.9460 C   0  0  0  0  0  2  0  0  0  0  0  0
  191.6730  177.1520  146.8160 O   0  0  0  0  0  1  0  0  0  0  0  0
  186.7260  173.1210  136.3570 C   0  0  0  0  0  3  0  0  0  0  0  0
  186.0280  173.6630  137.5660 C   0  0  0  0  0  3  0  0  0  0  0  0
  184.9940  173.1520  137.9690 O   0  0  0  0  0  0  0  0  0  0  0  0
  188.2080  173.2470  136.5000 C   0  0  0  0  0  3  0  0  0  0  0  0
  188.9520  172.7530  135.6680 O   0  0  0  0  0  0  0  0  0  0  0  0
  188.2270  177.5330  135.3300 C   0  0  0  0  0  2  0  0  0  0  0  0
  188.9320  178.0080  136.5510 C   0  0  0  0  0  0  0  0  0  0  0  0
  189.7240  177.2420  137.1580 O   0  0  0  0  0  1  0  0  0  0  0  0
  188.6860  179.2820  137.0430 O   0  0  0  0  0  0  0  0  0  0  0  0
  2 48  1  1  0  0  0
  3 16  1  6  0  0  0
  3  7  1  0  0  0  0
  3  4  1  0  0  0  0
  4 27  1  1  0  0  0
  5 28  1  0  0  0  0
  6 23  1  0  0  0  0
  7 53  1  6  0  0  0
  7  4  1  0  0  0  0
  8 29  2  0  0  0  0
  9 31  1  1  0  0  0
 10 18  1  1  0  0  0
 10 15  1  0  0  0  0
 10 21  1  0  0  0  0
 11 26  1  0  0  0  0
 12 11  1  0  0  0  0
 13  1  1  6  0  0  0
 13 19  1  0  0  0  0
 17 15  1  1  0  0  0
 17 19  1  0  0  0  0
 19 30  1  0  0  0  0
 20  2  1  0  0  0  0
 21  9  1  0  0  0  0
 22 12  1  0  0  0  0
 24 13  1  0  0  0  0
 24  6  1  0  0  0  0
 25  2  1  0  0  0  0
 25  3  1  0  0  0  0
 26 17  1  0  0  0  0
 26 14  2  0  0  0  0
 27 18  1  0  0  0  0
 28 22  1  0  0  0  0
 29  5  1  0  0  0  0
 29 20  1  0  0  0  0
 30 23  1  0  0  0  0
 30  9  1  0  0  0  0
 31 32  1  0  0  0  0
 33 31  1  0  0  0  0
 35 33  1  0  0  0  0
 35 34  1  0  0  0  0
 36 37  1  0  0  0  0
 36 38  1  0  0  0  0
 37 35  1  0  0  0  0
 39 36  2  0  0  0  0
 41 42  1  0  0  0  0
 42 40  1  0  0  0  0
 42 46  1  0  0  0  0
 43 41  1  0  0  0  0
 44 42  1  0  0  0  0
 45 38  1  0  0  0  0
 45 43  1  0  0  0  0
 45 44  1  0  0  0  0
 46 47  1  0  0  0  0
 48 51  1  0  0  0  0
 48 49  1  0  0  0  0
 49 50  2  0  0  0  0
 52 51  2  0  0  0  0
 53 54  1  0  0  0  0
 54 56  2  0  0  0  0
 54 55  1  0  0  0  0
M  END
>  <MODEL>
3

>  <REMARK>
 VINA RESULT:      -5.0      2.428      7.237
  Name = 
  11 active torsions:
  status: ('A' for Active; 'I' for Inactive)
    1  A    between atoms: C_2  and  C_9
    2  A    between atoms: C_7  and  C_22
    3  A    between atoms: C_9  and  C_13
    4  A    between atoms: C_9  and  C_27
    5  A    between atoms: C_10  and  C_22
    6  A    between atoms: C_14  and  C_24
    7  A    between atoms: C_24  and  C_34
    8  A    between atoms: C_29  and  C_43
    9  A    between atoms: N_30  and  C_52
   10  A    between atoms: N_33  and  C_55
   11  A    between atoms: C_34  and  C_52
                            x       y       z     vdW  Elec       q    Type
                         _______ _______ _______ _____ _____    ______ ____

>  <TORSDO>
F 11

$$$$
=
 OpenBabel11062416543D

 56 60  0  0  1  0  0  0  0  0999 V2000
  183.0190  177.7220  135.1260 O   0  0  0  0  0  1  0  0  0  0  0  0
  188.7060  177.8910  142.5380 C   0  0  1  0  0  3  0  0  0  0  0  0
  186.4630  179.1840  142.7100 C   0  0  2  0  0  0  0  0  0  0  0  0
  185.2790  178.2320  142.8740 C   0  0  1  0  0  3  0  0  0  0  0  0
  189.6570  178.3380  138.8660 C   0  0  0  0  0  2  0  0  0  0  0  0
  179.6990  178.5480  136.6460 C   0  0  0  0  0  2  0  0  0  0  0  0
  185.2980  179.5560  143.6280 C   0  0  1  0  0  3  0  0  0  0  0  0
  190.7850  177.3280  140.7040 O   0  0  0  0  0  0  0  0  0  0  0  0
  180.8110  175.7620  139.1650 C   0  0  2  0  0  3  0  0  0  0  0  0
  182.7380  176.9680  140.3410 C   0  0  2  0  0  3  0  0  0  0  0  0
  185.8030  177.5660  137.1100 N   0  0  0  0  0  2  0  0  0  0  0  0
  186.9970  177.2700  136.3340 C   0  0  0  0  0  2  0  0  0  0  0  0
  181.8610  177.4980  135.8730 C   0  0  1  0  0  3  0  0  0  0  0  0
  184.6600  175.6430  136.4350 O   0  0  0  0  0  0  0  0  0  0  0  0
  183.6580  176.4000  139.2720 C   0  0  0  0  0  2  0  0  0  0  0  0
  186.5320  180.1230  141.5090 C   0  0  0  0  0  1  0  0  0  0  0  0
  183.4600  177.0950  137.9210 C   0  0  2  0  0  3  0  0  0  0  0  0
  183.4700  177.0460  141.6650 C   0  0  0  0  0  2  0  0  0  0  0  0
  182.1060  176.7530  137.2220 C   0  0  1  0  0  3  0  0  0  0  0  0
  188.7570  178.3300  141.1840 O   0  0  0  0  0  0  0  0  0  0  0  0
  181.4980  176.0940  140.4990 C   0  0  0  0  0  2  0  0  0  0  0  0
  188.1750  178.0550  136.8850 C   0  0  0  0  0  2  0  0  0  0  0  0
  179.5920  177.2350  137.4180 C   0  0  0  0  0  2  0  0  0  0  0  0
  181.1040  178.8060  136.0760 C   0  0  0  0  0  2  0  0  0  0  0  0
  187.7810  178.7780  143.3900 C   0  0  0  0  0  2  0  0  0  0  0  0
  184.6510  176.7210  137.0880 C   0  0  0  0  0  0  0  0  0  0  0  0
  184.3080  178.3090  141.7100 C   0  0  0  0  0  2  0  0  0  0  0  0
  188.5760  177.4850  138.2340 C   0  0  0  0  0  2  0  0  0  0  0  0
  189.7820  177.9750  140.3040 C   0  0  0  0  0  0  0  0  0  0  0  0
  180.8930  176.9330  138.1730 C   0  0  1  0  0  3  0  0  0  0  0  0
  179.4250  175.1240  139.3560 C   0  0  2  0  0  3  0  0  0  0  0  0
  178.9320  175.2230  140.7910 C   0  0  0  0  0  1  0  0  0  0  0  0
  179.4460  173.6700  138.9100 C   0  0  0  0  0  2  0  0  0  0  0  0
  179.6240  174.2380  136.6080 O   0  0  0  0  0  1  0  0  0  0  0  0
  180.2400  173.5010  137.6190 C   0  0  2  0  0  3  0  0  0  0  0  0
  181.3210  171.5800  136.3840 C   0  0  0  0  0  0  0  0  0  0  0  0
  180.2890  172.0980  137.2240 N   0  0  0  0  0  2  0  0  0  0  0  0
  182.3640  172.4410  135.9080 N   0  0  0  0  0  2  0  0  0  0  0  0
  181.3150  170.3260  136.0630 N   0  0  0  0  0  2  0  0  0  0  0  0
  186.6290  170.8220  135.1640 F   0  0  0  0  0  0  0  0  0  0  0  0
  185.6160  172.7910  134.6350 O   0  0  0  0  0  0  0  0  0  0  0  0
  185.7100  171.7620  135.5860 C   0  0  1  0  0  0  0  0  0  0  0  0
  184.2670  173.1770  134.5940 C   0  0  0  0  0  2  0  0  0  0  0  0
  184.3610  171.1010  135.7300 C   0  0  0  0  0  2  0  0  0  0  0  0
  183.4130  172.0020  134.9990 C   0  0  1  0  0  3  0  0  0  0  0  0
  186.1470  172.3260  136.9300 C   0  0  0  0  0  2  0  0  0  0  0  0
  186.7430  173.5780  136.7620 O   0  0  0  0  0  1  0  0  0  0  0  0
  188.4310  176.3790  142.6400 C   0  0  0  0  0  3  0  0  0  0  0  0
  187.5640  176.0010  143.8020 C   0  0  0  0  0  3  0  0  0  0  0  0
  187.5020  176.7160  144.7900 O   0  0  0  0  0  0  0  0  0  0  0  0
  189.7030  175.5950  142.6510 C   0  0  0  0  0  3  0  0  0  0  0  0
  190.6040  175.8930  143.4170 O   0  0  0  0  0  0  0  0  0  0  0  0
  185.5420  179.2710  145.1050 C   0  0  0  0  0  2  0  0  0  0  0  0
  184.2600  178.9150  145.7700 C   0  0  0  0  0  0  0  0  0  0  0  0
  184.2660  178.4400  146.9340 O   0  0  0  0  0  1  0  0  0  0  0  0
  183.0590  179.0730  145.0910 O   0  0  0  0  0  0  0  0  0  0  0  0
  2 48  1  6  0  0  0
  2 25  1  0  0  0  0
  3 16  1  6  0  0  0
  3  4  1  0  0  0  0
  3 25  1  0  0  0  0
  3  7  1  0  0  0  0
  4 27  1  6  0  0  0
  4  7  1  0  0  0  0
  5 29  1  0  0  0  0
  6 23  1  0  0  0  0
  7 53  1  1  0  0  0
  9 31  1  1  0  0  0
  9 21  1  0  0  0  0
 10 15  1  6  0  0  0
 10 21  1  0  0  0  0
 10 18  1  0  0  0  0
 12 22  1  0  0  0  0
 12 11  1  0  0  0  0
 13  1  1  1  0  0  0
 13 24  1  0  0  0  0
 13 19  1  0  0  0  0
 14 26  2  0  0  0  0
 17 15  1  1  0  0  0
 18 27  1  0  0  0  0
 19 17  1  0  0  0  0
 19 30  1  0  0  0  0
 20  2  1  0  0  0  0
 22 28  1  0  0  0  0
 23 30  1  0  0  0  0
 24  6  1  0  0  0  0
 26 11  1  0  0  0  0
 26 17  1  0  0  0  0
 28  5  1  0  0  0  0
 29  8  2  0  0  0  0
 29 20  1  0  0  0  0
 30  9  1  0  0  0  0
 31 32  1  0  0  0  0
 33 31  1  0  0  0  0
 34 35  1  0  0  0  0
 35 33  1  0  0  0  0
 36 37  1  0  0  0  0
 37 35  1  0  0  0  0
 38 36  1  0  0  0  0
 39 36  2  0  0  0  0
 40 42  1  0  0  0  0
 41 42  1  0  0  0  0
 42 44  1  0  0  0  0
 42 46  1  0  0  0  0
 43 41  1  0  0  0  0
 43 45  1  0  0  0  0
 45 44  1  0  0  0  0
 45 38  1  0  0  0  0
 47 46  1  0  0  0  0
 48 51  1  0  0  0  0
 48 49  1  0  0  0  0
 49 50  2  0  0  0  0
 51 52  2  0  0  0  0
 53 54  1  0  0  0  0
 54 55  1  0  0  0  0
 56 54  2  0  0  0  0
M  END
>  <MODEL>
4

>  <REMARK>
 VINA RESULT:      -3.9      3.503      8.839
  Name = 
  11 active torsions:
  status: ('A' for Active; 'I' for Inactive)
    1  A    between atoms: C_2  and  C_9
    2  A    between atoms: C_7  and  C_22
    3  A    between atoms: C_9  and  C_13
    4  A    between atoms: C_9  and  C_27
    5  A    between atoms: C_10  and  C_22
    6  A    between atoms: C_14  and  C_24
    7  A    between atoms: C_24  and  C_34
    8  A    between atoms: C_29  and  C_43
    9  A    between atoms: N_30  and  C_52
   10  A    between atoms: N_33  and  C_55
   11  A    between atoms: C_34  and  C_52
                            x       y       z     vdW  Elec       q    Type
                         _______ _______ _______ _____ _____    ______ ____

>  <TORSDO>
F 11

$$$$
