=
 OpenBabel11062416223D

 29 32  0  0  1  0  0  0  0  0999 V2000
  186.2530  177.9180  146.0830 C   0  0  0  0  0  0  0  0  0  0  0  0
  183.0430  179.1600  145.5660 O   0  0  0  0  0  0  0  0  0  0  0  0
  184.7380  178.9010  143.9860 C   0  0  1  0  0  3  0  0  0  0  0  0
  188.2230  177.0920  146.2810 N   0  0  0  0  0  0  0  0  0  0  0  0
  184.9820  178.2930  146.3340 N   0  0  0  0  0  0  0  0  0  0  0  0
  184.2230  178.7940  145.3150 C   0  0  0  0  0  0  0  0  0  0  0  0
  188.1040  177.4820  144.9850 C   0  0  0  0  0  0  0  0  0  0  0  0
  186.6050  178.3660  142.3160 C   0  0  0  0  0  1  0  0  0  0  0  0
  187.1020  177.3530  146.9490 N   0  0  0  0  0  2  0  0  0  0  0  0
  186.8350  178.0170  144.7870 C   0  0  0  0  0  0  0  0  0  0  0  0
  186.0730  178.4670  143.7070 C   0  0  0  0  0  0  0  0  0  0  0  0
  189.2160  177.3660  144.0230 C   0  0  0  0  0  0  0  0  0  0  0  0
  190.3840  176.0700  142.3310 C   0  0  0  0  0  3  0  0  0  0  0  0
  190.2330  178.3290  143.9670 C   0  0  0  0  0  3  0  0  0  0  0  0
  189.3090  176.2260  143.2120 C   0  0  0  0  0  3  0  0  0  0  0  0
  191.3080  178.1750  143.0870 C   0  0  0  0  0  3  0  0  0  0  0  0
  191.3810  177.0470  142.2660 C   0  0  0  0  0  3  0  0  0  0  0  0
  183.2060  178.7600  142.0370 C   0  0  0  0  0  0  0  0  0  0  0  0
  182.5960  178.0670  141.1170 C   0  0  0  0  0  3  0  0  0  0  0  0
  183.8230  179.4570  142.9540 C   0  0  0  0  0  3  0  0  0  0  0  0
  182.8910  176.9210  136.8950 C   0  0  0  0  0  2  0  0  0  0  0  0
  183.3850  177.2530  140.1480 C   0  0  2  0  0  3  0  0  0  0  0  0
  182.1070  175.7870  137.5490 C   0  0  0  0  0  2  0  0  0  0  0  0
  184.9190  179.0210  139.2700 C   0  0  0  0  0  1  0  0  0  0  0  0
  180.5000  175.2780  139.1560 C   0  0  0  0  0  1  0  0  0  0  0  0
  183.7590  178.1070  138.9230 C   0  0  1  0  0  3  0  0  0  0  0  0
  181.5740  176.2000  138.8400 N   0  0  0  0  0  0  0  0  0  0  0  0
  182.6240  175.9640  139.8220 C   0  0  0  0  0  2  0  0  0  0  0  0
  184.1360  177.2790  137.6980 C   0  0  0  0  0  2  0  0  0  0  0  0
  1  5  2  0  0  0  0
  1  9  1  0  0  0  0
  3 20  1  6  0  0  0
  3  6  1  0  0  0  0
  4  9  1  0  0  0  0
  6  2  2  0  0  0  0
  6  5  1  0  0  0  0
  7  4  2  0  0  0  0
  8 11  1  0  0  0  0
 10  7  1  0  0  0  0
 10  1  1  0  0  0  0
 11  3  1  0  0  0  0
 11 10  2  0  0  0  0
 12  7  1  0  0  0  0
 13 15  1  0  0  0  0
 14 12  1  0  0  0  0
 15 12  2  0  0  0  0
 16 14  2  0  0  0  0
 17 13  2  0  0  0  0
 17 16  1  0  0  0  0
 18 20  2  0  0  0  0
 19 18  2  0  0  0  0
 21 23  1  0  0  0  0
 21 29  1  0  0  0  0
 22 19  1  1  0  0  0
 23 27  1  0  0  0  0
 26 24  1  1  0  0  0
 26 22  1  0  0  0  0
 27 25  1  0  0  0  0
 27 28  1  0  0  0  0
 28 22  1  0  0  0  0
 29 26  1  0  0  0  0
M  END
>  <MODEL>
1

>  <REMARK>
 VINA RESULT:      -8.8      0.000      0.000
  Name = 
  3 active torsions:
  status: ('A' for Active; 'I' for Inactive)
    1  A    between atoms: C_4  and  C_19
    2  A    between atoms: C_5  and  C_7
    3  A    between atoms: C_12  and  C_15
                            x       y       z     vdW  Elec       q    Type
                         _______ _______ _______ _____ _____    ______ ____

>  <TORSDO>
F 3

$$$$
=
 OpenBabel11062416223D

 29 32  0  0  1  0  0  0  0  0999 V2000
  188.8870  177.0180  146.7200 C   0  0  0  0  0  0  0  0  0  0  0  0
  192.2980  176.5940  146.1690 O   0  0  0  0  0  0  0  0  0  0  0  0
  190.7200  177.4780  144.6980 C   0  0  1  0  0  3  0  0  0  0  0  0
  186.7930  177.3950  146.9910 N   0  0  0  0  0  0  0  0  0  0  0  0
  190.1800  176.7040  146.9450 N   0  0  0  0  0  0  0  0  0  0  0  0
  191.0960  176.9100  145.9550 C   0  0  0  0  0  0  0  0  0  0  0  0
  187.0850  177.7750  145.7200 C   0  0  0  0  0  0  0  0  0  0  0  0
  188.9310  178.6240  143.2660 C   0  0  0  0  0  1  0  0  0  0  0  0
  187.8830  176.9370  147.6010 N   0  0  0  0  0  2  0  0  0  0  0  0
  188.4410  177.5670  145.4850 C   0  0  0  0  0  0  0  0  0  0  0  0
  189.3570  177.8510  144.4690 C   0  0  0  0  0  0  0  0  0  0  0  0
  186.0530  178.2700  144.7900 C   0  0  0  0  0  0  0  0  0  0  0  0
  184.0610  179.6080  144.4040 C   0  0  0  0  0  3  0  0  0  0  0  0
  185.9700  177.7930  143.4750 C   0  0  0  0  0  3  0  0  0  0  0  0
  185.0800  179.1670  145.2540 C   0  0  0  0  0  3  0  0  0  0  0  0
  184.9520  178.2330  142.6240 C   0  0  0  0  0  3  0  0  0  0  0  0
  184.0000  179.1430  143.0880 C   0  0  0  0  0  3  0  0  0  0  0  0
  191.6240  177.7510  142.4020 C   0  0  0  0  0  0  0  0  0  0  0  0
  191.4510  177.8310  141.1120 C   0  0  0  0  0  3  0  0  0  0  0  0
  191.8000  177.6630  143.6940 C   0  0  0  0  0  3  0  0  0  0  0  0
  189.3380  176.8120  137.4080 C   0  0  0  0  0  2  0  0  0  0  0  0
  190.7950  176.7130  140.3750 C   0  0  2  0  0  3  0  0  0  0  0  0
  188.2300  177.0870  138.4210 C   0  0  0  0  0  2  0  0  0  0  0  0
  192.6950  176.0100  138.9100 C   0  0  0  0  0  1  0  0  0  0  0  0
  187.5970  178.4320  140.2140 C   0  0  0  0  0  1  0  0  0  0  0  0
  191.3210  176.6540  138.9300 C   0  0  1  0  0  3  0  0  0  0  0  0
  188.7450  177.8260  139.5650 N   0  0  0  0  0  0  0  0  0  0  0  0
  189.2730  176.8400  140.4980 C   0  0  0  0  0  2  0  0  0  0  0  0
  190.4060  175.8860  137.9810 C   0  0  0  0  0  2  0  0  0  0  0  0
  1  5  2  0  0  0  0
  1  9  1  0  0  0  0
  3 20  1  1  0  0  0
  3  6  1  0  0  0  0
  4  9  1  0  0  0  0
  6  2  2  0  0  0  0
  6  5  1  0  0  0  0
  7  4  2  0  0  0  0
  8 11  1  0  0  0  0
 10  7  1  0  0  0  0
 10  1  1  0  0  0  0
 11  3  1  0  0  0  0
 11 10  2  0  0  0  0
 12 15  1  0  0  0  0
 12  7  1  0  0  0  0
 13 15  2  0  0  0  0
 14 12  2  0  0  0  0
 16 17  2  0  0  0  0
 16 14  1  0  0  0  0
 17 13  1  0  0  0  0
 18 20  2  0  0  0  0
 19 18  2  0  0  0  0
 21 29  1  0  0  0  0
 21 23  1  0  0  0  0
 22 28  1  0  0  0  0
 22 19  1  6  0  0  0
 23 27  1  0  0  0  0
 26 24  1  1  0  0  0
 26 22  1  0  0  0  0
 27 25  1  0  0  0  0
 27 28  1  0  0  0  0
 29 26  1  0  0  0  0
M  END
>  <MODEL>
2

>  <REMARK>
 VINA RESULT:      -8.4      3.528      6.301
  Name = 
  3 active torsions:
  status: ('A' for Active; 'I' for Inactive)
    1  A    between atoms: C_4  and  C_19
    2  A    between atoms: C_5  and  C_7
    3  A    between atoms: C_12  and  C_15
                            x       y       z     vdW  Elec       q    Type
                         _______ _______ _______ _____ _____    ______ ____

>  <TORSDO>
F 3

$$$$
=
 OpenBabel11062416223D

 29 32  0  0  1  0  0  0  0  0999 V2000
  185.5550  177.9840  143.8440 C   0  0  0  0  0  0  0  0  0  0  0  0
  183.2200  178.8950  141.4300 O   0  0  0  0  0  0  0  0  0  0  0  0
  185.5220  178.6460  141.1570 C   0  0  1  0  0  3  0  0  0  0  0  0
  187.0590  177.3520  145.2370 N   0  0  0  0  0  0  0  0  0  0  0  0
  184.3680  178.2680  143.2710 N   0  0  0  0  0  0  0  0  0  0  0  0
  184.3330  178.6120  141.9500 C   0  0  0  0  0  0  0  0  0  0  0  0
  187.7080  177.6150  144.0730 C   0  0  0  0  0  0  0  0  0  0  0  0
  188.0220  178.1290  140.9450 C   0  0  0  0  0  1  0  0  0  0  0  0
  185.7540  177.5720  145.1020 N   0  0  0  0  0  2  0  0  0  0  0  0
  186.7800  178.0190  143.1190 C   0  0  0  0  0  0  0  0  0  0  0  0
  186.7790  178.3050  141.7510 C   0  0  0  0  0  0  0  0  0  0  0  0
  189.1740  177.5110  143.9490 C   0  0  0  0  0  0  0  0  0  0  0  0
  191.3520  178.5890  143.9720 C   0  0  0  0  0  3  0  0  0  0  0  0
  189.7860  176.3130  143.5560 C   0  0  0  0  0  3  0  0  0  0  0  0
  189.9650  178.6530  144.1370 C   0  0  0  0  0  3  0  0  0  0  0  0
  191.1730  176.2470  143.3900 C   0  0  0  0  0  3  0  0  0  0  0  0
  191.9560  177.3850  143.6010 C   0  0  0  0  0  3  0  0  0  0  0  0
  185.6250  178.2550  138.7080 C   0  0  0  0  0  0  0  0  0  0  0  0
  185.8900  177.4880  137.6880 C   0  0  0  0  0  3  0  0  0  0  0  0
  185.3660  179.0280  139.7290 C   0  0  0  0  0  3  0  0  0  0  0  0
  188.8460  176.2910  134.6790 C   0  0  0  0  0  2  0  0  0  0  0  0
  187.2610  176.9270  137.5100 C   0  0  2  0  0  3  0  0  0  0  0  0
  188.1250  174.9980  135.0470 C   0  0  0  0  0  2  0  0  0  0  0  0
  188.5460  179.0520  137.2190 C   0  0  0  0  0  1  0  0  0  0  0  0
  186.0610  174.0750  135.6040 C   0  0  0  0  0  1  0  0  0  0  0  0
  188.0620  177.7940  136.5220 C   0  0  1  0  0  3  0  0  0  0  0  0
  186.8620  175.2790  135.7140 N   0  0  0  0  0  0  0  0  0  0  0  0
  187.1630  175.4460  137.1300 C   0  0  0  0  0  2  0  0  0  0  0  0
  189.2640  177.0740  135.9190 C   0  0  0  0  0  2  0  0  0  0  0  0
  1  9  1  0  0  0  0
  2  6  2  0  0  0  0
  3 20  1  6  0  0  0
  3 11  1  0  0  0  0
  3  6  1  0  0  0  0
  5  1  2  0  0  0  0
  6  5  1  0  0  0  0
  7  4  2  0  0  0  0
  8 11  1  0  0  0  0
  9  4  1  0  0  0  0
 10  1  1  0  0  0  0
 10  7  1  0  0  0  0
 11 10  2  0  0  0  0
 12  7  1  0  0  0  0
 12 15  1  0  0  0  0
 13 15  2  0  0  0  0
 14 12  2  0  0  0  0
 16 14  1  0  0  0  0
 16 17  2  0  0  0  0
 17 13  1  0  0  0  0
 18 20  2  0  0  0  0
 19 18  2  0  0  0  0
 21 23  1  0  0  0  0
 21 29  1  0  0  0  0
 22 19  1  6  0  0  0
 23 27  1  0  0  0  0
 25 27  1  0  0  0  0
 26 24  1  1  0  0  0
 26 22  1  0  0  0  0
 27 28  1  0  0  0  0
 28 22  1  0  0  0  0
 29 26  1  0  0  0  0
M  END
>  <MODEL>
3

>  <REMARK>
 VINA RESULT:      -8.0      2.973      3.904
  Name = 
  3 active torsions:
  status: ('A' for Active; 'I' for Inactive)
    1  A    between atoms: C_4  and  C_19
    2  A    between atoms: C_5  and  C_7
    3  A    between atoms: C_12  and  C_15
                            x       y       z     vdW  Elec       q    Type
                         _______ _______ _______ _____ _____    ______ ____

>  <TORSDO>
F 3

$$$$
=
 OpenBabel11062416223D

 29 32  0  0  1  0  0  0  0  0999 V2000
  185.0880  178.6920  145.7790 C   0  0  0  0  0  0  0  0  0  0  0  0
  182.9610  179.3620  143.1060 O   0  0  0  0  0  0  0  0  0  0  0  0
  185.1640  178.6030  143.0140 C   0  0  1  0  0  3  0  0  0  0  0  0
  186.4470  178.1740  147.3560 N   0  0  0  0  0  0  0  0  0  0  0  0
  183.9770  179.0390  145.0970 N   0  0  0  0  0  0  0  0  0  0  0  0
  183.9990  179.0160  143.7330 C   0  0  0  0  0  0  0  0  0  0  0  0
  187.1250  177.9840  146.1940 C   0  0  0  0  0  0  0  0  0  0  0  0
  187.5080  177.5700  143.0590 C   0  0  0  0  0  1  0  0  0  0  0  0
  185.2110  178.6010  147.1080 N   0  0  0  0  0  2  0  0  0  0  0  0
  186.2880  178.2910  145.1260 C   0  0  0  0  0  0  0  0  0  0  0  0
  186.3320  178.1950  143.7330 C   0  0  0  0  0  0  0  0  0  0  0  0
  188.5390  177.5660  146.1680 C   0  0  0  0  0  0  0  0  0  0  0  0
  190.4080  176.4590  147.2580 C   0  0  0  0  0  3  0  0  0  0  0  0
  189.3980  177.9740  145.1390 C   0  0  0  0  0  3  0  0  0  0  0  0
  189.0580  176.8210  147.2370 C   0  0  0  0  0  3  0  0  0  0  0  0
  190.7490  177.6130  145.1590 C   0  0  0  0  0  3  0  0  0  0  0  0
  191.2530  176.8530  146.2160 C   0  0  0  0  0  3  0  0  0  0  0  0
  183.9800  178.4450  140.8380 C   0  0  0  0  0  0  0  0  0  0  0  0
  182.8890  178.2720  140.1450 C   0  0  0  0  0  3  0  0  0  0  0  0
  185.0750  178.6120  141.5300 C   0  0  0  0  0  3  0  0  0  0  0  0
  179.5450  175.9850  138.4680 C   0  0  0  0  0  2  0  0  0  0  0  0
  182.0940  177.0200  140.3030 C   0  0  2  0  0  3  0  0  0  0  0  0
  178.9310  176.7810  139.6160 C   0  0  0  0  0  2  0  0  0  0  0  0
  183.2810  175.5640  138.6530 C   0  0  0  0  0  1  0  0  0  0  0  0
  178.9690  178.8240  140.7350 C   0  0  0  0  0  1  0  0  0  0  0  0
  181.9830  176.2920  138.9510 C   0  0  1  0  0  3  0  0  0  0  0  0
  179.7990  177.8830  140.0070 N   0  0  0  0  0  0  0  0  0  0  0  0
  180.7530  177.3440  140.9680 C   0  0  0  0  0  2  0  0  0  0  0  0
  180.8340  175.2910  138.8930 C   0  0  0  0  0  2  0  0  0  0  0  0
  1  9  1  0  0  0  0
  2  6  2  0  0  0  0
  3 20  1  1  0  0  0
  3 11  1  0  0  0  0
  3  6  1  0  0  0  0
  5  1  2  0  0  0  0
  6  5  1  0  0  0  0
  7  4  2  0  0  0  0
  8 11  1  0  0  0  0
  9  4  1  0  0  0  0
 10  1  1  0  0  0  0
 10  7  1  0  0  0  0
 11 10  2  0  0  0  0
 12  7  1  0  0  0  0
 12 15  1  0  0  0  0
 14 16  1  0  0  0  0
 14 12  2  0  0  0  0
 15 13  2  0  0  0  0
 16 17  2  0  0  0  0
 17 13  1  0  0  0  0
 18 20  2  0  0  0  0
 19 18  2  0  0  0  0
 21 29  1  0  0  0  0
 21 23  1  0  0  0  0
 22 19  1  6  0  0  0
 22 28  1  0  0  0  0
 23 27  1  0  0  0  0
 26 24  1  1  0  0  0
 26 22  1  0  0  0  0
 27 25  1  0  0  0  0
 27 28  1  0  0  0  0
 29 26  1  0  0  0  0
M  END
>  <MODEL>
4

>  <REMARK>
 VINA RESULT:      -8.0      1.784      2.680
  Name = 
  3 active torsions:
  status: ('A' for Active; 'I' for Inactive)
    1  A    between atoms: C_4  and  C_19
    2  A    between atoms: C_5  and  C_7
    3  A    between atoms: C_12  and  C_15
                            x       y       z     vdW  Elec       q    Type
                         _______ _______ _______ _____ _____    ______ ____

>  <TORSDO>
F 3

$$$$
=
 OpenBabel11062416223D

 29 32  0  0  1  0  0  0  0  0999 V2000
  179.6940  177.0980  141.2190 C   0  0  0  0  0  0  0  0  0  0  0  0
  179.7640  178.7360  144.2890 O   0  0  0  0  0  0  0  0  0  0  0  0
  181.4260  178.7110  142.6530 C   0  0  1  0  0  3  0  0  0  0  0  0
  179.7160  176.1940  139.2730 N   0  0  0  0  0  0  0  0  0  0  0  0
  179.2950  177.5510  142.4250 N   0  0  0  0  0  0  0  0  0  0  0  0
  180.1410  178.3350  143.1540 C   0  0  0  0  0  0  0  0  0  0  0  0
  180.9250  176.7960  139.4240 C   0  0  0  0  0  0  0  0  0  0  0  0
  183.0730  178.7780  140.6930 C   0  0  0  0  0  1  0  0  0  0  0  0
  178.9670  176.3770  140.3570 N   0  0  0  0  0  2  0  0  0  0  0  0
  180.9690  177.4170  140.6690 C   0  0  0  0  0  0  0  0  0  0  0  0
  181.8380  178.2680  141.3570 C   0  0  0  0  0  0  0  0  0  0  0  0
  181.9810  176.7100  138.3990 C   0  0  0  0  0  0  0  0  0  0  0  0
  184.0400  175.6910  137.6050 C   0  0  0  0  0  3  0  0  0  0  0  0
  182.0380  177.6210  137.3360 C   0  0  0  0  0  3  0  0  0  0  0  0
  183.0000  175.7560  138.5380 C   0  0  0  0  0  3  0  0  0  0  0  0
  183.0780  177.5580  136.4030 C   0  0  0  0  0  3  0  0  0  0  0  0
  184.0770  176.5900  136.5360 C   0  0  0  0  0  3  0  0  0  0  0  0
  183.5610  179.4940  143.6490 C   0  0  0  0  0  0  0  0  0  0  0  0
  184.8560  179.4130  143.7740 C   0  0  0  0  0  3  0  0  0  0  0  0
  182.2620  179.5730  143.5300 C   0  0  0  0  0  3  0  0  0  0  0  0
  188.6180  177.6330  145.1530 C   0  0  0  0  0  2  0  0  0  0  0  0
  185.4840  178.1390  144.2290 C   0  0  2  0  0  3  0  0  0  0  0  0
  188.5770  177.3360  143.6570 C   0  0  0  0  0  2  0  0  0  0  0  0
  185.2840  178.4360  146.7030 C   0  0  0  0  0  1  0  0  0  0  0  0
  187.9670  178.1850  141.5750 C   0  0  0  0  0  1  0  0  0  0  0  0
  186.2570  178.3700  145.5400 C   0  0  1  0  0  3  0  0  0  0  0  0
  187.6150  178.1980  142.9830 N   0  0  0  0  0  0  0  0  0  0  0  0
  186.3180  177.5430  143.0900 C   0  0  0  0  0  2  0  0  0  0  0  0
  187.2960  177.2920  145.8300 C   0  0  0  0  0  2  0  0  0  0  0  0
  1  5  2  0  0  0  0
  3  6  1  0  0  0  0
  3 20  1  6  0  0  0
  4  7  2  0  0  0  0
  4  9  1  0  0  0  0
  5  6  1  0  0  0  0
  6  2  2  0  0  0  0
  7 10  1  0  0  0  0
  8 11  1  0  0  0  0
  9  1  1  0  0  0  0
 10  1  1  0  0  0  0
 10 11  2  0  0  0  0
 11  3  1  0  0  0  0
 12 15  1  0  0  0  0
 12  7  1  0  0  0  0
 13 15  2  0  0  0  0
 14 12  2  0  0  0  0
 16 17  2  0  0  0  0
 16 14  1  0  0  0  0
 17 13  1  0  0  0  0
 18 19  2  0  0  0  0
 20 18  2  0  0  0  0
 21 29  1  0  0  0  0
 22 19  1  6  0  0  0
 22 26  1  0  0  0  0
 23 21  1  0  0  0  0
 25 27  1  0  0  0  0
 26 29  1  0  0  0  0
 26 24  1  1  0  0  0
 27 28  1  0  0  0  0
 27 23  1  0  0  0  0
 28 22  1  0  0  0  0
M  END
>  <MODEL>
5

>  <REMARK>
 VINA RESULT:      -8.0      2.085      7.543
  Name = 
  3 active torsions:
  status: ('A' for Active; 'I' for Inactive)
    1  A    between atoms: C_4  and  C_19
    2  A    between atoms: C_5  and  C_7
    3  A    between atoms: C_12  and  C_15
                            x       y       z     vdW  Elec       q    Type
                         _______ _______ _______ _____ _____    ______ ____

>  <TORSDO>
F 3

$$$$
=
 OpenBabel11062416223D

 29 32  0  0  1  0  0  0  0  0999 V2000
  189.5180  176.6940  142.7020 C   0  0  0  0  0  0  0  0  0  0  0  0
  190.8830  176.8250  139.5030 O   0  0  0  0  0  0  0  0  0  0  0  0
  188.8980  177.8000  140.2420 C   0  0  1  0  0  3  0  0  0  0  0  0
  188.6370  176.7410  144.6570 N   0  0  0  0  0  0  0  0  0  0  0  0
  190.3780  176.5030  141.6800 N   0  0  0  0  0  0  0  0  0  0  0  0
  190.0820  177.0280  140.4550 C   0  0  0  0  0  0  0  0  0  0  0  0
  187.7860  177.4180  143.8420 C   0  0  0  0  0  0  0  0  0  0  0  0
  186.8600  178.9940  141.2330 C   0  0  0  0  0  1  0  0  0  0  0  0
  189.6890  176.3030  143.9700 N   0  0  0  0  0  2  0  0  0  0  0  0
  188.3120  177.4350  142.5540 C   0  0  0  0  0  0  0  0  0  0  0  0
  188.0030  178.0400  141.3330 C   0  0  0  0  0  0  0  0  0  0  0  0
  186.5060  177.9680  144.3240 C   0  0  0  0  0  0  0  0  0  0  0  0
  185.1760  178.8690  146.1480 C   0  0  0  0  0  3  0  0  0  0  0  0
  185.3700  177.9900  143.5040 C   0  0  0  0  0  3  0  0  0  0  0  0
  186.3960  178.3930  145.6560 C   0  0  0  0  0  3  0  0  0  0  0  0
  184.1500  178.4650  143.9940 C   0  0  0  0  0  3  0  0  0  0  0  0
  184.0550  178.9080  145.3160 C   0  0  0  0  0  3  0  0  0  0  0  0
  187.5790  178.1940  138.1750 C   0  0  0  0  0  0  0  0  0  0  0  0
  186.4860  178.0550  137.4790 C   0  0  0  0  0  3  0  0  0  0  0  0
  188.6790  178.3280  138.8700 C   0  0  0  0  0  3  0  0  0  0  0  0
  184.1030  175.7680  134.5960 C   0  0  0  0  0  2  0  0  0  0  0  0
  185.9680  176.6920  137.1640 C   0  0  2  0  0  3  0  0  0  0  0  0
  183.1230  176.1240  135.7100 C   0  0  0  0  0  2  0  0  0  0  0  0
  187.7350  175.9330  135.5660 C   0  0  0  0  0  1  0  0  0  0  0  0
  182.5020  177.7800  137.2260 C   0  0  0  0  0  1  0  0  0  0  0  0
  186.2780  176.3350  135.7000 C   0  0  1  0  0  3  0  0  0  0  0  0
  183.6400  177.2130  136.5280 N   0  0  0  0  0  0  0  0  0  0  0  0
  184.4870  176.6060  137.5460 C   0  0  0  0  0  2  0  0  0  0  0  0
  185.4070  175.2080  135.1520 C   0  0  0  0  0  2  0  0  0  0  0  0
  1  9  1  0  0  0  0
  2  6  2  0  0  0  0
  3 20  1  1  0  0  0
  3  6  1  0  0  0  0
  3 11  1  0  0  0  0
  5  1  2  0  0  0  0
  6  5  1  0  0  0  0
  7 12  1  0  0  0  0
  7  4  2  0  0  0  0
  8 11  1  0  0  0  0
  9  4  1  0  0  0  0
 10  1  1  0  0  0  0
 10  7  1  0  0  0  0
 11 10  2  0  0  0  0
 12 15  1  0  0  0  0
 14 16  1  0  0  0  0
 14 12  2  0  0  0  0
 15 13  2  0  0  0  0
 16 17  2  0  0  0  0
 17 13  1  0  0  0  0
 18 20  2  0  0  0  0
 19 18  2  0  0  0  0
 21 29  1  0  0  0  0
 21 23  1  0  0  0  0
 22 19  1  6  0  0  0
 22 28  1  0  0  0  0
 23 27  1  0  0  0  0
 26 24  1  1  0  0  0
 26 22  1  0  0  0  0
 27 25  1  0  0  0  0
 27 28  1  0  0  0  0
 29 26  1  0  0  0  0
M  END
>  <MODEL>
6

>  <REMARK>
 VINA RESULT:      -7.9      3.026      5.131
  Name = 
  3 active torsions:
  status: ('A' for Active; 'I' for Inactive)
    1  A    between atoms: C_4  and  C_19
    2  A    between atoms: C_5  and  C_7
    3  A    between atoms: C_12  and  C_15
                            x       y       z     vdW  Elec       q    Type
                         _______ _______ _______ _____ _____    ______ ____

>  <TORSDO>
F 3

$$$$
=
 OpenBabel11062416223D

 29 32  0  0  1  0  0  0  0  0999 V2000
  189.4480  176.4370  142.0260 C   0  0  0  0  0  0  0  0  0  0  0  0
  191.1030  176.8770  138.9960 O   0  0  0  0  0  0  0  0  0  0  0  0
  189.1830  177.9720  139.7390 C   0  0  1  0  0  3  0  0  0  0  0  0
  188.4040  176.2980  143.8950 N   0  0  0  0  0  0  0  0  0  0  0  0
  190.3690  176.2960  141.0510 N   0  0  0  0  0  0  0  0  0  0  0  0
  190.2470  177.0330  139.9090 C   0  0  0  0  0  0  0  0  0  0  0  0
  187.7130  177.1930  143.1410 C   0  0  0  0  0  0  0  0  0  0  0  0
  187.2120  179.2500  140.7610 C   0  0  0  0  0  1  0  0  0  0  0  0
  189.4570  175.8400  143.2240 N   0  0  0  0  0  2  0  0  0  0  0  0
  188.3510  177.3380  141.9130 C   0  0  0  0  0  0  0  0  0  0  0  0
  188.2260  178.1560  140.7870 C   0  0  0  0  0  0  0  0  0  0  0  0
  186.4650  177.8210  143.6120 C   0  0  0  0  0  0  0  0  0  0  0  0
  185.1720  178.7890  145.4280 C   0  0  0  0  0  3  0  0  0  0  0  0
  185.3440  177.9260  142.7770 C   0  0  0  0  0  3  0  0  0  0  0  0
  186.3640  178.2390  144.9470 C   0  0  0  0  0  3  0  0  0  0  0  0
  184.1510  178.4750  143.2570 C   0  0  0  0  0  3  0  0  0  0  0  0
  184.0670  178.9100  144.5820 C   0  0  0  0  0  3  0  0  0  0  0  0
  188.1950  178.6610  137.5680 C   0  0  0  0  0  0  0  0  0  0  0  0
  187.2470  178.5930  136.6760 C   0  0  0  0  0  3  0  0  0  0  0  0
  189.1500  178.7250  138.4570 C   0  0  0  0  0  3  0  0  0  0  0  0
  187.8340  174.2620  137.0130 C   0  0  0  0  0  2  0  0  0  0  0  0
  186.9000  177.2840  136.0510 C   0  0  2  0  0  3  0  0  0  0  0  0
  188.8840  174.7160  136.0030 C   0  0  0  0  0  2  0  0  0  0  0  0
  184.9570  176.6400  137.4860 C   0  0  0  0  0  1  0  0  0  0  0  0
  190.3800  176.4180  135.4650 C   0  0  0  0  0  1  0  0  0  0  0  0
  186.3920  176.3050  137.1250 C   0  0  1  0  0  3  0  0  0  0  0  0
  189.0960  176.1540  136.0850 N   0  0  0  0  0  0  0  0  0  0  0  0
  188.0910  176.7750  135.2330 C   0  0  0  0  0  2  0  0  0  0  0  0
  186.4620  174.8430  136.6960 C   0  0  0  0  0  2  0  0  0  0  0  0
  1  9  1  0  0  0  0
  2  6  2  0  0  0  0
  3 20  1  1  0  0  0
  3  6  1  0  0  0  0
  3 11  1  0  0  0  0
  5  1  2  0  0  0  0
  6  5  1  0  0  0  0
  7 12  1  0  0  0  0
  7  4  2  0  0  0  0
  8 11  1  0  0  0  0
  9  4  1  0  0  0  0
 10  1  1  0  0  0  0
 10  7  1  0  0  0  0
 11 10  2  0  0  0  0
 12 15  1  0  0  0  0
 14 16  1  0  0  0  0
 14 12  2  0  0  0  0
 15 13  2  0  0  0  0
 16 17  2  0  0  0  0
 17 13  1  0  0  0  0
 18 20  2  0  0  0  0
 19 18  2  0  0  0  0
 22 19  1  1  0  0  0
 22 26  1  0  0  0  0
 23 27  1  0  0  0  0
 23 21  1  0  0  0  0
 25 27  1  0  0  0  0
 26 24  1  6  0  0  0
 28 22  1  0  0  0  0
 28 27  1  0  0  0  0
 29 21  1  0  0  0  0
 29 26  1  0  0  0  0
M  END
>  <MODEL>
7

>  <REMARK>
 VINA RESULT:      -7.8      4.009      6.118
  Name = 
  3 active torsions:
  status: ('A' for Active; 'I' for Inactive)
    1  A    between atoms: C_4  and  C_19
    2  A    between atoms: C_5  and  C_7
    3  A    between atoms: C_12  and  C_15
                            x       y       z     vdW  Elec       q    Type
                         _______ _______ _______ _____ _____    ______ ____

>  <TORSDO>
F 3

$$$$
=
 OpenBabel11062416223D

 29 32  0  0  1  0  0  0  0  0999 V2000
  189.3900  177.0800  143.6900 C   0  0  0  0  0  0  0  0  0  0  0  0
  191.5660  176.9310  140.9770 O   0  0  0  0  0  0  0  0  0  0  0  0
  189.3720  177.7210  140.9970 C   0  0  1  0  0  3  0  0  0  0  0  0
  188.0040  177.2890  145.3130 N   0  0  0  0  0  0  0  0  0  0  0  0
  190.5120  176.8620  142.9730 N   0  0  0  0  0  0  0  0  0  0  0  0
  190.5180  177.1580  141.6410 C   0  0  0  0  0  0  0  0  0  0  0  0
  187.3510  177.7170  144.2010 C   0  0  0  0  0  0  0  0  0  0  0  0
  187.0380  178.7550  141.2050 C   0  0  0  0  0  1  0  0  0  0  0  0
  189.2400  176.9050  145.0080 N   0  0  0  0  0  2  0  0  0  0  0  0
  188.2080  177.6190  143.1080 C   0  0  0  0  0  0  0  0  0  0  0  0
  188.1930  177.9920  141.7620 C   0  0  0  0  0  0  0  0  0  0  0  0
  185.9420  178.1500  144.2320 C   0  0  0  0  0  0  0  0  0  0  0  0
  184.0300  178.9410  145.5080 C   0  0  0  0  0  3  0  0  0  0  0  0
  185.1280  178.0590  143.0950 C   0  0  0  0  0  3  0  0  0  0  0  0
  185.3790  178.5760  145.4440 C   0  0  0  0  0  3  0  0  0  0  0  0
  183.7800  178.4240  143.1570 C   0  0  0  0  0  3  0  0  0  0  0  0
  183.2320  178.8680  144.3630 C   0  0  0  0  0  3  0  0  0  0  0  0
  189.4580  177.1140  138.5920 C   0  0  0  0  0  0  0  0  0  0  0  0
  189.4310  176.2230  137.6410 C   0  0  0  0  0  3  0  0  0  0  0  0
  189.4920  178.0080  139.5440 C   0  0  0  0  0  3  0  0  0  0  0  0
  192.0360  173.8660  135.0180 C   0  0  0  0  0  2  0  0  0  0  0  0
  190.4330  175.1170  137.6240 C   0  0  2  0  0  3  0  0  0  0  0  0
  190.7760  173.0190  135.1720 C   0  0  0  0  0  2  0  0  0  0  0  0
  192.5380  176.4630  137.6950 C   0  0  0  0  0  1  0  0  0  0  0  0
  188.4550  173.0950  135.3430 C   0  0  0  0  0  1  0  0  0  0  0  0
  191.6820  175.5490  136.8370 C   0  0  1  0  0  3  0  0  0  0  0  0
  189.6670  173.8230  135.6650 N   0  0  0  0  0  0  0  0  0  0  0  0
  189.7690  173.8320  137.1180 C   0  0  0  0  0  2  0  0  0  0  0  0
  192.5370  174.3780  136.3630 C   0  0  0  0  0  2  0  0  0  0  0  0
  1  9  1  0  0  0  0
  2  6  2  0  0  0  0
  3 20  1  1  0  0  0
  3  6  1  0  0  0  0
  3 11  1  0  0  0  0
  5  1  2  0  0  0  0
  6  5  1  0  0  0  0
  7 12  1  0  0  0  0
  7  4  2  0  0  0  0
  8 11  1  0  0  0  0
  9  4  1  0  0  0  0
 10  1  1  0  0  0  0
 10  7  1  0  0  0  0
 11 10  2  0  0  0  0
 12 15  1  0  0  0  0
 14 16  1  0  0  0  0
 14 12  2  0  0  0  0
 15 13  2  0  0  0  0
 16 17  2  0  0  0  0
 17 13  1  0  0  0  0
 18 20  2  0  0  0  0
 19 18  2  0  0  0  0
 21 23  1  0  0  0  0
 21 29  1  0  0  0  0
 22 19  1  6  0  0  0
 23 27  1  0  0  0  0
 25 27  1  0  0  0  0
 26 22  1  0  0  0  0
 26 24  1  1  0  0  0
 27 28  1  0  0  0  0
 28 22  1  0  0  0  0
 29 26  1  0  0  0  0
M  END
>  <MODEL>
8

>  <REMARK>
 VINA RESULT:      -7.8      4.501      6.902
  Name = 
  3 active torsions:
  status: ('A' for Active; 'I' for Inactive)
    1  A    between atoms: C_4  and  C_19
    2  A    between atoms: C_5  and  C_7
    3  A    between atoms: C_12  and  C_15
                            x       y       z     vdW  Elec       q    Type
                         _______ _______ _______ _____ _____    ______ ____

>  <TORSDO>
F 3

$$$$
=
 OpenBabel11062416223D

 29 32  0  0  1  0  0  0  0  0999 V2000
  186.9260  178.3770  140.8450 C   0  0  0  0  0  0  0  0  0  0  0  0
  186.8440  178.8720  137.4010 O   0  0  0  0  0  0  0  0  0  0  0  0
  188.6560  178.1760  138.6940 C   0  0  1  0  0  3  0  0  0  0  0  0
  187.0570  177.9660  142.9470 N   0  0  0  0  0  0  0  0  0  0  0  0
  186.4520  178.6620  139.6150 N   0  0  0  0  0  0  0  0  0  0  0  0
  187.2940  178.5830  138.5430 C   0  0  0  0  0  0  0  0  0  0  0  0
  188.2990  177.7470  142.4400 C   0  0  0  0  0  0  0  0  0  0  0  0
  190.4960  177.2150  140.1950 C   0  0  0  0  0  1  0  0  0  0  0  0
  186.2220  178.3460  141.9830 N   0  0  0  0  0  2  0  0  0  0  0  0
  188.2770  177.9850  141.0690 C   0  0  0  0  0  0  0  0  0  0  0  0
  189.1520  177.8320  139.9910 C   0  0  0  0  0  0  0  0  0  0  0  0
  189.4410  177.3700  143.2930 C   0  0  0  0  0  0  0  0  0  0  0  0
  191.1100  177.9990  144.9440 C   0  0  0  0  0  3  0  0  0  0  0  0
  190.0450  176.1100  143.1830 C   0  0  0  0  0  3  0  0  0  0  0  0
  189.9940  178.3190  144.1650 C   0  0  0  0  0  3  0  0  0  0  0  0
  191.1610  175.7890  143.9610 C   0  0  0  0  0  3  0  0  0  0  0  0
  191.6920  176.7330  144.8440 C   0  0  0  0  0  3  0  0  0  0  0  0
  189.9050  177.0260  136.8830 C   0  0  0  0  0  0  0  0  0  0  0  0
  190.3360  175.9370  136.3110 C   0  0  0  0  0  3  0  0  0  0  0  0
  189.4800  178.1200  137.4580 C   0  0  0  0  0  3  0  0  0  0  0  0
  193.7450  173.2040  135.9410 C   0  0  0  0  0  2  0  0  0  0  0  0
  191.1980  174.9850  137.0700 C   0  0  2  0  0  3  0  0  0  0  0  0
  192.5170  172.3130  135.7840 C   0  0  0  0  0  2  0  0  0  0  0  0
  193.1010  176.5040  137.6330 C   0  0  0  0  0  1  0  0  0  0  0  0
  190.3670  172.1930  134.8970 C   0  0  0  0  0  1  0  0  0  0  0  0
  192.6830  175.2970  136.8140 C   0  0  1  0  0  3  0  0  0  0  0  0
  191.3360  173.1060  135.4730 N   0  0  0  0  0  0  0  0  0  0  0  0
  190.7810  173.5460  136.7460 C   0  0  0  0  0  2  0  0  0  0  0  0
  193.6140  174.1340  137.1420 C   0  0  0  0  0  2  0  0  0  0  0  0
  1 10  1  0  0  0  0
  1  9  1  0  0  0  0
  2  6  2  0  0  0  0
  3 20  1  6  0  0  0
  3 11  1  0  0  0  0
  5  1  2  0  0  0  0
  6  3  1  0  0  0  0
  6  5  1  0  0  0  0
  7  4  2  0  0  0  0
  7 12  1  0  0  0  0
  9  4  1  0  0  0  0
 10  7  1  0  0  0  0
 11  8  1  0  0  0  0
 11 10  2  0  0  0  0
 12 15  1  0  0  0  0
 14 12  2  0  0  0  0
 14 16  1  0  0  0  0
 15 13  2  0  0  0  0
 16 17  2  0  0  0  0
 17 13  1  0  0  0  0
 18 20  2  0  0  0  0
 19 18  2  0  0  0  0
 21 29  1  0  0  0  0
 22 19  1  6  0  0  0
 23 21  1  0  0  0  0
 25 27  1  0  0  0  0
 26 22  1  0  0  0  0
 26 29  1  0  0  0  0
 26 24  1  1  0  0  0
 27 23  1  0  0  0  0
 27 28  1  0  0  0  0
 28 22  1  0  0  0  0
M  END
>  <MODEL>
9

>  <REMARK>
 VINA RESULT:      -7.8      5.153      7.306
  Name = 
  3 active torsions:
  status: ('A' for Active; 'I' for Inactive)
    1  A    between atoms: C_4  and  C_19
    2  A    between atoms: C_5  and  C_7
    3  A    between atoms: C_12  and  C_15
                            x       y       z     vdW  Elec       q    Type
                         _______ _______ _______ _____ _____    ______ ____

>  <TORSDO>
F 3

$$$$
