=
 OpenBabel11062413363D

 42 47  0  0  1  0  0  0  0  0999 V2000
  184.0950  172.7270  136.4930 N   0  0  0  0  0  2  0  0  0  0  0  0
  186.3050  173.1370  135.8930 C   0  0  0  0  0  2  0  0  0  0  0  0
  184.7350  176.9450  137.1210 C   0  0  2  0  0  3  0  0  0  0  0  0
  186.1250  176.9090  137.7390 C   0  0  1  0  0  3  0  0  0  0  0  0
  182.1820  174.3980  137.9630 C   0  0  0  0  0  1  0  0  0  0  0  0
  183.4100  174.9710  137.2750 C   0  0  2  0  0  3  0  0  0  0  0  0
  184.5300  173.9160  137.2070 C   0  0  2  0  0  3  0  0  0  0  0  0
  186.9770  175.2810  137.5020 S   0  0  0  0  0  0  0  0  0  0  0  0
  185.2530  172.1230  135.9610 N   0  0  0  0  0  0  0  0  0  0  0  0
  185.7380  174.4130  136.4450 C   0  0  1  0  0  3  0  0  0  0  0  0
  183.5050  177.5280  137.8120 C   0  0  1  0  0  3  0  0  0  0  0  0
  183.9430  176.1120  138.1100 C   0  0  2  0  0  3  0  0  0  0  0  0
  184.9400  171.7440  134.5940 C   0  0  0  0  0  1  0  0  0  0  0  0
  183.0220  178.9590  141.3000 C   0  0  0  0  0  2  0  0  0  0  0  0
  181.5540  179.3870  141.1580 C   0  0  1  0  0  3  0  0  0  0  0  0
  183.8790  178.4530  138.9660 C   0  0  2  0  0  3  0  0  0  0  0  0
  181.0970  179.8200  139.7620 C   0  0  0  0  0  0  0  0  0  0  0  0
  183.3820  177.8710  140.2930 C   0  0  0  0  0  2  0  0  0  0  0  0
  181.9190  180.0390  138.7120 C   0  0  0  0  0  3  0  0  0  0  0  0
  183.4120  179.8910  138.7060 C   0  0  0  0  0  2  0  0  0  0  0  0
  180.6420  178.3010  141.7340 C   0  0  0  0  0  3  0  0  0  0  0  0
  180.5110  178.4730  143.2370 C   0  0  0  0  0  2  0  0  0  0  0  0
  179.3960  178.9340  142.3260 C   0  0  0  0  0  2  0  0  0  0  0  0
  179.6320  180.1170  139.5700 C   0  0  1  0  0  3  0  0  0  0  0  0
  179.3700  181.4740  139.7690 O   0  0  0  0  0  1  0  0  0  0  0  0
  179.1470  179.6800  138.2260 C   0  0  0  0  0  0  0  0  0  0  0  0
  178.9310  180.6120  137.2180 O   0  0  0  0  0  0  0  0  0  0  0  0
  178.9450  178.4580  138.0010 O   0  0  0  0  0  1  0  0  0  0  0  0
  189.6290  178.1770  139.9040 O   0  0  0  0  0  0  0  0  0  0  0  0
  187.0030  178.0740  137.3790 C   0  0  0  0  0  0  0  0  0  0  0  0
  189.3790  178.7750  137.1880 C   0  0  0  0  0  1  0  0  0  0  0  0
  188.4580  178.2360  139.4370 C   0  0  0  0  0  0  0  0  0  0  0  0
  186.6430  178.8090  136.4190 O   0  0  0  0  0  0  0  0  0  0  0  0
  188.2700  178.3220  138.0170 N   0  0  0  0  0  0  0  0  0  0  0  0
  187.3450  178.2250  140.2940 O   0  0  0  0  0  0  0  0  0  0  0  0
  187.4700  177.1500  144.3280 N   0  0  0  0  0  0  0  0  0  0  0  0
  186.3470  178.2730  142.5440 C   0  0  0  0  0  3  0  0  0  0  0  0
  185.3810  178.2640  144.7880 N   0  0  0  0  0  1  0  0  0  0  0  0
  188.4730  176.7690  143.4900 C   0  0  0  0  0  3  0  0  0  0  0  0
  188.4370  177.1330  142.1430 C   0  0  0  0  0  3  0  0  0  0  0  0
  187.3710  177.8960  141.6580 C   0  0  0  0  0  0  0  0  0  0  0  0
  186.4170  177.8900  143.8860 C   0  0  0  0  0  0  0  0  0  0  0  0
  1  7  1  0  0  0  0
  2  9  1  0  0  0  0
  2 10  1  0  0  0  0
  3  4  1  0  0  0  0
  3 11  1  0  0  0  0
  3 12  1  0  0  0  0
  6  5  1  0  0  0  0
  6 12  1  0  0  0  0
  7  6  1  0  0  0  0
  8  4  1  0  0  0  0
  9  1  1  0  0  0  0
 10  7  1  0  0  0  0
 10  8  1  0  0  0  0
 11 12  1  0  0  0  0
 11 16  1  0  0  0  0
 13  9  1  0  0  0  0
 15 14  1  0  0  0  0
 15 21  1  0  0  0  0
 16 18  1  0  0  0  0
 17 15  1  0  0  0  0
 18 14  1  0  0  0  0
 19 17  2  0  0  0  0
 20 19  1  0  0  0  0
 20 16  1  0  0  0  0
 21 23  1  0  0  0  0
 21 22  1  0  0  0  0
 23 22  1  0  0  0  0
 24 17  1  0  0  0  0
 24 25  1  0  0  0  0
 26 24  1  0  0  0  0
 27 26  2  0  0  0  0
 28 26  1  0  0  0  0
 30  4  1  0  0  0  0
 30 34  1  0  0  0  0
 31 34  1  0  0  0  0
 32 29  2  0  0  0  0
 32 35  1  0  0  0  0
 33 30  2  0  0  0  0
 34 32  1  0  0  0  0
 35 41  1  0  0  0  0
 37 42  2  0  0  0  0
 39 36  2  0  0  0  0
 40 39  1  0  0  0  0
 41 40  2  0  0  0  0
 41 37  1  0  0  0  0
 42 36  1  0  0  0  0
 42 38  1  0  0  0  0
M  END
>  <MODEL>
1

>  <REMARK>
 VINA RESULT:      -6.2      0.000      0.000
  Name = 
  7 active torsions:
  status: ('A' for Active; 'I' for Inactive)
    1  A    between atoms: C_2  and  C_21
    2  A    between atoms: C_10  and  C_23
    3  A    between atoms: C_14  and  C_29
    4  A    between atoms: C_17  and  C_28
    5  A    between atoms: C_19  and  C_21
    6  A    between atoms: O_31  and  C_33
    7  A    between atoms: O_31  and  C_36
                            x       y       z     vdW  Elec       q    Type
                         _______ _______ _______ _____ _____    ______ ____

>  <TORSDO>
F 7

$$$$
=
 OpenBabel11062413363D

 42 47  0  0  1  0  0  0  0  0999 V2000
  183.5630  172.6210  137.2870 N   0  0  0  0  0  2  0  0  0  0  0  0
  185.6060  172.5850  136.1760 C   0  0  0  0  0  2  0  0  0  0  0  0
  184.6620  176.7470  136.6900 C   0  0  2  0  0  3  0  0  0  0  0  0
  186.1490  176.6690  137.0070 C   0  0  1  0  0  3  0  0  0  0  0  0
  182.1700  174.8220  138.6370 C   0  0  0  0  0  1  0  0  0  0  0  0
  183.2530  175.0540  137.5970 C   0  0  2  0  0  3  0  0  0  0  0  0
  184.2410  173.8730  137.5770 C   0  0  2  0  0  3  0  0  0  0  0  0
  186.7930  174.9320  137.0240 S   0  0  0  0  0  0  0  0  0  0  0  0
  184.5190  171.7620  136.7060 N   0  0  0  0  0  0  0  0  0  0  0  0
  185.2820  174.0180  136.4890 C   0  0  1  0  0  3  0  0  0  0  0  0
  183.6710  177.6310  137.4410 C   0  0  1  0  0  3  0  0  0  0  0  0
  184.0500  176.2760  137.9940 C   0  0  2  0  0  3  0  0  0  0  0  0
  183.8770  171.1250  135.5690 C   0  0  0  0  0  1  0  0  0  0  0  0
  184.8520  179.2750  140.6590 C   0  0  0  0  0  2  0  0  0  0  0  0
  183.5010  179.3210  141.3870 C   0  0  1  0  0  3  0  0  0  0  0  0
  184.3680  178.7370  138.2270 C   0  0  2  0  0  3  0  0  0  0  0  0
  182.2550  179.4800  140.5120 C   0  0  0  0  0  0  0  0  0  0  0  0
  184.8600  178.2010  139.5740 C   0  0  0  0  0  2  0  0  0  0  0  0
  182.2670  179.7730  139.1930 C   0  0  0  0  0  3  0  0  0  0  0  0
  183.4840  179.9860  138.3420 C   0  0  0  0  0  2  0  0  0  0  0  0
  183.3790  178.1190  142.3260 C   0  0  0  0  0  3  0  0  0  0  0  0
  184.3990  178.2240  143.4450 C   0  0  0  0  0  2  0  0  0  0  0  0
  182.9540  178.5830  143.7070 C   0  0  0  0  0  2  0  0  0  0  0  0
  180.9120  179.3960  141.1920 C   0  0  1  0  0  3  0  0  0  0  0  0
  180.2650  180.6330  141.1680 O   0  0  0  0  0  1  0  0  0  0  0  0
  180.0460  178.3390  140.5860 C   0  0  0  0  0  0  0  0  0  0  0  0
  180.3950  176.9980  140.6900 O   0  0  0  0  0  1  0  0  0  0  0  0
  178.9870  178.6650  139.9900 O   0  0  0  0  0  0  0  0  0  0  0  0
  190.3750  177.2950  137.5740 O   0  0  0  0  0  0  0  0  0  0  0  0
  187.0140  177.5940  136.1970 C   0  0  0  0  0  0  0  0  0  0  0  0
  189.2230  177.7560  135.0730 C   0  0  0  0  0  1  0  0  0  0  0  0
  189.1440  177.5740  137.5540 C   0  0  0  0  0  0  0  0  0  0  0  0
  186.4510  178.3250  135.3380 O   0  0  0  0  0  0  0  0  0  0  0  0
  188.4500  177.6060  136.2980 N   0  0  0  0  0  0  0  0  0  0  0  0
  188.4560  177.8560  138.7450 O   0  0  0  0  0  0  0  0  0  0  0  0
  189.8900  176.9460  142.5610 N   0  0  0  0  0  0  0  0  0  0  0  0
  188.1810  177.8980  141.1920 C   0  0  0  0  0  3  0  0  0  0  0  0
  187.9390  177.8850  143.6230 N   0  0  0  0  0  1  0  0  0  0  0  0
  190.6280  176.6260  141.4620 C   0  0  0  0  0  3  0  0  0  0  0  0
  190.1530  176.9360  140.1860 C   0  0  0  0  0  3  0  0  0  0  0  0
  188.9220  177.5810  140.0400 C   0  0  0  0  0  0  0  0  0  0  0  0
  188.6870  177.5720  142.4530 C   0  0  0  0  0  0  0  0  0  0  0  0
  1  7  1  0  0  0  0
  2 10  1  0  0  0  0
  2  9  1  0  0  0  0
  3  4  1  0  0  0  0
  3 11  1  0  0  0  0
  3 12  1  0  0  0  0
  4  8  1  0  0  0  0
  6 12  1  0  0  0  0
  6  5  1  0  0  0  0
  7  6  1  0  0  0  0
  9  1  1  0  0  0  0
 10  8  1  0  0  0  0
 10  7  1  0  0  0  0
 11 12  1  0  0  0  0
 11 16  1  0  0  0  0
 13  9  1  0  0  0  0
 14 15  1  0  0  0  0
 15 21  1  0  0  0  0
 16 20  1  0  0  0  0
 16 18  1  0  0  0  0
 17 24  1  0  0  0  0
 17 15  1  0  0  0  0
 18 14  1  0  0  0  0
 19 17  2  0  0  0  0
 20 19  1  0  0  0  0
 21 22  1  0  0  0  0
 21 23  1  0  0  0  0
 22 23  1  0  0  0  0
 25 24  1  0  0  0  0
 26 27  1  0  0  0  0
 26 24  1  0  0  0  0
 28 26  2  0  0  0  0
 30 34  1  0  0  0  0
 30  4  1  0  0  0  0
 31 34  1  0  0  0  0
 32 29  2  0  0  0  0
 32 35  1  0  0  0  0
 33 30  2  0  0  0  0
 34 32  1  0  0  0  0
 35 41  1  0  0  0  0
 37 42  2  0  0  0  0
 39 36  2  0  0  0  0
 40 39  1  0  0  0  0
 41 40  2  0  0  0  0
 41 37  1  0  0  0  0
 42 36  1  0  0  0  0
 42 38  1  0  0  0  0
M  END
>  <MODEL>
2

>  <REMARK>
 VINA RESULT:      -5.8      1.511      2.100
  Name = 
  7 active torsions:
  status: ('A' for Active; 'I' for Inactive)
    1  A    between atoms: C_2  and  C_21
    2  A    between atoms: C_10  and  C_23
    3  A    between atoms: C_14  and  C_29
    4  A    between atoms: C_17  and  C_28
    5  A    between atoms: C_19  and  C_21
    6  A    between atoms: O_31  and  C_33
    7  A    between atoms: O_31  and  C_36
                            x       y       z     vdW  Elec       q    Type
                         _______ _______ _______ _____ _____    ______ ____

>  <TORSDO>
F 7

$$$$
=
 OpenBabel11062413363D

 42 47  0  0  1  0  0  0  0  0999 V2000
  187.4710  177.4280  144.0610 N   0  0  0  0  0  2  0  0  0  0  0  0
  185.2930  178.2400  144.1530 C   0  0  0  0  0  2  0  0  0  0  0  0
  186.5830  178.9000  140.1070 C   0  0  2  0  0  3  0  0  0  0  0  0
  185.1550  178.3960  139.9550 C   0  0  1  0  0  3  0  0  0  0  0  0
  189.1890  176.8480  141.7540 C   0  0  0  0  0  1  0  0  0  0  0  0
  187.9880  177.7750  141.6680 C   0  0  2  0  0  3  0  0  0  0  0  0
  186.9280  177.3810  142.7140 C   0  0  2  0  0  3  0  0  0  0  0  0
  184.4020  177.8690  141.5640 S   0  0  0  0  0  0  0  0  0  0  0  0
  186.3850  177.6570  144.9320 N   0  0  0  0  0  0  0  0  0  0  0  0
  185.7560  178.3360  142.7280 C   0  0  1  0  0  3  0  0  0  0  0  0
  187.7290  178.5180  139.1740 C   0  0  1  0  0  3  0  0  0  0  0  0
  187.3410  177.6030  140.3130 C   0  0  2  0  0  3  0  0  0  0  0  0
  186.8150  178.6680  145.8830 C   0  0  0  0  0  1  0  0  0  0  0  0
  187.2990  175.7370  136.6190 C   0  0  0  0  0  2  0  0  0  0  0  0
  188.7780  175.3560  136.4610 C   0  0  1  0  0  3  0  0  0  0  0  0
  187.2280  177.9560  137.8480 C   0  0  2  0  0  3  0  0  0  0  0  0
  189.8000  176.4840  136.6390 C   0  0  0  0  0  0  0  0  0  0  0  0
  187.0470  176.4390  137.9500 C   0  0  0  0  0  2  0  0  0  0  0  0
  189.4950  177.7970  136.7270 C   0  0  0  0  0  3  0  0  0  0  0  0
  188.1210  178.3960  136.6790 C   0  0  0  0  0  2  0  0  0  0  0  0
  189.1020  174.1590  137.3580 C   0  0  0  0  0  3  0  0  0  0  0  0
  188.4600  172.9010  136.8020 C   0  0  0  0  0  2  0  0  0  0  0  0
  189.9360  173.1490  136.5900 C   0  0  0  0  0  2  0  0  0  0  0  0
  191.2590  176.1090  136.6190 C   0  0  1  0  0  3  0  0  0  0  0  0
  191.9030  176.6760  135.5170 O   0  0  0  0  0  1  0  0  0  0  0  0
  191.9510  176.4960  137.8860 C   0  0  0  0  0  0  0  0  0  0  0  0
  193.2540  176.9770  137.8580 O   0  0  0  0  0  0  0  0  0  0  0  0
  191.3440  176.3970  138.9850 O   0  0  0  0  0  1  0  0  0  0  0  0
  181.4620  177.2270  138.0670 O   0  0  0  0  0  0  0  0  0  0  0  0
  184.2500  179.3010  139.1680 C   0  0  0  0  0  0  0  0  0  0  0  0
  181.8620  179.8880  138.8140 C   0  0  0  0  0  1  0  0  0  0  0  0
  182.6570  177.6240  138.1520 C   0  0  0  0  0  0  0  0  0  0  0  0
  184.6380  180.4810  138.9530 O   0  0  0  0  0  0  0  0  0  0  0  0
  182.9340  178.9050  138.7380 N   0  0  0  0  0  0  0  0  0  0  0  0
  183.7100  176.8270  137.6750 O   0  0  0  0  0  0  0  0  0  0  0  0
  183.2040  173.4120  135.3240 N   0  0  0  0  0  0  0  0  0  0  0  0
  183.7050  174.3750  137.4510 C   0  0  0  0  0  3  0  0  0  0  0  0
  183.6530  171.9460  137.1850 N   0  0  0  0  0  1  0  0  0  0  0  0
  183.0620  174.6480  134.7700 C   0  0  0  0  0  3  0  0  0  0  0  0
  183.2370  175.7900  135.5530 C   0  0  0  0  0  3  0  0  0  0  0  0
  183.5660  175.6620  136.9050 C   0  0  0  0  0  0  0  0  0  0  0  0
  183.5210  173.2540  136.6380 C   0  0  0  0  0  0  0  0  0  0  0  0
  1  9  1  0  0  0  0
  2  9  1  0  0  0  0
  3 12  1  0  0  0  0
  4  3  1  0  0  0  0
  4  8  1  0  0  0  0
  6  5  1  0  0  0  0
  6  7  1  0  0  0  0
  7 10  1  0  0  0  0
  7  1  1  0  0  0  0
  8 10  1  0  0  0  0
  9 13  1  0  0  0  0
 10  2  1  0  0  0  0
 11  3  1  0  0  0  0
 11 12  1  0  0  0  0
 12  6  1  0  0  0  0
 14 18  1  0  0  0  0
 15 14  1  0  0  0  0
 15 17  1  0  0  0  0
 15 21  1  0  0  0  0
 16 18  1  0  0  0  0
 16 11  1  0  0  0  0
 17 19  2  0  0  0  0
 20 19  1  0  0  0  0
 20 16  1  0  0  0  0
 22 21  1  0  0  0  0
 23 22  1  0  0  0  0
 23 21  1  0  0  0  0
 24 17  1  0  0  0  0
 24 26  1  0  0  0  0
 25 24  1  0  0  0  0
 26 28  1  0  0  0  0
 27 26  2  0  0  0  0
 29 32  2  0  0  0  0
 30  4  1  0  0  0  0
 32 34  1  0  0  0  0
 33 30  2  0  0  0  0
 34 31  1  0  0  0  0
 34 30  1  0  0  0  0
 35 32  1  0  0  0  0
 36 42  1  0  0  0  0
 39 36  2  0  0  0  0
 39 40  1  0  0  0  0
 40 41  2  0  0  0  0
 41 37  1  0  0  0  0
 41 35  1  0  0  0  0
 42 38  1  0  0  0  0
 42 37  2  0  0  0  0
M  END
>  <MODEL>
3

>  <REMARK>
 VINA RESULT:      -5.7      2.571      8.866
  Name = 
  7 active torsions:
  status: ('A' for Active; 'I' for Inactive)
    1  A    between atoms: C_2  and  C_21
    2  A    between atoms: C_10  and  C_23
    3  A    between atoms: C_14  and  C_29
    4  A    between atoms: C_17  and  C_28
    5  A    between atoms: C_19  and  C_21
    6  A    between atoms: O_31  and  C_33
    7  A    between atoms: O_31  and  C_36
                            x       y       z     vdW  Elec       q    Type
                         _______ _______ _______ _____ _____    ______ ____

>  <TORSDO>
F 7

$$$$
=
 OpenBabel11062413363D

 42 47  0  0  1  0  0  0  0  0999 V2000
  187.8560  178.6320  139.6920 N   0  0  0  0  0  2  0  0  0  0  0  0
  188.5680  177.5380  137.7670 C   0  0  0  0  0  2  0  0  0  0  0  0
  184.4100  176.5310  138.1760 C   0  0  2  0  0  3  0  0  0  0  0  0
  184.5730  176.8010  136.6870 C   0  0  1  0  0  3  0  0  0  0  0  0
  185.1470  179.1350  140.7020 C   0  0  0  0  0  1  0  0  0  0  0  0
  185.4540  178.0440  139.6910 C   0  0  2  0  0  3  0  0  0  0  0  0
  186.6890  178.4200  138.8510 C   0  0  2  0  0  3  0  0  0  0  0  0
  186.2610  177.4280  136.2490 S   0  0  0  0  0  0  0  0  0  0  0  0
  188.9880  178.3700  138.8940 N   0  0  0  0  0  0  0  0  0  0  0  0
  187.0880  177.3180  137.8960 C   0  0  1  0  0  3  0  0  0  0  0  0
  183.1870  176.9430  138.9910 C   0  0  1  0  0  3  0  0  0  0  0  0
  184.2940  177.9380  138.7270 C   0  0  2  0  0  3  0  0  0  0  0  0
  189.8940  177.5690  139.6990 C   0  0  0  0  0  1  0  0  0  0  0  0
  180.4300  179.2060  137.6790 C   0  0  0  0  0  2  0  0  0  0  0  0
  179.8000  179.5860  139.0260 C   0  0  1  0  0  3  0  0  0  0  0  0
  181.9810  177.2450  138.1070 C   0  0  2  0  0  3  0  0  0  0  0  0
  179.8680  178.5330  140.1370 C   0  0  0  0  0  0  0  0  0  0  0  0
  181.8750  178.7510  137.8510 C   0  0  0  0  0  2  0  0  0  0  0  0
  180.2570  177.2500  139.9640 C   0  0  0  0  0  3  0  0  0  0  0  0
  180.6990  176.6220  138.6760 C   0  0  0  0  0  2  0  0  0  0  0  0
  180.3560  180.9320  139.4950 C   0  0  0  0  0  3  0  0  0  0  0  0
  180.0810  182.0020  138.4530 C   0  0  0  0  0  2  0  0  0  0  0  0
  179.2200  181.9190  139.6930 C   0  0  0  0  0  2  0  0  0  0  0  0
  179.3760  178.9310  141.5040 C   0  0  1  0  0  3  0  0  0  0  0  0
  178.9400  177.8140  142.2200 O   0  0  0  0  0  1  0  0  0  0  0  0
  180.4170  179.6750  142.2760 C   0  0  0  0  0  0  0  0  0  0  0  0
  181.7030  179.1630  142.3990 O   0  0  0  0  0  0  0  0  0  0  0  0
  180.1310  180.7800  142.8080 O   0  0  0  0  0  1  0  0  0  0  0  0
  184.5740  172.6160  137.7150 O   0  0  0  0  0  0  0  0  0  0  0  0
  184.1280  175.6790  135.7910 C   0  0  0  0  0  0  0  0  0  0  0  0
  182.8160  173.5700  135.7670 C   0  0  0  0  0  1  0  0  0  0  0  0
  184.9090  173.6710  137.1090 C   0  0  0  0  0  0  0  0  0  0  0  0
  183.8150  175.9630  134.6030 O   0  0  0  0  0  0  0  0  0  0  0  0
  183.9570  174.3290  136.2600 N   0  0  0  0  0  0  0  0  0  0  0  0
  186.2020  174.1990  137.2560 O   0  0  0  0  0  0  0  0  0  0  0  0
  189.5920  172.6430  135.3760 N   0  0  0  0  0  0  0  0  0  0  0  0
  188.6520  174.0700  137.0450 C   0  0  0  0  0  3  0  0  0  0  0  0
  191.0780  173.8810  136.8170 N   0  0  0  0  0  1  0  0  0  0  0  0
  188.3500  172.2740  134.9560 C   0  0  0  0  0  3  0  0  0  0  0  0
  187.2160  172.7990  135.5790 C   0  0  0  0  0  3  0  0  0  0  0  0
  187.3590  173.7090  136.6300 C   0  0  0  0  0  0  0  0  0  0  0  0
  189.7650  173.5250  136.3980 C   0  0  0  0  0  0  0  0  0  0  0  0
  2 10  1  0  0  0  0
  2  9  1  0  0  0  0
  3 12  1  0  0  0  0
  3 11  1  0  0  0  0
  4  3  1  0  0  0  0
  6  5  1  0  0  0  0
  7  6  1  0  0  0  0
  7  1  1  0  0  0  0
  8  4  1  0  0  0  0
  8 10  1  0  0  0  0
  9  1  1  0  0  0  0
  9 13  1  0  0  0  0
 10  7  1  0  0  0  0
 12 11  1  0  0  0  0
 12  6  1  0  0  0  0
 14 18  1  0  0  0  0
 14 15  1  0  0  0  0
 15 21  1  0  0  0  0
 15 17  1  0  0  0  0
 16 20  1  0  0  0  0
 16 11  1  0  0  0  0
 17 24  1  0  0  0  0
 18 16  1  0  0  0  0
 19 17  2  0  0  0  0
 20 19  1  0  0  0  0
 21 23  1  0  0  0  0
 22 21  1  0  0  0  0
 22 23  1  0  0  0  0
 24 25  1  0  0  0  0
 24 26  1  0  0  0  0
 26 27  2  0  0  0  0
 26 28  1  0  0  0  0
 30 34  1  0  0  0  0
 30  4  1  0  0  0  0
 31 34  1  0  0  0  0
 32 35  1  0  0  0  0
 32 29  2  0  0  0  0
 33 30  2  0  0  0  0
 34 32  1  0  0  0  0
 36 42  1  0  0  0  0
 39 36  2  0  0  0  0
 39 40  1  0  0  0  0
 40 41  2  0  0  0  0
 41 37  1  0  0  0  0
 41 35  1  0  0  0  0
 42 38  1  0  0  0  0
 42 37  2  0  0  0  0
M  END
>  <MODEL>
4

>  <REMARK>
 VINA RESULT:      -5.4      2.767      5.833
  Name = 
  7 active torsions:
  status: ('A' for Active; 'I' for Inactive)
    1  A    between atoms: C_2  and  C_21
    2  A    between atoms: C_10  and  C_23
    3  A    between atoms: C_14  and  C_29
    4  A    between atoms: C_17  and  C_28
    5  A    between atoms: C_19  and  C_21
    6  A    between atoms: O_31  and  C_33
    7  A    between atoms: O_31  and  C_36
                            x       y       z     vdW  Elec       q    Type
                         _______ _______ _______ _____ _____    ______ ____

>  <TORSDO>
F 7

$$$$
=
 OpenBabel11062413363D

 42 47  0  0  1  0  0  0  0  0999 V2000
  188.6870  177.9260  142.5500 N   0  0  0  0  0  2  0  0  0  0  0  0
  190.1360  177.5140  140.7780 C   0  0  0  0  0  2  0  0  0  0  0  0
  186.2060  177.5810  139.0400 C   0  0  2  0  0  3  0  0  0  0  0  0
  187.0580  178.3510  138.0420 C   0  0  1  0  0  3  0  0  0  0  0  0
  185.8580  178.7060  142.5500 C   0  0  0  0  0  1  0  0  0  0  0  0
  186.5260  178.0510  141.3540 C   0  0  2  0  0  3  0  0  0  0  0  0
  188.0310  178.3760  141.3330 C   0  0  2  0  0  3  0  0  0  0  0  0
  188.7930  178.6210  138.6310 S   0  0  0  0  0  0  0  0  0  0  0  0
  190.0400  177.7000  142.2260 N   0  0  0  0  0  0  0  0  0  0  0  0
  188.7540  177.6670  140.2110 C   0  0  1  0  0  3  0  0  0  0  0  0
  184.7750  177.9580  139.4140 C   0  0  1  0  0  3  0  0  0  0  0  0
  185.9400  178.6410  140.0910 C   0  0  2  0  0  3  0  0  0  0  0  0
  190.4150  176.4380  142.8420 C   0  0  0  0  0  1  0  0  0  0  0  0
  182.2010  180.5240  138.3030 C   0  0  0  0  0  2  0  0  0  0  0  0
  180.9360  179.7450  138.6900 C   0  0  1  0  0  3  0  0  0  0  0  0
  184.1380  178.8890  138.3870 C   0  0  2  0  0  3  0  0  0  0  0  0
  181.0170  178.2180  138.6010 C   0  0  0  0  0  0  0  0  0  0  0  0
  183.4130  180.0390  139.0920 C   0  0  0  0  0  2  0  0  0  0  0  0
  182.0300  177.5290  138.0320 C   0  0  0  0  0  3  0  0  0  0  0  0
  183.2570  178.1140  137.3980 C   0  0  0  0  0  2  0  0  0  0  0  0
  180.4480  180.2010  140.0670 C   0  0  0  0  0  3  0  0  0  0  0  0
  179.6900  181.5110  139.9450 C   0  0  0  0  0  2  0  0  0  0  0  0
  178.9310  180.2130  140.1000 C   0  0  0  0  0  2  0  0  0  0  0  0
  179.8340  177.4280  139.1000 C   0  0  1  0  0  3  0  0  0  0  0  0
  179.3340  176.5950  138.0970 O   0  0  0  0  0  1  0  0  0  0  0  0
  180.1690  176.6360  140.3220 C   0  0  0  0  0  0  0  0  0  0  0  0
  179.7650  177.0740  141.5780 O   0  0  0  0  0  1  0  0  0  0  0  0
  180.8100  175.5590  140.2130 O   0  0  0  0  0  0  0  0  0  0  0  0
  187.2120  174.1980  136.9030 O   0  0  0  0  0  0  0  0  0  0  0  0
  187.0060  177.8260  136.6340 C   0  0  0  0  0  0  0  0  0  0  0  0
  185.9850  176.0570  135.2200 C   0  0  0  0  0  1  0  0  0  0  0  0
  187.5910  175.3970  137.0030 C   0  0  0  0  0  0  0  0  0  0  0  0
  187.0140  178.6650  135.6920 O   0  0  0  0  0  0  0  0  0  0  0  0
  186.8540  176.4280  136.3290 N   0  0  0  0  0  0  0  0  0  0  0  0
  188.7260  175.7270  137.7620 O   0  0  0  0  0  0  0  0  0  0  0  0
  192.6170  174.4580  136.9270 N   0  0  0  0  0  0  0  0  0  0  0  0
  191.1470  176.1750  137.6980 C   0  0  0  0  0  3  0  0  0  0  0  0
  193.5590  176.5580  137.6470 N   0  0  0  0  0  1  0  0  0  0  0  0
  191.5650  173.6240  136.7000 C   0  0  0  0  0  3  0  0  0  0  0  0
  190.2630  174.0490  136.9720 C   0  0  0  0  0  3  0  0  0  0  0  0
  190.0420  175.3350  137.4710 C   0  0  0  0  0  0  0  0  0  0  0  0
  192.4360  175.7150  137.4150 C   0  0  0  0  0  0  0  0  0  0  0  0
  2  9  1  0  0  0  0
  3 11  1  0  0  0  0
  3 12  1  0  0  0  0
  4  8  1  0  0  0  0
  4  3  1  0  0  0  0
  6  5  1  0  0  0  0
  7  6  1  0  0  0  0
  7  1  1  0  0  0  0
  8 10  1  0  0  0  0
  9  1  1  0  0  0  0
  9 13  1  0  0  0  0
 10  2  1  0  0  0  0
 10  7  1  0  0  0  0
 11 12  1  0  0  0  0
 12  6  1  0  0  0  0
 14 15  1  0  0  0  0
 14 18  1  0  0  0  0
 15 21  1  0  0  0  0
 16 18  1  0  0  0  0
 16 11  1  0  0  0  0
 17 15  1  0  0  0  0
 17 24  1  0  0  0  0
 19 17  2  0  0  0  0
 20 19  1  0  0  0  0
 20 16  1  0  0  0  0
 21 23  1  0  0  0  0
 22 21  1  0  0  0  0
 22 23  1  0  0  0  0
 24 26  1  0  0  0  0
 25 24  1  0  0  0  0
 26 27  1  0  0  0  0
 28 26  2  0  0  0  0
 29 32  2  0  0  0  0
 30  4  1  0  0  0  0
 31 34  1  0  0  0  0
 32 35  1  0  0  0  0
 33 30  2  0  0  0  0
 34 30  1  0  0  0  0
 34 32  1  0  0  0  0
 36 42  1  0  0  0  0
 39 36  2  0  0  0  0
 39 40  1  0  0  0  0
 40 41  2  0  0  0  0
 41 37  1  0  0  0  0
 41 35  1  0  0  0  0
 42 38  1  0  0  0  0
 42 37  2  0  0  0  0
M  END
>  <MODEL>
5

>  <REMARK>
 VINA RESULT:      -5.4      2.755      5.598
  Name = 
  7 active torsions:
  status: ('A' for Active; 'I' for Inactive)
    1  A    between atoms: C_2  and  C_21
    2  A    between atoms: C_10  and  C_23
    3  A    between atoms: C_14  and  C_29
    4  A    between atoms: C_17  and  C_28
    5  A    between atoms: C_19  and  C_21
    6  A    between atoms: O_31  and  C_33
    7  A    between atoms: O_31  and  C_36
                            x       y       z     vdW  Elec       q    Type
                         _______ _______ _______ _____ _____    ______ ____

>  <TORSDO>
F 7

$$$$
=
 OpenBabel11062413363D

 42 47  0  0  1  0  0  0  0  0999 V2000
  185.5750  178.7700  142.8130 N   0  0  0  0  0  2  0  0  0  0  0  0
  183.2520  178.7300  142.9140 C   0  0  0  0  0  2  0  0  0  0  0  0
  184.2070  178.7040  138.7240 C   0  0  2  0  0  3  0  0  0  0  0  0
  183.0730  177.6960  138.8440 C   0  0  1  0  0  3  0  0  0  0  0  0
  187.3890  178.2570  140.5640 C   0  0  0  0  0  1  0  0  0  0  0  0
  185.9290  178.6260  140.3700 C   0  0  2  0  0  3  0  0  0  0  0  0
  185.0920  178.1700  141.5790 C   0  0  2  0  0  3  0  0  0  0  0  0
  182.5700  177.3830  140.5990 S   0  0  0  0  0  0  0  0  0  0  0  0
  184.4810  178.8140  143.7020 N   0  0  0  0  0  0  0  0  0  0  0  0
  183.6470  178.6020  141.4710 C   0  0  1  0  0  3  0  0  0  0  0  0
  185.4150  178.5290  137.8070 C   0  0  1  0  0  3  0  0  0  0  0  0
  185.3960  177.8760  139.1700 C   0  0  2  0  0  3  0  0  0  0  0  0
  184.4980  180.1260  144.3250 C   0  0  0  0  0  1  0  0  0  0  0  0
  185.9670  175.1500  136.1550 C   0  0  0  0  0  2  0  0  0  0  0  0
  187.4960  175.2150  136.0320 C   0  0  1  0  0  3  0  0  0  0  0  0
  185.1640  177.4900  136.7180 C   0  0  2  0  0  3  0  0  0  0  0  0
  188.1100  176.6050  135.8350 C   0  0  0  0  0  0  0  0  0  0  0  0
  185.4590  176.0840  137.2490 C   0  0  0  0  0  2  0  0  0  0  0  0
  187.4100  177.7290  135.5690 C   0  0  0  0  0  3  0  0  0  0  0  0
  185.9200  177.8360  135.4290 C   0  0  0  0  0  2  0  0  0  0  0  0
  188.1400  174.4800  137.2100 C   0  0  0  0  0  3  0  0  0  0  0  0
  187.9300  172.9830  137.0680 C   0  0  0  0  0  2  0  0  0  0  0  0
  189.2670  173.5930  136.7090 C   0  0  0  0  0  2  0  0  0  0  0  0
  189.6130  176.7080  135.8440 C   0  0  1  0  0  3  0  0  0  0  0  0
  190.0640  177.4840  134.7740 O   0  0  0  0  0  1  0  0  0  0  0  0
  190.1260  177.2510  137.1380 C   0  0  0  0  0  0  0  0  0  0  0  0
  189.4470  178.2710  137.7930 O   0  0  0  0  0  1  0  0  0  0  0  0
  191.1740  176.7720  137.6450 O   0  0  0  0  0  0  0  0  0  0  0  0
  179.7390  175.0400  138.2140 O   0  0  0  0  0  0  0  0  0  0  0  0
  181.8960  177.9660  137.9500 C   0  0  0  0  0  0  0  0  0  0  0  0
  179.4210  177.7870  137.8310 C   0  0  0  0  0  1  0  0  0  0  0  0
  180.7760  175.7020  137.9320 C   0  0  0  0  0  0  0  0  0  0  0  0
  181.9180  179.0110  137.2450 O   0  0  0  0  0  0  0  0  0  0  0  0
  180.7190  177.1360  137.9390 N   0  0  0  0  0  0  0  0  0  0  0  0
  181.9750  175.0470  137.6090 O   0  0  0  0  0  0  0  0  0  0  0  0
  182.2600  171.9260  134.8480 N   0  0  0  0  0  0  0  0  0  0  0  0
  183.0360  172.9560  136.8580 C   0  0  0  0  0  3  0  0  0  0  0  0
  184.0330  170.8620  136.0880 N   0  0  0  0  0  1  0  0  0  0  0  0
  181.3500  172.9220  134.6590 C   0  0  0  0  0  3  0  0  0  0  0  0
  181.2590  173.9690  135.5780 C   0  0  0  0  0  3  0  0  0  0  0  0
  182.1080  173.9970  136.6870 C   0  0  0  0  0  0  0  0  0  0  0  0
  183.0990  171.9230  135.9190 C   0  0  0  0  0  0  0  0  0  0  0  0
  1  9  1  0  0  0  0
  2  9  1  0  0  0  0
  3  4  1  0  0  0  0
  3 12  1  0  0  0  0
  4  8  1  0  0  0  0
  6  5  1  0  0  0  0
  6  7  1  0  0  0  0
  7  1  1  0  0  0  0
  8 10  1  0  0  0  0
  9 13  1  0  0  0  0
 10  7  1  0  0  0  0
 10  2  1  0  0  0  0
 11  3  1  0  0  0  0
 11 12  1  0  0  0  0
 12  6  1  0  0  0  0
 14 18  1  0  0  0  0
 15 14  1  0  0  0  0
 15 21  1  0  0  0  0
 16 18  1  0  0  0  0
 16 11  1  0  0  0  0
 17 24  1  0  0  0  0
 17 15  1  0  0  0  0
 19 17  2  0  0  0  0
 20 19  1  0  0  0  0
 20 16  1  0  0  0  0
 22 21  1  0  0  0  0
 23 22  1  0  0  0  0
 23 21  1  0  0  0  0
 24 26  1  0  0  0  0
 25 24  1  0  0  0  0
 26 28  2  0  0  0  0
 26 27  1  0  0  0  0
 30  4  1  0  0  0  0
 31 34  1  0  0  0  0
 32 34  1  0  0  0  0
 32 29  2  0  0  0  0
 33 30  2  0  0  0  0
 34 30  1  0  0  0  0
 35 32  1  0  0  0  0
 36 42  1  0  0  0  0
 39 36  2  0  0  0  0
 39 40  1  0  0  0  0
 40 41  2  0  0  0  0
 41 37  1  0  0  0  0
 41 35  1  0  0  0  0
 42 38  1  0  0  0  0
 42 37  2  0  0  0  0
M  END
>  <MODEL>
6

>  <REMARK>
 VINA RESULT:      -4.9      2.555      8.747
  Name = 
  7 active torsions:
  status: ('A' for Active; 'I' for Inactive)
    1  A    between atoms: C_2  and  C_21
    2  A    between atoms: C_10  and  C_23
    3  A    between atoms: C_14  and  C_29
    4  A    between atoms: C_17  and  C_28
    5  A    between atoms: C_19  and  C_21
    6  A    between atoms: O_31  and  C_33
    7  A    between atoms: O_31  and  C_36
                            x       y       z     vdW  Elec       q    Type
                         _______ _______ _______ _____ _____    ______ ____

>  <TORSDO>
F 7

$$$$
=
 OpenBabel11062413363D

 42 47  0  0  1  0  0  0  0  0999 V2000
  185.2110  170.7820  135.5530 N   0  0  0  0  0  2  0  0  0  0  0  0
  183.2900  171.9740  135.0080 C   0  0  0  0  0  2  0  0  0  0  0  0
  185.8560  174.7960  136.9880 C   0  0  2  0  0  3  0  0  0  0  0  0
  185.2780  175.5860  135.8230 C   0  0  1  0  0  3  0  0  0  0  0  0
  187.8460  171.7230  136.4380 C   0  0  0  0  0  1  0  0  0  0  0  0
  186.5920  172.5730  136.5540 C   0  0  2  0  0  3  0  0  0  0  0  0
  185.5770  172.1860  135.4620 C   0  0  2  0  0  3  0  0  0  0  0  0
  184.2480  174.5470  134.6880 S   0  0  0  0  0  0  0  0  0  0  0  0
  183.9250  170.6570  134.9880 N   0  0  0  0  0  0  0  0  0  0  0  0
  184.2750  172.9420  135.5990 C   0  0  1  0  0  3  0  0  0  0  0  0
  187.2990  174.9170  137.4720 C   0  0  1  0  0  3  0  0  0  0  0  0
  186.9630  174.0170  136.3060 C   0  0  2  0  0  3  0  0  0  0  0  0
  183.1570  169.8010  135.8760 C   0  0  0  0  0  1  0  0  0  0  0  0
  190.3270  177.0900  136.7290 C   0  0  0  0  0  2  0  0  0  0  0  0
  190.9800  177.0360  138.1170 C   0  0  1  0  0  3  0  0  0  0  0  0
  187.9660  176.1970  136.9800 C   0  0  2  0  0  3  0  0  0  0  0  0
  190.0340  176.9100  139.3160 C   0  0  0  0  0  0  0  0  0  0  0  0
  189.3930  175.9040  136.5090 C   0  0  0  0  0  2  0  0  0  0  0  0
  188.6900  177.0390  139.2570 C   0  0  0  0  0  3  0  0  0  0  0  0
  187.8760  177.3150  138.0280 C   0  0  0  0  0  2  0  0  0  0  0  0
  192.0590  175.9510  138.1390 C   0  0  0  0  0  3  0  0  0  0  0  0
  192.9880  176.1150  136.9490 C   0  0  0  0  0  2  0  0  0  0  0  0
  193.4260  176.5870  138.3170 C   0  0  0  0  0  2  0  0  0  0  0  0
  190.6550  176.7240  140.6760 C   0  0  1  0  0  3  0  0  0  0  0  0
  191.7780  177.5400  140.8260 O   0  0  0  0  0  1  0  0  0  0  0  0
  189.6750  176.9740  141.7750 C   0  0  0  0  0  0  0  0  0  0  0  0
  189.3250  175.9550  142.6530 O   0  0  0  0  0  1  0  0  0  0  0  0
  189.1710  178.1190  141.9160 O   0  0  0  0  0  0  0  0  0  0  0  0
  183.0640  176.2480  139.4600 O   0  0  0  0  0  0  0  0  0  0  0  0
  184.5920  176.8660  136.2100 C   0  0  0  0  0  0  0  0  0  0  0  0
  184.2160  178.4100  138.1190 C   0  0  0  0  0  1  0  0  0  0  0  0
  183.2640  176.1120  138.2220 C   0  0  0  0  0  0  0  0  0  0  0  0
  184.5730  177.8030  135.3660 O   0  0  0  0  0  0  0  0  0  0  0  0
  184.0460  177.0920  137.5220 N   0  0  0  0  0  0  0  0  0  0  0  0
  182.7250  175.0180  137.5270 O   0  0  0  0  0  0  0  0  0  0  0  0
  178.9310  173.4260  138.2520 N   0  0  0  0  0  0  0  0  0  0  0  0
  181.0940  173.1910  137.2670 C   0  0  0  0  0  3  0  0  0  0  0  0
  179.4530  171.3920  137.0660 N   0  0  0  0  0  1  0  0  0  0  0  0
  179.2520  174.6640  138.7210 C   0  0  0  0  0  3  0  0  0  0  0  0
  180.5170  175.2000  138.4730 C   0  0  0  0  0  3  0  0  0  0  0  0
  181.4510  174.4660  137.7370 C   0  0  0  0  0  0  0  0  0  0  0  0
  179.8190  172.6850  137.5340 C   0  0  0  0  0  0  0  0  0  0  0  0
  2 10  1  0  0  0  0
  3 11  1  0  0  0  0
  4 30  1  0  0  0  0
  4  3  1  0  0  0  0
  5  6  1  0  0  0  0
  7  1  1  0  0  0  0
  7 10  1  0  0  0  0
  7  6  1  0  0  0  0
  8 10  1  0  0  0  0
  8  4  1  0  0  0  0
  9  2  1  0  0  0  0
  9  1  1  0  0  0  0
  9 13  1  0  0  0  0
 12  6  1  0  0  0  0
 12  3  1  0  0  0  0
 12 11  1  0  0  0  0
 14 15  1  0  0  0  0
 15 21  1  0  0  0  0
 15 17  1  0  0  0  0
 16 11  1  0  0  0  0
 16 20  1  0  0  0  0
 17 24  1  0  0  0  0
 18 14  1  0  0  0  0
 18 16  1  0  0  0  0
 19 17  2  0  0  0  0
 20 19  1  0  0  0  0
 21 23  1  0  0  0  0
 22 21  1  0  0  0  0
 22 23  1  0  0  0  0
 24 25  1  0  0  0  0
 24 26  1  0  0  0  0
 26 28  2  0  0  0  0
 26 27  1  0  0  0  0
 30 34  1  0  0  0  0
 32 29  2  0  0  0  0
 33 30  2  0  0  0  0
 34 31  1  0  0  0  0
 34 32  1  0  0  0  0
 35 41  1  0  0  0  0
 35 32  1  0  0  0  0
 36 39  1  0  0  0  0
 37 42  1  0  0  0  0
 37 41  2  0  0  0  0
 38 42  1  0  0  0  0
 40 39  2  0  0  0  0
 41 40  1  0  0  0  0
 42 36  2  0  0  0  0
M  END
>  <MODEL>
7

>  <REMARK>
 VINA RESULT:      -4.8      3.574      8.129
  Name = 
  7 active torsions:
  status: ('A' for Active; 'I' for Inactive)
    1  A    between atoms: C_2  and  C_21
    2  A    between atoms: C_10  and  C_23
    3  A    between atoms: C_14  and  C_29
    4  A    between atoms: C_17  and  C_28
    5  A    between atoms: C_19  and  C_21
    6  A    between atoms: O_31  and  C_33
    7  A    between atoms: O_31  and  C_36
                            x       y       z     vdW  Elec       q    Type
                         _______ _______ _______ _____ _____    ______ ____

>  <TORSDO>
F 7

$$$$
=
 OpenBabel11062413363D

 42 47  0  0  1  0  0  0  0  0999 V2000
  184.3610  172.2230  136.3170 N   0  0  0  0  0  2  0  0  0  0  0  0
  183.1190  174.1230  135.8110 C   0  0  0  0  0  2  0  0  0  0  0  0
  187.0830  175.5490  136.6640 C   0  0  2  0  0  3  0  0  0  0  0  0
  186.6580  176.3620  135.4500 C   0  0  1  0  0  3  0  0  0  0  0  0
  187.2630  171.8530  136.5450 C   0  0  0  0  0  1  0  0  0  0  0  0
  186.6010  173.2160  136.6510 C   0  0  2  0  0  3  0  0  0  0  0  0
  185.2870  173.2400  135.8470 C   0  0  2  0  0  3  0  0  0  0  0  0
  185.0250  175.8260  134.7590 S   0  0  0  0  0  0  0  0  0  0  0  0
  183.0630  172.6740  136.0000 N   0  0  0  0  0  0  0  0  0  0  0  0
  184.5460  174.5490  136.0030 C   0  0  1  0  0  3  0  0  0  0  0  0
  188.4930  175.0060  136.8810 C   0  0  1  0  0  3  0  0  0  0  0  0
  187.5110  174.2450  136.0200 C   0  0  2  0  0  3  0  0  0  0  0  0
  182.2360  172.4300  137.1690 C   0  0  0  0  0  1  0  0  0  0  0  0
  192.0170  175.5620  135.5690 C   0  0  0  0  0  2  0  0  0  0  0  0
  192.7250  175.7460  136.9190 C   0  0  1  0  0  3  0  0  0  0  0  0
  189.5230  175.7170  136.0080 C   0  0  2  0  0  3  0  0  0  0  0  0
  191.9010  176.3780  138.0450 C   0  0  0  0  0  0  0  0  0  0  0  0
  190.7100  174.7910  135.7290 C   0  0  0  0  0  2  0  0  0  0  0  0
  190.6890  176.9540  137.8880 C   0  0  0  0  0  3  0  0  0  0  0  0
  189.9220  177.0740  136.6040 C   0  0  0  0  0  2  0  0  0  0  0  0
  193.3520  174.4210  137.3580 C   0  0  0  0  0  3  0  0  0  0  0  0
  194.4030  173.9820  136.3540 C   0  0  0  0  0  2  0  0  0  0  0  0
  194.8270  174.6220  137.6570 C   0  0  0  0  0  2  0  0  0  0  0  0
  192.5310  176.4480  139.4120 C   0  0  1  0  0  3  0  0  0  0  0  0
  193.5620  177.3900  139.4370 O   0  0  0  0  0  1  0  0  0  0  0  0
  191.5230  176.7460  140.4750 C   0  0  0  0  0  0  0  0  0  0  0  0
  191.6840  177.8450  141.3100 O   0  0  0  0  0  1  0  0  0  0  0  0
  190.5140  176.0050  140.6060 O   0  0  0  0  0  0  0  0  0  0  0  0
  186.2390  178.4690  139.1860 O   0  0  0  0  0  0  0  0  0  0  0  0
  186.7440  177.8520  135.6300 C   0  0  0  0  0  0  0  0  0  0  0  0
  187.6960  179.6150  137.0970 C   0  0  0  0  0  1  0  0  0  0  0  0
  185.9510  178.0960  138.0150 C   0  0  0  0  0  0  0  0  0  0  0  0
  186.8520  178.5640  134.5950 O   0  0  0  0  0  0  0  0  0  0  0  0
  186.8010  178.4780  136.9240 N   0  0  0  0  0  0  0  0  0  0  0  0
  184.8060  177.3190  137.7750 O   0  0  0  0  0  0  0  0  0  0  0  0
  181.0250  177.8220  139.4760 N   0  0  0  0  0  0  0  0  0  0  0  0
  182.9100  178.7760  138.3620 C   0  0  0  0  0  3  0  0  0  0  0  0
  180.9890  180.1720  138.9370 N   0  0  0  0  0  1  0  0  0  0  0  0
  181.6170  176.5960  139.4820 C   0  0  0  0  0  3  0  0  0  0  0  0
  182.8840  176.4280  138.9200 C   0  0  0  0  0  3  0  0  0  0  0  0
  183.5460  177.5220  138.3580 C   0  0  0  0  0  0  0  0  0  0  0  0
  181.6420  178.9070  138.9330 C   0  0  0  0  0  0  0  0  0  0  0  0
  2  9  1  0  0  0  0
  2 10  1  0  0  0  0
  3 11  1  0  0  0  0
  4 30  1  0  0  0  0
  4  3  1  0  0  0  0
  5  6  1  0  0  0  0
  7 10  1  0  0  0  0
  7  1  1  0  0  0  0
  7  6  1  0  0  0  0
  8  4  1  0  0  0  0
  8 10  1  0  0  0  0
  9  1  1  0  0  0  0
  9 13  1  0  0  0  0
 12  6  1  0  0  0  0
 12  3  1  0  0  0  0
 12 11  1  0  0  0  0
 14 18  1  0  0  0  0
 14 15  1  0  0  0  0
 15 21  1  0  0  0  0
 15 17  1  0  0  0  0
 16 20  1  0  0  0  0
 16 11  1  0  0  0  0
 17 24  1  0  0  0  0
 18 16  1  0  0  0  0
 19 17  2  0  0  0  0
 20 19  1  0  0  0  0
 21 23  1  0  0  0  0
 22 21  1  0  0  0  0
 22 23  1  0  0  0  0
 24 25  1  0  0  0  0
 24 26  1  0  0  0  0
 26 28  2  0  0  0  0
 26 27  1  0  0  0  0
 30 34  1  0  0  0  0
 32 29  2  0  0  0  0
 33 30  2  0  0  0  0
 34 31  1  0  0  0  0
 34 32  1  0  0  0  0
 35 32  1  0  0  0  0
 35 41  1  0  0  0  0
 36 39  1  0  0  0  0
 37 42  1  0  0  0  0
 40 39  2  0  0  0  0
 41 37  2  0  0  0  0
 41 40  1  0  0  0  0
 42 38  1  0  0  0  0
 42 36  2  0  0  0  0
M  END
>  <MODEL>
8

>  <REMARK>
 VINA RESULT:      -4.6      3.389      8.252
  Name = 
  7 active torsions:
  status: ('A' for Active; 'I' for Inactive)
    1  A    between atoms: C_2  and  C_21
    2  A    between atoms: C_10  and  C_23
    3  A    between atoms: C_14  and  C_29
    4  A    between atoms: C_17  and  C_28
    5  A    between atoms: C_19  and  C_21
    6  A    between atoms: O_31  and  C_33
    7  A    between atoms: O_31  and  C_36
                            x       y       z     vdW  Elec       q    Type
                         _______ _______ _______ _____ _____    ______ ____

>  <TORSDO>
F 7

$$$$
=
 OpenBabel11062413363D

 42 47  0  0  1  0  0  0  0  0999 V2000
  191.8820  177.4300  141.8200 N   0  0  0  0  0  2  0  0  0  0  0  0
  189.5760  177.6200  141.5860 C   0  0  0  0  0  2  0  0  0  0  0  0
  191.0640  176.8680  137.6240 C   0  0  2  0  0  3  0  0  0  0  0  0
  189.8190  175.9980  137.7150 C   0  0  1  0  0  3  0  0  0  0  0  0
  193.9070  176.4160  139.9530 C   0  0  0  0  0  1  0  0  0  0  0  0
  192.5350  176.8840  139.4980 C   0  0  2  0  0  3  0  0  0  0  0  0
  191.5010  176.6960  140.6240 C   0  0  2  0  0  3  0  0  0  0  0  0
  189.0580  176.0030  139.4040 S   0  0  0  0  0  0  0  0  0  0  0  0
  190.6930  177.7090  142.5250 N   0  0  0  0  0  0  0  0  0  0  0  0
  190.1410  177.2370  140.2470 C   0  0  1  0  0  3  0  0  0  0  0  0
  192.3540  176.4450  136.9270 C   0  0  1  0  0  3  0  0  0  0  0  0
  192.0840  176.0120  138.3490 C   0  0  2  0  0  3  0  0  0  0  0  0
  190.7750  179.0940  142.9570 C   0  0  0  0  0  1  0  0  0  0  0  0
  192.7600  172.8240  135.8430 C   0  0  0  0  0  2  0  0  0  0  0  0
  194.2910  172.7450  135.9180 C   0  0  1  0  0  3  0  0  0  0  0  0
  192.1340  175.2800  135.9670 C   0  0  2  0  0  3  0  0  0  0  0  0
  195.0610  174.0340  135.6160 C   0  0  0  0  0  0  0  0  0  0  0  0
  192.2200  173.9490  136.7200 C   0  0  0  0  0  2  0  0  0  0  0  0
  194.5140  175.1600  135.1070 C   0  0  0  0  0  3  0  0  0  0  0  0
  193.0710  175.3670  134.7550 C   0  0  0  0  0  2  0  0  0  0  0  0
  194.7120  172.1420  137.2610 C   0  0  0  0  0  3  0  0  0  0  0  0
  194.5940  170.6290  137.2140 C   0  0  0  0  0  2  0  0  0  0  0  0
  195.9500  171.2830  137.0750 C   0  0  0  0  0  2  0  0  0  0  0  0
  196.5550  174.0150  135.8110 C   0  0  1  0  0  3  0  0  0  0  0  0
  197.2180  174.1950  134.5960 O   0  0  0  0  0  1  0  0  0  0  0  0
  197.0000  175.0360  136.8070 C   0  0  0  0  0  0  0  0  0  0  0  0
  196.7040  174.8800  138.1560 O   0  0  0  0  0  1  0  0  0  0  0  0
  197.6570  176.0390  136.4240 O   0  0  0  0  0  0  0  0  0  0  0  0
  187.9020  179.7580  136.8440 O   0  0  0  0  0  0  0  0  0  0  0  0
  188.8060  176.2340  136.6300 C   0  0  0  0  0  0  0  0  0  0  0  0
  188.1630  177.8310  134.8390 C   0  0  0  0  0  1  0  0  0  0  0  0
  188.0040  178.5570  137.2150 C   0  0  0  0  0  0  0  0  0  0  0  0
  188.4040  175.2360  135.9730 O   0  0  0  0  0  0  0  0  0  0  0  0
  188.3580  177.5500  136.2550 N   0  0  0  0  0  0  0  0  0  0  0  0
  187.7700  178.2000  138.5530 O   0  0  0  0  0  0  0  0  0  0  0  0
  184.1390  178.8040  140.5280 N   0  0  0  0  0  0  0  0  0  0  0  0
  186.5250  178.7260  140.6110 C   0  0  0  0  0  3  0  0  0  0  0  0
  185.2440  179.2760  142.6190 N   0  0  0  0  0  1  0  0  0  0  0  0
  184.1500  178.4800  139.2050 C   0  0  0  0  0  3  0  0  0  0  0  0
  185.3620  178.2710  138.5450 C   0  0  0  0  0  3  0  0  0  0  0  0
  186.5650  178.3880  139.2480 C   0  0  0  0  0  0  0  0  0  0  0  0
  185.2930  178.9280  141.2390 C   0  0  0  0  0  0  0  0  0  0  0  0
  1  9  1  0  0  0  0
  2  9  1  0  0  0  0
  3  4  1  0  0  0  0
  3 12  1  0  0  0  0
  4  8  1  0  0  0  0
  6  5  1  0  0  0  0
  6  7  1  0  0  0  0
  7  1  1  0  0  0  0
  8 10  1  0  0  0  0
  9 13  1  0  0  0  0
 10  7  1  0  0  0  0
 10  2  1  0  0  0  0
 11  3  1  0  0  0  0
 11 12  1  0  0  0  0
 12  6  1  0  0  0  0
 14 15  1  0  0  0  0
 14 18  1  0  0  0  0
 15 21  1  0  0  0  0
 16 18  1  0  0  0  0
 16 11  1  0  0  0  0
 17 24  1  0  0  0  0
 17 15  1  0  0  0  0
 19 17  2  0  0  0  0
 20 19  1  0  0  0  0
 20 16  1  0  0  0  0
 22 21  1  0  0  0  0
 23 22  1  0  0  0  0
 23 21  1  0  0  0  0
 24 26  1  0  0  0  0
 25 24  1  0  0  0  0
 26 27  1  0  0  0  0
 28 26  2  0  0  0  0
 29 32  2  0  0  0  0
 30  4  1  0  0  0  0
 31 34  1  0  0  0  0
 32 35  1  0  0  0  0
 33 30  2  0  0  0  0
 34 30  1  0  0  0  0
 34 32  1  0  0  0  0
 35 41  1  0  0  0  0
 36 42  1  0  0  0  0
 37 42  2  0  0  0  0
 39 36  2  0  0  0  0
 40 39  1  0  0  0  0
 40 41  2  0  0  0  0
 41 37  1  0  0  0  0
 42 38  1  0  0  0  0
M  END
>  <MODEL>
9

>  <REMARK>
 VINA RESULT:      -4.1      5.310     10.941
  Name = 
  7 active torsions:
  status: ('A' for Active; 'I' for Inactive)
    1  A    between atoms: C_2  and  C_21
    2  A    between atoms: C_10  and  C_23
    3  A    between atoms: C_14  and  C_29
    4  A    between atoms: C_17  and  C_28
    5  A    between atoms: C_19  and  C_21
    6  A    between atoms: O_31  and  C_33
    7  A    between atoms: O_31  and  C_36
                            x       y       z     vdW  Elec       q    Type
                         _______ _______ _______ _____ _____    ______ ____

>  <TORSDO>
F 7

$$$$
