=
 OpenBabel11062415573D

 41 45  0  0  1  0  0  0  0  0999 V2000
  183.2890  178.5500  143.0440 F   0  0  0  0  0  0  0  0  0  0  0  0
  184.4840  179.0160  141.0760 C   0  0  0  0  0  0  0  0  0  0  0  0
  183.9980  177.6830  139.0450 C   0  0  2  0  0  3  0  0  0  0  0  0
  182.1770  178.1640  140.8700 C   0  0  0  0  0  2  0  0  0  0  0  0
  182.6020  177.3500  139.6270 C   0  0  2  0  0  3  0  0  0  0  0  0
  183.3610  178.6070  141.6870 C   0  0  0  0  0  0  0  0  0  0  0  0
  184.5520  179.0080  139.5740 C   0  0  0  0  0  2  0  0  0  0  0  0
  181.2920  175.6150  138.9170 C   0  0  0  0  0  1  0  0  0  0  0  0
  182.3630  175.9640  139.7550 O   0  0  0  0  0  0  0  0  0  0  0  0
  185.6850  179.4350  141.8670 C   0  0  0  0  0  2  0  0  0  0  0  0
  186.6930  178.3350  141.9130 C   0  0  0  0  0  0  0  0  0  0  0  0
  187.8060  178.3560  141.0190 N   0  0  0  0  0  2  0  0  0  0  0  0
  186.5480  177.3930  142.7360 O   0  0  0  0  0  0  0  0  0  0  0  0
  188.8210  177.3140  141.0170 C   0  0  0  0  0  2  0  0  0  0  0  0
  190.0050  177.7590  141.8550 C   0  0  0  0  0  2  0  0  0  0  0  0
  190.6830  175.7050  142.8740 O   0  0  0  0  0  1  0  0  0  0  0  0
  190.0910  176.9400  143.1390 C   0  0  1  0  0  3  0  0  0  0  0  0
  191.5540  178.9370  143.7800 C   0  0  0  0  0  1  0  0  0  0  0  0
  190.8540  177.6640  144.2540 C   0  0  1  0  0  3  0  0  0  0  0  0
  188.2990  177.8670  147.7420 C   0  0  0  0  0  2  0  0  0  0  0  0
  187.6410  178.1580  146.3850 C   0  0  1  0  0  3  0  0  0  0  0  0
  190.4030  176.9560  146.6800 C   0  0  0  0  0  2  0  0  0  0  0  0
  189.2580  176.6810  147.6630 C   0  0  0  0  0  2  0  0  0  0  0  0
  189.9970  177.8710  145.5090 C   0  0  2  0  0  3  0  0  0  0  0  0
  188.5100  177.7480  145.1840 C   0  0  0  0  0  2  0  0  0  0  0  0
  186.2850  177.4730  146.3130 C   0  0  0  0  0  2  0  0  0  0  0  0
  185.2740  179.4810  145.2280 O   0  0  0  0  0  0  0  0  0  0  0  0
  184.2030  178.4340  146.9670 O   0  0  0  0  0  1  0  0  0  0  0  0
  185.1890  178.4770  146.1860 C   0  0  0  0  0  0  0  0  0  0  0  0
  183.9840  177.6600  137.5220 C   0  0  0  0  0  2  0  0  0  0  0  0
  184.8160  176.5760  137.0160 N   0  0  0  0  0  2  0  0  0  0  0  0
  186.1330  176.8660  137.3900 N   0  0  0  0  0  2  0  0  0  0  0  0
  188.2640  177.4150  136.2230 C   0  0  2  0  0  3  0  0  0  0  0  0
  187.6510  178.6700  136.8090 C   0  0  0  0  0  2  0  0  0  0  0  0
  186.7400  177.5820  136.2760 C   0  0  2  0  0  3  0  0  0  0  0  0
  190.5890  175.4830  136.0740 O   0  0  0  0  0  0  0  0  0  0  0  0
  190.3310  176.3820  137.1240 C   0  0  1  0  0  0  0  0  0  0  0  0
  188.8490  176.5640  137.3480 C   0  0  2  0  0  3  0  0  0  0  0  0
  189.3930  175.2720  136.7820 C   0  0  1  0  0  3  0  0  0  0  0  0
  192.4640  176.5270  138.3820 C   0  0  0  0  0  1  0  0  0  0  0  0
  191.0520  175.9740  138.3950 C   0  0  0  0  0  2  0  0  0  0  0  0
  2  6  2  0  0  0  0
  2 10  1  0  0  0  0
  3 30  1  6  0  0  0
  3  7  1  0  0  0  0
  3  5  1  0  0  0  0
  4  6  1  0  0  0  0
  5  9  1  1  0  0  0
  5  4  1  0  0  0  0
  6  1  1  0  0  0  0
  7  2  1  0  0  0  0
  8  9  1  0  0  0  0
 10 11  1  0  0  0  0
 11 13  2  0  0  0  0
 12 11  1  0  0  0  0
 14 12  1  0  0  0  0
 14 15  1  0  0  0  0
 15 17  1  0  0  0  0
 17 16  1  6  0  0  0
 17 19  1  0  0  0  0
 19 18  1  6  0  0  0
 21 26  1  1  0  0  0
 21 20  1  0  0  0  0
 22 23  1  0  0  0  0
 23 20  1  0  0  0  0
 24 19  1  6  0  0  0
 24 22  1  0  0  0  0
 25 24  1  0  0  0  0
 25 21  1  0  0  0  0
 27 29  2  0  0  0  0
 29 26  1  0  0  0  0
 29 28  1  0  0  0  0
 31 32  1  0  0  0  0
 31 30  1  0  0  0  0
 33 35  1  0  0  0  0
 33 34  1  1  0  0  0
 35 34  1  0  0  0  0
 35 32  1  1  0  0  0
 36 37  1  0  0  0  0
 37 38  1  0  0  0  0
 37 41  1  1  0  0  0
 38 33  1  6  0  0  0
 39 36  1  6  0  0  0
 39 37  1  0  0  0  0
 39 38  1  0  0  0  0
 40 41  1  0  0  0  0
M  END
>  <MODEL>
1

>  <REMARK>
 VINA RESULT:      -7.7      0.000      0.000
  Name = 
  16 active torsions:
  status: ('A' for Active; 'I' for Inactive)
    1  A    between atoms: C_1  and  C_28
    2  A    between atoms: C_2  and  C_8
    3  A    between atoms: C_2  and  N_40
    4  A    between atoms: C_5  and  C_28
    5  A    between atoms: C_7  and  C_27
    6  A    between atoms: C_10  and  C_23
    7  A    between atoms: C_17  and  O_37
    8  A    between atoms: C_18  and  C_24
    9  A    between atoms: C_18  and  C_36
   10  A    between atoms: C_20  and  C_34
   11  A    between atoms: C_22  and  C_34
   12  A    between atoms: C_24  and  C_32
   13  A    between atoms: C_29  and  C_32
   14  A    between atoms: N_31  and  C_36
   15  A    between atoms: N_33  and  C_38
   16  A    between atoms: N_33  and  N_40
                            x       y       z     vdW  Elec       q    Type
                         _______ _______ _______ _____ _____    ______ ____

>  <TORSDO>
F 16

$$$$
=
 OpenBabel11062415573D

 41 45  0  0  1  0  0  0  0  0999 V2000
  188.8110  178.3250  148.7170 F   0  0  0  0  0  0  0  0  0  0  0  0
  187.5420  177.9290  146.7800 C   0  0  0  0  0  0  0  0  0  0  0  0
  188.7280  177.4450  144.6590 C   0  0  2  0  0  3  0  0  0  0  0  0
  189.7280  176.8050  146.9970 C   0  0  0  0  0  2  0  0  0  0  0  0
  189.9590  176.9860  145.4810 C   0  0  2  0  0  3  0  0  0  0  0  0
  188.6430  177.7090  147.5170 C   0  0  0  0  0  0  0  0  0  0  0  0
  187.4150  177.2800  145.4310 C   0  0  0  0  0  2  0  0  0  0  0  0
  190.7780  178.9450  144.6320 C   0  0  0  0  0  1  0  0  0  0  0  0
  191.1360  177.7010  145.1720 O   0  0  0  0  0  0  0  0  0  0  0  0
  186.4610  178.8470  147.2640 C   0  0  0  0  0  2  0  0  0  0  0  0
  185.3090  178.8450  146.3160 C   0  0  0  0  0  0  0  0  0  0  0  0
  185.4640  179.3950  145.0080 N   0  0  0  0  0  2  0  0  0  0  0  0
  184.2050  178.3620  146.6820 O   0  0  0  0  0  0  0  0  0  0  0  0
  184.3790  179.4200  144.0400 C   0  0  0  0  0  2  0  0  0  0  0  0
  184.7700  178.6100  142.8180 C   0  0  0  0  0  2  0  0  0  0  0  0
  185.0830  179.4750  140.6120 O   0  0  0  0  0  1  0  0  0  0  0  0
  184.1100  179.1760  141.5650 C   0  0  1  0  0  3  0  0  0  0  0  0
  181.6230  178.6880  141.2250 C   0  0  0  0  0  1  0  0  0  0  0  0
  183.0590  178.2320  140.9710 C   0  0  1  0  0  3  0  0  0  0  0  0
  183.4750  177.1310  136.8050 C   0  0  0  0  0  2  0  0  0  0  0  0
  183.7420  176.0300  137.8420 C   0  0  1  0  0  3  0  0  0  0  0  0
  182.4530  178.6840  138.5170 C   0  0  0  0  0  2  0  0  0  0  0  0
  182.2540  177.9710  137.1740 C   0  0  0  0  0  2  0  0  0  0  0  0
  183.3410  177.8970  139.5010 C   0  0  2  0  0  3  0  0  0  0  0  0
  183.2590  176.3910  139.2570 C   0  0  0  0  0  2  0  0  0  0  0  0
  183.1040  174.7270  137.3840 C   0  0  0  0  0  2  0  0  0  0  0  0
  184.7690  172.9370  137.8840 O   0  0  0  0  0  1  0  0  0  0  0  0
  184.4760  173.6870  135.7350 O   0  0  0  0  0  0  0  0  0  0  0  0
  184.1430  173.7510  136.9470 C   0  0  0  0  0  0  0  0  0  0  0  0
  188.6670  176.7410  143.3100 C   0  0  0  0  0  2  0  0  0  0  0  0
  188.3490  177.6880  142.2490 N   0  0  0  0  0  2  0  0  0  0  0  0
  188.7060  177.0780  141.0410 N   0  0  0  0  0  2  0  0  0  0  0  0
  189.3570  178.1040  138.8660 C   0  0  2  0  0  3  0  0  0  0  0  0
  190.4650  177.2020  139.3720 C   0  0  0  0  0  2  0  0  0  0  0  0
  189.6330  177.9810  140.3710 C   0  0  2  0  0  3  0  0  0  0  0  0
  187.1970  178.8790  136.8930 O   0  0  0  0  0  0  0  0  0  0  0  0
  187.8620  177.6410  136.9420 C   0  0  1  0  0  0  0  0  0  0  0  0
  188.1990  177.2470  138.3610 C   0  0  2  0  0  3  0  0  0  0  0  0
  187.0050  178.1260  138.0640 C   0  0  1  0  0  3  0  0  0  0  0  0
  187.5270  175.1950  136.7050 C   0  0  0  0  0  1  0  0  0  0  0  0
  187.0780  176.5600  136.2230 C   0  0  0  0  0  2  0  0  0  0  0  0
  2 10  1  0  0  0  0
  2  6  2  0  0  0  0
  3 30  1  6  0  0  0
  3  7  1  0  0  0  0
  3  5  1  0  0  0  0
  4  6  1  0  0  0  0
  5  9  1  1  0  0  0
  5  4  1  0  0  0  0
  6  1  1  0  0  0  0
  7  2  1  0  0  0  0
  8  9  1  0  0  0  0
 11 13  2  0  0  0  0
 11 10  1  0  0  0  0
 12 11  1  0  0  0  0
 14 12  1  0  0  0  0
 15 14  1  0  0  0  0
 17 16  1  6  0  0  0
 17 15  1  0  0  0  0
 19 18  1  6  0  0  0
 19 17  1  0  0  0  0
 20 23  1  0  0  0  0
 20 21  1  0  0  0  0
 21 26  1  6  0  0  0
 21 25  1  0  0  0  0
 22 24  1  0  0  0  0
 23 22  1  0  0  0  0
 24 19  1  1  0  0  0
 25 24  1  0  0  0  0
 28 29  2  0  0  0  0
 29 26  1  0  0  0  0
 29 27  1  0  0  0  0
 31 30  1  0  0  0  0
 32 31  1  0  0  0  0
 33 34  1  6  0  0  0
 33 35  1  0  0  0  0
 34 35  1  0  0  0  0
 35 32  1  1  0  0  0
 36 37  1  0  0  0  0
 37 41  1  6  0  0  0
 37 39  1  0  0  0  0
 37 38  1  0  0  0  0
 38 33  1  1  0  0  0
 39 36  1  1  0  0  0
 39 38  1  0  0  0  0
 41 40  1  0  0  0  0
M  END
>  <MODEL>
2

>  <REMARK>
 VINA RESULT:      -7.2      2.478      7.838
  Name = 
  16 active torsions:
  status: ('A' for Active; 'I' for Inactive)
    1  A    between atoms: C_1  and  C_28
    2  A    between atoms: C_2  and  C_8
    3  A    between atoms: C_2  and  N_40
    4  A    between atoms: C_5  and  C_28
    5  A    between atoms: C_7  and  C_27
    6  A    between atoms: C_10  and  C_23
    7  A    between atoms: C_17  and  O_37
    8  A    between atoms: C_18  and  C_24
    9  A    between atoms: C_18  and  C_36
   10  A    between atoms: C_20  and  C_34
   11  A    between atoms: C_22  and  C_34
   12  A    between atoms: C_24  and  C_32
   13  A    between atoms: C_29  and  C_32
   14  A    between atoms: N_31  and  C_36
   15  A    between atoms: N_33  and  C_38
   16  A    between atoms: N_33  and  N_40
                            x       y       z     vdW  Elec       q    Type
                         _______ _______ _______ _____ _____    ______ ____

>  <TORSDO>
F 16

$$$$
=
 OpenBabel11062415573D

 41 45  0  0  1  0  0  0  0  0999 V2000
  182.5680  178.9770  143.7000 F   0  0  0  0  0  0  0  0  0  0  0  0
  183.7920  178.2950  141.8140 C   0  0  0  0  0  0  0  0  0  0  0  0
  182.5830  177.2210  139.9360 C   0  0  2  0  0  3  0  0  0  0  0  0
  181.4470  178.9960  141.4970 C   0  0  0  0  0  2  0  0  0  0  0  0
  181.2780  177.9020  140.4190 C   0  0  2  0  0  3  0  0  0  0  0  0
  182.6550  178.7560  142.3610 C   0  0  0  0  0  0  0  0  0  0  0  0
  183.8360  178.0030  140.3410 C   0  0  0  0  0  2  0  0  0  0  0  0
  179.1780  177.6870  141.2970 C   0  0  0  0  0  1  0  0  0  0  0  0
  180.2400  176.9890  140.7010 O   0  0  0  0  0  0  0  0  0  0  0  0
  184.9990  178.0220  142.6580 C   0  0  0  0  0  2  0  0  0  0  0  0
  186.2190  178.6090  142.0320 C   0  0  0  0  0  0  0  0  0  0  0  0
  187.4500  177.8860  142.0620 N   0  0  0  0  0  2  0  0  0  0  0  0
  186.1540  179.7430  141.4880 O   0  0  0  0  0  0  0  0  0  0  0  0
  188.6720  178.4060  141.4680 C   0  0  0  0  0  2  0  0  0  0  0  0
  189.7160  177.3060  141.4130 C   0  0  0  0  0  2  0  0  0  0  0  0
  190.7140  178.8020  142.9880 O   0  0  0  0  0  1  0  0  0  0  0  0
  190.7450  177.4860  142.5250 C   0  0  1  0  0  3  0  0  0  0  0  0
  191.7510  175.6230  143.9570 C   0  0  0  0  0  1  0  0  0  0  0  0
  190.5370  176.5110  143.6880 C   0  0  1  0  0  3  0  0  0  0  0  0
  188.8730  178.1160  147.3480 C   0  0  0  0  0  2  0  0  0  0  0  0
  187.9250  178.0110  146.1450 C   0  0  1  0  0  3  0  0  0  0  0  0
  190.6470  176.6920  146.2470 C   0  0  0  0  0  2  0  0  0  0  0  0
  189.7560  176.8770  147.4820 C   0  0  0  0  0  2  0  0  0  0  0  0
  190.0030  177.2080  144.9460 C   0  0  2  0  0  3  0  0  0  0  0  0
  188.4780  177.1400  145.0030 C   0  0  0  0  0  2  0  0  0  0  0  0
  186.5710  177.4850  146.6000 C   0  0  0  0  0  2  0  0  0  0  0  0
  184.2420  178.3150  146.9350 O   0  0  0  0  0  1  0  0  0  0  0  0
  185.7450  179.5310  145.6970 O   0  0  0  0  0  0  0  0  0  0  0  0
  185.5070  178.5090  146.3920 C   0  0  0  0  0  0  0  0  0  0  0  0
  182.5540  176.9630  138.4360 C   0  0  0  0  0  2  0  0  0  0  0  0
  183.4820  175.8990  138.0770 N   0  0  0  0  0  2  0  0  0  0  0  0
  184.6140  176.5150  137.5300 N   0  0  0  0  0  2  0  0  0  0  0  0
  186.3530  175.5620  136.0220 C   0  0  2  0  0  3  0  0  0  0  0  0
  185.7150  176.7790  135.3830 C   0  0  0  0  0  2  0  0  0  0  0  0
  184.8670  175.8690  136.2490 C   0  0  2  0  0  3  0  0  0  0  0  0
  189.3640  175.8530  135.9620 O   0  0  0  0  0  0  0  0  0  0  0  0
  188.4640  176.7390  136.5790 C   0  0  1  0  0  0  0  0  0  0  0  0
  187.2730  176.0100  137.1550 C   0  0  2  0  0  3  0  0  0  0  0  0
  188.6140  175.3230  137.0260 C   0  0  1  0  0  3  0  0  0  0  0  0
  188.9780  179.0670  137.2610 C   0  0  0  0  0  1  0  0  0  0  0  0
  189.1560  177.6050  137.6150 C   0  0  0  0  0  2  0  0  0  0  0  0
  2  6  2  0  0  0  0
  2 10  1  0  0  0  0
  3 30  1  6  0  0  0
  3  7  1  0  0  0  0
  3  5  1  0  0  0  0
  4  6  1  0  0  0  0
  5  9  1  1  0  0  0
  5  4  1  0  0  0  0
  6  1  1  0  0  0  0
  7  2  1  0  0  0  0
  9  8  1  0  0  0  0
 11 12  1  0  0  0  0
 11 10  1  0  0  0  0
 13 11  2  0  0  0  0
 14 12  1  0  0  0  0
 15 14  1  0  0  0  0
 15 17  1  0  0  0  0
 17 16  1  1  0  0  0
 17 19  1  0  0  0  0
 19 18  1  1  0  0  0
 20 23  1  0  0  0  0
 21 26  1  1  0  0  0
 21 20  1  0  0  0  0
 22 23  1  0  0  0  0
 24 19  1  6  0  0  0
 24 25  1  0  0  0  0
 24 22  1  0  0  0  0
 25 21  1  0  0  0  0
 28 29  2  0  0  0  0
 29 26  1  0  0  0  0
 29 27  1  0  0  0  0
 31 30  1  0  0  0  0
 32 31  1  0  0  0  0
 33 34  1  6  0  0  0
 33 35  1  0  0  0  0
 34 35  1  0  0  0  0
 35 32  1  1  0  0  0
 36 37  1  0  0  0  0
 37 39  1  0  0  0  0
 37 38  1  0  0  0  0
 37 41  1  1  0  0  0
 38 33  1  6  0  0  0
 39 36  1  6  0  0  0
 39 38  1  0  0  0  0
 40 41  1  0  0  0  0
M  END
>  <MODEL>
3

>  <REMARK>
 VINA RESULT:      -7.2      1.449      1.930
  Name = 
  16 active torsions:
  status: ('A' for Active; 'I' for Inactive)
    1  A    between atoms: C_1  and  C_28
    2  A    between atoms: C_2  and  C_8
    3  A    between atoms: C_2  and  N_40
    4  A    between atoms: C_5  and  C_28
    5  A    between atoms: C_7  and  C_27
    6  A    between atoms: C_10  and  C_23
    7  A    between atoms: C_17  and  O_37
    8  A    between atoms: C_18  and  C_24
    9  A    between atoms: C_18  and  C_36
   10  A    between atoms: C_20  and  C_34
   11  A    between atoms: C_22  and  C_34
   12  A    between atoms: C_24  and  C_32
   13  A    between atoms: C_29  and  C_32
   14  A    between atoms: N_31  and  C_36
   15  A    between atoms: N_33  and  C_38
   16  A    between atoms: N_33  and  N_40
                            x       y       z     vdW  Elec       q    Type
                         _______ _______ _______ _____ _____    ______ ____

>  <TORSDO>
F 16

$$$$
=
 OpenBabel11062415573D

 41 45  0  0  1  0  0  0  0  0999 V2000
  188.3970  178.8420  140.2160 F   0  0  0  0  0  0  0  0  0  0  0  0
  189.7780  177.2480  139.1810 C   0  0  0  0  0  0  0  0  0  0  0  0
  189.5280  176.8570  136.7480 C   0  0  2  0  0  3  0  0  0  0  0  0
  189.0230  179.1830  137.8490 C   0  0  0  0  0  2  0  0  0  0  0  0
  188.9010  178.2670  136.6100 C   0  0  2  0  0  3  0  0  0  0  0  0
  189.0830  178.3960  139.1300 C   0  0  0  0  0  0  0  0  0  0  0  0
  190.4750  176.7510  137.9460 C   0  0  0  0  0  2  0  0  0  0  0  0
  186.7840  177.4330  136.8310 C   0  0  0  0  0  1  0  0  0  0  0  0
  187.6080  178.2540  136.0450 O   0  0  0  0  0  0  0  0  0  0  0  0
  189.8300  176.4330  140.4370 C   0  0  0  0  0  2  0  0  0  0  0  0
  190.8290  177.0000  141.3900 C   0  0  0  0  0  0  0  0  0  0  0  0
  190.7390  176.6890  142.7800 N   0  0  0  0  0  2  0  0  0  0  0  0
  191.7390  177.7560  140.9580 O   0  0  0  0  0  0  0  0  0  0  0  0
  191.6830  177.2110  143.7560 C   0  0  0  0  0  2  0  0  0  0  0  0
  191.2270  176.8360  145.1540 C   0  0  0  0  0  2  0  0  0  0  0  0
  189.9780  178.8260  144.7080 O   0  0  0  0  0  1  0  0  0  0  0  0
  190.1960  177.8370  145.6670 C   0  0  1  0  0  3  0  0  0  0  0  0
  188.8410  176.6800  147.5010 C   0  0  0  0  0  1  0  0  0  0  0  0
  188.8700  177.1750  146.0560 C   0  0  1  0  0  3  0  0  0  0  0  0
  185.2220  179.2640  145.0220 C   0  0  0  0  0  2  0  0  0  0  0  0
  185.9660  178.5630  143.8760 C   0  0  1  0  0  3  0  0  0  0  0  0
  186.5990  178.1140  146.8010 C   0  0  0  0  0  2  0  0  0  0  0  0
  185.1850  178.4030  146.2820 C   0  0  0  0  0  2  0  0  0  0  0  0
  187.6570  178.0360  145.6830 C   0  0  2  0  0  3  0  0  0  0  0  0
  187.0470  177.5800  144.3590 C   0  0  0  0  0  2  0  0  0  0  0  0
  184.9690  177.8480  142.9750 C   0  0  0  0  0  2  0  0  0  0  0  0
  185.3540  179.5920  141.2330 O   0  0  0  0  0  0  0  0  0  0  0  0
  183.2390  178.8010  141.6410 O   0  0  0  0  0  1  0  0  0  0  0  0
  184.4690  178.7610  141.9080 C   0  0  0  0  0  0  0  0  0  0  0  0
  190.2170  176.4270  135.4600 C   0  0  0  0  0  2  0  0  0  0  0  0
  189.8640  175.0560  135.1190 N   0  0  0  0  0  2  0  0  0  0  0  0
  191.0630  174.3830  134.8510 N   0  0  0  0  0  2  0  0  0  0  0  0
  192.6920  173.7200  136.6150 C   0  0  2  0  0  3  0  0  0  0  0  0
  192.4620  172.5700  135.6560 C   0  0  0  0  0  2  0  0  0  0  0  0
  191.3110  173.5000  135.9840 C   0  0  2  0  0  3  0  0  0  0  0  0
  194.8330  175.4660  137.8500 O   0  0  0  0  0  0  0  0  0  0  0  0
  194.8990  174.8530  136.5870 C   0  0  1  0  0  0  0  0  0  0  0  0
  193.5410  174.7890  135.9290 C   0  0  2  0  0  3  0  0  0  0  0  0
  193.8730  175.8870  136.9140 C   0  0  1  0  0  3  0  0  0  0  0  0
  197.3220  175.0830  136.1110 C   0  0  0  0  0  1  0  0  0  0  0  0
  195.9300  175.5200  135.6970 C   0  0  0  0  0  2  0  0  0  0  0  0
  2 10  1  0  0  0  0
  3 30  1  6  0  0  0
  3  7  1  0  0  0  0
  4  6  1  0  0  0  0
  5  9  1  1  0  0  0
  5  3  1  0  0  0  0
  5  4  1  0  0  0  0
  6  2  2  0  0  0  0
  6  1  1  0  0  0  0
  7  2  1  0  0  0  0
  9  8  1  0  0  0  0
 10 11  1  0  0  0  0
 11 12  1  0  0  0  0
 12 14  1  0  0  0  0
 13 11  2  0  0  0  0
 14 15  1  0  0  0  0
 15 17  1  0  0  0  0
 17 16  1  6  0  0  0
 17 19  1  0  0  0  0
 19 18  1  1  0  0  0
 20 23  1  0  0  0  0
 21 26  1  1  0  0  0
 21 25  1  0  0  0  0
 21 20  1  0  0  0  0
 23 22  1  0  0  0  0
 24 19  1  1  0  0  0
 24 22  1  0  0  0  0
 25 24  1  0  0  0  0
 27 29  2  0  0  0  0
 28 29  1  0  0  0  0
 29 26  1  0  0  0  0
 31 30  1  0  0  0  0
 32 31  1  0  0  0  0
 33 34  1  6  0  0  0
 34 35  1  0  0  0  0
 35 32  1  6  0  0  0
 35 33  1  0  0  0  0
 37 41  1  6  0  0  0
 37 39  1  0  0  0  0
 37 36  1  0  0  0  0
 38 37  1  0  0  0  0
 38 33  1  1  0  0  0
 38 39  1  0  0  0  0
 39 36  1  1  0  0  0
 41 40  1  0  0  0  0
M  END
>  <MODEL>
4

>  <REMARK>
 VINA RESULT:      -7.2      2.900      5.192
  Name = 
  16 active torsions:
  status: ('A' for Active; 'I' for Inactive)
    1  A    between atoms: C_1  and  C_28
    2  A    between atoms: C_2  and  C_8
    3  A    between atoms: C_2  and  N_40
    4  A    between atoms: C_5  and  C_28
    5  A    between atoms: C_7  and  C_27
    6  A    between atoms: C_10  and  C_23
    7  A    between atoms: C_17  and  O_37
    8  A    between atoms: C_18  and  C_24
    9  A    between atoms: C_18  and  C_36
   10  A    between atoms: C_20  and  C_34
   11  A    between atoms: C_22  and  C_34
   12  A    between atoms: C_24  and  C_32
   13  A    between atoms: C_29  and  C_32
   14  A    between atoms: N_31  and  C_36
   15  A    between atoms: N_33  and  C_38
   16  A    between atoms: N_33  and  N_40
                            x       y       z     vdW  Elec       q    Type
                         _______ _______ _______ _____ _____    ______ ____

>  <TORSDO>
F 16

$$$$
=
 OpenBabel11062415573D

 41 45  0  0  1  0  0  0  0  0999 V2000
  188.8250  174.6170  137.0970 F   0  0  0  0  0  0  0  0  0  0  0  0
  187.4760  176.5380  137.1940 C   0  0  0  0  0  0  0  0  0  0  0  0
  185.2350  176.4730  136.1400 C   0  0  2  0  0  3  0  0  0  0  0  0
  186.3700  174.3330  137.1450 C   0  0  0  0  0  2  0  0  0  0  0  0
  185.2470  174.9290  136.2660 C   0  0  2  0  0  3  0  0  0  0  0  0
  187.5990  175.2010  137.1580 C   0  0  0  0  0  0  0  0  0  0  0  0
  186.1060  177.1540  137.1990 C   0  0  0  0  0  2  0  0  0  0  0  0
  184.3260  173.1030  135.2430 C   0  0  0  0  0  1  0  0  0  0  0  0
  185.0870  174.2640  135.0320 O   0  0  0  0  0  0  0  0  0  0  0  0
  188.6840  177.4240  137.1790 C   0  0  0  0  0  2  0  0  0  0  0  0
  188.8730  178.0760  138.5080 C   0  0  0  0  0  0  0  0  0  0  0  0
  188.8900  177.2790  139.6930 N   0  0  0  0  0  2  0  0  0  0  0  0
  189.0080  179.3260  138.5740 O   0  0  0  0  0  0  0  0  0  0  0  0
  189.0710  177.8560  141.0160 C   0  0  0  0  0  2  0  0  0  0  0  0
  190.3630  177.3400  141.6210 C   0  0  0  0  0  2  0  0  0  0  0  0
  190.4520  175.3470  142.9390 O   0  0  0  0  0  1  0  0  0  0  0  0
  190.1010  176.6970  142.9790 C   0  0  1  0  0  3  0  0  0  0  0  0
  191.6570  178.6070  143.6610 C   0  0  0  0  0  1  0  0  0  0  0  0
  190.8390  177.4020  144.1220 C   0  0  1  0  0  3  0  0  0  0  0  0
  188.0980  177.8860  147.4370 C   0  0  0  0  0  2  0  0  0  0  0  0
  187.5270  178.1110  146.0290 C   0  0  1  0  0  3  0  0  0  0  0  0
  190.2310  176.8560  146.5560 C   0  0  0  0  0  2  0  0  0  0  0  0
  189.0240  176.6720  147.4850 C   0  0  0  0  0  2  0  0  0  0  0  0
  189.9190  177.7080  145.3100 C   0  0  2  0  0  3  0  0  0  0  0  0
  188.4490  177.6050  144.9070 C   0  0  0  0  0  2  0  0  0  0  0  0
  186.1570  177.4590  145.9190 C   0  0  0  0  0  2  0  0  0  0  0  0
  184.4770  179.2980  145.7610 O   0  0  0  0  0  1  0  0  0  0  0  0
  185.0920  178.1190  143.8910 O   0  0  0  0  0  0  0  0  0  0  0  0
  185.2250  178.3120  145.1270 C   0  0  0  0  0  0  0  0  0  0  0  0
  183.8140  177.0210  136.1580 C   0  0  0  0  0  2  0  0  0  0  0  0
  183.1890  176.7870  137.4530 N   0  0  0  0  0  2  0  0  0  0  0  0
  182.3200  177.8610  137.6840 N   0  0  0  0  0  2  0  0  0  0  0  0
  182.1450  179.8080  139.2270 C   0  0  2  0  0  3  0  0  0  0  0  0
  183.5990  179.5170  138.9160 C   0  0  0  0  0  2  0  0  0  0  0  0
  182.6190  178.3640  139.0180 C   0  0  2  0  0  3  0  0  0  0  0  0
  180.0310  181.9730  139.1750 O   0  0  0  0  0  0  0  0  0  0  0  0
  181.1360  181.8800  138.3100 C   0  0  1  0  0  0  0  0  0  0  0  0
  181.4840  180.4420  138.0060 C   0  0  2  0  0  3  0  0  0  0  0  0
  180.0650  180.8410  138.3420 C   0  0  1  0  0  3  0  0  0  0  0  0
  181.4120  184.1120  137.2650 C   0  0  0  0  0  1  0  0  0  0  0  0
  180.9240  182.6930  137.0480 C   0  0  0  0  0  2  0  0  0  0  0  0
  1  6  1  0  0  0  0
  2  7  1  0  0  0  0
  3 30  1  1  0  0  0
  3  5  1  0  0  0  0
  3  7  1  0  0  0  0
  4  6  1  0  0  0  0
  5  9  1  6  0  0  0
  5  4  1  0  0  0  0
  6  2  2  0  0  0  0
  9  8  1  0  0  0  0
 10  2  1  0  0  0  0
 10 11  1  0  0  0  0
 11 13  2  0  0  0  0
 11 12  1  0  0  0  0
 12 14  1  0  0  0  0
 14 15  1  0  0  0  0
 15 17  1  0  0  0  0
 17 16  1  6  0  0  0
 17 19  1  0  0  0  0
 19 18  1  6  0  0  0
 20 23  1  0  0  0  0
 21 26  1  1  0  0  0
 21 20  1  0  0  0  0
 22 23  1  0  0  0  0
 24 19  1  6  0  0  0
 24 22  1  0  0  0  0
 25 24  1  0  0  0  0
 25 21  1  0  0  0  0
 28 29  2  0  0  0  0
 29 27  1  0  0  0  0
 29 26  1  0  0  0  0
 30 31  1  0  0  0  0
 31 32  1  0  0  0  0
 33 34  1  6  0  0  0
 34 35  1  0  0  0  0
 35 32  1  6  0  0  0
 35 33  1  0  0  0  0
 37 41  1  6  0  0  0
 37 39  1  0  0  0  0
 37 36  1  0  0  0  0
 38 37  1  0  0  0  0
 38 39  1  0  0  0  0
 38 33  1  1  0  0  0
 39 36  1  1  0  0  0
 41 40  1  0  0  0  0
M  END
>  <MODEL>
5

>  <REMARK>
 VINA RESULT:      -7.1      3.126      5.703
  Name = 
  16 active torsions:
  status: ('A' for Active; 'I' for Inactive)
    1  A    between atoms: C_1  and  C_28
    2  A    between atoms: C_2  and  C_8
    3  A    between atoms: C_2  and  N_40
    4  A    between atoms: C_5  and  C_28
    5  A    between atoms: C_7  and  C_27
    6  A    between atoms: C_10  and  C_23
    7  A    between atoms: C_17  and  O_37
    8  A    between atoms: C_18  and  C_24
    9  A    between atoms: C_18  and  C_36
   10  A    between atoms: C_20  and  C_34
   11  A    between atoms: C_22  and  C_34
   12  A    between atoms: C_24  and  C_32
   13  A    between atoms: C_29  and  C_32
   14  A    between atoms: N_31  and  C_36
   15  A    between atoms: N_33  and  C_38
   16  A    between atoms: N_33  and  N_40
                            x       y       z     vdW  Elec       q    Type
                         _______ _______ _______ _____ _____    ______ ____

>  <TORSDO>
F 16

$$$$
=
 OpenBabel11062415573D

 41 45  0  0  1  0  0  0  0  0999 V2000
  189.8450  177.6060  135.3880 F   0  0  0  0  0  0  0  0  0  0  0  0
  189.1250  175.7530  136.6400 C   0  0  0  0  0  0  0  0  0  0  0  0
  186.6920  175.3590  136.8900 C   0  0  2  0  0  3  0  0  0  0  0  0
  187.7080  176.5250  134.7730 C   0  0  0  0  0  2  0  0  0  0  0  0
  186.4500  176.1870  135.6030 C   0  0  2  0  0  3  0  0  0  0  0  0
  188.9430  176.6180  135.6290 C   0  0  0  0  0  0  0  0  0  0  0  0
  188.0790  174.7110  136.9180 C   0  0  0  0  0  2  0  0  0  0  0  0
  184.8320  177.4790  134.6330 C   0  0  0  0  0  1  0  0  0  0  0  0
  185.5910  177.2900  135.7980 O   0  0  0  0  0  0  0  0  0  0  0  0
  190.3320  175.8420  137.5230 C   0  0  0  0  0  2  0  0  0  0  0  0
  190.0470  176.6930  138.7160 C   0  0  0  0  0  0  0  0  0  0  0  0
  190.5280  176.2970  140.0000 N   0  0  0  0  0  2  0  0  0  0  0  0
  189.3780  177.7510  138.5780 O   0  0  0  0  0  0  0  0  0  0  0  0
  190.2830  177.0840  141.1990 C   0  0  0  0  0  2  0  0  0  0  0  0
  191.5730  177.7510  141.6380 C   0  0  0  0  0  2  0  0  0  0  0  0
  191.1510  179.1900  143.5000 O   0  0  0  0  0  1  0  0  0  0  0  0
  191.6020  177.9160  143.1550 C   0  0  1  0  0  3  0  0  0  0  0  0
  191.5950  175.6120  144.2640 C   0  0  0  0  0  1  0  0  0  0  0  0
  190.7800  176.8480  143.8830 C   0  0  1  0  0  3  0  0  0  0  0  0
  188.3230  178.1170  147.2130 C   0  0  0  0  0  2  0  0  0  0  0  0
  187.6740  178.1530  145.8210 C   0  0  1  0  0  3  0  0  0  0  0  0
  190.3030  176.7710  146.4050 C   0  0  0  0  0  2  0  0  0  0  0  0
  189.1530  176.8530  147.4170 C   0  0  0  0  0  2  0  0  0  0  0  0
  189.9720  177.4280  145.0500 C   0  0  2  0  0  3  0  0  0  0  0  0
  188.4740  177.3880  144.7530 C   0  0  0  0  0  2  0  0  0  0  0  0
  186.2530  177.6150  145.9010 C   0  0  0  0  0  2  0  0  0  0  0  0
  183.9790  178.6410  145.8680 O   0  0  0  0  0  0  0  0  0  0  0  0
  185.6990  179.6600  146.9940 O   0  0  0  0  0  1  0  0  0  0  0  0
  185.3000  178.6910  146.2980 C   0  0  0  0  0  0  0  0  0  0  0  0
  185.5950  174.3240  137.0990 C   0  0  0  0  0  2  0  0  0  0  0  0
  184.2790  174.9420  137.0060 N   0  0  0  0  0  2  0  0  0  0  0  0
  183.9070  175.3040  138.3060 N   0  0  0  0  0  2  0  0  0  0  0  0
  182.8440  177.4920  138.8400 C   0  0  2  0  0  3  0  0  0  0  0  0
  182.1300  176.3720  139.5690 C   0  0  0  0  0  2  0  0  0  0  0  0
  182.6990  176.1110  138.1890 C   0  0  2  0  0  3  0  0  0  0  0  0
  184.2100  180.1500  139.3180 O   0  0  0  0  0  0  0  0  0  0  0  0
  184.1680  179.0720  140.2200 C   0  0  1  0  0  0  0  0  0  0  0  0
  184.1970  177.7440  139.5000 C   0  0  2  0  0  3  0  0  0  0  0  0
  184.8420  178.9690  138.8920 C   0  0  1  0  0  3  0  0  0  0  0  0
  184.7920  178.5550  142.5630 C   0  0  0  0  0  1  0  0  0  0  0  0
  185.2630  179.1770  141.2640 C   0  0  0  0  0  2  0  0  0  0  0  0
  1  6  1  0  0  0  0
  2  7  1  0  0  0  0
  2 10  1  0  0  0  0
  3  7  1  0  0  0  0
  3 30  1  6  0  0  0
  4  5  1  0  0  0  0
  4  6  1  0  0  0  0
  5  9  1  1  0  0  0
  5  3  1  0  0  0  0
  6  2  2  0  0  0  0
  8  9  1  0  0  0  0
 10 11  1  0  0  0  0
 11 12  1  0  0  0  0
 12 14  1  0  0  0  0
 13 11  2  0  0  0  0
 14 15  1  0  0  0  0
 15 17  1  0  0  0  0
 17 16  1  6  0  0  0
 17 19  1  0  0  0  0
 19 18  1  1  0  0  0
 20 23  1  0  0  0  0
 21 26  1  1  0  0  0
 21 20  1  0  0  0  0
 22 23  1  0  0  0  0
 24 19  1  6  0  0  0
 24 22  1  0  0  0  0
 25 24  1  0  0  0  0
 25 21  1  0  0  0  0
 26 29  1  0  0  0  0
 27 29  2  0  0  0  0
 29 28  1  0  0  0  0
 31 30  1  0  0  0  0
 31 32  1  0  0  0  0
 33 34  1  1  0  0  0
 35 32  1  1  0  0  0
 35 33  1  0  0  0  0
 35 34  1  0  0  0  0
 36 37  1  0  0  0  0
 37 41  1  1  0  0  0
 38 33  1  6  0  0  0
 38 37  1  0  0  0  0
 39 36  1  6  0  0  0
 39 38  1  0  0  0  0
 39 37  1  0  0  0  0
 41 40  1  0  0  0  0
M  END
>  <MODEL>
6

>  <REMARK>
 VINA RESULT:      -7.0      2.510      5.077
  Name = 
  16 active torsions:
  status: ('A' for Active; 'I' for Inactive)
    1  A    between atoms: C_1  and  C_28
    2  A    between atoms: C_2  and  C_8
    3  A    between atoms: C_2  and  N_40
    4  A    between atoms: C_5  and  C_28
    5  A    between atoms: C_7  and  C_27
    6  A    between atoms: C_10  and  C_23
    7  A    between atoms: C_17  and  O_37
    8  A    between atoms: C_18  and  C_24
    9  A    between atoms: C_18  and  C_36
   10  A    between atoms: C_20  and  C_34
   11  A    between atoms: C_22  and  C_34
   12  A    between atoms: C_24  and  C_32
   13  A    between atoms: C_29  and  C_32
   14  A    between atoms: N_31  and  C_36
   15  A    between atoms: N_33  and  C_38
   16  A    between atoms: N_33  and  N_40
                            x       y       z     vdW  Elec       q    Type
                         _______ _______ _______ _____ _____    ______ ____

>  <TORSDO>
F 16

$$$$
=
 OpenBabel11062415573D

 41 45  0  0  1  0  0  0  0  0999 V2000
  191.3210  177.0370  138.6470 F   0  0  0  0  0  0  0  0  0  0  0  0
  188.9970  177.3380  138.4790 C   0  0  0  0  0  0  0  0  0  0  0  0
  187.8250  176.4580  136.4820 C   0  0  2  0  0  3  0  0  0  0  0  0
  189.9970  175.3380  137.4340 C   0  0  0  0  0  2  0  0  0  0  0  0
  188.9900  175.4580  136.2690 C   0  0  2  0  0  3  0  0  0  0  0  0
  190.1000  176.6140  138.2270 C   0  0  0  0  0  0  0  0  0  0  0  0
  187.6710  176.8730  137.9470 C   0  0  0  0  0  2  0  0  0  0  0  0
  189.7490  176.9360  134.6980 C   0  0  0  0  0  1  0  0  0  0  0  0
  189.6040  175.5740  135.0040 O   0  0  0  0  0  0  0  0  0  0  0  0
  189.0780  178.6250  139.2410 C   0  0  0  0  0  2  0  0  0  0  0  0
  188.6940  178.4150  140.6680 C   0  0  0  0  0  0  0  0  0  0  0  0
  189.5530  177.6710  141.5320 N   0  0  0  0  0  2  0  0  0  0  0  0
  187.6090  178.8910  141.0950 O   0  0  0  0  0  0  0  0  0  0  0  0
  189.2330  177.4340  142.9310 C   0  0  0  0  0  2  0  0  0  0  0  0
  190.2390  176.4660  143.5240 C   0  0  0  0  0  2  0  0  0  0  0  0
  190.9370  178.5100  144.5480 O   0  0  0  0  0  1  0  0  0  0  0  0
  191.0040  177.1210  144.6690 C   0  0  1  0  0  3  0  0  0  0  0  0
  191.6200  176.4050  147.0450 C   0  0  0  0  0  1  0  0  0  0  0  0
  190.4970  176.6850  146.0470 C   0  0  1  0  0  3  0  0  0  0  0  0
  187.2520  179.0040  147.7310 C   0  0  0  0  0  2  0  0  0  0  0  0
  187.0270  178.4140  146.3310 C   0  0  1  0  0  3  0  0  0  0  0  0
  189.3210  177.6110  148.1340 C   0  0  0  0  0  2  0  0  0  0  0  0
  187.9360  178.0060  148.6620 C   0  0  0  0  0  2  0  0  0  0  0  0
  189.4160  177.6250  146.5960 C   0  0  2  0  0  3  0  0  0  0  0  0
  188.0640  177.3460  145.9430 C   0  0  0  0  0  2  0  0  0  0  0  0
  185.6200  177.8430  146.2330 C   0  0  0  0  0  2  0  0  0  0  0  0
  185.2800  178.5730  143.8710 O   0  0  0  0  0  0  0  0  0  0  0  0
  183.7730  179.1590  145.5000 O   0  0  0  0  0  1  0  0  0  0  0  0
  184.8300  178.5520  145.1860 C   0  0  0  0  0  0  0  0  0  0  0  0
  186.5180  175.9140  135.9220 C   0  0  0  0  0  2  0  0  0  0  0  0
  185.9220  174.9550  136.8420 N   0  0  0  0  0  2  0  0  0  0  0  0
  184.6560  175.4470  137.1790 N   0  0  0  0  0  2  0  0  0  0  0  0
  183.9990  177.8470  137.0520 C   0  0  2  0  0  3  0  0  0  0  0  0
  182.9370  176.9790  136.4090 C   0  0  0  0  0  2  0  0  0  0  0  0
  184.3920  176.5730  136.2920 C   0  0  2  0  0  3  0  0  0  0  0  0
  184.2400  180.0060  139.1590 O   0  0  0  0  0  0  0  0  0  0  0  0
  183.3340  178.9310  139.1810 C   0  0  1  0  0  0  0  0  0  0  0  0
  183.9330  177.6870  138.5690 C   0  0  2  0  0  3  0  0  0  0  0  0
  184.8120  178.7240  139.2310 C   0  0  1  0  0  3  0  0  0  0  0  0
  181.4590  177.9890  140.5020 C   0  0  0  0  0  1  0  0  0  0  0  0
  182.8070  178.6770  140.5810 C   0  0  0  0  0  2  0  0  0  0  0  0
  2 10  1  0  0  0  0
  3 30  1  1  0  0  0
  3  7  1  0  0  0  0
  4  6  1  0  0  0  0
  5  9  1  6  0  0  0
  5  3  1  0  0  0  0
  5  4  1  0  0  0  0
  6  2  2  0  0  0  0
  6  1  1  0  0  0  0
  7  2  1  0  0  0  0
  8  9  1  0  0  0  0
 10 11  1  0  0  0  0
 11 13  2  0  0  0  0
 11 12  1  0  0  0  0
 12 14  1  0  0  0  0
 14 15  1  0  0  0  0
 15 17  1  0  0  0  0
 17 16  1  1  0  0  0
 17 19  1  0  0  0  0
 19 18  1  1  0  0  0
 20 23  1  0  0  0  0
 21 26  1  1  0  0  0
 21 20  1  0  0  0  0
 22 23  1  0  0  0  0
 24 19  1  1  0  0  0
 24 22  1  0  0  0  0
 25 21  1  0  0  0  0
 25 24  1  0  0  0  0
 27 29  2  0  0  0  0
 29 28  1  0  0  0  0
 29 26  1  0  0  0  0
 30 31  1  0  0  0  0
 31 32  1  0  0  0  0
 33 34  1  6  0  0  0
 35 34  1  0  0  0  0
 35 33  1  0  0  0  0
 35 32  1  1  0  0  0
 36 37  1  0  0  0  0
 37 39  1  0  0  0  0
 37 41  1  1  0  0  0
 38 33  1  6  0  0  0
 38 37  1  0  0  0  0
 38 39  1  0  0  0  0
 39 36  1  6  0  0  0
 40 41  1  0  0  0  0
M  END
>  <MODEL>
7

>  <REMARK>
 VINA RESULT:      -6.9      2.222      5.164
  Name = 
  16 active torsions:
  status: ('A' for Active; 'I' for Inactive)
    1  A    between atoms: C_1  and  C_28
    2  A    between atoms: C_2  and  C_8
    3  A    between atoms: C_2  and  N_40
    4  A    between atoms: C_5  and  C_28
    5  A    between atoms: C_7  and  C_27
    6  A    between atoms: C_10  and  C_23
    7  A    between atoms: C_17  and  O_37
    8  A    between atoms: C_18  and  C_24
    9  A    between atoms: C_18  and  C_36
   10  A    between atoms: C_20  and  C_34
   11  A    between atoms: C_22  and  C_34
   12  A    between atoms: C_24  and  C_32
   13  A    between atoms: C_29  and  C_32
   14  A    between atoms: N_31  and  C_36
   15  A    between atoms: N_33  and  C_38
   16  A    between atoms: N_33  and  N_40
                            x       y       z     vdW  Elec       q    Type
                         _______ _______ _______ _____ _____    ______ ____

>  <TORSDO>
F 16

$$$$
=
 OpenBabel11062415573D

 41 45  0  0  1  0  0  0  0  0999 V2000
  188.8200  174.3450  137.1620 F   0  0  0  0  0  0  0  0  0  0  0  0
  187.5200  176.2980  137.2840 C   0  0  0  0  0  0  0  0  0  0  0  0
  185.2740  176.2990  136.2370 C   0  0  2  0  0  3  0  0  0  0  0  0
  186.3590  174.1220  137.2160 C   0  0  0  0  0  2  0  0  0  0  0  0
  185.2490  174.7540  136.3480 C   0  0  2  0  0  3  0  0  0  0  0  0
  187.6090  174.9590  137.2340 C   0  0  0  0  0  0  0  0  0  0  0  0
  186.1650  176.9470  137.3010 C   0  0  0  0  0  2  0  0  0  0  0  0
  185.0120  172.7210  135.3280 C   0  0  0  0  0  1  0  0  0  0  0  0
  185.0670  174.1060  135.1070 O   0  0  0  0  0  0  0  0  0  0  0  0
  188.7490  177.1540  137.2740 C   0  0  0  0  0  2  0  0  0  0  0  0
  188.8420  177.9530  138.5310 C   0  0  0  0  0  0  0  0  0  0  0  0
  188.7430  177.2990  139.7960 N   0  0  0  0  0  2  0  0  0  0  0  0
  189.0000  179.2010  138.4630 O   0  0  0  0  0  0  0  0  0  0  0  0
  188.8270  178.0230  141.0550 C   0  0  0  0  0  2  0  0  0  0  0  0
  190.1130  177.6510  141.7690 C   0  0  0  0  0  2  0  0  0  0  0  0
  190.0920  175.4480  142.6980 O   0  0  0  0  0  1  0  0  0  0  0  0
  189.8170  176.7850  142.9890 C   0  0  1  0  0  3  0  0  0  0  0  0
  191.6850  178.2550  143.9300 C   0  0  0  0  0  1  0  0  0  0  0  0
  190.5960  177.2270  144.2320 C   0  0  1  0  0  3  0  0  0  0  0  0
  187.8190  178.0190  147.4570 C   0  0  0  0  0  2  0  0  0  0  0  0
  187.2990  178.2330  146.0270 C   0  0  1  0  0  3  0  0  0  0  0  0
  189.8940  176.8120  146.6670 C   0  0  0  0  0  2  0  0  0  0  0  0
  188.6550  176.7460  147.5690 C   0  0  0  0  0  2  0  0  0  0  0  0
  189.6730  177.6390  145.3850 C   0  0  2  0  0  3  0  0  0  0  0  0
  188.2090  177.6240  144.9470 C   0  0  0  0  0  2  0  0  0  0  0  0
  185.8890  177.6750  145.9030 C   0  0  0  0  0  2  0  0  0  0  0  0
  185.3270  179.6160  144.4400 O   0  0  0  0  0  0  0  0  0  0  0  0
  183.8030  178.8270  145.9630 O   0  0  0  0  0  1  0  0  0  0  0  0
  184.9410  178.7260  145.4350 C   0  0  0  0  0  0  0  0  0  0  0  0
  183.8670  176.8810  136.2670 C   0  0  0  0  0  2  0  0  0  0  0  0
  182.9350  175.9450  136.8810 N   0  0  0  0  0  2  0  0  0  0  0  0
  182.6790  176.4160  138.1750 N   0  0  0  0  0  2  0  0  0  0  0  0
  180.7280  177.3630  139.4000 C   0  0  2  0  0  3  0  0  0  0  0  0
  180.9410  175.9160  139.7940 C   0  0  0  0  0  2  0  0  0  0  0  0
  181.2370  176.3450  138.3710 C   0  0  2  0  0  3  0  0  0  0  0  0
  180.5400  179.0510  141.9050 O   0  0  0  0  0  0  0  0  0  0  0  0
  181.6340  178.2510  141.5310 C   0  0  1  0  0  0  0  0  0  0  0  0
  181.8180  178.2260  140.0320 C   0  0  2  0  0  3  0  0  0  0  0  0
  181.1920  179.4200  140.7160 C   0  0  1  0  0  3  0  0  0  0  0  0
  184.1130  178.2030  141.4700 C   0  0  0  0  0  1  0  0  0  0  0  0
  182.9010  178.6700  142.2520 C   0  0  0  0  0  2  0  0  0  0  0  0
  1  6  1  0  0  0  0
  2  7  1  0  0  0  0
  3 30  1  1  0  0  0
  3  5  1  0  0  0  0
  3  7  1  0  0  0  0
  4  6  1  0  0  0  0
  5  9  1  6  0  0  0
  5  4  1  0  0  0  0
  6  2  2  0  0  0  0
  9  8  1  0  0  0  0
 10  2  1  0  0  0  0
 10 11  1  0  0  0  0
 11 12  1  0  0  0  0
 12 14  1  0  0  0  0
 13 11  2  0  0  0  0
 14 15  1  0  0  0  0
 15 17  1  0  0  0  0
 17 16  1  6  0  0  0
 17 19  1  0  0  0  0
 19 18  1  6  0  0  0
 20 23  1  0  0  0  0
 21 26  1  1  0  0  0
 21 20  1  0  0  0  0
 22 23  1  0  0  0  0
 24 19  1  6  0  0  0
 24 22  1  0  0  0  0
 25 24  1  0  0  0  0
 25 21  1  0  0  0  0
 27 29  2  0  0  0  0
 29 26  1  0  0  0  0
 29 28  1  0  0  0  0
 30 31  1  0  0  0  0
 31 32  1  0  0  0  0
 33 34  1  1  0  0  0
 35 32  1  1  0  0  0
 35 33  1  0  0  0  0
 35 34  1  0  0  0  0
 37 36  1  0  0  0  0
 37 41  1  1  0  0  0
 38 33  1  6  0  0  0
 38 39  1  0  0  0  0
 38 37  1  0  0  0  0
 39 37  1  0  0  0  0
 39 36  1  6  0  0  0
 40 41  1  0  0  0  0
M  END
>  <MODEL>
8

>  <REMARK>
 VINA RESULT:      -6.9      2.473      5.357
  Name = 
  16 active torsions:
  status: ('A' for Active; 'I' for Inactive)
    1  A    between atoms: C_1  and  C_28
    2  A    between atoms: C_2  and  C_8
    3  A    between atoms: C_2  and  N_40
    4  A    between atoms: C_5  and  C_28
    5  A    between atoms: C_7  and  C_27
    6  A    between atoms: C_10  and  C_23
    7  A    between atoms: C_17  and  O_37
    8  A    between atoms: C_18  and  C_24
    9  A    between atoms: C_18  and  C_36
   10  A    between atoms: C_20  and  C_34
   11  A    between atoms: C_22  and  C_34
   12  A    between atoms: C_24  and  C_32
   13  A    between atoms: C_29  and  C_32
   14  A    between atoms: N_31  and  C_36
   15  A    between atoms: N_33  and  C_38
   16  A    between atoms: N_33  and  N_40
                            x       y       z     vdW  Elec       q    Type
                         _______ _______ _______ _____ _____    ______ ____

>  <TORSDO>
F 16

$$$$
=
 OpenBabel11062415573D

 41 45  0  0  1  0  0  0  0  0999 V2000
  191.6120  177.3000  139.7770 F   0  0  0  0  0  0  0  0  0  0  0  0
  189.2820  177.2940  139.4770 C   0  0  0  0  0  0  0  0  0  0  0  0
  188.3750  176.8480  137.2150 C   0  0  2  0  0  3  0  0  0  0  0  0
  190.6510  175.8350  138.0330 C   0  0  0  0  0  2  0  0  0  0  0  0
  189.6980  176.1290  136.8530 C   0  0  2  0  0  3  0  0  0  0  0  0
  190.5010  176.8380  139.1450 C   0  0  0  0  0  0  0  0  0  0  0  0
  188.0800  176.8090  138.7170 C   0  0  0  0  0  2  0  0  0  0  0  0
  191.2940  175.7580  135.2570 C   0  0  0  0  0  1  0  0  0  0  0  0
  190.3490  176.6820  135.7290 O   0  0  0  0  0  0  0  0  0  0  0  0
  189.1090  178.3140  140.5610 C   0  0  0  0  0  2  0  0  0  0  0  0
  189.3270  177.6960  141.9010 C   0  0  0  0  0  0  0  0  0  0  0  0
  190.2100  178.3190  142.8340 N   0  0  0  0  0  2  0  0  0  0  0  0
  188.7340  176.6240  142.1950 O   0  0  0  0  0  0  0  0  0  0  0  0
  190.4620  177.7650  144.1550 C   0  0  0  0  0  2  0  0  0  0  0  0
  189.4000  178.2560  145.1220 C   0  0  0  0  0  2  0  0  0  0  0  0
  189.8960  176.7440  146.9050 O   0  0  0  0  0  1  0  0  0  0  0  0
  188.9010  177.1120  145.9980 C   0  0  1  0  0  3  0  0  0  0  0  0
  187.8470  178.0250  148.1410 C   0  0  0  0  0  1  0  0  0  0  0  0
  187.6070  177.4560  146.7430 C   0  0  1  0  0  3  0  0  0  0  0  0
  184.6700  179.5260  144.3300 C   0  0  0  0  0  2  0  0  0  0  0  0
  185.6900  178.6550  143.5820 C   0  0  1  0  0  3  0  0  0  0  0  0
  185.2980  178.5670  146.5820 C   0  0  0  0  0  2  0  0  0  0  0  0
  184.1580  178.8380  145.5930 C   0  0  0  0  0  2  0  0  0  0  0  0
  186.6530  178.3050  145.8950 C   0  0  2  0  0  3  0  0  0  0  0  0
  186.4750  177.7040  144.5020 C   0  0  0  0  0  2  0  0  0  0  0  0
  184.9890  177.8670  142.4850 C   0  0  0  0  0  2  0  0  0  0  0  0
  185.5470  179.4160  140.6110 O   0  0  0  0  0  0  0  0  0  0  0  0
  183.3600  178.9510  141.1250 O   0  0  0  0  0  1  0  0  0  0  0  0
  184.5800  178.7630  141.3660 C   0  0  0  0  0  0  0  0  0  0  0  0
  187.2060  176.2990  136.4080 C   0  0  0  0  0  2  0  0  0  0  0  0
  187.2110  174.8420  136.4190 N   0  0  0  0  0  2  0  0  0  0  0  0
  186.2450  174.4250  135.4950 N   0  0  0  0  0  2  0  0  0  0  0  0
  184.4080  173.0960  136.5260 C   0  0  2  0  0  3  0  0  0  0  0  0
  185.6350  173.0690  137.4140 C   0  0  0  0  0  2  0  0  0  0  0  0
  185.8130  173.0970  135.9090 C   0  0  2  0  0  3  0  0  0  0  0  0
  181.4890  173.7340  137.0090 O   0  0  0  0  0  0  0  0  0  0  0  0
  182.5840  174.4150  137.5690 C   0  0  1  0  0  0  0  0  0  0  0  0
  183.7520  174.4720  136.6120 C   0  0  2  0  0  3  0  0  0  0  0  0
  182.3320  174.3940  136.0980 C   0  0  1  0  0  3  0  0  0  0  0  0
  183.4320  176.6130  138.3460 C   0  0  0  0  0  1  0  0  0  0  0  0
  182.1890  175.7930  138.0650 C   0  0  0  0  0  2  0  0  0  0  0  0
  2 10  1  0  0  0  0
  3 30  1  6  0  0  0
  3  7  1  0  0  0  0
  4  6  1  0  0  0  0
  5  9  1  6  0  0  0
  5  3  1  0  0  0  0
  5  4  1  0  0  0  0
  6  2  2  0  0  0  0
  6  1  1  0  0  0  0
  7  2  1  0  0  0  0
  8  9  1  0  0  0  0
 10 11  1  0  0  0  0
 11 13  2  0  0  0  0
 11 12  1  0  0  0  0
 12 14  1  0  0  0  0
 14 15  1  0  0  0  0
 15 17  1  0  0  0  0
 17 19  1  0  0  0  0
 17 16  1  1  0  0  0
 19 18  1  1  0  0  0
 20 23  1  0  0  0  0
 21 26  1  6  0  0  0
 21 20  1  0  0  0  0
 21 25  1  0  0  0  0
 23 22  1  0  0  0  0
 24 22  1  0  0  0  0
 24 19  1  1  0  0  0
 25 24  1  0  0  0  0
 27 29  2  0  0  0  0
 28 29  1  0  0  0  0
 29 26  1  0  0  0  0
 30 31  1  0  0  0  0
 32 31  1  0  0  0  0
 33 34  1  1  0  0  0
 35 32  1  1  0  0  0
 35 33  1  0  0  0  0
 35 34  1  0  0  0  0
 36 37  1  0  0  0  0
 37 41  1  1  0  0  0
 38 33  1  1  0  0  0
 38 37  1  0  0  0  0
 39 38  1  0  0  0  0
 39 36  1  1  0  0  0
 39 37  1  0  0  0  0
 41 40  1  0  0  0  0
M  END
>  <MODEL>
9

>  <REMARK>
 VINA RESULT:      -6.8      2.668      5.887
  Name = 
  16 active torsions:
  status: ('A' for Active; 'I' for Inactive)
    1  A    between atoms: C_1  and  C_28
    2  A    between atoms: C_2  and  C_8
    3  A    between atoms: C_2  and  N_40
    4  A    between atoms: C_5  and  C_28
    5  A    between atoms: C_7  and  C_27
    6  A    between atoms: C_10  and  C_23
    7  A    between atoms: C_17  and  O_37
    8  A    between atoms: C_18  and  C_24
    9  A    between atoms: C_18  and  C_36
   10  A    between atoms: C_20  and  C_34
   11  A    between atoms: C_22  and  C_34
   12  A    between atoms: C_24  and  C_32
   13  A    between atoms: C_29  and  C_32
   14  A    between atoms: N_31  and  C_36
   15  A    between atoms: N_33  and  C_38
   16  A    between atoms: N_33  and  N_40
                            x       y       z     vdW  Elec       q    Type
                         _______ _______ _______ _____ _____    ______ ____

>  <TORSDO>
F 16

$$$$
