=
 OpenBabel11062415013D

 31 36  0  0  1  0  0  0  0  0999 V2000
  188.1980  178.2770  143.0860 N   0  0  2  0  0  0  0  0  0  0  0  0
  189.1540  177.5780  139.8700 C   0  0  0  0  0  2  0  0  0  0  0  0
  187.3750  177.6240  142.0520 C   0  0  1  0  0  3  0  0  0  0  0  0
  187.1000  178.6270  140.9370 C   0  0  1  0  0  3  0  0  0  0  0  0
  187.7830  178.2230  139.6240 C   0  0  0  0  0  2  0  0  0  0  0  0
  189.6540  177.8930  141.2080 N   0  0  0  0  0  2  0  0  0  0  0  0
  188.7920  177.2470  142.2050 C   0  0  1  0  0  3  0  0  0  0  0  0
  185.0210  179.0250  139.5560 C   0  0  0  0  0  3  0  0  0  0  0  0
  183.4270  178.7040  141.8390 C   0  0  0  0  0  0  0  0  0  0  0  0
  181.4260  179.2950  143.1590 C   0  0  0  0  0  2  0  0  0  0  0  0
  180.2810  178.5110  142.5310 C   0  0  0  0  0  2  0  0  0  0  0  0
  182.6750  178.6280  143.0160 O   0  0  0  0  0  0  0  0  0  0  0  0
  180.6370  177.8940  141.1840 C   0  0  0  0  0  2  0  0  0  0  0  0
  185.6230  178.8240  140.8050 C   0  0  0  0  0  0  0  0  0  0  0  0
  183.6290  179.0480  139.4430 C   0  0  0  0  0  3  0  0  0  0  0  0
  181.4400  178.7620  140.3900 O   0  0  0  0  0  0  0  0  0  0  0  0
  184.8200  178.6570  141.9380 C   0  0  0  0  0  3  0  0  0  0  0  0
  182.8240  178.8530  140.5690 C   0  0  0  0  0  0  0  0  0  0  0  0
  186.3000  177.7860  144.7690 C   0  0  0  0  0  2  0  0  0  0  0  0
  187.7700  177.7140  144.3720 C   0  0  0  0  0  0  0  0  0  0  0  0
  186.8550  176.5220  144.1460 C   0  0  0  0  0  2  0  0  0  0  0  0
  188.8450  177.4070  145.3880 C   0  0  0  0  0  0  0  0  0  0  0  0
  188.6910  177.7360  146.7520 C   0  0  0  0  0  0  0  0  0  0  0  0
  190.0840  176.9330  144.9340 C   0  0  0  0  0  3  0  0  0  0  0  0
  189.7660  177.5630  147.6380 C   0  0  0  0  0  0  0  0  0  0  0  0
  189.6230  177.8820  148.9490 F   0  0  0  0  0  0  0  0  0  0  0  0
  187.1810  178.4010  147.3700 Cl  0  0  0  0  0  0  0  0  0  0  0  0
  190.9970  177.0790  147.1770 C   0  0  0  0  0  0  0  0  0  0  0  0
  191.1470  176.7620  145.8200 C   0  0  0  0  0  3  0  0  0  0  0  0
  192.0540  176.9310  148.0800 O   0  0  0  0  0  0  0  0  0  0  0  0
  192.8030  175.7280  148.1970 C   0  0  0  0  0  1  0  0  0  0  0  0
  1 20  1  1  0  0  0
  2  6  1  0  0  0  0
  3  7  1  0  0  0  0
  3  1  1  0  0  0  0
  4  3  1  0  0  0  0
  5  2  1  0  0  0  0
  5  4  1  0  0  0  0
  6  7  1  0  0  0  0
  7  1  1  0  0  0  0
  8 14  1  0  0  0  0
  9 17  1  0  0  0  0
  9 12  1  0  0  0  0
 11 10  1  0  0  0  0
 12 10  1  0  0  0  0
 13 11  1  0  0  0  0
 14  4  1  0  0  0  0
 14 17  2  0  0  0  0
 15  8  2  0  0  0  0
 15 18  1  0  0  0  0
 16 18  1  0  0  0  0
 16 13  1  0  0  0  0
 18  9  2  0  0  0  0
 20 19  1  0  0  0  0
 20 22  1  0  0  0  0
 21 20  1  0  0  0  0
 21 19  1  0  0  0  0
 22 23  1  0  0  0  0
 23 27  1  0  0  0  0
 23 25  2  0  0  0  0
 24 22  2  0  0  0  0
 24 29  1  0  0  0  0
 25 26  1  0  0  0  0
 28 25  1  0  0  0  0
 28 30  1  0  0  0  0
 29 28  2  0  0  0  0
 30 31  1  0  0  0  0
M  END
>  <MODEL>
1

>  <REMARK>
 VINA RESULT:      -9.4      0.000      0.000
  Name = 
  4 active torsions:
  status: ('A' for Active; 'I' for Inactive)
    1  A    between atoms: N_1  and  C_11
    2  A    between atoms: C_3  and  C_11
    3  A    between atoms: O_13  and  C_22
    4  A    between atoms: C_14  and  C_24
                            x       y       z     vdW  Elec       q    Type
                         _______ _______ _______ _____ _____    ______ ____

>  <TORSDO>
F 4

$$$$
=
 OpenBabel11062415013D

 31 36  0  0  1  0  0  0  0  0999 V2000
  189.6970  177.9480  142.1360 N   0  0  2  0  0  0  0  0  0  0  0  0
  191.7200  176.9300  139.5640 C   0  0  0  0  0  2  0  0  0  0  0  0
  189.3060  177.0870  141.0050 C   0  0  1  0  0  3  0  0  0  0  0  0
  189.3770  177.9030  139.7190 C   0  0  1  0  0  3  0  0  0  0  0  0
  190.4840  177.3990  138.7830 C   0  0  0  0  0  2  0  0  0  0  0  0
  191.7210  177.4660  140.9250 N   0  0  0  0  0  2  0  0  0  0  0  0
  190.6040  176.8750  141.6720 C   0  0  1  0  0  3  0  0  0  0  0  0
  187.7340  177.1650  137.9460 C   0  0  0  0  0  3  0  0  0  0  0  0
  185.6890  178.5880  139.2320 C   0  0  0  0  0  0  0  0  0  0  0  0
  183.6260  179.9400  139.1320 C   0  0  0  0  0  2  0  0  0  0  0  0
  182.4950  178.9380  138.9410 C   0  0  0  0  0  2  0  0  0  0  0  0
  184.7200  179.3830  139.8520 O   0  0  0  0  0  0  0  0  0  0  0  0
  182.9790  177.5390  138.5810 C   0  0  0  0  0  2  0  0  0  0  0  0
  188.0250  177.9350  139.0800 C   0  0  0  0  0  0  0  0  0  0  0  0
  186.4250  177.0920  137.4650 C   0  0  0  0  0  3  0  0  0  0  0  0
  184.0800  177.5670  137.6760 O   0  0  0  0  0  0  0  0  0  0  0  0
  186.9980  178.6350  139.7200 C   0  0  0  0  0  3  0  0  0  0  0  0
  185.3910  177.7680  138.1200 C   0  0  0  0  0  0  0  0  0  0  0  0
  187.3760  177.7280  143.2500 C   0  0  0  0  0  2  0  0  0  0  0  0
  188.8860  177.5190  143.2820 C   0  0  0  0  0  0  0  0  0  0  0  0
  187.9630  176.3820  142.8770 C   0  0  0  0  0  2  0  0  0  0  0  0
  189.6110  177.2160  144.5720 C   0  0  0  0  0  0  0  0  0  0  0  0
  189.0370  177.5030  145.8290 C   0  0  0  0  0  0  0  0  0  0  0  0
  190.9450  176.7910  144.5090 C   0  0  0  0  0  3  0  0  0  0  0  0
  189.7980  177.3380  146.9980 C   0  0  0  0  0  0  0  0  0  0  0  0
  189.2510  177.6170  148.2080 F   0  0  0  0  0  0  0  0  0  0  0  0
  187.3880  178.1070  145.9690 Cl  0  0  0  0  0  0  0  0  0  0  0  0
  191.1270  176.9030  146.9260 C   0  0  0  0  0  0  0  0  0  0  0  0
  191.6950  176.6280  145.6740 C   0  0  0  0  0  3  0  0  0  0  0  0
  191.8640  176.7610  148.1060 O   0  0  0  0  0  0  0  0  0  0  0  0
  192.8350  175.7390  148.2880 C   0  0  0  0  0  1  0  0  0  0  0  0
  1 20  1  1  0  0  0
  2  6  1  0  0  0  0
  3  7  1  0  0  0  0
  3  1  1  0  0  0  0
  4  3  1  0  0  0  0
  5  2  1  0  0  0  0
  5  4  1  0  0  0  0
  6  7  1  0  0  0  0
  7  1  1  0  0  0  0
  8 14  1  0  0  0  0
  9 17  1  0  0  0  0
  9 12  1  0  0  0  0
 10 12  1  0  0  0  0
 11 10  1  0  0  0  0
 13 11  1  0  0  0  0
 14  4  1  0  0  0  0
 14 17  2  0  0  0  0
 15  8  2  0  0  0  0
 15 18  1  0  0  0  0
 16 18  1  0  0  0  0
 16 13  1  0  0  0  0
 18  9  2  0  0  0  0
 19 20  1  0  0  0  0
 20 22  1  0  0  0  0
 21 19  1  0  0  0  0
 21 20  1  0  0  0  0
 22 23  1  0  0  0  0
 23 27  1  0  0  0  0
 23 25  2  0  0  0  0
 24 22  2  0  0  0  0
 24 29  1  0  0  0  0
 25 26  1  0  0  0  0
 28 25  1  0  0  0  0
 28 30  1  0  0  0  0
 29 28  2  0  0  0  0
 30 31  1  0  0  0  0
M  END
>  <MODEL>
2

>  <REMARK>
 VINA RESULT:      -9.2      1.956      2.613
  Name = 
  4 active torsions:
  status: ('A' for Active; 'I' for Inactive)
    1  A    between atoms: N_1  and  C_11
    2  A    between atoms: C_3  and  C_11
    3  A    between atoms: O_13  and  C_22
    4  A    between atoms: C_14  and  C_24
                            x       y       z     vdW  Elec       q    Type
                         _______ _______ _______ _____ _____    ______ ____

>  <TORSDO>
F 4

$$$$
=
 OpenBabel11062415013D

 31 36  0  0  1  0  0  0  0  0999 V2000
  184.7170  179.3300  141.8050 N   0  0  2  0  0  0  0  0  0  0  0  0
  183.0930  178.9800  144.8020 C   0  0  0  0  0  2  0  0  0  0  0  0
  184.8220  178.1850  142.7270 C   0  0  1  0  0  3  0  0  0  0  0  0
  185.4870  178.6520  144.0170 C   0  0  1  0  0  3  0  0  0  0  0  0
  184.5240  178.5990  145.2090 C   0  0  0  0  0  2  0  0  0  0  0  0
  183.0800  179.7020  143.5300 N   0  0  0  0  0  2  0  0  0  0  0  0
  183.5050  178.7910  142.4600 C   0  0  1  0  0  3  0  0  0  0  0  0
  187.2470  177.0070  143.2500 C   0  0  0  0  0  3  0  0  0  0  0  0
  188.7540  177.5240  145.5570 C   0  0  0  0  0  0  0  0  0  0  0  0
  190.2740  176.7550  147.3430 C   0  0  0  0  0  2  0  0  0  0  0  0
  191.6620  176.7460  146.7170 C   0  0  0  0  0  2  0  0  0  0  0  0
  189.4290  177.7410  146.7620 O   0  0  0  0  0  0  0  0  0  0  0  0
  191.6430  176.9010  145.2020 C   0  0  0  0  0  2  0  0  0  0  0  0
  186.7460  177.8730  144.2320 C   0  0  0  0  0  0  0  0  0  0  0  0
  188.5010  176.4150  143.4100 C   0  0  0  0  0  3  0  0  0  0  0  0
  190.5750  176.1770  144.6000 O   0  0  0  0  0  0  0  0  0  0  0  0
  187.5080  178.1310  145.3760 C   0  0  0  0  0  3  0  0  0  0  0  0
  189.2770  176.6940  144.5400 C   0  0  0  0  0  0  0  0  0  0  0  0
  183.7080  178.1390  139.7470 C   0  0  0  0  0  2  0  0  0  0  0  0
  184.8930  178.7900  140.4520 C   0  0  0  0  0  0  0  0  0  0  0  0
  184.0630  179.5830  139.4570 C   0  0  0  0  0  2  0  0  0  0  0  0
  186.3070  178.5870  139.9620 C   0  0  0  0  0  0  0  0  0  0  0  0
  186.5830  177.9290  138.7440 C   0  0  0  0  0  0  0  0  0  0  0  0
  187.3680  178.9190  140.8160 C   0  0  0  0  0  3  0  0  0  0  0  0
  187.9100  177.6370  138.3930 C   0  0  0  0  0  0  0  0  0  0  0  0
  188.1790  176.9990  137.2250 F   0  0  0  0  0  0  0  0  0  0  0  0
  185.2880  177.4240  137.6610 Cl  0  0  0  0  0  0  0  0  0  0  0  0
  188.9650  177.9810  139.2480 C   0  0  0  0  0  0  0  0  0  0  0  0
  188.6850  178.6270  140.4610 C   0  0  0  0  0  3  0  0  0  0  0  0
  190.2750  177.6640  138.8780 O   0  0  0  0  0  0  0  0  0  0  0  0
  191.2240  177.1280  139.7910 C   0  0  0  0  0  1  0  0  0  0  0  0
  1 20  1  6  0  0  0
  1  7  1  0  0  0  0
  1  3  1  0  0  0  0
  2  5  1  0  0  0  0
  3  4  1  0  0  0  0
  4 14  1  0  0  0  0
  4  5  1  0  0  0  0
  6  2  1  0  0  0  0
  7  3  1  0  0  0  0
  7  6  1  0  0  0  0
  8 15  2  0  0  0  0
  8 14  1  0  0  0  0
  9 12  1  0  0  0  0
 11 10  1  0  0  0  0
 12 10  1  0  0  0  0
 13 11  1  0  0  0  0
 14 17  2  0  0  0  0
 15 18  1  0  0  0  0
 16 13  1  0  0  0  0
 17  9  1  0  0  0  0
 18 16  1  0  0  0  0
 18  9  2  0  0  0  0
 19 20  1  0  0  0  0
 21 19  1  0  0  0  0
 21 20  1  0  0  0  0
 22 20  1  0  0  0  0
 22 24  1  0  0  0  0
 23 22  2  0  0  0  0
 25 23  1  0  0  0  0
 25 28  2  0  0  0  0
 26 25  1  0  0  0  0
 27 23  1  0  0  0  0
 28 29  1  0  0  0  0
 29 24  2  0  0  0  0
 30 28  1  0  0  0  0
 30 31  1  0  0  0  0
M  END
>  <MODEL>
3

>  <REMARK>
 VINA RESULT:      -9.1      3.943      7.654
  Name = 
  4 active torsions:
  status: ('A' for Active; 'I' for Inactive)
    1  A    between atoms: N_1  and  C_11
    2  A    between atoms: C_3  and  C_11
    3  A    between atoms: O_13  and  C_22
    4  A    between atoms: C_14  and  C_24
                            x       y       z     vdW  Elec       q    Type
                         _______ _______ _______ _____ _____    ______ ____

>  <TORSDO>
F 4

$$$$
=
 OpenBabel11062415013D

 31 36  0  0  1  0  0  0  0  0999 V2000
  190.0510  176.5940  142.3270 N   0  0  2  0  0  0  0  0  0  0  0  0
  191.4810  177.0740  145.4040 C   0  0  0  0  0  2  0  0  0  0  0  0
  189.6530  177.6000  143.3290 C   0  0  1  0  0  3  0  0  0  0  0  0
  189.0950  176.8800  144.5520 C   0  0  1  0  0  3  0  0  0  0  0  0
  189.9940  177.0640  145.7820 C   0  0  0  0  0  2  0  0  0  0  0  0
  191.6950  176.4860  144.0820 N   0  0  0  0  0  2  0  0  0  0  0  0
  191.0820  177.3530  143.0680 C   0  0  1  0  0  3  0  0  0  0  0  0
  187.2050  177.6190  146.0580 C   0  0  0  0  0  3  0  0  0  0  0  0
  185.5840  178.0810  143.8180 C   0  0  0  0  0  0  0  0  0  0  0  0
  183.3630  178.0770  142.7410 C   0  0  0  0  0  2  0  0  0  0  0  0
  182.6840  179.3570  143.2090 C   0  0  0  0  0  2  0  0  0  0  0  0
  184.7790  178.2110  142.6820 O   0  0  0  0  0  0  0  0  0  0  0  0
  183.4080  180.0380  144.3630 C   0  0  0  0  0  2  0  0  0  0  0  0
  187.6800  177.3120  144.7770 C   0  0  0  0  0  0  0  0  0  0  0  0
  185.9320  178.1700  146.2210 C   0  0  0  0  0  3  0  0  0  0  0  0
  183.9150  179.1010  145.3090 O   0  0  0  0  0  0  0  0  0  0  0  0
  186.8690  177.5530  143.6640 C   0  0  0  0  0  3  0  0  0  0  0  0
  185.1290  178.4370  145.1080 C   0  0  0  0  0  0  0  0  0  0  0  0
  188.3440  177.5610  140.6460 C   0  0  0  0  0  2  0  0  0  0  0  0
  189.7760  177.1880  141.0130 C   0  0  0  0  0  0  0  0  0  0  0  0
  189.2910  178.6190  141.1740 C   0  0  0  0  0  2  0  0  0  0  0  0
  190.8550  177.0790  139.9620 C   0  0  0  0  0  0  0  0  0  0  0  0
  190.5900  176.5510  138.6800 C   0  0  0  0  0  0  0  0  0  0  0  0
  192.1790  177.3600  140.3260 C   0  0  0  0  0  3  0  0  0  0  0  0
  191.6470  176.3370  137.7810 C   0  0  0  0  0  0  0  0  0  0  0  0
  191.3960  175.8240  136.5490 F   0  0  0  0  0  0  0  0  0  0  0  0
  188.9560  176.1120  138.1890 Cl  0  0  0  0  0  0  0  0  0  0  0  0
  192.9660  176.6290  138.1500 C   0  0  0  0  0  0  0  0  0  0  0  0
  193.2240  177.1460  139.4280 C   0  0  0  0  0  3  0  0  0  0  0  0
  193.9990  176.3920  137.2390 O   0  0  0  0  0  0  0  0  0  0  0  0
  194.5940  175.1130  137.0660 C   0  0  0  0  0  1  0  0  0  0  0  0
  1 20  1  6  0  0  0
  1  7  1  0  0  0  0
  1  3  1  0  0  0  0
  2  5  1  0  0  0  0
  3  4  1  0  0  0  0
  4 14  1  0  0  0  0
  4  5  1  0  0  0  0
  6  2  1  0  0  0  0
  7  3  1  0  0  0  0
  7  6  1  0  0  0  0
  8 15  1  0  0  0  0
  9 18  1  0  0  0  0
 10 11  1  0  0  0  0
 11 13  1  0  0  0  0
 12 10  1  0  0  0  0
 12  9  1  0  0  0  0
 13 16  1  0  0  0  0
 14  8  2  0  0  0  0
 17  9  2  0  0  0  0
 17 14  1  0  0  0  0
 18 16  1  0  0  0  0
 18 15  2  0  0  0  0
 19 20  1  0  0  0  0
 19 21  1  0  0  0  0
 20 21  1  0  0  0  0
 22 24  1  0  0  0  0
 22 20  1  0  0  0  0
 23 22  2  0  0  0  0
 25 28  2  0  0  0  0
 25 23  1  0  0  0  0
 26 25  1  0  0  0  0
 27 23  1  0  0  0  0
 28 29  1  0  0  0  0
 29 24  2  0  0  0  0
 30 28  1  0  0  0  0
 31 30  1  0  0  0  0
M  END
>  <MODEL>
4

>  <REMARK>
 VINA RESULT:      -9.1      4.198      6.458
  Name = 
  4 active torsions:
  status: ('A' for Active; 'I' for Inactive)
    1  A    between atoms: N_1  and  C_11
    2  A    between atoms: C_3  and  C_11
    3  A    between atoms: O_13  and  C_22
    4  A    between atoms: C_14  and  C_24
                            x       y       z     vdW  Elec       q    Type
                         _______ _______ _______ _____ _____    ______ ____

>  <TORSDO>
F 4

$$$$
=
 OpenBabel11062415013D

 31 36  0  0  1  0  0  0  0  0999 V2000
  188.0220  177.1020  145.7290 N   0  0  2  0  0  0  0  0  0  0  0  0
  185.2800  178.6600  147.0710 C   0  0  0  0  0  2  0  0  0  0  0  0
  187.3830  178.3310  145.2270 C   0  0  1  0  0  3  0  0  0  0  0  0
  185.9850  177.9860  144.7240 C   0  0  1  0  0  3  0  0  0  0  0  0
  184.8920  178.6320  145.5860 C   0  0  0  0  0  2  0  0  0  0  0  0
  186.3530  177.7060  147.3550 N   0  0  0  0  0  2  0  0  0  0  0  0
  187.5770  178.1490  146.6760 C   0  0  1  0  0  3  0  0  0  0  0  0
  187.0260  178.5500  142.4910 C   0  0  0  0  0  3  0  0  0  0  0  0
  184.4970  178.4860  141.2820 C   0  0  0  0  0  0  0  0  0  0  0  0
  182.9020  179.3360  139.6010 C   0  0  0  0  0  2  0  0  0  0  0  0
  183.2890  178.6550  138.2950 C   0  0  0  0  0  2  0  0  0  0  0  0
  183.2110  178.5350  140.7360 O   0  0  0  0  0  0  0  0  0  0  0  0
  184.6400  177.9530  138.3560 C   0  0  0  0  0  2  0  0  0  0  0  0
  185.8830  178.3340  143.2730 C   0  0  0  0  0  0  0  0  0  0  0  0
  186.9100  178.7160  141.1100 C   0  0  0  0  0  3  0  0  0  0  0  0
  185.6020  178.7000  139.0950 O   0  0  0  0  0  0  0  0  0  0  0  0
  184.6260  178.2960  142.6600 C   0  0  0  0  0  3  0  0  0  0  0  0
  185.6570  178.6510  140.4910 C   0  0  0  0  0  0  0  0  0  0  0  0
  190.3820  177.9020  146.4140 C   0  0  0  0  0  2  0  0  0  0  0  0
  189.4510  177.2220  145.4160 C   0  0  0  0  0  0  0  0  0  0  0  0
  190.2740  176.3910  146.3870 C   0  0  0  0  0  2  0  0  0  0  0  0
  189.8710  176.9860  143.9840 C   0  0  0  0  0  0  0  0  0  0  0  0
  190.8770  177.7630  143.3690 C   0  0  0  0  0  0  0  0  0  0  0  0
  189.1330  176.0830  143.2080 C   0  0  0  0  0  3  0  0  0  0  0  0
  191.1390  177.6070  141.9990 C   0  0  0  0  0  0  0  0  0  0  0  0
  192.1020  178.3550  141.4030 F   0  0  0  0  0  0  0  0  0  0  0  0
  191.7920  178.9640  144.2770 Cl  0  0  0  0  0  0  0  0  0  0  0  0
  190.4020  176.6950  141.2330 C   0  0  0  0  0  0  0  0  0  0  0  0
  189.4000  175.9320  141.8470 C   0  0  0  0  0  3  0  0  0  0  0  0
  190.6770  176.5710  139.8680 O   0  0  0  0  0  0  0  0  0  0  0  0
  190.0410  177.3700  138.8790 C   0  0  0  0  0  1  0  0  0  0  0  0
  1 20  1  6  0  0  0
  1  7  1  0  0  0  0
  2  6  1  0  0  0  0
  3  1  1  0  0  0  0
  3  7  1  0  0  0  0
  4  3  1  0  0  0  0
  4  5  1  0  0  0  0
  5  2  1  0  0  0  0
  7  6  1  0  0  0  0
  8 14  1  0  0  0  0
  9 17  1  0  0  0  0
 10 12  1  0  0  0  0
 11 13  1  0  0  0  0
 11 10  1  0  0  0  0
 12  9  1  0  0  0  0
 13 16  1  0  0  0  0
 14  4  1  0  0  0  0
 15  8  2  0  0  0  0
 16 18  1  0  0  0  0
 17 14  2  0  0  0  0
 18 15  1  0  0  0  0
 18  9  2  0  0  0  0
 20 21  1  0  0  0  0
 20 19  1  0  0  0  0
 21 19  1  0  0  0  0
 22 20  1  0  0  0  0
 23 22  1  0  0  0  0
 23 27  1  0  0  0  0
 24 22  2  0  0  0  0
 25 23  2  0  0  0  0
 26 25  1  0  0  0  0
 28 29  2  0  0  0  0
 28 25  1  0  0  0  0
 29 24  1  0  0  0  0
 30 28  1  0  0  0  0
 31 30  1  0  0  0  0
M  END
>  <MODEL>
5

>  <REMARK>
 VINA RESULT:      -9.1      2.996      4.971
  Name = 
  4 active torsions:
  status: ('A' for Active; 'I' for Inactive)
    1  A    between atoms: N_1  and  C_11
    2  A    between atoms: C_3  and  C_11
    3  A    between atoms: O_13  and  C_22
    4  A    between atoms: C_14  and  C_24
                            x       y       z     vdW  Elec       q    Type
                         _______ _______ _______ _____ _____    ______ ____

>  <TORSDO>
F 4

$$$$
=
 OpenBabel11062415013D

 31 36  0  0  1  0  0  0  0  0999 V2000
  186.8670  177.5470  145.8250 N   0  0  2  0  0  0  0  0  0  0  0  0
  183.7960  179.0670  145.8200 C   0  0  0  0  0  2  0  0  0  0  0  0
  186.4560  178.6820  144.9800 C   0  0  1  0  0  3  0  0  0  0  0  0
  185.3700  178.2110  144.0190 C   0  0  1  0  0  3  0  0  0  0  0  0
  184.0180  178.8730  144.3130 C   0  0  0  0  0  2  0  0  0  0  0  0
  184.6870  178.2080  146.6010 N   0  0  0  0  0  2  0  0  0  0  0  0
  186.0720  178.6520  146.4030 C   0  0  1  0  0  3  0  0  0  0  0  0
  187.1720  178.7270  142.3230 C   0  0  0  0  0  3  0  0  0  0  0  0
  185.3840  178.1750  140.2350 C   0  0  0  0  0  0  0  0  0  0  0  0
  184.5410  178.6220  137.9590 C   0  0  0  0  0  2  0  0  0  0  0  0
  185.4970  177.8950  137.0230 C   0  0  0  0  0  2  0  0  0  0  0  0
  184.4370  177.9810  139.2250 O   0  0  0  0  0  0  0  0  0  0  0  0
  186.7680  177.4140  137.7120 C   0  0  0  0  0  2  0  0  0  0  0  0
  185.8380  178.4100  142.6110 C   0  0  0  0  0  0  0  0  0  0  0  0
  187.6170  178.7520  140.9990 C   0  0  0  0  0  3  0  0  0  0  0  0
  187.2600  178.3610  138.6560 O   0  0  0  0  0  0  0  0  0  0  0  0
  184.9550  178.1290  141.5650 C   0  0  0  0  0  3  0  0  0  0  0  0
  186.7420  178.4430  139.9530 C   0  0  0  0  0  0  0  0  0  0  0  0
  188.7690  178.2240  147.4370 C   0  0  0  0  0  2  0  0  0  0  0  0
  188.3030  177.7180  146.0770 C   0  0  0  0  0  0  0  0  0  0  0  0
  188.7700  176.7390  147.1410 C   0  0  0  0  0  2  0  0  0  0  0  0
  189.2230  177.7210  144.8790 C   0  0  0  0  0  0  0  0  0  0  0  0
  189.1010  176.7650  143.8480 C   0  0  0  0  0  0  0  0  0  0  0  0
  190.3200  178.5940  144.8770 C   0  0  0  0  0  3  0  0  0  0  0  0
  190.0610  176.7150  142.8240 C   0  0  0  0  0  0  0  0  0  0  0  0
  189.9490  175.7940  141.8340 F   0  0  0  0  0  0  0  0  0  0  0  0
  187.7830  175.5960  143.8330 Cl  0  0  0  0  0  0  0  0  0  0  0  0
  191.1480  177.5980  142.8250 C   0  0  0  0  0  0  0  0  0  0  0  0
  191.2690  178.5390  143.8570 C   0  0  0  0  0  3  0  0  0  0  0  0
  192.0950  177.5150  141.8000 O   0  0  0  0  0  0  0  0  0  0  0  0
  191.7450  177.5560  140.4230 C   0  0  0  0  0  1  0  0  0  0  0  0
  1 20  1  1  0  0  0
  1  7  1  0  0  0  0
  2  6  1  0  0  0  0
  3  1  1  0  0  0  0
  3  7  1  0  0  0  0
  4  5  1  0  0  0  0
  4  3  1  0  0  0  0
  5  2  1  0  0  0  0
  7  6  1  0  0  0  0
  8 14  1  0  0  0  0
  9 17  1  0  0  0  0
 10 12  1  0  0  0  0
 11 13  1  0  0  0  0
 11 10  1  0  0  0  0
 12  9  1  0  0  0  0
 13 16  1  0  0  0  0
 14  4  1  0  0  0  0
 15  8  2  0  0  0  0
 16 18  1  0  0  0  0
 17 14  2  0  0  0  0
 18  9  2  0  0  0  0
 18 15  1  0  0  0  0
 20 21  1  0  0  0  0
 20 19  1  0  0  0  0
 21 19  1  0  0  0  0
 22 20  1  0  0  0  0
 23 22  2  0  0  0  0
 24 22  1  0  0  0  0
 25 28  2  0  0  0  0
 25 23  1  0  0  0  0
 26 25  1  0  0  0  0
 27 23  1  0  0  0  0
 28 29  1  0  0  0  0
 29 24  2  0  0  0  0
 30 28  1  0  0  0  0
 31 30  1  0  0  0  0
M  END
>  <MODEL>
6

>  <REMARK>
 VINA RESULT:      -9.0      3.075      4.908
  Name = 
  4 active torsions:
  status: ('A' for Active; 'I' for Inactive)
    1  A    between atoms: N_1  and  C_11
    2  A    between atoms: C_3  and  C_11
    3  A    between atoms: O_13  and  C_22
    4  A    between atoms: C_14  and  C_24
                            x       y       z     vdW  Elec       q    Type
                         _______ _______ _______ _____ _____    ______ ____

>  <TORSDO>
F 4

$$$$
=
 OpenBabel11062415013D

 31 36  0  0  1  0  0  0  0  0999 V2000
  190.3080  177.4320  141.9780 N   0  0  2  0  0  0  0  0  0  0  0  0
  190.8770  177.3960  138.5990 C   0  0  0  0  0  2  0  0  0  0  0  0
  189.3780  176.9530  140.9410 C   0  0  1  0  0  3  0  0  0  0  0  0
  188.9500  178.1370  140.0800 C   0  0  1  0  0  3  0  0  0  0  0  0
  189.4750  178.0190  138.6440 C   0  0  0  0  0  2  0  0  0  0  0  0
  191.5310  177.4730  139.9060 N   0  0  0  0  0  2  0  0  0  0  0  0
  190.8100  176.6130  140.8520 C   0  0  1  0  0  3  0  0  0  0  0  0
  186.8380  178.7150  141.3420 C   0  0  0  0  0  3  0  0  0  0  0  0
  185.3380  178.4240  138.9920 C   0  0  0  0  0  0  0  0  0  0  0  0
  183.2550  177.7630  137.8450 C   0  0  0  0  0  2  0  0  0  0  0  0
  182.2990  178.9340  138.0360 C   0  0  0  0  0  2  0  0  0  0  0  0
  184.6150  178.1790  137.8200 O   0  0  0  0  0  0  0  0  0  0  0  0
  182.7790  179.9440  139.0690 C   0  0  0  0  0  2  0  0  0  0  0  0
  187.4640  178.2940  140.1620 C   0  0  0  0  0  0  0  0  0  0  0  0
  185.4720  179.0060  141.3470 C   0  0  0  0  0  3  0  0  0  0  0  0
  183.3870  179.3170  140.1940 O   0  0  0  0  0  0  0  0  0  0  0  0
  186.7110  178.1590  138.9920 C   0  0  0  0  0  3  0  0  0  0  0  0
  184.7220  178.8980  140.1720 C   0  0  0  0  0  0  0  0  0  0  0  0
  190.5510  175.1790  143.2180 C   0  0  0  0  0  2  0  0  0  0  0  0
  190.0510  176.6180  143.1720 C   0  0  0  0  0  0  0  0  0  0  0  0
  191.3580  176.2820  143.8710 C   0  0  0  0  0  2  0  0  0  0  0  0
  189.0120  177.1210  144.1460 C   0  0  0  0  0  0  0  0  0  0  0  0
  189.3590  177.5510  145.4450 C   0  0  0  0  0  0  0  0  0  0  0  0
  187.6580  177.0030  143.8040 C   0  0  0  0  0  3  0  0  0  0  0  0
  188.3510  177.8780  146.3650 C   0  0  0  0  0  0  0  0  0  0  0  0
  188.6820  178.2880  147.6160 F   0  0  0  0  0  0  0  0  0  0  0  0
  191.0420  177.6520  145.9570 Cl  0  0  0  0  0  0  0  0  0  0  0  0
  187.0010  177.7670  146.0110 C   0  0  0  0  0  0  0  0  0  0  0  0
  186.6610  177.3300  144.7230 C   0  0  0  0  0  3  0  0  0  0  0  0
  186.0190  178.0860  146.9540 O   0  0  0  0  0  0  0  0  0  0  0  0
  184.7550  178.6290  146.5940 C   0  0  0  0  0  1  0  0  0  0  0  0
  1 20  1  1  0  0  0
  2  5  1  0  0  0  0
  2  6  1  0  0  0  0
  3  1  1  0  0  0  0
  4 14  1  0  0  0  0
  4  3  1  0  0  0  0
  5  4  1  0  0  0  0
  6  7  1  0  0  0  0
  7  3  1  0  0  0  0
  7  1  1  0  0  0  0
  8 15  1  0  0  0  0
  9 18  1  0  0  0  0
 10 11  1  0  0  0  0
 11 13  1  0  0  0  0
 12 10  1  0  0  0  0
 12  9  1  0  0  0  0
 13 16  1  0  0  0  0
 14  8  2  0  0  0  0
 17  9  2  0  0  0  0
 17 14  1  0  0  0  0
 18 16  1  0  0  0  0
 18 15  2  0  0  0  0
 19 21  1  0  0  0  0
 20 19  1  0  0  0  0
 20 21  1  0  0  0  0
 20 22  1  0  0  0  0
 22 23  1  0  0  0  0
 23 27  1  0  0  0  0
 23 25  2  0  0  0  0
 24 22  2  0  0  0  0
 24 29  1  0  0  0  0
 25 26  1  0  0  0  0
 28 25  1  0  0  0  0
 28 30  1  0  0  0  0
 29 28  2  0  0  0  0
 31 30  1  0  0  0  0
M  END
>  <MODEL>
7

>  <REMARK>
 VINA RESULT:      -8.9      2.460      3.742
  Name = 
  4 active torsions:
  status: ('A' for Active; 'I' for Inactive)
    1  A    between atoms: N_1  and  C_11
    2  A    between atoms: C_3  and  C_11
    3  A    between atoms: O_13  and  C_22
    4  A    between atoms: C_14  and  C_24
                            x       y       z     vdW  Elec       q    Type
                         _______ _______ _______ _____ _____    ______ ____

>  <TORSDO>
F 4

$$$$
=
 OpenBabel11062415013D

 31 36  0  0  1  0  0  0  0  0999 V2000
  190.1910  177.4370  141.9010 N   0  0  2  0  0  0  0  0  0  0  0  0
  190.2870  177.4910  138.4760 C   0  0  0  0  0  2  0  0  0  0  0  0
  189.0840  177.0930  140.9910 C   0  0  1  0  0  3  0  0  0  0  0  0
  188.6640  178.3480  140.2330 C   0  0  1  0  0  3  0  0  0  0  0  0
  188.9730  178.2420  138.7350 C   0  0  0  0  0  2  0  0  0  0  0  0
  191.1180  177.4490  139.6800 N   0  0  0  0  0  2  0  0  0  0  0  0
  190.4490  176.6230  140.6930 C   0  0  1  0  0  3  0  0  0  0  0  0
  186.2570  178.6280  139.5150 C   0  0  0  0  0  3  0  0  0  0  0  0
  185.4810  178.9350  142.1920 C   0  0  0  0  0  0  0  0  0  0  0  0
  184.0230  179.9640  143.8970 C   0  0  0  0  0  2  0  0  0  0  0  0
  182.7240  179.1690  143.8520 C   0  0  0  0  0  2  0  0  0  0  0  0
  185.1480  179.1740  143.5290 O   0  0  0  0  0  0  0  0  0  0  0  0
  182.6170  178.2540  142.6390 C   0  0  0  0  0  2  0  0  0  0  0  0
  187.2260  178.6430  140.5270 C   0  0  0  0  0  0  0  0  0  0  0  0
  184.9040  178.7490  139.8390 C   0  0  0  0  0  3  0  0  0  0  0  0
  183.1340  178.8610  141.4590 O   0  0  0  0  0  0  0  0  0  0  0  0
  186.8300  178.7880  141.8590 C   0  0  0  0  0  3  0  0  0  0  0  0
  184.5030  178.8670  141.1730 C   0  0  0  0  0  0  0  0  0  0  0  0
  190.5050  175.1560  143.0730 C   0  0  0  0  0  2  0  0  0  0  0  0
  190.0190  176.6010  143.0950 C   0  0  0  0  0  0  0  0  0  0  0  0
  191.3730  176.2380  143.6830 C   0  0  0  0  0  2  0  0  0  0  0  0
  189.0640  177.0930  144.1570 C   0  0  0  0  0  0  0  0  0  0  0  0
  189.5250  177.7160  145.3370 C   0  0  0  0  0  0  0  0  0  0  0  0
  187.7040  176.7770  144.0360 C   0  0  0  0  0  3  0  0  0  0  0  0
  188.6170  178.0320  146.3600 C   0  0  0  0  0  0  0  0  0  0  0  0
  189.0570  178.6270  147.4980 F   0  0  0  0  0  0  0  0  0  0  0  0
  191.2330  178.0750  145.5770 Cl  0  0  0  0  0  0  0  0  0  0  0  0
  187.2580  177.7210  146.2270 C   0  0  0  0  0  0  0  0  0  0  0  0
  186.8070  177.0940  145.0560 C   0  0  0  0  0  3  0  0  0  0  0  0
  186.3800  178.0350  147.2680 O   0  0  0  0  0  0  0  0  0  0  0  0
  184.9900  178.2530  147.0640 C   0  0  0  0  0  1  0  0  0  0  0  0
  1 20  1  1  0  0  0
  2  5  1  0  0  0  0
  2  6  1  0  0  0  0
  3  1  1  0  0  0  0
  4 14  1  0  0  0  0
  4  3  1  0  0  0  0
  5  4  1  0  0  0  0
  6  7  1  0  0  0  0
  7  3  1  0  0  0  0
  7  1  1  0  0  0  0
  8 15  2  0  0  0  0
  8 14  1  0  0  0  0
  9 12  1  0  0  0  0
 11 10  1  0  0  0  0
 12 10  1  0  0  0  0
 13 11  1  0  0  0  0
 14 17  2  0  0  0  0
 15 18  1  0  0  0  0
 16 13  1  0  0  0  0
 17  9  1  0  0  0  0
 18 16  1  0  0  0  0
 18  9  2  0  0  0  0
 19 20  1  0  0  0  0
 19 21  1  0  0  0  0
 20 21  1  0  0  0  0
 20 22  1  0  0  0  0
 22 23  1  0  0  0  0
 23 27  1  0  0  0  0
 23 25  2  0  0  0  0
 24 22  2  0  0  0  0
 24 29  1  0  0  0  0
 25 26  1  0  0  0  0
 28 25  1  0  0  0  0
 28 30  1  0  0  0  0
 29 28  2  0  0  0  0
 31 30  1  0  0  0  0
M  END
>  <MODEL>
8

>  <REMARK>
 VINA RESULT:      -8.9      2.116      3.163
  Name = 
  4 active torsions:
  status: ('A' for Active; 'I' for Inactive)
    1  A    between atoms: N_1  and  C_11
    2  A    between atoms: C_3  and  C_11
    3  A    between atoms: O_13  and  C_22
    4  A    between atoms: C_14  and  C_24
                            x       y       z     vdW  Elec       q    Type
                         _______ _______ _______ _____ _____    ______ ____

>  <TORSDO>
F 4

$$$$
=
 OpenBabel11062415013D

 31 36  0  0  1  0  0  0  0  0999 V2000
  190.4650  174.9790  136.8280 N   0  0  2  0  0  0  0  0  0  0  0  0
  193.5250  176.3590  137.5230 C   0  0  0  0  0  2  0  0  0  0  0  0
  190.7160  176.3440  137.3260 C   0  0  1  0  0  3  0  0  0  0  0  0
  191.2930  176.2540  138.7340 C   0  0  1  0  0  3  0  0  0  0  0  0
  192.7460  176.7440  138.7890 C   0  0  0  0  0  2  0  0  0  0  0  0
  192.8530  175.2800  136.7970 N   0  0  0  0  0  2  0  0  0  0  0  0
  191.5780  175.7810  136.2710 C   0  0  1  0  0  3  0  0  0  0  0  0
  189.5860  178.0400  139.2660 C   0  0  0  0  0  3  0  0  0  0  0  0
  189.3020  177.0150  141.8600 C   0  0  0  0  0  0  0  0  0  0  0  0
  188.9090  177.3610  144.2720 C   0  0  0  0  0  2  0  0  0  0  0  0
  187.4010  177.5200  144.4170 C   0  0  0  0  0  2  0  0  0  0  0  0
  189.2570  176.5300  143.1700 O   0  0  0  0  0  0  0  0  0  0  0  0
  186.6830  177.7180  143.0890 C   0  0  0  0  0  2  0  0  0  0  0  0
  190.3870  176.9700  139.6850 C   0  0  0  0  0  0  0  0  0  0  0  0
  188.6350  178.5860  140.1300 C   0  0  0  0  0  3  0  0  0  0  0  0
  187.4150  178.5560  142.2000 O   0  0  0  0  0  0  0  0  0  0  0  0
  190.2330  176.4590  140.9780 C   0  0  0  0  0  3  0  0  0  0  0  0
  188.4600  178.0590  141.4140 C   0  0  0  0  0  0  0  0  0  0  0  0
  189.2820  174.4490  134.5940 C   0  0  0  0  0  2  0  0  0  0  0  0
  189.2630  175.0590  135.9900 C   0  0  0  0  0  0  0  0  0  0  0  0
  188.6940  173.6700  135.7520 C   0  0  0  0  0  2  0  0  0  0  0  0
  188.1890  176.0370  136.4070 C   0  0  0  0  0  0  0  0  0  0  0  0
  188.1430  177.3500  135.8910 C   0  0  0  0  0  0  0  0  0  0  0  0
  187.3210  175.6790  137.4470 C   0  0  0  0  0  3  0  0  0  0  0  0
  187.2160  178.2700  136.4070 C   0  0  0  0  0  0  0  0  0  0  0  0
  187.1720  179.5350  135.9170 F   0  0  0  0  0  0  0  0  0  0  0  0
  189.2550  177.8810  134.6310 Cl  0  0  0  0  0  0  0  0  0  0  0  0
  186.3460  177.9010  137.4400 C   0  0  0  0  0  0  0  0  0  0  0  0
  186.4030  176.5980  137.9540 C   0  0  0  0  0  3  0  0  0  0  0  0
  185.4440  178.8430  137.9430 O   0  0  0  0  0  0  0  0  0  0  0  0
  184.7020  178.6360  139.1380 C   0  0  0  0  0  1  0  0  0  0  0  0
  1 20  1  6  0  0  0
  1  3  1  0  0  0  0
  2  5  1  0  0  0  0
  3  4  1  0  0  0  0
  4  5  1  0  0  0  0
  4 14  1  0  0  0  0
  6  2  1  0  0  0  0
  7  6  1  0  0  0  0
  7  1  1  0  0  0  0
  7  3  1  0  0  0  0
  8 14  2  0  0  0  0
  8 15  1  0  0  0  0
  9 12  1  0  0  0  0
 10 11  1  0  0  0  0
 12 10  1  0  0  0  0
 13 11  1  0  0  0  0
 14 17  1  0  0  0  0
 15 18  2  0  0  0  0
 16 13  1  0  0  0  0
 17  9  2  0  0  0  0
 18  9  1  0  0  0  0
 18 16  1  0  0  0  0
 19 21  1  0  0  0  0
 19 20  1  0  0  0  0
 20 22  1  0  0  0  0
 21 20  1  0  0  0  0
 22 24  1  0  0  0  0
 23 22  2  0  0  0  0
 23 25  1  0  0  0  0
 24 29  2  0  0  0  0
 25 28  2  0  0  0  0
 26 25  1  0  0  0  0
 27 23  1  0  0  0  0
 28 30  1  0  0  0  0
 28 29  1  0  0  0  0
 30 31  1  0  0  0  0
M  END
>  <MODEL>
9

>  <REMARK>
 VINA RESULT:      -8.9      4.883      8.454
  Name = 
  4 active torsions:
  status: ('A' for Active; 'I' for Inactive)
    1  A    between atoms: N_1  and  C_11
    2  A    between atoms: C_3  and  C_11
    3  A    between atoms: O_13  and  C_22
    4  A    between atoms: C_14  and  C_24
                            x       y       z     vdW  Elec       q    Type
                         _______ _______ _______ _____ _____    ______ ____

>  <TORSDO>
F 4

$$$$
