=
 OpenBabel11062414103D

 32 36  0  0  1  0  0  0  0  0999 V2000
  182.2460  178.7330  141.1390 C   0  0  0  0  0  3  0  0  0  0  0  0
  183.6780  176.0010  137.9210 C   0  0  0  0  0  2  0  0  0  0  0  0
  188.0070  178.4420  142.8150 C   0  0  2  0  0  3  0  0  0  0  0  0
  186.0200  178.8930  140.1910 C   0  0  0  0  0  2  0  0  0  0  0  0
  189.9260  177.6000  144.3470 C   0  0  1  0  0  0  0  0  0  0  0  0
  187.6740  178.0970  140.0490 S   0  0  0  0  0  0  0  0  0  0  0  0
  183.3230  177.9060  141.1770 N   0  0  0  0  0  0  0  0  0  0  0  0
  182.9870  176.6180  139.1200 C   0  0  0  0  0  2  0  0  0  0  0  0
  187.5030  176.8750  144.7910 C   0  0  0  0  0  2  0  0  0  0  0  0
  189.5070  178.4650  143.1370 C   0  0  0  0  0  2  0  0  0  0  0  0
  184.9700  179.3660  144.5820 C   0  0  0  0  0  3  0  0  0  0  0  0
  187.1760  178.2060  144.1040 C   0  0  2  0  0  3  0  0  0  0  0  0
  184.3430  177.0970  137.1070 C   0  0  2  0  0  3  0  0  0  0  0  0
  182.1050  179.4600  142.2820 N   0  0  0  0  0  0  0  0  0  0  0  0
  183.6670  179.7200  144.1620 C   0  0  0  0  0  3  0  0  0  0  0  0
  183.1560  179.0790  143.0310 C   0  0  0  0  0  0  0  0  0  0  0  0
  189.9300  178.4010  145.4920 O   0  0  0  0  0  1  0  0  0  0  0  0
  187.7330  177.3870  141.7320 C   0  0  0  0  0  2  0  0  0  0  0  0
  184.9050  178.2990  139.2920 C   0  0  2  0  0  3  0  0  0  0  0  0
  188.9540  176.4260  144.5590 C   0  0  0  0  0  2  0  0  0  0  0  0
  185.1170  177.7260  142.7910 C   0  0  0  0  0  3  0  0  0  0  0  0
  184.0110  177.2740  140.0430 C   0  0  1  0  0  3  0  0  0  0  0  0
  183.8650  178.1220  142.3770 C   0  0  0  0  0  0  0  0  0  0  0  0
  184.8950  176.5310  135.9570 O   0  0  0  0  0  1  0  0  0  0  0  0
  185.7040  178.3800  143.8790 C   0  0  0  0  0  0  0  0  0  0  0  0
  185.4330  177.8010  137.9280 C   0  0  2  0  0  3  0  0  0  0  0  0
  191.9850  176.8570  145.3270 F   0  0  0  0  0  0  0  0  0  0  0  0
  192.0790  177.9550  143.3630 F   0  0  0  0  0  0  0  0  0  0  0  0
  191.2850  175.8520  143.4360 F   0  0  0  0  0  0  0  0  0  0  0  0
  191.3420  177.0570  144.1160 C   0  0  0  0  0  0  0  0  0  0  0  0
  185.9830  178.9850  137.1400 C   0  0  0  0  0  2  0  0  0  0  0  0
  187.3190  178.6320  136.5140 C   0  0  0  0  0  1  0  0  0  0  0  0
  1  7  1  0  0  0  0
  1 14  2  0  0  0  0
  2  8  1  0  0  0  0
  3 18  1  6  0  0  0
  3 10  1  0  0  0  0
  3 12  1  0  0  0  0
  5 20  1  0  0  0  0
  5 17  1  1  0  0  0
  6  4  1  0  0  0  0
  6 18  1  0  0  0  0
  7 23  1  0  0  0  0
 10  5  1  0  0  0  0
 12  9  1  6  0  0  0
 13 24  1  6  0  0  0
 13  2  1  0  0  0  0
 13 26  1  0  0  0  0
 14 16  1  0  0  0  0
 15 11  1  0  0  0  0
 16 15  2  0  0  0  0
 19 22  1  0  0  0  0
 19  4  1  1  0  0  0
 20  9  1  0  0  0  0
 21 25  1  0  0  0  0
 22  8  1  6  0  0  0
 22  7  1  0  0  0  0
 23 21  2  0  0  0  0
 23 16  1  0  0  0  0
 25 12  1  0  0  0  0
 25 11  2  0  0  0  0
 26 31  1  6  0  0  0
 26 19  1  0  0  0  0
 28 30  1  0  0  0  0
 29 30  1  0  0  0  0
 30  5  1  0  0  0  0
 30 27  1  0  0  0  0
 32 31  1  0  0  0  0
M  END
>  <MODEL>
1

>  <REMARK>
 VINA RESULT:      -6.5      0.000      0.000
  Name = 
  2 active torsions:
  status: ('A' for Active; 'I' for Inactive)
    1  A    between atoms: C_1  and  C_32
    2  A    between atoms: C_7  and  C_26
                            x       y       z     vdW  Elec       q    Type
                         _______ _______ _______ _____ _____    ______ ____

>  <TORSDO>
F 2

$$$$
=
 OpenBabel11062414103D

 32 36  0  0  1  0  0  0  0  0999 V2000
  189.0480  178.7300  139.8640 C   0  0  0  0  0  3  0  0  0  0  0  0
  187.4870  176.7680  143.5500 C   0  0  0  0  0  2  0  0  0  0  0  0
  183.4340  177.7600  137.9610 C   0  0  2  0  0  3  0  0  0  0  0  0
  185.2130  178.9180  140.5160 C   0  0  0  0  0  2  0  0  0  0  0  0
  181.6580  176.4830  136.5620 C   0  0  1  0  0  0  0  0  0  0  0  0
  183.5810  178.0960  140.7450 S   0  0  0  0  0  0  0  0  0  0  0  0
  188.0050  177.8650  139.9610 N   0  0  0  0  0  0  0  0  0  0  0  0
  188.2400  177.1190  142.2830 C   0  0  0  0  0  2  0  0  0  0  0  0
  184.1310  175.7980  136.4520 C   0  0  0  0  0  2  0  0  0  0  0  0
  181.9600  177.6310  137.5520 C   0  0  0  0  0  2  0  0  0  0  0  0
  186.5550  178.3920  136.2120 C   0  0  0  0  0  3  0  0  0  0  0  0
  184.3620  177.2680  136.8190 C   0  0  2  0  0  3  0  0  0  0  0  0
  186.7280  177.9900  144.0360 C   0  0  2  0  0  3  0  0  0  0  0  0
  189.2450  179.1730  138.5910 N   0  0  0  0  0  0  0  0  0  0  0  0
  187.8110  178.9010  136.6130 C   0  0  0  0  0  3  0  0  0  0  0  0
  188.2630  178.5730  137.8930 C   0  0  0  0  0  0  0  0  0  0  0  0
  181.7080  176.9900  135.2600 O   0  0  0  0  0  1  0  0  0  0  0  0
  183.6670  177.0070  139.2790 C   0  0  0  0  0  2  0  0  0  0  0  0
  186.2810  178.6120  141.5970 C   0  0  2  0  0  3  0  0  0  0  0  0
  182.6830  175.3440  136.6970 C   0  0  0  0  0  2  0  0  0  0  0  0
  186.3380  177.2170  138.3310 C   0  0  0  0  0  3  0  0  0  0  0  0
  187.2620  177.4850  141.1690 C   0  0  1  0  0  3  0  0  0  0  0  0
  187.5420  177.7630  138.7130 C   0  0  0  0  0  0  0  0  0  0  0  0
  186.1160  177.6850  145.2530 O   0  0  0  0  0  1  0  0  0  0  0  0
  185.8070  177.5650  137.0850 C   0  0  0  0  0  0  0  0  0  0  0  0
  185.6760  178.4240  143.0060 C   0  0  2  0  0  3  0  0  0  0  0  0
  179.2980  176.7560  136.2420 F   0  0  0  0  0  0  0  0  0  0  0  0
  180.0110  175.8860  138.1920 F   0  0  0  0  0  0  0  0  0  0  0  0
  180.1250  174.6620  136.3090 F   0  0  0  0  0  0  0  0  0  0  0  0
  180.2490  175.9390  136.8300 C   0  0  0  0  0  0  0  0  0  0  0  0
  185.0300  179.7320  143.4530 C   0  0  0  0  0  2  0  0  0  0  0  0
  183.7010  179.4620  144.1340 C   0  0  0  0  0  1  0  0  0  0  0  0
  1  7  1  0  0  0  0
  2 13  1  0  0  0  0
  3 10  1  6  0  0  0
  3 18  1  0  0  0  0
  4  6  1  0  0  0  0
  5 17  1  6  0  0  0
  5 20  1  0  0  0  0
  5 30  1  0  0  0  0
  5 10  1  0  0  0  0
  7 22  1  0  0  0  0
  8  2  1  0  0  0  0
  9 20  1  0  0  0  0
 11 15  2  0  0  0  0
 11 25  1  0  0  0  0
 12  9  1  1  0  0  0
 12 25  1  0  0  0  0
 12  3  1  0  0  0  0
 13 24  1  1  0  0  0
 14  1  2  0  0  0  0
 15 16  1  0  0  0  0
 16 14  1  0  0  0  0
 16 23  2  0  0  0  0
 18  6  1  0  0  0  0
 19  4  1  6  0  0  0
 19 26  1  0  0  0  0
 21 23  1  0  0  0  0
 22 19  1  0  0  0  0
 22  8  1  1  0  0  0
 23  7  1  0  0  0  0
 25 21  2  0  0  0  0
 26 31  1  1  0  0  0
 26 13  1  0  0  0  0
 27 30  1  0  0  0  0
 29 30  1  0  0  0  0
 30 28  1  0  0  0  0
 31 32  1  0  0  0  0
M  END
>  <MODEL>
2

>  <REMARK>
 VINA RESULT:      -5.9      4.661      8.513
  Name = 
  2 active torsions:
  status: ('A' for Active; 'I' for Inactive)
    1  A    between atoms: C_1  and  C_32
    2  A    between atoms: C_7  and  C_26
                            x       y       z     vdW  Elec       q    Type
                         _______ _______ _______ _____ _____    ______ ____

>  <TORSDO>
F 2

$$$$
=
 OpenBabel11062414103D

 32 36  0  0  1  0  0  0  0  0999 V2000
  179.7280  176.7610  136.9630 C   0  0  0  0  0  3  0  0  0  0  0  0
  179.5780  180.7460  138.9570 C   0  0  0  0  0  2  0  0  0  0  0  0
  185.5990  177.3280  138.1010 C   0  0  2  0  0  3  0  0  0  0  0  0
  182.5840  177.6300  139.4640 C   0  0  0  0  0  2  0  0  0  0  0  0
  188.0520  177.8030  137.3970 C   0  0  1  0  0  0  0  0  0  0  0  0
  184.0060  178.6830  139.9750 S   0  0  0  0  0  0  0  0  0  0  0  0
  180.7300  177.6730  137.0610 N   0  0  0  0  0  0  0  0  0  0  0  0
  179.5140  179.5960  137.9720 C   0  0  0  0  0  2  0  0  0  0  0  0
  186.1680  177.8720  135.6530 C   0  0  0  0  0  2  0  0  0  0  0  0
  187.0690  177.4330  138.5300 C   0  0  0  0  0  2  0  0  0  0  0  0
  183.7300  175.2820  135.7530 C   0  0  0  0  0  3  0  0  0  0  0  0
  185.4930  176.8890  136.6170 C   0  0  2  0  0  3  0  0  0  0  0  0
  179.7250  180.1920  140.3630 C   0  0  2  0  0  3  0  0  0  0  0  0
  180.1150  175.6270  136.3150 N   0  0  0  0  0  0  0  0  0  0  0  0
  182.3710  174.9090  135.6520 C   0  0  0  0  0  3  0  0  0  0  0  0
  181.4120  175.8510  136.0350 C   0  0  0  0  0  0  0  0  0  0  0  0
  188.5640  176.6260  136.8440 O   0  0  0  0  0  1  0  0  0  0  0  0
  184.8910  178.6640  138.3760 C   0  0  0  0  0  2  0  0  0  0  0  0
  181.2050  178.3340  139.4160 C   0  0  2  0  0  3  0  0  0  0  0  0
  187.3530  178.6140  136.2920 C   0  0  0  0  0  2  0  0  0  0  0  0
  183.0820  177.4970  136.5200 C   0  0  0  0  0  3  0  0  0  0  0  0
  180.8230  178.8100  137.9880 C   0  0  1  0  0  3  0  0  0  0  0  0
  181.7680  177.0930  136.4550 C   0  0  0  0  0  0  0  0  0  0  0  0
  179.6880  181.2530  141.2700 O   0  0  0  0  0  1  0  0  0  0  0  0
  184.0850  176.5740  136.2100 C   0  0  0  0  0  0  0  0  0  0  0  0
  181.0410  179.4150  140.5090 C   0  0  2  0  0  3  0  0  0  0  0  0
  189.4260  179.7610  137.2180 F   0  0  0  0  0  0  0  0  0  0  0  0
  190.3700  177.8670  137.9880 F   0  0  0  0  0  0  0  0  0  0  0  0
  188.9200  179.0030  139.2790 F   0  0  0  0  0  0  0  0  0  0  0  0
  189.2110  178.6240  137.9790 C   0  0  0  0  0  0  0  0  0  0  0  0
  181.0960  178.7520  141.8820 C   0  0  0  0  0  2  0  0  0  0  0  0
  179.8750  177.8780  142.0980 C   0  0  0  0  0  1  0  0  0  0  0  0
  1  7  1  0  0  0  0
  2 13  1  0  0  0  0
  3 18  1  6  0  0  0
  3 10  1  0  0  0  0
  4  6  1  0  0  0  0
  5 17  1  6  0  0  0
  5 30  1  0  0  0  0
  5 10  1  0  0  0  0
  7 22  1  0  0  0  0
  8  2  1  0  0  0  0
  9 20  1  0  0  0  0
 11 25  1  0  0  0  0
 12  9  1  6  0  0  0
 12  3  1  0  0  0  0
 13 26  1  0  0  0  0
 13 24  1  1  0  0  0
 14  1  2  0  0  0  0
 15 11  2  0  0  0  0
 15 16  1  0  0  0  0
 16 14  1  0  0  0  0
 16 23  2  0  0  0  0
 18  6  1  0  0  0  0
 19  4  1  6  0  0  0
 19 26  1  0  0  0  0
 20  5  1  0  0  0  0
 22  8  1  1  0  0  0
 22 19  1  0  0  0  0
 23 21  1  0  0  0  0
 23  7  1  0  0  0  0
 25 21  2  0  0  0  0
 25 12  1  0  0  0  0
 26 31  1  1  0  0  0
 27 30  1  0  0  0  0
 30 28  1  0  0  0  0
 30 29  1  0  0  0  0
 31 32  1  0  0  0  0
M  END
>  <MODEL>
3

>  <REMARK>
 VINA RESULT:      -5.8      4.482      6.926
  Name = 
  2 active torsions:
  status: ('A' for Active; 'I' for Inactive)
    1  A    between atoms: C_1  and  C_32
    2  A    between atoms: C_7  and  C_26
                            x       y       z     vdW  Elec       q    Type
                         _______ _______ _______ _____ _____    ______ ____

>  <TORSDO>
F 2

$$$$
=
 OpenBabel11062414103D

 32 36  0  0  1  0  0  0  0  0999 V2000
  189.5150  176.4480  134.5970 C   0  0  0  0  0  3  0  0  0  0  0  0
  192.1560  172.9100  135.2180 C   0  0  0  0  0  2  0  0  0  0  0  0
  191.0090  177.5350  140.3120 C   0  0  2  0  0  3  0  0  0  0  0  0
  192.2600  176.7130  137.3470 C   0  0  0  0  0  2  0  0  0  0  0  0
  190.5130  177.5780  142.8600 C   0  0  1  0  0  0  0  0  0  0  0  0
  193.0110  176.1370  138.9270 S   0  0  0  0  0  0  0  0  0  0  0  0
  189.8160  175.8380  135.7730 N   0  0  0  0  0  0  0  0  0  0  0  0
  190.9860  173.8410  134.9710 C   0  0  0  0  0  2  0  0  0  0  0  0
  188.7200  176.7750  141.2060 C   0  0  0  0  0  2  0  0  0  0  0  0
  191.5170  177.8660  141.7220 C   0  0  0  0  0  2  0  0  0  0  0  0
  188.2580  178.6650  138.2260 C   0  0  0  0  0  3  0  0  0  0  0  0
  189.4680  177.6980  140.2360 C   0  0  2  0  0  3  0  0  0  0  0  0
  193.4510  173.6940  135.1070 C   0  0  2  0  0  3  0  0  0  0  0  0
  188.7010  177.5270  134.7600 N   0  0  0  0  0  0  0  0  0  0  0  0
  188.0300  178.6690  136.8310 C   0  0  0  0  0  3  0  0  0  0  0  0
  188.5250  177.5910  136.0930 C   0  0  0  0  0  0  0  0  0  0  0  0
  189.7900  178.7450  143.1260 O   0  0  0  0  0  1  0  0  0  0  0  0
  191.4750  176.1250  139.9190 C   0  0  0  0  0  2  0  0  0  0  0  0
  192.2690  175.6900  136.1830 C   0  0  2  0  0  3  0  0  0  0  0  0
  189.5320  176.4580  142.4720 C   0  0  0  0  0  2  0  0  0  0  0  0
  189.3640  176.5050  138.0550 C   0  0  0  0  0  3  0  0  0  0  0  0
  190.9270  174.9190  136.0500 C   0  0  1  0  0  3  0  0  0  0  0  0
  189.1680  176.5560  136.6930 C   0  0  0  0  0  0  0  0  0  0  0  0
  194.5240  172.8120  135.2420 O   0  0  0  0  0  1  0  0  0  0  0  0
  188.9460  177.5880  138.8350 C   0  0  0  0  0  0  0  0  0  0  0  0
  193.5230  174.7860  136.1840 C   0  0  2  0  0  3  0  0  0  0  0  0
  192.0820  178.2130  144.5580 F   0  0  0  0  0  0  0  0  0  0  0  0
  192.0800  176.0720  143.8620 F   0  0  0  0  0  0  0  0  0  0  0  0
  190.3930  176.8400  145.1350 F   0  0  0  0  0  0  0  0  0  0  0  0
  191.2800  177.1710  144.1250 C   0  0  0  0  0  0  0  0  0  0  0  0
  194.7620  175.6470  135.9600 C   0  0  0  0  0  2  0  0  0  0  0  0
  194.7100  176.3070  134.5950 C   0  0  0  0  0  1  0  0  0  0  0  0
  1 14  2  0  0  0  0
  1  7  1  0  0  0  0
  3 18  1  1  0  0  0
  3 10  1  0  0  0  0
  4  6  1  0  0  0  0
  5 17  1  1  0  0  0
  5 30  1  0  0  0  0
  6 18  1  0  0  0  0
  7 22  1  0  0  0  0
  7 23  1  0  0  0  0
  8  2  1  0  0  0  0
  9 20  1  0  0  0  0
 10  5  1  0  0  0  0
 11 25  1  0  0  0  0
 12  3  1  0  0  0  0
 12  9  1  1  0  0  0
 13  2  1  0  0  0  0
 13 24  1  1  0  0  0
 13 26  1  0  0  0  0
 14 16  1  0  0  0  0
 15 11  2  0  0  0  0
 16 23  2  0  0  0  0
 16 15  1  0  0  0  0
 19 26  1  0  0  0  0
 19  4  1  1  0  0  0
 20  5  1  0  0  0  0
 21 25  2  0  0  0  0
 22  8  1  6  0  0  0
 22 19  1  0  0  0  0
 23 21  1  0  0  0  0
 25 12  1  0  0  0  0
 26 31  1  6  0  0  0
 28 30  1  0  0  0  0
 30 27  1  0  0  0  0
 30 29  1  0  0  0  0
 32 31  1  0  0  0  0
M  END
>  <MODEL>
4

>  <REMARK>
 VINA RESULT:      -5.7      5.081      6.996
  Name = 
  2 active torsions:
  status: ('A' for Active; 'I' for Inactive)
    1  A    between atoms: C_1  and  C_32
    2  A    between atoms: C_7  and  C_26
                            x       y       z     vdW  Elec       q    Type
                         _______ _______ _______ _____ _____    ______ ____

>  <TORSDO>
F 2

$$$$
=
 OpenBabel11062414103D

 32 36  0  0  1  0  0  0  0  0999 V2000
  188.5430  174.1770  135.2160 C   0  0  0  0  0  3  0  0  0  0  0  0
  189.0560  178.4400  136.4160 C   0  0  0  0  0  2  0  0  0  0  0  0
  194.2680  173.8410  137.0020 C   0  0  2  0  0  3  0  0  0  0  0  0
  191.2720  174.9820  137.8750 C   0  0  0  0  0  2  0  0  0  0  0  0
  196.8210  173.6880  136.5560 C   0  0  1  0  0  0  0  0  0  0  0  0
  192.8310  175.8280  138.3710 S   0  0  0  0  0  0  0  0  0  0  0  0
  189.7010  174.8840  135.2790 N   0  0  0  0  0  0  0  0  0  0  0  0
  188.8410  177.1470  135.6560 C   0  0  0  0  0  2  0  0  0  0  0  0
  195.1650  173.7550  134.5940 C   0  0  0  0  0  2  0  0  0  0  0  0
  195.6800  173.7500  137.5970 C   0  0  0  0  0  2  0  0  0  0  0  0
  192.2350  171.7500  134.8370 C   0  0  0  0  0  3  0  0  0  0  0  0
  194.2100  173.1360  135.6220 C   0  0  2  0  0  3  0  0  0  0  0  0
  188.9500  178.1680  137.9060 C   0  0  2  0  0  3  0  0  0  0  0  0
  188.7390  172.8820  134.8420 N   0  0  0  0  0  0  0  0  0  0  0  0
  190.8430  171.6290  134.6250 C   0  0  0  0  0  3  0  0  0  0  0  0
  190.0740  172.7940  134.7010 C   0  0  0  0  0  0  0  0  0  0  0  0
  197.1210  172.3480  136.2990 O   0  0  0  0  0  1  0  0  0  0  0  0
  193.8360  175.3150  136.9330 C   0  0  0  0  0  2  0  0  0  0  0  0
  190.0840  175.9100  137.5170 C   0  0  2  0  0  3  0  0  0  0  0  0
  196.4150  174.3730  135.2390 C   0  0  0  0  0  2  0  0  0  0  0  0
  192.0030  174.1580  135.0960 C   0  0  0  0  0  3  0  0  0  0  0  0
  189.9460  176.1470  135.9880 C   0  0  1  0  0  3  0  0  0  0  0  0
  190.6440  174.0050  134.9320 C   0  0  0  0  0  0  0  0  0  0  0  0
  189.0540  179.3800  138.5920 O   0  0  0  0  0  1  0  0  0  0  0  0
  192.8120  173.0170  135.0950 C   0  0  0  0  0  0  0  0  0  0  0  0
  190.0520  177.2020  138.3650 C   0  0  2  0  0  3  0  0  0  0  0  0
  198.5960  175.2610  136.2040 F   0  0  0  0  0  0  0  0  0  0  0  0
  199.0290  173.4290  137.4410 F   0  0  0  0  0  0  0  0  0  0  0  0
  197.7410  175.0710  138.2800 F   0  0  0  0  0  0  0  0  0  0  0  0
  198.0680  174.3750  137.1280 C   0  0  0  0  0  0  0  0  0  0  0  0
  189.8360  176.8360  139.8300 C   0  0  0  0  0  2  0  0  0  0  0  0
  190.8850  177.5000  140.7020 C   0  0  0  0  0  1  0  0  0  0  0  0
  1  7  1  0  0  0  0
  2 13  1  0  0  0  0
  3 18  1  6  0  0  0
  3 10  1  0  0  0  0
  4  6  1  0  0  0  0
  5 17  1  6  0  0  0
  5 30  1  0  0  0  0
  5 10  1  0  0  0  0
  7 22  1  0  0  0  0
  8  2  1  0  0  0  0
  9 20  1  0  0  0  0
 11 25  1  0  0  0  0
 12  9  1  6  0  0  0
 12  3  1  0  0  0  0
 13 26  1  0  0  0  0
 13 24  1  1  0  0  0
 14  1  2  0  0  0  0
 15 16  1  0  0  0  0
 15 11  2  0  0  0  0
 16 14  1  0  0  0  0
 16 23  2  0  0  0  0
 18  6  1  0  0  0  0
 19  4  1  6  0  0  0
 19 26  1  0  0  0  0
 20  5  1  0  0  0  0
 22  8  1  1  0  0  0
 22 19  1  0  0  0  0
 23 21  1  0  0  0  0
 23  7  1  0  0  0  0
 25 21  2  0  0  0  0
 25 12  1  0  0  0  0
 26 31  1  1  0  0  0
 27 30  1  0  0  0  0
 30 28  1  0  0  0  0
 30 29  1  0  0  0  0
 31 32  1  0  0  0  0
M  END
>  <MODEL>
5

>  <REMARK>
 VINA RESULT:      -5.4      7.502      9.833
  Name = 
  2 active torsions:
  status: ('A' for Active; 'I' for Inactive)
    1  A    between atoms: C_1  and  C_32
    2  A    between atoms: C_7  and  C_26
                            x       y       z     vdW  Elec       q    Type
                         _______ _______ _______ _____ _____    ______ ____

>  <TORSDO>
F 2

$$$$
=
 OpenBabel11062414103D

 32 36  0  0  1  0  0  0  0  0999 V2000
  181.0650  174.5860  136.8230 C   0  0  0  0  0  3  0  0  0  0  0  0
  180.9830  178.8830  135.6350 C   0  0  0  0  0  2  0  0  0  0  0  0
  186.9060  175.7590  137.5910 C   0  0  2  0  0  3  0  0  0  0  0  0
  183.8560  176.9000  138.2470 C   0  0  0  0  0  2  0  0  0  0  0  0
  189.3990  175.6370  136.8760 C   0  0  1  0  0  0  0  0  0  0  0  0
  185.2940  178.0220  137.9960 S   0  0  0  0  0  0  0  0  0  0  0  0
  182.0940  175.3290  136.3380 N   0  0  0  0  0  0  0  0  0  0  0  0
  180.9150  177.3690  135.6680 C   0  0  0  0  0  2  0  0  0  0  0  0
  187.5840  174.5260  135.4380 C   0  0  0  0  0  2  0  0  0  0  0  0
  188.3620  176.1210  137.9150 C   0  0  0  0  0  2  0  0  0  0  0  0
  185.0540  172.6700  137.1170 C   0  0  0  0  0  3  0  0  0  0  0  0
  186.8400  174.4410  136.7760 C   0  0  2  0  0  3  0  0  0  0  0  0
  181.0580  179.4110  137.0570 C   0  0  2  0  0  3  0  0  0  0  0  0
  181.4350  173.3090  137.1190 N   0  0  0  0  0  0  0  0  0  0  0  0
  183.6870  172.3280  137.2210 C   0  0  0  0  0  3  0  0  0  0  0  0
  182.7490  173.2860  136.8280 C   0  0  0  0  0  0  0  0  0  0  0  0
  189.8890  174.3910  137.2780 O   0  0  0  0  0  1  0  0  0  0  0  0
  186.2360  176.9370  136.8660 C   0  0  0  0  0  2  0  0  0  0  0  0
  182.5050  177.3940  137.6700 C   0  0  2  0  0  3  0  0  0  0  0  0
  188.7700  175.5030  135.4780 C   0  0  0  0  0  2  0  0  0  0  0  0
  184.4570  174.8320  136.1740 C   0  0  0  0  0  3  0  0  0  0  0  0
  182.1930  176.7930  136.2720 C   0  0  1  0  0  3  0  0  0  0  0  0
  183.1320  174.4900  136.3280 C   0  0  0  0  0  0  0  0  0  0  0  0
  181.0250  180.8060  137.0200 O   0  0  0  0  0  1  0  0  0  0  0  0
  185.4380  173.9360  136.6120 C   0  0  0  0  0  0  0  0  0  0  0  0
  182.3390  178.9280  137.7520 C   0  0  2  0  0  3  0  0  0  0  0  0
  191.6030  176.2070  137.6300 F   0  0  0  0  0  0  0  0  0  0  0  0
  190.1440  177.8800  137.2520 F   0  0  0  0  0  0  0  0  0  0  0  0
  191.0290  176.7500  135.5210 F   0  0  0  0  0  0  0  0  0  0  0  0
  190.5640  176.6340  136.8200 C   0  0  0  0  0  0  0  0  0  0  0  0
  182.3200  179.3530  139.2170 C   0  0  0  0  0  2  0  0  0  0  0  0
  181.1070  178.7730  139.9210 C   0  0  0  0  0  1  0  0  0  0  0  0
  1 14  2  0  0  0  0
  2  8  1  0  0  0  0
  2 13  1  0  0  0  0
  3 18  1  6  0  0  0
  3 10  1  0  0  0  0
  5 17  1  1  0  0  0
  5 10  1  0  0  0  0
  6  4  1  0  0  0  0
  7  1  1  0  0  0  0
  9 20  1  0  0  0  0
 11 15  1  0  0  0  0
 12  9  1  6  0  0  0
 12  3  1  0  0  0  0
 13 24  1  6  0  0  0
 13 26  1  0  0  0  0
 16 14  1  0  0  0  0
 16 15  2  0  0  0  0
 18  6  1  0  0  0  0
 19 26  1  0  0  0  0
 19  4  1  6  0  0  0
 20  5  1  0  0  0  0
 21 23  2  0  0  0  0
 21 25  1  0  0  0  0
 22  8  1  1  0  0  0
 22  7  1  0  0  0  0
 22 19  1  0  0  0  0
 23  7  1  0  0  0  0
 23 16  1  0  0  0  0
 25 12  1  0  0  0  0
 25 11  2  0  0  0  0
 26 31  1  1  0  0  0
 29 30  1  0  0  0  0
 30  5  1  0  0  0  0
 30 28  1  0  0  0  0
 30 27  1  0  0  0  0
 31 32  1  0  0  0  0
M  END
>  <MODEL>
6

>  <REMARK>
 VINA RESULT:      -5.3      5.106      6.854
  Name = 
  2 active torsions:
  status: ('A' for Active; 'I' for Inactive)
    1  A    between atoms: C_1  and  C_32
    2  A    between atoms: C_7  and  C_26
                            x       y       z     vdW  Elec       q    Type
                         _______ _______ _______ _____ _____    ______ ____

>  <TORSDO>
F 2

$$$$
=
 OpenBabel11062414103D

 32 36  0  0  1  0  0  0  0  0999 V2000
  188.6350  177.8770  140.5590 C   0  0  0  0  0  3  0  0  0  0  0  0
  189.6330  178.1820  136.2240 C   0  0  0  0  0  2  0  0  0  0  0  0
  183.0330  177.6080  138.4070 C   0  0  2  0  0  3  0  0  0  0  0  0
  186.0940  176.3760  138.0170 C   0  0  0  0  0  2  0  0  0  0  0  0
  180.6970  178.6290  137.9130 C   0  0  1  0  0  0  0  0  0  0  0  0
  184.9250  176.5750  136.6080 S   0  0  0  0  0  0  0  0  0  0  0  0
  187.8350  178.3280  139.5570 N   0  0  0  0  0  0  0  0  0  0  0  0
  189.4360  178.4380  137.7050 C   0  0  0  0  0  2  0  0  0  0  0  0
  182.4970  180.0260  139.1000 C   0  0  0  0  0  2  0  0  0  0  0  0
  181.6280  177.3980  137.8270 C   0  0  0  0  0  2  0  0  0  0  0  0
  184.3810  178.4490  141.6740 C   0  0  0  0  0  3  0  0  0  0  0  0
  182.9990  178.6500  139.5560 C   0  0  2  0  0  3  0  0  0  0  0  0
  189.4290  176.7050  135.9410 C   0  0  2  0  0  3  0  0  0  0  0  0
  188.0100  177.8840  141.7690 N   0  0  0  0  0  0  0  0  0  0  0  0
  185.6360  178.2490  142.2920 C   0  0  0  0  0  3  0  0  0  0  0  0
  186.7730  178.3300  141.4840 C   0  0  0  0  0  0  0  0  0  0  0  0
  179.9460  178.5410  139.0890 O   0  0  0  0  0  1  0  0  0  0  0  0
  183.9980  178.0010  137.2790 C   0  0  0  0  0  2  0  0  0  0  0  0
  187.5820  176.6780  137.7080 C   0  0  2  0  0  3  0  0  0  0  0  0
  181.5040  179.9390  137.9300 C   0  0  0  0  0  2  0  0  0  0  0  0
  185.4770  178.8710  139.5440 C   0  0  0  0  0  3  0  0  0  0  0  0
  188.0000  178.1180  138.1120 C   0  0  1  0  0  3  0  0  0  0  0  0
  186.6840  178.6270  140.1610 C   0  0  0  0  0  0  0  0  0  0  0  0
  189.7050  176.4640  134.5940 O   0  0  0  0  0  1  0  0  0  0  0  0
  184.3020  178.7390  140.2910 C   0  0  0  0  0  0  0  0  0  0  0  0
  187.9920  176.2780  136.2730 C   0  0  2  0  0  3  0  0  0  0  0  0
  178.9420  177.5010  136.7330 F   0  0  0  0  0  0  0  0  0  0  0  0
  180.4660  178.6420  135.5320 F   0  0  0  0  0  0  0  0  0  0  0  0
  178.9340  179.7530  136.7480 F   0  0  0  0  0  0  0  0  0  0  0  0
  179.7430  178.6290  136.7120 C   0  0  0  0  0  0  0  0  0  0  0  0
  187.8570  174.7670  136.1150 C   0  0  0  0  0  2  0  0  0  0  0  0
  188.9600  174.0530  136.8720 C   0  0  0  0  0  1  0  0  0  0  0  0
  1 14  2  0  0  0  0
  2  8  1  0  0  0  0
  3 18  1  6  0  0  0
  3 12  1  0  0  0  0
  5 20  1  0  0  0  0
  5 17  1  1  0  0  0
  6 18  1  0  0  0  0
  6  4  1  0  0  0  0
  7 23  1  0  0  0  0
  7  1  1  0  0  0  0
 10  5  1  0  0  0  0
 10  3  1  0  0  0  0
 11 15  1  0  0  0  0
 12  9  1  6  0  0  0
 12 25  1  0  0  0  0
 13 24  1  6  0  0  0
 13  2  1  0  0  0  0
 13 26  1  0  0  0  0
 16 14  1  0  0  0  0
 16 15  2  0  0  0  0
 19  4  1  6  0  0  0
 19 22  1  0  0  0  0
 20  9  1  0  0  0  0
 21 23  2  0  0  0  0
 21 25  1  0  0  0  0
 22  8  1  1  0  0  0
 22  7  1  0  0  0  0
 23 16  1  0  0  0  0
 25 11  2  0  0  0  0
 26 31  1  1  0  0  0
 26 19  1  0  0  0  0
 28 30  1  0  0  0  0
 30 27  1  0  0  0  0
 30 29  1  0  0  0  0
 30  5  1  0  0  0  0
 31 32  1  0  0  0  0
M  END
>  <MODEL>
7

>  <REMARK>
 VINA RESULT:      -5.2      5.523      7.797
  Name = 
  2 active torsions:
  status: ('A' for Active; 'I' for Inactive)
    1  A    between atoms: C_1  and  C_32
    2  A    between atoms: C_7  and  C_26
                            x       y       z     vdW  Elec       q    Type
                         _______ _______ _______ _____ _____    ______ ____

>  <TORSDO>
F 2

$$$$
=
 OpenBabel11062414103D

 32 36  0  0  1  0  0  0  0  0999 V2000
  180.6770  173.3130  137.0400 C   0  0  0  0  0  3  0  0  0  0  0  0
  179.5240  177.5710  136.3980 C   0  0  0  0  0  2  0  0  0  0  0  0
  186.1890  175.6910  137.2320 C   0  0  2  0  0  3  0  0  0  0  0  0
  183.0950  176.0530  138.3850 C   0  0  0  0  0  2  0  0  0  0  0  0
  188.5230  176.1970  136.2120 C   0  0  1  0  0  0  0  0  0  0  0  0
  184.2140  177.4880  138.0990 S   0  0  0  0  0  0  0  0  0  0  0  0
  181.4460  174.3080  136.5280 N   0  0  0  0  0  0  0  0  0  0  0  0
  179.7800  176.0840  136.2560 C   0  0  0  0  0  2  0  0  0  0  0  0
  186.7940  174.8430  134.8810 C   0  0  0  0  0  2  0  0  0  0  0  0
  187.5680  176.3390  137.4190 C   0  0  0  0  0  2  0  0  0  0  0  0
  184.9790  172.3210  136.6170 C   0  0  0  0  0  3  0  0  0  0  0  0
  186.2850  174.4710  136.2780 C   0  0  2  0  0  3  0  0  0  0  0  0
  179.6910  177.9710  137.8530 C   0  0  2  0  0  3  0  0  0  0  0  0
  181.3460  172.1300  137.1330 N   0  0  0  0  0  0  0  0  0  0  0  0
  183.7440  171.6730  136.8430 C   0  0  0  0  0  3  0  0  0  0  0  0
  182.5790  172.4280  136.6850 C   0  0  0  0  0  0  0  0  0  0  0  0
  189.3160  175.0610  136.3980 O   0  0  0  0  0  1  0  0  0  0  0  0
  185.1900  176.7490  136.7410 C   0  0  0  0  0  2  0  0  0  0  0  0
  181.6020  176.2820  138.0400 C   0  0  2  0  0  3  0  0  0  0  0  0
  187.7410  176.0530  134.8940 C   0  0  0  0  0  2  0  0  0  0  0  0
  183.8120  174.3710  136.0210 C   0  0  0  0  0  3  0  0  0  0  0  0
  181.2250  175.7570  136.6270 C   0  0  1  0  0  3  0  0  0  0  0  0
  182.6250  173.7280  136.2920 C   0  0  0  0  0  0  0  0  0  0  0  0
  179.3610  179.3200  137.9890 O   0  0  0  0  0  1  0  0  0  0  0  0
  185.0110  173.6820  136.2250 C   0  0  0  0  0  0  0  0  0  0  0  0
  181.1310  177.7270  138.3250 C   0  0  2  0  0  3  0  0  0  0  0  0
  188.8650  178.4900  136.8240 F   0  0  0  0  0  0  0  0  0  0  0  0
  189.6160  177.8040  134.8150 F   0  0  0  0  0  0  0  0  0  0  0  0
  190.6680  177.1460  136.6910 F   0  0  0  0  0  0  0  0  0  0  0  0
  189.4320  177.4310  136.1350 C   0  0  0  0  0  0  0  0  0  0  0  0
  181.2340  178.0010  139.8220 C   0  0  0  0  0  2  0  0  0  0  0  0
  180.2770  177.1110  140.5920 C   0  0  0  0  0  1  0  0  0  0  0  0
  1 14  2  0  0  0  0
  2 13  1  0  0  0  0
  3 18  1  6  0  0  0
  3 10  1  0  0  0  0
  5 17  1  1  0  0  0
  5 10  1  0  0  0  0
  6  4  1  0  0  0  0
  7 22  1  0  0  0  0
  7  1  1  0  0  0  0
  8  2  1  0  0  0  0
  9 20  1  0  0  0  0
 11 15  1  0  0  0  0
 12  9  1  6  0  0  0
 12  3  1  0  0  0  0
 13 24  1  6  0  0  0
 13 26  1  0  0  0  0
 16 15  2  0  0  0  0
 16 14  1  0  0  0  0
 18  6  1  0  0  0  0
 19 26  1  0  0  0  0
 19  4  1  6  0  0  0
 20  5  1  0  0  0  0
 21 25  1  0  0  0  0
 21 23  2  0  0  0  0
 22  8  1  1  0  0  0
 22 19  1  0  0  0  0
 23  7  1  0  0  0  0
 23 16  1  0  0  0  0
 25 12  1  0  0  0  0
 25 11  2  0  0  0  0
 26 31  1  1  0  0  0
 28 30  1  0  0  0  0
 30  5  1  0  0  0  0
 30 29  1  0  0  0  0
 30 27  1  0  0  0  0
 31 32  1  0  0  0  0
M  END
>  <MODEL>
8

>  <REMARK>
 VINA RESULT:      -5.1      5.514      7.525
  Name = 
  2 active torsions:
  status: ('A' for Active; 'I' for Inactive)
    1  A    between atoms: C_1  and  C_32
    2  A    between atoms: C_7  and  C_26
                            x       y       z     vdW  Elec       q    Type
                         _______ _______ _______ _____ _____    ______ ____

>  <TORSDO>
F 2

$$$$
=
 OpenBabel11062414103D

 32 36  0  0  1  0  0  0  0  0999 V2000
  188.5130  178.5440  137.3290 C   0  0  0  0  0  3  0  0  0  0  0  0
  186.9590  178.4870  141.5070 C   0  0  0  0  0  2  0  0  0  0  0  0
  183.9620  174.7220  136.4580 C   0  0  2  0  0  3  0  0  0  0  0  0
  184.7610  177.6350  137.8400 C   0  0  0  0  0  2  0  0  0  0  0  0
  182.9800  172.3470  136.0890 C   0  0  1  0  0  0  0  0  0  0  0  0
  183.4550  176.5390  138.5370 S   0  0  0  0  0  0  0  0  0  0  0  0
  187.7940  177.5600  137.9290 N   0  0  0  0  0  0  0  0  0  0  0  0
  187.7950  178.3410  140.2520 C   0  0  0  0  0  2  0  0  0  0  0  0
  185.5150  172.6750  136.3370 C   0  0  0  0  0  2  0  0  0  0  0  0
  182.7110  173.8620  136.2320 C   0  0  0  0  0  2  0  0  0  0  0  0
  187.0070  175.3950  134.5940 C   0  0  0  0  0  3  0  0  0  0  0  0
  185.2000  174.0710  135.7860 C   0  0  2  0  0  3  0  0  0  0  0  0
  185.7780  179.3970  141.2180 C   0  0  2  0  0  3  0  0  0  0  0  0
  188.8040  178.2610  136.0290 N   0  0  0  0  0  0  0  0  0  0  0  0
  187.9390  176.4580  134.6000 C   0  0  0  0  0  3  0  0  0  0  0  0
  188.2130  177.0690  135.8260 C   0  0  0  0  0  0  0  0  0  0  0  0
  183.1200  172.0430  134.7320 O   0  0  0  0  0  1  0  0  0  0  0  0
  184.1590  174.9520  137.9640 C   0  0  0  0  0  2  0  0  0  0  0  0
  185.6410  178.3800  138.8760 C   0  0  2  0  0  3  0  0  0  0  0  0
  184.2620  171.9340  136.8310 C   0  0  0  0  0  2  0  0  0  0  0  0
  186.7610  175.5760  137.0070 C   0  0  0  0  0  3  0  0  0  0  0  0
  186.9870  177.6560  139.1530 C   0  0  1  0  0  3  0  0  0  0  0  0
  187.6370  176.6370  136.9780 C   0  0  0  0  0  0  0  0  0  0  0  0
  185.0690  179.6010  142.4030 O   0  0  0  0  0  1  0  0  0  0  0  0
  186.4010  174.9690  135.8000 C   0  0  0  0  0  0  0  0  0  0  0  0
  184.8630  178.7810  140.1510 C   0  0  2  0  0  3  0  0  0  0  0  0
  181.8290  170.2480  136.2250 F   0  0  0  0  0  0  0  0  0  0  0  0
  180.6000  172.1350  136.2250 F   0  0  0  0  0  0  0  0  0  0  0  0
  181.8140  171.5870  138.0370 F   0  0  0  0  0  0  0  0  0  0  0  0
  181.7870  171.5650  136.6520 C   0  0  0  0  0  0  0  0  0  0  0  0
  183.7680  179.7750  139.7780 C   0  0  0  0  0  2  0  0  0  0  0  0
  182.4910  179.4670  140.5360 C   0  0  0  0  0  1  0  0  0  0  0  0
  1  7  1  0  0  0  0
  3 10  1  1  0  0  0
  3 18  1  0  0  0  0
  4  6  1  0  0  0  0
  5 17  1  6  0  0  0
  5 10  1  0  0  0  0
  5 30  1  0  0  0  0
  5 20  1  0  0  0  0
  7 22  1  0  0  0  0
  8  2  1  0  0  0  0
  9 20  1  0  0  0  0
 11 15  2  0  0  0  0
 11 25  1  0  0  0  0
 12 25  1  0  0  0  0
 12  9  1  1  0  0  0
 12  3  1  0  0  0  0
 13  2  1  0  0  0  0
 13 24  1  1  0  0  0
 14  1  2  0  0  0  0
 15 16  1  0  0  0  0
 16 14  1  0  0  0  0
 16 23  2  0  0  0  0
 18  6  1  0  0  0  0
 19  4  1  6  0  0  0
 19 22  1  0  0  0  0
 19 26  1  0  0  0  0
 22  8  1  1  0  0  0
 23 21  1  0  0  0  0
 23  7  1  0  0  0  0
 25 21  2  0  0  0  0
 26 31  1  6  0  0  0
 26 13  1  0  0  0  0
 27 30  1  0  0  0  0
 28 30  1  0  0  0  0
 30 29  1  0  0  0  0
 31 32  1  0  0  0  0
M  END
>  <MODEL>
9

>  <REMARK>
 VINA RESULT:      -4.8      5.099      8.837
  Name = 
  2 active torsions:
  status: ('A' for Active; 'I' for Inactive)
    1  A    between atoms: C_1  and  C_32
    2  A    between atoms: C_7  and  C_26
                            x       y       z     vdW  Elec       q    Type
                         _______ _______ _______ _____ _____    ______ ____

>  <TORSDO>
F 2

$$$$
