=
 OpenBabel11062413573D

 53 58  0  0  1  0  0  0  0  0999 V2000
  184.4590  178.9970  144.6800 P   0  0  2  0  0  0  0  0  0  0  0  0
  185.1110  178.9160  146.3770 C   0  0  0  0  0  1  0  0  0  0  0  0
  184.8740  180.3040  144.0300 O   0  0  0  0  0  0  0  0  0  0  0  0
  182.7530  178.8780  144.6870 O   0  0  0  0  0  0  0  0  0  0  0  0
  182.3140  179.3650  143.4510 C   0  0  0  0  0  2  0  0  0  0  0  0
  182.5440  178.3300  142.3520 C   0  0  0  0  0  2  0  0  0  0  0  0
  185.9090  175.9590  137.0670 C   0  0  0  0  0  1  0  0  0  0  0  0
  180.7240  175.3430  138.8890 C   0  0  2  0  0  3  0  0  0  0  0  0
  184.7410  176.8770  137.3470 C   0  0  2  0  0  3  0  0  0  0  0  0
  182.5520  178.8610  140.9090 C   0  0  2  0  0  3  0  0  0  0  0  0
  184.6020  180.2120  139.1280 O   0  0  0  0  0  1  0  0  0  0  0  0
  179.6710  173.8030  136.6650 C   0  0  0  0  0  3  0  0  0  0  0  0
  183.0190  179.0480  137.9920 O   0  0  0  0  0  1  0  0  0  0  0  0
  181.3160  175.2850  137.5410 N   0  0  0  0  0  0  0  0  0  0  0  0
  181.2650  178.5040  140.1440 C   0  0  2  0  0  3  0  0  0  0  0  0
  182.3530  176.2370  137.1660 C   0  0  0  0  0  2  0  0  0  0  0  0
  180.1280  179.4740  140.4240 C   0  0  0  0  0  1  0  0  0  0  0  0
  186.0470  178.8930  137.3750 O   0  0  0  0  0  1  0  0  0  0  0  0
  183.7400  178.2330  140.1630 C   0  0  2  0  0  3  0  0  0  0  0  0
  185.2240  178.0890  138.1740 C   0  0  1  0  0  3  0  0  0  0  0  0
  179.6770  174.2790  139.0950 C   0  0  0  0  0  0  0  0  0  0  0  0
  178.9860  174.0730  140.5600 S   0  0  0  0  0  0  0  0  0  0  0  0
  184.8850  178.1580  140.9870 O   0  0  0  0  0  1  0  0  0  0  0  0
  180.1910  176.6140  139.1340 O   0  0  0  0  0  0  0  0  0  0  0  0
  180.8500  177.0420  140.2890 C   0  0  0  0  0  2  0  0  0  0  0  0
  183.6240  176.0660  138.0020 C   0  0  0  0  0  2  0  0  0  0  0  0
  184.1180  178.9320  138.8450 C   0  0  0  0  0  0  0  0  0  0  0  0
  179.1410  173.5800  137.9710 N   0  0  0  0  0  2  0  0  0  0  0  0
  180.6810  174.5950  136.4850 N   0  0  0  0  0  0  0  0  0  0  0  0
  185.1080  177.7020  143.7600 O   0  0  0  0  0  0  0  0  0  0  0  0
  187.6380  177.2490  143.8180 C   0  0  0  0  0  0  0  0  0  0  0  0
  186.4580  177.4870  143.7800 C   0  0  0  0  0  0  0  0  0  0  0  0
  189.7700  177.1720  142.5400 C   0  0  0  0  0  0  0  0  0  0  0  0
  189.1030  177.3690  146.4080 C   0  0  0  0  0  2  0  0  0  0  0  0
  191.1070  177.3290  142.4990 C   0  0  0  0  0  3  0  0  0  0  0  0
  189.7810  177.6400  145.0420 C   0  0  1  0  0  3  0  0  0  0  0  0
  191.9120  176.8690  146.0070 N   0  0  0  0  0  0  0  0  0  0  0  0
  190.0110  176.8660  147.4920 C   0  0  0  0  0  3  0  0  0  0  0  0
  191.2560  177.3080  144.9790 C   0  0  0  0  0  0  0  0  0  0  0  0
  189.0760  176.9240  143.8700 C   0  0  1  0  0  3  0  0  0  0  0  0
  191.8980  177.3450  143.6990 N   0  0  0  0  0  2  0  0  0  0  0  0
  191.3040  176.6530  147.2830 C   0  0  0  0  0  3  0  0  0  0  0  0
  188.9760  177.1210  141.2600 C   0  0  0  0  0  2  0  0  0  0  0  0
  189.1000  177.2500  138.9440 C   0  0  1  0  0  3  0  0  0  0  0  0
  189.6190  177.8370  140.1600 N   0  0  0  0  0  0  0  0  0  0  0  0
  188.5970  178.4190  139.4320 O   0  0  0  0  0  0  0  0  0  0  0  0
  189.9560  177.5730  137.7250 C   0  0  0  0  0  2  0  0  0  0  0  0
  189.1090  174.1730  136.5980 C   0  0  0  0  0  1  0  0  0  0  0  0
  191.6900  175.9300  136.7950 C   0  0  1  0  0  3  0  0  0  0  0  0
  191.3220  174.6800  137.5710 C   0  0  0  0  0  2  0  0  0  0  0  0
  189.8600  175.0910  137.5390 C   0  0  1  0  0  3  0  0  0  0  0  0
  190.2290  176.3720  136.8030 C   0  0  1  0  0  3  0  0  0  0  0  0
  192.5260  176.7610  137.5640 O   0  0  0  0  0  1  0  0  0  0  0  0
  1  4  1  0  0  0  0
  1  2  1  1  0  0  0
  3  1  2  0  0  0  0
  5  4  1  0  0  0  0
  6  5  1  0  0  0  0
  8 21  1  6  0  0  0
  8 24  1  0  0  0  0
  9  7  1  1  0  0  0
  9 26  1  0  0  0  0
  9 20  1  0  0  0  0
 10  6  1  1  0  0  0
 12 28  1  0  0  0  0
 13 27  1  0  0  0  0
 14  8  1  0  0  0  0
 15 25  1  0  0  0  0
 15 17  1  1  0  0  0
 15 10  1  0  0  0  0
 16 14  1  0  0  0  0
 16 26  1  0  0  0  0
 19 10  1  0  0  0  0
 19 23  1  1  0  0  0
 20 18  1  6  0  0  0
 20 27  1  0  0  0  0
 21 22  2  0  0  0  0
 24 25  1  0  0  0  0
 27 11  1  0  0  0  0
 27 19  1  0  0  0  0
 28 21  1  0  0  0  0
 29 12  2  0  0  0  0
 29 14  1  0  0  0  0
 30 32  1  0  0  0  0
 30  1  1  0  0  0  0
 32 31  3  0  0  0  0
 33 40  1  0  0  0  0
 34 38  1  0  0  0  0
 35 33  2  0  0  0  0
 35 41  1  0  0  0  0
 36 34  1  1  0  0  0
 37 42  1  0  0  0  0
 39 36  1  0  0  0  0
 39 37  2  0  0  0  0
 40 31  1  6  0  0  0
 40 36  1  0  0  0  0
 41 39  1  0  0  0  0
 42 38  2  0  0  0  0
 43 33  1  0  0  0  0
 44 47  1  6  0  0  0
 44 46  1  0  0  0  0
 44 45  1  0  0  0  0
 45 43  1  0  0  0  0
 46 45  1  0  0  0  0
 49 52  1  0  0  0  0
 49 53  1  1  0  0  0
 49 50  1  0  0  0  0
 51 48  1  6  0  0  0
 51 50  1  0  0  0  0
 52 51  1  0  0  0  0
 52 47  1  1  0  0  0
M  END
>  <MODEL>
1

>  <REMARK>
 VINA RESULT:      -9.7      0.000      0.000
  Name = 
  11 active torsions:
  status: ('A' for Active; 'I' for Inactive)
    1  A    between atoms: C_1  and  C_14
    2  A    between atoms: C_1  and  N_16
    3  A    between atoms: C_6  and  C_10
    4  A    between atoms: C_6  and  C_24
    5  A    between atoms: C_9  and  C_32
    6  A    between atoms: P_12  and  O_35
    7  A    between atoms: P_12  and  O_53
    8  A    between atoms: C_24  and  O_35
    9  A    between atoms: C_31  and  C_44
   10  A    between atoms: C_32  and  C_39
   11  A    between atoms: C_43  and  O_53
                            x       y       z     vdW  Elec       q    Type
                         _______ _______ _______ _____ _____    ______ ____

>  <TORSDO>
F 11

$$$$
=
 OpenBabel11062413573D

 53 58  0  0  1  0  0  0  0  0999 V2000
  184.5610  179.0190  142.6640 P   0  0  2  0  0  0  0  0  0  0  0  0
  184.1450  179.9390  144.1780 C   0  0  0  0  0  1  0  0  0  0  0  0
  185.6310  179.7630  141.8860 O   0  0  0  0  0  0  0  0  0  0  0  0
  183.1750  178.8210  141.6840 O   0  0  0  0  0  0  0  0  0  0  0  0
  183.6020  178.1840  140.5130 C   0  0  0  0  0  2  0  0  0  0  0  0
  183.7430  179.1900  139.3730 C   0  0  0  0  0  2  0  0  0  0  0  0
  186.1580  173.2710  137.3710 C   0  0  0  0  0  1  0  0  0  0  0  0
  181.0890  175.1200  138.5840 C   0  0  2  0  0  3  0  0  0  0  0  0
  185.2450  174.3580  136.8480 C   0  0  2  0  0  3  0  0  0  0  0  0
  183.7810  178.6060  137.9510 C   0  0  2  0  0  3  0  0  0  0  0  0
  185.9680  177.9610  135.9520 O   0  0  0  0  0  1  0  0  0  0  0  0
  179.5820  172.7520  137.8390 C   0  0  0  0  0  3  0  0  0  0  0  0
  184.0980  176.6980  135.7100 O   0  0  0  0  0  1  0  0  0  0  0  0
  181.5690  174.0570  137.6840 N   0  0  0  0  0  0  0  0  0  0  0  0
  182.4020  178.1070  137.4840 C   0  0  2  0  0  3  0  0  0  0  0  0
  182.7690  174.2730  136.8850 C   0  0  0  0  0  2  0  0  0  0  0  0
  181.5300  179.2240  136.9290 C   0  0  0  0  0  1  0  0  0  0  0  0
  186.9700  175.5480  135.6740 O   0  0  0  0  0  1  0  0  0  0  0  0
  184.7490  177.4130  137.9380 C   0  0  2  0  0  3  0  0  0  0  0  0
  186.0370  175.6760  136.7120 C   0  0  1  0  0  3  0  0  0  0  0  0
  179.8450  174.7120  139.3300 C   0  0  0  0  0  0  0  0  0  0  0  0
  179.2170  175.6840  140.4820 S   0  0  0  0  0  0  0  0  0  0  0  0
  185.8970  177.6710  138.7200 O   0  0  0  0  0  1  0  0  0  0  0  0
  180.8710  176.3040  137.8690 O   0  0  0  0  0  0  0  0  0  0  0  0
  181.6790  177.2430  138.5140 C   0  0  0  0  0  2  0  0  0  0  0  0
  184.0170  174.4450  137.7530 C   0  0  0  0  0  2  0  0  0  0  0  0
  185.1930  176.9560  136.5360 C   0  0  0  0  0  0  0  0  0  0  0  0
  179.0980  173.5740  138.9000 N   0  0  0  0  0  2  0  0  0  0  0  0
  180.7320  172.9900  137.2880 N   0  0  0  0  0  0  0  0  0  0  0  0
  185.1730  177.4730  143.0900 O   0  0  0  0  0  0  0  0  0  0  0  0
  187.6990  177.1480  143.4420 C   0  0  0  0  0  0  0  0  0  0  0  0
  186.5180  177.3260  143.2900 C   0  0  0  0  0  0  0  0  0  0  0  0
  189.9230  177.1810  142.3310 C   0  0  0  0  0  0  0  0  0  0  0  0
  188.9530  177.3600  146.1350 C   0  0  0  0  0  2  0  0  0  0  0  0
  191.2490  177.4110  142.3900 C   0  0  0  0  0  3  0  0  0  0  0  0
  189.7180  177.6610  144.8220 C   0  0  1  0  0  3  0  0  0  0  0  0
  191.8070  177.0130  145.9540 N   0  0  0  0  0  0  0  0  0  0  0  0
  189.8020  176.9130  147.2900 C   0  0  0  0  0  3  0  0  0  0  0  0
  191.2090  177.4100  144.8750 C   0  0  0  0  0  0  0  0  0  0  0  0
  189.1440  176.9020  143.6070 C   0  0  1  0  0  3  0  0  0  0  0  0
  191.9440  177.4760  143.6470 N   0  0  0  0  0  2  0  0  0  0  0  0
  191.1160  176.7700  147.1810 C   0  0  0  0  0  3  0  0  0  0  0  0
  189.2340  177.0810  140.9950 C   0  0  0  0  0  2  0  0  0  0  0  0
  189.4490  177.1470  138.6830 C   0  0  1  0  0  3  0  0  0  0  0  0
  190.0030  177.6810  139.9080 N   0  0  0  0  0  0  0  0  0  0  0  0
  189.0950  178.3830  139.1360 O   0  0  0  0  0  0  0  0  0  0  0  0
  190.3800  177.3260  137.4900 C   0  0  0  0  0  2  0  0  0  0  0  0
  189.7900  173.7340  136.9490 C   0  0  0  0  0  1  0  0  0  0  0  0
  192.1890  175.7200  136.6440 C   0  0  1  0  0  3  0  0  0  0  0  0
  192.0130  174.5750  137.6230 C   0  0  0  0  0  2  0  0  0  0  0  0
  190.5190  174.8470  137.6720 C   0  0  1  0  0  3  0  0  0  0  0  0
  190.6960  176.0280  136.7280 C   0  0  1  0  0  3  0  0  0  0  0  0
  192.9970  176.7270  137.2020 O   0  0  0  0  0  1  0  0  0  0  0  0
  1 30  1  0  0  0  0
  1  2  1  1  0  0  0
  3  1  2  0  0  0  0
  4  1  1  0  0  0  0
  5  4  1  0  0  0  0
  6  5  1  0  0  0  0
  8 24  1  6  0  0  0
  8 21  1  0  0  0  0
  9  7  1  1  0  0  0
  9 26  1  0  0  0  0
 10  6  1  1  0  0  0
 11 27  1  0  0  0  0
 12 28  1  0  0  0  0
 13 27  1  0  0  0  0
 14  8  1  0  0  0  0
 15 17  1  1  0  0  0
 15 10  1  0  0  0  0
 15 25  1  0  0  0  0
 16 14  1  0  0  0  0
 16 26  1  0  0  0  0
 19 10  1  0  0  0  0
 19 23  1  1  0  0  0
 20 18  1  6  0  0  0
 20  9  1  0  0  0  0
 21 22  2  0  0  0  0
 24 25  1  0  0  0  0
 27 20  1  0  0  0  0
 27 19  1  0  0  0  0
 28 21  1  0  0  0  0
 29 14  1  0  0  0  0
 29 12  2  0  0  0  0
 30 32  1  0  0  0  0
 32 31  3  0  0  0  0
 33 35  2  0  0  0  0
 33 40  1  0  0  0  0
 34 38  1  0  0  0  0
 35 41  1  0  0  0  0
 36 39  1  0  0  0  0
 36 34  1  1  0  0  0
 37 42  1  0  0  0  0
 39 37  2  0  0  0  0
 40 31  1  6  0  0  0
 40 36  1  0  0  0  0
 41 39  1  0  0  0  0
 42 38  2  0  0  0  0
 43 33  1  0  0  0  0
 44 47  1  6  0  0  0
 44 46  1  0  0  0  0
 44 45  1  0  0  0  0
 45 43  1  0  0  0  0
 46 45  1  0  0  0  0
 49 52  1  0  0  0  0
 49 53  1  1  0  0  0
 49 50  1  0  0  0  0
 50 51  1  0  0  0  0
 51 48  1  6  0  0  0
 52 47  1  1  0  0  0
 52 51  1  0  0  0  0
M  END
>  <MODEL>
2

>  <REMARK>
 VINA RESULT:      -8.7      1.426      1.949
  Name = 
  11 active torsions:
  status: ('A' for Active; 'I' for Inactive)
    1  A    between atoms: C_1  and  C_14
    2  A    between atoms: C_1  and  N_16
    3  A    between atoms: C_6  and  C_10
    4  A    between atoms: C_6  and  C_24
    5  A    between atoms: C_9  and  C_32
    6  A    between atoms: P_12  and  O_35
    7  A    between atoms: P_12  and  O_53
    8  A    between atoms: C_24  and  O_35
    9  A    between atoms: C_31  and  C_44
   10  A    between atoms: C_32  and  C_39
   11  A    between atoms: C_43  and  O_53
                            x       y       z     vdW  Elec       q    Type
                         _______ _______ _______ _____ _____    ______ ____

>  <TORSDO>
F 11

$$$$
=
 OpenBabel11062413573D

 53 58  0  0  1  0  0  0  0  0999 V2000
  190.5020  177.0640  141.3340 P   0  0  2  0  0  0  0  0  0  0  0  0
  191.4180  177.9380  142.6410 C   0  0  0  0  0  1  0  0  0  0  0  0
  191.3710  175.9730  140.7350 O   0  0  0  0  0  0  0  0  0  0  0  0
  190.0250  178.1530  140.1060 O   0  0  0  0  0  0  0  0  0  0  0  0
  190.1000  177.4500  138.8970 C   0  0  0  0  0  2  0  0  0  0  0  0
  188.7100  177.0210  138.4360 C   0  0  0  0  0  2  0  0  0  0  0  0
  188.2500  170.7790  136.0520 C   0  0  0  0  0  1  0  0  0  0  0  0
  184.5430  174.7250  137.1740 C   0  0  2  0  0  3  0  0  0  0  0  0
  187.9940  172.1930  135.5810 C   0  0  2  0  0  3  0  0  0  0  0  0
  188.5890  176.5650  136.9730 C   0  0  2  0  0  3  0  0  0  0  0  0
  190.3820  175.0750  135.0330 O   0  0  0  0  0  1  0  0  0  0  0  0
  182.1750  173.3870  136.1570 C   0  0  0  0  0  3  0  0  0  0  0  0
  188.1660  174.8540  134.5940 O   0  0  0  0  0  1  0  0  0  0  0  0
  184.5450  173.6110  136.2100 N   0  0  0  0  0  0  0  0  0  0  0  0
  187.1800  176.7980  136.3990 C   0  0  2  0  0  3  0  0  0  0  0  0
  185.7690  173.2810  135.4910 C   0  0  0  0  0  2  0  0  0  0  0  0
  186.9780  178.2220  135.9010 C   0  0  0  0  0  1  0  0  0  0  0  0
  190.1650  172.4930  134.5980 O   0  0  0  0  0  1  0  0  0  0  0  0
  188.8880  175.0590  136.9040 C   0  0  2  0  0  3  0  0  0  0  0  0
  189.3170  172.9890  135.5960 C   0  0  1  0  0  3  0  0  0  0  0  0
  183.1940  174.9110  137.8220 C   0  0  0  0  0  0  0  0  0  0  0  0
  182.9980  176.0020  139.0210 S   0  0  0  0  0  0  0  0  0  0  0  0
  189.9550  174.7050  137.7590 O   0  0  0  0  0  1  0  0  0  0  0  0
  184.9600  175.9090  136.5540 O   0  0  0  0  0  0  0  0  0  0  0  0
  186.0560  176.3220  137.3150 C   0  0  0  0  0  2  0  0  0  0  0  0
  186.8780  172.7990  136.4300 C   0  0  0  0  0  2  0  0  0  0  0  0
  189.1820  174.5230  135.4910 C   0  0  0  0  0  0  0  0  0  0  0  0
  182.0420  174.2820  137.2610 N   0  0  0  0  0  2  0  0  0  0  0  0
  183.3440  173.0860  135.6850 N   0  0  0  0  0  0  0  0  0  0  0  0
  189.1040  176.3340  142.0120 O   0  0  0  0  0  0  0  0  0  0  0  0
  187.8570  177.5580  143.8980 C   0  0  0  0  0  0  0  0  0  0  0  0
  188.4230  176.9960  142.9960 C   0  0  0  0  0  0  0  0  0  0  0  0
  185.7230  178.5150  144.7400 C   0  0  0  0  0  0  0  0  0  0  0  0
  188.8920  177.2200  146.6700 C   0  0  0  0  0  2  0  0  0  0  0  0
  184.8720  178.7400  145.7610 C   0  0  0  0  0  3  0  0  0  0  0  0
  187.3980  177.4790  146.3530 C   0  0  1  0  0  3  0  0  0  0  0  0
  187.1690  178.5420  148.5620 N   0  0  0  0  0  0  0  0  0  0  0  0
  189.3540  177.6730  148.0250 C   0  0  0  0  0  3  0  0  0  0  0  0
  186.6280  178.2030  147.4350 C   0  0  0  0  0  0  0  0  0  0  0  0
  187.1910  178.2380  145.0250 C   0  0  1  0  0  3  0  0  0  0  0  0
  185.3020  178.6510  147.1290 N   0  0  0  0  0  2  0  0  0  0  0  0
  188.5360  178.2720  148.8810 C   0  0  0  0  0  3  0  0  0  0  0  0
  185.2480  178.6560  143.3170 C   0  0  0  0  0  2  0  0  0  0  0  0
  183.1880  179.0610  142.3240 C   0  0  1  0  0  3  0  0  0  0  0  0
  183.9220  178.0830  143.0970 N   0  0  0  0  0  0  0  0  0  0  0  0
  183.7700  177.9830  141.7260 O   0  0  0  0  0  0  0  0  0  0  0  0
  181.6820  178.8280  142.3620 C   0  0  0  0  0  2  0  0  0  0  0  0
  181.7590  179.4840  138.7410 C   0  0  0  0  0  1  0  0  0  0  0  0
  179.5700  179.1960  140.9580 C   0  0  1  0  0  3  0  0  0  0  0  0
  179.9790  180.4260  140.1710 C   0  0  0  0  0  2  0  0  0  0  0  0
  181.4150  179.9320  140.1460 C   0  0  1  0  0  3  0  0  0  0  0  0
  181.0200  178.7200  140.9780 C   0  0  1  0  0  3  0  0  0  0  0  0
  179.0870  179.5590  142.2280 O   0  0  0  0  0  1  0  0  0  0  0  0
  1 30  1  0  0  0  0
  1  2  1  1  0  0  0
  3  1  2  0  0  0  0
  4  1  1  0  0  0  0
  5  4  1  0  0  0  0
  6  5  1  0  0  0  0
  8 24  1  6  0  0  0
  8 21  1  0  0  0  0
  9 20  1  0  0  0  0
  9  7  1  1  0  0  0
  9 26  1  0  0  0  0
 10  6  1  1  0  0  0
 11 27  1  0  0  0  0
 12 28  1  0  0  0  0
 13 27  1  0  0  0  0
 14  8  1  0  0  0  0
 15 17  1  1  0  0  0
 15 10  1  0  0  0  0
 15 25  1  0  0  0  0
 16 14  1  0  0  0  0
 16 26  1  0  0  0  0
 19 10  1  0  0  0  0
 19 23  1  1  0  0  0
 20 18  1  6  0  0  0
 21 22  2  0  0  0  0
 24 25  1  0  0  0  0
 27 20  1  0  0  0  0
 27 19  1  0  0  0  0
 28 21  1  0  0  0  0
 29 12  2  0  0  0  0
 29 14  1  0  0  0  0
 30 32  1  0  0  0  0
 32 31  3  0  0  0  0
 33 40  1  0  0  0  0
 33 35  2  0  0  0  0
 34 38  1  0  0  0  0
 35 41  1  0  0  0  0
 36 34  1  1  0  0  0
 36 39  1  0  0  0  0
 37 42  1  0  0  0  0
 38 42  2  0  0  0  0
 39 37  2  0  0  0  0
 40 31  1  6  0  0  0
 40 36  1  0  0  0  0
 41 39  1  0  0  0  0
 43 33  1  0  0  0  0
 44 47  1  1  0  0  0
 44 45  1  0  0  0  0
 45 43  1  0  0  0  0
 46 44  1  0  0  0  0
 46 45  1  0  0  0  0
 49 52  1  0  0  0  0
 49 53  1  1  0  0  0
 50 49  1  0  0  0  0
 51 48  1  6  0  0  0
 51 50  1  0  0  0  0
 51 52  1  0  0  0  0
 52 47  1  1  0  0  0
M  END
>  <MODEL>
3

>  <REMARK>
 VINA RESULT:      -7.7      2.965      6.969
  Name = 
  11 active torsions:
  status: ('A' for Active; 'I' for Inactive)
    1  A    between atoms: C_1  and  C_14
    2  A    between atoms: C_1  and  N_16
    3  A    between atoms: C_6  and  C_10
    4  A    between atoms: C_6  and  C_24
    5  A    between atoms: C_9  and  C_32
    6  A    between atoms: P_12  and  O_35
    7  A    between atoms: P_12  and  O_53
    8  A    between atoms: C_24  and  O_35
    9  A    between atoms: C_31  and  C_44
   10  A    between atoms: C_32  and  C_39
   11  A    between atoms: C_43  and  O_53
                            x       y       z     vdW  Elec       q    Type
                         _______ _______ _______ _____ _____    ______ ____

>  <TORSDO>
F 11

$$$$
=
 OpenBabel11062413573D

 53 58  0  0  1  0  0  0  0  0999 V2000
  184.8590  178.8860  142.1290 P   0  0  2  0  0  0  0  0  0  0  0  0
  184.4960  179.7290  143.7000 C   0  0  0  0  0  1  0  0  0  0  0  0
  185.4550  179.8700  141.1400 O   0  0  0  0  0  0  0  0  0  0  0  0
  183.4350  178.2050  141.4720 O   0  0  0  0  0  0  0  0  0  0  0  0
  183.7830  177.6850  140.2200 C   0  0  0  0  0  2  0  0  0  0  0  0
  183.2860  178.5980  139.1020 C   0  0  0  0  0  2  0  0  0  0  0  0
  186.4530  173.0560  137.0690 C   0  0  0  0  0  1  0  0  0  0  0  0
  181.1430  174.3180  137.9520 C   0  0  2  0  0  3  0  0  0  0  0  0
  185.4720  174.0660  136.5190 C   0  0  2  0  0  3  0  0  0  0  0  0
  183.4900  178.0870  137.6660 C   0  0  2  0  0  3  0  0  0  0  0  0
  185.8750  177.7620  135.8200 O   0  0  0  0  0  1  0  0  0  0  0  0
  179.9530  171.8460  137.0010 C   0  0  0  0  0  3  0  0  0  0  0  0
  184.1720  176.3270  135.3850 O   0  0  0  0  0  1  0  0  0  0  0  0
  181.7970  173.3530  137.0520 N   0  0  0  0  0  0  0  0  0  0  0  0
  182.2100  177.4720  137.0730 C   0  0  2  0  0  3  0  0  0  0  0  0
  183.0230  173.7280  136.3580 C   0  0  0  0  0  2  0  0  0  0  0  0
  181.2690  178.5180  136.4950 C   0  0  0  0  0  1  0  0  0  0  0  0
  187.1440  175.4800  135.5300 O   0  0  0  0  0  1  0  0  0  0  0  0
  184.5770  177.0010  137.6820 C   0  0  2  0  0  3  0  0  0  0  0  0
  186.1290  175.4640  136.4960 C   0  0  1  0  0  3  0  0  0  0  0  0
  179.8960  173.7510  138.5820 C   0  0  0  0  0  0  0  0  0  0  0  0
  179.0860  174.6000  139.7170 S   0  0  0  0  0  0  0  0  0  0  0  0
  185.6310  177.3390  138.5610 O   0  0  0  0  0  1  0  0  0  0  0  0
  180.8540  175.5060  137.2680 O   0  0  0  0  0  0  0  0  0  0  0  0
  181.5090  176.4920  138.0090 C   0  0  0  0  0  2  0  0  0  0  0  0
  184.1780  173.9860  137.3270 C   0  0  0  0  0  2  0  0  0  0  0  0
  185.1690  176.6570  136.3030 C   0  0  0  0  0  0  0  0  0  0  0  0
  179.3080  172.5640  138.0520 N   0  0  0  0  0  2  0  0  0  0  0  0
  181.1090  172.2260  136.5510 N   0  0  0  0  0  0  0  0  0  0  0  0
  186.0030  177.6360  142.4080 O   0  0  0  0  0  0  0  0  0  0  0  0
  188.3920  177.8420  141.4830 C   0  0  0  0  0  0  0  0  0  0  0  0
  187.2670  177.7720  141.9070 C   0  0  0  0  0  0  0  0  0  0  0  0
  190.8000  177.9750  142.0890 C   0  0  0  0  0  0  0  0  0  0  0  0
  189.0440  176.6570  138.8290 C   0  0  0  0  0  2  0  0  0  0  0  0
  192.0790  177.6230  141.8540 C   0  0  0  0  0  3  0  0  0  0  0  0
  190.0630  176.7320  139.9930 C   0  0  1  0  0  3  0  0  0  0  0  0
  191.8770  176.7920  138.3280 N   0  0  0  0  0  0  0  0  0  0  0  0
  189.6370  176.6280  137.4500 C   0  0  0  0  0  3  0  0  0  0  0  0
  191.5140  176.8210  139.5710 C   0  0  0  0  0  0  0  0  0  0  0  0
  189.7740  177.8930  140.9690 C   0  0  1  0  0  3  0  0  0  0  0  0
  192.4910  177.0930  140.5830 N   0  0  0  0  0  2  0  0  0  0  0  0
  190.9470  176.6830  137.2480 C   0  0  0  0  0  3  0  0  0  0  0  0
  190.4110  178.5640  143.4200 C   0  0  0  0  0  2  0  0  0  0  0  0
  189.2220  177.5500  145.1380 C   0  0  1  0  0  3  0  0  0  0  0  0
  190.5290  177.6130  144.5220 N   0  0  0  0  0  0  0  0  0  0  0  0
  189.6290  176.5980  144.2520 O   0  0  0  0  0  0  0  0  0  0  0  0
  189.2600  176.9460  146.5370 C   0  0  0  0  0  2  0  0  0  0  0  0
  185.6730  177.7630  146.6200 C   0  0  0  0  0  1  0  0  0  0  0  0
  188.0880  177.9030  148.6050 C   0  0  1  0  0  3  0  0  0  0  0  0
  187.3040  179.0350  147.9720 C   0  0  0  0  0  2  0  0  0  0  0  0
  187.1190  178.2040  146.7140 C   0  0  1  0  0  3  0  0  0  0  0  0
  187.9470  177.0820  147.3250 C   0  0  1  0  0  3  0  0  0  0  0  0
  189.4110  178.3030  148.8660 O   0  0  0  0  0  1  0  0  0  0  0  0
  1 30  1  0  0  0  0
  1  2  1  1  0  0  0
  3  1  2  0  0  0  0
  4  1  1  0  0  0  0
  5  4  1  0  0  0  0
  6  5  1  0  0  0  0
  8 24  1  6  0  0  0
  8 21  1  0  0  0  0
  9  7  1  1  0  0  0
  9 26  1  0  0  0  0
 10 19  1  0  0  0  0
 10  6  1  1  0  0  0
 11 27  1  0  0  0  0
 12 28  1  0  0  0  0
 13 27  1  0  0  0  0
 14  8  1  0  0  0  0
 15 17  1  1  0  0  0
 15 10  1  0  0  0  0
 15 25  1  0  0  0  0
 16 14  1  0  0  0  0
 16 26  1  0  0  0  0
 19 23  1  1  0  0  0
 20 18  1  6  0  0  0
 20  9  1  0  0  0  0
 21 22  2  0  0  0  0
 24 25  1  0  0  0  0
 27 20  1  0  0  0  0
 27 19  1  0  0  0  0
 28 21  1  0  0  0  0
 29 12  2  0  0  0  0
 29 14  1  0  0  0  0
 31 32  3  0  0  0  0
 32 30  1  0  0  0  0
 33 43  1  0  0  0  0
 35 33  2  0  0  0  0
 36 34  1  6  0  0  0
 36 40  1  0  0  0  0
 37 39  2  0  0  0  0
 38 34  1  0  0  0  0
 39 36  1  0  0  0  0
 39 41  1  0  0  0  0
 40 31  1  1  0  0  0
 40 33  1  0  0  0  0
 41 35  1  0  0  0  0
 42 38  2  0  0  0  0
 42 37  1  0  0  0  0
 43 45  1  0  0  0  0
 44 47  1  1  0  0  0
 45 44  1  0  0  0  0
 46 45  1  0  0  0  0
 46 44  1  0  0  0  0
 49 53  1  6  0  0  0
 50 49  1  0  0  0  0
 51 48  1  1  0  0  0
 51 52  1  0  0  0  0
 51 50  1  0  0  0  0
 52 47  1  6  0  0  0
 52 49  1  0  0  0  0
M  END
>  <MODEL>
4

>  <REMARK>
 VINA RESULT:      -7.3      2.188      5.527
  Name = 
  11 active torsions:
  status: ('A' for Active; 'I' for Inactive)
    1  A    between atoms: C_1  and  C_14
    2  A    between atoms: C_1  and  N_16
    3  A    between atoms: C_6  and  C_10
    4  A    between atoms: C_6  and  C_24
    5  A    between atoms: C_9  and  C_32
    6  A    between atoms: P_12  and  O_35
    7  A    between atoms: P_12  and  O_53
    8  A    between atoms: C_24  and  O_35
    9  A    between atoms: C_31  and  C_44
   10  A    between atoms: C_32  and  C_39
   11  A    between atoms: C_43  and  O_53
                            x       y       z     vdW  Elec       q    Type
                         _______ _______ _______ _____ _____    ______ ____

>  <TORSDO>
F 11

$$$$
=
 OpenBabel11062413573D

 53 58  0  0  1  0  0  0  0  0999 V2000
  187.5030  177.3080  137.2580 P   0  0  2  0  0  0  0  0  0  0  0  0
  187.8110  178.2570  135.7370 C   0  0  0  0  0  1  0  0  0  0  0  0
  188.6000  176.2780  137.4550 O   0  0  0  0  0  0  0  0  0  0  0  0
  185.9870  176.5220  137.1780 O   0  0  0  0  0  0  0  0  0  0  0  0
  185.0510  177.4970  136.8140 C   0  0  0  0  0  2  0  0  0  0  0  0
  184.2170  177.9190  138.0200 C   0  0  0  0  0  2  0  0  0  0  0  0
  179.0110  173.9730  139.5040 C   0  0  0  0  0  1  0  0  0  0  0  0
  181.3230  178.3450  141.9790 C   0  0  2  0  0  3  0  0  0  0  0  0
  179.2700  175.4170  139.1370 C   0  0  2  0  0  3  0  0  0  0  0  0
  182.7230  178.1720  137.7590 C   0  0  2  0  0  3  0  0  0  0  0  0
  180.6210  176.9440  135.9500 O   0  0  0  0  0  1  0  0  0  0  0  0
  179.4060  178.6770  144.1350 C   0  0  0  0  0  3  0  0  0  0  0  0
  179.7770  177.8920  137.8310 O   0  0  0  0  0  1  0  0  0  0  0  0
  179.9480  177.8140  141.9820 N   0  0  0  0  0  0  0  0  0  0  0  0
  182.1200  179.1940  138.7390 C   0  0  2  0  0  3  0  0  0  0  0  0
  179.3700  177.2980  140.7480 C   0  0  0  0  0  2  0  0  0  0  0  0
  182.3680  180.6330  138.3120 C   0  0  0  0  0  1  0  0  0  0  0  0
  178.9330  175.1080  136.7790 O   0  0  0  0  0  1  0  0  0  0  0  0
  181.9650  176.8450  137.9290 C   0  0  2  0  0  3  0  0  0  0  0  0
  179.8930  175.4870  137.7260 C   0  0  1  0  0  3  0  0  0  0  0  0
  181.7480  178.8250  143.3430 C   0  0  0  0  0  0  0  0  0  0  0  0
  183.2800  179.3290  143.6000 S   0  0  0  0  0  0  0  0  0  0  0  0
  182.6930  175.7620  137.3860 O   0  0  0  0  0  1  0  0  0  0  0  0
  181.4490  179.3690  141.0330 O   0  0  0  0  0  0  0  0  0  0  0  0
  182.4810  178.9340  140.1990 C   0  0  0  0  0  2  0  0  0  0  0  0
  180.1130  176.0610  140.2370 C   0  0  0  0  0  2  0  0  0  0  0  0
  180.5420  176.8340  137.3410 C   0  0  0  0  0  0  0  0  0  0  0  0
  180.7700  179.0310  144.3620 N   0  0  0  0  0  2  0  0  0  0  0  0
  179.0440  178.1110  143.0260 N   0  0  0  0  0  0  0  0  0  0  0  0
  187.5120  178.3750  138.6040 O   0  0  0  0  0  0  0  0  0  0  0  0
  188.8520  177.7160  140.6970 C   0  0  0  0  0  0  0  0  0  0  0  0
  188.2000  178.0160  139.7290 C   0  0  0  0  0  0  0  0  0  0  0  0
  191.1610  177.5690  141.6050 C   0  0  0  0  0  0  0  0  0  0  0  0
  187.6980  177.8680  143.4380 C   0  0  0  0  0  2  0  0  0  0  0  0
  192.0140  177.7010  142.6400 C   0  0  0  0  0  3  0  0  0  0  0  0
  189.2010  178.0950  143.1410 C   0  0  1  0  0  3  0  0  0  0  0  0
  189.7140  177.3070  145.4180 N   0  0  0  0  0  0  0  0  0  0  0  0
  187.3780  177.3750  144.8190 C   0  0  0  0  0  3  0  0  0  0  0  0
  190.1410  177.7350  144.2710 C   0  0  0  0  0  0  0  0  0  0  0  0
  189.6770  177.3650  141.8680 C   0  0  1  0  0  3  0  0  0  0  0  0
  191.5470  177.7290  143.9990 N   0  0  0  0  0  2  0  0  0  0  0  0
  188.3260  177.1330  145.7150 C   0  0  0  0  0  3  0  0  0  0  0  0
  191.6890  177.5040  140.1950 C   0  0  0  0  0  2  0  0  0  0  0  0
  193.1900  176.6240  138.6560 C   0  0  1  0  0  3  0  0  0  0  0  0
  192.8720  176.6560  140.0670 N   0  0  0  0  0  0  0  0  0  0  0  0
  193.8570  177.4520  139.5090 O   0  0  0  0  0  0  0  0  0  0  0  0
  194.1180  175.4730  138.2890 C   0  0  0  0  0  2  0  0  0  0  0  0
  192.0050  174.2050  135.5560 C   0  0  0  0  0  1  0  0  0  0  0  0
  194.9820  173.8920  136.4660 C   0  0  1  0  0  3  0  0  0  0  0  0
  193.8720  172.8590  136.4550 C   0  0  0  0  0  2  0  0  0  0  0  0
  192.8600  173.9440  136.7780 C   0  0  1  0  0  3  0  0  0  0  0  0
  193.9760  174.9780  136.8400 C   0  0  1  0  0  3  0  0  0  0  0  0
  195.9060  173.6130  137.4900 O   0  0  0  0  0  1  0  0  0  0  0  0
  1  2  1  6  0  0  0
  1  3  2  0  0  0  0
  1 30  1  0  0  0  0
  4  1  1  0  0  0  0
  5  4  1  0  0  0  0
  5  6  1  0  0  0  0
  8 24  1  6  0  0  0
  8 14  1  0  0  0  0
  8 21  1  0  0  0  0
  9  7  1  1  0  0  0
  9 26  1  0  0  0  0
 10 19  1  0  0  0  0
 10  6  1  1  0  0  0
 10 15  1  0  0  0  0
 11 27  1  0  0  0  0
 12 28  1  0  0  0  0
 14 29  1  0  0  0  0
 15 17  1  6  0  0  0
 15 25  1  0  0  0  0
 16 14  1  0  0  0  0
 19 23  1  6  0  0  0
 20 18  1  6  0  0  0
 20  9  1  0  0  0  0
 21 22  2  0  0  0  0
 21 28  1  0  0  0  0
 25 24  1  0  0  0  0
 26 16  1  0  0  0  0
 27 20  1  0  0  0  0
 27 13  1  0  0  0  0
 27 19  1  0  0  0  0
 29 12  2  0  0  0  0
 30 32  1  0  0  0  0
 32 31  3  0  0  0  0
 33 40  1  0  0  0  0
 33 35  2  0  0  0  0
 34 38  1  0  0  0  0
 35 41  1  0  0  0  0
 36 34  1  1  0  0  0
 36 39  1  0  0  0  0
 37 42  1  0  0  0  0
 38 42  2  0  0  0  0
 39 37  2  0  0  0  0
 40 31  1  6  0  0  0
 40 36  1  0  0  0  0
 41 39  1  0  0  0  0
 43 33  1  0  0  0  0
 44 47  1  1  0  0  0
 44 46  1  0  0  0  0
 44 45  1  0  0  0  0
 45 43  1  0  0  0  0
 46 45  1  0  0  0  0
 49 52  1  0  0  0  0
 49 53  1  1  0  0  0
 50 49  1  0  0  0  0
 50 51  1  0  0  0  0
 51 48  1  6  0  0  0
 51 52  1  0  0  0  0
 52 47  1  1  0  0  0
M  END
>  <MODEL>
5

>  <REMARK>
 VINA RESULT:      -7.2      3.012      5.210
  Name = 
  11 active torsions:
  status: ('A' for Active; 'I' for Inactive)
    1  A    between atoms: C_1  and  C_14
    2  A    between atoms: C_1  and  N_16
    3  A    between atoms: C_6  and  C_10
    4  A    between atoms: C_6  and  C_24
    5  A    between atoms: C_9  and  C_32
    6  A    between atoms: P_12  and  O_35
    7  A    between atoms: P_12  and  O_53
    8  A    between atoms: C_24  and  O_35
    9  A    between atoms: C_31  and  C_44
   10  A    between atoms: C_32  and  C_39
   11  A    between atoms: C_43  and  O_53
                            x       y       z     vdW  Elec       q    Type
                         _______ _______ _______ _____ _____    ______ ____

>  <TORSDO>
F 11

$$$$
=
 OpenBabel11062413573D

 53 58  0  0  1  0  0  0  0  0999 V2000
  190.8020  177.2010  142.3000 P   0  0  2  0  0  0  0  0  0  0  0  0
  190.8600  178.6130  143.4460 C   0  0  0  0  0  1  0  0  0  0  0  0
  190.7800  175.9010  143.0830 O   0  0  0  0  0  0  0  0  0  0  0  0
  192.1570  177.2190  141.2580 O   0  0  0  0  0  0  0  0  0  0  0  0
  191.7450  177.8540  140.0800 C   0  0  0  0  0  2  0  0  0  0  0  0
  191.0520  176.8640  139.1480 C   0  0  0  0  0  2  0  0  0  0  0  0
  194.8350  171.8950  136.7250 C   0  0  0  0  0  1  0  0  0  0  0  0
  189.4430  173.0870  136.4330 C   0  0  2  0  0  3  0  0  0  0  0  0
  194.0040  173.0450  136.2010 C   0  0  2  0  0  3  0  0  0  0  0  0
  191.6520  176.7210  137.7390 C   0  0  2  0  0  3  0  0  0  0  0  0
  194.4560  176.7820  136.5830 O   0  0  0  0  0  1  0  0  0  0  0  0
  188.6370  170.9750  134.6100 C   0  0  0  0  0  3  0  0  0  0  0  0
  192.9820  175.5630  135.3610 O   0  0  0  0  0  1  0  0  0  0  0  0
  190.3480  172.3530  135.5300 N   0  0  0  0  0  0  0  0  0  0  0  0
  190.6010  176.3200  136.6900 C   0  0  2  0  0  3  0  0  0  0  0  0
  191.7010  172.8460  135.3080 C   0  0  0  0  0  2  0  0  0  0  0  0
  189.8150  177.5100  136.1610 C   0  0  0  0  0  1  0  0  0  0  0  0
  195.8320  174.6000  136.0840 O   0  0  0  0  0  1  0  0  0  0  0  0
  192.7310  175.6270  137.7760 C   0  0  2  0  0  3  0  0  0  0  0  0
  194.5960  174.3800  136.7050 C   0  0  1  0  0  3  0  0  0  0  0  0
  188.0930  172.4260  136.5420 C   0  0  0  0  0  0  0  0  0  0  0  0
  186.9780  172.9930  137.5920 S   0  0  0  0  0  0  0  0  0  0  0  0
  193.4970  175.6970  138.9610 O   0  0  0  0  0  1  0  0  0  0  0  0
  189.3090  174.4170  136.0160 O   0  0  0  0  0  0  0  0  0  0  0  0
  189.7070  175.1620  137.1270 C   0  0  0  0  0  2  0  0  0  0  0  0
  192.5440  172.8120  136.5850 C   0  0  0  0  0  2  0  0  0  0  0  0
  193.6830  175.6170  136.5660 C   0  0  0  0  0  0  0  0  0  0  0  0
  187.7090  171.4300  135.5940 N   0  0  0  0  0  2  0  0  0  0  0  0
  189.8580  171.4130  134.5980 N   0  0  0  0  0  0  0  0  0  0  0  0
  189.3680  177.2920  141.3590 O   0  0  0  0  0  0  0  0  0  0  0  0
  187.2460  178.2550  142.4440 C   0  0  0  0  0  0  0  0  0  0  0  0
  188.2420  177.8270  141.9190 C   0  0  0  0  0  0  0  0  0  0  0  0
  184.8480  178.8470  142.1560 C   0  0  0  0  0  0  0  0  0  0  0  0
  186.8780  177.8590  145.3730 C   0  0  0  0  0  2  0  0  0  0  0  0
  183.5920  178.8800  142.6420 C   0  0  0  0  0  3  0  0  0  0  0  0
  185.6940  177.9350  144.3770 C   0  0  1  0  0  3  0  0  0  0  0  0
  184.2820  178.7930  146.2030 N   0  0  0  0  0  0  0  0  0  0  0  0
  186.5650  178.2710  146.7820 C   0  0  0  0  0  3  0  0  0  0  0  0
  184.4010  178.4660  144.9550 C   0  0  0  0  0  0  0  0  0  0  0  0
  186.0280  178.7530  143.1120 C   0  0  1  0  0  3  0  0  0  0  0  0
  183.3280  178.7500  144.0490 N   0  0  0  0  0  2  0  0  0  0  0  0
  185.3570  178.6880  147.1400 C   0  0  0  0  0  3  0  0  0  0  0  0
  185.0910  179.0260  140.6800 C   0  0  0  0  0  2  0  0  0  0  0  0
  183.3550  179.2590  139.1550 C   0  0  1  0  0  3  0  0  0  0  0  0
  184.1530  178.2740  139.8510 N   0  0  0  0  0  0  0  0  0  0  0  0
  184.4090  178.6490  138.5440 O   0  0  0  0  0  0  0  0  0  0  0  0
  182.0690  178.6750  138.5820 C   0  0  0  0  0  2  0  0  0  0  0  0
  181.1970  182.1170  137.6160 C   0  0  0  0  0  1  0  0  0  0  0  0
  179.8410  179.7810  139.1970 C   0  0  1  0  0  3  0  0  0  0  0  0
  180.3360  181.1210  139.7070 C   0  0  0  0  0  2  0  0  0  0  0  0
  181.4670  181.0890  138.6940 C   0  0  1  0  0  3  0  0  0  0  0  0
  181.0050  179.7210  138.2110 C   0  0  1  0  0  3  0  0  0  0  0  0
  179.9180  178.8080  140.2090 O   0  0  0  0  0  1  0  0  0  0  0  0
  1  3  2  0  0  0  0
  1  2  1  1  0  0  0
  4  1  1  0  0  0  0
  5  4  1  0  0  0  0
  6  5  1  0  0  0  0
  8 24  1  6  0  0  0
  8 21  1  0  0  0  0
  9 26  1  0  0  0  0
  9 20  1  0  0  0  0
  9  7  1  1  0  0  0
 10 19  1  0  0  0  0
 10  6  1  1  0  0  0
 12 28  1  0  0  0  0
 13 27  1  0  0  0  0
 14  8  1  0  0  0  0
 15 17  1  1  0  0  0
 15 25  1  0  0  0  0
 15 10  1  0  0  0  0
 16 14  1  0  0  0  0
 16 26  1  0  0  0  0
 19 23  1  1  0  0  0
 20 18  1  6  0  0  0
 21 22  2  0  0  0  0
 24 25  1  0  0  0  0
 27 11  1  0  0  0  0
 27 20  1  0  0  0  0
 27 19  1  0  0  0  0
 28 21  1  0  0  0  0
 29 12  2  0  0  0  0
 29 14  1  0  0  0  0
 30 32  1  0  0  0  0
 30  1  1  0  0  0  0
 32 31  3  0  0  0  0
 33 35  2  0  0  0  0
 33 40  1  0  0  0  0
 34 38  1  0  0  0  0
 35 41  1  0  0  0  0
 36 39  1  0  0  0  0
 36 34  1  1  0  0  0
 37 42  1  0  0  0  0
 38 42  2  0  0  0  0
 39 37  2  0  0  0  0
 40 31  1  6  0  0  0
 40 36  1  0  0  0  0
 41 39  1  0  0  0  0
 43 33  1  0  0  0  0
 44 47  1  6  0  0  0
 44 45  1  0  0  0  0
 45 43  1  0  0  0  0
 46 44  1  0  0  0  0
 46 45  1  0  0  0  0
 49 50  1  0  0  0  0
 49 53  1  1  0  0  0
 51 48  1  6  0  0  0
 51 50  1  0  0  0  0
 52 47  1  1  0  0  0
 52 51  1  0  0  0  0
 52 49  1  0  0  0  0
M  END
>  <MODEL>
6

>  <REMARK>
 VINA RESULT:      -7.2      3.710      8.774
  Name = 
  11 active torsions:
  status: ('A' for Active; 'I' for Inactive)
    1  A    between atoms: C_1  and  C_14
    2  A    between atoms: C_1  and  N_16
    3  A    between atoms: C_6  and  C_10
    4  A    between atoms: C_6  and  C_24
    5  A    between atoms: C_9  and  C_32
    6  A    between atoms: P_12  and  O_35
    7  A    between atoms: P_12  and  O_53
    8  A    between atoms: C_24  and  O_35
    9  A    between atoms: C_31  and  C_44
   10  A    between atoms: C_32  and  C_39
   11  A    between atoms: C_43  and  O_53
                            x       y       z     vdW  Elec       q    Type
                         _______ _______ _______ _____ _____    ______ ____

>  <TORSDO>
F 11

$$$$
=
 OpenBabel11062413573D

 53 58  0  0  1  0  0  0  0  0999 V2000
  187.7250  177.0930  137.3160 P   0  0  2  0  0  0  0  0  0  0  0  0
  188.1490  177.5400  139.0280 C   0  0  0  0  0  1  0  0  0  0  0  0
  187.6950  178.3380  136.4490 O   0  0  0  0  0  0  0  0  0  0  0  0
  186.2010  176.3190  137.2600 O   0  0  0  0  0  0  0  0  0  0  0  0
  185.2660  177.3050  136.9250 C   0  0  0  0  0  2  0  0  0  0  0  0
  184.3880  177.6450  138.1270 C   0  0  0  0  0  2  0  0  0  0  0  0
  178.9310  174.0140  139.5070 C   0  0  0  0  0  1  0  0  0  0  0  0
  181.4200  178.2750  142.0030 C   0  0  2  0  0  3  0  0  0  0  0  0
  179.2800  175.4370  139.1340 C   0  0  2  0  0  3  0  0  0  0  0  0
  182.9180  177.9780  137.8240 C   0  0  2  0  0  3  0  0  0  0  0  0
  180.7980  176.8510  135.9700 O   0  0  0  0  0  1  0  0  0  0  0  0
  179.4690  178.7370  144.1030 C   0  0  0  0  0  3  0  0  0  0  0  0
  179.9600  177.8660  137.8200 O   0  0  0  0  0  1  0  0  0  0  0  0
  180.0180  177.8220  141.9740 N   0  0  0  0  0  0  0  0  0  0  0  0
  182.3480  179.0430  138.7770 C   0  0  2  0  0  3  0  0  0  0  0  0
  179.4450  177.3260  140.7290 C   0  0  0  0  0  2  0  0  0  0  0  0
  182.6890  180.4610  138.3450 C   0  0  0  0  0  1  0  0  0  0  0  0
  178.9890  175.1220  136.7700 O   0  0  0  0  0  1  0  0  0  0  0  0
  182.0830  176.6990  137.9850 C   0  0  2  0  0  3  0  0  0  0  0  0
  179.9430  175.4570  137.7400 C   0  0  1  0  0  3  0  0  0  0  0  0
  181.8360  178.7450  143.3730 C   0  0  0  0  0  0  0  0  0  0  0  0
  183.3860  179.1640  143.6670 S   0  0  0  0  0  0  0  0  0  0  0  0
  182.7620  175.5710  137.4720 O   0  0  0  0  0  1  0  0  0  0  0  0
  181.6290  179.2800  141.0510 O   0  0  0  0  0  0  0  0  0  0  0  0
  182.6560  178.7790  140.2490 C   0  0  0  0  0  2  0  0  0  0  0  0
  180.1290  176.0440  140.2500 C   0  0  0  0  0  2  0  0  0  0  0  0
  180.6770  176.7610  137.3600 C   0  0  0  0  0  0  0  0  0  0  0  0
  180.8450  179.0160  144.3640 N   0  0  0  0  0  2  0  0  0  0  0  0
  179.1050  178.1810  142.9900 N   0  0  0  0  0  0  0  0  0  0  0  0
  188.9190  176.0260  136.6960 O   0  0  0  0  0  0  0  0  0  0  0  0
  191.3250  176.1610  137.5910 C   0  0  0  0  0  0  0  0  0  0  0  0
  190.1890  176.0910  137.1980 C   0  0  0  0  0  0  0  0  0  0  0  0
  192.8310  176.6960  139.4960 C   0  0  0  0  0  0  0  0  0  0  0  0
  193.4400  174.5280  136.2740 C   0  0  0  0  0  2  0  0  0  0  0  0
  193.9600  176.4520  140.1890 C   0  0  0  0  0  3  0  0  0  0  0  0
  193.5120  174.9640  137.7590 C   0  0  1  0  0  3  0  0  0  0  0  0
  195.9690  174.8810  137.6080 N   0  0  0  0  0  0  0  0  0  0  0  0
  194.7620  174.2790  135.6080 C   0  0  0  0  0  3  0  0  0  0  0  0
  194.9100  175.1280  138.3130 C   0  0  0  0  0  0  0  0  0  0  0  0
  192.7260  176.2620  138.0420 C   0  0  1  0  0  3  0  0  0  0  0  0
  195.0520  175.7180  139.6110 N   0  0  0  0  0  2  0  0  0  0  0  0
  195.9120  174.4400  136.2490 C   0  0  0  0  0  3  0  0  0  0  0  0
  191.7220  177.5030  140.1190 C   0  0  0  0  0  2  0  0  0  0  0  0
  190.3470  177.7860  141.9700 C   0  0  1  0  0  3  0  0  0  0  0  0
  191.6810  177.3900  141.5750 N   0  0  0  0  0  0  0  0  0  0  0  0
  190.6870  176.4710  141.8610 O   0  0  0  0  0  0  0  0  0  0  0  0
  190.2520  178.1320  143.4510 C   0  0  0  0  0  2  0  0  0  0  0  0
  187.0570  177.1070  144.9640 C   0  0  0  0  0  1  0  0  0  0  0  0
  190.0990  176.7710  145.6170 C   0  0  1  0  0  3  0  0  0  0  0  0
  189.0420  177.5640  146.3620 C   0  0  0  0  0  2  0  0  0  0  0  0
  188.3550  177.8830  145.0450 C   0  0  1  0  0  3  0  0  0  0  0  0
  189.4390  177.1290  144.2880 C   0  0  1  0  0  3  0  0  0  0  0  0
  191.3670  177.3560  145.7850 O   0  0  0  0  0  1  0  0  0  0  0  0
  1  2  1  1  0  0  0
  3  1  2  0  0  0  0
  4  1  1  0  0  0  0
  5  4  1  0  0  0  0
  5  6  1  0  0  0  0
  8 24  1  6  0  0  0
  8 21  1  0  0  0  0
  9  7  1  1  0  0  0
  9 26  1  0  0  0  0
 10 19  1  0  0  0  0
 10  6  1  1  0  0  0
 10 15  1  0  0  0  0
 11 27  1  0  0  0  0
 12 28  1  0  0  0  0
 14  8  1  0  0  0  0
 14 29  1  0  0  0  0
 15 17  1  6  0  0  0
 15 25  1  0  0  0  0
 16 14  1  0  0  0  0
 19 23  1  6  0  0  0
 20 18  1  6  0  0  0
 20  9  1  0  0  0  0
 21 22  2  0  0  0  0
 21 28  1  0  0  0  0
 25 24  1  0  0  0  0
 26 16  1  0  0  0  0
 27 20  1  0  0  0  0
 27 13  1  0  0  0  0
 27 19  1  0  0  0  0
 29 12  2  0  0  0  0
 30 32  1  0  0  0  0
 30  1  1  0  0  0  0
 32 31  3  0  0  0  0
 33 43  1  0  0  0  0
 33 35  2  0  0  0  0
 36 34  1  6  0  0  0
 36 40  1  0  0  0  0
 36 39  1  0  0  0  0
 37 39  2  0  0  0  0
 38 42  2  0  0  0  0
 38 34  1  0  0  0  0
 39 41  1  0  0  0  0
 40 31  1  1  0  0  0
 40 33  1  0  0  0  0
 41 35  1  0  0  0  0
 42 37  1  0  0  0  0
 43 45  1  0  0  0  0
 44 47  1  1  0  0  0
 45 46  1  0  0  0  0
 45 44  1  0  0  0  0
 46 44  1  0  0  0  0
 49 53  1  6  0  0  0
 49 50  1  0  0  0  0
 51 48  1  1  0  0  0
 51 50  1  0  0  0  0
 52 47  1  6  0  0  0
 52 51  1  0  0  0  0
 52 49  1  0  0  0  0
M  END
>  <MODEL>
7

>  <REMARK>
 VINA RESULT:      -7.1      3.384      6.966
  Name = 
  11 active torsions:
  status: ('A' for Active; 'I' for Inactive)
    1  A    between atoms: C_1  and  C_14
    2  A    between atoms: C_1  and  N_16
    3  A    between atoms: C_6  and  C_10
    4  A    between atoms: C_6  and  C_24
    5  A    between atoms: C_9  and  C_32
    6  A    between atoms: P_12  and  O_35
    7  A    between atoms: P_12  and  O_53
    8  A    between atoms: C_24  and  O_35
    9  A    between atoms: C_31  and  C_44
   10  A    between atoms: C_32  and  C_39
   11  A    between atoms: C_43  and  O_53
                            x       y       z     vdW  Elec       q    Type
                         _______ _______ _______ _____ _____    ______ ____

>  <TORSDO>
F 11

$$$$
=
 OpenBabel11062413573D

 53 58  0  0  1  0  0  0  0  0999 V2000
  184.5830  176.6830  135.8640 P   0  0  2  0  0  0  0  0  0  0  0  0
  184.6900  174.9030  136.2310 C   0  0  0  0  0  1  0  0  0  0  0  0
  183.2410  176.9990  135.2290 O   0  0  0  0  0  0  0  0  0  0  0  0
  185.8410  177.1530  134.8080 O   0  0  0  0  0  0  0  0  0  0  0  0
  186.6530  176.0270  134.6280 C   0  0  0  0  0  2  0  0  0  0  0  0
  187.4790  175.7530  135.8820 C   0  0  0  0  0  2  0  0  0  0  0  0
  190.2300  176.3160  141.9640 C   0  0  0  0  0  1  0  0  0  0  0  0
  192.2440  175.1320  136.9520 C   0  0  2  0  0  3  0  0  0  0  0  0
  190.2890  177.0160  140.6250 C   0  0  2  0  0  3  0  0  0  0  0  0
  188.2140  176.9600  136.4900 C   0  0  2  0  0  3  0  0  0  0  0  0
  187.6320  178.9250  138.7260 O   0  0  0  0  0  1  0  0  0  0  0  0
  195.0650  175.0480  137.6350 C   0  0  0  0  0  3  0  0  0  0  0  0
  189.8440  178.6210  138.3190 O   0  0  0  0  0  1  0  0  0  0  0  0
  192.8480  175.7550  138.1430 N   0  0  0  0  0  0  0  0  0  0  0  0
  189.6340  177.1300  135.9230 C   0  0  2  0  0  3  0  0  0  0  0  0
  192.0730  176.7020  138.9340 C   0  0  0  0  0  2  0  0  0  0  0  0
  189.6530  177.8730  134.5960 C   0  0  0  0  0  1  0  0  0  0  0  0
  188.5990  178.6400  141.1520 O   0  0  0  0  0  1  0  0  0  0  0  0
  188.3280  176.7500  138.0080 C   0  0  2  0  0  3  0  0  0  0  0  0
  188.8960  177.5850  140.2790 C   0  0  1  0  0  3  0  0  0  0  0  0
  193.1910  174.1790  136.2690 C   0  0  0  0  0  0  0  0  0  0  0  0
  192.6840  173.2750  135.0060 S   0  0  0  0  0  0  0  0  0  0  0  0
  187.1450  176.1900  138.5410 O   0  0  0  0  0  1  0  0  0  0  0  0
  191.8010  176.1140  136.0580 O   0  0  0  0  0  0  0  0  0  0  0  0
  190.4430  175.8350  135.8930 C   0  0  0  0  0  2  0  0  0  0  0  0
  190.8550  176.0470  139.5880 C   0  0  0  0  0  2  0  0  0  0  0  0
  188.6880  178.0130  138.8100 C   0  0  0  0  0  0  0  0  0  0  0  0
  194.5810  174.2040  136.5900 N   0  0  0  0  0  2  0  0  0  0  0  0
  194.2450  175.7580  138.3460 N   0  0  0  0  0  0  0  0  0  0  0  0
  184.7150  177.5720  137.3270 O   0  0  0  0  0  0  0  0  0  0  0  0
  183.0220  177.1100  139.2060 C   0  0  0  0  0  0  0  0  0  0  0  0
  183.8350  177.3130  138.3410 C   0  0  0  0  0  0  0  0  0  0  0  0
  181.8440  178.0610  141.1780 C   0  0  0  0  0  0  0  0  0  0  0  0
  180.7960  175.1970  138.6980 C   0  0  0  0  0  2  0  0  0  0  0  0
  180.7170  178.2010  141.9020 C   0  0  0  0  0  3  0  0  0  0  0  0
  180.6550  176.4280  139.6280 C   0  0  1  0  0  3  0  0  0  0  0  0
  178.9320  175.2070  140.8950 N   0  0  0  0  0  0  0  0  0  0  0  0
  179.8820  174.0470  139.0050 C   0  0  0  0  0  3  0  0  0  0  0  0
  179.6510  176.2750  140.7490 C   0  0  0  0  0  0  0  0  0  0  0  0
  182.0000  176.8720  140.2430 C   0  0  1  0  0  3  0  0  0  0  0  0
  179.6140  177.2900  141.7590 N   0  0  0  0  0  2  0  0  0  0  0  0
  179.0260  174.0810  140.0180 C   0  0  0  0  0  3  0  0  0  0  0  0
  182.9950  179.0110  141.3810 C   0  0  0  0  0  2  0  0  0  0  0  0
  184.6760  178.1900  142.7580 C   0  0  1  0  0  3  0  0  0  0  0  0
  183.4920  179.0210  142.7550 N   0  0  0  0  0  0  0  0  0  0  0  0
  184.7700  179.5480  142.6970 O   0  0  0  0  0  0  0  0  0  0  0  0
  185.0790  177.7480  144.1600 C   0  0  0  0  0  2  0  0  0  0  0  0
  188.6360  177.8250  145.1010 C   0  0  0  0  0  1  0  0  0  0  0  0
  185.9880  179.1680  146.0890 C   0  0  1  0  0  3  0  0  0  0  0  0
  186.8610  178.1460  146.7900 C   0  0  0  0  0  2  0  0  0  0  0  0
  187.1960  177.5130  145.4500 C   0  0  1  0  0  3  0  0  0  0  0  0
  186.2810  178.5060  144.7450 C   0  0  1  0  0  3  0  0  0  0  0  0
  184.6470  179.0340  146.4940 O   0  0  0  0  0  1  0  0  0  0  0  0
  1  2  1  1  0  0  0
  1 30  1  0  0  0  0
  3  1  2  0  0  0  0
  4  1  1  0  0  0  0
  5  4  1  0  0  0  0
  5  6  1  0  0  0  0
  8 24  1  6  0  0  0
  8 14  1  0  0  0  0
  9  7  1  1  0  0  0
 10  6  1  6  0  0  0
 10 19  1  0  0  0  0
 11 27  1  0  0  0  0
 12 29  2  0  0  0  0
 13 27  1  0  0  0  0
 14 29  1  0  0  0  0
 14 16  1  0  0  0  0
 15 17  1  6  0  0  0
 15 10  1  0  0  0  0
 16 26  1  0  0  0  0
 19 23  1  1  0  0  0
 19 27  1  0  0  0  0
 20  9  1  0  0  0  0
 20 18  1  1  0  0  0
 21 28  1  0  0  0  0
 21  8  1  0  0  0  0
 22 21  2  0  0  0  0
 25 15  1  0  0  0  0
 25 24  1  0  0  0  0
 26  9  1  0  0  0  0
 27 20  1  0  0  0  0
 28 12  1  0  0  0  0
 30 32  1  0  0  0  0
 32 31  3  0  0  0  0
 33 43  1  0  0  0  0
 33 35  2  0  0  0  0
 34 38  1  0  0  0  0
 36 34  1  1  0  0  0
 36 40  1  0  0  0  0
 36 39  1  0  0  0  0
 38 42  2  0  0  0  0
 39 37  2  0  0  0  0
 39 41  1  0  0  0  0
 40 31  1  6  0  0  0
 40 33  1  0  0  0  0
 41 35  1  0  0  0  0
 42 37  1  0  0  0  0
 43 45  1  0  0  0  0
 44 47  1  1  0  0  0
 45 44  1  0  0  0  0
 46 45  1  0  0  0  0
 46 44  1  0  0  0  0
 49 53  1  1  0  0  0
 49 50  1  0  0  0  0
 51 48  1  6  0  0  0
 51 50  1  0  0  0  0
 52 47  1  1  0  0  0
 52 51  1  0  0  0  0
 52 49  1  0  0  0  0
M  END
>  <MODEL>
8

>  <REMARK>
 VINA RESULT:      -7.0      3.471      9.919
  Name = 
  11 active torsions:
  status: ('A' for Active; 'I' for Inactive)
    1  A    between atoms: C_1  and  C_14
    2  A    between atoms: C_1  and  N_16
    3  A    between atoms: C_6  and  C_10
    4  A    between atoms: C_6  and  C_24
    5  A    between atoms: C_9  and  C_32
    6  A    between atoms: P_12  and  O_35
    7  A    between atoms: P_12  and  O_53
    8  A    between atoms: C_24  and  O_35
    9  A    between atoms: C_31  and  C_44
   10  A    between atoms: C_32  and  C_39
   11  A    between atoms: C_43  and  O_53
                            x       y       z     vdW  Elec       q    Type
                         _______ _______ _______ _____ _____    ______ ____

>  <TORSDO>
F 11

$$$$
=
 OpenBabel11062413573D

 53 58  0  0  1  0  0  0  0  0999 V2000
  190.5440  176.7550  139.8180 P   0  0  2  0  0  0  0  0  0  0  0  0
  192.1500  177.3770  139.2320 C   0  0  0  0  0  1  0  0  0  0  0  0
  190.7430  175.9000  141.0560 O   0  0  0  0  0  0  0  0  0  0  0  0
  189.7800  175.8290  138.6010 O   0  0  0  0  0  0  0  0  0  0  0  0
  189.0180  176.7240  137.8390 C   0  0  0  0  0  2  0  0  0  0  0  0
  187.5530  176.2970  137.8140 C   0  0  0  0  0  2  0  0  0  0  0  0
  183.0400  171.4110  137.0150 C   0  0  0  0  0  1  0  0  0  0  0  0
  182.7890  176.9290  136.7460 C   0  0  2  0  0  3  0  0  0  0  0  0
  183.7020  172.4880  136.1860 C   0  0  2  0  0  3  0  0  0  0  0  0
  187.0490  175.6670  136.5050 C   0  0  2  0  0  3  0  0  0  0  0  0
  187.3210  172.9500  135.1850 O   0  0  0  0  0  1  0  0  0  0  0  0
  180.0370  177.1880  135.8570 C   0  0  0  0  0  3  0  0  0  0  0  0
  185.4430  174.0770  134.5940 O   0  0  0  0  0  1  0  0  0  0  0  0
  182.0050  175.8660  136.0930 N   0  0  0  0  0  0  0  0  0  0  0  0
  186.0680  176.5820  135.7520 C   0  0  2  0  0  3  0  0  0  0  0  0
  182.6760  174.6680  135.6050 C   0  0  0  0  0  2  0  0  0  0  0  0
  186.7750  177.6260  134.8990 C   0  0  0  0  0  1  0  0  0  0  0  0
  185.4800  171.0860  135.3830 O   0  0  0  0  0  1  0  0  0  0  0  0
  186.3180  174.3580  136.8410 C   0  0  2  0  0  3  0  0  0  0  0  0
  185.2250  172.2390  136.1380 C   0  0  1  0  0  3  0  0  0  0  0  0
  181.9250  178.0820  137.1870 C   0  0  0  0  0  0  0  0  0  0  0  0
  182.5650  179.3090  138.0530 S   0  0  0  0  0  0  0  0  0  0  0  0
  186.9840  173.6420  137.8610 O   0  0  0  0  0  1  0  0  0  0  0  0
  183.8100  177.3730  135.8970 O   0  0  0  0  0  0  0  0  0  0  0  0
  184.9770  177.1770  136.6390 C   0  0  0  0  0  2  0  0  0  0  0  0
  183.2990  173.8540  136.7410 C   0  0  0  0  0  2  0  0  0  0  0  0
  186.0870  173.4200  135.6420 C   0  0  0  0  0  0  0  0  0  0  0  0
  180.5950  178.2070  136.6860 N   0  0  0  0  0  2  0  0  0  0  0  0
  180.7050  176.1070  135.5950 N   0  0  0  0  0  0  0  0  0  0  0  0
  189.5370  178.0830  140.2290 O   0  0  0  0  0  0  0  0  0  0  0  0
  188.5640  178.2020  142.6060 C   0  0  0  0  0  0  0  0  0  0  0  0
  189.0380  178.1670  141.4990 C   0  0  0  0  0  0  0  0  0  0  0  0
  186.4460  178.1790  143.9070 C   0  0  0  0  0  0  0  0  0  0  0  0
  190.0970  177.1480  144.9320 C   0  0  0  0  0  2  0  0  0  0  0  0
  185.7500  177.7780  144.9890 C   0  0  0  0  0  3  0  0  0  0  0  0
  188.5510  177.1020  144.8490 C   0  0  1  0  0  3  0  0  0  0  0  0
  188.4730  177.1720  147.3100 N   0  0  0  0  0  0  0  0  0  0  0  0
  190.6710  177.1720  146.3180 C   0  0  0  0  0  3  0  0  0  0  0  0
  187.8360  177.1430  146.1820 C   0  0  0  0  0  0  0  0  0  0  0  0
  187.9660  178.2150  143.9540 C   0  0  1  0  0  3  0  0  0  0  0  0
  186.4120  177.3050  146.1740 N   0  0  0  0  0  2  0  0  0  0  0  0
  189.9000  177.1730  147.3970 C   0  0  0  0  0  3  0  0  0  0  0  0
  185.7200  178.7060  142.6960 C   0  0  0  0  0  2  0  0  0  0  0  0
  183.4700  178.8410  142.1360 C   0  0  1  0  0  3  0  0  0  0  0  0
  184.5540  177.9040  142.3350 N   0  0  0  0  0  0  0  0  0  0  0  0
  184.1650  178.3350  141.0790 O   0  0  0  0  0  0  0  0  0  0  0  0
  182.1010  178.1710  142.1700 C   0  0  0  0  0  2  0  0  0  0  0  0
  179.2290  180.1360  143.3660 C   0  0  0  0  0  1  0  0  0  0  0  0
  180.0260  178.6340  140.7390 C   0  0  1  0  0  3  0  0  0  0  0  0
  178.9310  178.3040  141.7360 C   0  0  0  0  0  2  0  0  0  0  0  0
  179.8020  178.8280  142.8650 C   0  0  1  0  0  3  0  0  0  0  0  0
  180.9240  179.1160  141.8770 C   0  0  1  0  0  3  0  0  0  0  0  0
  180.4970  177.4640  140.1160 O   0  0  0  0  0  1  0  0  0  0  0  0
  1  2  1  6  0  0  0
  1 30  1  0  0  0  0
  1  3  2  0  0  0  0
  4  1  1  0  0  0  0
  5  4  1  0  0  0  0
  6  5  1  0  0  0  0
  8 24  1  6  0  0  0
  8 21  1  0  0  0  0
  9 26  1  0  0  0  0
  9  7  1  1  0  0  0
 10 19  1  0  0  0  0
 10  6  1  1  0  0  0
 11 27  1  0  0  0  0
 12 28  1  0  0  0  0
 13 27  1  0  0  0  0
 14  8  1  0  0  0  0
 15 17  1  1  0  0  0
 15 10  1  0  0  0  0
 15 25  1  0  0  0  0
 16 14  1  0  0  0  0
 16 26  1  0  0  0  0
 19 23  1  1  0  0  0
 20 18  1  6  0  0  0
 20  9  1  0  0  0  0
 21 22  2  0  0  0  0
 24 25  1  0  0  0  0
 27 20  1  0  0  0  0
 27 19  1  0  0  0  0
 28 21  1  0  0  0  0
 29 12  2  0  0  0  0
 29 14  1  0  0  0  0
 30 32  1  0  0  0  0
 32 31  3  0  0  0  0
 33 40  1  0  0  0  0
 33 35  2  0  0  0  0
 34 38  1  0  0  0  0
 35 41  1  0  0  0  0
 36 34  1  1  0  0  0
 36 39  1  0  0  0  0
 37 42  1  0  0  0  0
 38 42  2  0  0  0  0
 39 37  2  0  0  0  0
 40 31  1  6  0  0  0
 40 36  1  0  0  0  0
 41 39  1  0  0  0  0
 43 33  1  0  0  0  0
 44 47  1  6  0  0  0
 44 45  1  0  0  0  0
 45 43  1  0  0  0  0
 46 44  1  0  0  0  0
 46 45  1  0  0  0  0
 49 53  1  1  0  0  0
 49 50  1  0  0  0  0
 49 52  1  0  0  0  0
 50 51  1  0  0  0  0
 51 48  1  6  0  0  0
 52 47  1  1  0  0  0
 52 51  1  0  0  0  0
M  END
>  <MODEL>
9

>  <REMARK>
 VINA RESULT:      -7.0      3.230      6.884
  Name = 
  11 active torsions:
  status: ('A' for Active; 'I' for Inactive)
    1  A    between atoms: C_1  and  C_14
    2  A    between atoms: C_1  and  N_16
    3  A    between atoms: C_6  and  C_10
    4  A    between atoms: C_6  and  C_24
    5  A    between atoms: C_9  and  C_32
    6  A    between atoms: P_12  and  O_35
    7  A    between atoms: P_12  and  O_53
    8  A    between atoms: C_24  and  O_35
    9  A    between atoms: C_31  and  C_44
   10  A    between atoms: C_32  and  C_39
   11  A    between atoms: C_43  and  O_53
                            x       y       z     vdW  Elec       q    Type
                         _______ _______ _______ _____ _____    ______ ____

>  <TORSDO>
F 11

$$$$
