=
 OpenBabel11062417293D

 47 51  0  0  1  0  0  0  0  0999 V2000
  188.6910  178.4720  139.3070 C   0  0  0  0  0  2  0  0  0  0  0  0
  184.4360  178.8360  140.0680 C   0  0  0  0  0  2  0  0  0  0  0  0
  188.9430  177.1490  137.1330 C   0  0  2  0  0  0  0  0  0  0  0  0
  189.9460  178.0850  136.8620 O   0  0  0  0  0  1  0  0  0  0  0  0
  185.0770  177.4650  137.0570 C   0  0  0  0  0  2  0  0  0  0  0  0
  182.2910  177.5850  138.3170 C   0  0  2  0  0  3  0  0  0  0  0  0
  186.3960  176.7300  136.8440 C   0  0  2  0  0  3  0  0  0  0  0  0
  186.3420  175.3750  137.5660 C   0  0  0  0  0  2  0  0  0  0  0  0
  186.7220  178.1610  140.6960 C   0  0  0  0  0  2  0  0  0  0  0  0
  183.9360  176.6720  136.5990 N   0  0  1  0  0  0  0  0  0  0  0  0
  181.5560  179.8570  137.9370 O   0  0  0  0  0  1  0  0  0  0  0  0
  182.2830  179.0430  138.8070 C   0  0  2  0  0  3  0  0  0  0  0  0
  188.1460  178.4960  140.6750 N   0  0  0  0  0  0  0  0  0  0  0  0
  185.8830  179.2840  140.1120 C   0  0  0  0  0  2  0  0  0  0  0  0
  183.6880  179.6030  138.9910 C   0  0  0  0  0  2  0  0  0  0  0  0
  187.5270  177.6830  137.2750 C   0  0  1  0  0  3  0  0  0  0  0  0
  185.1260  174.5840  137.1030 C   0  0  0  0  0  2  0  0  0  0  0  0
  183.8700  175.4100  137.3460 C   0  0  0  0  0  2  0  0  0  0  0  0
  188.3050  177.2170  138.5140 C   0  0  2  0  0  3  0  0  0  0  0  0
  182.7270  177.4780  136.8250 C   0  0  1  0  0  3  0  0  0  0  0  0
  180.9690  176.8750  138.6620 C   0  0  1  0  0  3  0  0  0  0  0  0
  180.9150  175.6190  138.0560 O   0  0  0  0  0  1  0  0  0  0  0  0
  179.5340  176.2530  140.4900 O   0  0  0  0  0  0  0  0  0  0  0  0
  179.8250  177.5950  140.7820 C   0  0  1  0  0  0  0  0  0  0  0  0
  179.9080  177.7860  142.1610 O   0  0  0  0  0  1  0  0  0  0  0  0
  180.8380  176.6940  140.1710 C   0  0  2  0  0  3  0  0  0  0  0  0
  178.9310  179.8210  140.2440 C   0  0  0  0  0  2  0  0  0  0  0  0
  178.9390  178.5150  139.9970 C   0  0  0  0  0  3  0  0  0  0  0  0
  181.6930  177.0650  135.9800 O   0  0  0  0  0  0  0  0  0  0  0  0
  182.0460  177.4940  134.7870 O   0  0  0  0  0  1  0  0  0  0  0  0
  189.7680  175.0850  137.5760 O   0  0  0  0  0  1  0  0  0  0  0  0
  189.1370  175.8020  136.6140 N   0  0  0  0  0  2  0  0  0  0  0  0
  188.8340  177.4860  141.4690 C   0  0  0  0  0  2  0  0  0  0  0  0
  188.0300  177.1360  142.7200 C   0  0  0  0  0  2  0  0  0  0  0  0
  190.9690  177.0070  145.9360 C   0  0  2  0  0  3  0  0  0  0  0  0
  189.5030  176.8810  146.3360 C   0  0  0  0  0  2  0  0  0  0  0  0
  188.5870  177.3670  145.2100 C   0  0  1  0  0  3  0  0  0  0  0  0
  190.3800  176.7120  143.5310 C   0  0  0  0  0  2  0  0  0  0  0  0
  191.2340  176.1890  144.6800 C   0  0  0  0  0  2  0  0  0  0  0  0
  188.8940  176.6360  143.8840 C   0  0  2  0  0  3  0  0  0  0  0  0
  191.9920  176.4080  147.2610 Cl  0  0  0  0  0  0  0  0  0  0  0  0
  187.1200  177.2250  145.6280 C   0  0  0  0  0  2  0  0  0  0  0  0
  186.4310  178.5080  145.6000 N   0  0  0  0  0  2  0  0  0  0  0  0
  185.6160  178.5020  144.4900 O   0  0  0  0  0  0  0  0  0  0  0  0
  183.3900  178.6010  143.4740 N   0  0  0  0  0  2  0  0  0  0  0  0
  184.2470  178.7260  144.6060 C   0  0  0  0  0  0  0  0  0  0  0  0
  183.7480  179.0510  145.7510 N   0  0  0  0  0  1  0  0  0  0  0  0
  1 13  1  0  0  0  0
  2 14  1  0  0  0  0
  3  4  1  6  0  0  0
  3 16  1  0  0  0  0
  3 19  1  0  0  0  0
  6 21  1  6  0  0  0
  6 12  1  0  0  0  0
  7  5  1  1  0  0  0
  7 16  1  0  0  0  0
  7  8  1  0  0  0  0
 10 20  1  0  0  0  0
 10  5  1  1  0  0  0
 10 18  1  0  0  0  0
 12 11  1  6  0  0  0
 12 15  1  0  0  0  0
 13  9  1  0  0  0  0
 13 33  1  0  0  0  0
 14  9  1  0  0  0  0
 15  2  1  0  0  0  0
 16 19  1  0  0  0  0
 17 18  1  0  0  0  0
 17  8  1  0  0  0  0
 19  1  1  0  0  0  0
 20  6  1  0  0  0  0
 21 26  1  0  0  0  0
 22 21  1  0  0  0  0
 23 24  1  0  0  0  0
 24 25  1  0  0  0  0
 26 23  1  0  0  0  0
 26 24  1  0  0  0  0
 28 27  2  0  0  0  0
 28 24  1  0  0  0  0
 29 20  1  0  0  0  0
 30 29  1  0  0  0  0
 32  3  1  0  0  0  0
 32 31  1  0  0  0  0
 33 34  1  0  0  0  0
 34 40  1  0  0  0  0
 35 36  1  0  0  0  0
 35 41  1  0  0  0  0
 37 42  1  0  0  0  0
 37 36  1  0  0  0  0
 38 40  1  0  0  0  0
 38 39  1  0  0  0  0
 39 35  1  0  0  0  0
 40 37  1  0  0  0  0
 43 42  1  0  0  0  0
 44 46  1  0  0  0  0
 44 43  1  0  0  0  0
 45 46  2  0  0  0  0
 46 47  1  0  0  0  0
M  END
>  <MODEL>
1

>  <REMARK>
 VINA RESULT:      -7.2      0.000      0.000
  Name = 
  12 active torsions:
  status: ('A' for Active; 'I' for Inactive)
    1  A    between atoms: C_2  and  C_11
    2  A    between atoms: C_2  and  C_29
    3  A    between atoms: C_4  and  N_28
    4  A    between atoms: O_14  and  C_47
    5  A    between atoms: C_15  and  C_38
    6  A    between atoms: C_18  and  C_41
    7  A    between atoms: C_19  and  C_31
    8  A    between atoms: C_19  and  C_44
    9  A    between atoms: C_22  and  O_32
   10  A    between atoms: N_23  and  O_32
   11  A    between atoms: N_23  and  C_41
   12  A    between atoms: N_36  and  C_44
                            x       y       z     vdW  Elec       q    Type
                         _______ _______ _______ _____ _____    ______ ____

>  <TORSDO>
F 12

$$$$
=
 OpenBabel11062417293D

 47 51  0  0  1  0  0  0  0  0999 V2000
  189.2510  177.4070  137.2690 C   0  0  0  0  0  2  0  0  0  0  0  0
  184.9580  177.6700  137.8340 C   0  0  0  0  0  2  0  0  0  0  0  0
  189.6940  175.2590  135.9550 C   0  0  2  0  0  0  0  0  0  0  0  0
  190.6150  176.0550  135.2670 O   0  0  0  0  0  1  0  0  0  0  0  0
  185.8200  175.1300  135.7950 C   0  0  0  0  0  2  0  0  0  0  0  0
  182.9950  175.5510  136.8940 C   0  0  2  0  0  3  0  0  0  0  0  0
  187.2070  174.5100  135.9290 C   0  0  2  0  0  3  0  0  0  0  0  0
  187.2540  173.6460  137.1980 C   0  0  0  0  0  2  0  0  0  0  0  0
  187.2750  177.5870  138.6720 C   0  0  0  0  0  2  0  0  0  0  0  0
  184.7720  174.1090  135.7730 N   0  0  1  0  0  0  0  0  0  0  0  0
  182.0680  177.3050  135.5130 O   0  0  0  0  0  1  0  0  0  0  0  0
  182.8370  177.0610  136.6510 C   0  0  2  0  0  3  0  0  0  0  0  0
  188.6620  178.0090  138.4780 N   0  0  0  0  0  0  0  0  0  0  0  0
  186.3550  178.2250  137.6450 C   0  0  0  0  0  2  0  0  0  0  0  0
  184.1780  177.7750  136.5350 C   0  0  0  0  0  2  0  0  0  0  0  0
  188.2310  175.6590  135.8520 C   0  0  1  0  0  3  0  0  0  0  0  0
  186.1310  172.6180  137.1720 C   0  0  0  0  0  2  0  0  0  0  0  0
  184.7980  173.3370  137.0220 C   0  0  0  0  0  2  0  0  0  0  0  0
  189.0080  175.8970  137.1550 C   0  0  2  0  0  3  0  0  0  0  0  0
  183.4870  174.8070  135.6170 C   0  0  1  0  0  3  0  0  0  0  0  0
  181.7340  174.9570  137.5470 C   0  0  1  0  0  3  0  0  0  0  0  0
  181.8140  173.5640  137.5920 O   0  0  0  0  0  1  0  0  0  0  0  0
  180.3790  174.9790  139.5350 O   0  0  0  0  0  0  0  0  0  0  0  0
  180.3630  176.3280  139.1490 C   0  0  1  0  0  0  0  0  0  0  0  0
  180.3380  177.1550  140.2710 O   0  0  0  0  0  1  0  0  0  0  0  0
  181.5730  175.4810  138.9710 C   0  0  2  0  0  3  0  0  0  0  0  0
  179.0410  177.7990  137.6890 C   0  0  0  0  0  2  0  0  0  0  0  0
  179.3400  176.5640  138.0790 C   0  0  0  0  0  3  0  0  0  0  0  0
  182.5230  173.9520  135.0740 O   0  0  0  0  0  0  0  0  0  0  0  0
  183.2110  172.9380  134.5940 O   0  0  0  0  0  1  0  0  0  0  0  0
  190.6870  173.7250  137.2950 O   0  0  0  0  0  1  0  0  0  0  0  0
  190.0280  173.8510  136.1170 N   0  0  0  0  0  2  0  0  0  0  0  0
  189.4140  177.5540  139.6400 C   0  0  0  0  0  2  0  0  0  0  0  0
  188.5580  177.6230  140.9040 C   0  0  0  0  0  2  0  0  0  0  0  0
  190.7930  177.2980  144.6320 C   0  0  2  0  0  3  0  0  0  0  0  0
  189.3170  176.9200  144.6770 C   0  0  0  0  0  2  0  0  0  0  0  0
  188.5730  177.4780  143.4610 C   0  0  1  0  0  3  0  0  0  0  0  0
  190.7410  177.3620  142.1390 C   0  0  0  0  0  2  0  0  0  0  0  0
  191.4260  176.7560  143.3580 C   0  0  0  0  0  2  0  0  0  0  0  0
  189.2460  177.0380  142.1430 C   0  0  2  0  0  3  0  0  0  0  0  0
  191.6200  176.6090  146.0460 Cl  0  0  0  0  0  0  0  0  0  0  0  0
  187.0950  177.0810  143.5230 C   0  0  0  0  0  2  0  0  0  0  0  0
  186.2690  178.1750  144.0150 N   0  0  0  0  0  2  0  0  0  0  0  0
  185.8840  177.8430  145.2960 O   0  0  0  0  0  0  0  0  0  0  0  0
  183.7630  179.0040  145.6850 N   0  0  0  0  0  2  0  0  0  0  0  0
  185.1070  178.7110  146.0580 C   0  0  0  0  0  0  0  0  0  0  0  0
  185.6100  179.2570  147.1140 N   0  0  0  0  0  1  0  0  0  0  0  0
  1 13  1  0  0  0  0
  3  4  1  6  0  0  0
  3 32  1  0  0  0  0
  3 19  1  0  0  0  0
  6 21  1  6  0  0  0
  7  5  1  1  0  0  0
  7  8  1  0  0  0  0
 10  5  1  1  0  0  0
 10 18  1  0  0  0  0
 12 11  1  6  0  0  0
 12  6  1  0  0  0  0
 13  9  1  0  0  0  0
 13 33  1  0  0  0  0
 14  2  1  0  0  0  0
 14  9  1  0  0  0  0
 15 12  1  0  0  0  0
 15  2  1  0  0  0  0
 16  7  1  0  0  0  0
 16  3  1  0  0  0  0
 16 19  1  0  0  0  0
 17  8  1  0  0  0  0
 18 17  1  0  0  0  0
 19  1  1  0  0  0  0
 20 10  1  0  0  0  0
 20  6  1  0  0  0  0
 21 22  1  0  0  0  0
 21 26  1  0  0  0  0
 24 23  1  0  0  0  0
 24 25  1  0  0  0  0
 26 24  1  0  0  0  0
 26 23  1  0  0  0  0
 27 28  2  0  0  0  0
 28 24  1  0  0  0  0
 29 20  1  0  0  0  0
 30 29  1  0  0  0  0
 32 31  1  0  0  0  0
 33 34  1  0  0  0  0
 34 40  1  0  0  0  0
 35 36  1  0  0  0  0
 35 41  1  0  0  0  0
 37 42  1  0  0  0  0
 37 36  1  0  0  0  0
 38 40  1  0  0  0  0
 38 39  1  0  0  0  0
 39 35  1  0  0  0  0
 40 37  1  0  0  0  0
 42 43  1  0  0  0  0
 43 44  1  0  0  0  0
 44 46  1  0  0  0  0
 45 46  2  0  0  0  0
 46 47  1  0  0  0  0
M  END
>  <MODEL>
2

>  <REMARK>
 VINA RESULT:      -6.8      1.802      2.388
  Name = 
  12 active torsions:
  status: ('A' for Active; 'I' for Inactive)
    1  A    between atoms: C_2  and  C_11
    2  A    between atoms: C_2  and  C_29
    3  A    between atoms: C_4  and  N_28
    4  A    between atoms: O_14  and  C_47
    5  A    between atoms: C_15  and  C_38
    6  A    between atoms: C_18  and  C_41
    7  A    between atoms: C_19  and  C_31
    8  A    between atoms: C_19  and  C_44
    9  A    between atoms: C_22  and  O_32
   10  A    between atoms: N_23  and  O_32
   11  A    between atoms: N_23  and  C_41
   12  A    between atoms: N_36  and  C_44
                            x       y       z     vdW  Elec       q    Type
                         _______ _______ _______ _____ _____    ______ ____

>  <TORSDO>
F 12

$$$$
=
 OpenBabel11062417293D

 47 51  0  0  1  0  0  0  0  0999 V2000
  188.2280  178.6290  139.6530 C   0  0  0  0  0  2  0  0  0  0  0  0
  184.1260  178.5010  141.0550 C   0  0  0  0  0  2  0  0  0  0  0  0
  188.2050  177.8360  137.2210 C   0  0  2  0  0  0  0  0  0  0  0  0
  189.1160  178.8800  137.0350 O   0  0  0  0  0  1  0  0  0  0  0  0
  184.3620  177.8740  137.7530 C   0  0  0  0  0  2  0  0  0  0  0  0
  181.7950  177.5080  139.3780 C   0  0  2  0  0  3  0  0  0  0  0  0
  185.6620  177.3020  137.1980 C   0  0  2  0  0  3  0  0  0  0  0  0
  185.7740  175.8230  137.5940 C   0  0  0  0  0  2  0  0  0  0  0  0
  186.5060  177.8760  141.1930 C   0  0  0  0  0  2  0  0  0  0  0  0
  183.1980  177.1180  137.2880 N   0  0  1  0  0  0  0  0  0  0  0  0
  180.9180  179.7470  139.6290 O   0  0  0  0  0  1  0  0  0  0  0  0
  181.8000  178.8180  140.1820 C   0  0  2  0  0  3  0  0  0  0  0  0
  187.8960  178.3120  141.0520 N   0  0  0  0  0  0  0  0  0  0  0  0
  185.5420  179.0350  141.0000 C   0  0  0  0  0  2  0  0  0  0  0  0
  183.1920  179.4270  140.2940 C   0  0  0  0  0  2  0  0  0  0  0  0
  186.8050  178.2200  137.6750 C   0  0  1  0  0  3  0  0  0  0  0  0
  184.5360  175.0640  137.1350 C   0  0  0  0  0  2  0  0  0  0  0  0
  183.2980  175.7210  137.7300 C   0  0  0  0  0  2  0  0  0  0  0  0
  187.7800  177.5530  138.6560 C   0  0  2  0  0  3  0  0  0  0  0  0
  182.0050  177.7620  137.8550 C   0  0  1  0  0  3  0  0  0  0  0  0
  180.5710  176.6440  139.7310 C   0  0  1  0  0  3  0  0  0  0  0  0
  179.3920  177.3750  139.5740 O   0  0  0  0  0  1  0  0  0  0  0  0
  179.1570  175.0890  138.5590 O   0  0  0  0  0  0  0  0  0  0  0  0
  179.8300  174.2550  139.4660 C   0  0  1  0  0  0  0  0  0  0  0  0
  180.0640  173.0040  138.8960 O   0  0  0  0  0  1  0  0  0  0  0  0
  180.5050  175.4160  138.8270 C   0  0  2  0  0  3  0  0  0  0  0  0
  179.4540  173.3780  141.7320 C   0  0  0  0  0  2  0  0  0  0  0  0
  179.1800  174.3020  140.8160 C   0  0  0  0  0  3  0  0  0  0  0  0
  180.8730  177.4690  137.0890 O   0  0  0  0  0  0  0  0  0  0  0  0
  180.6840  178.5410  136.3500 O   0  0  0  0  0  1  0  0  0  0  0  0
  189.2330  175.8260  137.0310 O   0  0  0  0  0  1  0  0  0  0  0  0
  188.3740  176.6530  136.3880 N   0  0  0  0  0  2  0  0  0  0  0  0
  188.7360  177.2070  141.4930 C   0  0  0  0  0  2  0  0  0  0  0  0
  189.9340  177.7190  142.2910 C   0  0  0  0  0  2  0  0  0  0  0  0
  191.4300  176.6140  146.2340 C   0  0  2  0  0  3  0  0  0  0  0  0
  189.9330  176.8800  146.1130 C   0  0  0  0  0  2  0  0  0  0  0  0
  189.6190  177.6580  144.8330 C   0  0  1  0  0  3  0  0  0  0  0  0
  191.6720  176.6190  143.7520 C   0  0  0  0  0  2  0  0  0  0  0  0
  191.9130  175.8210  145.0280 C   0  0  0  0  0  2  0  0  0  0  0  0
  190.1850  176.9400  143.5890 C   0  0  2  0  0  3  0  0  0  0  0  0
  191.7440  175.6880  147.7180 Cl  0  0  0  0  0  0  0  0  0  0  0  0
  188.1110  177.9080  144.7280 C   0  0  0  0  0  2  0  0  0  0  0  0
  187.4190  177.5120  145.9460 N   0  0  0  0  0  2  0  0  0  0  0  0
  186.0690  177.6030  145.6890 O   0  0  0  0  0  0  0  0  0  0  0  0
  185.7370  179.3780  147.3430 N   0  0  0  0  0  1  0  0  0  0  0  0
  185.3150  178.6630  146.1850 C   0  0  0  0  0  0  0  0  0  0  0  0
  184.2210  179.0020  145.5890 N   0  0  0  0  0  2  0  0  0  0  0  0
  1 13  1  0  0  0  0
  3  4  1  6  0  0  0
  3 16  1  0  0  0  0
  3 19  1  0  0  0  0
  6 21  1  6  0  0  0
  6 12  1  0  0  0  0
  7  8  1  1  0  0  0
  7 16  1  0  0  0  0
  7  5  1  0  0  0  0
 10 18  1  1  0  0  0
 10  5  1  0  0  0  0
 10 20  1  0  0  0  0
 12 11  1  6  0  0  0
 12 15  1  0  0  0  0
 13  9  1  0  0  0  0
 13 33  1  0  0  0  0
 14  2  1  0  0  0  0
 14  9  1  0  0  0  0
 15  2  1  0  0  0  0
 16 19  1  0  0  0  0
 17  8  1  0  0  0  0
 17 18  1  0  0  0  0
 19  1  1  0  0  0  0
 20  6  1  0  0  0  0
 22 21  1  0  0  0  0
 23 26  1  0  0  0  0
 23 24  1  0  0  0  0
 24 28  1  0  0  0  0
 25 24  1  0  0  0  0
 26 24  1  0  0  0  0
 26 21  1  0  0  0  0
 28 27  2  0  0  0  0
 29 20  1  0  0  0  0
 30 29  1  0  0  0  0
 32 31  1  0  0  0  0
 32  3  1  0  0  0  0
 33 34  1  0  0  0  0
 34 40  1  0  0  0  0
 35 41  1  0  0  0  0
 36 35  1  0  0  0  0
 37 36  1  0  0  0  0
 38 39  1  0  0  0  0
 39 35  1  0  0  0  0
 40 38  1  0  0  0  0
 40 37  1  0  0  0  0
 42 37  1  0  0  0  0
 42 43  1  0  0  0  0
 44 43  1  0  0  0  0
 44 46  1  0  0  0  0
 46 45  1  0  0  0  0
 47 46  2  0  0  0  0
M  END
>  <MODEL>
3

>  <REMARK>
 VINA RESULT:      -6.8      1.432      2.074
  Name = 
  12 active torsions:
  status: ('A' for Active; 'I' for Inactive)
    1  A    between atoms: C_2  and  C_11
    2  A    between atoms: C_2  and  C_29
    3  A    between atoms: C_4  and  N_28
    4  A    between atoms: O_14  and  C_47
    5  A    between atoms: C_15  and  C_38
    6  A    between atoms: C_18  and  C_41
    7  A    between atoms: C_19  and  C_31
    8  A    between atoms: C_19  and  C_44
    9  A    between atoms: C_22  and  O_32
   10  A    between atoms: N_23  and  O_32
   11  A    between atoms: N_23  and  C_41
   12  A    between atoms: N_36  and  C_44
                            x       y       z     vdW  Elec       q    Type
                         _______ _______ _______ _____ _____    ______ ____

>  <TORSDO>
F 12

$$$$
=
 OpenBabel11062417293D

 47 51  0  0  1  0  0  0  0  0999 V2000
  188.4070  178.6590  139.7960 C   0  0  0  0  0  2  0  0  0  0  0  0
  184.2770  178.4890  141.1090 C   0  0  0  0  0  2  0  0  0  0  0  0
  188.4370  177.9180  137.3480 C   0  0  2  0  0  0  0  0  0  0  0  0
  189.3480  178.9690  137.2030 O   0  0  0  0  0  1  0  0  0  0  0  0
  184.5840  177.9320  137.8000 C   0  0  0  0  0  2  0  0  0  0  0  0
  181.9850  177.5240  139.3630 C   0  0  2  0  0  3  0  0  0  0  0  0
  185.8980  177.3770  137.2610 C   0  0  2  0  0  3  0  0  0  0  0  0
  186.0070  175.8890  137.6270 C   0  0  0  0  0  2  0  0  0  0  0  0
  186.6570  177.8690  141.2830 C   0  0  0  0  0  2  0  0  0  0  0  0
  183.4330  177.1820  137.2950 N   0  0  1  0  0  0  0  0  0  0  0  0
  181.0950  179.7550  139.6430 O   0  0  0  0  0  1  0  0  0  0  0  0
  181.9690  178.8170  140.1950 C   0  0  2  0  0  3  0  0  0  0  0  0
  188.0470  178.3120  141.1810 N   0  0  0  0  0  0  0  0  0  0  0  0
  185.6930  179.0280  141.0950 C   0  0  0  0  0  2  0  0  0  0  0  0
  183.3560  179.4280  140.3480 C   0  0  0  0  0  2  0  0  0  0  0  0
  187.0270  178.2870  137.7800 C   0  0  1  0  0  3  0  0  0  0  0  0
  184.7810  175.1370  137.1270 C   0  0  0  0  0  2  0  0  0  0  0  0
  183.5280  175.7770  137.7100 C   0  0  0  0  0  2  0  0  0  0  0  0
  187.9840  177.6030  138.7670 C   0  0  2  0  0  3  0  0  0  0  0  0
  182.2260  177.8110  137.8510 C   0  0  1  0  0  3  0  0  0  0  0  0
  180.7570  176.6480  139.6720 C   0  0  1  0  0  3  0  0  0  0  0  0
  179.5790  177.3800  139.5070 O   0  0  0  0  0  1  0  0  0  0  0  0
  179.3770  175.1520  138.3900 O   0  0  0  0  0  0  0  0  0  0  0  0
  179.9760  174.2850  139.3160 C   0  0  1  0  0  0  0  0  0  0  0  0
  180.2120  173.0390  138.7360 O   0  0  0  0  0  1  0  0  0  0  0  0
  180.7140  175.4410  138.7410 C   0  0  2  0  0  3  0  0  0  0  0  0
  179.5760  173.4830  141.6060 C   0  0  0  0  0  2  0  0  0  0  0  0
  179.2510  174.3220  140.6280 C   0  0  0  0  0  3  0  0  0  0  0  0
  181.1110  177.5300  137.0550 O   0  0  0  0  0  0  0  0  0  0  0  0
  181.4330  177.9790  135.8610 O   0  0  0  0  0  1  0  0  0  0  0  0
  189.8350  176.8870  135.8930 O   0  0  0  0  0  1  0  0  0  0  0  0
  188.6280  176.7530  136.4940 N   0  0  0  0  0  2  0  0  0  0  0  0
  188.8820  177.2010  141.6160 C   0  0  0  0  0  2  0  0  0  0  0  0
  188.2530  176.4800  142.8070 C   0  0  0  0  0  2  0  0  0  0  0  0
  187.7880  177.6870  146.9700 C   0  0  2  0  0  3  0  0  0  0  0  0
  189.1720  177.8570  146.3520 C   0  0  0  0  0  2  0  0  0  0  0  0
  189.3080  177.0200  145.0790 C   0  0  1  0  0  3  0  0  0  0  0  0
  186.7990  177.2310  144.7270 C   0  0  0  0  0  2  0  0  0  0  0  0
  186.7210  178.1090  145.9700 C   0  0  0  0  0  2  0  0  0  0  0  0
  188.1790  177.3400  144.0750 C   0  0  2  0  0  3  0  0  0  0  0  0
  187.6680  178.6960  148.4280 Cl  0  0  0  0  0  0  0  0  0  0  0  0
  190.7010  177.2110  144.4710 C   0  0  0  0  0  2  0  0  0  0  0  0
  191.6540  176.2500  145.0090 N   0  0  0  0  0  2  0  0  0  0  0  0
  192.0450  176.7210  146.2440 O   0  0  0  0  0  0  0  0  0  0  0  0
  193.3600  175.7650  148.0750 N   0  0  0  0  0  1  0  0  0  0  0  0
  192.1450  175.8650  147.3370 C   0  0  0  0  0  0  0  0  0  0  0  0
  191.1260  175.1540  147.6860 N   0  0  0  0  0  2  0  0  0  0  0  0
  1 13  1  0  0  0  0
  3  4  1  6  0  0  0
  3 16  1  0  0  0  0
  3 19  1  0  0  0  0
  6 21  1  6  0  0  0
  6 12  1  0  0  0  0
  7  8  1  1  0  0  0
  7 16  1  0  0  0  0
  7  5  1  0  0  0  0
 10 18  1  1  0  0  0
 10  5  1  0  0  0  0
 10 20  1  0  0  0  0
 12 11  1  6  0  0  0
 12 15  1  0  0  0  0
 13  9  1  0  0  0  0
 13 33  1  0  0  0  0
 14  2  1  0  0  0  0
 14  9  1  0  0  0  0
 15  2  1  0  0  0  0
 16 19  1  0  0  0  0
 17  8  1  0  0  0  0
 17 18  1  0  0  0  0
 19  1  1  0  0  0  0
 20  6  1  0  0  0  0
 22 21  1  0  0  0  0
 23 26  1  0  0  0  0
 23 24  1  0  0  0  0
 24 28  1  0  0  0  0
 25 24  1  0  0  0  0
 26 24  1  0  0  0  0
 26 21  1  0  0  0  0
 28 27  2  0  0  0  0
 29 20  1  0  0  0  0
 30 29  1  0  0  0  0
 31 32  1  0  0  0  0
 32  3  1  0  0  0  0
 33 34  1  0  0  0  0
 34 40  1  0  0  0  0
 35 41  1  0  0  0  0
 36 35  1  0  0  0  0
 37 36  1  0  0  0  0
 38 39  1  0  0  0  0
 39 35  1  0  0  0  0
 40 38  1  0  0  0  0
 40 37  1  0  0  0  0
 42 43  1  0  0  0  0
 42 37  1  0  0  0  0
 43 44  1  0  0  0  0
 44 46  1  0  0  0  0
 46 47  2  0  0  0  0
 46 45  1  0  0  0  0
M  END
>  <MODEL>
4

>  <REMARK>
 VINA RESULT:      -6.8      2.476      3.608
  Name = 
  12 active torsions:
  status: ('A' for Active; 'I' for Inactive)
    1  A    between atoms: C_2  and  C_11
    2  A    between atoms: C_2  and  C_29
    3  A    between atoms: C_4  and  N_28
    4  A    between atoms: O_14  and  C_47
    5  A    between atoms: C_15  and  C_38
    6  A    between atoms: C_18  and  C_41
    7  A    between atoms: C_19  and  C_31
    8  A    between atoms: C_19  and  C_44
    9  A    between atoms: C_22  and  O_32
   10  A    between atoms: N_23  and  O_32
   11  A    between atoms: N_23  and  C_41
   12  A    between atoms: N_36  and  C_44
                            x       y       z     vdW  Elec       q    Type
                         _______ _______ _______ _____ _____    ______ ____

>  <TORSDO>
F 12

$$$$
=
 OpenBabel11062417293D

 47 51  0  0  1  0  0  0  0  0999 V2000
  188.8950  177.9320  139.1320 C   0  0  0  0  0  2  0  0  0  0  0  0
  184.7320  178.6620  140.1050 C   0  0  0  0  0  2  0  0  0  0  0  0
  188.9320  176.8000  136.8390 C   0  0  2  0  0  0  0  0  0  0  0  0
  190.0200  177.6480  136.6110 O   0  0  0  0  0  1  0  0  0  0  0  0
  185.1220  177.5220  136.9590 C   0  0  0  0  0  2  0  0  0  0  0  0
  182.4080  177.8120  138.3430 C   0  0  2  0  0  3  0  0  0  0  0  0
  186.3460  176.6770  136.6230 C   0  0  2  0  0  3  0  0  0  0  0  0
  186.1710  175.2740  137.2220 C   0  0  0  0  0  2  0  0  0  0  0  0
  186.9520  177.6980  140.5720 C   0  0  0  0  0  2  0  0  0  0  0  0
  183.8870  176.8990  136.4810 N   0  0  1  0  0  0  0  0  0  0  0  0
  181.9090  180.1740  138.2010 O   0  0  0  0  0  1  0  0  0  0  0  0
  182.5730  179.2100  138.9620 C   0  0  2  0  0  3  0  0  0  0  0  0
  188.4020  177.8830  140.5190 N   0  0  0  0  0  0  0  0  0  0  0  0
  186.2190  178.9520  140.1270 C   0  0  0  0  0  2  0  0  0  0  0  0
  184.0350  179.6010  139.1360 C   0  0  0  0  0  2  0  0  0  0  0  0
  187.5870  177.4630  137.0900 C   0  0  1  0  0  3  0  0  0  0  0  0
  184.8620  174.6610  136.7430 C   0  0  0  0  0  2  0  0  0  0  0  0
  183.7110  175.5850  137.1130 C   0  0  0  0  0  2  0  0  0  0  0  0
  188.3510  176.8040  138.2470 C   0  0  2  0  0  3  0  0  0  0  0  0
  182.7800  177.8010  136.8300 C   0  0  1  0  0  3  0  0  0  0  0  0
  181.0300  177.2140  138.6790 C   0  0  1  0  0  3  0  0  0  0  0  0
  180.8500  175.9960  138.0200 O   0  0  0  0  0  1  0  0  0  0  0  0
  179.6150  176.4760  140.4800 O   0  0  0  0  0  0  0  0  0  0  0  0
  179.8520  177.8170  140.8170 C   0  0  1  0  0  0  0  0  0  0  0  0
  179.9230  177.9660  142.2010 O   0  0  0  0  0  1  0  0  0  0  0  0
  180.9010  176.9770  140.1800 C   0  0  2  0  0  3  0  0  0  0  0  0
  179.0410  180.0480  140.1720 C   0  0  0  0  0  2  0  0  0  0  0  0
  178.9330  178.7270  140.0590 C   0  0  0  0  0  3  0  0  0  0  0  0
  181.6800  177.5790  135.9960 O   0  0  0  0  0  0  0  0  0  0  0  0
  181.9480  178.2600  134.9030 O   0  0  0  0  0  1  0  0  0  0  0  0
  189.3260  175.6920  134.9020 O   0  0  0  0  0  1  0  0  0  0  0  0
  188.9630  175.4950  136.1930 N   0  0  0  0  0  2  0  0  0  0  0  0
  189.0030  176.7370  141.1890 C   0  0  0  0  0  2  0  0  0  0  0  0
  189.7270  177.1690  142.4630 C   0  0  0  0  0  2  0  0  0  0  0  0
  187.1860  177.4750  145.9920 C   0  0  2  0  0  3  0  0  0  0  0  0
  188.4700  178.2990  145.9920 C   0  0  0  0  0  2  0  0  0  0  0  0
  189.4480  177.7830  144.9350 C   0  0  1  0  0  3  0  0  0  0  0  0
  187.4690  176.9600  143.5690 C   0  0  0  0  0  2  0  0  0  0  0  0
  186.5300  177.5400  144.6200 C   0  0  0  0  0  2  0  0  0  0  0  0
  188.7900  177.7310  143.5390 C   0  0  2  0  0  3  0  0  0  0  0  0
  186.0720  178.1250  147.2140 Cl  0  0  0  0  0  0  0  0  0  0  0  0
  190.7270  178.6280  144.9460 C   0  0  0  0  0  2  0  0  0  0  0  0
  191.8440  177.8970  145.5260 N   0  0  0  0  0  2  0  0  0  0  0  0
  191.3490  176.6890  145.9650 O   0  0  0  0  0  0  0  0  0  0  0  0
  192.5760  176.1070  148.0030 N   0  0  0  0  0  1  0  0  0  0  0  0
  192.1520  175.8020  146.6770 C   0  0  0  0  0  0  0  0  0  0  0  0
  192.5170  174.6910  146.1300 N   0  0  0  0  0  2  0  0  0  0  0  0
  1 13  1  0  0  0  0
  2 14  1  0  0  0  0
  3  4  1  6  0  0  0
  3 16  1  0  0  0  0
  3 19  1  0  0  0  0
  6 21  1  6  0  0  0
  6 12  1  0  0  0  0
  7  5  1  1  0  0  0
  7 16  1  0  0  0  0
  7  8  1  0  0  0  0
 10 20  1  0  0  0  0
 10  5  1  1  0  0  0
 10 18  1  0  0  0  0
 12 11  1  6  0  0  0
 12 15  1  0  0  0  0
 13  9  1  0  0  0  0
 13 33  1  0  0  0  0
 14  9  1  0  0  0  0
 15  2  1  0  0  0  0
 16 19  1  0  0  0  0
 17 18  1  0  0  0  0
 17  8  1  0  0  0  0
 19  1  1  0  0  0  0
 20  6  1  0  0  0  0
 21 26  1  0  0  0  0
 22 21  1  0  0  0  0
 23 24  1  0  0  0  0
 24 25  1  0  0  0  0
 26 23  1  0  0  0  0
 26 24  1  0  0  0  0
 28 27  2  0  0  0  0
 28 24  1  0  0  0  0
 29 20  1  0  0  0  0
 30 29  1  0  0  0  0
 31 32  1  0  0  0  0
 32  3  1  0  0  0  0
 33 34  1  0  0  0  0
 34 40  1  0  0  0  0
 35 36  1  0  0  0  0
 35 41  1  0  0  0  0
 37 42  1  0  0  0  0
 37 36  1  0  0  0  0
 38 39  1  0  0  0  0
 39 35  1  0  0  0  0
 40 38  1  0  0  0  0
 40 37  1  0  0  0  0
 42 43  1  0  0  0  0
 43 44  1  0  0  0  0
 44 46  1  0  0  0  0
 46 45  1  0  0  0  0
 47 46  2  0  0  0  0
M  END
>  <MODEL>
5

>  <REMARK>
 VINA RESULT:      -6.0      2.243      3.173
  Name = 
  12 active torsions:
  status: ('A' for Active; 'I' for Inactive)
    1  A    between atoms: C_2  and  C_11
    2  A    between atoms: C_2  and  C_29
    3  A    between atoms: C_4  and  N_28
    4  A    between atoms: O_14  and  C_47
    5  A    between atoms: C_15  and  C_38
    6  A    between atoms: C_18  and  C_41
    7  A    between atoms: C_19  and  C_31
    8  A    between atoms: C_19  and  C_44
    9  A    between atoms: C_22  and  O_32
   10  A    between atoms: N_23  and  O_32
   11  A    between atoms: N_23  and  C_41
   12  A    between atoms: N_36  and  C_44
                            x       y       z     vdW  Elec       q    Type
                         _______ _______ _______ _____ _____    ______ ____

>  <TORSDO>
F 12

$$$$
=
 OpenBabel11062417293D

 47 51  0  0  1  0  0  0  0  0999 V2000
  186.8230  175.0250  136.1280 C   0  0  0  0  0  2  0  0  0  0  0  0
  190.6710  173.0270  136.0460 C   0  0  0  0  0  2  0  0  0  0  0  0
  187.2510  177.4270  136.8950 C   0  0  2  0  0  0  0  0  0  0  0  0
  186.3220  177.7450  135.9000 O   0  0  0  0  0  1  0  0  0  0  0  0
  190.9650  176.3280  136.6540 C   0  0  0  0  0  2  0  0  0  0  0  0
  193.2770  174.3380  136.8950 C   0  0  2  0  0  3  0  0  0  0  0  0
  189.7940  177.0710  137.2890 C   0  0  2  0  0  3  0  0  0  0  0  0
  189.7070  176.6990  138.7760 C   0  0  0  0  0  2  0  0  0  0  0  0
  188.3350  173.2460  136.8010 C   0  0  0  0  0  2  0  0  0  0  0  0
  192.2240  176.6150  137.3410 N   0  0  1  0  0  0  0  0  0  0  0  0
  193.9820  173.9560  134.6140 O   0  0  0  0  0  1  0  0  0  0  0  0
  193.0800  173.5420  135.5950 C   0  0  2  0  0  3  0  0  0  0  0  0
  186.9600  173.5920  136.4400 N   0  0  0  0  0  0  0  0  0  0  0  0
  189.2510  173.2920  135.5900 C   0  0  0  0  0  2  0  0  0  0  0  0
  191.6550  173.6380  135.0630 C   0  0  0  0  0  2  0  0  0  0  0  0
  188.5450  176.7690  136.4400 C   0  0  1  0  0  3  0  0  0  0  0  0
  191.0400  176.9680  139.4620 C   0  0  0  0  0  2  0  0  0  0  0  0
  192.1370  176.1940  138.7450 C   0  0  0  0  0  2  0  0  0  0  0  0
  187.4730  175.9450  137.1680 C   0  0  2  0  0  3  0  0  0  0  0  0
  193.2820  175.8750  136.6380 C   0  0  1  0  0  3  0  0  0  0  0  0
  194.4810  173.8080  137.6950 C   0  0  1  0  0  3  0  0  0  0  0  0
  194.4080  172.4210  137.8290 O   0  0  0  0  0  1  0  0  0  0  0  0
  196.8020  173.2590  137.3810 O   0  0  0  0  0  0  0  0  0  0  0  0
  196.8720  174.5480  137.9310 C   0  0  1  0  0  0  0  0  0  0  0  0
  197.9490  175.2500  137.3900 O   0  0  0  0  0  1  0  0  0  0  0  0
  195.7870  174.1610  136.9900 C   0  0  2  0  0  3  0  0  0  0  0  0
  197.5880  175.1750  140.1980 C   0  0  0  0  0  2  0  0  0  0  0  0
  196.7450  174.4990  139.4240 C   0  0  0  0  0  3  0  0  0  0  0  0
  194.5300  176.4640  136.8620 O   0  0  0  0  0  0  0  0  0  0  0  0
  194.7690  177.1630  135.7730 O   0  0  0  0  0  1  0  0  0  0  0  0
  186.0630  178.8800  138.1640 O   0  0  0  0  0  1  0  0  0  0  0  0
  187.2740  178.2780  138.0770 N   0  0  0  0  0  2  0  0  0  0  0  0
  186.1250  173.2830  137.5930 C   0  0  0  0  0  2  0  0  0  0  0  0
  184.7350  173.8970  137.4390 C   0  0  0  0  0  2  0  0  0  0  0  0
  181.5540  171.1730  136.2300 C   0  0  2  0  0  3  0  0  0  0  0  0
  181.3940  172.6380  135.8400 C   0  0  0  0  0  2  0  0  0  0  0  0
  182.3180  173.5290  136.6720 C   0  0  1  0  0  3  0  0  0  0  0  0
  183.9230  171.5700  136.9020 C   0  0  0  0  0  2  0  0  0  0  0  0
  182.9980  170.7380  136.0210 C   0  0  0  0  0  2  0  0  0  0  0  0
  183.7860  173.0590  136.5750 C   0  0  2  0  0  3  0  0  0  0  0  0
  180.4830  170.1760  135.2210 Cl  0  0  0  0  0  0  0  0  0  0  0  0
  182.1460  174.9940  136.2600 C   0  0  0  0  0  2  0  0  0  0  0  0
  181.0730  175.6360  137.0070 N   0  0  0  0  0  2  0  0  0  0  0  0
  181.4950  175.7300  138.3150 O   0  0  0  0  0  0  0  0  0  0  0  0
  182.0160  178.1180  138.1580 N   0  0  0  0  0  2  0  0  0  0  0  0
  182.2080  176.8400  138.7600 C   0  0  0  0  0  0  0  0  0  0  0  0
  183.0520  176.7110  139.7270 N   0  0  0  0  0  1  0  0  0  0  0  0
  1 13  1  0  0  0  0
  1 19  1  0  0  0  0
  3  4  1  6  0  0  0
  3 19  1  0  0  0  0
  3 32  1  0  0  0  0
  6 21  1  6  0  0  0
  7  5  1  6  0  0  0
  7  8  1  0  0  0  0
  8 17  1  0  0  0  0
 10  5  1  6  0  0  0
 10 18  1  0  0  0  0
 12 11  1  6  0  0  0
 12  6  1  0  0  0  0
 13  9  1  0  0  0  0
 13 33  1  0  0  0  0
 14  2  1  0  0  0  0
 14  9  1  0  0  0  0
 15 12  1  0  0  0  0
 15  2  1  0  0  0  0
 16  3  1  0  0  0  0
 16 19  1  0  0  0  0
 16  7  1  0  0  0  0
 18 17  1  0  0  0  0
 20 29  1  0  0  0  0
 20  6  1  0  0  0  0
 20 10  1  0  0  0  0
 21 22  1  0  0  0  0
 23 24  1  0  0  0  0
 24 28  1  0  0  0  0
 25 24  1  0  0  0  0
 26 23  1  0  0  0  0
 26 21  1  0  0  0  0
 26 24  1  0  0  0  0
 28 27  2  0  0  0  0
 30 29  1  0  0  0  0
 32 31  1  0  0  0  0
 34 33  1  0  0  0  0
 36 35  1  0  0  0  0
 36 37  1  0  0  0  0
 39 35  1  0  0  0  0
 39 38  1  0  0  0  0
 40 37  1  0  0  0  0
 40 38  1  0  0  0  0
 40 34  1  0  0  0  0
 41 35  1  0  0  0  0
 42 37  1  0  0  0  0
 42 43  1  0  0  0  0
 43 44  1  0  0  0  0
 44 46  1  0  0  0  0
 45 46  2  0  0  0  0
 46 47  1  0  0  0  0
M  END
>  <MODEL>
6

>  <REMARK>
 VINA RESULT:      -5.7      5.047     10.976
  Name = 
  12 active torsions:
  status: ('A' for Active; 'I' for Inactive)
    1  A    between atoms: C_2  and  C_11
    2  A    between atoms: C_2  and  C_29
    3  A    between atoms: C_4  and  N_28
    4  A    between atoms: O_14  and  C_47
    5  A    between atoms: C_15  and  C_38
    6  A    between atoms: C_18  and  C_41
    7  A    between atoms: C_19  and  C_31
    8  A    between atoms: C_19  and  C_44
    9  A    between atoms: C_22  and  O_32
   10  A    between atoms: N_23  and  O_32
   11  A    between atoms: N_23  and  C_41
   12  A    between atoms: N_36  and  C_44
                            x       y       z     vdW  Elec       q    Type
                         _______ _______ _______ _____ _____    ______ ____

>  <TORSDO>
F 12

$$$$
=
 OpenBabel11062417293D

 47 51  0  0  1  0  0  0  0  0999 V2000
  188.2360  177.4370  136.3700 C   0  0  0  0  0  2  0  0  0  0  0  0
  184.0180  177.7880  137.3180 C   0  0  0  0  0  2  0  0  0  0  0  0
  188.6120  175.0460  135.5440 C   0  0  2  0  0  0  0  0  0  0  0  0
  189.4310  175.6680  134.5960 O   0  0  0  0  0  1  0  0  0  0  0  0
  184.7480  174.8520  135.8360 C   0  0  0  0  0  2  0  0  0  0  0  0
  182.0390  175.4930  137.1060 C   0  0  2  0  0  3  0  0  0  0  0  0
  186.1610  174.2910  135.9580 C   0  0  2  0  0  3  0  0  0  0  0  0
  186.3670  173.7450  137.3780 C   0  0  0  0  0  2  0  0  0  0  0  0
  186.4110  177.9200  137.8990 C   0  0  0  0  0  2  0  0  0  0  0  0
  183.7370  173.8450  136.1610 N   0  0  1  0  0  0  0  0  0  0  0  0
  180.9180  176.8730  135.4670 O   0  0  0  0  0  1  0  0  0  0  0  0
  181.8080  176.9050  136.5420 C   0  0  2  0  0  3  0  0  0  0  0  0
  187.7560  178.2970  137.4650 N   0  0  0  0  0  0  0  0  0  0  0  0
  185.3700  178.2950  136.8580 C   0  0  0  0  0  2  0  0  0  0  0  0
  183.1050  177.5840  136.1210 C   0  0  0  0  0  2  0  0  0  0  0  0
  187.1340  175.3990  135.5110 C   0  0  1  0  0  3  0  0  0  0  0  0
  185.2820  172.7300  137.7100 C   0  0  0  0  0  2  0  0  0  0  0  0
  183.9170  173.3840  137.5440 C   0  0  0  0  0  2  0  0  0  0  0  0
  188.0330  175.9390  136.6320 C   0  0  2  0  0  3  0  0  0  0  0  0
  182.4210  174.4780  135.9880 C   0  0  1  0  0  3  0  0  0  0  0  0
  180.8720  175.0570  138.0100 C   0  0  1  0  0  3  0  0  0  0  0  0
  180.7790  173.6650  138.0530 O   0  0  0  0  0  1  0  0  0  0  0  0
  179.9000  175.3670  140.1890 O   0  0  0  0  0  0  0  0  0  0  0  0
  180.1490  176.6870  139.7830 C   0  0  1  0  0  0  0  0  0  0  0  0
  180.5050  177.4730  140.8780 O   0  0  0  0  0  1  0  0  0  0  0  0
  181.0730  175.5760  139.4300 C   0  0  2  0  0  3  0  0  0  0  0  0
  178.9360  178.4820  138.6190 C   0  0  0  0  0  2  0  0  0  0  0  0
  179.0560  177.1850  138.8870 C   0  0  0  0  0  3  0  0  0  0  0  0
  181.4350  173.5130  135.7630 O   0  0  0  0  0  0  0  0  0  0  0  0
  181.9200  172.7610  134.7980 O   0  0  0  0  0  1  0  0  0  0  0  0
  189.6810  173.8630  137.1550 O   0  0  0  0  0  1  0  0  0  0  0  0
  189.0070  173.7160  135.9880 N   0  0  0  0  0  2  0  0  0  0  0  0
  188.6370  178.1290  138.6130 C   0  0  0  0  0  2  0  0  0  0  0  0
  187.8400  177.7630  139.8630 C   0  0  0  0  0  2  0  0  0  0  0  0
  189.6640  176.7370  143.6870 C   0  0  2  0  0  3  0  0  0  0  0  0
  190.6070  176.9540  142.5080 C   0  0  0  0  0  2  0  0  0  0  0  0
  189.8490  176.8740  141.1810 C   0  0  1  0  0  3  0  0  0  0  0  0
  187.7550  177.6710  142.3820 C   0  0  0  0  0  2  0  0  0  0  0  0
  188.5640  177.7900  143.6690 C   0  0  0  0  0  2  0  0  0  0  0  0
  188.6550  177.8540  141.1590 C   0  0  2  0  0  3  0  0  0  0  0  0
  190.5820  176.8640  145.2030 Cl  0  0  0  0  0  0  0  0  0  0  0  0
  190.8120  177.1020  140.0120 C   0  0  0  0  0  2  0  0  0  0  0  0
  190.9660  175.8980  139.2060 N   0  0  0  0  0  2  0  0  0  0  0  0
  191.7740  176.2280  138.1410 O   0  0  0  0  0  0  0  0  0  0  0  0
  193.7770  176.6420  139.4890 N   0  0  0  0  0  1  0  0  0  0  0  0
  193.1610  176.2370  138.2690 C   0  0  0  0  0  0  0  0  0  0  0  0
  193.8960  175.8750  137.2720 N   0  0  0  0  0  2  0  0  0  0  0  0
  1 19  1  0  0  0  0
  1 13  1  0  0  0  0
  3  4  1  6  0  0  0
  3 32  1  0  0  0  0
  3 19  1  0  0  0  0
  6 21  1  6  0  0  0
  7  5  1  1  0  0  0
  7  8  1  0  0  0  0
  8 17  1  0  0  0  0
 10  5  1  1  0  0  0
 10 18  1  0  0  0  0
 12 11  1  6  0  0  0
 12  6  1  0  0  0  0
 13  9  1  0  0  0  0
 13 33  1  0  0  0  0
 14  2  1  0  0  0  0
 14  9  1  0  0  0  0
 15 12  1  0  0  0  0
 15  2  1  0  0  0  0
 16  3  1  0  0  0  0
 16  7  1  0  0  0  0
 16 19  1  0  0  0  0
 18 17  1  0  0  0  0
 20 10  1  0  0  0  0
 20  6  1  0  0  0  0
 21 22  1  0  0  0  0
 21 26  1  0  0  0  0
 24 23  1  0  0  0  0
 24 25  1  0  0  0  0
 26 24  1  0  0  0  0
 26 23  1  0  0  0  0
 27 28  2  0  0  0  0
 28 24  1  0  0  0  0
 29 20  1  0  0  0  0
 30 29  1  0  0  0  0
 32 31  1  0  0  0  0
 33 34  1  0  0  0  0
 34 40  1  0  0  0  0
 35 41  1  0  0  0  0
 36 35  1  0  0  0  0
 37 36  1  0  0  0  0
 38 39  1  0  0  0  0
 39 35  1  0  0  0  0
 40 37  1  0  0  0  0
 40 38  1  0  0  0  0
 42 37  1  0  0  0  0
 43 42  1  0  0  0  0
 44 46  1  0  0  0  0
 44 43  1  0  0  0  0
 46 45  1  0  0  0  0
 47 46  2  0  0  0  0
M  END
>  <MODEL>
7

>  <REMARK>
 VINA RESULT:      -5.1      2.995      4.521
  Name = 
  12 active torsions:
  status: ('A' for Active; 'I' for Inactive)
    1  A    between atoms: C_2  and  C_11
    2  A    between atoms: C_2  and  C_29
    3  A    between atoms: C_4  and  N_28
    4  A    between atoms: O_14  and  C_47
    5  A    between atoms: C_15  and  C_38
    6  A    between atoms: C_18  and  C_41
    7  A    between atoms: C_19  and  C_31
    8  A    between atoms: C_19  and  C_44
    9  A    between atoms: C_22  and  O_32
   10  A    between atoms: N_23  and  O_32
   11  A    between atoms: N_23  and  C_41
   12  A    between atoms: N_36  and  C_44
                            x       y       z     vdW  Elec       q    Type
                         _______ _______ _______ _____ _____    ______ ____

>  <TORSDO>
F 12

$$$$
=
 OpenBabel11062417293D

 47 51  0  0  1  0  0  0  0  0999 V2000
  188.4330  177.4010  136.1800 C   0  0  0  0  0  2  0  0  0  0  0  0
  184.1460  177.5730  136.8180 C   0  0  0  0  0  2  0  0  0  0  0  0
  188.9870  174.9930  135.5180 C   0  0  2  0  0  0  0  0  0  0  0  0
  189.8380  175.6080  134.5940 O   0  0  0  0  0  1  0  0  0  0  0  0
  185.1270  174.6060  135.5570 C   0  0  0  0  0  2  0  0  0  0  0  0
  182.3050  175.1650  136.6030 C   0  0  2  0  0  3  0  0  0  0  0  0
  186.5540  174.1300  135.8070 C   0  0  2  0  0  3  0  0  0  0  0  0
  186.6860  173.6720  137.2670 C   0  0  0  0  0  2  0  0  0  0  0  0
  186.4820  177.8650  137.5510 C   0  0  0  0  0  2  0  0  0  0  0  0
  184.1470  173.5640  135.8700 N   0  0  1  0  0  0  0  0  0  0  0  0
  181.2350  176.3930  134.8160 O   0  0  0  0  0  1  0  0  0  0  0  0
  182.0440  176.5300  135.9450 C   0  0  2  0  0  3  0  0  0  0  0  0
  187.8330  178.2910  137.1890 N   0  0  0  0  0  0  0  0  0  0  0  0
  185.4990  178.1270  136.4220 C   0  0  0  0  0  2  0  0  0  0  0  0
  183.3320  177.2550  135.5750 C   0  0  0  0  0  2  0  0  0  0  0  0
  187.4990  175.2640  135.3640 C   0  0  1  0  0  3  0  0  0  0  0  0
  185.6320  172.6180  137.5810 C   0  0  0  0  0  2  0  0  0  0  0  0
  184.2520  173.1870  137.2860 C   0  0  0  0  0  2  0  0  0  0  0  0
  188.2870  175.9100  136.5120 C   0  0  2  0  0  3  0  0  0  0  0  0
  182.8170  174.1140  135.5720 C   0  0  1  0  0  3  0  0  0  0  0  0
  181.1010  174.7150  137.4480 C   0  0  1  0  0  3  0  0  0  0  0  0
  181.1310  173.3330  137.6480 O   0  0  0  0  0  1  0  0  0  0  0  0
  179.8860  175.1890  139.4700 O   0  0  0  0  0  0  0  0  0  0  0  0
  180.0880  176.4710  138.9360 C   0  0  1  0  0  0  0  0  0  0  0  0
  180.2740  177.4010  139.9580 O   0  0  0  0  0  1  0  0  0  0  0  0
  181.1160  175.4040  138.8090 C   0  0  2  0  0  3  0  0  0  0  0  0
  179.1620  177.8780  137.1440 C   0  0  0  0  0  2  0  0  0  0  0  0
  179.0650  176.7780  137.8840 C   0  0  0  0  0  3  0  0  0  0  0  0
  181.8990  173.0860  135.3360 O   0  0  0  0  0  0  0  0  0  0  0  0
  182.5780  172.1830  134.6610 O   0  0  0  0  0  1  0  0  0  0  0  0
  189.7620  173.9200  137.3560 O   0  0  0  0  0  1  0  0  0  0  0  0
  189.4160  173.7120  136.0630 N   0  0  0  0  0  2  0  0  0  0  0  0
  188.6390  178.2320  138.4010 C   0  0  0  0  0  2  0  0  0  0  0  0
  187.7520  178.0990  139.6380 C   0  0  0  0  0  2  0  0  0  0  0  0
  190.5190  177.9660  143.0040 C   0  0  2  0  0  3  0  0  0  0  0  0
  189.0320  178.0270  143.3350 C   0  0  0  0  0  2  0  0  0  0  0  0
  188.2230  178.4980  142.1250 C   0  0  1  0  0  3  0  0  0  0  0  0
  190.0070  177.5140  140.6050 C   0  0  0  0  0  2  0  0  0  0  0  0
  190.7500  177.0140  141.8390 C   0  0  0  0  0  2  0  0  0  0  0  0
  188.5070  177.6220  140.8860 C   0  0  2  0  0  3  0  0  0  0  0  0
  191.4150  177.3900  144.4270 Cl  0  0  0  0  0  0  0  0  0  0  0  0
  186.7320  178.5460  142.4760 C   0  0  0  0  0  2  0  0  0  0  0  0
  185.9800  179.3270  141.5040 N   0  0  0  0  0  2  0  0  0  0  0  0
  184.9630  178.5210  141.0410 O   0  0  0  0  0  0  0  0  0  0  0  0
  184.0110  180.1070  139.4370 N   0  0  0  0  0  2  0  0  0  0  0  0
  183.8560  179.0650  140.3960 C   0  0  0  0  0  0  0  0  0  0  0  0
  182.6760  178.6200  140.6700 N   0  0  0  0  0  1  0  0  0  0  0  0
  1 19  1  0  0  0  0
  1 13  1  0  0  0  0
  3  4  1  6  0  0  0
  3 32  1  0  0  0  0
  3 19  1  0  0  0  0
  6 21  1  6  0  0  0
  7  5  1  1  0  0  0
  7  8  1  0  0  0  0
  8 17  1  0  0  0  0
 10  5  1  1  0  0  0
 10 18  1  0  0  0  0
 12 11  1  6  0  0  0
 12  6  1  0  0  0  0
 13  9  1  0  0  0  0
 13 33  1  0  0  0  0
 14  2  1  0  0  0  0
 14  9  1  0  0  0  0
 15 12  1  0  0  0  0
 15  2  1  0  0  0  0
 16  3  1  0  0  0  0
 16  7  1  0  0  0  0
 16 19  1  0  0  0  0
 18 17  1  0  0  0  0
 20 10  1  0  0  0  0
 20  6  1  0  0  0  0
 21 22  1  0  0  0  0
 21 26  1  0  0  0  0
 24 23  1  0  0  0  0
 24 25  1  0  0  0  0
 26 24  1  0  0  0  0
 26 23  1  0  0  0  0
 27 28  2  0  0  0  0
 28 24  1  0  0  0  0
 29 20  1  0  0  0  0
 30 29  1  0  0  0  0
 32 31  1  0  0  0  0
 33 34  1  0  0  0  0
 34 40  1  0  0  0  0
 35 36  1  0  0  0  0
 35 41  1  0  0  0  0
 37 42  1  0  0  0  0
 37 36  1  0  0  0  0
 38 40  1  0  0  0  0
 38 39  1  0  0  0  0
 39 35  1  0  0  0  0
 40 37  1  0  0  0  0
 43 42  1  0  0  0  0
 44 43  1  0  0  0  0
 45 46  2  0  0  0  0
 46 47  1  0  0  0  0
 46 44  1  0  0  0  0
M  END
>  <MODEL>
8

>  <REMARK>
 VINA RESULT:      -5.0      2.326      3.279
  Name = 
  12 active torsions:
  status: ('A' for Active; 'I' for Inactive)
    1  A    between atoms: C_2  and  C_11
    2  A    between atoms: C_2  and  C_29
    3  A    between atoms: C_4  and  N_28
    4  A    between atoms: O_14  and  C_47
    5  A    between atoms: C_15  and  C_38
    6  A    between atoms: C_18  and  C_41
    7  A    between atoms: C_19  and  C_31
    8  A    between atoms: C_19  and  C_44
    9  A    between atoms: C_22  and  O_32
   10  A    between atoms: N_23  and  O_32
   11  A    between atoms: N_23  and  C_41
   12  A    between atoms: N_36  and  C_44
                            x       y       z     vdW  Elec       q    Type
                         _______ _______ _______ _____ _____    ______ ____

>  <TORSDO>
F 12

$$$$
=
 OpenBabel11062417293D

 47 51  0  0  1  0  0  0  0  0999 V2000
  180.7520  179.3930  141.0390 C   0  0  0  0  0  2  0  0  0  0  0  0
  181.3960  175.3230  139.6880 C   0  0  0  0  0  2  0  0  0  0  0  0
  180.1910  180.7820  138.9660 C   0  0  2  0  0  0  0  0  0  0  0  0
  179.2400  181.3670  139.8060 O   0  0  0  0  0  1  0  0  0  0  0  0
  180.2600  177.3170  137.2210 C   0  0  0  0  0  2  0  0  0  0  0  0
  181.2900  174.4700  136.7730 C   0  0  2  0  0  3  0  0  0  0  0  0
  180.5250  178.8170  137.3000 C   0  0  2  0  0  3  0  0  0  0  0  0
  182.0030  179.0870  136.9790 C   0  0  0  0  0  2  0  0  0  0  0  0
  182.1080  177.3890  140.8280 C   0  0  0  0  0  2  0  0  0  0  0  0
  180.6200  176.7730  135.9110 N   0  0  1  0  0  0  0  0  0  0  0  0
  179.4560  173.0520  137.4610 O   0  0  0  0  0  1  0  0  0  0  0  0
  180.5750  173.7450  137.9250 C   0  0  2  0  0  3  0  0  0  0  0  0
  181.7240  178.5020  141.6950 N   0  0  0  0  0  0  0  0  0  0  0  0
  180.9720  176.3920  140.6740 C   0  0  0  0  0  2  0  0  0  0  0  0
  180.1710  174.6920  139.0490 C   0  0  0  0  0  2  0  0  0  0  0  0
  180.0310  179.2980  138.6780 C   0  0  1  0  0  3  0  0  0  0  0  0
  182.3650  178.4770  135.6320 C   0  0  0  0  0  2  0  0  0  0  0  0
  182.0500  176.9880  135.6550 C   0  0  0  0  0  2  0  0  0  0  0  0
  181.1480  179.7880  139.6100 C   0  0  2  0  0  3  0  0  0  0  0  0
  180.3040  175.3370  135.9350 C   0  0  1  0  0  3  0  0  0  0  0  0
  182.1580  173.4970  135.9560 C   0  0  1  0  0  3  0  0  0  0  0  0
  183.4160  174.0500  135.7100 O   0  0  0  0  0  1  0  0  0  0  0  0
  183.6540  172.1110  137.2330 O   0  0  0  0  0  0  0  0  0  0  0  0
  183.3870  171.3090  136.1130 C   0  0  1  0  0  0  0  0  0  0  0  0
  183.3570  169.9620  136.4750 O   0  0  0  0  0  1  0  0  0  0  0  0
  182.3430  172.1840  136.7100 C   0  0  2  0  0  3  0  0  0  0  0  0
  185.3510  171.0180  134.6640 C   0  0  0  0  0  2  0  0  0  0  0  0
  184.2510  171.7060  134.9550 C   0  0  0  0  0  3  0  0  0  0  0  0
  180.1140  174.8520  134.6370 O   0  0  0  0  0  0  0  0  0  0  0  0
  179.0210  174.1240  134.7100 O   0  0  0  0  0  1  0  0  0  0  0  0
  181.9370  182.1370  138.4640 O   0  0  0  0  0  1  0  0  0  0  0  0
  180.7890  181.6350  137.9470 N   0  0  0  0  0  2  0  0  0  0  0  0
  182.9350  179.2600  141.9790 C   0  0  0  0  0  2  0  0  0  0  0  0
  184.1450  178.3330  142.0880 C   0  0  0  0  0  2  0  0  0  0  0  0
  186.1230  177.8400  145.9410 C   0  0  2  0  0  3  0  0  0  0  0  0
  187.0170  177.8870  144.7070 C   0  0  0  0  0  2  0  0  0  0  0  0
  186.2060  177.6270  143.4360 C   0  0  1  0  0  3  0  0  0  0  0  0
  184.1610  178.5930  144.5970 C   0  0  0  0  0  2  0  0  0  0  0  0
  185.0220  178.8850  145.8210 C   0  0  0  0  0  2  0  0  0  0  0  0
  185.0120  178.5990  143.3250 C   0  0  2  0  0  3  0  0  0  0  0  0
  187.1010  178.1730  147.3880 Cl  0  0  0  0  0  0  0  0  0  0  0  0
  187.1210  177.6850  142.2080 C   0  0  0  0  0  2  0  0  0  0  0  0
  188.4060  178.2910  142.5290 N   0  0  0  0  0  2  0  0  0  0  0  0
  189.3810  177.4490  142.0410 O   0  0  0  0  0  0  0  0  0  0  0  0
  190.4730  175.3510  142.6760 N   0  0  0  0  0  2  0  0  0  0  0  0
  190.2060  176.7330  142.9030 C   0  0  0  0  0  0  0  0  0  0  0  0
  190.7350  177.3270  143.9200 N   0  0  0  0  0  1  0  0  0  0  0  0
  1 13  1  0  0  0  0
  2 14  1  0  0  0  0
  3 19  1  0  0  0  0
  3  4  1  1  0  0  0
  5  7  1  0  0  0  0
  6 21  1  6  0  0  0
  6 12  1  0  0  0  0
  7  8  1  1  0  0  0
  7 16  1  0  0  0  0
  9 13  1  0  0  0  0
 10 18  1  1  0  0  0
 10 20  1  0  0  0  0
 10  5  1  0  0  0  0
 12 11  1  6  0  0  0
 12 15  1  0  0  0  0
 13 33  1  0  0  0  0
 14  9  1  0  0  0  0
 15  2  1  0  0  0  0
 16  3  1  0  0  0  0
 16 19  1  0  0  0  0
 17 18  1  0  0  0  0
 17  8  1  0  0  0  0
 19  1  1  0  0  0  0
 20  6  1  0  0  0  0
 21 26  1  0  0  0  0
 22 21  1  0  0  0  0
 24 25  1  0  0  0  0
 24 26  1  0  0  0  0
 24 23  1  0  0  0  0
 26 23  1  0  0  0  0
 27 28  2  0  0  0  0
 28 24  1  0  0  0  0
 29 30  1  0  0  0  0
 29 20  1  0  0  0  0
 32 31  1  0  0  0  0
 32  3  1  0  0  0  0
 33 34  1  0  0  0  0
 34 40  1  0  0  0  0
 35 41  1  0  0  0  0
 36 35  1  0  0  0  0
 37 36  1  0  0  0  0
 38 39  1  0  0  0  0
 39 35  1  0  0  0  0
 40 37  1  0  0  0  0
 40 38  1  0  0  0  0
 42 43  1  0  0  0  0
 42 37  1  0  0  0  0
 44 43  1  0  0  0  0
 44 46  1  0  0  0  0
 45 46  2  0  0  0  0
 46 47  1  0  0  0  0
M  END
>  <MODEL>
9

>  <REMARK>
 VINA RESULT:      -5.0      3.271      6.599
  Name = 
  12 active torsions:
  status: ('A' for Active; 'I' for Inactive)
    1  A    between atoms: C_2  and  C_11
    2  A    between atoms: C_2  and  C_29
    3  A    between atoms: C_4  and  N_28
    4  A    between atoms: O_14  and  C_47
    5  A    between atoms: C_15  and  C_38
    6  A    between atoms: C_18  and  C_41
    7  A    between atoms: C_19  and  C_31
    8  A    between atoms: C_19  and  C_44
    9  A    between atoms: C_22  and  O_32
   10  A    between atoms: N_23  and  O_32
   11  A    between atoms: N_23  and  C_41
   12  A    between atoms: N_36  and  C_44
                            x       y       z     vdW  Elec       q    Type
                         _______ _______ _______ _____ _____    ______ ____

>  <TORSDO>
F 12

$$$$
