=
 OpenBabel11062416573D

 56 61  0  0  1  0  0  0  0  0999 V2000
  187.3310  175.7080  135.6900 C   0  0  0  0  0  2  0  0  0  0  0  0
  188.9970  176.7490  141.1360 C   0  0  2  0  0  3  0  0  0  0  0  0
  189.1240  178.2440  137.6330 C   0  0  0  0  0  3  0  0  0  0  0  0
  185.3180  175.9620  137.2790 C   0  0  2  0  0  3  0  0  0  0  0  0
  186.7970  175.5660  137.1260 C   0  0  2  0  0  0  0  0  0  0  0  0
  185.1630  178.5710  142.4140 C   0  0  0  0  0  2  0  0  0  0  0  0
  184.3760  178.6140  140.0650 C   0  0  0  0  0  3  0  0  0  0  0  0
  182.6340  179.1940  137.5720 C   0  0  0  0  0  2  0  0  0  0  0  0
  181.6710  177.1240  137.7580 O   0  0  0  0  0  0  0  0  0  0  0  0
  184.3260  175.0280  136.6070 C   0  0  0  0  0  2  0  0  0  0  0  0
  183.5250  177.3280  136.4960 C   0  0  2  0  0  3  0  0  0  0  0  0
  182.8720  177.7680  137.7110 N   0  0  1  0  0  0  0  0  0  0  0  0
  183.0990  175.8950  136.3320 C   0  0  2  0  0  3  0  0  0  0  0  0
  190.8070  176.5780  139.4500 C   0  0  0  0  0  2  0  0  0  0  0  0
  187.5810  176.4520  137.8950 O   0  0  0  0  0  0  0  0  0  0  0  0
  186.5860  177.5050  140.6450 C   0  0  0  0  0  2  0  0  0  0  0  0
  182.4880  179.8520  138.9410 C   0  0  1  0  0  3  0  0  0  0  0  0
  185.5910  178.6380  140.9480 C   0  0  2  0  0  3  0  0  0  0  0  0
  186.3830  178.6610  143.3290 C   0  0  0  0  0  2  0  0  0  0  0  0
  189.7080  177.2260  139.8700 C   0  0  0  0  0  0  0  0  0  0  0  0
  183.7470  179.7580  139.7680 C   0  0  0  0  0  3  0  0  0  0  0  0
  185.0150  177.3230  136.7050 C   0  0  0  0  0  2  0  0  0  0  0  0
  187.3830  177.5560  142.9920 C   0  0  0  0  0  2  0  0  0  0  0  0
  188.2410  176.9470  135.6650 C   0  0  2  0  0  3  0  0  0  0  0  0
  187.8260  177.6860  141.5350 C   0  0  1  0  0  3  0  0  0  0  0  0
  181.9580  175.8050  137.3490 C   0  0  1  0  0  3  0  0  0  0  0  0
  189.2300  178.4520  139.1270 C   0  0  0  0  0  2  0  0  0  0  0  0
  186.9880  174.2590  137.5800 O   0  0  0  0  0  1  0  0  0  0  0  0
  188.3420  177.2940  137.1150 C   0  0  0  0  0  0  0  0  0  0  0  0
  187.4440  179.3410  135.6410 C   0  0  0  0  0  1  0  0  0  0  0  0
  187.5480  178.0360  134.8570 C   0  0  0  0  0  2  0  0  0  0  0  0
  182.1310  181.3380  138.8180 C   0  0  0  0  0  2  0  0  0  0  0  0
  180.8300  181.5660  138.1850 N   0  0  0  0  0  2  0  0  0  0  0  0
  180.6080  182.4500  137.0800 C   0  0  0  0  0  0  0  0  0  0  0  0
  180.9120  183.9200  137.2580 C   0  0  0  0  0  2  0  0  0  0  0  0
  179.9180  182.8750  134.7050 C   0  0  0  0  0  2  0  0  0  0  0  0
  179.9650  184.3650  135.0270 C   0  0  0  0  0  2  0  0  0  0  0  0
  181.1470  184.6300  135.9360 C   0  0  0  0  0  2  0  0  0  0  0  0
  180.0920  181.9700  135.9130 C   0  0  0  0  0  0  0  0  0  0  0  0
  179.8310  180.0060  134.5960 O   0  0  0  0  0  0  0  0  0  0  0  0
  179.1810  179.7940  136.7680 O   0  0  0  0  0  1  0  0  0  0  0  0
  179.6990  180.5530  135.7230 C   0  0  0  0  0  0  0  0  0  0  0  0
  190.2060  176.5390  142.5010 S   0  0  0  0  0  0  0  0  0  0  0  0
  190.2070  178.3100  142.9490 C   0  0  0  0  0  2  0  0  0  0  0  0
  190.5720  178.5220  144.4180 C   0  0  0  0  0  2  0  0  0  0  0  0
  191.2820  177.3030  144.9940 C   0  0  0  0  0  2  0  0  0  0  0  0
  191.0960  177.2770  146.5110 C   0  0  2  0  0  3  0  0  0  0  0  0
  192.0800  176.4730  147.0880 O   0  0  0  0  0  1  0  0  0  0  0  0
  189.7200  176.7410  146.8960 C   0  0  0  0  0  2  0  0  0  0  0  0
  189.0300  178.3770  148.4860 O   0  0  0  0  0  0  0  0  0  0  0  0
  188.8090  177.8370  147.3680 C   0  0  0  0  0  0  0  0  0  0  0  0
  187.7420  178.2920  146.5860 O   0  0  0  0  0  0  0  0  0  0  0  0
  186.3840  178.0800  146.9570 C   0  0  0  0  0  1  0  0  0  0  0  0
  182.2360  174.9260  138.5690 C   0  0  0  0  0  2  0  0  0  0  0  0
  179.8300  174.2960  138.7520 C   0  0  0  0  0  1  0  0  0  0  0  0
  181.0220  174.8700  139.4890 C   0  0  0  0  0  2  0  0  0  0  0  0
  1  5  1  0  0  0  0
  2 25  1  0  0  0  0
  2 43  1  1  0  0  0
  3 27  1  0  0  0  0
  4 10  1  6  0  0  0
  5  4  1  0  0  0  0
  5 28  1  1  0  0  0
  5 15  1  0  0  0  0
  6 19  1  0  0  0  0
  8 17  1  0  0  0  0
 11 22  1  1  0  0  0
 11 12  1  0  0  0  0
 12  8  1  6  0  0  0
 12  9  1  0  0  0  0
 13 11  1  0  0  0  0
 13 10  1  1  0  0  0
 13 26  1  0  0  0  0
 14 20  2  0  0  0  0
 16 18  1  0  0  0  0
 17 32  1  6  0  0  0
 17 21  1  0  0  0  0
 18  7  1  6  0  0  0
 18  6  1  0  0  0  0
 20  2  1  0  0  0  0
 21  7  2  0  0  0  0
 22  4  1  0  0  0  0
 23 19  1  0  0  0  0
 24 31  1  6  0  0  0
 24  1  1  0  0  0  0
 24 29  1  0  0  0  0
 25 16  1  6  0  0  0
 25 23  1  0  0  0  0
 26  9  1  0  0  0  0
 26 54  1  1  0  0  0
 27 20  1  0  0  0  0
 29  3  2  0  0  0  0
 29 15  1  0  0  0  0
 31 30  1  0  0  0  0
 33 32  1  0  0  0  0
 34 35  1  0  0  0  0
 34 33  1  0  0  0  0
 36 37  1  0  0  0  0
 36 39  1  0  0  0  0
 37 38  1  0  0  0  0
 38 35  1  0  0  0  0
 39 34  2  0  0  0  0
 40 42  2  0  0  0  0
 42 39  1  0  0  0  0
 42 41  1  0  0  0  0
 43 44  1  0  0  0  0
 44 45  1  0  0  0  0
 45 46  1  0  0  0  0
 46 47  1  0  0  0  0
 47 49  1  0  0  0  0
 47 48  1  1  0  0  0
 49 51  1  0  0  0  0
 51 50  2  0  0  0  0
 52 53  1  0  0  0  0
 52 51  1  0  0  0  0
 54 56  1  0  0  0  0
 55 56  1  0  0  0  0
M  END
>  <MODEL>
1

>  <REMARK>
 VINA RESULT:      -6.3      0.000      0.000
  Name = 
  15 active torsions:
  status: ('A' for Active; 'I' for Inactive)
    1  A    between atoms: C_3  and  S_16
    2  A    between atoms: C_4  and  N_38
    3  A    between atoms: C_5  and  C_8
    4  A    between atoms: C_5  and  O_27
    5  A    between atoms: C_7  and  C_30
    6  A    between atoms: C_7  and  N_38
    7  A    between atoms: C_8  and  C_12
    8  A    between atoms: C_12  and  C_35
    9  A    between atoms: S_16  and  C_34
   10  A    between atoms: C_21  and  C_46
   11  A    between atoms: C_34  and  C_49
   12  A    between atoms: C_35  and  C_49
   13  A    between atoms: C_37  and  C_43
   14  A    between atoms: C_43  and  C_51
   15  A    between atoms: C_50  and  C_56
                            x       y       z     vdW  Elec       q    Type
                         _______ _______ _______ _____ _____    ______ ____

>  <TORSDO>
F 15

$$$$
=
 OpenBabel11062416573D

 56 61  0  0  1  0  0  0  0  0999 V2000
  188.8050  175.2170  135.9850 C   0  0  0  0  0  2  0  0  0  0  0  0
  187.7250  177.7900  141.0580 C   0  0  2  0  0  3  0  0  0  0  0  0
  188.9550  178.5360  137.5290 C   0  0  0  0  0  3  0  0  0  0  0  0
  186.3130  175.0690  136.6270 C   0  0  2  0  0  3  0  0  0  0  0  0
  187.7670  175.1800  137.1200 C   0  0  2  0  0  0  0  0  0  0  0  0
  183.3970  178.4020  140.3130 C   0  0  0  0  0  2  0  0  0  0  0  0
  183.6870  177.7210  137.9480 C   0  0  0  0  0  3  0  0  0  0  0  0
  183.0730  177.1820  134.9620 C   0  0  0  0  0  2  0  0  0  0  0  0
  182.6430  174.9850  135.4430 O   0  0  0  0  0  0  0  0  0  0  0  0
  185.9490  173.7410  135.9830 C   0  0  0  0  0  2  0  0  0  0  0  0
  184.7480  175.5630  134.8940 C   0  0  2  0  0  3  0  0  0  0  0  0
  183.5610  175.9780  135.6110 N   0  0  1  0  0  0  0  0  0  0  0  0
  184.7850  174.0680  135.0500 C   0  0  2  0  0  3  0  0  0  0  0  0
  190.0590  177.9270  140.2350 C   0  0  0  0  0  2  0  0  0  0  0  0
  187.9190  176.4100  137.7930 O   0  0  0  0  0  0  0  0  0  0  0  0
  185.6410  177.5680  139.5630 C   0  0  0  0  0  2  0  0  0  0  0  0
  182.2130  178.0000  135.9210 C   0  0  1  0  0  3  0  0  0  0  0  0
  184.3740  178.3280  139.1380 C   0  0  2  0  0  3  0  0  0  0  0  0
  184.0590  179.0760  141.5130 C   0  0  0  0  0  2  0  0  0  0  0  0
  188.7660  178.2280  140.0290 C   0  0  0  0  0  0  0  0  0  0  0  0
  182.9900  178.5020  137.1130 C   0  0  0  0  0  3  0  0  0  0  0  0
  185.9670  176.1070  135.5900 C   0  0  0  0  0  2  0  0  0  0  0  0
  185.3390  178.3370  141.9010 C   0  0  0  0  0  2  0  0  0  0  0  0
  189.3180  176.6640  135.8870 C   0  0  2  0  0  3  0  0  0  0  0  0
  186.3090  178.3290  140.7200 C   0  0  1  0  0  3  0  0  0  0  0  0
  183.3790  173.7900  135.5900 C   0  0  1  0  0  3  0  0  0  0  0  0
  188.3700  179.0510  138.8250 C   0  0  0  0  0  2  0  0  0  0  0  0
  188.0520  174.1300  137.9950 O   0  0  0  0  0  1  0  0  0  0  0  0
  188.7140  177.2960  137.0990 C   0  0  0  0  0  0  0  0  0  0  0  0
  187.4390  177.9470  134.7980 C   0  0  0  0  0  1  0  0  0  0  0  0
  188.7930  177.2730  134.5950 C   0  0  0  0  0  2  0  0  0  0  0  0
  181.6000  179.2210  135.2260 C   0  0  0  0  0  2  0  0  0  0  0  0
  180.7890  180.0480  136.1240 N   0  0  0  0  0  2  0  0  0  0  0  0
  180.7460  181.4780  136.0940 C   0  0  0  0  0  0  0  0  0  0  0  0
  180.3860  182.1640  134.7950 C   0  0  0  0  0  2  0  0  0  0  0  0
  180.9570  183.7110  137.2200 C   0  0  0  0  0  2  0  0  0  0  0  0
  180.8750  184.3440  135.8350 C   0  0  0  0  0  2  0  0  0  0  0  0
  179.8650  183.5760  135.0080 C   0  0  0  0  0  2  0  0  0  0  0  0
  181.0680  182.1960  137.2080 C   0  0  0  0  0  0  0  0  0  0  0  0
  180.6640  181.0760  139.2670 O   0  0  0  0  0  1  0  0  0  0  0  0
  182.8560  181.5030  138.8260 O   0  0  0  0  0  0  0  0  0  0  0  0
  181.5110  181.5690  138.4760 C   0  0  0  0  0  0  0  0  0  0  0  0
  188.2580  178.2710  142.7470 S   0  0  0  0  0  0  0  0  0  0  0  0
  188.0410  176.5930  143.4360 C   0  0  0  0  0  2  0  0  0  0  0  0
  187.3500  176.6250  144.7990 C   0  0  0  0  0  2  0  0  0  0  0  0
  187.6830  177.9040  145.5580 C   0  0  0  0  0  2  0  0  0  0  0  0
  187.8410  177.5850  147.0450 C   0  0  2  0  0  3  0  0  0  0  0  0
  186.8840  178.2880  147.7770 O   0  0  0  0  0  1  0  0  0  0  0  0
  189.2330  177.9560  147.5490 C   0  0  0  0  0  2  0  0  0  0  0  0
  190.5330  177.1340  145.7280 O   0  0  0  0  0  0  0  0  0  0  0  0
  190.2920  177.0660  146.9640 C   0  0  0  0  0  0  0  0  0  0  0  0
  191.0340  176.1890  147.7600 O   0  0  0  0  0  0  0  0  0  0  0  0
  192.1590  175.4730  147.2560 C   0  0  0  0  0  1  0  0  0  0  0  0
  183.3170  173.3110  137.0400 C   0  0  0  0  0  2  0  0  0  0  0  0
  182.7490  171.2200  135.8060 C   0  0  0  0  0  1  0  0  0  0  0  0
  183.2650  171.7900  137.1110 C   0  0  0  0  0  2  0  0  0  0  0  0
  1  5  1  0  0  0  0
  2 43  1  1  0  0  0
  3 27  1  0  0  0  0
  4 22  1  6  0  0  0
  4  5  1  0  0  0  0
  5 15  1  0  0  0  0
  5 28  1  1  0  0  0
  6 19  1  0  0  0  0
  8 17  1  0  0  0  0
  9 26  1  0  0  0  0
  9 12  1  0  0  0  0
 10  4  1  0  0  0  0
 11 13  1  0  0  0  0
 11 22  1  1  0  0  0
 11 12  1  0  0  0  0
 12  8  1  6  0  0  0
 13 26  1  0  0  0  0
 13 10  1  1  0  0  0
 17 32  1  6  0  0  0
 17 21  1  0  0  0  0
 18  7  1  6  0  0  0
 18 16  1  0  0  0  0
 18  6  1  0  0  0  0
 19 23  1  0  0  0  0
 20 14  2  0  0  0  0
 20  2  1  0  0  0  0
 21  7  2  0  0  0  0
 24 31  1  6  0  0  0
 24  1  1  0  0  0  0
 24 29  1  0  0  0  0
 25 16  1  6  0  0  0
 25  2  1  0  0  0  0
 25 23  1  0  0  0  0
 26 54  1  1  0  0  0
 27 20  1  0  0  0  0
 29  3  2  0  0  0  0
 29 15  1  0  0  0  0
 31 30  1  0  0  0  0
 32 33  1  0  0  0  0
 34 33  1  0  0  0  0
 34 39  2  0  0  0  0
 35 38  1  0  0  0  0
 35 34  1  0  0  0  0
 37 36  1  0  0  0  0
 38 37  1  0  0  0  0
 39 36  1  0  0  0  0
 39 42  1  0  0  0  0
 42 41  2  0  0  0  0
 42 40  1  0  0  0  0
 43 44  1  0  0  0  0
 44 45  1  0  0  0  0
 45 46  1  0  0  0  0
 46 47  1  0  0  0  0
 47 49  1  0  0  0  0
 47 48  1  1  0  0  0
 50 51  2  0  0  0  0
 51 49  1  0  0  0  0
 51 52  1  0  0  0  0
 53 52  1  0  0  0  0
 54 56  1  0  0  0  0
 55 56  1  0  0  0  0
M  END
>  <MODEL>
2

>  <REMARK>
 VINA RESULT:      -5.7      1.859      2.877
  Name = 
  15 active torsions:
  status: ('A' for Active; 'I' for Inactive)
    1  A    between atoms: C_3  and  S_16
    2  A    between atoms: C_4  and  N_38
    3  A    between atoms: C_5  and  C_8
    4  A    between atoms: C_5  and  O_27
    5  A    between atoms: C_7  and  C_30
    6  A    between atoms: C_7  and  N_38
    7  A    between atoms: C_8  and  C_12
    8  A    between atoms: C_12  and  C_35
    9  A    between atoms: S_16  and  C_34
   10  A    between atoms: C_21  and  C_46
   11  A    between atoms: C_34  and  C_49
   12  A    between atoms: C_35  and  C_49
   13  A    between atoms: C_37  and  C_43
   14  A    between atoms: C_43  and  C_51
   15  A    between atoms: C_50  and  C_56
                            x       y       z     vdW  Elec       q    Type
                         _______ _______ _______ _____ _____    ______ ____

>  <TORSDO>
F 15

$$$$
=
 OpenBabel11062416573D

 56 61  0  0  1  0  0  0  0  0999 V2000
  186.8130  174.1440  135.2760 C   0  0  0  0  0  2  0  0  0  0  0  0
  182.5300  177.4400  137.3500 C   0  0  2  0  0  3  0  0  0  0  0  0
  184.0400  173.9560  137.6630 C   0  0  0  0  0  3  0  0  0  0  0  0
  187.7110  176.2070  136.5340 C   0  0  2  0  0  3  0  0  0  0  0  0
  186.5600  175.5970  135.7140 C   0  0  2  0  0  0  0  0  0  0  0  0
  184.9880  179.4260  140.4600 C   0  0  0  0  0  2  0  0  0  0  0  0
  186.8440  177.8410  140.0340 C   0  0  0  0  0  3  0  0  0  0  0  0
  189.5380  176.3430  140.3260 C   0  0  0  0  0  2  0  0  0  0  0  0
  190.4780  177.7190  138.7540 O   0  0  0  0  0  0  0  0  0  0  0  0
  188.9950  176.4540  135.7590 C   0  0  0  0  0  2  0  0  0  0  0  0
  189.5060  175.8130  138.0560 C   0  0  2  0  0  3  0  0  0  0  0  0
  189.4080  176.9100  138.9950 N   0  0  1  0  0  0  0  0  0  0  0  0
  190.0980  176.4230  136.8160 C   0  0  2  0  0  3  0  0  0  0  0  0
  181.8480  175.3540  136.1970 C   0  0  0  0  0  2  0  0  0  0  0  0
  185.4110  175.5360  136.5290 O   0  0  0  0  0  0  0  0  0  0  0  0
  184.7690  177.7890  138.5720 C   0  0  0  0  0  2  0  0  0  0  0  0
  188.9050  177.2620  141.3670 C   0  0  1  0  0  3  0  0  0  0  0  0
  185.3550  178.0240  139.9740 C   0  0  2  0  0  3  0  0  0  0  0  0
  183.4710  179.6070  140.4680 C   0  0  0  0  0  2  0  0  0  0  0  0
  182.5130  175.9180  137.2190 C   0  0  0  0  0  0  0  0  0  0  0  0
  187.4190  177.4260  141.1700 C   0  0  0  0  0  3  0  0  0  0  0  0
  188.1230  175.3400  137.6960 C   0  0  0  0  0  2  0  0  0  0  0  0
  182.8950  179.3320  139.0790 C   0  0  0  0  0  2  0  0  0  0  0  0
  185.9210  173.2450  136.1490 C   0  0  2  0  0  3  0  0  0  0  0  0
  183.2380  177.9050  138.6510 C   0  0  1  0  0  3  0  0  0  0  0  0
  190.5720  177.7780  137.3480 C   0  0  1  0  0  3  0  0  0  0  0  0
  183.1740  175.0420  138.2580 C   0  0  0  0  0  2  0  0  0  0  0  0
  186.2990  176.3940  134.5970 O   0  0  0  0  0  1  0  0  0  0  0  0
  185.0670  174.2440  136.8610 C   0  0  0  0  0  0  0  0  0  0  0  0
  188.0990  172.0020  136.4220 C   0  0  0  0  0  1  0  0  0  0  0  0
  186.8140  172.4640  137.1030 C   0  0  0  0  0  2  0  0  0  0  0  0
  189.1240  176.7360  142.7900 C   0  0  0  0  0  2  0  0  0  0  0  0
  189.2430  177.8030  143.7860 N   0  0  0  0  0  2  0  0  0  0  0  0
  188.5910  177.8000  145.0610 C   0  0  0  0  0  0  0  0  0  0  0  0
  187.1380  178.2130  145.1310 C   0  0  0  0  0  2  0  0  0  0  0  0
  188.6000  177.3920  147.5380 C   0  0  0  0  0  2  0  0  0  0  0  0
  187.2410  178.0840  147.5900 C   0  0  0  0  0  2  0  0  0  0  0  0
  186.4400  177.6770  146.3700 C   0  0  0  0  0  2  0  0  0  0  0  0
  189.2890  177.4740  146.1860 C   0  0  0  0  0  0  0  0  0  0  0  0
  191.1280  176.0030  146.5240 O   0  0  0  0  0  1  0  0  0  0  0  0
  191.6900  178.0820  145.7850 O   0  0  0  0  0  0  0  0  0  0  0  0
  190.7350  177.1480  146.1760 C   0  0  0  0  0  0  0  0  0  0  0  0
  180.8260  178.1090  137.2180 S   0  0  0  0  0  0  0  0  0  0  0  0
  180.0450  176.6170  137.9240 C   0  0  0  0  0  2  0  0  0  0  0  0
  178.9320  176.9730  138.9100 C   0  0  0  0  0  2  0  0  0  0  0  0
  179.3090  178.1810  139.7590 C   0  0  0  0  0  2  0  0  0  0  0  0
  180.0700  177.7130  140.9990 C   0  0  2  0  0  3  0  0  0  0  0  0
  179.8780  176.3430  141.1760 O   0  0  0  0  0  1  0  0  0  0  0  0
  179.6050  178.4520  142.2510 C   0  0  0  0  0  2  0  0  0  0  0  0
  181.4700  179.7670  142.9380 O   0  0  0  0  0  0  0  0  0  0  0  0
  180.3200  179.7610  142.4210 C   0  0  0  0  0  0  0  0  0  0  0  0
  179.7550  180.9670  141.9940 O   0  0  0  0  0  0  0  0  0  0  0  0
  179.6940  181.3330  140.6190 C   0  0  0  0  0  1  0  0  0  0  0  0
  189.8060  178.9930  136.8220 C   0  0  0  0  0  2  0  0  0  0  0  0
  187.3610  179.4230  137.0450 C   0  0  0  0  0  1  0  0  0  0  0  0
  188.6860  179.3880  137.7760 C   0  0  0  0  0  2  0  0  0  0  0  0
  1  5  1  0  0  0  0
  1 24  1  0  0  0  0
  2 43  1  1  0  0  0
  2 25  1  0  0  0  0
  3 27  1  0  0  0  0
  4 10  1  6  0  0  0
  4 22  1  0  0  0  0
  5 28  1  6  0  0  0
  5 15  1  0  0  0  0
  5  4  1  0  0  0  0
  6 19  1  0  0  0  0
  7 21  2  0  0  0  0
  8 17  1  0  0  0  0
  9 12  1  0  0  0  0
 11 22  1  6  0  0  0
 11 12  1  0  0  0  0
 12  8  1  1  0  0  0
 13 10  1  6  0  0  0
 13 26  1  0  0  0  0
 13 11  1  0  0  0  0
 14 20  2  0  0  0  0
 15 29  1  0  0  0  0
 17 32  1  1  0  0  0
 18 16  1  6  0  0  0
 18  7  1  0  0  0  0
 18  6  1  0  0  0  0
 20  2  1  0  0  0  0
 20 27  1  0  0  0  0
 21 17  1  0  0  0  0
 23 19  1  0  0  0  0
 24 29  1  0  0  0  0
 24 31  1  1  0  0  0
 25 16  1  6  0  0  0
 25 23  1  0  0  0  0
 26 54  1  6  0  0  0
 26  9  1  0  0  0  0
 29  3  2  0  0  0  0
 30 31  1  0  0  0  0
 32 33  1  0  0  0  0
 33 34  1  0  0  0  0
 34 35  1  0  0  0  0
 34 39  2  0  0  0  0
 35 38  1  0  0  0  0
 36 37  1  0  0  0  0
 38 37  1  0  0  0  0
 39 36  1  0  0  0  0
 41 42  2  0  0  0  0
 42 39  1  0  0  0  0
 42 40  1  0  0  0  0
 43 44  1  0  0  0  0
 44 45  1  0  0  0  0
 45 46  1  0  0  0  0
 46 47  1  0  0  0  0
 47 48  1  1  0  0  0
 47 49  1  0  0  0  0
 49 51  1  0  0  0  0
 51 50  2  0  0  0  0
 52 51  1  0  0  0  0
 53 52  1  0  0  0  0
 54 56  1  0  0  0  0
 55 56  1  0  0  0  0
M  END
>  <MODEL>
3

>  <REMARK>
 VINA RESULT:      -4.5      3.470      9.341
  Name = 
  15 active torsions:
  status: ('A' for Active; 'I' for Inactive)
    1  A    between atoms: C_3  and  S_16
    2  A    between atoms: C_4  and  N_38
    3  A    between atoms: C_5  and  C_8
    4  A    between atoms: C_5  and  O_27
    5  A    between atoms: C_7  and  C_30
    6  A    between atoms: C_7  and  N_38
    7  A    between atoms: C_8  and  C_12
    8  A    between atoms: C_12  and  C_35
    9  A    between atoms: S_16  and  C_34
   10  A    between atoms: C_21  and  C_46
   11  A    between atoms: C_34  and  C_49
   12  A    between atoms: C_35  and  C_49
   13  A    between atoms: C_37  and  C_43
   14  A    between atoms: C_43  and  C_51
   15  A    between atoms: C_50  and  C_56
                            x       y       z     vdW  Elec       q    Type
                         _______ _______ _______ _____ _____    ______ ____

>  <TORSDO>
F 15

$$$$
=
 OpenBabel11062416573D

 56 61  0  0  1  0  0  0  0  0999 V2000
  188.5290  175.2160  135.9790 C   0  0  0  0  0  2  0  0  0  0  0  0
  187.6780  177.8000  141.0890 C   0  0  2  0  0  3  0  0  0  0  0  0
  188.8270  178.5220  137.5290 C   0  0  0  0  0  3  0  0  0  0  0  0
  186.0530  175.1420  136.6930 C   0  0  2  0  0  3  0  0  0  0  0  0
  187.5240  175.2060  137.1440 C   0  0  2  0  0  0  0  0  0  0  0  0
  183.3520  178.5490  140.4740 C   0  0  0  0  0  2  0  0  0  0  0  0
  183.5510  177.8690  138.0990 C   0  0  0  0  0  3  0  0  0  0  0  0
  182.8330  177.3620  135.1300 C   0  0  0  0  0  2  0  0  0  0  0  0
  182.3500  175.1760  135.6170 O   0  0  0  0  0  0  0  0  0  0  0  0
  185.6300  173.8290  136.0560 C   0  0  0  0  0  2  0  0  0  0  0  0
  184.4550  175.6910  135.0090 C   0  0  2  0  0  3  0  0  0  0  0  0
  183.3030  176.1400  135.7610 N   0  0  1  0  0  0  0  0  0  0  0  0
  184.4490  174.1950  135.1580 C   0  0  2  0  0  3  0  0  0  0  0  0
  189.9910  177.8680  140.1980 C   0  0  0  0  0  2  0  0  0  0  0  0
  187.7340  176.4280  137.8160 O   0  0  0  0  0  0  0  0  0  0  0  0
  185.5450  177.6490  139.6550 C   0  0  0  0  0  2  0  0  0  0  0  0
  182.0280  178.2020  136.1170 C   0  0  1  0  0  3  0  0  0  0  0  0
  184.2910  178.4500  139.2710 C   0  0  2  0  0  3  0  0  0  0  0  0
  184.0690  179.1980  141.6560 C   0  0  0  0  0  2  0  0  0  0  0  0
  188.7020  178.2090  140.0320 C   0  0  0  0  0  0  0  0  0  0  0  0
  182.8540  178.6750  137.2870 C   0  0  0  0  0  3  0  0  0  0  0  0
  185.7100  176.1950  135.6700 C   0  0  0  0  0  2  0  0  0  0  0  0
  185.3360  178.4170  142.0040 C   0  0  0  0  0  2  0  0  0  0  0  0
  189.0840  176.6460  135.8710 C   0  0  2  0  0  3  0  0  0  0  0  0
  186.2700  178.3840  140.7940 C   0  0  1  0  0  3  0  0  0  0  0  0
  183.0520  173.9590  135.7380 C   0  0  1  0  0  3  0  0  0  0  0  0
  188.2970  179.0490  138.8430 C   0  0  0  0  0  2  0  0  0  0  0  0
  187.8020  174.1440  138.0070 O   0  0  0  0  0  1  0  0  0  0  0  0
  188.5350  177.2920  137.1020 C   0  0  0  0  0  0  0  0  0  0  0  0
  187.8170  178.5900  134.8810 C   0  0  0  0  0  1  0  0  0  0  0  0
  188.5400  177.2770  134.5960 C   0  0  0  0  0  2  0  0  0  0  0  0
  181.4330  179.4440  135.4440 C   0  0  0  0  0  2  0  0  0  0  0  0
  180.1830  179.8910  136.0640 N   0  0  0  0  0  2  0  0  0  0  0  0
  179.8910  179.7990  137.4620 C   0  0  0  0  0  0  0  0  0  0  0  0
  179.1630  178.5740  137.9700 C   0  0  0  0  0  2  0  0  0  0  0  0
  179.9940  180.7110  139.7980 C   0  0  0  0  0  2  0  0  0  0  0  0
  179.0190  179.6090  140.2010 C   0  0  0  0  0  2  0  0  0  0  0  0
  179.3810  178.3420  139.4550 C   0  0  0  0  0  2  0  0  0  0  0  0
  180.2270  180.8200  138.3010 C   0  0  0  0  0  0  0  0  0  0  0  0
  182.0520  182.3400  138.1530 O   0  0  0  0  0  1  0  0  0  0  0  0
  180.1750  182.9880  137.0380 O   0  0  0  0  0  0  0  0  0  0  0  0
  180.8620  182.0760  137.8340 C   0  0  0  0  0  0  0  0  0  0  0  0
  188.2750  178.2570  142.7640 S   0  0  0  0  0  0  0  0  0  0  0  0
  189.2110  176.7060  142.9970 C   0  0  0  0  0  2  0  0  0  0  0  0
  189.4820  176.4250  144.4750 C   0  0  0  0  0  2  0  0  0  0  0  0
  188.4280  177.0720  145.3640 C   0  0  0  0  0  2  0  0  0  0  0  0
  189.0630  177.4760  146.6940 C   0  0  2  0  0  3  0  0  0  0  0  0
  189.4870  176.3350  147.3750 O   0  0  0  0  0  1  0  0  0  0  0  0
  188.0800  178.2490  147.5700 C   0  0  0  0  0  2  0  0  0  0  0  0
  186.0300  177.1000  147.1720 O   0  0  0  0  0  0  0  0  0  0  0  0
  186.6800  178.1720  147.0340 C   0  0  0  0  0  0  0  0  0  0  0  0
  186.0700  179.2680  146.4150 O   0  0  0  0  0  0  0  0  0  0  0  0
  184.9100  179.1320  145.6010 C   0  0  0  0  0  1  0  0  0  0  0  0
  183.0180  173.4760  137.1880 C   0  0  0  0  0  2  0  0  0  0  0  0
  183.2390  170.9970  137.0390 C   0  0  0  0  0  1  0  0  0  0  0  0
  182.2860  172.1440  137.3030 C   0  0  0  0  0  2  0  0  0  0  0  0
  1  5  1  0  0  0  0
  2 43  1  1  0  0  0
  3 27  1  0  0  0  0
  4 22  1  6  0  0  0
  4  5  1  0  0  0  0
  5 15  1  0  0  0  0
  5 28  1  1  0  0  0
  6 19  1  0  0  0  0
  8 17  1  0  0  0  0
  9 26  1  0  0  0  0
  9 12  1  0  0  0  0
 10  4  1  0  0  0  0
 11 13  1  0  0  0  0
 11 22  1  1  0  0  0
 11 12  1  0  0  0  0
 12  8  1  6  0  0  0
 13 26  1  0  0  0  0
 13 10  1  1  0  0  0
 17 32  1  6  0  0  0
 17 21  1  0  0  0  0
 18  7  1  6  0  0  0
 18 16  1  0  0  0  0
 18  6  1  0  0  0  0
 19 23  1  0  0  0  0
 20 14  2  0  0  0  0
 20  2  1  0  0  0  0
 21  7  2  0  0  0  0
 24 31  1  6  0  0  0
 24  1  1  0  0  0  0
 24 29  1  0  0  0  0
 25 16  1  6  0  0  0
 25  2  1  0  0  0  0
 25 23  1  0  0  0  0
 26 54  1  1  0  0  0
 27 20  1  0  0  0  0
 29  3  2  0  0  0  0
 29 15  1  0  0  0  0
 31 30  1  0  0  0  0
 32 33  1  0  0  0  0
 33 34  1  0  0  0  0
 34 35  1  0  0  0  0
 34 39  2  0  0  0  0
 35 38  1  0  0  0  0
 36 37  1  0  0  0  0
 38 37  1  0  0  0  0
 39 36  1  0  0  0  0
 41 42  2  0  0  0  0
 42 40  1  0  0  0  0
 42 39  1  0  0  0  0
 43 44  1  0  0  0  0
 44 45  1  0  0  0  0
 45 46  1  0  0  0  0
 46 47  1  0  0  0  0
 47 48  1  1  0  0  0
 47 49  1  0  0  0  0
 51 50  2  0  0  0  0
 51 49  1  0  0  0  0
 52 51  1  0  0  0  0
 53 52  1  0  0  0  0
 54 56  1  0  0  0  0
 55 56  1  0  0  0  0
M  END
>  <MODEL>
4

>  <REMARK>
 VINA RESULT:      -4.4      1.985      2.936
  Name = 
  15 active torsions:
  status: ('A' for Active; 'I' for Inactive)
    1  A    between atoms: C_3  and  S_16
    2  A    between atoms: C_4  and  N_38
    3  A    between atoms: C_5  and  C_8
    4  A    between atoms: C_5  and  O_27
    5  A    between atoms: C_7  and  C_30
    6  A    between atoms: C_7  and  N_38
    7  A    between atoms: C_8  and  C_12
    8  A    between atoms: C_12  and  C_35
    9  A    between atoms: S_16  and  C_34
   10  A    between atoms: C_21  and  C_46
   11  A    between atoms: C_34  and  C_49
   12  A    between atoms: C_35  and  C_49
   13  A    between atoms: C_37  and  C_43
   14  A    between atoms: C_43  and  C_51
   15  A    between atoms: C_50  and  C_56
                            x       y       z     vdW  Elec       q    Type
                         _______ _______ _______ _____ _____    ______ ____

>  <TORSDO>
F 15

$$$$
=
 OpenBabel11062416573D

 56 61  0  0  1  0  0  0  0  0999 V2000
  188.8180  175.7200  135.7160 C   0  0  0  0  0  2  0  0  0  0  0  0
  189.8340  176.4470  141.3690 C   0  0  2  0  0  3  0  0  0  0  0  0
  190.1700  178.2300  138.0180 C   0  0  0  0  0  3  0  0  0  0  0  0
  186.6420  175.6750  137.0980 C   0  0  2  0  0  3  0  0  0  0  0  0
  188.1590  175.4170  137.0740 C   0  0  2  0  0  0  0  0  0  0  0  0
  185.7420  177.8330  142.3640 C   0  0  0  0  0  2  0  0  0  0  0  0
  185.1920  178.0020  139.9540 C   0  0  0  0  0  3  0  0  0  0  0  0
  183.6590  178.6380  137.3400 C   0  0  0  0  0  2  0  0  0  0  0  0
  182.8750  176.4870  137.2710 O   0  0  0  0  0  0  0  0  0  0  0  0
  185.8110  174.7200  136.2580 C   0  0  0  0  0  2  0  0  0  0  0  0
  184.8180  176.9470  136.2310 C   0  0  2  0  0  3  0  0  0  0  0  0
  184.0110  177.2300  137.3990 N   0  0  1  0  0  0  0  0  0  0  0  0
  184.5430  175.5020  135.9190 C   0  0  2  0  0  3  0  0  0  0  0  0
  191.8100  176.5660  139.8760 C   0  0  0  0  0  2  0  0  0  0  0  0
  188.7790  176.3000  137.9840 O   0  0  0  0  0  0  0  0  0  0  0  0
  187.4250  177.0380  140.6820 C   0  0  0  0  0  2  0  0  0  0  0  0
  183.3190  179.1670  138.7310 C   0  0  1  0  0  3  0  0  0  0  0  0
  186.3060  178.0550  140.9600 C   0  0  2  0  0  3  0  0  0  0  0  0
  186.8520  177.9490  143.4070 C   0  0  0  0  0  2  0  0  0  0  0  0
  190.6200  177.0840  140.2230 C   0  0  0  0  0  0  0  0  0  0  0  0
  184.4930  179.1100  139.6760 C   0  0  0  0  0  3  0  0  0  0  0  0
  186.2750  177.0480  136.5960 C   0  0  0  0  0  2  0  0  0  0  0  0
  187.9780  176.9620  143.0980 C   0  0  0  0  0  2  0  0  0  0  0  0
  189.6080  177.0290  135.8780 C   0  0  2  0  0  3  0  0  0  0  0  0
  188.5490  177.2480  141.7090 C   0  0  1  0  0  3  0  0  0  0  0  0
  183.3200  175.2340  136.8000 C   0  0  1  0  0  3  0  0  0  0  0  0
  190.1090  178.3230  139.5250 C   0  0  0  0  0  2  0  0  0  0  0  0
  188.4220  174.0980  137.4490 O   0  0  0  0  0  1  0  0  0  0  0  0
  189.5330  177.2640  137.3520 C   0  0  0  0  0  0  0  0  0  0  0  0
  188.0300  178.9950  135.9780 C   0  0  0  0  0  1  0  0  0  0  0  0
  188.9020  178.1190  135.0830 C   0  0  0  0  0  2  0  0  0  0  0  0
  182.8410  180.6220  138.6790 C   0  0  0  0  0  2  0  0  0  0  0  0
  181.5720  180.8370  139.3770 N   0  0  0  0  0  2  0  0  0  0  0  0
  180.7310  179.7910  139.8740 C   0  0  0  0  0  0  0  0  0  0  0  0
  180.8360  179.4100  141.3340 C   0  0  0  0  0  2  0  0  0  0  0  0
  178.9350  178.0680  139.5500 C   0  0  0  0  0  2  0  0  0  0  0  0
  179.2840  177.5380  140.9370 C   0  0  0  0  0  2  0  0  0  0  0  0
  179.5870  178.7120  141.8450 C   0  0  0  0  0  2  0  0  0  0  0  0
  179.8890  179.1290  139.0300 C   0  0  0  0  0  0  0  0  0  0  0  0
  179.8120  178.4600  136.7480 O   0  0  0  0  0  0  0  0  0  0  0  0
  179.7460  180.7100  137.0860 O   0  0  0  0  0  1  0  0  0  0  0  0
  179.8160  179.4090  137.5750 C   0  0  0  0  0  0  0  0  0  0  0  0
  190.9160  176.2270  142.8360 S   0  0  0  0  0  0  0  0  0  0  0  0
  191.3140  178.0050  142.9730 C   0  0  0  0  0  2  0  0  0  0  0  0
  191.5680  178.4180  144.4230 C   0  0  0  0  0  2  0  0  0  0  0  0
  191.3240  177.2580  145.3800 C   0  0  0  0  0  2  0  0  0  0  0  0
  189.9300  177.3900  145.9930 C   0  0  2  0  0  3  0  0  0  0  0  0
  189.3720  178.6140  145.6250 O   0  0  0  0  0  1  0  0  0  0  0  0
  189.9800  177.2970  147.5160 C   0  0  0  0  0  2  0  0  0  0  0  0
  188.7640  178.6770  149.0310 O   0  0  0  0  0  0  0  0  0  0  0  0
  188.7050  177.7830  148.1440 C   0  0  0  0  0  0  0  0  0  0  0  0
  187.4580  177.2910  147.7480 O   0  0  0  0  0  0  0  0  0  0  0  0
  186.4790  178.1160  147.1250 C   0  0  0  0  0  1  0  0  0  0  0  0
  183.5550  174.2840  137.9750 C   0  0  0  0  0  2  0  0  0  0  0  0
  184.0140  172.0260  137.0250 C   0  0  0  0  0  1  0  0  0  0  0  0
  182.9750  172.9050  137.6880 C   0  0  0  0  0  2  0  0  0  0  0  0
  1 24  1  0  0  0  0
  1  5  1  0  0  0  0
  2 25  1  0  0  0  0
  2 43  1  1  0  0  0
  3 27  1  0  0  0  0
  4 10  1  6  0  0  0
  5  4  1  0  0  0  0
  5 28  1  1  0  0  0
  5 15  1  0  0  0  0
  6 19  1  0  0  0  0
  8 17  1  0  0  0  0
  9 12  1  0  0  0  0
 11 22  1  1  0  0  0
 11 12  1  0  0  0  0
 12  8  1  6  0  0  0
 13 11  1  0  0  0  0
 13 10  1  1  0  0  0
 13 26  1  0  0  0  0
 14 20  2  0  0  0  0
 16 18  1  0  0  0  0
 17 32  1  6  0  0  0
 17 21  1  0  0  0  0
 18  7  1  6  0  0  0
 18  6  1  0  0  0  0
 20  2  1  0  0  0  0
 21  7  2  0  0  0  0
 22  4  1  0  0  0  0
 23 19  1  0  0  0  0
 24 31  1  6  0  0  0
 24 29  1  0  0  0  0
 25 16  1  6  0  0  0
 25 23  1  0  0  0  0
 26  9  1  0  0  0  0
 26 54  1  1  0  0  0
 27 20  1  0  0  0  0
 29 15  1  0  0  0  0
 29  3  2  0  0  0  0
 31 30  1  0  0  0  0
 32 33  1  0  0  0  0
 33 34  1  0  0  0  0
 34 35  1  0  0  0  0
 35 38  1  0  0  0  0
 36 37  1  0  0  0  0
 37 38  1  0  0  0  0
 39 36  1  0  0  0  0
 39 34  2  0  0  0  0
 40 42  2  0  0  0  0
 41 42  1  0  0  0  0
 42 39  1  0  0  0  0
 43 44  1  0  0  0  0
 44 45  1  0  0  0  0
 45 46  1  0  0  0  0
 46 47  1  0  0  0  0
 47 48  1  1  0  0  0
 47 49  1  0  0  0  0
 49 51  1  0  0  0  0
 51 50  2  0  0  0  0
 52 51  1  0  0  0  0
 53 52  1  0  0  0  0
 55 56  1  0  0  0  0
 56 54  1  0  0  0  0
M  END
>  <MODEL>
5

>  <REMARK>
 VINA RESULT:      -3.8      1.954      2.656
  Name = 
  15 active torsions:
  status: ('A' for Active; 'I' for Inactive)
    1  A    between atoms: C_3  and  S_16
    2  A    between atoms: C_4  and  N_38
    3  A    between atoms: C_5  and  C_8
    4  A    between atoms: C_5  and  O_27
    5  A    between atoms: C_7  and  C_30
    6  A    between atoms: C_7  and  N_38
    7  A    between atoms: C_8  and  C_12
    8  A    between atoms: C_12  and  C_35
    9  A    between atoms: S_16  and  C_34
   10  A    between atoms: C_21  and  C_46
   11  A    between atoms: C_34  and  C_49
   12  A    between atoms: C_35  and  C_49
   13  A    between atoms: C_37  and  C_43
   14  A    between atoms: C_43  and  C_51
   15  A    between atoms: C_50  and  C_56
                            x       y       z     vdW  Elec       q    Type
                         _______ _______ _______ _____ _____    ______ ____

>  <TORSDO>
F 15

$$$$
=
 OpenBabel11062416573D

 56 61  0  0  1  0  0  0  0  0999 V2000
  189.1240  175.2440  135.9490 C   0  0  0  0  0  2  0  0  0  0  0  0
  188.0120  177.7030  141.0710 C   0  0  2  0  0  3  0  0  0  0  0  0
  189.2730  178.5260  137.5700 C   0  0  0  0  0  3  0  0  0  0  0  0
  186.6270  175.0900  136.5670 C   0  0  2  0  0  3  0  0  0  0  0  0
  188.0770  175.1850  137.0750 C   0  0  2  0  0  0  0  0  0  0  0  0
  183.6930  178.3480  140.3060 C   0  0  0  0  0  2  0  0  0  0  0  0
  184.0000  177.7210  137.9290 C   0  0  0  0  0  3  0  0  0  0  0  0
  183.4070  177.2530  134.9260 C   0  0  0  0  0  2  0  0  0  0  0  0
  182.9660  175.0460  135.3530 O   0  0  0  0  0  0  0  0  0  0  0  0
  186.2640  173.7790  135.8900 C   0  0  0  0  0  2  0  0  0  0  0  0
  185.0780  175.6290  134.8340 C   0  0  2  0  0  3  0  0  0  0  0  0
  183.8860  176.0320  135.5510 N   0  0  1  0  0  0  0  0  0  0  0  0
  185.1080  174.1310  134.9560 C   0  0  2  0  0  3  0  0  0  0  0  0
  190.3540  177.8510  140.2690 C   0  0  0  0  0  2  0  0  0  0  0  0
  188.2280  176.3990  137.7770 O   0  0  0  0  0  0  0  0  0  0  0  0
  185.9400  177.5230  139.5550 C   0  0  0  0  0  2  0  0  0  0  0  0
  182.5430  178.0520  135.8970 C   0  0  1  0  0  3  0  0  0  0  0  0
  184.6790  178.2970  139.1380 C   0  0  2  0  0  3  0  0  0  0  0  0
  184.3480  178.9920  141.5270 C   0  0  0  0  0  2  0  0  0  0  0  0
  189.0640  178.1610  140.0610 C   0  0  0  0  0  0  0  0  0  0  0  0
  183.3110  178.5230  137.1060 C   0  0  0  0  0  3  0  0  0  0  0  0
  186.2920  176.1530  135.5520 C   0  0  0  0  0  2  0  0  0  0  0  0
  185.6220  178.2390  141.9070 C   0  0  0  0  0  2  0  0  0  0  0  0
  189.6430  176.6910  135.8880 C   0  0  2  0  0  3  0  0  0  0  0  0
  186.6010  178.2550  140.7340 C   0  0  1  0  0  3  0  0  0  0  0  0
  183.6970  173.8460  135.4780 C   0  0  1  0  0  3  0  0  0  0  0  0
  188.6800  179.0130  138.8730 C   0  0  0  0  0  2  0  0  0  0  0  0
  188.3520  174.1140  137.9270 O   0  0  0  0  0  1  0  0  0  0  0  0
  189.0310  177.2970  137.1100 C   0  0  0  0  0  0  0  0  0  0  0  0
  188.8720  178.8250  134.7860 C   0  0  0  0  0  1  0  0  0  0  0  0
  189.1300  177.3320  134.6060 C   0  0  0  0  0  2  0  0  0  0  0  0
  181.9390  179.2900  135.2260 C   0  0  0  0  0  2  0  0  0  0  0  0
  180.7320  179.7780  135.8970 N   0  0  0  0  0  2  0  0  0  0  0  0
  180.2960  181.1420  135.8950 C   0  0  0  0  0  0  0  0  0  0  0  0
  180.3320  181.9110  134.5940 C   0  0  0  0  0  2  0  0  0  0  0  0
  179.3640  183.1570  137.0660 C   0  0  0  0  0  2  0  0  0  0  0  0
  179.6910  183.9570  135.8080 C   0  0  0  0  0  2  0  0  0  0  0  0
  179.3880  183.1020  134.5950 C   0  0  0  0  0  2  0  0  0  0  0  0
  179.9010  181.7360  137.0570 C   0  0  0  0  0  0  0  0  0  0  0  0
  180.1810  181.6980  139.4190 O   0  0  0  0  0  1  0  0  0  0  0  0
  179.6860  179.6820  138.4830 O   0  0  0  0  0  0  0  0  0  0  0  0
  179.9320  181.0470  138.3700 C   0  0  0  0  0  0  0  0  0  0  0  0
  188.5340  178.1440  142.7750 S   0  0  0  0  0  0  0  0  0  0  0  0
  187.9670  176.5640  143.4970 C   0  0  0  0  0  2  0  0  0  0  0  0
  187.0460  176.7890  144.6960 C   0  0  0  0  0  2  0  0  0  0  0  0
  187.4040  178.0700  145.4380 C   0  0  0  0  0  2  0  0  0  0  0  0
  186.2140  178.5150  146.2880 C   0  0  2  0  0  3  0  0  0  0  0  0
  186.4200  178.1350  147.6150 O   0  0  0  0  0  1  0  0  0  0  0  0
  184.9100  177.9010  145.7870 C   0  0  0  0  0  2  0  0  0  0  0  0
  184.4600  180.1050  144.9970 O   0  0  0  0  0  0  0  0  0  0  0  0
  184.0580  178.9120  145.0760 C   0  0  0  0  0  0  0  0  0  0  0  0
  182.8460  178.5580  144.4750 O   0  0  0  0  0  0  0  0  0  0  0  0
  181.9100  179.5300  144.0210 C   0  0  0  0  0  1  0  0  0  0  0  0
  183.6220  173.3330  136.9170 C   0  0  0  0  0  2  0  0  0  0  0  0
  183.1450  170.8870  136.9750 C   0  0  0  0  0  1  0  0  0  0  0  0
  184.2300  171.9420  137.0330 C   0  0  0  0  0  2  0  0  0  0  0  0
  1  5  1  0  0  0  0
  2 43  1  1  0  0  0
  3 27  1  0  0  0  0
  4 22  1  6  0  0  0
  4  5  1  0  0  0  0
  5 15  1  0  0  0  0
  5 28  1  1  0  0  0
  6 19  1  0  0  0  0
  8 17  1  0  0  0  0
  9 26  1  0  0  0  0
  9 12  1  0  0  0  0
 10  4  1  0  0  0  0
 11 13  1  0  0  0  0
 11 12  1  0  0  0  0
 11 22  1  1  0  0  0
 12  8  1  6  0  0  0
 13 26  1  0  0  0  0
 13 10  1  1  0  0  0
 17 32  1  6  0  0  0
 17 21  1  0  0  0  0
 18  7  1  6  0  0  0
 18 16  1  0  0  0  0
 18  6  1  0  0  0  0
 19 23  1  0  0  0  0
 20 14  2  0  0  0  0
 20  2  1  0  0  0  0
 21  7  2  0  0  0  0
 24 31  1  6  0  0  0
 24  1  1  0  0  0  0
 24 29  1  0  0  0  0
 25 16  1  6  0  0  0
 25  2  1  0  0  0  0
 25 23  1  0  0  0  0
 26 54  1  1  0  0  0
 27 20  1  0  0  0  0
 29  3  2  0  0  0  0
 29 15  1  0  0  0  0
 31 30  1  0  0  0  0
 32 33  1  0  0  0  0
 34 33  1  0  0  0  0
 34 39  2  0  0  0  0
 35 38  1  0  0  0  0
 35 34  1  0  0  0  0
 37 36  1  0  0  0  0
 38 37  1  0  0  0  0
 39 36  1  0  0  0  0
 39 42  1  0  0  0  0
 42 41  2  0  0  0  0
 42 40  1  0  0  0  0
 43 44  1  0  0  0  0
 44 45  1  0  0  0  0
 45 46  1  0  0  0  0
 46 47  1  0  0  0  0
 47 48  1  1  0  0  0
 49 47  1  0  0  0  0
 50 51  2  0  0  0  0
 51 49  1  0  0  0  0
 52 51  1  0  0  0  0
 53 52  1  0  0  0  0
 54 56  1  0  0  0  0
 55 56  1  0  0  0  0
M  END
>  <MODEL>
6

>  <REMARK>
 VINA RESULT:      -3.5      2.212      3.149
  Name = 
  15 active torsions:
  status: ('A' for Active; 'I' for Inactive)
    1  A    between atoms: C_3  and  S_16
    2  A    between atoms: C_4  and  N_38
    3  A    between atoms: C_5  and  C_8
    4  A    between atoms: C_5  and  O_27
    5  A    between atoms: C_7  and  C_30
    6  A    between atoms: C_7  and  N_38
    7  A    between atoms: C_8  and  C_12
    8  A    between atoms: C_12  and  C_35
    9  A    between atoms: S_16  and  C_34
   10  A    between atoms: C_21  and  C_46
   11  A    between atoms: C_34  and  C_49
   12  A    between atoms: C_35  and  C_49
   13  A    between atoms: C_37  and  C_43
   14  A    between atoms: C_43  and  C_51
   15  A    between atoms: C_50  and  C_56
                            x       y       z     vdW  Elec       q    Type
                         _______ _______ _______ _____ _____    ______ ____

>  <TORSDO>
F 15

$$$$
=
 OpenBabel11062416573D

 56 61  0  0  1  0  0  0  0  0999 V2000
  185.6790  174.4200  134.9960 C   0  0  0  0  0  2  0  0  0  0  0  0
  182.4660  177.8760  138.3490 C   0  0  2  0  0  3  0  0  0  0  0  0
  183.6780  174.2750  138.0620 C   0  0  0  0  0  3  0  0  0  0  0  0
  187.0770  176.3180  136.0390 C   0  0  2  0  0  3  0  0  0  0  0  0
  185.6920  175.8540  135.5530 C   0  0  2  0  0  0  0  0  0  0  0  0
  185.8640  179.4530  140.7190 C   0  0  0  0  0  2  0  0  0  0  0  0
  187.3760  177.7670  139.7110 C   0  0  0  0  0  3  0  0  0  0  0  0
  189.8950  176.0560  139.1570 C   0  0  0  0  0  2  0  0  0  0  0  0
  190.4810  177.4630  137.4470 O   0  0  0  0  0  0  0  0  0  0  0  0
  188.1110  176.5220  134.9440 C   0  0  0  0  0  2  0  0  0  0  0  0
  189.1820  175.6870  136.9690 C   0  0  2  0  0  3  0  0  0  0  0  0
  189.4510  176.7210  137.9450 N   0  0  1  0  0  0  0  0  0  0  0  0
  189.4570  176.3360  135.6410 C   0  0  2  0  0  3  0  0  0  0  0  0
  181.3010  175.9320  137.3440 C   0  0  0  0  0  2  0  0  0  0  0  0
  184.8160  175.8240  136.6580 O   0  0  0  0  0  0  0  0  0  0  0  0
  184.9790  177.9720  138.8990 C   0  0  0  0  0  2  0  0  0  0  0  0
  189.6650  176.9450  140.3760 C   0  0  1  0  0  3  0  0  0  0  0  0
  185.9520  178.0640  140.0860 C   0  0  2  0  0  3  0  0  0  0  0  0
  184.4330  179.7460  141.1650 C   0  0  0  0  0  2  0  0  0  0  0  0
  182.2730  176.3720  138.1590 C   0  0  0  0  0  0  0  0  0  0  0  0
  188.2040  177.2320  140.6170 C   0  0  0  0  0  3  0  0  0  0  0  0
  187.7170  175.3450  136.9950 C   0  0  0  0  0  2  0  0  0  0  0  0
  183.4700  179.6110  139.9870 C   0  0  0  0  0  2  0  0  0  0  0  0
  184.9890  173.5330  136.0450 C   0  0  2  0  0  3  0  0  0  0  0  0
  183.5480  178.1960  139.4150 C   0  0  1  0  0  3  0  0  0  0  0  0
  190.1820  177.6120  136.0770 C   0  0  1  0  0  3  0  0  0  0  0  0
  183.1160  175.3790  138.9270 C   0  0  0  0  0  2  0  0  0  0  0  0
  185.2040  176.7440  134.5940 O   0  0  0  0  0  1  0  0  0  0  0  0
  184.4630  174.5410  137.0150 C   0  0  0  0  0  0  0  0  0  0  0  0
  186.5320  171.5700  135.6820 C   0  0  0  0  0  1  0  0  0  0  0  0
  186.0370  172.6220  136.6700 C   0  0  0  0  0  2  0  0  0  0  0  0
  190.2240  176.3070  141.6530 C   0  0  0  0  0  2  0  0  0  0  0  0
  189.1830  175.9290  142.6110 N   0  0  0  0  0  2  0  0  0  0  0  0
  188.8160  176.7020  143.7590 C   0  0  0  0  0  0  0  0  0  0  0  0
  187.3680  177.1020  143.9300 C   0  0  0  0  0  2  0  0  0  0  0  0
  189.3930  177.8560  145.9130 C   0  0  0  0  0  2  0  0  0  0  0  0
  187.9960  178.4670  145.8830 C   0  0  0  0  0  2  0  0  0  0  0  0
  187.0200  177.4270  145.3720 C   0  0  0  0  0  2  0  0  0  0  0  0
  189.7700  177.1000  144.6500 C   0  0  0  0  0  0  0  0  0  0  0  0
  191.6940  175.7260  144.9140 O   0  0  0  0  0  1  0  0  0  0  0  0
  192.0670  177.6960  143.8340 O   0  0  0  0  0  0  0  0  0  0  0  0
  191.2130  176.8050  144.4770 C   0  0  0  0  0  0  0  0  0  0  0  0
  180.8610  178.6780  138.7370 S   0  0  0  0  0  0  0  0  0  0  0  0
  180.3320  177.3620  139.8870 C   0  0  0  0  0  2  0  0  0  0  0  0
  179.9970  177.9190  141.2710 C   0  0  0  0  0  2  0  0  0  0  0  0
  181.2260  178.5310  141.9330 C   0  0  0  0  0  2  0  0  0  0  0  0
  181.1650  178.2860  143.4410 C   0  0  2  0  0  3  0  0  0  0  0  0
  179.8460  178.4030  143.8800 O   0  0  0  0  0  1  0  0  0  0  0  0
  182.0380  179.2790  144.2030 C   0  0  0  0  0  2  0  0  0  0  0  0
  184.1840  178.3840  143.6780 O   0  0  0  0  0  0  0  0  0  0  0  0
  183.3600  178.6770  144.5860 C   0  0  0  0  0  0  0  0  0  0  0  0
  183.7080  178.4630  145.9230 O   0  0  0  0  0  0  0  0  0  0  0  0
  184.7940  179.1450  146.5440 C   0  0  0  0  0  1  0  0  0  0  0  0
  189.4150  178.9140  135.8450 C   0  0  0  0  0  2  0  0  0  0  0  0
  187.2590  179.7080  136.8140 C   0  0  0  0  0  1  0  0  0  0  0  0
  188.7020  179.3600  137.1160 C   0  0  0  0  0  2  0  0  0  0  0  0
  1  5  1  0  0  0  0
  1 24  1  0  0  0  0
  2 43  1  1  0  0  0
  2 25  1  0  0  0  0
  3 27  1  0  0  0  0
  4 10  1  6  0  0  0
  4 22  1  0  0  0  0
  5 28  1  6  0  0  0
  5  4  1  0  0  0  0
  5 15  1  0  0  0  0
  6 19  1  0  0  0  0
  7 18  1  0  0  0  0
  7 21  2  0  0  0  0
  8 17  1  0  0  0  0
  9 12  1  0  0  0  0
 11 22  1  6  0  0  0
 11 12  1  0  0  0  0
 12  8  1  1  0  0  0
 13 10  1  1  0  0  0
 13 26  1  0  0  0  0
 13 11  1  0  0  0  0
 14 20  2  0  0  0  0
 15 29  1  0  0  0  0
 17 21  1  0  0  0  0
 17 32  1  1  0  0  0
 18 16  1  6  0  0  0
 18  6  1  0  0  0  0
 20  2  1  0  0  0  0
 20 27  1  0  0  0  0
 23 19  1  0  0  0  0
 24 31  1  1  0  0  0
 24 29  1  0  0  0  0
 25 16  1  6  0  0  0
 25 23  1  0  0  0  0
 26 54  1  1  0  0  0
 26  9  1  0  0  0  0
 29  3  2  0  0  0  0
 30 31  1  0  0  0  0
 32 33  1  0  0  0  0
 33 34  1  0  0  0  0
 34 35  1  0  0  0  0
 34 39  2  0  0  0  0
 35 38  1  0  0  0  0
 37 36  1  0  0  0  0
 38 37  1  0  0  0  0
 39 36  1  0  0  0  0
 41 42  2  0  0  0  0
 42 39  1  0  0  0  0
 42 40  1  0  0  0  0
 43 44  1  0  0  0  0
 44 45  1  0  0  0  0
 45 46  1  0  0  0  0
 46 47  1  0  0  0  0
 47 48  1  1  0  0  0
 47 49  1  0  0  0  0
 49 51  1  0  0  0  0
 50 51  2  0  0  0  0
 51 52  1  0  0  0  0
 52 53  1  0  0  0  0
 54 56  1  0  0  0  0
 55 56  1  0  0  0  0
M  END
>  <MODEL>
7

>  <REMARK>
 VINA RESULT:      -3.5      3.693      8.659
  Name = 
  15 active torsions:
  status: ('A' for Active; 'I' for Inactive)
    1  A    between atoms: C_3  and  S_16
    2  A    between atoms: C_4  and  N_38
    3  A    between atoms: C_5  and  C_8
    4  A    between atoms: C_5  and  O_27
    5  A    between atoms: C_7  and  C_30
    6  A    between atoms: C_7  and  N_38
    7  A    between atoms: C_8  and  C_12
    8  A    between atoms: C_12  and  C_35
    9  A    between atoms: S_16  and  C_34
   10  A    between atoms: C_21  and  C_46
   11  A    between atoms: C_34  and  C_49
   12  A    between atoms: C_35  and  C_49
   13  A    between atoms: C_37  and  C_43
   14  A    between atoms: C_43  and  C_51
   15  A    between atoms: C_50  and  C_56
                            x       y       z     vdW  Elec       q    Type
                         _______ _______ _______ _____ _____    ______ ____

>  <TORSDO>
F 15

$$$$
