=
 OpenBabel11062415413D

 34 37  0  0  1  0  0  0  0  0999 V2000
  183.4800  179.1050  145.4780 N   0  0  0  0  0  0  0  0  0  0  0  0
  184.0500  178.9930  143.1620 C   0  0  0  0  0  3  0  0  0  0  0  0
  184.7020  178.6270  145.8320 C   0  0  0  0  0  3  0  0  0  0  0  0
  185.6430  178.2860  144.8520 C   0  0  0  0  0  0  0  0  0  0  0  0
  185.3140  178.4920  143.4960 C   0  0  0  0  0  0  0  0  0  0  0  0
  187.4290  177.5260  142.7560 C   0  0  0  0  0  3  0  0  0  0  0  0
  186.3150  178.1930  142.4450 C   0  0  0  0  0  0  0  0  0  0  0  0
  183.1370  179.2900  144.1750 C   0  0  0  0  0  3  0  0  0  0  0  0
  187.6270  176.9400  144.1240 C   0  0  0  0  0  2  0  0  0  0  0  0
  187.0460  177.8450  145.2180 C   0  0  2  0  0  3  0  0  0  0  0  0
  186.1540  178.7160  141.0560 C   0  0  0  0  0  2  0  0  0  0  0  0
  187.4100  178.8940  140.4720 O   0  0  0  0  0  0  0  0  0  0  0  0
  188.6650  178.1700  138.5960 C   0  0  2  0  0  3  0  0  0  0  0  0
  187.5030  177.8760  139.5250 C   0  0  2  0  0  3  0  0  0  0  0  0
  187.2460  178.4480  138.1460 C   0  0  0  0  0  2  0  0  0  0  0  0
  189.1230  176.9270  138.0030 N   0  0  0  0  0  2  0  0  0  0  0  0
  190.5520  177.0630  137.7940 C   0  0  2  0  0  3  0  0  0  0  0  0
  191.2600  175.9480  138.4600 C   0  0  2  0  0  3  0  0  0  0  0  0
  191.1890  177.2310  139.0350 O   0  0  0  0  0  0  0  0  0  0  0  0
  193.5270  176.7890  137.8420 O   0  0  0  0  0  1  0  0  0  0  0  0
  192.8970  174.6520  137.3030 O   0  0  0  0  0  0  0  0  0  0  0  0
  192.6050  175.7500  137.8460 C   0  0  0  0  0  0  0  0  0  0  0  0
  187.0950  177.1190  146.5620 C   0  0  0  0  0  2  0  0  0  0  0  0
  189.3860  178.1120  147.1090 N   0  0  0  0  0  2  0  0  0  0  0  0
  188.0540  177.7730  147.5110 C   0  0  0  0  0  0  0  0  0  0  0  0
  187.6540  178.1270  148.6520 O   0  0  0  0  0  0  0  0  0  0  0  0
  190.0400  177.5860  145.9810 N   0  0  0  0  0  2  0  0  0  0  0  0
  191.2650  176.8480  146.0360 C   0  0  0  0  0  0  0  0  0  0  0  0
  191.9670  176.8490  147.0810 O   0  0  0  0  0  0  0  0  0  0  0  0
  191.7770  176.1630  144.8130 C   0  0  0  0  0  2  0  0  0  0  0  0
  190.5540  175.1700  142.9560 N   0  0  0  0  0  1  0  0  0  0  0  0
  190.8810  176.4240  143.6110 C   0  0  2  0  0  3  0  0  0  0  0  0
  191.8260  178.5790  143.2040 O   0  0  0  0  0  1  0  0  0  0  0  0
  191.5910  177.3320  142.6230 C   0  0  0  0  0  2  0  0  0  0  0  0
  1  3  1  0  0  0  0
  2  5  2  0  0  0  0
  2  8  1  0  0  0  0
  4 10  1  0  0  0  0
  4  3  2  0  0  0  0
  5  4  1  0  0  0  0
  6  9  1  0  0  0  0
  7  6  2  0  0  0  0
  7  5  1  0  0  0  0
  8  1  2  0  0  0  0
  9 10  1  0  0  0  0
 10 23  1  1  0  0  0
 11  7  1  0  0  0  0
 12 11  1  0  0  0  0
 13 16  1  6  0  0  0
 13 14  1  0  0  0  0
 14 12  1  1  0  0  0
 15 13  1  0  0  0  0
 15 14  1  0  0  0  0
 17 16  1  1  0  0  0
 17 18  1  0  0  0  0
 17 19  1  0  0  0  0
 18 22  1  6  0  0  0
 18 19  1  0  0  0  0
 20 22  1  0  0  0  0
 21 22  2  0  0  0  0
 23 25  1  0  0  0  0
 24 25  1  0  0  0  0
 25 26  2  0  0  0  0
 27 28  1  0  0  0  0
 27 24  1  0  0  0  0
 28 29  2  0  0  0  0
 30 28  1  0  0  0  0
 32 31  1  6  0  0  0
 32 30  1  0  0  0  0
 34 33  1  0  0  0  0
 34 32  1  0  0  0  0
M  END
>  <MODEL>
1

>  <REMARK>
 VINA RESULT:      -8.2      0.000      0.000
  Name = 
  12 active torsions:
  status: ('A' for Active; 'I' for Inactive)
    1  A    between atoms: O_2  and  C_17
    2  A    between atoms: O_2  and  C_22
    3  A    between atoms: N_8  and  N_19
    4  A    between atoms: C_10  and  C_14
    5  A    between atoms: C_10  and  C_28
    6  A    between atoms: C_12  and  C_14
    7  A    between atoms: C_13  and  N_27
    8  A    between atoms: C_15  and  N_27
    9  A    between atoms: C_17  and  C_31
   10  A    between atoms: C_18  and  C_26
   11  A    between atoms: C_18  and  C_34
   12  A    between atoms: C_20  and  C_21
                            x       y       z     vdW  Elec       q    Type
                         _______ _______ _______ _____ _____    ______ ____

>  <TORSDO>
F 12

$$$$
=
 OpenBabel11062415413D

 34 37  0  0  1  0  0  0  0  0999 V2000
  191.2110  177.0620  146.7040 N   0  0  0  0  0  0  0  0  0  0  0  0
  188.8880  177.3860  147.1510 C   0  0  0  0  0  3  0  0  0  0  0  0
  190.9700  176.9590  145.3710 C   0  0  0  0  0  3  0  0  0  0  0  0
  189.6610  177.0400  144.8760 C   0  0  0  0  0  0  0  0  0  0  0  0
  188.6080  177.2770  145.7840 C   0  0  0  0  0  0  0  0  0  0  0  0
  186.9400  177.1130  144.0100 C   0  0  0  0  0  3  0  0  0  0  0  0
  187.2240  177.4240  145.2770 C   0  0  0  0  0  0  0  0  0  0  0  0
  190.2060  177.2690  147.5960 C   0  0  0  0  0  3  0  0  0  0  0  0
  187.9670  176.4750  143.1190 C   0  0  0  0  0  2  0  0  0  0  0  0
  189.3730  177.0280  143.3880 C   0  0  2  0  0  3  0  0  0  0  0  0
  186.1500  178.0170  146.1290 C   0  0  0  0  0  2  0  0  0  0  0  0
  185.5880  179.1170  145.4790 O   0  0  0  0  0  0  0  0  0  0  0  0
  184.3040  179.2440  143.4900 C   0  0  2  0  0  3  0  0  0  0  0  0
  184.4440  178.6130  144.8620 C   0  0  2  0  0  3  0  0  0  0  0  0
  183.4550  179.7380  144.6430 C   0  0  0  0  0  2  0  0  0  0  0  0
  183.5100  178.3700  142.6460 N   0  0  0  0  0  2  0  0  0  0  0  0
  184.1800  178.3030  141.3610 C   0  0  2  0  0  3  0  0  0  0  0  0
  183.2340  178.6760  140.2870 C   0  0  2  0  0  3  0  0  0  0  0  0
  183.5530  177.3320  140.5620 O   0  0  0  0  0  0  0  0  0  0  0  0
  184.1230  178.2780  137.9890 O   0  0  0  0  0  0  0  0  0  0  0  0
  184.5070  180.2720  139.0520 O   0  0  0  0  0  1  0  0  0  0  0  0
  183.9800  179.1290  139.0780 C   0  0  0  0  0  0  0  0  0  0  0  0
  190.4010  176.2130  142.6040 C   0  0  0  0  0  2  0  0  0  0  0  0
  190.9300  177.7430  140.6260 N   0  0  0  0  0  2  0  0  0  0  0  0
  191.3390  177.0960  141.8350 C   0  0  0  0  0  0  0  0  0  0  0  0
  192.4740  177.3600  142.3130 O   0  0  0  0  0  0  0  0  0  0  0  0
  189.8100  177.3740  139.8600 N   0  0  0  0  0  2  0  0  0  0  0  0
  188.5900  178.1220  139.8110 C   0  0  0  0  0  0  0  0  0  0  0  0
  188.3570  179.0230  140.6590 O   0  0  0  0  0  0  0  0  0  0  0  0
  187.5340  177.7600  138.8210 C   0  0  0  0  0  2  0  0  0  0  0  0
  187.2750  179.0380  136.7640 N   0  0  0  0  0  1  0  0  0  0  0  0
  188.0180  177.9590  137.3910 C   0  0  2  0  0  3  0  0  0  0  0  0
  186.4530  176.4130  136.4650 O   0  0  0  0  0  1  0  0  0  0  0  0
  187.8150  176.6840  136.5940 C   0  0  0  0  0  2  0  0  0  0  0  0
  1  8  1  0  0  0  0
  2  8  2  0  0  0  0
  3  1  2  0  0  0  0
  4  3  1  0  0  0  0
  4  5  2  0  0  0  0
  5  2  1  0  0  0  0
  6  7  2  0  0  0  0
  7  5  1  0  0  0  0
  7 11  1  0  0  0  0
  9 10  1  0  0  0  0
  9  6  1  0  0  0  0
 10 23  1  6  0  0  0
 10  4  1  0  0  0  0
 12 11  1  0  0  0  0
 13 16  1  6  0  0  0
 13 15  1  0  0  0  0
 13 14  1  0  0  0  0
 14 12  1  1  0  0  0
 15 14  1  0  0  0  0
 17 16  1  1  0  0  0
 18 22  1  6  0  0  0
 18 19  1  0  0  0  0
 18 17  1  0  0  0  0
 19 17  1  0  0  0  0
 20 22  2  0  0  0  0
 21 22  1  0  0  0  0
 24 25  1  0  0  0  0
 25 26  2  0  0  0  0
 25 23  1  0  0  0  0
 27 24  1  0  0  0  0
 28 27  1  0  0  0  0
 28 29  2  0  0  0  0
 30 28  1  0  0  0  0
 32 31  1  6  0  0  0
 32 30  1  0  0  0  0
 33 34  1  0  0  0  0
 34 32  1  0  0  0  0
M  END
>  <MODEL>
2

>  <REMARK>
 VINA RESULT:      -8.2      2.455      6.904
  Name = 
  12 active torsions:
  status: ('A' for Active; 'I' for Inactive)
    1  A    between atoms: O_2  and  C_17
    2  A    between atoms: O_2  and  C_22
    3  A    between atoms: N_8  and  N_19
    4  A    between atoms: C_10  and  C_14
    5  A    between atoms: C_10  and  C_28
    6  A    between atoms: C_12  and  C_14
    7  A    between atoms: C_13  and  N_27
    8  A    between atoms: C_15  and  N_27
    9  A    between atoms: C_17  and  C_31
   10  A    between atoms: C_18  and  C_26
   11  A    between atoms: C_18  and  C_34
   12  A    between atoms: C_20  and  C_21
                            x       y       z     vdW  Elec       q    Type
                         _______ _______ _______ _____ _____    ______ ____

>  <TORSDO>
F 12

$$$$
=
 OpenBabel11062415413D

 34 37  0  0  1  0  0  0  0  0999 V2000
  189.6400  177.2460  147.5870 N   0  0  0  0  0  0  0  0  0  0  0  0
  187.3650  177.9320  147.3620 C   0  0  0  0  0  3  0  0  0  0  0  0
  189.7630  177.1080  146.2410 C   0  0  0  0  0  3  0  0  0  0  0  0
  188.6700  177.3540  145.3980 C   0  0  0  0  0  0  0  0  0  0  0  0
  187.4580  177.7920  145.9720 C   0  0  0  0  0  0  0  0  0  0  0  0
  186.3390  177.7810  143.8040 C   0  0  0  0  0  3  0  0  0  0  0  0
  186.3070  178.1150  145.0960 C   0  0  0  0  0  0  0  0  0  0  0  0
  188.4730  177.6460  148.1590 C   0  0  0  0  0  3  0  0  0  0  0  0
  187.4580  176.9520  143.2430 C   0  0  0  0  0  2  0  0  0  0  0  0
  188.8040  177.3060  143.8900 C   0  0  2  0  0  3  0  0  0  0  0  0
  185.1470  178.9040  145.6070 C   0  0  0  0  0  2  0  0  0  0  0  0
  183.9550  178.2710  145.2500 O   0  0  0  0  0  0  0  0  0  0  0  0
  182.0310  178.5970  143.9040 C   0  0  2  0  0  3  0  0  0  0  0  0
  183.2350  179.2450  144.5600 C   0  0  2  0  0  3  0  0  0  0  0  0
  183.2560  178.9290  143.0790 C   0  0  0  0  0  2  0  0  0  0  0  0
  181.0120  179.6070  143.6830 N   0  0  0  0  0  2  0  0  0  0  0  0
  180.4810  179.3840  142.3510 C   0  0  2  0  0  3  0  0  0  0  0  0
  179.5680  180.4910  141.9880 C   0  0  2  0  0  3  0  0  0  0  0  0
  179.0850  179.2430  142.4270 O   0  0  0  0  0  0  0  0  0  0  0  0
  178.9350  179.5100  139.7830 O   0  0  0  0  0  0  0  0  0  0  0  0
  179.8040  181.6270  139.9030 O   0  0  0  0  0  1  0  0  0  0  0  0
  179.4360  180.5850  140.5060 C   0  0  0  0  0  0  0  0  0  0  0  0
  189.8680  176.3070  143.4330 C   0  0  0  0  0  2  0  0  0  0  0  0
  191.1230  177.3980  141.4920 N   0  0  0  0  0  2  0  0  0  0  0  0
  191.0710  177.0000  142.8660 C   0  0  0  0  0  0  0  0  0  0  0  0
  192.0140  177.3330  143.6320 O   0  0  0  0  0  0  0  0  0  0  0  0
  190.2780  176.9040  140.4830 N   0  0  0  0  0  2  0  0  0  0  0  0
  189.1680  177.6280  139.9420 C   0  0  0  0  0  0  0  0  0  0  0  0
  188.7260  178.6530  140.5240 O   0  0  0  0  0  0  0  0  0  0  0  0
  188.4520  177.1050  138.7410 C   0  0  0  0  0  2  0  0  0  0  0  0
  186.7240  177.7830  137.1650 N   0  0  0  0  0  1  0  0  0  0  0  0
  187.9030  178.2360  137.8820 C   0  0  2  0  0  3  0  0  0  0  0  0
  189.2470  177.6440  136.0000 O   0  0  0  0  0  1  0  0  0  0  0  0
  188.9520  178.6840  136.8830 C   0  0  0  0  0  2  0  0  0  0  0  0
  1  8  1  0  0  0  0
  2  8  2  0  0  0  0
  3  1  2  0  0  0  0
  4  5  2  0  0  0  0
  4  3  1  0  0  0  0
  5  2  1  0  0  0  0
  6  7  2  0  0  0  0
  7 11  1  0  0  0  0
  7  5  1  0  0  0  0
  9  6  1  0  0  0  0
  9 10  1  0  0  0  0
 10 23  1  1  0  0  0
 10  4  1  0  0  0  0
 12 11  1  0  0  0  0
 13 16  1  6  0  0  0
 13 14  1  0  0  0  0
 14 12  1  1  0  0  0
 15 13  1  0  0  0  0
 15 14  1  0  0  0  0
 17 19  1  0  0  0  0
 17 16  1  1  0  0  0
 18 22  1  6  0  0  0
 18 17  1  0  0  0  0
 18 19  1  0  0  0  0
 20 22  2  0  0  0  0
 21 22  1  0  0  0  0
 24 25  1  0  0  0  0
 25 23  1  0  0  0  0
 25 26  2  0  0  0  0
 27 24  1  0  0  0  0
 28 27  1  0  0  0  0
 28 29  2  0  0  0  0
 30 28  1  0  0  0  0
 32 31  1  6  0  0  0
 32 30  1  0  0  0  0
 33 34  1  0  0  0  0
 34 32  1  0  0  0  0
M  END
>  <MODEL>
3

>  <REMARK>
 VINA RESULT:      -8.1      3.289      7.917
  Name = 
  12 active torsions:
  status: ('A' for Active; 'I' for Inactive)
    1  A    between atoms: O_2  and  C_17
    2  A    between atoms: O_2  and  C_22
    3  A    between atoms: N_8  and  N_19
    4  A    between atoms: C_10  and  C_14
    5  A    between atoms: C_10  and  C_28
    6  A    between atoms: C_12  and  C_14
    7  A    between atoms: C_13  and  N_27
    8  A    between atoms: C_15  and  N_27
    9  A    between atoms: C_17  and  C_31
   10  A    between atoms: C_18  and  C_26
   11  A    between atoms: C_18  and  C_34
   12  A    between atoms: C_20  and  C_21
                            x       y       z     vdW  Elec       q    Type
                         _______ _______ _______ _____ _____    ______ ____

>  <TORSDO>
F 12

$$$$
=
 OpenBabel11062415413D

 34 37  0  0  1  0  0  0  0  0999 V2000
  183.5290  178.8680  141.9640 N   0  0  0  0  0  0  0  0  0  0  0  0
  185.4190  178.6530  140.5220 C   0  0  0  0  0  3  0  0  0  0  0  0
  184.2860  178.5620  143.0500 C   0  0  0  0  0  3  0  0  0  0  0  0
  185.6470  178.2600  142.9060 C   0  0  0  0  0  0  0  0  0  0  0  0
  186.2230  178.3270  141.6200 C   0  0  0  0  0  0  0  0  0  0  0  0
  188.3810  177.5600  142.4630 C   0  0  0  0  0  3  0  0  0  0  0  0
  187.6730  178.0700  141.4530 C   0  0  0  0  0  0  0  0  0  0  0  0
  184.0630  178.9160  140.7140 C   0  0  0  0  0  3  0  0  0  0  0  0
  187.7110  177.1020  143.7270 C   0  0  0  0  0  2  0  0  0  0  0  0
  186.5370  178.0130  144.1080 C   0  0  2  0  0  3  0  0  0  0  0  0
  188.3870  178.4680  140.2040 C   0  0  0  0  0  2  0  0  0  0  0  0
  188.4550  177.3780  139.3340 O   0  0  0  0  0  0  0  0  0  0  0  0
  190.4000  176.2050  138.6530 C   0  0  2  0  0  3  0  0  0  0  0  0
  189.6710  177.5350  138.6710 C   0  0  2  0  0  3  0  0  0  0  0  0
  190.8070  177.2790  139.6390 C   0  0  0  0  0  2  0  0  0  0  0  0
  191.3330  176.1910  137.5410 N   0  0  0  0  0  2  0  0  0  0  0  0
  192.2730  175.1150  137.7940 C   0  0  2  0  0  3  0  0  0  0  0  0
  193.6260  175.5240  137.3560 C   0  0  2  0  0  3  0  0  0  0  0  0
  192.8160  174.6780  136.5740 O   0  0  0  0  0  0  0  0  0  0  0  0
  194.9740  173.4390  137.6040 O   0  0  0  0  0  0  0  0  0  0  0  0
  195.2340  175.1710  139.0830 O   0  0  0  0  0  1  0  0  0  0  0  0
  194.6620  174.7140  138.0590 C   0  0  0  0  0  0  0  0  0  0  0  0
  185.7720  177.3970  145.2800 C   0  0  0  0  0  2  0  0  0  0  0  0
  186.8450  178.3010  147.4160 N   0  0  0  0  0  2  0  0  0  0  0  0
  185.7660  178.3030  146.4750 C   0  0  0  0  0  0  0  0  0  0  0  0
  184.8480  179.1560  146.6030 O   0  0  0  0  0  0  0  0  0  0  0  0
  187.7990  177.2750  147.5390 N   0  0  0  0  0  2  0  0  0  0  0  0
  189.1450  177.3700  147.0600 C   0  0  0  0  0  0  0  0  0  0  0  0
  189.4790  178.2870  146.2650 O   0  0  0  0  0  0  0  0  0  0  0  0
  190.1360  176.3110  147.4100 C   0  0  0  0  0  2  0  0  0  0  0  0
  191.5140  176.4190  145.4050 N   0  0  0  0  0  1  0  0  0  0  0  0
  191.5130  176.6250  146.8420 C   0  0  2  0  0  3  0  0  0  0  0  0
  192.9840  176.2650  148.6880 O   0  0  0  0  0  1  0  0  0  0  0  0
  192.5540  175.7220  147.4760 C   0  0  0  0  0  2  0  0  0  0  0  0
  1  3  1  0  0  0  0
  2  8  1  0  0  0  0
  2  5  2  0  0  0  0
  4  3  2  0  0  0  0
  4 10  1  0  0  0  0
  5  4  1  0  0  0  0
  6  9  1  0  0  0  0
  7  5  1  0  0  0  0
  7  6  2  0  0  0  0
  8  1  2  0  0  0  0
  9 10  1  0  0  0  0
 10 23  1  1  0  0  0
 11  7  1  0  0  0  0
 12 11  1  0  0  0  0
 13 16  1  6  0  0  0
 13 14  1  0  0  0  0
 13 15  1  0  0  0  0
 14 12  1  1  0  0  0
 14 15  1  0  0  0  0
 17 16  1  6  0  0  0
 18 17  1  0  0  0  0
 18 22  1  1  0  0  0
 19 18  1  0  0  0  0
 19 17  1  0  0  0  0
 20 22  2  0  0  0  0
 22 21  1  0  0  0  0
 23 25  1  0  0  0  0
 24 27  1  0  0  0  0
 25 26  2  0  0  0  0
 25 24  1  0  0  0  0
 28 30  1  0  0  0  0
 28 27  1  0  0  0  0
 29 28  2  0  0  0  0
 32 31  1  6  0  0  0
 32 30  1  0  0  0  0
 32 34  1  0  0  0  0
 34 33  1  0  0  0  0
M  END
>  <MODEL>
4

>  <REMARK>
 VINA RESULT:      -8.0      1.964      2.981
  Name = 
  12 active torsions:
  status: ('A' for Active; 'I' for Inactive)
    1  A    between atoms: O_2  and  C_17
    2  A    between atoms: O_2  and  C_22
    3  A    between atoms: N_8  and  N_19
    4  A    between atoms: C_10  and  C_14
    5  A    between atoms: C_10  and  C_28
    6  A    between atoms: C_12  and  C_14
    7  A    between atoms: C_13  and  N_27
    8  A    between atoms: C_15  and  N_27
    9  A    between atoms: C_17  and  C_31
   10  A    between atoms: C_18  and  C_26
   11  A    between atoms: C_18  and  C_34
   12  A    between atoms: C_20  and  C_21
                            x       y       z     vdW  Elec       q    Type
                         _______ _______ _______ _____ _____    ______ ____

>  <TORSDO>
F 12

$$$$
=
 OpenBabel11062415413D

 34 37  0  0  1  0  0  0  0  0999 V2000
  191.7370  176.9710  146.5600 N   0  0  0  0  0  0  0  0  0  0  0  0
  189.4110  176.9760  147.0960 C   0  0  0  0  0  3  0  0  0  0  0  0
  191.4750  177.3680  145.2870 C   0  0  0  0  0  3  0  0  0  0  0  0
  190.1540  177.5590  144.8590 C   0  0  0  0  0  0  0  0  0  0  0  0
  189.1090  177.3780  145.7890 C   0  0  0  0  0  0  0  0  0  0  0  0
  187.4160  177.8080  144.0850 C   0  0  0  0  0  3  0  0  0  0  0  0
  187.7090  177.6320  145.3760 C   0  0  0  0  0  0  0  0  0  0  0  0
  190.7410  176.7700  147.4630 C   0  0  0  0  0  3  0  0  0  0  0  0
  188.4550  177.6120  143.0190 C   0  0  0  0  0  2  0  0  0  0  0  0
  189.8360  178.0960  143.4780 C   0  0  2  0  0  3  0  0  0  0  0  0
  186.6240  177.7980  146.3880 C   0  0  0  0  0  2  0  0  0  0  0  0
  185.7750  178.8360  146.0010 O   0  0  0  0  0  0  0  0  0  0  0  0
  184.3050  179.1890  144.1740 C   0  0  2  0  0  3  0  0  0  0  0  0
  184.7930  178.2160  145.2300 C   0  0  2  0  0  3  0  0  0  0  0  0
  183.4760  178.9410  145.4160 C   0  0  0  0  0  2  0  0  0  0  0  0
  183.7450  178.4400  143.0640 N   0  0  0  0  0  2  0  0  0  0  0  0
  183.9110  179.2590  141.8780 C   0  0  2  0  0  3  0  0  0  0  0  0
  184.0780  178.3900  140.6930 C   0  0  2  0  0  3  0  0  0  0  0  0
  185.1760  179.0120  141.3170 O   0  0  0  0  0  0  0  0  0  0  0  0
  184.4070  180.2950  139.1140 O   0  0  0  0  0  1  0  0  0  0  0  0
  182.7760  178.7330  138.7220 O   0  0  0  0  0  0  0  0  0  0  0  0
  183.7200  179.1350  139.4510 C   0  0  0  0  0  0  0  0  0  0  0  0
  190.8880  177.6960  142.4430 C   0  0  0  0  0  2  0  0  0  0  0  0
  190.5240  176.1050  140.4760 N   0  0  0  0  0  2  0  0  0  0  0  0
  190.6260  176.3280  141.8870 C   0  0  0  0  0  0  0  0  0  0  0  0
  190.5980  175.3370  142.6630 O   0  0  0  0  0  0  0  0  0  0  0  0
  190.3040  177.1120  139.5200 N   0  0  0  0  0  2  0  0  0  0  0  0
  189.8020  176.8700  138.2020 C   0  0  0  0  0  0  0  0  0  0  0  0
  189.7710  175.7020  137.7320 O   0  0  0  0  0  0  0  0  0  0  0  0
  189.4160  178.0180  137.3300 C   0  0  0  0  0  2  0  0  0  0  0  0
  187.5870  179.1010  136.1410 N   0  0  0  0  0  1  0  0  0  0  0  0
  187.9770  177.8940  136.8480 C   0  0  2  0  0  3  0  0  0  0  0  0
  187.2310  178.7100  138.9630 O   0  0  0  0  0  1  0  0  0  0  0  0
  187.0500  177.6880  138.0310 C   0  0  0  0  0  2  0  0  0  0  0  0
  1  8  1  0  0  0  0
  2  8  2  0  0  0  0
  3  1  2  0  0  0  0
  4  3  1  0  0  0  0
  4  5  2  0  0  0  0
  5  2  1  0  0  0  0
  6  7  2  0  0  0  0
  7  5  1  0  0  0  0
  7 11  1  0  0  0  0
  9 10  1  0  0  0  0
  9  6  1  0  0  0  0
 10 23  1  6  0  0  0
 10  4  1  0  0  0  0
 12 11  1  0  0  0  0
 13 16  1  6  0  0  0
 13 14  1  0  0  0  0
 13 15  1  0  0  0  0
 14 15  1  0  0  0  0
 14 12  1  1  0  0  0
 17 16  1  1  0  0  0
 18 22  1  6  0  0  0
 18 19  1  0  0  0  0
 18 17  1  0  0  0  0
 19 17  1  0  0  0  0
 20 22  1  0  0  0  0
 21 22  2  0  0  0  0
 24 25  1  0  0  0  0
 25 23  1  0  0  0  0
 25 26  2  0  0  0  0
 27 24  1  0  0  0  0
 28 27  1  0  0  0  0
 29 28  2  0  0  0  0
 30 28  1  0  0  0  0
 32 31  1  1  0  0  0
 32 30  1  0  0  0  0
 32 34  1  0  0  0  0
 34 33  1  0  0  0  0
M  END
>  <MODEL>
5

>  <REMARK>
 VINA RESULT:      -7.9      2.132      7.113
  Name = 
  12 active torsions:
  status: ('A' for Active; 'I' for Inactive)
    1  A    between atoms: O_2  and  C_17
    2  A    between atoms: O_2  and  C_22
    3  A    between atoms: N_8  and  N_19
    4  A    between atoms: C_10  and  C_14
    5  A    between atoms: C_10  and  C_28
    6  A    between atoms: C_12  and  C_14
    7  A    between atoms: C_13  and  N_27
    8  A    between atoms: C_15  and  N_27
    9  A    between atoms: C_17  and  C_31
   10  A    between atoms: C_18  and  C_26
   11  A    between atoms: C_18  and  C_34
   12  A    between atoms: C_20  and  C_21
                            x       y       z     vdW  Elec       q    Type
                         _______ _______ _______ _____ _____    ______ ____

>  <TORSDO>
F 12

$$$$
=
 OpenBabel11062415413D

 34 37  0  0  1  0  0  0  0  0999 V2000
  184.9630  178.6300  146.9870 N   0  0  0  0  0  0  0  0  0  0  0  0
  186.8340  177.7970  145.7600 C   0  0  0  0  0  3  0  0  0  0  0  0
  184.2420  178.7760  145.8440 C   0  0  0  0  0  3  0  0  0  0  0  0
  184.8060  178.4590  144.6010 C   0  0  0  0  0  0  0  0  0  0  0  0
  186.1190  177.9430  144.5660 C   0  0  0  0  0  0  0  0  0  0  0  0
  186.1100  177.8820  142.1260 C   0  0  0  0  0  3  0  0  0  0  0  0
  186.7150  177.5460  143.2680 C   0  0  0  0  0  0  0  0  0  0  0  0
  186.2370  178.1540  146.9690 C   0  0  0  0  0  3  0  0  0  0  0  0
  184.9080  178.7830  142.1190 C   0  0  0  0  0  2  0  0  0  0  0  0
  183.9950  178.5170  143.3220 C   0  0  2  0  0  3  0  0  0  0  0  0
  187.9310  176.6830  143.2110 C   0  0  0  0  0  2  0  0  0  0  0  0
  188.6430  176.9510  142.0400 O   0  0  0  0  0  0  0  0  0  0  0  0
  190.7150  177.6490  142.9560 C   0  0  2  0  0  3  0  0  0  0  0  0
  189.9400  176.5170  142.3110 C   0  0  2  0  0  3  0  0  0  0  0  0
  190.9220  177.3270  141.4910 C   0  0  0  0  0  2  0  0  0  0  0  0
  191.8090  177.0920  143.7310 N   0  0  0  0  0  2  0  0  0  0  0  0
  191.6780  177.6130  145.0780 C   0  0  2  0  0  3  0  0  0  0  0  0
  190.8840  176.6730  145.9000 C   0  0  2  0  0  3  0  0  0  0  0  0
  190.3200  177.8430  145.3570 O   0  0  0  0  0  0  0  0  0  0  0  0
  192.3340  176.3670  147.9080 O   0  0  0  0  0  0  0  0  0  0  0  0
  190.3520  177.5050  148.0730 O   0  0  0  0  0  1  0  0  0  0  0  0
  191.1730  176.8840  147.3480 C   0  0  0  0  0  0  0  0  0  0  0  0
  182.9000  179.5830  143.3770 C   0  0  0  0  0  2  0  0  0  0  0  0
  181.2020  178.5370  141.7800 N   0  0  0  0  0  2  0  0  0  0  0  0
  181.5470  179.0040  143.0880 C   0  0  0  0  0  0  0  0  0  0  0  0
  180.7330  178.8270  144.0320 O   0  0  0  0  0  0  0  0  0  0  0  0
  181.8930  178.8700  140.6020 N   0  0  0  0  0  2  0  0  0  0  0  0
  182.5520  177.9160  139.7620 C   0  0  0  0  0  0  0  0  0  0  0  0
  182.7700  176.7450  140.1700 O   0  0  0  0  0  0  0  0  0  0  0  0
  183.0880  178.3380  138.4340 C   0  0  0  0  0  2  0  0  0  0  0  0
  185.4310  179.0000  138.4740 N   0  0  0  0  0  1  0  0  0  0  0  0
  184.5290  177.8850  138.2450 C   0  0  2  0  0  3  0  0  0  0  0  0
  186.0900  177.2400  136.5580 O   0  0  0  0  0  1  0  0  0  0  0  0
  184.7280  177.3640  136.8340 C   0  0  0  0  0  2  0  0  0  0  0  0
  2  8  2  0  0  0  0
  3  1  2  0  0  0  0
  4  3  1  0  0  0  0
  5  4  2  0  0  0  0
  5  2  1  0  0  0  0
  6  7  2  0  0  0  0
  7  5  1  0  0  0  0
  8  1  1  0  0  0  0
  9  6  1  0  0  0  0
  9 10  1  0  0  0  0
 10 23  1  1  0  0  0
 10  4  1  0  0  0  0
 11  7  1  0  0  0  0
 12 11  1  0  0  0  0
 13 16  1  1  0  0  0
 14 12  1  6  0  0  0
 14 13  1  0  0  0  0
 15 14  1  0  0  0  0
 15 13  1  0  0  0  0
 17 16  1  6  0  0  0
 17 19  1  0  0  0  0
 17 18  1  0  0  0  0
 18 22  1  1  0  0  0
 19 18  1  0  0  0  0
 22 20  2  0  0  0  0
 22 21  1  0  0  0  0
 24 25  1  0  0  0  0
 25 23  1  0  0  0  0
 25 26  2  0  0  0  0
 27 24  1  0  0  0  0
 28 29  2  0  0  0  0
 28 27  1  0  0  0  0
 30 28  1  0  0  0  0
 32 30  1  0  0  0  0
 32 31  1  6  0  0  0
 33 34  1  0  0  0  0
 34 32  1  0  0  0  0
M  END
>  <MODEL>
6

>  <REMARK>
 VINA RESULT:      -7.8      2.842      7.068
  Name = 
  12 active torsions:
  status: ('A' for Active; 'I' for Inactive)
    1  A    between atoms: O_2  and  C_17
    2  A    between atoms: O_2  and  C_22
    3  A    between atoms: N_8  and  N_19
    4  A    between atoms: C_10  and  C_14
    5  A    between atoms: C_10  and  C_28
    6  A    between atoms: C_12  and  C_14
    7  A    between atoms: C_13  and  N_27
    8  A    between atoms: C_15  and  N_27
    9  A    between atoms: C_17  and  C_31
   10  A    between atoms: C_18  and  C_26
   11  A    between atoms: C_18  and  C_34
   12  A    between atoms: C_20  and  C_21
                            x       y       z     vdW  Elec       q    Type
                         _______ _______ _______ _____ _____    ______ ____

>  <TORSDO>
F 12

$$$$
=
 OpenBabel11062415413D

 34 37  0  0  1  0  0  0  0  0999 V2000
  188.0260  177.5050  142.2000 N   0  0  0  0  0  0  0  0  0  0  0  0
  187.5190  178.0480  144.4690 C   0  0  0  0  0  3  0  0  0  0  0  0
  186.7700  177.8460  141.8070 C   0  0  0  0  0  3  0  0  0  0  0  0
  185.8240  178.2800  142.7470 C   0  0  0  0  0  0  0  0  0  0  0  0
  186.2160  178.3990  144.0960 C   0  0  0  0  0  0  0  0  0  0  0  0
  183.9620  179.0440  144.7730 C   0  0  0  0  0  3  0  0  0  0  0  0
  185.2500  178.9120  145.0970 C   0  0  0  0  0  0  0  0  0  0  0  0
  188.4140  177.5940  143.5000 C   0  0  0  0  0  3  0  0  0  0  0  0
  183.4370  178.5460  143.4570 C   0  0  0  0  0  2  0  0  0  0  0  0
  184.4500  178.7610  142.3250 C   0  0  2  0  0  3  0  0  0  0  0  0
  185.7070  179.3860  146.4360 C   0  0  0  0  0  2  0  0  0  0  0  0
  185.9290  178.2900  147.2720 O   0  0  0  0  0  0  0  0  0  0  0  0
  188.0330  177.2630  147.6470 C   0  0  2  0  0  3  0  0  0  0  0  0
  187.1930  178.5140  147.8160 C   0  0  2  0  0  3  0  0  0  0  0  0
  187.4070  177.5800  148.9880 C   0  0  0  0  0  2  0  0  0  0  0  0
  189.4370  177.6290  147.6710 N   0  0  0  0  0  2  0  0  0  0  0  0
  190.1820  176.4700  147.2160 C   0  0  2  0  0  3  0  0  0  0  0  0
  191.5900  176.8500  146.9670 C   0  0  2  0  0  3  0  0  0  0  0  0
  190.6630  176.7080  145.9170 O   0  0  0  0  0  0  0  0  0  0  0  0
  193.2800  175.4290  148.1310 O   0  0  0  0  0  1  0  0  0  0  0  0
  192.4960  174.8370  146.0610 O   0  0  0  0  0  0  0  0  0  0  0  0
  192.4670  175.6450  147.0250 C   0  0  0  0  0  0  0  0  0  0  0  0
  183.9550  178.0640  141.0570 C   0  0  0  0  0  2  0  0  0  0  0  0
  184.3920  179.2240  138.8220 N   0  0  0  0  0  2  0  0  0  0  0  0
  183.5840  179.0520  139.9910 C   0  0  0  0  0  0  0  0  0  0  0  0
  182.4900  179.6700  140.0710 O   0  0  0  0  0  0  0  0  0  0  0  0
  185.7250  178.7950  138.7000 N   0  0  0  0  0  2  0  0  0  0  0  0
  186.1550  177.7580  137.8100 C   0  0  0  0  0  0  0  0  0  0  0  0
  185.3180  176.9890  137.2700 O   0  0  0  0  0  0  0  0  0  0  0  0
  187.6130  177.5090  137.6080 C   0  0  0  0  0  2  0  0  0  0  0  0
  188.9520  179.5420  137.5140 N   0  0  0  0  0  1  0  0  0  0  0  0
  188.4630  178.4970  138.3960 C   0  0  2  0  0  3  0  0  0  0  0  0
  190.4500  177.2270  138.0260 O   0  0  0  0  0  1  0  0  0  0  0  0
  189.6440  177.7790  139.0220 C   0  0  0  0  0  2  0  0  0  0  0  0
  1  8  1  0  0  0  0
  3  1  2  0  0  0  0
  3  4  1  0  0  0  0
  4  5  2  0  0  0  0
  5  2  1  0  0  0  0
  5  7  1  0  0  0  0
  6  7  2  0  0  0  0
  7 11  1  0  0  0  0
  8  2  2  0  0  0  0
  9  6  1  0  0  0  0
 10 23  1  6  0  0  0
 10  4  1  0  0  0  0
 10  9  1  0  0  0  0
 11 12  1  0  0  0  0
 13 16  1  1  0  0  0
 13 14  1  0  0  0  0
 13 15  1  0  0  0  0
 14 12  1  6  0  0  0
 14 15  1  0  0  0  0
 17 16  1  1  0  0  0
 18 22  1  6  0  0  0
 18 17  1  0  0  0  0
 19 18  1  0  0  0  0
 19 17  1  0  0  0  0
 21 22  2  0  0  0  0
 22 20  1  0  0  0  0
 24 25  1  0  0  0  0
 25 26  2  0  0  0  0
 25 23  1  0  0  0  0
 27 24  1  0  0  0  0
 28 27  1  0  0  0  0
 29 28  2  0  0  0  0
 30 28  1  0  0  0  0
 30 32  1  0  0  0  0
 32 31  1  6  0  0  0
 32 34  1  0  0  0  0
 33 34  1  0  0  0  0
M  END
>  <MODEL>
7

>  <REMARK>
 VINA RESULT:      -7.7      2.327      7.524
  Name = 
  12 active torsions:
  status: ('A' for Active; 'I' for Inactive)
    1  A    between atoms: O_2  and  C_17
    2  A    between atoms: O_2  and  C_22
    3  A    between atoms: N_8  and  N_19
    4  A    between atoms: C_10  and  C_14
    5  A    between atoms: C_10  and  C_28
    6  A    between atoms: C_12  and  C_14
    7  A    between atoms: C_13  and  N_27
    8  A    between atoms: C_15  and  N_27
    9  A    between atoms: C_17  and  C_31
   10  A    between atoms: C_18  and  C_26
   11  A    between atoms: C_18  and  C_34
   12  A    between atoms: C_20  and  C_21
                            x       y       z     vdW  Elec       q    Type
                         _______ _______ _______ _____ _____    ______ ____

>  <TORSDO>
F 12

$$$$
=
 OpenBabel11062415413D

 34 37  0  0  1  0  0  0  0  0999 V2000
  184.1530  178.6660  146.3230 N   0  0  0  0  0  0  0  0  0  0  0  0
  183.9880  178.9480  143.9580 C   0  0  0  0  0  3  0  0  0  0  0  0
  185.4500  178.2730  146.2160 C   0  0  0  0  0  3  0  0  0  0  0  0
  186.0620  178.1760  144.9580 C   0  0  0  0  0  0  0  0  0  0  0  0
  185.3200  178.5400  143.8150 C   0  0  0  0  0  0  0  0  0  0  0  0
  187.1550  177.9170  142.3320 C   0  0  0  0  0  3  0  0  0  0  0  0
  185.9640  178.5020  142.4810 C   0  0  0  0  0  0  0  0  0  0  0  0
  183.4170  178.9990  145.2300 C   0  0  0  0  0  3  0  0  0  0  0  0
  187.7970  177.1640  143.4620 C   0  0  0  0  0  2  0  0  0  0  0  0
  187.5320  177.8380  144.8140 C   0  0  2  0  0  3  0  0  0  0  0  0
  185.3540  179.1990  141.3100 C   0  0  0  0  0  2  0  0  0  0  0  0
  185.8350  178.6380  140.1260 O   0  0  0  0  0  0  0  0  0  0  0  0
  183.8310  177.8540  139.1300 C   0  0  2  0  0  3  0  0  0  0  0  0
  184.8710  178.9570  139.1710 C   0  0  2  0  0  3  0  0  0  0  0  0
  184.9020  177.9260  138.0620 C   0  0  0  0  0  2  0  0  0  0  0  0
  182.5900  178.3940  138.6040 N   0  0  0  0  0  2  0  0  0  0  0  0
  181.5160  177.8370  139.4060 C   0  0  2  0  0  3  0  0  0  0  0  0
  181.2780  178.6990  140.5850 C   0  0  2  0  0  3  0  0  0  0  0  0
  182.0130  177.5010  140.6770 O   0  0  0  0  0  0  0  0  0  0  0  0
  179.6780  177.5410  142.1110 O   0  0  0  0  0  1  0  0  0  0  0  0
  178.9310  179.1270  140.6350 O   0  0  0  0  0  0  0  0  0  0  0  0
  179.9000  178.4810  141.1130 C   0  0  0  0  0  0  0  0  0  0  0  0
  188.0330  176.9350  145.9420 C   0  0  0  0  0  2  0  0  0  0  0  0
  190.4370  177.7850  146.1100 N   0  0  0  0  0  2  0  0  0  0  0  0
  189.1530  177.5730  146.7070 C   0  0  0  0  0  0  0  0  0  0  0  0
  188.9360  178.0280  147.8610 O   0  0  0  0  0  0  0  0  0  0  0  0
  190.8950  177.1420  144.9470 N   0  0  0  0  0  2  0  0  0  0  0  0
  191.2670  177.8260  143.7460 C   0  0  0  0  0  0  0  0  0  0  0  0
  190.9570  179.0340  143.5740 O   0  0  0  0  0  0  0  0  0  0  0  0
  191.9260  177.0770  142.6360 C   0  0  0  0  0  2  0  0  0  0  0  0
  190.3560  176.3790  140.9100 N   0  0  0  0  0  1  0  0  0  0  0  0
  191.3030  177.4130  141.2880 C   0  0  2  0  0  3  0  0  0  0  0  0
  192.0560  176.7060  139.1360 O   0  0  0  0  0  1  0  0  0  0  0  0
  192.3830  177.5120  140.2280 C   0  0  0  0  0  2  0  0  0  0  0  0
  2  8  1  0  0  0  0
  3  1  1  0  0  0  0
  4  3  2  0  0  0  0
  5  2  2  0  0  0  0
  5  4  1  0  0  0  0
  6  7  2  0  0  0  0
  6  9  1  0  0  0  0
  7  5  1  0  0  0  0
  8  1  2  0  0  0  0
  9 10  1  0  0  0  0
 10  4  1  0  0  0  0
 10 23  1  1  0  0  0
 11  7  1  0  0  0  0
 12 11  1  0  0  0  0
 13 16  1  6  0  0  0
 13 14  1  0  0  0  0
 14 12  1  1  0  0  0
 15 13  1  0  0  0  0
 15 14  1  0  0  0  0
 17 16  1  6  0  0  0
 17 18  1  0  0  0  0
 17 19  1  0  0  0  0
 18 19  1  0  0  0  0
 18 22  1  1  0  0  0
 21 22  2  0  0  0  0
 22 20  1  0  0  0  0
 23 25  1  0  0  0  0
 24 25  1  0  0  0  0
 25 26  2  0  0  0  0
 27 24  1  0  0  0  0
 28 27  1  0  0  0  0
 29 28  2  0  0  0  0
 30 28  1  0  0  0  0
 32 31  1  6  0  0  0
 32 30  1  0  0  0  0
 33 34  1  0  0  0  0
 34 32  1  0  0  0  0
M  END
>  <MODEL>
8

>  <REMARK>
 VINA RESULT:      -7.7      3.093      5.612
  Name = 
  12 active torsions:
  status: ('A' for Active; 'I' for Inactive)
    1  A    between atoms: O_2  and  C_17
    2  A    between atoms: O_2  and  C_22
    3  A    between atoms: N_8  and  N_19
    4  A    between atoms: C_10  and  C_14
    5  A    between atoms: C_10  and  C_28
    6  A    between atoms: C_12  and  C_14
    7  A    between atoms: C_13  and  N_27
    8  A    between atoms: C_15  and  N_27
    9  A    between atoms: C_17  and  C_31
   10  A    between atoms: C_18  and  C_26
   11  A    between atoms: C_18  and  C_34
   12  A    between atoms: C_20  and  C_21
                            x       y       z     vdW  Elec       q    Type
                         _______ _______ _______ _____ _____    ______ ____

>  <TORSDO>
F 12

$$$$
=
 OpenBabel11062415413D

 34 37  0  0  1  0  0  0  0  0999 V2000
  184.9360  178.7420  146.9830 N   0  0  0  0  0  0  0  0  0  0  0  0
  186.8130  177.9660  145.7290 C   0  0  0  0  0  3  0  0  0  0  0  0
  184.1890  178.8500  145.8530 C   0  0  0  0  0  3  0  0  0  0  0  0
  184.7420  178.5420  144.6020 C   0  0  0  0  0  0  0  0  0  0  0  0
  186.0710  178.0740  144.5470 C   0  0  0  0  0  0  0  0  0  0  0  0
  186.0200  177.9870  142.1090 C   0  0  0  0  0  3  0  0  0  0  0  0
  186.6570  177.6860  143.2420 C   0  0  0  0  0  0  0  0  0  0  0  0
  186.2260  178.3140  146.9460 C   0  0  0  0  0  3  0  0  0  0  0  0
  184.7850  178.8430  142.1160 C   0  0  0  0  0  2  0  0  0  0  0  0
  183.9050  178.5560  143.3390 C   0  0  2  0  0  3  0  0  0  0  0  0
  187.9040  176.8670  143.1700 C   0  0  0  0  0  2  0  0  0  0  0  0
  188.5680  177.1270  141.9700 O   0  0  0  0  0  0  0  0  0  0  0  0
  190.6890  177.5390  142.9470 C   0  0  2  0  0  3  0  0  0  0  0  0
  189.8360  176.5750  142.1450 C   0  0  2  0  0  3  0  0  0  0  0  0
  190.8620  177.4430  141.4460 C   0  0  0  0  0  2  0  0  0  0  0  0
  191.7500  176.7990  143.6030 N   0  0  0  0  0  2  0  0  0  0  0  0
  191.7070  177.1570  145.0090 C   0  0  2  0  0  3  0  0  0  0  0  0
  191.6440  175.9310  145.8330 C   0  0  2  0  0  3  0  0  0  0  0  0
  190.4990  176.7050  145.5660 O   0  0  0  0  0  0  0  0  0  0  0  0
  193.1400  175.4420  147.7700 O   0  0  0  0  0  0  0  0  0  0  0  0
  191.5960  177.1320  147.8950 O   0  0  0  0  0  1  0  0  0  0  0  0
  192.1260  176.2140  147.2160 C   0  0  0  0  0  0  0  0  0  0  0  0
  182.7720  179.5820  143.4040 C   0  0  0  0  0  2  0  0  0  0  0  0
  180.8900  178.7470  141.8900 N   0  0  0  0  0  2  0  0  0  0  0  0
  181.4320  178.9410  143.2010 C   0  0  0  0  0  0  0  0  0  0  0  0
  180.8130  178.4690  144.1910 O   0  0  0  0  0  0  0  0  0  0  0  0
  181.3360  179.4100  140.7330 N   0  0  0  0  0  2  0  0  0  0  0  0
  182.0490  178.7720  139.6680 C   0  0  0  0  0  0  0  0  0  0  0  0
  182.5470  177.6260  139.8250 O   0  0  0  0  0  0  0  0  0  0  0  0
  182.3060  179.5110  138.3970 C   0  0  0  0  0  2  0  0  0  0  0  0
  181.3630  178.7430  136.2870 N   0  0  0  0  0  1  0  0  0  0  0  0
  181.0820  179.5050  137.4910 C   0  0  2  0  0  3  0  0  0  0  0  0
  181.4150  181.8330  137.9050 O   0  0  0  0  0  1  0  0  0  0  0  0
  180.7160  180.9260  137.1070 C   0  0  0  0  0  2  0  0  0  0  0  0
  2  8  2  0  0  0  0
  3  1  2  0  0  0  0
  4  3  1  0  0  0  0
  5  4  2  0  0  0  0
  5  2  1  0  0  0  0
  6  9  1  0  0  0  0
  6  7  2  0  0  0  0
  7  5  1  0  0  0  0
  8  1  1  0  0  0  0
  9 10  1  0  0  0  0
 10 23  1  1  0  0  0
 10  4  1  0  0  0  0
 11  7  1  0  0  0  0
 12 11  1  0  0  0  0
 13 16  1  1  0  0  0
 14 12  1  6  0  0  0
 14 13  1  0  0  0  0
 15 14  1  0  0  0  0
 15 13  1  0  0  0  0
 17 16  1  6  0  0  0
 17 19  1  0  0  0  0
 17 18  1  0  0  0  0
 18 22  1  1  0  0  0
 19 18  1  0  0  0  0
 22 20  2  0  0  0  0
 22 21  1  0  0  0  0
 24 25  1  0  0  0  0
 25 23  1  0  0  0  0
 25 26  2  0  0  0  0
 27 24  1  0  0  0  0
 28 29  2  0  0  0  0
 28 27  1  0  0  0  0
 30 28  1  0  0  0  0
 32 31  1  6  0  0  0
 32 30  1  0  0  0  0
 34 32  1  0  0  0  0
 34 33  1  0  0  0  0
M  END
>  <MODEL>
9

>  <REMARK>
 VINA RESULT:      -7.6      3.531      7.729
  Name = 
  12 active torsions:
  status: ('A' for Active; 'I' for Inactive)
    1  A    between atoms: O_2  and  C_17
    2  A    between atoms: O_2  and  C_22
    3  A    between atoms: N_8  and  N_19
    4  A    between atoms: C_10  and  C_14
    5  A    between atoms: C_10  and  C_28
    6  A    between atoms: C_12  and  C_14
    7  A    between atoms: C_13  and  N_27
    8  A    between atoms: C_15  and  N_27
    9  A    between atoms: C_17  and  C_31
   10  A    between atoms: C_18  and  C_26
   11  A    between atoms: C_18  and  C_34
   12  A    between atoms: C_20  and  C_21
                            x       y       z     vdW  Elec       q    Type
                         _______ _______ _______ _____ _____    ______ ____

>  <TORSDO>
F 12

$$$$
