=
 OpenBabel11062415033D

 31 35  0  0  1  0  0  0  0  0999 V2000
  187.7080  178.6310  138.9050 N   0  0  0  0  0  2  0  0  0  0  0  0
  189.6280  177.2950  139.6560 C   0  0  2  0  0  3  0  0  0  0  0  0
  190.0490  177.1830  138.1960 C   0  0  0  0  0  0  0  0  0  0  0  0
  188.1870  178.4660  141.1710 F   0  0  0  0  0  0  0  0  0  0  0  0
  188.7590  178.5380  139.9140 C   0  0  2  0  0  3  0  0  0  0  0  0
  188.3250  178.7660  137.6500 N   0  0  0  0  0  2  0  0  0  0  0  0
  189.4160  177.9200  137.2740 C   0  0  0  0  0  3  0  0  0  0  0  0
  192.4970  176.7590  137.7740 C   0  0  0  0  0  2  0  0  0  0  0  0
  190.8220  174.9980  137.2130 C   0  0  2  0  0  3  0  0  0  0  0  0
  193.4940  175.6140  137.9740 C   0  0  0  0  0  2  0  0  0  0  0  0
  191.8410  173.9160  137.2150 C   0  0  1  0  0  3  0  0  0  0  0  0
  189.6540  173.4340  135.9830 C   0  0  2  0  0  3  0  0  0  0  0  0
  189.7260  174.7560  136.5800 N   0  0  0  0  0  2  0  0  0  0  0  0
  191.3570  172.7870  135.8760 S   0  0  0  0  0  0  0  0  0  0  0  0
  191.1070  176.2850  137.7940 N   0  0  0  0  0  0  0  0  0  0  0  0
  189.0430  173.5250  134.6020 C   0  0  0  0  0  1  0  0  0  0  0  0
  193.2250  174.5010  136.9670 C   0  0  0  0  0  2  0  0  0  0  0  0
  190.8310  177.3030  140.6000 C   0  0  0  0  0  2  0  0  0  0  0  0
  190.4040  177.4380  141.9840 N   0  0  0  0  0  2  0  0  0  0  0  0
  188.4250  177.1400  146.4640 O   0  0  0  0  0  0  0  0  0  0  0  0
  189.0740  176.7300  145.2930 C   0  0  1  0  0  3  0  0  0  0  0  0
  190.4540  178.8060  144.7920 C   0  0  0  0  0  1  0  0  0  0  0  0
  188.2490  177.0530  144.0530 C   0  0  0  0  0  2  0  0  0  0  0  0
  189.4410  177.1540  147.4390 C   0  0  1  0  0  3  0  0  0  0  0  0
  190.7810  177.3820  146.7560 C   0  0  0  0  0  2  0  0  0  0  0  0
  190.9950  175.5470  143.4910 C   0  0  0  0  0  2  0  0  0  0  0  0
  190.0210  176.1110  142.4490 C   0  0  1  0  0  3  0  0  0  0  0  0
  189.1800  178.2670  148.4350 C   0  0  0  0  0  1  0  0  0  0  0  0
  190.4590  177.3640  145.2890 C   0  0  1  0  0  0  0  0  0  0  0  0
  191.5160  176.5570  144.5280 C   0  0  0  0  0  2  0  0  0  0  0  0
  188.5660  176.0790  142.9190 C   0  0  0  0  0  2  0  0  0  0  0  0
  1  5  1  0  0  0  0
  2  5  1  0  0  0  0
  2 18  1  1  0  0  0
  3  2  1  0  0  0  0
  5  4  1  1  0  0  0
  6  1  1  0  0  0  0
  7  6  1  0  0  0  0
  7  3  2  0  0  0  0
  8 15  1  0  0  0  0
  8 10  1  0  0  0  0
  9 13  1  6  0  0  0
  9 11  1  0  0  0  0
  9 15  1  0  0  0  0
 11 17  1  6  0  0  0
 12 16  1  6  0  0  0
 12 13  1  0  0  0  0
 14 12  1  0  0  0  0
 14 11  1  0  0  0  0
 15  3  1  0  0  0  0
 17 10  1  0  0  0  0
 18 19  1  0  0  0  0
 20 24  1  0  0  0  0
 21 23  1  6  0  0  0
 21 20  1  0  0  0  0
 24 28  1  1  0  0  0
 25 24  1  0  0  0  0
 26 30  1  0  0  0  0
 27 19  1  1  0  0  0
 27 31  1  0  0  0  0
 27 26  1  0  0  0  0
 29 22  1  6  0  0  0
 29 21  1  0  0  0  0
 29 25  1  0  0  0  0
 30 29  1  0  0  0  0
 31 23  1  0  0  0  0
M  END
>  <MODEL>
1

>  <REMARK>
 VINA RESULT:      -8.7      0.000      0.000
  Name = 
  4 active torsions:
  status: ('A' for Active; 'I' for Inactive)
    1  A    between atoms: C_4  and  C_25
    2  A    between atoms: C_6  and  N_23
    3  A    between atoms: N_8  and  C_25
    4  A    between atoms: N_8  and  C_26
                            x       y       z     vdW  Elec       q    Type
                         _______ _______ _______ _____ _____    ______ ____

>  <TORSDO>
F 4

$$$$
=
 OpenBabel11062415033D

 31 35  0  0  1  0  0  0  0  0999 V2000
  193.0710  177.2140  139.3600 N   0  0  0  0  0  2  0  0  0  0  0  0
  190.6680  177.6960  139.5260 C   0  0  2  0  0  3  0  0  0  0  0  0
  190.5050  177.0750  138.1450 C   0  0  0  0  0  0  0  0  0  0  0  0
  192.1740  177.9370  141.3760 F   0  0  0  0  0  0  0  0  0  0  0  0
  191.9170  177.1700  140.2530 C   0  0  2  0  0  3  0  0  0  0  0  0
  192.8010  176.3750  138.2650 N   0  0  0  0  0  2  0  0  0  0  0  0
  191.5410  176.4340  137.5880 C   0  0  0  0  0  3  0  0  0  0  0  0
  188.4290  178.3870  137.5800 C   0  0  0  0  0  2  0  0  0  0  0  0
  188.6980  176.0630  136.7130 C   0  0  2  0  0  3  0  0  0  0  0  0
  187.5590  178.6450  136.3460 C   0  0  0  0  0  2  0  0  0  0  0  0
  187.6980  176.2660  135.6320 C   0  0  1  0  0  3  0  0  0  0  0  0
  188.2270  173.8490  136.2720 C   0  0  2  0  0  3  0  0  0  0  0  0
  188.9530  174.8430  137.0420 N   0  0  0  0  0  2  0  0  0  0  0  0
  186.8080  174.6880  135.4900 S   0  0  0  0  0  0  0  0  0  0  0  0
  189.2580  177.1840  137.4230 N   0  0  0  0  0  0  0  0  0  0  0  0
  187.7410  172.7450  137.1870 C   0  0  0  0  0  1  0  0  0  0  0  0
  186.7510  177.3990  136.0030 C   0  0  0  0  0  2  0  0  0  0  0  0
  189.4330  177.4780  140.4020 C   0  0  0  0  0  2  0  0  0  0  0  0
  189.7970  177.4210  141.8090 N   0  0  0  0  0  2  0  0  0  0  0  0
  188.4590  177.3630  146.5290 O   0  0  0  0  0  0  0  0  0  0  0  0
  188.8620  176.8760  145.2800 C   0  0  1  0  0  3  0  0  0  0  0  0
  190.4560  178.7250  144.5690 C   0  0  0  0  0  1  0  0  0  0  0  0
  187.9280  177.3380  144.1690 C   0  0  0  0  0  2  0  0  0  0  0  0
  189.5940  177.2100  147.3480 C   0  0  1  0  0  3  0  0  0  0  0  0
  190.8410  177.2410  146.4770 C   0  0  0  0  0  2  0  0  0  0  0  0
  190.3030  175.4410  143.2310 C   0  0  0  0  0  2  0  0  0  0  0  0
  189.2870  176.1610  142.3350 C   0  0  1  0  0  3  0  0  0  0  0  0
  189.6510  178.3360  148.3620 C   0  0  0  0  0  1  0  0  0  0  0  0
  190.3130  177.2930  145.0720 C   0  0  1  0  0  0  0  0  0  0  0  0
  191.1150  176.3460  144.1730 C   0  0  0  0  0  2  0  0  0  0  0  0
  187.9270  176.3430  143.0090 C   0  0  0  0  0  2  0  0  0  0  0  0
  1  5  1  0  0  0  0
  2  5  1  0  0  0  0
  2 18  1  1  0  0  0
  3  2  1  0  0  0  0
  5  4  1  1  0  0  0
  6  1  1  0  0  0  0
  7  3  2  0  0  0  0
  7  6  1  0  0  0  0
  9 13  1  1  0  0  0
  9 15  1  0  0  0  0
 10  8  1  0  0  0  0
 11 17  1  1  0  0  0
 11  9  1  0  0  0  0
 12 13  1  0  0  0  0
 12 16  1  1  0  0  0
 14 11  1  0  0  0  0
 14 12  1  0  0  0  0
 15  8  1  0  0  0  0
 15  3  1  0  0  0  0
 17 10  1  0  0  0  0
 18 19  1  0  0  0  0
 20 24  1  0  0  0  0
 21 23  1  6  0  0  0
 21 20  1  0  0  0  0
 24 28  1  1  0  0  0
 25 24  1  0  0  0  0
 26 30  1  0  0  0  0
 27 19  1  1  0  0  0
 27 31  1  0  0  0  0
 27 26  1  0  0  0  0
 29 22  1  6  0  0  0
 29 21  1  0  0  0  0
 29 25  1  0  0  0  0
 30 29  1  0  0  0  0
 31 23  1  0  0  0  0
M  END
>  <MODEL>
2

>  <REMARK>
 VINA RESULT:      -8.2      1.782      3.050
  Name = 
  4 active torsions:
  status: ('A' for Active; 'I' for Inactive)
    1  A    between atoms: C_4  and  C_25
    2  A    between atoms: C_6  and  N_23
    3  A    between atoms: N_8  and  C_25
    4  A    between atoms: N_8  and  C_26
                            x       y       z     vdW  Elec       q    Type
                         _______ _______ _______ _____ _____    ______ ____

>  <TORSDO>
F 4

$$$$
=
 OpenBabel11062415033D

 31 35  0  0  1  0  0  0  0  0999 V2000
  185.2270  178.8200  139.9280 N   0  0  0  0  0  2  0  0  0  0  0  0
  187.5060  177.9180  140.0880 C   0  0  2  0  0  3  0  0  0  0  0  0
  187.4800  177.7370  138.5750 C   0  0  0  0  0  0  0  0  0  0  0  0
  186.3900  178.9660  141.9320 F   0  0  0  0  0  0  0  0  0  0  0  0
  186.5300  179.0110  140.5560 C   0  0  2  0  0  3  0  0  0  0  0  0
  185.3970  178.9350  138.5370 N   0  0  0  0  0  2  0  0  0  0  0  0
  186.4670  178.2580  137.8710 C   0  0  0  0  0  3  0  0  0  0  0  0
  189.7080  177.7090  137.3970 C   0  0  0  0  0  2  0  0  0  0  0  0
  188.3420  175.6250  137.5100 C   0  0  2  0  0  3  0  0  0  0  0  0
  190.9310  176.7910  137.3190 C   0  0  0  0  0  2  0  0  0  0  0  0
  189.5110  174.7490  137.2350 C   0  0  1  0  0  3  0  0  0  0  0  0
  187.1980  173.7460  136.8160 C   0  0  2  0  0  3  0  0  0  0  0  0
  187.1770  175.1200  137.2850 N   0  0  0  0  0  2  0  0  0  0  0  0
  188.8780  173.4040  136.1900 S   0  0  0  0  0  0  0  0  0  0  0  0
  188.5210  177.0000  137.8970 N   0  0  0  0  0  0  0  0  0  0  0  0
  186.1820  173.5650  135.7090 C   0  0  0  0  0  1  0  0  0  0  0  0
  190.5970  175.5380  136.5170 C   0  0  0  0  0  2  0  0  0  0  0  0
  188.9120  178.2280  140.6040 C   0  0  0  0  0  2  0  0  0  0  0  0
  188.9700  178.1160  142.0530 N   0  0  0  0  0  2  0  0  0  0  0  0
  189.4860  176.8210  146.7580 O   0  0  0  0  0  0  0  0  0  0  0  0
  189.3960  176.6830  145.3680 C   0  0  1  0  0  3  0  0  0  0  0  0
  190.6080  178.7910  144.6260 C   0  0  0  0  0  1  0  0  0  0  0  0
  188.1140  177.3010  144.8230 C   0  0  0  0  0  2  0  0  0  0  0  0
  190.8450  176.5890  147.0450 C   0  0  1  0  0  3  0  0  0  0  0  0
  191.6780  176.9440  145.8230 C   0  0  0  0  0  2  0  0  0  0  0  0
  189.9720  175.9150  142.6440 C   0  0  0  0  0  2  0  0  0  0  0  0
  188.6940  176.7250  142.3890 C   0  0  1  0  0  3  0  0  0  0  0  0
  191.2740  177.4450  148.2210 C   0  0  0  0  0  1  0  0  0  0  0  0
  190.6650  177.2740  144.7650 C   0  0  1  0  0  0  0  0  0  0  0  0
  191.0750  176.6460  143.4280 C   0  0  0  0  0  2  0  0  0  0  0  0
  187.6830  176.6120  143.5300 C   0  0  0  0  0  2  0  0  0  0  0  0
  1  5  1  0  0  0  0
  2  5  1  0  0  0  0
  2 18  1  6  0  0  0
  3  2  1  0  0  0  0
  5  4  1  1  0  0  0
  6  1  1  0  0  0  0
  7  6  1  0  0  0  0
  7  3  2  0  0  0  0
  8 15  1  0  0  0  0
  9 13  1  6  0  0  0
  9 15  1  0  0  0  0
 10  8  1  0  0  0  0
 11 17  1  6  0  0  0
 11  9  1  0  0  0  0
 12 16  1  6  0  0  0
 12 13  1  0  0  0  0
 14 12  1  0  0  0  0
 14 11  1  0  0  0  0
 15  3  1  0  0  0  0
 17 10  1  0  0  0  0
 18 19  1  0  0  0  0
 20 24  1  0  0  0  0
 21 23  1  6  0  0  0
 21 20  1  0  0  0  0
 24 28  1  1  0  0  0
 25 24  1  0  0  0  0
 26 30  1  0  0  0  0
 27 19  1  1  0  0  0
 27 26  1  0  0  0  0
 27 31  1  0  0  0  0
 29 22  1  6  0  0  0
 29 21  1  0  0  0  0
 29 25  1  0  0  0  0
 30 29  1  0  0  0  0
 31 23  1  0  0  0  0
M  END
>  <MODEL>
3

>  <REMARK>
 VINA RESULT:      -8.1      1.746      2.191
  Name = 
  4 active torsions:
  status: ('A' for Active; 'I' for Inactive)
    1  A    between atoms: C_4  and  C_25
    2  A    between atoms: C_6  and  N_23
    3  A    between atoms: N_8  and  C_25
    4  A    between atoms: N_8  and  C_26
                            x       y       z     vdW  Elec       q    Type
                         _______ _______ _______ _____ _____    ______ ____

>  <TORSDO>
F 4

$$$$
=
 OpenBabel11062415033D

 31 35  0  0  1  0  0  0  0  0999 V2000
  183.6150  178.6330  144.6200 N   0  0  0  0  0  2  0  0  0  0  0  0
  185.1310  178.0450  142.7780 C   0  0  2  0  0  3  0  0  0  0  0  0
  184.0160  178.4260  141.8130 C   0  0  0  0  0  0  0  0  0  0  0  0
  185.8520  178.1920  145.0600 F   0  0  0  0  0  0  0  0  0  0  0  0
  184.9870  178.7530  144.1370 C   0  0  2  0  0  3  0  0  0  0  0  0
  182.7740  179.2680  143.6900 N   0  0  0  0  0  2  0  0  0  0  0  0
  182.9170  179.0290  142.2870 C   0  0  0  0  0  3  0  0  0  0  0  0
  184.9240  179.0030  139.5340 C   0  0  0  0  0  2  0  0  0  0  0  0
  183.2960  177.1280  139.7790 C   0  0  2  0  0  3  0  0  0  0  0  0
  185.4590  178.2540  138.3100 C   0  0  0  0  0  2  0  0  0  0  0  0
  183.6890  176.5130  138.4840 C   0  0  1  0  0  3  0  0  0  0  0  0
  181.4180  175.8340  139.4380 C   0  0  2  0  0  3  0  0  0  0  0  0
  182.1450  176.7930  140.2510 N   0  0  0  0  0  2  0  0  0  0  0  0
  182.1520  175.8600  137.7680 S   0  0  0  0  0  0  0  0  0  0  0  0
  184.1200  178.1310  140.4030 N   0  0  0  0  0  0  0  0  0  0  0  0
  179.9560  176.2190  139.3720 C   0  0  0  0  0  1  0  0  0  0  0  0
  184.3150  177.5630  137.5760 C   0  0  0  0  0  2  0  0  0  0  0  0
  186.5160  178.3280  142.1950 C   0  0  0  0  0  2  0  0  0  0  0  0
  187.5290  177.5050  142.8360 N   0  0  0  0  0  2  0  0  0  0  0  0
  191.5860  175.5890  144.8230 O   0  0  0  0  0  0  0  0  0  0  0  0
  190.7890  176.4260  144.0340 C   0  0  1  0  0  3  0  0  0  0  0  0
  188.8030  176.7530  145.5870 C   0  0  0  0  0  1  0  0  0  0  0  0
  189.8660  175.6260  143.1220 C   0  0  0  0  0  2  0  0  0  0  0  0
  192.0550  176.4250  145.8550 C   0  0  1  0  0  3  0  0  0  0  0  0
  191.0630  177.5590  146.0640 C   0  0  0  0  0  2  0  0  0  0  0  0
  189.6630  178.7850  142.8070 C   0  0  0  0  0  2  0  0  0  0  0  0
  188.7820  177.7310  142.1260 C   0  0  1  0  0  3  0  0  0  0  0  0
  192.1960  175.6280  147.1370 C   0  0  0  0  0  1  0  0  0  0  0  0
  190.0510  177.3750  144.9700 C   0  0  1  0  0  0  0  0  0  0  0  0
  189.7000  178.7280  144.3440 C   0  0  0  0  0  2  0  0  0  0  0  0
  189.5230  176.4190  141.8620 C   0  0  0  0  0  2  0  0  0  0  0  0
  2 18  1  6  0  0  0
  2  5  1  0  0  0  0
  3  7  2  0  0  0  0
  3  2  1  0  0  0  0
  5  1  1  0  0  0  0
  5  4  1  1  0  0  0
  6  1  1  0  0  0  0
  7  6  1  0  0  0  0
  8 15  1  0  0  0  0
  9 13  1  6  0  0  0
  9 15  1  0  0  0  0
 10  8  1  0  0  0  0
 11 17  1  6  0  0  0
 11  9  1  0  0  0  0
 12 16  1  6  0  0  0
 12 13  1  0  0  0  0
 14 11  1  0  0  0  0
 14 12  1  0  0  0  0
 15  3  1  0  0  0  0
 17 10  1  0  0  0  0
 18 19  1  0  0  0  0
 20 24  1  0  0  0  0
 21 23  1  1  0  0  0
 21 20  1  0  0  0  0
 21 29  1  0  0  0  0
 24 25  1  0  0  0  0
 24 28  1  1  0  0  0
 26 30  1  0  0  0  0
 27 26  1  0  0  0  0
 27 19  1  1  0  0  0
 29 22  1  1  0  0  0
 29 25  1  0  0  0  0
 30 29  1  0  0  0  0
 31 27  1  0  0  0  0
 31 23  1  0  0  0  0
M  END
>  <MODEL>
4

>  <REMARK>
 VINA RESULT:      -7.6      4.641      6.321
  Name = 
  4 active torsions:
  status: ('A' for Active; 'I' for Inactive)
    1  A    between atoms: C_4  and  C_25
    2  A    between atoms: C_6  and  N_23
    3  A    between atoms: N_8  and  C_25
    4  A    between atoms: N_8  and  C_26
                            x       y       z     vdW  Elec       q    Type
                         _______ _______ _______ _____ _____    ______ ____

>  <TORSDO>
F 4

$$$$
=
 OpenBabel11062415033D

 31 35  0  0  1  0  0  0  0  0999 V2000
  186.8630  178.6350  138.9170 N   0  0  0  0  0  2  0  0  0  0  0  0
  188.6810  177.1260  139.5920 C   0  0  2  0  0  3  0  0  0  0  0  0
  188.9520  176.8820  138.1130 C   0  0  0  0  0  0  0  0  0  0  0  0
  187.5250  178.5450  141.1410 F   0  0  0  0  0  0  0  0  0  0  0  0
  187.9850  178.4760  139.8370 C   0  0  2  0  0  3  0  0  0  0  0  0
  187.3750  178.6240  137.6080 N   0  0  0  0  0  2  0  0  0  0  0  0
  188.3250  177.6350  137.1990 C   0  0  0  0  0  3  0  0  0  0  0  0
  189.3470  174.4900  137.4240 C   0  0  0  0  0  2  0  0  0  0  0  0
  191.2870  176.0340  137.7030 C   0  0  2  0  0  3  0  0  0  0  0  0
  190.2130  173.7370  136.4110 C   0  0  0  0  0  2  0  0  0  0  0  0
  192.1820  175.1860  136.8730 C   0  0  1  0  0  3  0  0  0  0  0  0
  193.3100  176.8560  138.4450 C   0  0  2  0  0  3  0  0  0  0  0  0
  191.8600  176.8660  138.5040 N   0  0  0  0  0  2  0  0  0  0  0  0
  193.8170  175.2900  137.6580 S   0  0  0  0  0  0  0  0  0  0  0  0
  189.8590  175.8430  137.6850 N   0  0  0  0  0  0  0  0  0  0  0  0
  193.8830  176.9470  139.8430 C   0  0  0  0  0  1  0  0  0  0  0  0
  191.6720  173.7520  136.8520 C   0  0  0  0  0  2  0  0  0  0  0  0
  189.9580  177.0460  140.4300 C   0  0  0  0  0  2  0  0  0  0  0  0
  189.6730  177.2890  141.8360 N   0  0  0  0  0  2  0  0  0  0  0  0
  188.7590  177.2420  146.6560 O   0  0  0  0  0  0  0  0  0  0  0  0
  189.0600  176.7540  145.3790 C   0  0  1  0  0  3  0  0  0  0  0  0
  190.5470  178.6280  144.5190 C   0  0  0  0  0  1  0  0  0  0  0  0
  188.0220  177.1880  144.3520 C   0  0  0  0  0  2  0  0  0  0  0  0
  189.9650  177.1180  147.3720 C   0  0  1  0  0  3  0  0  0  0  0  0
  191.1290  177.1670  146.3940 C   0  0  0  0  0  2  0  0  0  0  0  0
  190.3430  175.3310  143.2190 C   0  0  0  0  0  2  0  0  0  0  0  0
  189.2370  176.0240  142.4120 C   0  0  1  0  0  3  0  0  0  0  0  0
  190.0890  178.2530  148.3700 C   0  0  0  0  0  1  0  0  0  0  0  0
  190.4780  177.1970  145.0410 C   0  0  1  0  0  0  0  0  0  0  0  0
  191.2160  176.2590  144.0800 C   0  0  0  0  0  2  0  0  0  0  0  0
  187.9380  176.1850  143.2030 C   0  0  0  0  0  2  0  0  0  0  0  0
  1  5  1  0  0  0  0
  2  5  1  0  0  0  0
  2 18  1  1  0  0  0
  3  2  1  0  0  0  0
  5  4  1  1  0  0  0
  6  1  1  0  0  0  0
  7  6  1  0  0  0  0
  7  3  2  0  0  0  0
  8 15  1  0  0  0  0
  9 13  1  1  0  0  0
 10 17  1  0  0  0  0
 10  8  1  0  0  0  0
 11 17  1  1  0  0  0
 11 14  1  0  0  0  0
 11  9  1  0  0  0  0
 12 13  1  0  0  0  0
 12 16  1  1  0  0  0
 14 12  1  0  0  0  0
 15  9  1  0  0  0  0
 15  3  1  0  0  0  0
 18 19  1  0  0  0  0
 20 24  1  0  0  0  0
 21 23  1  6  0  0  0
 21 20  1  0  0  0  0
 24 28  1  1  0  0  0
 25 24  1  0  0  0  0
 26 30  1  0  0  0  0
 27 19  1  1  0  0  0
 27 31  1  0  0  0  0
 27 26  1  0  0  0  0
 29 22  1  6  0  0  0
 29 21  1  0  0  0  0
 29 25  1  0  0  0  0
 30 29  1  0  0  0  0
 31 23  1  0  0  0  0
M  END
>  <MODEL>
5

>  <REMARK>
 VINA RESULT:      -7.4      1.179      2.366
  Name = 
  4 active torsions:
  status: ('A' for Active; 'I' for Inactive)
    1  A    between atoms: C_4  and  C_25
    2  A    between atoms: C_6  and  N_23
    3  A    between atoms: N_8  and  C_25
    4  A    between atoms: N_8  and  C_26
                            x       y       z     vdW  Elec       q    Type
                         _______ _______ _______ _____ _____    ______ ____

>  <TORSDO>
F 4

$$$$
=
 OpenBabel11062415033D

 31 35  0  0  1  0  0  0  0  0999 V2000
  187.3180  178.8010  138.1940 N   0  0  0  0  0  2  0  0  0  0  0  0
  187.4900  178.3870  140.6100 C   0  0  2  0  0  3  0  0  0  0  0  0
  185.9690  178.4450  140.6710 C   0  0  0  0  0  0  0  0  0  0  0  0
  189.3630  178.2130  139.1230 F   0  0  0  0  0  0  0  0  0  0  0  0
  187.9980  178.0030  139.2100 C   0  0  2  0  0  3  0  0  0  0  0  0
  185.9430  178.5140  138.2690 N   0  0  0  0  0  2  0  0  0  0  0  0
  185.2680  178.4820  139.5300 C   0  0  0  0  0  3  0  0  0  0  0  0
  185.9320  177.9420  143.1400 C   0  0  0  0  0  2  0  0  0  0  0  0
  183.8840  178.8340  142.0290 C   0  0  2  0  0  3  0  0  0  0  0  0
  185.4120  178.6050  144.4190 C   0  0  0  0  0  2  0  0  0  0  0  0
  183.2960  179.3010  143.3120 C   0  0  1  0  0  3  0  0  0  0  0  0
  181.6860  178.9960  141.3500 C   0  0  2  0  0  3  0  0  0  0  0  0
  183.0680  178.6690  141.0460 N   0  0  0  0  0  2  0  0  0  0  0  0
  181.5090  179.0000  143.1660 S   0  0  0  0  0  0  0  0  0  0  0  0
  185.2770  178.4790  141.9390 N   0  0  0  0  0  0  0  0  0  0  0  0
  180.7660  177.9620  140.7380 C   0  0  0  0  0  1  0  0  0  0  0  0
  183.8910  178.5200  144.4750 C   0  0  0  0  0  2  0  0  0  0  0  0
  188.0700  177.4260  141.6490 C   0  0  0  0  0  2  0  0  0  0  0  0
  188.8140  178.1500  142.6680 N   0  0  0  0  0  2  0  0  0  0  0  0
  191.8080  175.3300  145.3430 O   0  0  0  0  0  0  0  0  0  0  0  0
  191.4080  176.3470  144.4680 C   0  0  1  0  0  3  0  0  0  0  0  0
  189.2200  177.0440  145.5610 C   0  0  0  0  0  1  0  0  0  0  0  0
  190.5840  175.7990  143.3100 C   0  0  0  0  0  2  0  0  0  0  0  0
  192.1800  176.0070  146.5200 C   0  0  1  0  0  3  0  0  0  0  0  0
  191.4200  177.3220  146.5960 C   0  0  0  0  0  2  0  0  0  0  0  0
  191.1090  178.9360  143.2250 C   0  0  0  0  0  2  0  0  0  0  0  0
  190.2180  178.1230  142.2780 C   0  0  1  0  0  3  0  0  0  0  0  0
  191.8480  175.1540  147.7290 C   0  0  0  0  0  1  0  0  0  0  0  0
  190.6790  177.4010  145.2930 C   0  0  1  0  0  0  0  0  0  0  0  0
  190.7690  178.8190  144.7200 C   0  0  0  0  0  2  0  0  0  0  0  0
  190.7170  176.6910  142.0760 C   0  0  0  0  0  2  0  0  0  0  0  0
  1  6  1  0  0  0  0
  1  5  1  0  0  0  0
  2  3  1  0  0  0  0
  2 18  1  1  0  0  0
  3 15  1  0  0  0  0
  5  4  1  1  0  0  0
  5  2  1  0  0  0  0
  6  7  1  0  0  0  0
  7  3  2  0  0  0  0
  8 10  1  0  0  0  0
  9 13  1  1  0  0  0
  9 11  1  0  0  0  0
 10 17  1  0  0  0  0
 11 17  1  1  0  0  0
 12 16  1  6  0  0  0
 12 14  1  0  0  0  0
 13 12  1  0  0  0  0
 14 11  1  0  0  0  0
 15  9  1  0  0  0  0
 15  8  1  0  0  0  0
 18 19  1  0  0  0  0
 20 24  1  0  0  0  0
 21 23  1  6  0  0  0
 21 29  1  0  0  0  0
 21 20  1  0  0  0  0
 24 25  1  0  0  0  0
 24 28  1  1  0  0  0
 26 30  1  0  0  0  0
 27 19  1  1  0  0  0
 27 26  1  0  0  0  0
 29 22  1  1  0  0  0
 29 25  1  0  0  0  0
 30 29  1  0  0  0  0
 31 27  1  0  0  0  0
 31 23  1  0  0  0  0
M  END
>  <MODEL>
6

>  <REMARK>
 VINA RESULT:      -7.2      4.094      6.517
  Name = 
  4 active torsions:
  status: ('A' for Active; 'I' for Inactive)
    1  A    between atoms: C_4  and  C_25
    2  A    between atoms: C_6  and  N_23
    3  A    between atoms: N_8  and  C_25
    4  A    between atoms: N_8  and  C_26
                            x       y       z     vdW  Elec       q    Type
                         _______ _______ _______ _____ _____    ______ ____

>  <TORSDO>
F 4

$$$$
=
 OpenBabel11062415033D

 31 35  0  0  1  0  0  0  0  0999 V2000
  193.5850  176.1270  138.5460 N   0  0  0  0  0  2  0  0  0  0  0  0
  191.1420  176.3580  138.4450 C   0  0  2  0  0  3  0  0  0  0  0  0
  191.2180  177.1410  139.7500 C   0  0  0  0  0  0  0  0  0  0  0  0
  192.4420  175.4920  136.6280 F   0  0  0  0  0  0  0  0  0  0  0  0
  192.4620  176.4140  137.6590 C   0  0  2  0  0  3  0  0  0  0  0  0
  193.6120  177.1190  139.5420 N   0  0  0  0  0  2  0  0  0  0  0  0
  192.4160  177.5040  140.2270 C   0  0  0  0  0  3  0  0  0  0  0  0
  189.0890  178.4770  139.9380 C   0  0  0  0  0  2  0  0  0  0  0  0
  189.8120  177.0280  141.8360 C   0  0  2  0  0  3  0  0  0  0  0  0
  187.6580  178.2540  140.4360 C   0  0  0  0  0  2  0  0  0  0  0  0
  188.4470  176.9820  142.4230 C   0  0  1  0  0  3  0  0  0  0  0  0
  190.3900  176.3930  143.9770 C   0  0  2  0  0  3  0  0  0  0  0  0
  190.7900  176.7430  142.6250 N   0  0  0  0  0  2  0  0  0  0  0  0
  188.6910  177.0110  144.2240 S   0  0  0  0  0  0  0  0  0  0  0  0
  190.0210  177.4810  140.4850 N   0  0  0  0  0  0  0  0  0  0  0  0
  191.3290  177.0360  144.9740 C   0  0  0  0  0  1  0  0  0  0  0  0
  187.6370  178.1840  141.9590 C   0  0  0  0  0  2  0  0  0  0  0  0
  189.9920  176.8370  137.5560 C   0  0  0  0  0  2  0  0  0  0  0  0
  188.8900  175.8880  137.5770 N   0  0  0  0  0  2  0  0  0  0  0  0
  185.8110  172.5390  135.7380 O   0  0  0  0  0  0  0  0  0  0  0  0
  186.5360  173.7330  135.8350 C   0  0  1  0  0  3  0  0  0  0  0  0
  188.7090  172.8610  136.8270 C   0  0  0  0  0  1  0  0  0  0  0  0
  186.2830  174.4370  137.1630 C   0  0  0  0  0  2  0  0  0  0  0  0
  186.4380  171.8330  134.6950 C   0  0  1  0  0  3  0  0  0  0  0  0
  187.8890  172.2800  134.5960 C   0  0  0  0  0  2  0  0  0  0  0  0
  188.2390  175.9690  135.1760 C   0  0  0  0  0  2  0  0  0  0  0  0
  187.8980  176.3590  136.6190 C   0  0  1  0  0  3  0  0  0  0  0  0
  186.3810  170.3440  134.9760 C   0  0  0  0  0  1  0  0  0  0  0  0
  188.0020  173.4010  135.5880 C   0  0  1  0  0  0  0  0  0  0  0  0
  188.8140  174.5540  134.9890 C   0  0  0  0  0  2  0  0  0  0  0  0
  186.4830  175.9450  137.0260 C   0  0  0  0  0  2  0  0  0  0  0  0
  1  6  1  0  0  0  0
  2 18  1  6  0  0  0
  2  3  1  0  0  0  0
  3  7  2  0  0  0  0
  3 15  1  0  0  0  0
  5  4  1  6  0  0  0
  5  2  1  0  0  0  0
  5  1  1  0  0  0  0
  6  7  1  0  0  0  0
  8 10  1  0  0  0  0
  8 15  1  0  0  0  0
  9 11  1  0  0  0  0
  9 13  1  1  0  0  0
 10 17  1  0  0  0  0
 11 17  1  6  0  0  0
 11 14  1  0  0  0  0
 12 14  1  0  0  0  0
 12 16  1  1  0  0  0
 13 12  1  0  0  0  0
 15  9  1  0  0  0  0
 18 19  1  0  0  0  0
 20 21  1  0  0  0  0
 21 23  1  1  0  0  0
 24 28  1  1  0  0  0
 24 20  1  0  0  0  0
 25 24  1  0  0  0  0
 25 29  1  0  0  0  0
 26 27  1  0  0  0  0
 27 31  1  0  0  0  0
 27 19  1  1  0  0  0
 29 21  1  0  0  0  0
 29 22  1  1  0  0  0
 30 26  1  0  0  0  0
 30 29  1  0  0  0  0
 31 23  1  0  0  0  0
M  END
>  <MODEL>
7

>  <REMARK>
 VINA RESULT:      -7.1      3.625      8.378
  Name = 
  4 active torsions:
  status: ('A' for Active; 'I' for Inactive)
    1  A    between atoms: C_4  and  C_25
    2  A    between atoms: C_6  and  N_23
    3  A    between atoms: N_8  and  C_25
    4  A    between atoms: N_8  and  C_26
                            x       y       z     vdW  Elec       q    Type
                         _______ _______ _______ _____ _____    ______ ____

>  <TORSDO>
F 4

$$$$
=
 OpenBabel11062415033D

 31 35  0  0  1  0  0  0  0  0999 V2000
  187.0980  178.0470  139.0020 N   0  0  0  0  0  2  0  0  0  0  0  0
  185.2620  178.2920  140.6150 C   0  0  2  0  0  3  0  0  0  0  0  0
  186.3130  178.5630  141.6850 C   0  0  0  0  0  0  0  0  0  0  0  0
  184.9030  178.1290  138.2510 F   0  0  0  0  0  0  0  0  0  0  0  0
  185.7740  178.6270  139.2040 C   0  0  2  0  0  3  0  0  0  0  0  0
  187.9690  178.6220  139.9440 N   0  0  0  0  0  2  0  0  0  0  0  0
  187.5900  178.7370  141.3190 C   0  0  0  0  0  3  0  0  0  0  0  0
  184.8720  179.5090  143.5230 C   0  0  0  0  0  2  0  0  0  0  0  0
  186.7580  177.9790  144.0930 C   0  0  2  0  0  3  0  0  0  0  0  0
  184.1990  179.0030  144.8020 C   0  0  0  0  0  2  0  0  0  0  0  0
  186.1890  177.6460  145.4250 C   0  0  1  0  0  3  0  0  0  0  0  0
  188.6830  177.1950  145.0940 C   0  0  2  0  0  3  0  0  0  0  0  0
  188.0190  177.7630  143.9340 N   0  0  0  0  0  2  0  0  0  0  0  0
  187.6150  177.5000  146.5420 S   0  0  0  0  0  0  0  0  0  0  0  0
  185.9540  178.6170  143.0830 N   0  0  0  0  0  0  0  0  0  0  0  0
  190.0300  177.8570  145.2900 C   0  0  0  0  0  1  0  0  0  0  0  0
  185.2450  178.7500  145.8820 C   0  0  0  0  0  2  0  0  0  0  0  0
  183.9610  179.0500  140.8850 C   0  0  0  0  0  2  0  0  0  0  0  0
  182.8270  178.1410  140.9150 N   0  0  0  0  0  2  0  0  0  0  0  0
  178.9310  175.7030  139.1970 O   0  0  0  0  0  0  0  0  0  0  0  0
  179.7850  176.7800  139.4600 C   0  0  1  0  0  3  0  0  0  0  0  0
  182.0420  175.6330  139.2270 C   0  0  0  0  0  1  0  0  0  0  0  0
  180.0760  176.9150  140.9500 C   0  0  0  0  0  2  0  0  0  0  0  0
  179.0840  175.4640  137.8180 C   0  0  1  0  0  3  0  0  0  0  0  0
  180.4620  175.9400  137.3830 C   0  0  0  0  0  2  0  0  0  0  0  0
  181.4280  179.1280  139.1070 C   0  0  0  0  0  2  0  0  0  0  0  0
  181.6360  178.9270  140.6140 C   0  0  1  0  0  3  0  0  0  0  0  0
  178.9450  173.9800  137.5360 C   0  0  0  0  0  1  0  0  0  0  0  0
  181.0330  176.5950  138.6070 C   0  0  1  0  0  0  0  0  0  0  0  0
  181.7330  177.9040  138.2260 C   0  0  0  0  0  2  0  0  0  0  0  0
  180.3990  178.3630  141.3130 C   0  0  0  0  0  2  0  0  0  0  0  0
  1  5  1  0  0  0  0
  1  6  1  0  0  0  0
  2 18  1  1  0  0  0
  2  3  1  0  0  0  0
  3 15  1  0  0  0  0
  5  4  1  6  0  0  0
  5  2  1  0  0  0  0
  6  7  1  0  0  0  0
  7  3  2  0  0  0  0
  8 10  1  0  0  0  0
  9 13  1  1  0  0  0
  9 11  1  0  0  0  0
 10 17  1  0  0  0  0
 11 17  1  1  0  0  0
 11 14  1  0  0  0  0
 12 16  1  1  0  0  0
 12 14  1  0  0  0  0
 13 12  1  0  0  0  0
 15  8  1  0  0  0  0
 15  9  1  0  0  0  0
 18 19  1  0  0  0  0
 20 21  1  0  0  0  0
 21 23  1  1  0  0  0
 23 31  1  0  0  0  0
 24 28  1  1  0  0  0
 24 20  1  0  0  0  0
 25 24  1  0  0  0  0
 25 29  1  0  0  0  0
 26 27  1  0  0  0  0
 27 19  1  6  0  0  0
 27 31  1  0  0  0  0
 29 22  1  1  0  0  0
 29 21  1  0  0  0  0
 30 29  1  0  0  0  0
 30 26  1  0  0  0  0
M  END
>  <MODEL>
8

>  <REMARK>
 VINA RESULT:      -7.0      6.493      9.768
  Name = 
  4 active torsions:
  status: ('A' for Active; 'I' for Inactive)
    1  A    between atoms: C_4  and  C_25
    2  A    between atoms: C_6  and  N_23
    3  A    between atoms: N_8  and  C_25
    4  A    between atoms: N_8  and  C_26
                            x       y       z     vdW  Elec       q    Type
                         _______ _______ _______ _____ _____    ______ ____

>  <TORSDO>
F 4

$$$$
=
 OpenBabel11062415033D

 31 35  0  0  1  0  0  0  0  0999 V2000
  185.0170  179.0950  142.4190 N   0  0  0  0  0  2  0  0  0  0  0  0
  187.2740  178.4200  141.7250 C   0  0  2  0  0  3  0  0  0  0  0  0
  187.4480  177.7890  143.1010 C   0  0  0  0  0  0  0  0  0  0  0  0
  185.6640  179.3310  140.2020 F   0  0  0  0  0  0  0  0  0  0  0  0
  185.7940  178.5280  141.3210 C   0  0  2  0  0  3  0  0  0  0  0  0
  185.1200  178.2220  143.5160 N   0  0  0  0  0  2  0  0  0  0  0  0
  186.3890  177.6940  143.9160 C   0  0  0  0  0  3  0  0  0  0  0  0
  189.4980  176.3800  142.6960 C   0  0  0  0  0  2  0  0  0  0  0  0
  189.2140  177.5520  144.8800 C   0  0  2  0  0  3  0  0  0  0  0  0
  191.0050  176.4850  142.9420 C   0  0  0  0  0  2  0  0  0  0  0  0
  190.6630  177.4720  145.2010 C   0  0  1  0  0  3  0  0  0  0  0  0
  189.0720  177.8790  147.1590 C   0  0  2  0  0  3  0  0  0  0  0  0
  188.4140  177.7450  145.8710 N   0  0  0  0  0  2  0  0  0  0  0  0
  190.7500  177.1830  146.9930 S   0  0  0  0  0  0  0  0  0  0  0  0
  188.7370  177.3100  143.5420 N   0  0  0  0  0  0  0  0  0  0  0  0
  188.2950  177.1230  148.2150 C   0  0  0  0  0  1  0  0  0  0  0  0
  191.3070  176.3290  144.4280 C   0  0  0  0  0  2  0  0  0  0  0  0
  188.0490  177.6620  140.6450 C   0  0  0  0  0  2  0  0  0  0  0  0
  187.8340  178.2590  139.3360 N   0  0  0  0  0  2  0  0  0  0  0  0
  189.6110  176.3070  135.2010 O   0  0  0  0  0  0  0  0  0  0  0  0
  189.6030  176.9740  136.4310 C   0  0  1  0  0  3  0  0  0  0  0  0
  187.8420  175.6190  137.6670 C   0  0  0  0  0  1  0  0  0  0  0  0
  188.6190  178.1380  136.4310 C   0  0  0  0  0  2  0  0  0  0  0  0
  190.2230  175.0690  135.4790 C   0  0  1  0  0  3  0  0  0  0  0  0
  190.0030  174.7260  136.9440 C   0  0  0  0  0  2  0  0  0  0  0  0
  190.2640  177.7640  139.1290 C   0  0  0  0  0  2  0  0  0  0  0  0
  189.1230  178.7560  138.8730 C   0  0  1  0  0  3  0  0  0  0  0  0
  189.6160  173.9890  134.6050 C   0  0  0  0  0  1  0  0  0  0  0  0
  189.3260  175.9390  137.5140 C   0  0  1  0  0  0  0  0  0  0  0  0
  189.9250  176.2840  138.8810 C   0  0  0  0  0  2  0  0  0  0  0  0
  189.0560  179.2200  137.4170 C   0  0  0  0  0  2  0  0  0  0  0  0
  1  6  1  0  0  0  0
  2 18  1  6  0  0  0
  2  3  1  0  0  0  0
  3 15  1  0  0  0  0
  3  7  2  0  0  0  0
  5  4  1  6  0  0  0
  5  2  1  0  0  0  0
  5  1  1  0  0  0  0
  6  7  1  0  0  0  0
  8 10  1  0  0  0  0
  8 15  1  0  0  0  0
  9 11  1  0  0  0  0
  9 13  1  1  0  0  0
 10 17  1  0  0  0  0
 11 17  1  6  0  0  0
 11 14  1  0  0  0  0
 12 16  1  1  0  0  0
 13 12  1  0  0  0  0
 14 12  1  0  0  0  0
 15  9  1  0  0  0  0
 19 18  1  0  0  0  0
 20 24  1  0  0  0  0
 20 21  1  0  0  0  0
 21 23  1  6  0  0  0
 21 29  1  0  0  0  0
 23 31  1  0  0  0  0
 24 28  1  6  0  0  0
 24 25  1  0  0  0  0
 25 29  1  0  0  0  0
 27 26  1  0  0  0  0
 27 19  1  6  0  0  0
 29 22  1  1  0  0  0
 29 30  1  0  0  0  0
 30 26  1  0  0  0  0
 31 27  1  0  0  0  0
M  END
>  <MODEL>
9

>  <REMARK>
 VINA RESULT:      -7.0      3.616      8.189
  Name = 
  4 active torsions:
  status: ('A' for Active; 'I' for Inactive)
    1  A    between atoms: C_4  and  C_25
    2  A    between atoms: C_6  and  N_23
    3  A    between atoms: N_8  and  C_25
    4  A    between atoms: N_8  and  C_26
                            x       y       z     vdW  Elec       q    Type
                         _______ _______ _______ _____ _____    ______ ____

>  <TORSDO>
F 4

$$$$
