=
 OpenBabel11062413313D

 28 31  0  0  1  0  0  0  0  0999 V2000
  185.3220  178.4260  144.9230 C   0  0  0  0  0  0  0  0  0  0  0  0
  186.5700  178.0900  144.3910 C   0  0  0  0  0  3  0  0  0  0  0  0
  186.1830  178.0770  147.1550 C   0  0  0  0  0  3  0  0  0  0  0  0
  187.4400  177.7310  146.6320 C   0  0  0  0  0  0  0  0  0  0  0  0
  185.1310  178.4230  146.3060 C   0  0  0  0  0  3  0  0  0  0  0  0
  187.6310  177.7360  145.2320 C   0  0  0  0  0  0  0  0  0  0  0  0
  188.9850  178.2510  148.4970 C   0  0  0  0  0  1  0  0  0  0  0  0
  188.5010  177.3870  147.4800 O   0  0  0  0  0  0  0  0  0  0  0  0
  188.9510  177.3980  144.5910 C   0  0  1  0  0  3  0  0  0  0  0  0
  189.7490  175.7240  142.8560 C   0  0  0  0  0  2  0  0  0  0  0  0
  188.3720  175.5860  143.0870 O   0  0  0  0  0  0  0  0  0  0  0  0
  188.8850  176.9000  143.1320 C   0  0  1  0  0  3  0  0  0  0  0  0
  190.0620  178.4030  144.8990 C   0  0  0  0  0  2  0  0  0  0  0  0
  191.5530  176.7330  146.0080 C   0  0  0  0  0  1  0  0  0  0  0  0
  191.4260  177.7330  144.8750 C   0  0  0  0  0  2  0  0  0  0  0  0
  184.2070  178.8170  144.0180 C   0  0  0  0  0  2  0  0  0  0  0  0
  184.7600  179.3640  142.7130 C   0  0  0  0  0  2  0  0  0  0  0  0
  184.2190  178.6080  141.5970 N   0  0  0  0  0  2  0  0  0  0  0  0
  184.6710  179.8270  139.6640 O   0  0  0  0  0  0  0  0  0  0  0  0
  184.4220  178.5190  139.2090 C   0  0  2  0  0  3  0  0  0  0  0  0
  185.1330  178.7810  140.4820 C   0  0  2  0  0  3  0  0  0  0  0  0
  186.6020  178.7880  138.0690 N   0  0  0  0  0  0  0  0  0  0  0  0
  187.2370  177.4900  136.1680 C   0  0  0  0  0  3  0  0  0  0  0  0
  186.0070  176.8310  136.2170 C   0  0  0  0  0  3  0  0  0  0  0  0
  187.5200  178.4770  137.1140 C   0  0  0  0  0  0  0  0  0  0  0  0
  188.7700  179.1530  137.0830 N   0  0  0  0  0  1  0  0  0  0  0  0
  185.3900  178.1670  138.1270 C   0  0  0  0  0  0  0  0  0  0  0  0
  185.0780  177.1660  137.2020 C   0  0  0  0  0  3  0  0  0  0  0  0
  1  5  1  0  0  0  0
  2  1  2  0  0  0  0
  2  6  1  0  0  0  0
  4  3  1  0  0  0  0
  4  8  1  0  0  0  0
  5  3  2  0  0  0  0
  6  4  2  0  0  0  0
  8  7  1  0  0  0  0
  9 13  1  6  0  0  0
  9  6  1  0  0  0  0
 10 11  1  0  0  0  0
 10 12  1  0  0  0  0
 11 12  1  0  0  0  0
 12  9  1  1  0  0  0
 15 13  1  0  0  0  0
 15 14  1  0  0  0  0
 16  1  1  0  0  0  0
 17 16  1  0  0  0  0
 18 17  1  0  0  0  0
 19 21  1  0  0  0  0
 20 27  1  6  0  0  0
 20 19  1  0  0  0  0
 20 21  1  0  0  0  0
 21 18  1  1  0  0  0
 22 27  1  0  0  0  0
 23 24  2  0  0  0  0
 23 25  1  0  0  0  0
 24 28  1  0  0  0  0
 25 22  2  0  0  0  0
 26 25  1  0  0  0  0
 28 27  2  0  0  0  0
M  END
>  <MODEL>
1

>  <REMARK>
 VINA RESULT:      -8.3      0.000      0.000
  Name = 
  10 active torsions:
  status: ('A' for Active; 'I' for Inactive)
    1  A    between atoms: C_1  and  C_18
    2  A    between atoms: C_1  and  N_23
    3  A    between atoms: C_4  and  C_18
    4  A    between atoms: C_8  and  C_20
    5  A    between atoms: C_10  and  C_16
    6  A    between atoms: C_11  and  C_16
    7  A    between atoms: C_11  and  C_25
    8  A    between atoms: C_11  and  C_28
    9  A    between atoms: C_21  and  O_26
   10  A    between atoms: N_23  and  C_24
                            x       y       z     vdW  Elec       q    Type
                         _______ _______ _______ _____ _____    ______ ____

>  <TORSDO>
F 10

$$$$
=
 OpenBabel11062413313D

 28 31  0  0  1  0  0  0  0  0999 V2000
  190.4660  177.8670  144.3910 C   0  0  0  0  0  0  0  0  0  0  0  0
  189.0770  177.9190  144.2600 C   0  0  0  0  0  3  0  0  0  0  0  0
  190.2210  177.1810  146.6960 C   0  0  0  0  0  3  0  0  0  0  0  0
  188.8220  177.2360  146.5790 C   0  0  0  0  0  0  0  0  0  0  0  0
  191.0380  177.4940  145.6090 C   0  0  0  0  0  3  0  0  0  0  0  0
  188.2470  177.6130  145.3450 C   0  0  0  0  0  0  0  0  0  0  0  0
  187.9870  177.6710  148.8700 C   0  0  0  0  0  1  0  0  0  0  0  0
  187.9970  176.9190  147.6650 O   0  0  0  0  0  0  0  0  0  0  0  0
  186.7580  177.6780  145.1290 C   0  0  1  0  0  3  0  0  0  0  0  0
  184.6070  178.7680  145.9260 C   0  0  0  0  0  2  0  0  0  0  0  0
  185.5610  178.7350  146.9530 O   0  0  0  0  0  0  0  0  0  0  0  0
  186.0550  178.9490  145.6490 C   0  0  1  0  0  3  0  0  0  0  0  0
  186.3130  177.1920  143.7490 C   0  0  0  0  0  2  0  0  0  0  0  0
  184.5930  178.1320  142.1980 C   0  0  0  0  0  1  0  0  0  0  0  0
  185.9430  178.3620  142.8520 C   0  0  0  0  0  2  0  0  0  0  0  0
  191.3380  178.1790  143.2240 C   0  0  0  0  0  2  0  0  0  0  0  0
  191.3880  176.9920  142.2780 C   0  0  0  0  0  2  0  0  0  0  0  0
  191.3400  177.4580  140.9030 N   0  0  0  0  0  2  0  0  0  0  0  0
  190.5390  176.0410  139.2370 O   0  0  0  0  0  0  0  0  0  0  0  0
  190.0530  177.3150  138.8860 C   0  0  2  0  0  3  0  0  0  0  0  0
  190.1540  176.8790  140.2980 C   0  0  2  0  0  3  0  0  0  0  0  0
  187.7240  178.1430  138.7500 N   0  0  0  0  0  0  0  0  0  0  0  0
  186.0360  177.0510  137.4610 C   0  0  0  0  0  3  0  0  0  0  0  0
  186.9650  176.0820  137.0780 C   0  0  0  0  0  3  0  0  0  0  0  0
  186.4390  178.0860  138.3070 C   0  0  0  0  0  0  0  0  0  0  0  0
  185.5070  179.0850  138.7010 N   0  0  0  0  0  1  0  0  0  0  0  0
  188.6440  177.2010  138.4000 C   0  0  0  0  0  0  0  0  0  0  0  0
  188.2780  176.1560  137.5450 C   0  0  0  0  0  3  0  0  0  0  0  0
  1  5  1  0  0  0  0
  2  1  2  0  0  0  0
  2  6  1  0  0  0  0
  4  3  1  0  0  0  0
  4  8  1  0  0  0  0
  5  3  2  0  0  0  0
  6  4  2  0  0  0  0
  8  7  1  0  0  0  0
  9 13  1  6  0  0  0
  9  6  1  0  0  0  0
 10 11  1  0  0  0  0
 12  9  1  6  0  0  0
 12 10  1  0  0  0  0
 12 11  1  0  0  0  0
 14 15  1  0  0  0  0
 15 13  1  0  0  0  0
 16  1  1  0  0  0  0
 17 16  1  0  0  0  0
 18 17  1  0  0  0  0
 19 21  1  0  0  0  0
 20 27  1  6  0  0  0
 20 19  1  0  0  0  0
 20 21  1  0  0  0  0
 21 18  1  1  0  0  0
 23 25  1  0  0  0  0
 24 23  2  0  0  0  0
 24 28  1  0  0  0  0
 25 26  1  0  0  0  0
 25 22  2  0  0  0  0
 27 22  1  0  0  0  0
 28 27  2  0  0  0  0
M  END
>  <MODEL>
2

>  <REMARK>
 VINA RESULT:      -7.7      2.149      4.710
  Name = 
  10 active torsions:
  status: ('A' for Active; 'I' for Inactive)
    1  A    between atoms: C_1  and  C_18
    2  A    between atoms: C_1  and  N_23
    3  A    between atoms: C_4  and  C_18
    4  A    between atoms: C_8  and  C_20
    5  A    between atoms: C_10  and  C_16
    6  A    between atoms: C_11  and  C_16
    7  A    between atoms: C_11  and  C_25
    8  A    between atoms: C_11  and  C_28
    9  A    between atoms: C_21  and  O_26
   10  A    between atoms: N_23  and  C_24
                            x       y       z     vdW  Elec       q    Type
                         _______ _______ _______ _____ _____    ______ ____

>  <TORSDO>
F 10

$$$$
=
 OpenBabel11062413313D

 28 31  0  0  1  0  0  0  0  0999 V2000
  184.1800  178.6270  144.0290 C   0  0  0  0  0  0  0  0  0  0  0  0
  184.2900  178.3510  142.6640 C   0  0  0  0  0  3  0  0  0  0  0  0
  181.8130  179.0350  143.7510 C   0  0  0  0  0  3  0  0  0  0  0  0
  181.9130  178.7660  142.3760 C   0  0  0  0  0  0  0  0  0  0  0  0
  182.9400  178.9660  144.5730 C   0  0  0  0  0  3  0  0  0  0  0  0
  183.1690  178.4230  141.8290 C   0  0  0  0  0  0  0  0  0  0  0  0
  180.2280  180.0570  141.0980 C   0  0  0  0  0  1  0  0  0  0  0  0
  180.7850  178.8300  141.5490 O   0  0  0  0  0  0  0  0  0  0  0  0
  183.3590  178.1010  140.3700 C   0  0  1  0  0  3  0  0  0  0  0  0
  184.5210  179.1490  138.3700 C   0  0  0  0  0  2  0  0  0  0  0  0
  184.6210  179.9780  139.4980 O   0  0  0  0  0  0  0  0  0  0  0  0
  184.6780  178.5890  139.7370 C   0  0  1  0  0  3  0  0  0  0  0  0
  182.9250  176.6840  139.9900 C   0  0  0  0  0  2  0  0  0  0  0  0
  180.5690  176.0000  139.5170 C   0  0  0  0  0  1  0  0  0  0  0  0
  181.7940  176.7130  138.9760 C   0  0  0  0  0  2  0  0  0  0  0  0
  185.3780  178.5320  144.9080 C   0  0  0  0  0  2  0  0  0  0  0  0
  184.9500  178.4200  146.3620 C   0  0  0  0  0  2  0  0  0  0  0  0
  186.0770  178.7170  147.2280 N   0  0  0  0  0  2  0  0  0  0  0  0
  187.6350  177.2030  148.0710 O   0  0  0  0  0  0  0  0  0  0  0  0
  188.4090  178.2280  147.4950 C   0  0  2  0  0  3  0  0  0  0  0  0
  187.1330  177.7790  146.8900 C   0  0  2  0  0  3  0  0  0  0  0  0
  190.5200  176.9360  147.4550 N   0  0  0  0  0  0  0  0  0  0  0  0
  191.7120  176.4660  145.4400 C   0  0  0  0  0  3  0  0  0  0  0  0
  190.7460  177.1650  144.7150 C   0  0  0  0  0  3  0  0  0  0  0  0
  191.5800  176.3590  146.8260 C   0  0  0  0  0  0  0  0  0  0  0  0
  192.5500  175.6450  147.5790 N   0  0  0  0  0  1  0  0  0  0  0  0
  189.5730  177.6340  146.7690 C   0  0  0  0  0  0  0  0  0  0  0  0
  189.6680  177.7510  145.3780 C   0  0  0  0  0  3  0  0  0  0  0  0
  1  5  1  0  0  0  0
  1 16  1  0  0  0  0
  2  1  2  0  0  0  0
  3  5  2  0  0  0  0
  4  3  1  0  0  0  0
  6  4  2  0  0  0  0
  6  2  1  0  0  0  0
  7  8  1  0  0  0  0
  8  4  1  0  0  0  0
  9 13  1  1  0  0  0
  9  6  1  0  0  0  0
 10 11  1  0  0  0  0
 10 12  1  0  0  0  0
 11 12  1  0  0  0  0
 12  9  1  1  0  0  0
 15 14  1  0  0  0  0
 15 13  1  0  0  0  0
 16 17  1  0  0  0  0
 17 18  1  0  0  0  0
 20 27  1  6  0  0  0
 20 19  1  0  0  0  0
 21 18  1  1  0  0  0
 21 20  1  0  0  0  0
 21 19  1  0  0  0  0
 23 25  2  0  0  0  0
 24 28  2  0  0  0  0
 24 23  1  0  0  0  0
 25 22  1  0  0  0  0
 25 26  1  0  0  0  0
 27 22  2  0  0  0  0
 28 27  1  0  0  0  0
M  END
>  <MODEL>
3

>  <REMARK>
 VINA RESULT:      -7.7      3.492      8.303
  Name = 
  10 active torsions:
  status: ('A' for Active; 'I' for Inactive)
    1  A    between atoms: C_1  and  C_18
    2  A    between atoms: C_1  and  N_23
    3  A    between atoms: C_4  and  C_18
    4  A    between atoms: C_8  and  C_20
    5  A    between atoms: C_10  and  C_16
    6  A    between atoms: C_11  and  C_16
    7  A    between atoms: C_11  and  C_25
    8  A    between atoms: C_11  and  C_28
    9  A    between atoms: C_21  and  O_26
   10  A    between atoms: N_23  and  C_24
                            x       y       z     vdW  Elec       q    Type
                         _______ _______ _______ _____ _____    ______ ____

>  <TORSDO>
F 10

$$$$
=
 OpenBabel11062413313D

 28 31  0  0  1  0  0  0  0  0999 V2000
  190.0870  177.5710  143.2330 C   0  0  0  0  0  0  0  0  0  0  0  0
  189.0840  177.6490  144.2020 C   0  0  0  0  0  3  0  0  0  0  0  0
  191.6180  176.7050  144.8920 C   0  0  0  0  0  3  0  0  0  0  0  0
  190.6190  176.7850  145.8770 C   0  0  0  0  0  0  0  0  0  0  0  0
  191.3530  177.0950  143.5780 C   0  0  0  0  0  3  0  0  0  0  0  0
  189.3380  177.2660  145.5240 C   0  0  0  0  0  0  0  0  0  0  0  0
  192.1120  175.8170  147.6000 C   0  0  0  0  0  1  0  0  0  0  0  0
  190.8780  176.3910  147.1960 O   0  0  0  0  0  0  0  0  0  0  0  0
  188.2070  177.3640  146.5130 C   0  0  1  0  0  3  0  0  0  0  0  0
  188.0570  178.0940  148.9410 C   0  0  0  0  0  2  0  0  0  0  0  0
  189.3570  178.2720  148.4440 O   0  0  0  0  0  0  0  0  0  0  0  0
  188.3040  178.5140  147.5370 C   0  0  1  0  0  3  0  0  0  0  0  0
  186.8260  177.1430  145.8940 C   0  0  0  0  0  2  0  0  0  0  0  0
  185.2690  178.7390  144.7650 C   0  0  0  0  0  1  0  0  0  0  0  0
  185.9450  178.3680  146.0720 C   0  0  0  0  0  2  0  0  0  0  0  0
  189.7980  177.9660  141.8270 C   0  0  0  0  0  2  0  0  0  0  0  0
  190.7450  177.2500  140.8790 C   0  0  0  0  0  2  0  0  0  0  0  0
  190.4020  177.5750  139.5050 N   0  0  0  0  0  2  0  0  0  0  0  0
  188.9630  176.3340  138.1580 O   0  0  0  0  0  0  0  0  0  0  0  0
  188.5420  177.6680  137.9950 C   0  0  2  0  0  3  0  0  0  0  0  0
  189.0280  177.1550  139.2980 C   0  0  2  0  0  3  0  0  0  0  0  0
  186.3950  178.6620  138.7240 N   0  0  0  0  0  0  0  0  0  0  0  0
  184.2790  177.9040  137.9160 C   0  0  0  0  0  3  0  0  0  0  0  0
  184.9280  176.9480  137.1330 C   0  0  0  0  0  3  0  0  0  0  0  0
  185.0380  178.7630  138.7140 C   0  0  0  0  0  0  0  0  0  0  0  0
  184.3930  179.7460  139.5120 N   0  0  0  0  0  1  0  0  0  0  0  0
  187.0490  177.7270  137.9780 C   0  0  0  0  0  0  0  0  0  0  0  0
  186.3210  176.8580  137.1580 C   0  0  0  0  0  3  0  0  0  0  0  0
  1  5  2  0  0  0  0
  1  2  1  0  0  0  0
  2  6  2  0  0  0  0
  3  4  2  0  0  0  0
  4  8  1  0  0  0  0
  5  3  1  0  0  0  0
  6  4  1  0  0  0  0
  6  9  1  0  0  0  0
  8  7  1  0  0  0  0
  9 13  1  6  0  0  0
 11 10  1  0  0  0  0
 12  9  1  6  0  0  0
 12 11  1  0  0  0  0
 12 10  1  0  0  0  0
 13 15  1  0  0  0  0
 14 15  1  0  0  0  0
 16  1  1  0  0  0  0
 17 16  1  0  0  0  0
 18 17  1  0  0  0  0
 19 21  1  0  0  0  0
 20 27  1  1  0  0  0
 20 19  1  0  0  0  0
 20 21  1  0  0  0  0
 21 18  1  6  0  0  0
 23 25  2  0  0  0  0
 24 28  2  0  0  0  0
 24 23  1  0  0  0  0
 25 22  1  0  0  0  0
 25 26  1  0  0  0  0
 27 22  2  0  0  0  0
 28 27  1  0  0  0  0
M  END
>  <MODEL>
4

>  <REMARK>
 VINA RESULT:      -7.6      1.956      4.641
  Name = 
  10 active torsions:
  status: ('A' for Active; 'I' for Inactive)
    1  A    between atoms: C_1  and  C_18
    2  A    between atoms: C_1  and  N_23
    3  A    between atoms: C_4  and  C_18
    4  A    between atoms: C_8  and  C_20
    5  A    between atoms: C_10  and  C_16
    6  A    between atoms: C_11  and  C_16
    7  A    between atoms: C_11  and  C_25
    8  A    between atoms: C_11  and  C_28
    9  A    between atoms: C_21  and  O_26
   10  A    between atoms: N_23  and  C_24
                            x       y       z     vdW  Elec       q    Type
                         _______ _______ _______ _____ _____    ______ ____

>  <TORSDO>
F 10

$$$$
=
 OpenBabel11062413313D

 28 31  0  0  1  0  0  0  0  0999 V2000
  185.0810  178.2980  143.0210 C   0  0  0  0  0  0  0  0  0  0  0  0
  184.3010  178.2990  141.8620 C   0  0  0  0  0  3  0  0  0  0  0  0
  183.1590  178.9950  144.3120 C   0  0  0  0  0  3  0  0  0  0  0  0
  182.3660  179.0060  143.1520 C   0  0  0  0  0  0  0  0  0  0  0  0
  184.5080  178.6430  144.2460 C   0  0  0  0  0  3  0  0  0  0  0  0
  182.9480  178.6560  141.9140 C   0  0  0  0  0  0  0  0  0  0  0  0
  180.0520  178.5990  143.9380 C   0  0  0  0  0  1  0  0  0  0  0  0
  181.0110  179.3550  143.2130 O   0  0  0  0  0  0  0  0  0  0  0  0
  182.1650  178.6230  140.6290 C   0  0  1  0  0  3  0  0  0  0  0  0
  182.4150  180.0580  138.5480 C   0  0  0  0  0  2  0  0  0  0  0  0
  183.5110  180.2270  139.4070 O   0  0  0  0  0  0  0  0  0  0  0  0
  182.9620  178.9280  139.3430 C   0  0  1  0  0  3  0  0  0  0  0  0
  181.1800  177.4550  140.5350 C   0  0  0  0  0  2  0  0  0  0  0  0
  180.7160  175.2330  139.4920 C   0  0  0  0  0  1  0  0  0  0  0  0
  181.6300  176.4440  139.4940 C   0  0  0  0  0  2  0  0  0  0  0  0
  186.5140  177.9000  142.9550 C   0  0  0  0  0  2  0  0  0  0  0  0
  187.1390  178.4130  141.6690 C   0  0  0  0  0  2  0  0  0  0  0  0
  188.4600  177.8330  141.5010 N   0  0  0  0  0  2  0  0  0  0  0  0
  190.5580  177.8560  142.5130 O   0  0  0  0  0  0  0  0  0  0  0  0
  189.8680  176.8070  143.1480 C   0  0  2  0  0  3  0  0  0  0  0  0
  189.1850  178.0560  142.7390 C   0  0  2  0  0  3  0  0  0  0  0  0
  189.1480  176.9830  145.5100 N   0  0  0  0  0  0  0  0  0  0  0  0
  190.6680  176.7950  147.3430 C   0  0  0  0  0  3  0  0  0  0  0  0
  191.7190  176.6160  146.4420 C   0  0  0  0  0  3  0  0  0  0  0  0
  189.3740  176.9790  146.8520 C   0  0  0  0  0  0  0  0  0  0  0  0
  188.2900  177.1560  147.7540 N   0  0  0  0  0  1  0  0  0  0  0  0
  190.1620  176.8230  144.6130 C   0  0  0  0  0  0  0  0  0  0  0  0
  191.4690  176.6260  145.0700 C   0  0  0  0  0  3  0  0  0  0  0  0
  1  5  1  0  0  0  0
  2  6  1  0  0  0  0
  2  1  2  0  0  0  0
  4  8  1  0  0  0  0
  4  3  1  0  0  0  0
  5  3  2  0  0  0  0
  6  4  2  0  0  0  0
  8  7  1  0  0  0  0
  9 13  1  6  0  0  0
  9  6  1  0  0  0  0
 10 12  1  0  0  0  0
 10 11  1  0  0  0  0
 12 11  1  0  0  0  0
 12  9  1  1  0  0  0
 14 15  1  0  0  0  0
 15 13  1  0  0  0  0
 16  1  1  0  0  0  0
 17 16  1  0  0  0  0
 18 17  1  0  0  0  0
 19 21  1  0  0  0  0
 19 20  1  0  0  0  0
 20 27  1  1  0  0  0
 21 18  1  6  0  0  0
 21 20  1  0  0  0  0
 22 25  1  0  0  0  0
 24 23  1  0  0  0  0
 25 23  2  0  0  0  0
 25 26  1  0  0  0  0
 27 28  1  0  0  0  0
 27 22  2  0  0  0  0
 28 24  2  0  0  0  0
M  END
>  <MODEL>
5

>  <REMARK>
 VINA RESULT:      -7.4      3.107      8.068
  Name = 
  10 active torsions:
  status: ('A' for Active; 'I' for Inactive)
    1  A    between atoms: C_1  and  C_18
    2  A    between atoms: C_1  and  N_23
    3  A    between atoms: C_4  and  C_18
    4  A    between atoms: C_8  and  C_20
    5  A    between atoms: C_10  and  C_16
    6  A    between atoms: C_11  and  C_16
    7  A    between atoms: C_11  and  C_25
    8  A    between atoms: C_11  and  C_28
    9  A    between atoms: C_21  and  O_26
   10  A    between atoms: N_23  and  C_24
                            x       y       z     vdW  Elec       q    Type
                         _______ _______ _______ _____ _____    ______ ____

>  <TORSDO>
F 10

$$$$
=
 OpenBabel11062413313D

 28 31  0  0  1  0  0  0  0  0999 V2000
  187.3690  177.5960  143.8320 C   0  0  0  0  0  0  0  0  0  0  0  0
  188.6960  177.2910  144.1410 C   0  0  0  0  0  3  0  0  0  0  0  0
  186.9730  178.1960  146.1400 C   0  0  0  0  0  3  0  0  0  0  0  0
  188.3040  177.8870  146.4650 C   0  0  0  0  0  0  0  0  0  0  0  0
  186.5080  178.0520  144.8320 C   0  0  0  0  0  3  0  0  0  0  0  0
  189.1720  177.4260  145.4510 C   0  0  0  0  0  0  0  0  0  0  0  0
  187.9430  177.8880  148.9150 C   0  0  0  0  0  1  0  0  0  0  0  0
  188.7770  178.0340  147.7750 O   0  0  0  0  0  0  0  0  0  0  0  0
  190.6180  177.0920  145.7090 C   0  0  1  0  0  3  0  0  0  0  0  0
  192.2690  175.6740  147.0180 C   0  0  0  0  0  2  0  0  0  0  0  0
  191.9390  176.8390  147.7260 O   0  0  0  0  0  0  0  0  0  0  0  0
  190.9010  176.2520  146.9720 C   0  0  1  0  0  3  0  0  0  0  0  0
  191.3910  176.6830  144.4540 C   0  0  0  0  0  2  0  0  0  0  0  0
  191.6750  177.5060  142.1120 C   0  0  0  0  0  1  0  0  0  0  0  0
  191.6910  177.8890  143.5800 C   0  0  0  0  0  2  0  0  0  0  0  0
  186.8790  177.4630  142.4320 C   0  0  0  0  0  2  0  0  0  0  0  0
  186.8930  178.8170  141.7440 C   0  0  0  0  0  2  0  0  0  0  0  0
  186.9800  178.6350  140.3060 N   0  0  0  0  0  2  0  0  0  0  0  0
  189.0510  179.0560  139.3250 O   0  0  0  0  0  0  0  0  0  0  0  0
  188.4990  178.0130  138.5570 C   0  0  2  0  0  3  0  0  0  0  0  0
  188.2980  178.0960  140.0230 C   0  0  2  0  0  3  0  0  0  0  0  0
  190.8610  177.2750  138.5340 N   0  0  0  0  0  0  0  0  0  0  0  0
  191.5450  175.1510  137.6830 C   0  0  0  0  0  3  0  0  0  0  0  0
  190.2160  174.8570  137.3720 C   0  0  0  0  0  3  0  0  0  0  0  0
  191.8520  176.3800  138.2710 C   0  0  0  0  0  0  0  0  0  0  0  0
  193.1980  176.6930  138.6010 N   0  0  0  0  0  1  0  0  0  0  0  0
  189.5600  177.0140  138.2270 C   0  0  0  0  0  0  0  0  0  0  0  0
  189.2150  175.7890  137.6460 C   0  0  0  0  0  3  0  0  0  0  0  0
  1  2  2  0  0  0  0
  1  5  1  0  0  0  0
  2  6  1  0  0  0  0
  3  4  1  0  0  0  0
  4  8  1  0  0  0  0
  5  3  2  0  0  0  0
  6  9  1  0  0  0  0
  6  4  2  0  0  0  0
  8  7  1  0  0  0  0
  9 13  1  6  0  0  0
 10 11  1  0  0  0  0
 12  9  1  6  0  0  0
 12 10  1  0  0  0  0
 12 11  1  0  0  0  0
 14 15  1  0  0  0  0
 15 13  1  0  0  0  0
 16  1  1  0  0  0  0
 17 16  1  0  0  0  0
 18 17  1  0  0  0  0
 19 21  1  0  0  0  0
 20 27  1  1  0  0  0
 20 19  1  0  0  0  0
 20 21  1  0  0  0  0
 21 18  1  6  0  0  0
 23 25  2  0  0  0  0
 24 28  2  0  0  0  0
 24 23  1  0  0  0  0
 25 22  1  0  0  0  0
 25 26  1  0  0  0  0
 27 22  2  0  0  0  0
 28 27  1  0  0  0  0
M  END
>  <MODEL>
6

>  <REMARK>
 VINA RESULT:      -7.3      2.693      3.598
  Name = 
  10 active torsions:
  status: ('A' for Active; 'I' for Inactive)
    1  A    between atoms: C_1  and  C_18
    2  A    between atoms: C_1  and  N_23
    3  A    between atoms: C_4  and  C_18
    4  A    between atoms: C_8  and  C_20
    5  A    between atoms: C_10  and  C_16
    6  A    between atoms: C_11  and  C_16
    7  A    between atoms: C_11  and  C_25
    8  A    between atoms: C_11  and  C_28
    9  A    between atoms: C_21  and  O_26
   10  A    between atoms: N_23  and  C_24
                            x       y       z     vdW  Elec       q    Type
                         _______ _______ _______ _____ _____    ______ ____

>  <TORSDO>
F 10

$$$$
=
 OpenBabel11062413313D

 28 31  0  0  1  0  0  0  0  0999 V2000
  184.7160  178.3680  143.8670 C   0  0  0  0  0  0  0  0  0  0  0  0
  184.5530  178.1340  142.4990 C   0  0  0  0  0  3  0  0  0  0  0  0
  182.3990  179.0440  144.0230 C   0  0  0  0  0  3  0  0  0  0  0  0
  182.2250  178.8180  142.6480 C   0  0  0  0  0  0  0  0  0  0  0  0
  183.6370  178.8200  144.6290 C   0  0  0  0  0  3  0  0  0  0  0  0
  183.3190  178.3600  141.8790 C   0  0  0  0  0  0  0  0  0  0  0  0
  179.7880  178.4110  142.4750 C   0  0  0  0  0  1  0  0  0  0  0  0
  180.9850  179.0360  142.0350 O   0  0  0  0  0  0  0  0  0  0  0  0
  183.2120  178.0740  140.4050 C   0  0  1  0  0  3  0  0  0  0  0  0
  184.0640  179.5500  138.5210 C   0  0  0  0  0  2  0  0  0  0  0  0
  184.6630  179.8990  139.7410 O   0  0  0  0  0  0  0  0  0  0  0  0
  184.4080  178.5260  139.5410 C   0  0  1  0  0  3  0  0  0  0  0  0
  182.6490  176.6890  140.0840 C   0  0  0  0  0  2  0  0  0  0  0  0
  180.7130  177.7010  138.8710 C   0  0  0  0  0  1  0  0  0  0  0  0
  181.8570  176.7080  138.7870 C   0  0  0  0  0  2  0  0  0  0  0  0
  186.0300  178.1080  144.5170 C   0  0  0  0  0  2  0  0  0  0  0  0
  185.8790  178.1390  146.0290 C   0  0  0  0  0  2  0  0  0  0  0  0
  187.1820  177.9980  146.6540 N   0  0  0  0  0  2  0  0  0  0  0  0
  189.2450  176.9650  146.3320 O   0  0  0  0  0  0  0  0  0  0  0  0
  189.2880  178.1100  145.5130 C   0  0  2  0  0  3  0  0  0  0  0  0
  188.0440  177.3270  145.6970 C   0  0  2  0  0  3  0  0  0  0  0  0
  189.2650  177.9910  143.0400 N   0  0  0  0  0  0  0  0  0  0  0  0
  191.1300  177.2150  141.7650 C   0  0  0  0  0  3  0  0  0  0  0  0
  191.8380  176.9960  142.9480 C   0  0  0  0  0  3  0  0  0  0  0  0
  189.8290  177.7200  141.8320 C   0  0  0  0  0  0  0  0  0  0  0  0
  189.0970  177.9550  140.6370 N   0  0  0  0  0  1  0  0  0  0  0  0
  189.9330  177.7720  144.2080 C   0  0  0  0  0  0  0  0  0  0  0  0
  191.2420  177.2780  144.1780 C   0  0  0  0  0  3  0  0  0  0  0  0
  1 16  1  0  0  0  0
  1  5  1  0  0  0  0
  2  1  2  0  0  0  0
  3  5  2  0  0  0  0
  4  3  1  0  0  0  0
  6  2  1  0  0  0  0
  6  4  2  0  0  0  0
  8  7  1  0  0  0  0
  8  4  1  0  0  0  0
  9 13  1  1  0  0  0
  9  6  1  0  0  0  0
 10 12  1  0  0  0  0
 10 11  1  0  0  0  0
 12 11  1  0  0  0  0
 12  9  1  1  0  0  0
 15 14  1  0  0  0  0
 15 13  1  0  0  0  0
 16 17  1  0  0  0  0
 17 18  1  0  0  0  0
 20 27  1  6  0  0  0
 20 21  1  0  0  0  0
 20 19  1  0  0  0  0
 21 19  1  0  0  0  0
 21 18  1  1  0  0  0
 22 27  1  0  0  0  0
 23 25  1  0  0  0  0
 23 24  2  0  0  0  0
 24 28  1  0  0  0  0
 25 22  2  0  0  0  0
 26 25  1  0  0  0  0
 28 27  2  0  0  0  0
M  END
>  <MODEL>
7

>  <REMARK>
 VINA RESULT:      -7.2      2.603      7.251
  Name = 
  10 active torsions:
  status: ('A' for Active; 'I' for Inactive)
    1  A    between atoms: C_1  and  C_18
    2  A    between atoms: C_1  and  N_23
    3  A    between atoms: C_4  and  C_18
    4  A    between atoms: C_8  and  C_20
    5  A    between atoms: C_10  and  C_16
    6  A    between atoms: C_11  and  C_16
    7  A    between atoms: C_11  and  C_25
    8  A    between atoms: C_11  and  C_28
    9  A    between atoms: C_21  and  O_26
   10  A    between atoms: N_23  and  C_24
                            x       y       z     vdW  Elec       q    Type
                         _______ _______ _______ _____ _____    ______ ____

>  <TORSDO>
F 10

$$$$
=
 OpenBabel11062413313D

 28 31  0  0  1  0  0  0  0  0999 V2000
  184.2250  178.6930  143.9400 C   0  0  0  0  0  0  0  0  0  0  0  0
  184.2980  178.5150  142.5570 C   0  0  0  0  0  3  0  0  0  0  0  0
  181.8490  179.1010  143.7590 C   0  0  0  0  0  3  0  0  0  0  0  0
  181.9110  178.9300  142.3660 C   0  0  0  0  0  0  0  0  0  0  0  0
  182.9980  178.9830  144.5410 C   0  0  0  0  0  3  0  0  0  0  0  0
  183.1530  178.6370  141.7610 C   0  0  0  0  0  0  0  0  0  0  0  0
  179.7870  180.0600  141.7740 C   0  0  0  0  0  1  0  0  0  0  0  0
  180.7590  179.0430  141.5770 O   0  0  0  0  0  0  0  0  0  0  0  0
  183.3030  178.4190  140.2790 C   0  0  1  0  0  3  0  0  0  0  0  0
  183.0730  176.3450  138.8300 C   0  0  0  0  0  2  0  0  0  0  0  0
  182.6820  176.0790  140.1510 O   0  0  0  0  0  0  0  0  0  0  0  0
  182.3690  177.3620  139.6540 C   0  0  1  0  0  3  0  0  0  0  0  0
  183.4690  179.7120  139.4780 C   0  0  0  0  0  2  0  0  0  0  0  0
  181.8880  181.3900  138.5150 C   0  0  0  0  0  1  0  0  0  0  0  0
  182.2930  179.9280  138.5400 C   0  0  0  0  0  2  0  0  0  0  0  0
  185.4470  178.5450  144.7770 C   0  0  0  0  0  2  0  0  0  0  0  0
  185.0640  178.3970  146.2400 C   0  0  0  0  0  2  0  0  0  0  0  0
  186.2330  178.6020  147.0760 N   0  0  0  0  0  2  0  0  0  0  0  0
  187.9070  177.1310  147.7570 O   0  0  0  0  0  0  0  0  0  0  0  0
  188.5850  178.1370  147.0420 C   0  0  2  0  0  3  0  0  0  0  0  0
  187.2440  177.6570  146.6340 C   0  0  2  0  0  3  0  0  0  0  0  0
  189.6310  177.7120  144.8390 N   0  0  0  0  0  0  0  0  0  0  0  0
  191.6380  176.4430  144.5830 C   0  0  0  0  0  3  0  0  0  0  0  0
  191.6800  176.2450  145.9640 C   0  0  0  0  0  3  0  0  0  0  0  0
  190.5940  177.1890  144.0320 C   0  0  0  0  0  0  0  0  0  0  0  0
  190.5390  177.4050  142.6290 N   0  0  0  0  0  1  0  0  0  0  0  0
  189.6460  177.5210  146.1880 C   0  0  0  0  0  0  0  0  0  0  0  0
  190.6830  176.7880  146.7750 C   0  0  0  0  0  3  0  0  0  0  0  0
  1  5  1  0  0  0  0
  1 16  1  0  0  0  0
  2  1  2  0  0  0  0
  3  5  2  0  0  0  0
  4  3  1  0  0  0  0
  6  4  2  0  0  0  0
  6  2  1  0  0  0  0
  8  7  1  0  0  0  0
  8  4  1  0  0  0  0
  9 13  1  6  0  0  0
  9  6  1  0  0  0  0
 10 12  1  0  0  0  0
 10 11  1  0  0  0  0
 12 11  1  0  0  0  0
 12  9  1  1  0  0  0
 14 15  1  0  0  0  0
 15 13  1  0  0  0  0
 16 17  1  0  0  0  0
 17 18  1  0  0  0  0
 20 27  1  6  0  0  0
 20 19  1  0  0  0  0
 21 20  1  0  0  0  0
 21 18  1  1  0  0  0
 21 19  1  0  0  0  0
 22 27  1  0  0  0  0
 23 24  2  0  0  0  0
 24 28  1  0  0  0  0
 25 23  1  0  0  0  0
 25 22  2  0  0  0  0
 26 25  1  0  0  0  0
 27 28  2  0  0  0  0
M  END
>  <MODEL>
8

>  <REMARK>
 VINA RESULT:      -7.2      3.063      7.973
  Name = 
  10 active torsions:
  status: ('A' for Active; 'I' for Inactive)
    1  A    between atoms: C_1  and  C_18
    2  A    between atoms: C_1  and  N_23
    3  A    between atoms: C_4  and  C_18
    4  A    between atoms: C_8  and  C_20
    5  A    between atoms: C_10  and  C_16
    6  A    between atoms: C_11  and  C_16
    7  A    between atoms: C_11  and  C_25
    8  A    between atoms: C_11  and  C_28
    9  A    between atoms: C_21  and  O_26
   10  A    between atoms: N_23  and  C_24
                            x       y       z     vdW  Elec       q    Type
                         _______ _______ _______ _____ _____    ______ ____

>  <TORSDO>
F 10

$$$$
=
 OpenBabel11062413313D

 28 31  0  0  1  0  0  0  0  0999 V2000
  185.5330  178.3160  144.0790 C   0  0  0  0  0  0  0  0  0  0  0  0
  186.8580  177.9090  143.9080 C   0  0  0  0  0  3  0  0  0  0  0  0
  185.7430  177.9820  146.4650 C   0  0  0  0  0  3  0  0  0  0  0  0
  187.0750  177.5640  146.3040 C   0  0  0  0  0  0  0  0  0  0  0  0
  184.9770  178.3560  145.3590 C   0  0  0  0  0  3  0  0  0  0  0  0
  187.6350  177.5260  145.0080 C   0  0  0  0  0  0  0  0  0  0  0  0
  187.8950  177.9530  148.6090 C   0  0  0  0  0  1  0  0  0  0  0  0
  187.8490  177.1920  147.4100 O   0  0  0  0  0  0  0  0  0  0  0  0
  189.0590  177.1110  144.7500 C   0  0  1  0  0  3  0  0  0  0  0  0
  190.1900  175.5490  143.0980 C   0  0  0  0  0  2  0  0  0  0  0  0
  188.8070  175.6010  142.8700 O   0  0  0  0  0  0  0  0  0  0  0  0
  189.4180  176.8050  143.2810 C   0  0  1  0  0  3  0  0  0  0  0  0
  190.0910  177.9300  145.5280 C   0  0  0  0  0  2  0  0  0  0  0  0
  191.7520  176.1870  146.1970 C   0  0  0  0  0  1  0  0  0  0  0  0
  190.6660  177.1280  146.6840 C   0  0  0  0  0  2  0  0  0  0  0  0
  184.7240  178.7360  142.9030 C   0  0  0  0  0  2  0  0  0  0  0  0
  185.6350  179.2290  141.7910 C   0  0  0  0  0  2  0  0  0  0  0  0
  184.8740  179.3750  140.5620 N   0  0  0  0  0  2  0  0  0  0  0  0
  183.7250  177.8710  139.2050 O   0  0  0  0  0  0  0  0  0  0  0  0
  182.7250  178.7110  139.7320 C   0  0  2  0  0  3  0  0  0  0  0  0
  183.9010  178.2970  140.5320 C   0  0  2  0  0  3  0  0  0  0  0  0
  181.3480  176.6610  139.5560 N   0  0  0  0  0  0  0  0  0  0  0  0
  179.3430  176.3390  140.8130 C   0  0  0  0  0  3  0  0  0  0  0  0
  179.5130  177.5980  141.3920 C   0  0  0  0  0  3  0  0  0  0  0  0
  180.2830  175.8820  139.8870 C   0  0  0  0  0  0  0  0  0  0  0  0
  180.1290  174.6000  139.2920 N   0  0  0  0  0  1  0  0  0  0  0  0
  181.5270  177.8980  140.1000 C   0  0  0  0  0  0  0  0  0  0  0  0
  180.6110  178.3830  141.0400 C   0  0  0  0  0  3  0  0  0  0  0  0
  1  5  1  0  0  0  0
  2  1  2  0  0  0  0
  2  6  1  0  0  0  0
  4  3  1  0  0  0  0
  4  8  1  0  0  0  0
  5  3  2  0  0  0  0
  6  4  2  0  0  0  0
  8  7  1  0  0  0  0
  9  6  1  0  0  0  0
  9 13  1  6  0  0  0
 10 12  1  0  0  0  0
 11 10  1  0  0  0  0
 11 12  1  0  0  0  0
 12  9  1  1  0  0  0
 13 15  1  0  0  0  0
 14 15  1  0  0  0  0
 16  1  1  0  0  0  0
 17 16  1  0  0  0  0
 18 17  1  0  0  0  0
 19 20  1  0  0  0  0
 19 21  1  0  0  0  0
 20 27  1  1  0  0  0
 20 21  1  0  0  0  0
 21 18  1  6  0  0  0
 22 25  2  0  0  0  0
 22 27  1  0  0  0  0
 23 24  2  0  0  0  0
 25 23  1  0  0  0  0
 26 25  1  0  0  0  0
 27 28  2  0  0  0  0
 28 24  1  0  0  0  0
M  END
>  <MODEL>
9

>  <REMARK>
 VINA RESULT:      -7.2      2.609      3.952
  Name = 
  10 active torsions:
  status: ('A' for Active; 'I' for Inactive)
    1  A    between atoms: C_1  and  C_18
    2  A    between atoms: C_1  and  N_23
    3  A    between atoms: C_4  and  C_18
    4  A    between atoms: C_8  and  C_20
    5  A    between atoms: C_10  and  C_16
    6  A    between atoms: C_11  and  C_16
    7  A    between atoms: C_11  and  C_25
    8  A    between atoms: C_11  and  C_28
    9  A    between atoms: C_21  and  O_26
   10  A    between atoms: N_23  and  C_24
                            x       y       z     vdW  Elec       q    Type
                         _______ _______ _______ _____ _____    ______ ____

>  <TORSDO>
F 10

$$$$
