=
 OpenBabel11062412333D

 33 35  0  0  1  0  0  0  0  0999 V2000
  184.0180  177.4260  138.2500 C   0  0  0  0  0  0  0  0  0  0  0  0
  189.7970  175.6710  137.1840 C   0  0  2  0  0  3  0  0  0  0  0  0
  188.4340  177.1800  138.6050 C   0  0  0  0  0  3  0  0  0  0  0  0
  189.0100  177.7210  140.8950 C   0  0  0  0  0  0  0  0  0  0  0  0
  188.6770  178.5020  142.1390 C   0  0  0  0  0  2  0  0  0  0  0  0
  188.1390  177.8200  139.8030 C   0  0  0  0  0  0  0  0  0  0  0  0
  190.1910  176.9650  140.7700 C   0  0  0  0  0  0  0  0  0  0  0  0
  186.8790  178.4710  139.9450 N   0  0  0  0  0  0  0  0  0  0  0  0
  186.8220  175.0750  137.1800 O   0  0  0  0  0  0  0  0  0  0  0  0
  187.7790  174.3390  136.4640 C   0  0  1  0  0  3  0  0  0  0  0  0
  186.4040  178.8620  141.0910 C   0  0  0  0  0  0  0  0  0  0  0  0
  189.5930  176.4210  138.4700 C   0  0  0  0  0  0  0  0  0  0  0  0
  189.1040  174.3140  137.2190 C   0  0  0  0  0  2  0  0  0  0  0  0
  184.5560  175.6450  136.6140 C   0  0  0  0  0  2  0  0  0  0  0  0
  185.0500  179.3300  141.1620 N   0  0  0  0  0  2  0  0  0  0  0  0
  187.1610  178.5890  142.3660 C   0  0  0  0  0  2  0  0  0  0  0  0
  184.3530  176.1050  137.9460 O   0  0  0  0  0  0  0  0  0  0  0  0
  184.5790  180.0840  139.0100 O   0  0  0  0  0  1  0  0  0  0  0  0
  191.1530  176.8360  141.9000 C   0  0  0  0  0  1  0  0  0  0  0  0
  184.1460  179.2180  140.0190 C   0  0  1  0  0  3  0  0  0  0  0  0
  190.4640  176.3000  139.5660 C   0  0  0  0  0  3  0  0  0  0  0  0
  183.6310  178.2150  137.3440 O   0  0  0  0  0  0  0  0  0  0  0  0
  186.0330  175.7270  136.2200 C   0  0  1  0  0  3  0  0  0  0  0  0
  184.1450  177.8570  139.5750 O   0  0  0  0  0  0  0  0  0  0  0  0
  191.9710  174.4200  137.1820 O   0  0  0  0  0  1  0  0  0  0  0  0
  191.2380  175.5390  136.8040 C   0  0  0  0  0  0  0  0  0  0  0  0
  191.7990  176.4610  136.1580 O   0  0  0  0  0  0  0  0  0  0  0  0
  187.3120  172.9590  136.2920 C   0  0  0  0  0  0  0  0  0  0  0  0
  186.9450  171.8700  136.1550 N   0  0  0  0  0  0  0  0  0  0  0  0
  186.4760  177.1770  136.0670 C   0  0  0  0  0  2  0  0  0  0  0  0
  186.9650  177.4550  134.6530 C   0  0  0  0  0  2  0  0  0  0  0  0
  189.0750  178.1850  135.4230 O   0  0  0  0  0  0  0  0  0  0  0  0
  188.4560  177.5350  134.5960 C   0  0  0  0  0  3  0  0  0  0  0  0
  1 24  1  0  0  0  0
  2 26  1  1  0  0  0
  2 13  1  0  0  0  0
  2 12  1  0  0  0  0
  3  6  1  0  0  0  0
  4  5  1  0  0  0  0
  5 16  1  0  0  0  0
  6  8  1  0  0  0  0
  6  4  2  0  0  0  0
  7  4  1  0  0  0  0
  7 19  1  0  0  0  0
  8 11  2  0  0  0  0
 10 28  1  1  0  0  0
 10  9  1  0  0  0  0
 10 13  1  0  0  0  0
 11 15  1  0  0  0  0
 11 16  1  0  0  0  0
 12  3  2  0  0  0  0
 12 21  1  0  0  0  0
 14 17  1  0  0  0  0
 17  1  1  0  0  0  0
 20 18  1  6  0  0  0
 20 15  1  0  0  0  0
 21  7  2  0  0  0  0
 22  1  2  0  0  0  0
 23 30  1  1  0  0  0
 23 14  1  0  0  0  0
 23  9  1  0  0  0  0
 24 20  1  0  0  0  0
 26 25  1  0  0  0  0
 27 26  2  0  0  0  0
 29 28  3  0  0  0  0
 31 30  1  0  0  0  0
 33 31  1  0  0  0  0
 33 32  2  0  0  0  0
M  END
>  <MODEL>
1

>  <REMARK>
 VINA RESULT:      -6.3      0.000      0.000
  Name = 
  5 active torsions:
  status: ('A' for Active; 'I' for Inactive)
    1  A    between atoms: C_2  and  C_5
    2  A    between atoms: C_7  and  C_14
    3  A    between atoms: C_7  and  C_30
    4  A    between atoms: C_14  and  C_20
    5  A    between atoms: C_15  and  C_23
                            x       y       z     vdW  Elec       q    Type
                         _______ _______ _______ _____ _____    ______ ____

>  <TORSDO>
F 5

$$$$
=
 OpenBabel11062412333D

 33 35  0  0  1  0  0  0  0  0999 V2000
  180.4480  177.7550  140.2490 C   0  0  0  0  0  0  0  0  0  0  0  0
  185.9310  178.1180  137.5250 C   0  0  2  0  0  3  0  0  0  0  0  0
  184.7390  178.6950  139.6230 C   0  0  0  0  0  3  0  0  0  0  0  0
  185.8080  178.6920  141.7970 C   0  0  0  0  0  0  0  0  0  0  0  0
  185.6830  178.9500  143.2750 C   0  0  0  0  0  2  0  0  0  0  0  0
  184.6650  178.8480  141.0020 C   0  0  0  0  0  0  0  0  0  0  0  0
  187.0360  178.3770  141.1860 C   0  0  0  0  0  0  0  0  0  0  0  0
  183.3890  179.0400  141.6070 N   0  0  0  0  0  0  0  0  0  0  0  0
  183.2630  176.7210  137.8940 O   0  0  0  0  0  0  0  0  0  0  0  0
  184.1120  176.5300  136.7930 C   0  0  1  0  0  3  0  0  0  0  0  0
  183.1830  178.9300  142.8870 C   0  0  0  0  0  0  0  0  0  0  0  0
  185.9440  178.3720  139.0050 C   0  0  0  0  0  0  0  0  0  0  0  0
  185.5700  176.6680  137.2160 C   0  0  0  0  0  2  0  0  0  0  0  0
  180.8620  176.7550  138.0200 C   0  0  0  0  0  2  0  0  0  0  0  0
  181.8380  178.9480  143.3820 N   0  0  0  0  0  2  0  0  0  0  0  0
  184.3060  178.5290  143.8110 C   0  0  0  0  0  2  0  0  0  0  0  0
  180.9490  176.7310  139.4410 O   0  0  0  0  0  0  0  0  0  0  0  0
  180.6380  180.1230  141.7680 O   0  0  0  0  0  1  0  0  0  0  0  0
  188.2810  178.2080  141.9870 C   0  0  0  0  0  1  0  0  0  0  0  0
  180.6940  178.9170  142.4730 C   0  0  1  0  0  3  0  0  0  0  0  0
  187.0930  178.1950  139.7960 C   0  0  0  0  0  3  0  0  0  0  0  0
  179.6700  178.6260  139.7720 O   0  0  0  0  0  0  0  0  0  0  0  0
  182.1200  177.3670  137.3990 C   0  0  1  0  0  3  0  0  0  0  0  0
  180.8490  177.8010  141.5890 O   0  0  0  0  0  0  0  0  0  0  0  0
  188.0330  177.5640  136.2740 O   0  0  0  0  0  0  0  0  0  0  0  0
  187.2030  178.5200  136.8480 C   0  0  0  0  0  0  0  0  0  0  0  0
  187.5380  179.7320  136.8210 O   0  0  0  0  0  1  0  0  0  0  0  0
  183.9110  175.1850  136.2420 C   0  0  0  0  0  0  0  0  0  0  0  0
  183.7520  174.1240  135.8080 N   0  0  0  0  0  0  0  0  0  0  0  0
  182.1940  178.8630  137.6810 C   0  0  0  0  0  2  0  0  0  0  0  0
  181.1730  179.6290  136.8530 C   0  0  0  0  0  2  0  0  0  0  0  0
  181.4090  181.3200  138.4840 O   0  0  0  0  0  0  0  0  0  0  0  0
  180.9210  180.9890  137.4160 C   0  0  0  0  0  3  0  0  0  0  0  0
  1 24  1  0  0  0  0
  2 26  1  1  0  0  0
  2 12  1  0  0  0  0
  3  6  1  0  0  0  0
  4  5  1  0  0  0  0
  5 16  1  0  0  0  0
  6  8  1  0  0  0  0
  6  4  2  0  0  0  0
  7  4  1  0  0  0  0
  7 19  1  0  0  0  0
  8 11  2  0  0  0  0
 10 28  1  1  0  0  0
 10 13  1  0  0  0  0
 10  9  1  0  0  0  0
 11 15  1  0  0  0  0
 11 16  1  0  0  0  0
 12  3  2  0  0  0  0
 12 21  1  0  0  0  0
 13  2  1  0  0  0  0
 14 17  1  0  0  0  0
 17  1  1  0  0  0  0
 20 18  1  6  0  0  0
 20 15  1  0  0  0  0
 21  7  2  0  0  0  0
 22  1  2  0  0  0  0
 23 30  1  1  0  0  0
 23  9  1  0  0  0  0
 23 14  1  0  0  0  0
 24 20  1  0  0  0  0
 25 26  2  0  0  0  0
 27 26  1  0  0  0  0
 29 28  3  0  0  0  0
 31 33  1  0  0  0  0
 31 30  1  0  0  0  0
 33 32  2  0  0  0  0
M  END
>  <MODEL>
2

>  <REMARK>
 VINA RESULT:      -6.2      2.846      4.657
  Name = 
  5 active torsions:
  status: ('A' for Active; 'I' for Inactive)
    1  A    between atoms: C_2  and  C_5
    2  A    between atoms: C_7  and  C_14
    3  A    between atoms: C_7  and  C_30
    4  A    between atoms: C_14  and  C_20
    5  A    between atoms: C_15  and  C_23
                            x       y       z     vdW  Elec       q    Type
                         _______ _______ _______ _____ _____    ______ ____

>  <TORSDO>
F 5

$$$$
=
 OpenBabel11062412333D

 33 35  0  0  1  0  0  0  0  0999 V2000
  182.1220  178.4220  141.9120 C   0  0  0  0  0  0  0  0  0  0  0  0
  186.8020  178.3140  137.9500 C   0  0  2  0  0  3  0  0  0  0  0  0
  186.2730  178.6110  140.3550 C   0  0  0  0  0  3  0  0  0  0  0  0
  187.7510  177.8900  142.1350 C   0  0  0  0  0  0  0  0  0  0  0  0
  188.0160  177.8160  143.6150 C   0  0  0  0  0  2  0  0  0  0  0  0
  186.5390  178.4500  141.7100 C   0  0  0  0  0  0  0  0  0  0  0  0
  188.7000  177.4880  141.1760 C   0  0  0  0  0  0  0  0  0  0  0  0
  185.5130  178.7450  142.6540 N   0  0  0  0  0  0  0  0  0  0  0  0
  184.0150  177.4270  138.7550 O   0  0  0  0  0  0  0  0  0  0  0  0
  184.5310  177.3340  137.4530 C   0  0  1  0  0  3  0  0  0  0  0  0
  185.5670  178.3830  143.9020 C   0  0  0  0  0  0  0  0  0  0  0  0
  187.1980  178.2080  139.3950 C   0  0  0  0  0  0  0  0  0  0  0  0
  186.0340  177.0780  137.4950 C   0  0  0  0  0  2  0  0  0  0  0  0
  181.7840  177.9070  139.5130 C   0  0  0  0  0  2  0  0  0  0  0  0
  184.4080  178.5520  144.7290 N   0  0  0  0  0  2  0  0  0  0  0  0
  186.7260  177.5640  144.4110 C   0  0  0  0  0  2  0  0  0  0  0  0
  182.1670  177.5360  140.8330 O   0  0  0  0  0  0  0  0  0  0  0  0
  183.2210  180.2850  143.7230 O   0  0  0  0  0  1  0  0  0  0  0  0
  190.0050  176.8940  141.5780 C   0  0  0  0  0  1  0  0  0  0  0  0
  183.1240  178.9610  144.1630 C   0  0  1  0  0  3  0  0  0  0  0  0
  188.4080  177.6280  139.8110 C   0  0  0  0  0  3  0  0  0  0  0  0
  181.5020  179.5170  141.8200 O   0  0  0  0  0  0  0  0  0  0  0  0
  182.9900  178.3850  138.7020 C   0  0  1  0  0  3  0  0  0  0  0  0
  182.8020  178.0740  143.0860 O   0  0  0  0  0  0  0  0  0  0  0  0
  188.7720  179.7070  137.2640 O   0  0  0  0  0  1  0  0  0  0  0  0
  187.9580  178.6020  137.0440 C   0  0  0  0  0  0  0  0  0  0  0  0
  188.1780  177.8520  136.0580 O   0  0  0  0  0  0  0  0  0  0  0  0
  183.8870  176.2220  136.7450 C   0  0  0  0  0  0  0  0  0  0  0  0
  183.3780  175.3450  136.1880 N   0  0  0  0  0  0  0  0  0  0  0  0
  183.4940  179.7290  139.2140 C   0  0  0  0  0  2  0  0  0  0  0  0
  182.5940  180.8650  138.7520 C   0  0  0  0  0  2  0  0  0  0  0  0
  180.6600  181.0980  137.4160 O   0  0  0  0  0  0  0  0  0  0  0  0
  181.6160  180.4040  137.7210 C   0  0  0  0  0  3  0  0  0  0  0  0
  1 24  1  0  0  0  0
  2 26  1  6  0  0  0
  2 12  1  0  0  0  0
  3  6  1  0  0  0  0
  4  5  1  0  0  0  0
  5 16  1  0  0  0  0
  6  4  2  0  0  0  0
  6  8  1  0  0  0  0
  7 19  1  0  0  0  0
  7  4  1  0  0  0  0
  8 11  2  0  0  0  0
 10 28  1  1  0  0  0
 10 13  1  0  0  0  0
 10  9  1  0  0  0  0
 11 16  1  0  0  0  0
 11 15  1  0  0  0  0
 12 21  1  0  0  0  0
 12  3  2  0  0  0  0
 13  2  1  0  0  0  0
 14 17  1  0  0  0  0
 17  1  1  0  0  0  0
 20 18  1  6  0  0  0
 20 15  1  0  0  0  0
 21  7  2  0  0  0  0
 22  1  2  0  0  0  0
 23  9  1  0  0  0  0
 23 30  1  1  0  0  0
 23 14  1  0  0  0  0
 24 20  1  0  0  0  0
 26 25  1  0  0  0  0
 27 26  2  0  0  0  0
 29 28  3  0  0  0  0
 31 30  1  0  0  0  0
 32 33  2  0  0  0  0
 33 31  1  0  0  0  0
M  END
>  <MODEL>
3

>  <REMARK>
 VINA RESULT:      -6.1      2.618      4.442
  Name = 
  5 active torsions:
  status: ('A' for Active; 'I' for Inactive)
    1  A    between atoms: C_2  and  C_5
    2  A    between atoms: C_7  and  C_14
    3  A    between atoms: C_7  and  C_30
    4  A    between atoms: C_14  and  C_20
    5  A    between atoms: C_15  and  C_23
                            x       y       z     vdW  Elec       q    Type
                         _______ _______ _______ _____ _____    ______ ____

>  <TORSDO>
F 5

$$$$
=
 OpenBabel11062412333D

 33 35  0  0  1  0  0  0  0  0999 V2000
  184.4780  177.5130  138.5400 C   0  0  0  0  0  0  0  0  0  0  0  0
  190.5540  176.7060  138.7350 C   0  0  2  0  0  3  0  0  0  0  0  0
  188.6580  177.6550  140.0210 C   0  0  0  0  0  3  0  0  0  0  0  0
  188.5710  177.6610  142.4420 C   0  0  0  0  0  0  0  0  0  0  0  0
  187.8240  178.0630  143.6870 C   0  0  0  0  0  2  0  0  0  0  0  0
  187.9810  177.9380  141.2020 C   0  0  0  0  0  0  0  0  0  0  0  0
  189.8570  177.0900  142.4840 C   0  0  0  0  0  0  0  0  0  0  0  0
  186.6330  178.3950  141.1330 N   0  0  0  0  0  0  0  0  0  0  0  0
  187.8110  175.8170  137.7930 O   0  0  0  0  0  0  0  0  0  0  0  0
  189.0210  175.3910  137.2230 C   0  0  1  0  0  3  0  0  0  0  0  0
  185.8390  178.4330  142.1620 C   0  0  0  0  0  0  0  0  0  0  0  0
  189.9260  177.0810  140.0460 C   0  0  0  0  0  0  0  0  0  0  0  0
  190.1110  175.3170  138.2870 C   0  0  0  0  0  2  0  0  0  0  0  0
  185.6820  176.2680  136.7680 C   0  0  0  0  0  2  0  0  0  0  0  0
  184.4490  178.7200  141.9620 N   0  0  0  0  0  2  0  0  0  0  0  0
  186.3050  177.9290  143.5060 C   0  0  0  0  0  2  0  0  0  0  0  0
  185.0920  176.3530  138.0620 O   0  0  0  0  0  0  0  0  0  0  0  0
  184.3860  179.9370  139.9770 O   0  0  0  0  0  1  0  0  0  0  0  0
  190.5280  176.7840  143.7780 C   0  0  0  0  0  1  0  0  0  0  0  0
  183.8770  178.8050  140.6200 C   0  0  1  0  0  3  0  0  0  0  0  0
  190.5180  176.7820  141.2860 C   0  0  0  0  0  3  0  0  0  0  0  0
  184.1920  178.4580  137.7550 O   0  0  0  0  0  0  0  0  0  0  0  0
  187.1750  176.6030  136.8190 C   0  0  1  0  0  3  0  0  0  0  0  0
  184.2100  177.6070  139.9100 O   0  0  0  0  0  0  0  0  0  0  0  0
  192.7220  177.1880  139.9010 O   0  0  0  0  0  1  0  0  0  0  0  0
  192.0460  176.8270  138.7420 C   0  0  0  0  0  0  0  0  0  0  0  0
  192.6920  176.6250  137.6810 O   0  0  0  0  0  0  0  0  0  0  0  0
  188.8470  174.0570  136.6380 C   0  0  0  0  0  0  0  0  0  0  0  0
  188.7100  173.0050  136.1750 N   0  0  0  0  0  0  0  0  0  0  0  0
  187.3920  178.0830  137.1070 C   0  0  0  0  0  2  0  0  0  0  0  0
  188.4280  178.6790  136.1660 C   0  0  0  0  0  2  0  0  0  0  0  0
  189.7820  177.5530  134.5940 O   0  0  0  0  0  0  0  0  0  0  0  0
  188.6510  177.8070  134.9750 C   0  0  0  0  0  3  0  0  0  0  0  0
  1 24  1  0  0  0  0
  2 26  1  1  0  0  0
  2 12  1  0  0  0  0
  3 12  2  0  0  0  0
  3  6  1  0  0  0  0
  4  7  1  0  0  0  0
  4  5  1  0  0  0  0
  6  4  2  0  0  0  0
  7 19  1  0  0  0  0
  8  6  1  0  0  0  0
  8 11  2  0  0  0  0
 10 28  1  1  0  0  0
 10  9  1  0  0  0  0
 10 13  1  0  0  0  0
 11 16  1  0  0  0  0
 12 21  1  0  0  0  0
 13  2  1  0  0  0  0
 14 23  1  0  0  0  0
 14 17  1  0  0  0  0
 15 11  1  0  0  0  0
 16  5  1  0  0  0  0
 17  1  1  0  0  0  0
 20 18  1  6  0  0  0
 20 15  1  0  0  0  0
 21  7  2  0  0  0  0
 22  1  2  0  0  0  0
 23 30  1  1  0  0  0
 23  9  1  0  0  0  0
 24 20  1  0  0  0  0
 26 25  1  0  0  0  0
 27 26  2  0  0  0  0
 29 28  3  0  0  0  0
 31 30  1  0  0  0  0
 32 33  2  0  0  0  0
 33 31  1  0  0  0  0
M  END
>  <MODEL>
4

>  <REMARK>
 VINA RESULT:      -5.5      1.396      1.683
  Name = 
  5 active torsions:
  status: ('A' for Active; 'I' for Inactive)
    1  A    between atoms: C_2  and  C_5
    2  A    between atoms: C_7  and  C_14
    3  A    between atoms: C_7  and  C_30
    4  A    between atoms: C_14  and  C_20
    5  A    between atoms: C_15  and  C_23
                            x       y       z     vdW  Elec       q    Type
                         _______ _______ _______ _____ _____    ______ ____

>  <TORSDO>
F 5

$$$$
=
 OpenBabel11062412333D

 33 35  0  0  1  0  0  0  0  0999 V2000
  184.0890  179.1010  137.8310 C   0  0  0  0  0  0  0  0  0  0  0  0
  180.6640  178.7440  142.9060 C   0  0  2  0  0  3  0  0  0  0  0  0
  182.9500  178.3110  142.0470 C   0  0  0  0  0  3  0  0  0  0  0  0
  184.9440  178.5680  143.3990 C   0  0  0  0  0  0  0  0  0  0  0  0
  186.4420  178.4450  143.4910 C   0  0  0  0  0  2  0  0  0  0  0  0
  184.3340  178.2840  142.1700 C   0  0  0  0  0  0  0  0  0  0  0  0
  184.1410  178.8830  144.5120 C   0  0  0  0  0  0  0  0  0  0  0  0
  185.1270  178.0900  141.0020 N   0  0  0  0  0  0  0  0  0  0  0  0
  181.2810  180.0410  140.2350 O   0  0  0  0  0  0  0  0  0  0  0  0
  180.0590  180.1680  140.9140 C   0  0  1  0  0  3  0  0  0  0  0  0
  186.4080  178.3100  140.9650 C   0  0  0  0  0  0  0  0  0  0  0  0
  182.1440  178.6310  143.1360 C   0  0  0  0  0  0  0  0  0  0  0  0
  180.2840  180.1390  142.4210 C   0  0  0  0  0  2  0  0  0  0  0  0
  181.7460  179.9060  137.8790 C   0  0  0  0  0  2  0  0  0  0  0  0
  187.0870  178.2750  139.7030 N   0  0  0  0  0  2  0  0  0  0  0  0
  187.1270  178.8480  142.1770 C   0  0  0  0  0  2  0  0  0  0  0  0
  183.1330  180.0670  138.1570 O   0  0  0  0  0  0  0  0  0  0  0  0
  185.7650  176.8970  138.3680 O   0  0  0  0  0  1  0  0  0  0  0  0
  184.7420  179.1850  145.8410 C   0  0  0  0  0  1  0  0  0  0  0  0
  186.3490  178.1660  138.4460 C   0  0  1  0  0  3  0  0  0  0  0  0
  182.7470  178.9360  144.3680 C   0  0  0  0  0  3  0  0  0  0  0  0
  183.8030  178.1530  137.0500 O   0  0  0  0  0  0  0  0  0  0  0  0
  181.0100  179.2980  139.0760 C   0  0  1  0  0  3  0  0  0  0  0  0
  185.3580  179.2000  138.4130 O   0  0  0  0  0  0  0  0  0  0  0  0
  179.6500  176.9990  144.3950 O   0  0  0  0  0  0  0  0  0  0  0  0
  179.8520  178.3410  144.0970 C   0  0  0  0  0  0  0  0  0  0  0  0
  179.3250  179.2250  144.8210 O   0  0  0  0  0  1  0  0  0  0  0  0
  179.4280  181.4440  140.5590 C   0  0  0  0  0  0  0  0  0  0  0  0
  178.9310  182.4510  140.2800 N   0  0  0  0  0  0  0  0  0  0  0  0
  181.4070  177.8400  139.2770 C   0  0  0  0  0  2  0  0  0  0  0  0
  180.2000  176.9220  139.1610 C   0  0  0  0  0  2  0  0  0  0  0  0
  179.2960  176.1420  141.1980 O   0  0  0  0  0  0  0  0  0  0  0  0
  180.1190  175.9750  140.3140 C   0  0  0  0  0  3  0  0  0  0  0  0
  1 17  1  0  0  0  0
  1 24  1  0  0  0  0
  2 12  1  0  0  0  0
  2 26  1  1  0  0  0
  3  6  2  0  0  0  0
  3 12  1  0  0  0  0
  4  5  1  0  0  0  0
  4  7  2  0  0  0  0
  6  4  1  0  0  0  0
  7 19  1  0  0  0  0
  8  6  1  0  0  0  0
  9 10  1  0  0  0  0
 10 28  1  1  0  0  0
 10 13  1  0  0  0  0
 11  8  2  0  0  0  0
 11 16  1  0  0  0  0
 12 21  2  0  0  0  0
 13  2  1  0  0  0  0
 14 17  1  0  0  0  0
 14 23  1  0  0  0  0
 15 11  1  0  0  0  0
 16  5  1  0  0  0  0
 20 18  1  1  0  0  0
 20 15  1  0  0  0  0
 21  7  1  0  0  0  0
 22  1  2  0  0  0  0
 23 30  1  1  0  0  0
 23  9  1  0  0  0  0
 24 20  1  0  0  0  0
 26 25  2  0  0  0  0
 26 27  1  0  0  0  0
 29 28  3  0  0  0  0
 31 30  1  0  0  0  0
 31 33  1  0  0  0  0
 33 32  2  0  0  0  0
M  END
>  <MODEL>
5

>  <REMARK>
 VINA RESULT:      -5.4      3.820      8.315
  Name = 
  5 active torsions:
  status: ('A' for Active; 'I' for Inactive)
    1  A    between atoms: C_2  and  C_5
    2  A    between atoms: C_7  and  C_14
    3  A    between atoms: C_7  and  C_30
    4  A    between atoms: C_14  and  C_20
    5  A    between atoms: C_15  and  C_23
                            x       y       z     vdW  Elec       q    Type
                         _______ _______ _______ _____ _____    ______ ____

>  <TORSDO>
F 5

$$$$
=
 OpenBabel11062412333D

 33 35  0  0  1  0  0  0  0  0999 V2000
  187.2320  177.8610  137.9820 C   0  0  0  0  0  0  0  0  0  0  0  0
  181.3180  176.6190  139.0290 C   0  0  2  0  0  3  0  0  0  0  0  0
  183.4280  177.2340  140.1790 C   0  0  0  0  0  3  0  0  0  0  0  0
  183.4990  178.6200  142.1650 C   0  0  0  0  0  0  0  0  0  0  0  0
  184.3370  179.2550  143.2430 C   0  0  0  0  0  2  0  0  0  0  0  0
  184.1560  177.9020  141.1570 C   0  0  0  0  0  0  0  0  0  0  0  0
  182.0920  178.6620  142.1790 C   0  0  0  0  0  0  0  0  0  0  0  0
  185.5760  177.9510  141.0480 N   0  0  0  0  0  0  0  0  0  0  0  0
  183.5060  177.6530  137.1990 O   0  0  0  0  0  0  0  0  0  0  0  0
  182.2280  177.2650  136.7670 C   0  0  1  0  0  3  0  0  0  0  0  0
  186.3170  178.7590  141.7480 C   0  0  0  0  0  0  0  0  0  0  0  0
  182.0370  177.2750  140.1740 C   0  0  0  0  0  0  0  0  0  0  0  0
  181.1890  177.5670  137.8420 C   0  0  0  0  0  2  0  0  0  0  0  0
  185.6470  177.4220  136.1290 C   0  0  0  0  0  2  0  0  0  0  0  0
  187.7110  178.8770  141.4330 N   0  0  0  0  0  2  0  0  0  0  0  0
  185.6860  179.7470  142.6970 C   0  0  0  0  0  2  0  0  0  0  0  0
  186.2170  178.2760  137.1160 O   0  0  0  0  0  0  0  0  0  0  0  0
  188.2510  176.8550  140.4110 O   0  0  0  0  0  1  0  0  0  0  0  0
  181.3480  179.4050  143.2340 C   0  0  0  0  0  1  0  0  0  0  0  0
  188.2780  178.2430  140.2450 C   0  0  1  0  0  3  0  0  0  0  0  0
  181.3690  178.0080  141.1700 C   0  0  0  0  0  3  0  0  0  0  0  0
  187.8660  176.7930  137.7630 O   0  0  0  0  0  0  0  0  0  0  0  0
  184.4010  176.7130  136.6660 C   0  0  1  0  0  3  0  0  0  0  0  0
  187.5080  178.6470  139.1060 O   0  0  0  0  0  0  0  0  0  0  0  0
  179.9130  174.9380  140.2500 O   0  0  0  0  0  1  0  0  0  0  0  0
  179.9900  176.0480  139.4180 C   0  0  0  0  0  0  0  0  0  0  0  0
  178.9350  176.5630  138.9670 O   0  0  0  0  0  0  0  0  0  0  0  0
  181.8730  178.0070  135.5520 C   0  0  0  0  0  0  0  0  0  0  0  0
  181.5920  178.5930  134.5940 N   0  0  0  0  0  0  0  0  0  0  0  0
  184.7740  175.6790  137.7210 C   0  0  0  0  0  2  0  0  0  0  0  0
  184.1510  174.3270  137.4090 C   0  0  0  0  0  2  0  0  0  0  0  0
  186.3440  173.4780  137.6190 O   0  0  0  0  0  0  0  0  0  0  0  0
  185.1570  173.2260  137.5000 C   0  0  0  0  0  3  0  0  0  0  0  0
  1 24  1  0  0  0  0
  2 26  1  1  0  0  0
  2 12  1  0  0  0  0
  3  6  1  0  0  0  0
  4  7  1  0  0  0  0
  4  5  1  0  0  0  0
  6  4  2  0  0  0  0
  7 19  1  0  0  0  0
  8  6  1  0  0  0  0
  8 11  2  0  0  0  0
 10 28  1  6  0  0  0
 10  9  1  0  0  0  0
 10 13  1  0  0  0  0
 11 16  1  0  0  0  0
 12  3  2  0  0  0  0
 12 21  1  0  0  0  0
 13  2  1  0  0  0  0
 14 23  1  0  0  0  0
 14 17  1  0  0  0  0
 15 11  1  0  0  0  0
 16  5  1  0  0  0  0
 17  1  1  0  0  0  0
 20 18  1  1  0  0  0
 20 15  1  0  0  0  0
 21  7  2  0  0  0  0
 22  1  2  0  0  0  0
 23  9  1  0  0  0  0
 23 30  1  1  0  0  0
 24 20  1  0  0  0  0
 26 25  1  0  0  0  0
 27 26  2  0  0  0  0
 29 28  3  0  0  0  0
 31 33  1  0  0  0  0
 31 30  1  0  0  0  0
 33 32  2  0  0  0  0
M  END
>  <MODEL>
6

>  <REMARK>
 VINA RESULT:      -5.1      2.991      6.624
  Name = 
  5 active torsions:
  status: ('A' for Active; 'I' for Inactive)
    1  A    between atoms: C_2  and  C_5
    2  A    between atoms: C_7  and  C_14
    3  A    between atoms: C_7  and  C_30
    4  A    between atoms: C_14  and  C_20
    5  A    between atoms: C_15  and  C_23
                            x       y       z     vdW  Elec       q    Type
                         _______ _______ _______ _____ _____    ______ ____

>  <TORSDO>
F 5

$$$$
=
 OpenBabel11062412333D

 33 35  0  0  1  0  0  0  0  0999 V2000
  180.6060  177.1440  139.6960 C   0  0  0  0  0  0  0  0  0  0  0  0
  185.6750  177.2210  136.2440 C   0  0  2  0  0  3  0  0  0  0  0  0
  184.7080  178.1470  138.3320 C   0  0  0  0  0  3  0  0  0  0  0  0
  186.0310  178.6300  140.3040 C   0  0  0  0  0  0  0  0  0  0  0  0
  186.0680  179.1720  141.7090 C   0  0  0  0  0  2  0  0  0  0  0  0
  184.7910  178.5690  139.6540 C   0  0  0  0  0  0  0  0  0  0  0  0
  187.1960  178.2580  139.6060 C   0  0  0  0  0  0  0  0  0  0  0  0
  183.5880  178.8160  140.3770 N   0  0  0  0  0  0  0  0  0  0  0  0
  183.1820  175.7990  137.2280 O   0  0  0  0  0  0  0  0  0  0  0  0
  183.9030  175.4330  136.0800 C   0  0  1  0  0  3  0  0  0  0  0  0
  183.5480  178.9540  141.6690 C   0  0  0  0  0  0  0  0  0  0  0  0
  185.8500  177.7660  137.6330 C   0  0  0  0  0  0  0  0  0  0  0  0
  185.3870  175.7240  136.2700 C   0  0  0  0  0  2  0  0  0  0  0  0
  180.8190  175.7410  137.6650 C   0  0  0  0  0  2  0  0  0  0  0  0
  182.2750  179.0050  142.3270 N   0  0  0  0  0  2  0  0  0  0  0  0
  184.8010  178.8000  142.4940 C   0  0  0  0  0  2  0  0  0  0  0  0
  181.0800  176.0060  139.0400 O   0  0  0  0  0  0  0  0  0  0  0  0
  180.8050  179.7750  140.6930 O   0  0  0  0  0  1  0  0  0  0  0  0
  188.5380  178.3140  140.2510 C   0  0  0  0  0  1  0  0  0  0  0  0
  181.0340  178.7380  141.6030 C   0  0  1  0  0  3  0  0  0  0  0  0
  187.0960  177.8060  138.2820 C   0  0  0  0  0  3  0  0  0  0  0  0
  179.7130  177.8640  139.1690 O   0  0  0  0  0  0  0  0  0  0  0  0
  181.9430  176.2770  136.7760 C   0  0  1  0  0  3  0  0  0  0  0  0
  181.1630  177.4770  140.9360 O   0  0  0  0  0  0  0  0  0  0  0  0
  186.8460  178.7290  134.6170 O   0  0  0  0  0  0  0  0  0  0  0  0
  186.8230  177.5410  135.3380 C   0  0  0  0  0  0  0  0  0  0  0  0
  187.7620  176.7150  135.2080 O   0  0  0  0  0  1  0  0  0  0  0  0
  183.7350  173.9970  135.8290 C   0  0  0  0  0  0  0  0  0  0  0  0
  183.6040  172.8650  135.6320 N   0  0  0  0  0  0  0  0  0  0  0  0
  181.9400  177.8010  136.7530 C   0  0  0  0  0  2  0  0  0  0  0  0
  181.5990  178.3290  135.3670 C   0  0  0  0  0  2  0  0  0  0  0  0
  179.5760  179.5430  135.2470 O   0  0  0  0  0  0  0  0  0  0  0  0
  180.7800  179.5760  135.4430 C   0  0  0  0  0  3  0  0  0  0  0  0
  1 24  1  0  0  0  0
  2 26  1  6  0  0  0
  2 13  1  0  0  0  0
  2 12  1  0  0  0  0
  3  6  1  0  0  0  0
  4  5  1  0  0  0  0
  5 16  1  0  0  0  0
  6  4  2  0  0  0  0
  6  8  1  0  0  0  0
  7 19  1  0  0  0  0
  7  4  1  0  0  0  0
  8 11  2  0  0  0  0
 10 28  1  1  0  0  0
 10 13  1  0  0  0  0
 10  9  1  0  0  0  0
 11 15  1  0  0  0  0
 11 16  1  0  0  0  0
 12 21  1  0  0  0  0
 12  3  2  0  0  0  0
 14 17  1  0  0  0  0
 17  1  1  0  0  0  0
 20 18  1  6  0  0  0
 20 15  1  0  0  0  0
 21  7  2  0  0  0  0
 22  1  2  0  0  0  0
 23 30  1  1  0  0  0
 23  9  1  0  0  0  0
 23 14  1  0  0  0  0
 24 20  1  0  0  0  0
 25 26  2  0  0  0  0
 27 26  1  0  0  0  0
 29 28  3  0  0  0  0
 31 33  1  0  0  0  0
 31 30  1  0  0  0  0
 32 33  2  0  0  0  0
M  END
>  <MODEL>
7

>  <REMARK>
 VINA RESULT:      -5.1      2.705      4.428
  Name = 
  5 active torsions:
  status: ('A' for Active; 'I' for Inactive)
    1  A    between atoms: C_2  and  C_5
    2  A    between atoms: C_7  and  C_14
    3  A    between atoms: C_7  and  C_30
    4  A    between atoms: C_14  and  C_20
    5  A    between atoms: C_15  and  C_23
                            x       y       z     vdW  Elec       q    Type
                         _______ _______ _______ _____ _____    ______ ____

>  <TORSDO>
F 5

$$$$
=
 OpenBabel11062412333D

 33 35  0  0  1  0  0  0  0  0999 V2000
  180.6930  173.2370  136.4740 C   0  0  0  0  0  0  0  0  0  0  0  0
  183.3380  178.2960  138.7150 C   0  0  2  0  0  3  0  0  0  0  0  0
  183.8570  176.0400  137.8250 C   0  0  0  0  0  3  0  0  0  0  0  0
  185.8570  175.5460  136.5510 C   0  0  0  0  0  0  0  0  0  0  0  0
  186.6910  174.5100  135.8440 C   0  0  0  0  0  2  0  0  0  0  0  0
  184.6330  175.1430  137.0990 C   0  0  0  0  0  0  0  0  0  0  0  0
  186.2970  176.8700  136.7390 C   0  0  0  0  0  0  0  0  0  0  0  0
  184.1070  173.8500  136.8140 N   0  0  0  0  0  0  0  0  0  0  0  0
  181.0480  176.9540  137.2450 O   0  0  0  0  0  0  0  0  0  0  0  0
  180.9830  178.2370  137.8130 C   0  0  1  0  0  3  0  0  0  0  0  0
  184.6290  173.0470  135.9340 C   0  0  0  0  0  0  0  0  0  0  0  0
  184.2740  177.3550  138.0110 C   0  0  0  0  0  0  0  0  0  0  0  0
  182.3440  178.9190  137.7400 C   0  0  0  0  0  2  0  0  0  0  0  0
  179.3670  175.2440  137.0690 C   0  0  0  0  0  2  0  0  0  0  0  0
  183.9240  171.8510  135.5740 N   0  0  0  0  0  2  0  0  0  0  0  0
  185.8170  173.4800  135.1120 C   0  0  0  0  0  2  0  0  0  0  0  0
  180.2170  174.5180  136.1860 O   0  0  0  0  0  0  0  0  0  0  0  0
  182.5920  171.3810  137.4260 O   0  0  0  0  0  1  0  0  0  0  0  0
  187.5950  177.3430  136.1820 C   0  0  0  0  0  1  0  0  0  0  0  0
  182.5630  171.6010  136.0450 C   0  0  1  0  0  3  0  0  0  0  0  0
  185.4920  177.7730  137.4490 C   0  0  0  0  0  3  0  0  0  0  0  0
  180.1890  172.5610  137.4130 O   0  0  0  0  0  0  0  0  0  0  0  0
  180.1800  176.1490  137.9980 C   0  0  1  0  0  3  0  0  0  0  0  0
  181.7550  172.7350  135.7130 O   0  0  0  0  0  0  0  0  0  0  0  0
  184.5610  179.0490  140.7710 O   0  0  0  0  0  1  0  0  0  0  0  0
  184.0490  179.3440  139.5130 C   0  0  0  0  0  0  0  0  0  0  0  0
  184.1610  180.5090  139.0520 O   0  0  0  0  0  0  0  0  0  0  0  0
  180.0110  179.0530  137.0770 C   0  0  0  0  0  0  0  0  0  0  0  0
  179.2440  179.6960  136.4960 N   0  0  0  0  0  0  0  0  0  0  0  0
  180.9660  175.3250  139.0110 C   0  0  0  0  0  2  0  0  0  0  0  0
  180.1220  175.0150  140.2390 C   0  0  0  0  0  2  0  0  0  0  0  0
  179.3730  176.6670  141.7500 O   0  0  0  0  0  0  0  0  0  0  0  0
  179.2800  176.1830  140.6340 C   0  0  0  0  0  3  0  0  0  0  0  0
  1 22  2  0  0  0  0
  2 26  1  6  0  0  0
  3 12  1  0  0  0  0
  4  7  2  0  0  0  0
  4  6  1  0  0  0  0
  5  4  1  0  0  0  0
  6  3  2  0  0  0  0
  7 21  1  0  0  0  0
  8  6  1  0  0  0  0
  9 10  1  0  0  0  0
  9 23  1  0  0  0  0
 10 28  1  6  0  0  0
 11  8  2  0  0  0  0
 12  2  1  0  0  0  0
 13 10  1  0  0  0  0
 13  2  1  0  0  0  0
 14 23  1  0  0  0  0
 15 11  1  0  0  0  0
 15 20  1  0  0  0  0
 16  5  1  0  0  0  0
 16 11  1  0  0  0  0
 17  1  1  0  0  0  0
 17 14  1  0  0  0  0
 19  7  1  0  0  0  0
 20 18  1  1  0  0  0
 21 12  2  0  0  0  0
 23 30  1  1  0  0  0
 24 20  1  0  0  0  0
 24  1  1  0  0  0  0
 26 25  1  0  0  0  0
 27 26  2  0  0  0  0
 29 28  3  0  0  0  0
 30 31  1  0  0  0  0
 31 33  1  0  0  0  0
 33 32  2  0  0  0  0
M  END
>  <MODEL>
8

>  <REMARK>
 VINA RESULT:      -5.0      4.317      7.749
  Name = 
  5 active torsions:
  status: ('A' for Active; 'I' for Inactive)
    1  A    between atoms: C_2  and  C_5
    2  A    between atoms: C_7  and  C_14
    3  A    between atoms: C_7  and  C_30
    4  A    between atoms: C_14  and  C_20
    5  A    between atoms: C_15  and  C_23
                            x       y       z     vdW  Elec       q    Type
                         _______ _______ _______ _____ _____    ______ ____

>  <TORSDO>
F 5

$$$$
=
 OpenBabel11062412333D

 33 35  0  0  1  0  0  0  0  0999 V2000
  184.8720  178.7230  139.5720 C   0  0  0  0  0  0  0  0  0  0  0  0
  180.6790  174.9680  137.1370 C   0  0  2  0  0  3  0  0  0  0  0  0
  183.0840  175.5630  137.0200 C   0  0  0  0  0  3  0  0  0  0  0  0
  184.8250  173.9510  136.5320 C   0  0  0  0  0  0  0  0  0  0  0  0
  186.2910  173.6940  136.3010 C   0  0  0  0  0  2  0  0  0  0  0  0
  184.4300  175.2530  136.8680 C   0  0  0  0  0  0  0  0  0  0  0  0
  183.8450  172.9570  136.3510 C   0  0  0  0  0  0  0  0  0  0  0  0
  185.4060  176.2420  137.1810 N   0  0  0  0  0  0  0  0  0  0  0  0
  181.6900  176.6240  139.4690 O   0  0  0  0  0  0  0  0  0  0  0  0
  180.3720  176.1610  139.3390 C   0  0  1  0  0  3  0  0  0  0  0  0
  186.6710  175.9750  137.3260 C   0  0  0  0  0  0  0  0  0  0  0  0
  182.1040  174.5880  136.8550 C   0  0  0  0  0  0  0  0  0  0  0  0
  180.3500  174.8170  138.6190 C   0  0  0  0  0  2  0  0  0  0  0  0
  182.5340  178.6780  140.3900 C   0  0  0  0  0  2  0  0  0  0  0  0
  187.5460  176.9930  137.8310 N   0  0  0  0  0  2  0  0  0  0  0  0
  187.1710  174.5560  137.2190 C   0  0  0  0  0  2  0  0  0  0  0  0
  183.8540  178.1460  140.3340 O   0  0  0  0  0  0  0  0  0  0  0  0
  186.4920  178.9950  137.2790 O   0  0  0  0  0  1  0  0  0  0  0  0
  184.2150  171.5600  135.9860 C   0  0  0  0  0  1  0  0  0  0  0  0
  187.0240  178.2590  138.3410 C   0  0  1  0  0  3  0  0  0  0  0  0
  182.4920  173.2750  136.5360 C   0  0  0  0  0  3  0  0  0  0  0  0
  184.7400  179.8840  139.0970 O   0  0  0  0  0  0  0  0  0  0  0  0
  181.6290  178.0200  139.3460 C   0  0  1  0  0  3  0  0  0  0  0  0
  186.0280  177.9710  139.3290 O   0  0  0  0  0  0  0  0  0  0  0  0
  179.5770  174.5220  134.9280 O   0  0  0  0  0  0  0  0  0  0  0  0
  179.6940  174.2330  136.2820 C   0  0  0  0  0  0  0  0  0  0  0  0
  178.9470  173.3630  136.8000 O   0  0  0  0  0  1  0  0  0  0  0  0
  179.7760  175.9890  140.6690 C   0  0  0  0  0  0  0  0  0  0  0  0
  179.3060  175.8530  141.7170 N   0  0  0  0  0  0  0  0  0  0  0  0
  182.0220  178.4460  137.9370 C   0  0  0  0  0  2  0  0  0  0  0  0
  180.8950  179.2100  137.2590 C   0  0  0  0  0  2  0  0  0  0  0  0
  181.5950  181.2610  138.1970 O   0  0  0  0  0  0  0  0  0  0  0  0
  181.1790  180.6760  137.2110 C   0  0  0  0  0  3  0  0  0  0  0  0
  1 17  1  0  0  0  0
  2 26  1  6  0  0  0
  2 13  1  0  0  0  0
  4  6  2  0  0  0  0
  5  4  1  0  0  0  0
  5 16  1  0  0  0  0
  6  3  1  0  0  0  0
  6  8  1  0  0  0  0
  7  4  1  0  0  0  0
  7 21  2  0  0  0  0
  8 11  2  0  0  0  0
 10  9  1  0  0  0  0
 10 28  1  1  0  0  0
 11 15  1  0  0  0  0
 12  3  2  0  0  0  0
 12  2  1  0  0  0  0
 13 10  1  0  0  0  0
 15 20  1  0  0  0  0
 16 11  1  0  0  0  0
 17 14  1  0  0  0  0
 19  7  1  0  0  0  0
 20 18  1  6  0  0  0
 20 24  1  0  0  0  0
 21 12  1  0  0  0  0
 22  1  2  0  0  0  0
 23 30  1  6  0  0  0
 23  9  1  0  0  0  0
 23 14  1  0  0  0  0
 24  1  1  0  0  0  0
 25 26  2  0  0  0  0
 26 27  1  0  0  0  0
 28 29  3  0  0  0  0
 31 30  1  0  0  0  0
 33 31  1  0  0  0  0
 33 32  2  0  0  0  0
M  END
>  <MODEL>
9

>  <REMARK>
 VINA RESULT:      -4.9      3.364      7.495
  Name = 
  5 active torsions:
  status: ('A' for Active; 'I' for Inactive)
    1  A    between atoms: C_2  and  C_5
    2  A    between atoms: C_7  and  C_14
    3  A    between atoms: C_7  and  C_30
    4  A    between atoms: C_14  and  C_20
    5  A    between atoms: C_15  and  C_23
                            x       y       z     vdW  Elec       q    Type
                         _______ _______ _______ _____ _____    ______ ____

>  <TORSDO>
F 5

$$$$
