=
 OpenBabel11062412113D

 55 62  0  0  1  0  0  0  0  0999 V2000
  191.2480  175.7360  137.2820 C   0  0  2  0  0  3  0  0  0  0  0  0
  187.8320  172.9050  134.7680 C   0  0  2  0  0  3  0  0  0  0  0  0
  190.2040  175.0960  138.2190 C   0  0  0  0  0  2  0  0  0  0  0  0
  190.8470  177.1660  136.9390 C   0  0  0  0  0  2  0  0  0  0  0  0
  187.8440  175.1730  136.7350 C   0  0  1  0  0  3  0  0  0  0  0  0
  186.9310  174.1360  134.5930 C   0  0  0  0  0  2  0  0  0  0  0  0
  187.3220  171.7950  135.7020 C   0  0  0  0  0  2  0  0  0  0  0  0
  186.8020  174.5900  137.4670 O   0  0  0  0  0  0  0  0  0  0  0  0
  192.8470  175.4230  135.4070 C   0  0  0  0  0  1  0  0  0  0  0  0
  189.3480  173.1420  134.7400 C   0  0  0  0  0  2  0  0  0  0  0  0
  191.4550  173.4140  136.1470 C   0  0  1  0  0  3  0  0  0  0  0  0
  191.5140  174.9490  135.9820 C   0  0  1  0  0  3  0  0  0  0  0  0
  187.4360  175.4080  135.2790 C   0  0  0  0  0  2  0  0  0  0  0  0
  189.1700  175.9920  138.5970 O   0  0  0  0  0  0  0  0  0  0  0  0
  185.2360  172.6310  136.6010 O   0  0  0  0  0  1  0  0  0  0  0  0
  188.4350  176.4220  137.4560 C   0  0  1  0  0  0  0  0  0  0  0  0
  187.7800  178.6690  138.5330 C   0  0  1  0  0  3  0  0  0  0  0  0
  186.5340  172.2430  136.9400 C   0  0  2  0  0  3  0  0  0  0  0  0
  187.2430  173.2990  137.7880 C   0  0  0  0  0  2  0  0  0  0  0  0
  190.0120  172.9120  136.1000 C   0  0  0  0  0  2  0  0  0  0  0  0
  189.3850  177.2220  136.4910 C   0  0  1  0  0  3  0  0  0  0  0  0
  188.9810  178.6820  136.2820 C   0  0  0  0  0  2  0  0  0  0  0  0
  188.7960  179.3820  137.6260 C   0  0  0  0  0  2  0  0  0  0  0  0
  187.2770  177.3280  137.9740 C   0  0  1  0  0  3  0  0  0  0  0  0
  192.3100  172.6390  135.1280 C   0  0  0  0  0  2  0  0  0  0  0  0
  196.0140  172.5170  134.9200 C   0  0  0  0  0  0  0  0  0  0  0  0
  194.6600  171.9160  134.5940 C   0  0  1  0  0  3  0  0  0  0  0  0
  193.6990  170.6250  135.7480 C   0  0  0  0  0  2  0  0  0  0  0  0
  194.7510  170.4540  134.7300 N   0  0  0  0  0  0  0  0  0  0  0  0
  193.6490  172.1160  135.6720 C   0  0  2  0  0  3  0  0  0  0  0  0
  197.1250  171.7530  134.9180 C   0  0  0  0  0  3  0  0  0  0  0  0
  197.0860  170.2800  134.7230 C   0  0  0  0  0  3  0  0  0  0  0  0
  195.9150  169.6440  134.6500 C   0  0  0  0  0  3  0  0  0  0  0  0
  196.1420  173.9930  135.1160 C   0  0  0  0  0  2  0  0  0  0  0  0
  198.2360  174.9380  138.0810 N   0  0  0  0  0  0  0  0  0  0  0  0
  197.9810  174.7450  136.7590 C   0  0  0  0  0  0  0  0  0  0  0  0
  197.1360  174.7730  140.0850 O   0  0  0  0  0  0  0  0  0  0  0  0
  199.0190  174.9920  135.7210 C   0  0  0  0  0  1  0  0  0  0  0  0
  195.8350  174.1520  137.9140 S   0  0  0  0  0  0  0  0  0  0  0  0
  196.6890  174.3070  136.4690 C   0  0  2  0  0  3  0  0  0  0  0  0
  197.1510  174.6540  138.8330 C   0  0  0  0  0  0  0  0  0  0  0  0
  186.3270  177.5830  136.9720 O   0  0  0  0  0  0  0  0  0  0  0  0
  185.0980  177.1840  137.5060 C   0  0  1  0  0  3  0  0  0  0  0  0
  184.5910  178.2410  138.4840 C   0  0  0  0  0  2  0  0  0  0  0  0
  182.3260  177.2130  138.2110 C   0  0  0  0  0  0  0  0  0  0  0  0
  182.7570  176.5250  136.9390 C   0  0  0  0  0  2  0  0  0  0  0  0
  183.1880  177.9440  138.9360 C   0  0  0  0  0  3  0  0  0  0  0  0
  184.0820  177.0490  136.3830 C   0  0  0  0  0  2  0  0  0  0  0  0
  180.4000  177.7880  139.6670 C   0  0  0  0  0  1  0  0  0  0  0  0
  181.0090  177.0130  138.6430 O   0  0  0  0  0  0  0  0  0  0  0  0
  188.3240  178.4930  139.8060 O   0  0  0  0  0  0  0  0  0  0  0  0
  187.2380  178.6010  140.6760 C   0  0  0  0  0  2  0  0  0  0  0  0
  187.6520  178.2150  142.0520 C   0  0  0  0  0  0  0  0  0  0  0  0
  186.7940  178.1430  142.9710 O   0  0  0  0  0  0  0  0  0  0  0  0
  189.0200  177.9430  142.3340 N   0  0  0  0  0  1  0  0  0  0  0  0
  1  4  1  6  0  0  0
  1  3  1  0  0  0  0
  2  6  1  1  0  0  0
  2  7  1  0  0  0  0
  3 14  1  0  0  0  0
  5 13  1  6  0  0  0
  5 16  1  0  0  0  0
  5  8  1  0  0  0  0
  6 13  1  0  0  0  0
  7 18  1  0  0  0  0
  8 19  1  0  0  0  0
 10  2  1  0  0  0  0
 10 20  1  0  0  0  0
 11 25  1  6  0  0  0
 12  9  1  1  0  0  0
 12 11  1  0  0  0  0
 12  1  1  0  0  0  0
 16 24  1  0  0  0  0
 16 14  1  1  0  0  0
 17 51  1  1  0  0  0
 18 15  1  6  0  0  0
 18 19  1  0  0  0  0
 20 11  1  0  0  0  0
 21 22  1  1  0  0  0
 21  4  1  0  0  0  0
 21 16  1  0  0  0  0
 22 23  1  0  0  0  0
 23 17  1  0  0  0  0
 24 42  1  6  0  0  0
 24 17  1  0  0  0  0
 26 34  1  0  0  0  0
 27 29  1  0  0  0  0
 27 26  1  1  0  0  0
 27 30  1  0  0  0  0
 29 28  1  0  0  0  0
 30 25  1  6  0  0  0
 30 28  1  0  0  0  0
 31 26  2  0  0  0  0
 32 31  1  0  0  0  0
 33 32  2  0  0  0  0
 33 29  1  0  0  0  0
 35 41  1  0  0  0  0
 36 35  2  0  0  0  0
 38 36  1  0  0  0  0
 39 41  1  0  0  0  0
 40 34  1  1  0  0  0
 40 36  1  0  0  0  0
 40 39  1  0  0  0  0
 41 37  2  0  0  0  0
 43 42  1  6  0  0  0
 43 44  1  0  0  0  0
 44 47  1  0  0  0  0
 45 50  1  0  0  0  0
 45 47  2  0  0  0  0
 46 45  1  0  0  0  0
 48 46  1  0  0  0  0
 48 43  1  0  0  0  0
 50 49  1  0  0  0  0
 51 52  1  0  0  0  0
 52 53  1  0  0  0  0
 53 55  1  0  0  0  0
 53 54  2  0  0  0  0
M  END
>  <MODEL>
1

>  <REMARK>
 VINA RESULT:      -4.8      0.000      0.000
  Name = 
  10 active torsions:
  status: ('A' for Active; 'I' for Inactive)
    1  A    between atoms: C_3  and  C_27
    2  A    between atoms: C_4  and  C_20
    3  A    between atoms: C_4  and  C_33
    4  A    between atoms: C_5  and  C_46
    5  A    between atoms: C_12  and  O_24
    6  A    between atoms: C_19  and  O_29
    7  A    between atoms: O_24  and  C_53
    8  A    between atoms: C_27  and  O_55
    9  A    between atoms: C_35  and  O_55
   10  A    between atoms: C_40  and  C_46
                            x       y       z     vdW  Elec       q    Type
                         _______ _______ _______ _____ _____    ______ ____

>  <TORSDO>
F 10

$$$$
=
 OpenBabel11062412113D

 55 62  0  0  1  0  0  0  0  0999 V2000
  187.0710  178.6690  142.0600 C   0  0  2  0  0  3  0  0  0  0  0  0
  186.3020  177.1740  137.2450 C   0  0  2  0  0  3  0  0  0  0  0  0
  187.9610  179.4270  141.0540 C   0  0  0  0  0  2  0  0  0  0  0  0
  187.8380  177.5050  142.6760 C   0  0  0  0  0  2  0  0  0  0  0  0
  188.6020  177.4950  139.1470 C   0  0  1  0  0  3  0  0  0  0  0  0
  187.3830  176.0950  137.4010 C   0  0  0  0  0  2  0  0  0  0  0  0
  186.6190  178.3470  136.3030 C   0  0  0  0  0  2  0  0  0  0  0  0
  189.3990  178.0610  138.1450 O   0  0  0  0  0  0  0  0  0  0  0  0
  184.7950  177.8630  142.6450 C   0  0  0  0  0  1  0  0  0  0  0  0
  185.4520  177.4920  138.4830 C   0  0  0  0  0  2  0  0  0  0  0  0
  185.1000  179.0970  140.4300 C   0  0  1  0  0  3  0  0  0  0  0  0
  185.7360  178.1580  141.4790 C   0  0  1  0  0  3  0  0  0  0  0  0
  188.1120  176.1010  138.7470 C   0  0  0  0  0  2  0  0  0  0  0  0
  189.2860  178.9200  140.9900 O   0  0  0  0  0  0  0  0  0  0  0  0
  188.8830  177.9560  135.5440 O   0  0  0  0  0  1  0  0  0  0  0  0
  189.2860  177.5670  140.5460 C   0  0  1  0  0  0  0  0  0  0  0  0
  191.4670  176.9960  141.7940 C   0  0  1  0  0  3  0  0  0  0  0  0
  188.0740  178.8320  136.2710 C   0  0  2  0  0  3  0  0  0  0  0  0
  188.6630  179.1450  137.6470 C   0  0  0  0  0  2  0  0  0  0  0  0
  185.7260  178.8860  139.0520 C   0  0  0  0  0  2  0  0  0  0  0  0
  188.5180  176.6730  141.5870 C   0  0  1  0  0  3  0  0  0  0  0  0
  189.3830  175.5970  142.2460 C   0  0  0  0  0  2  0  0  0  0  0  0
  190.6490  176.2150  142.8340 C   0  0  0  0  0  2  0  0  0  0  0  0
  190.7770  177.1270  140.4260 C   0  0  1  0  0  3  0  0  0  0  0  0
  183.5670  178.9810  140.3300 C   0  0  0  0  0  2  0  0  0  0  0  0
  181.2260  177.9970  137.6250 C   0  0  0  0  0  0  0  0  0  0  0  0
  181.5950  178.0260  139.0960 C   0  0  1  0  0  3  0  0  0  0  0  0
  182.6770  176.6410  140.0070 C   0  0  0  0  0  2  0  0  0  0  0  0
  181.2400  176.7300  139.6940 N   0  0  0  0  0  0  0  0  0  0  0  0
  183.0620  177.9210  139.3390 C   0  0  2  0  0  3  0  0  0  0  0  0
  180.3670  177.0730  137.1470 C   0  0  0  0  0  3  0  0  0  0  0  0
  179.8320  175.9670  137.9850 C   0  0  0  0  0  3  0  0  0  0  0  0
  180.2780  175.7930  139.2300 C   0  0  0  0  0  3  0  0  0  0  0  0
  181.7110  179.0810  136.7170 C   0  0  0  0  0  2  0  0  0  0  0  0
  179.3240  181.9700  136.5530 N   0  0  0  0  0  0  0  0  0  0  0  0
  179.8420  180.7720  136.1720 C   0  0  0  0  0  0  0  0  0  0  0  0
  179.7010  183.5770  138.1440 O   0  0  0  0  0  0  0  0  0  0  0  0
  179.2670  180.0010  135.0360 C   0  0  0  0  0  1  0  0  0  0  0  0
  181.2670  181.4950  138.1060 S   0  0  0  0  0  0  0  0  0  0  0  0
  180.9340  180.3390  136.9250 C   0  0  2  0  0  3  0  0  0  0  0  0
  180.0030  182.4830  137.6020 C   0  0  0  0  0  0  0  0  0  0  0  0
  190.9070  175.9120  139.7350 O   0  0  0  0  0  0  0  0  0  0  0  0
  191.5340  176.2300  138.5270 C   0  0  1  0  0  3  0  0  0  0  0  0
  193.0360  176.3880  138.7470 C   0  0  0  0  0  2  0  0  0  0  0  0
  193.2950  176.0730  136.2790 C   0  0  0  0  0  0  0  0  0  0  0  0
  191.9160  175.4700  136.1790 C   0  0  0  0  0  2  0  0  0  0  0  0
  193.7700  176.5410  137.4450 C   0  0  0  0  0  3  0  0  0  0  0  0
  191.3150  175.0980  137.5340 C   0  0  0  0  0  2  0  0  0  0  0  0
  195.0660  177.1550  134.9150 C   0  0  0  0  0  1  0  0  0  0  0  0
  194.0420  176.1850  135.0990 O   0  0  0  0  0  0  0  0  0  0  0  0
  191.7920  178.2570  142.2970 O   0  0  0  0  0  0  0  0  0  0  0  0
  191.8360  178.0880  143.6820 C   0  0  0  0  0  2  0  0  0  0  0  0
  190.8710  179.0140  144.3350 C   0  0  0  0  0  0  0  0  0  0  0  0
  190.9040  180.2450  144.0720 O   0  0  0  0  0  0  0  0  0  0  0  0
  189.9220  178.5120  145.2690 N   0  0  0  0  0  1  0  0  0  0  0  0
  1  3  1  6  0  0  0
  1  4  1  0  0  0  0
  2  7  1  1  0  0  0
  2  6  1  0  0  0  0
  2 10  1  0  0  0  0
  5 13  1  6  0  0  0
  5 16  1  0  0  0  0
  6 13  1  0  0  0  0
  8  5  1  0  0  0  0
 10 20  1  0  0  0  0
 11 25  1  6  0  0  0
 11 12  1  0  0  0  0
 12  1  1  0  0  0  0
 12  9  1  1  0  0  0
 14  3  1  0  0  0  0
 16 14  1  1  0  0  0
 16 21  1  0  0  0  0
 17 51  1  1  0  0  0
 17 23  1  0  0  0  0
 18 15  1  1  0  0  0
 18  7  1  0  0  0  0
 18 19  1  0  0  0  0
 19  8  1  0  0  0  0
 20 11  1  0  0  0  0
 21 22  1  1  0  0  0
 21  4  1  0  0  0  0
 22 23  1  0  0  0  0
 24 42  1  1  0  0  0
 24 16  1  0  0  0  0
 24 17  1  0  0  0  0
 27 26  1  6  0  0  0
 27 30  1  0  0  0  0
 27 29  1  0  0  0  0
 29 28  1  0  0  0  0
 30 28  1  0  0  0  0
 30 25  1  1  0  0  0
 31 26  2  0  0  0  0
 31 32  1  0  0  0  0
 32 33  2  0  0  0  0
 33 29  1  0  0  0  0
 34 26  1  0  0  0  0
 35 41  1  0  0  0  0
 36 35  2  0  0  0  0
 36 40  1  0  0  0  0
 38 36  1  0  0  0  0
 40 34  1  6  0  0  0
 40 39  1  0  0  0  0
 41 39  1  0  0  0  0
 41 37  2  0  0  0  0
 43 44  1  0  0  0  0
 43 42  1  1  0  0  0
 45 47  2  0  0  0  0
 46 45  1  0  0  0  0
 46 48  1  0  0  0  0
 47 44  1  0  0  0  0
 48 43  1  0  0  0  0
 49 50  1  0  0  0  0
 50 45  1  0  0  0  0
 51 52  1  0  0  0  0
 52 53  1  0  0  0  0
 53 55  1  0  0  0  0
 54 53  2  0  0  0  0
M  END
>  <MODEL>
2

>  <REMARK>
 VINA RESULT:      -4.0      4.733     11.199
  Name = 
  10 active torsions:
  status: ('A' for Active; 'I' for Inactive)
    1  A    between atoms: C_3  and  C_27
    2  A    between atoms: C_4  and  C_20
    3  A    between atoms: C_4  and  C_33
    4  A    between atoms: C_5  and  C_46
    5  A    between atoms: C_12  and  O_24
    6  A    between atoms: C_19  and  O_29
    7  A    between atoms: O_24  and  C_53
    8  A    between atoms: C_27  and  O_55
    9  A    between atoms: C_35  and  O_55
   10  A    between atoms: C_40  and  C_46
                            x       y       z     vdW  Elec       q    Type
                         _______ _______ _______ _____ _____    ______ ____

>  <TORSDO>
F 10

$$$$
=
 OpenBabel11062412113D

 55 62  0  0  1  0  0  0  0  0999 V2000
  186.8380  178.7110  141.8630 C   0  0  2  0  0  3  0  0  0  0  0  0
  186.2080  177.0410  137.0860 C   0  0  2  0  0  3  0  0  0  0  0  0
  187.7360  179.4510  140.8530 C   0  0  0  0  0  2  0  0  0  0  0  0
  187.6120  177.5830  142.5360 C   0  0  0  0  0  2  0  0  0  0  0  0
  188.4570  177.4700  139.0280 C   0  0  1  0  0  3  0  0  0  0  0  0
  187.3060  175.9890  137.3030 C   0  0  0  0  0  2  0  0  0  0  0  0
  186.5250  178.1880  136.1130 C   0  0  0  0  0  2  0  0  0  0  0  0
  189.2660  178.0180  138.0250 O   0  0  0  0  0  0  0  0  0  0  0  0
  184.5650  177.8800  142.4240 C   0  0  0  0  0  1  0  0  0  0  0  0
  185.3240  177.3840  138.2930 C   0  0  0  0  0  2  0  0  0  0  0  0
  184.8970  179.0450  140.1760 C   0  0  1  0  0  3  0  0  0  0  0  0
  185.5270  178.1540  141.2710 C   0  0  1  0  0  3  0  0  0  0  0  0
  188.0030  176.0550  138.6630 C   0  0  0  0  0  2  0  0  0  0  0  0
  189.0720  178.9690  140.8360 O   0  0  0  0  0  0  0  0  0  0  0  0
  188.8130  177.8170  135.4180 O   0  0  0  0  0  1  0  0  0  0  0  0
  189.1080  177.6020  140.4380 C   0  0  1  0  0  0  0  0  0  0  0  0
  191.2690  177.1160  141.7530 C   0  0  1  0  0  3  0  0  0  0  0  0
  187.9710  178.7000  136.0970 C   0  0  2  0  0  3  0  0  0  0  0  0
  188.5220  179.0700  137.4740 C   0  0  0  0  0  2  0  0  0  0  0  0
  185.5590  178.8010  138.8210 C   0  0  0  0  0  2  0  0  0  0  0  0
  188.3330  176.7290  141.4910 C   0  0  1  0  0  3  0  0  0  0  0  0
  189.2010  175.6910  142.2050 C   0  0  0  0  0  2  0  0  0  0  0  0
  190.4420  176.3540  142.8000 C   0  0  0  0  0  2  0  0  0  0  0  0
  190.6090  177.1870  140.3670 C   0  0  1  0  0  3  0  0  0  0  0  0
  183.3700  178.8960  140.0460 C   0  0  0  0  0  2  0  0  0  0  0  0
  180.1380  180.7080  139.8320 C   0  0  0  0  0  0  0  0  0  0  0  0
  181.3140  180.0340  139.1500 C   0  0  1  0  0  3  0  0  0  0  0  0
  182.9890  180.9550  138.6360 C   0  0  0  0  0  2  0  0  0  0  0  0
  181.6840  180.8240  137.9650 N   0  0  0  0  0  0  0  0  0  0  0  0
  182.6030  180.2170  139.8760 C   0  0  2  0  0  3  0  0  0  0  0  0
  179.3880  181.6160  139.1750 C   0  0  0  0  0  3  0  0  0  0  0  0
  179.7270  182.1010  137.8110 C   0  0  0  0  0  3  0  0  0  0  0  0
  180.8660  181.7220  137.2290 C   0  0  0  0  0  3  0  0  0  0  0  0
  179.7230  180.2690  141.1990 C   0  0  0  0  0  2  0  0  0  0  0  0
  179.6760  176.6380  142.1400 N   0  0  0  0  0  0  0  0  0  0  0  0
  179.8800  177.9660  142.3480 C   0  0  0  0  0  0  0  0  0  0  0  0
  178.9310  175.2560  140.4700 O   0  0  0  0  0  0  0  0  0  0  0  0
  180.3890  178.4810  143.6500 C   0  0  0  0  0  1  0  0  0  0  0  0
  179.0340  177.8150  139.9920 S   0  0  0  0  0  0  0  0  0  0  0  0
  179.5750  178.7840  141.2610 C   0  0  2  0  0  3  0  0  0  0  0  0
  179.2120  176.4060  140.8930 C   0  0  0  0  0  0  0  0  0  0  0  0
  190.7770  175.9520  139.7200 O   0  0  0  0  0  0  0  0  0  0  0  0
  191.4150  176.2440  138.5100 C   0  0  1  0  0  3  0  0  0  0  0  0
  192.9110  176.4360  138.7450 C   0  0  0  0  0  2  0  0  0  0  0  0
  193.2090  176.0490  136.2910 C   0  0  0  0  0  0  0  0  0  0  0  0
  191.8420  175.4170  136.1930 C   0  0  0  0  0  2  0  0  0  0  0  0
  193.6590  176.5620  137.4480 C   0  0  0  0  0  3  0  0  0  0  0  0
  191.2300  175.0770  137.5520 C   0  0  0  0  0  2  0  0  0  0  0  0
  195.0580  177.0380  134.9630 C   0  0  0  0  0  1  0  0  0  0  0  0
  193.9690  176.1380  135.1190 O   0  0  0  0  0  0  0  0  0  0  0  0
  191.5590  178.3980  142.2210 O   0  0  0  0  0  0  0  0  0  0  0  0
  191.7970  178.2350  143.5870 C   0  0  0  0  0  2  0  0  0  0  0  0
  190.8720  179.1000  144.3680 C   0  0  0  0  0  0  0  0  0  0  0  0
  191.0220  180.3500  144.3620 O   0  0  0  0  0  0  0  0  0  0  0  0
  189.8270  178.5140  145.1360 N   0  0  0  0  0  1  0  0  0  0  0  0
  1  3  1  6  0  0  0
  1  4  1  0  0  0  0
  2  7  1  1  0  0  0
  2  6  1  0  0  0  0
  2 10  1  0  0  0  0
  5 13  1  6  0  0  0
  5 16  1  0  0  0  0
  6 13  1  0  0  0  0
  8  5  1  0  0  0  0
 10 20  1  0  0  0  0
 11 25  1  6  0  0  0
 11 12  1  0  0  0  0
 12  1  1  0  0  0  0
 12  9  1  1  0  0  0
 14  3  1  0  0  0  0
 16 14  1  1  0  0  0
 16 21  1  0  0  0  0
 17 51  1  1  0  0  0
 17 23  1  0  0  0  0
 18 15  1  1  0  0  0
 18  7  1  0  0  0  0
 18 19  1  0  0  0  0
 19  8  1  0  0  0  0
 20 11  1  0  0  0  0
 21 22  1  1  0  0  0
 21  4  1  0  0  0  0
 22 23  1  0  0  0  0
 24 42  1  1  0  0  0
 24 16  1  0  0  0  0
 24 17  1  0  0  0  0
 26 34  1  0  0  0  0
 27 26  1  1  0  0  0
 27 30  1  0  0  0  0
 28 30  1  0  0  0  0
 29 28  1  0  0  0  0
 29 27  1  0  0  0  0
 30 25  1  6  0  0  0
 31 26  2  0  0  0  0
 32 31  1  0  0  0  0
 33 32  2  0  0  0  0
 33 29  1  0  0  0  0
 35 36  2  0  0  0  0
 36 38  1  0  0  0  0
 37 41  2  0  0  0  0
 39 41  1  0  0  0  0
 39 40  1  0  0  0  0
 40 34  1  6  0  0  0
 40 36  1  0  0  0  0
 41 35  1  0  0  0  0
 43 44  1  0  0  0  0
 43 42  1  1  0  0  0
 45 47  2  0  0  0  0
 46 45  1  0  0  0  0
 46 48  1  0  0  0  0
 47 44  1  0  0  0  0
 48 43  1  0  0  0  0
 49 50  1  0  0  0  0
 50 45  1  0  0  0  0
 51 52  1  0  0  0  0
 52 53  1  0  0  0  0
 53 55  1  0  0  0  0
 54 53  2  0  0  0  0
M  END
>  <MODEL>
3

>  <REMARK>
 VINA RESULT:      -4.0      4.722     11.682
  Name = 
  10 active torsions:
  status: ('A' for Active; 'I' for Inactive)
    1  A    between atoms: C_3  and  C_27
    2  A    between atoms: C_4  and  C_20
    3  A    between atoms: C_4  and  C_33
    4  A    between atoms: C_5  and  C_46
    5  A    between atoms: C_12  and  O_24
    6  A    between atoms: C_19  and  O_29
    7  A    between atoms: O_24  and  C_53
    8  A    between atoms: C_27  and  O_55
    9  A    between atoms: C_35  and  O_55
   10  A    between atoms: C_40  and  C_46
                            x       y       z     vdW  Elec       q    Type
                         _______ _______ _______ _____ _____    ______ ____

>  <TORSDO>
F 10

$$$$
=
 OpenBabel11062412113D

 55 62  0  0  1  0  0  0  0  0999 V2000
  186.8340  175.3570  135.8800 C   0  0  2  0  0  3  0  0  0  0  0  0
  188.0790  179.0580  139.1600 C   0  0  2  0  0  3  0  0  0  0  0  0
  187.2660  174.8100  137.2550 C   0  0  0  0  0  2  0  0  0  0  0  0
  188.0070  175.3340  134.9070 C   0  0  0  0  0  2  0  0  0  0  0  0
  189.2970  176.5470  138.0530 C   0  0  1  0  0  3  0  0  0  0  0  0
  189.5350  179.0070  138.6740 C   0  0  0  0  0  2  0  0  0  0  0  0
  187.8050  178.5670  140.5910 C   0  0  0  0  0  2  0  0  0  0  0  0
  189.7700  176.1770  139.3180 O   0  0  0  0  0  0  0  0  0  0  0  0
  185.4400  176.9820  134.6190 C   0  0  0  0  0  1  0  0  0  0  0  0
  186.9870  178.7890  138.1160 C   0  0  0  0  0  2  0  0  0  0  0  0
  185.3680  177.0640  137.1700 C   0  0  1  0  0  3  0  0  0  0  0  0
  186.2200  176.7730  135.9140 C   0  0  1  0  0  3  0  0  0  0  0  0
  189.8320  177.9200  137.6390 C   0  0  0  0  0  2  0  0  0  0  0  0
  188.6090  174.3520  137.2760 O   0  0  0  0  0  0  0  0  0  0  0  0
  189.9440  177.7910  141.4160 O   0  0  0  0  0  1  0  0  0  0  0  0
  189.5090  175.4200  136.9970 C   0  0  1  0  0  0  0  0  0  0  0  0
  191.2980  173.8570  135.9980 C   0  0  1  0  0  3  0  0  0  0  0  0
  188.6480  177.3860  141.0890 C   0  0  2  0  0  3  0  0  0  0  0  0
  188.6470  176.1750  140.1550 C   0  0  0  0  0  2  0  0  0  0  0  0
  186.2510  177.4680  138.3510 C   0  0  0  0  0  2  0  0  0  0  0  0
  189.2470  175.9620  135.5450 C   0  0  1  0  0  3  0  0  0  0  0  0
  190.4350  175.8040  134.5940 C   0  0  0  0  0  2  0  0  0  0  0  0
  190.9290  174.3590  134.5940 C   0  0  0  0  0  2  0  0  0  0  0  0
  190.9530  174.8450  137.1250 C   0  0  1  0  0  3  0  0  0  0  0  0
  184.2700  178.1210  136.9530 C   0  0  0  0  0  2  0  0  0  0  0  0
  181.5220  177.3730  139.3320 C   0  0  0  0  0  0  0  0  0  0  0  0
  182.7060  176.9080  138.5060 C   0  0  1  0  0  3  0  0  0  0  0  0
  182.5850  176.2690  136.6360 C   0  0  0  0  0  2  0  0  0  0  0  0
  182.3880  175.5930  137.9300 N   0  0  0  0  0  0  0  0  0  0  0  0
  182.8370  177.6270  137.2050 C   0  0  2  0  0  3  0  0  0  0  0  0
  180.5780  176.4980  139.7370 C   0  0  0  0  0  3  0  0  0  0  0  0
  180.5670  175.0750  139.3070 C   0  0  0  0  0  3  0  0  0  0  0  0
  181.4480  174.6400  138.4050 C   0  0  0  0  0  3  0  0  0  0  0  0
  181.4650  178.7850  139.8170 C   0  0  0  0  0  2  0  0  0  0  0  0
  181.4250  179.2590  143.5380 N   0  0  0  0  0  0  0  0  0  0  0  0
  180.8920  179.2530  142.2870 C   0  0  0  0  0  0  0  0  0  0  0  0
  183.4240  178.7850  144.5550 O   0  0  0  0  0  0  0  0  0  0  0  0
  179.4740  179.6370  142.0430 C   0  0  0  0  0  1  0  0  0  0  0  0
  183.2680  178.5140  141.9680 S   0  0  0  0  0  0  0  0  0  0  0  0
  181.7700  178.8620  141.2770 C   0  0  2  0  0  3  0  0  0  0  0  0
  182.7200  178.8750  143.5170 C   0  0  0  0  0  0  0  0  0  0  0  0
  191.9190  175.8630  137.1470 O   0  0  0  0  0  0  0  0  0  0  0  0
  193.1290  175.2430  136.8200 C   0  0  1  0  0  3  0  0  0  0  0  0
  193.9200  176.1230  135.8570 C   0  0  0  0  0  2  0  0  0  0  0  0
  195.9390  174.8010  136.5180 C   0  0  0  0  0  0  0  0  0  0  0  0
  195.2420  174.2980  137.7580 C   0  0  0  0  0  2  0  0  0  0  0  0
  195.3050  175.5840  135.6300 C   0  0  0  0  0  3  0  0  0  0  0  0
  193.9560  175.0580  138.0840 C   0  0  0  0  0  2  0  0  0  0  0  0
  198.2120  175.1430  135.5810 C   0  0  0  0  0  1  0  0  0  0  0  0
  197.2520  174.3720  136.2920 O   0  0  0  0  0  0  0  0  0  0  0  0
  190.6940  172.6210  136.2330 O   0  0  0  0  0  0  0  0  0  0  0  0
  190.2960  172.1730  134.9720 C   0  0  0  0  0  2  0  0  0  0  0  0
  189.0610  171.3520  135.0940 C   0  0  0  0  0  0  0  0  0  0  0  0
  189.1450  170.1250  135.3660 O   0  0  0  0  0  0  0  0  0  0  0  0
  187.7850  171.9480  134.8870 N   0  0  0  0  0  1  0  0  0  0  0  0
  1  4  1  6  0  0  0
  1 12  1  0  0  0  0
  1  3  1  0  0  0  0
  2 10  1  6  0  0  0
  2  7  1  0  0  0  0
  3 14  1  0  0  0  0
  4 21  1  0  0  0  0
  5 13  1  6  0  0  0
  5  8  1  0  0  0  0
  6  2  1  0  0  0  0
  7 18  1  0  0  0  0
  8 19  1  0  0  0  0
 10 20  1  0  0  0  0
 11 25  1  6  0  0  0
 11 20  1  0  0  0  0
 12  9  1  6  0  0  0
 12 11  1  0  0  0  0
 13  6  1  0  0  0  0
 16 24  1  0  0  0  0
 16 14  1  1  0  0  0
 16  5  1  0  0  0  0
 17 51  1  1  0  0  0
 17 24  1  0  0  0  0
 18 15  1  6  0  0  0
 19 18  1  0  0  0  0
 21 22  1  6  0  0  0
 21 16  1  0  0  0  0
 22 23  1  0  0  0  0
 23 17  1  0  0  0  0
 24 42  1  6  0  0  0
 26 31  2  0  0  0  0
 26 34  1  0  0  0  0
 27 26  1  1  0  0  0
 28 30  1  0  0  0  0
 28 29  1  0  0  0  0
 29 33  1  0  0  0  0
 29 27  1  0  0  0  0
 30 25  1  6  0  0  0
 30 27  1  0  0  0  0
 32 31  1  0  0  0  0
 33 32  2  0  0  0  0
 36 35  2  0  0  0  0
 38 36  1  0  0  0  0
 39 41  1  0  0  0  0
 40 34  1  6  0  0  0
 40 39  1  0  0  0  0
 40 36  1  0  0  0  0
 41 35  1  0  0  0  0
 41 37  2  0  0  0  0
 43 42  1  1  0  0  0
 43 48  1  0  0  0  0
 44 43  1  0  0  0  0
 45 46  1  0  0  0  0
 46 48  1  0  0  0  0
 47 44  1  0  0  0  0
 47 45  2  0  0  0  0
 49 50  1  0  0  0  0
 50 45  1  0  0  0  0
 52 53  1  0  0  0  0
 52 51  1  0  0  0  0
 53 54  2  0  0  0  0
 55 53  1  0  0  0  0
M  END
>  <MODEL>
4

>  <REMARK>
 VINA RESULT:      -3.9      3.631     11.176
  Name = 
  10 active torsions:
  status: ('A' for Active; 'I' for Inactive)
    1  A    between atoms: C_3  and  C_27
    2  A    between atoms: C_4  and  C_20
    3  A    between atoms: C_4  and  C_33
    4  A    between atoms: C_5  and  C_46
    5  A    between atoms: C_12  and  O_24
    6  A    between atoms: C_19  and  O_29
    7  A    between atoms: O_24  and  C_53
    8  A    between atoms: C_27  and  O_55
    9  A    between atoms: C_35  and  O_55
   10  A    between atoms: C_40  and  C_46
                            x       y       z     vdW  Elec       q    Type
                         _______ _______ _______ _____ _____    ______ ____

>  <TORSDO>
F 10

$$$$
=
 OpenBabel11062412113D

 55 62  0  0  1  0  0  0  0  0999 V2000
  186.9740  178.8200  141.9280 C   0  0  2  0  0  3  0  0  0  0  0  0
  186.2220  177.2730  137.1270 C   0  0  2  0  0  3  0  0  0  0  0  0
  187.9250  179.5060  140.9280 C   0  0  0  0  0  2  0  0  0  0  0  0
  187.6620  177.6270  142.5820 C   0  0  0  0  0  2  0  0  0  0  0  0
  188.4960  177.5040  139.0720 C   0  0  1  0  0  3  0  0  0  0  0  0
  187.2380  176.1390  137.3270 C   0  0  0  0  0  2  0  0  0  0  0  0
  186.6230  178.4080  136.1700 C   0  0  0  0  0  2  0  0  0  0  0  0
  189.3440  178.0060  138.0760 O   0  0  0  0  0  0  0  0  0  0  0  0
  184.6450  178.1520  142.4790 C   0  0  0  0  0  1  0  0  0  0  0  0
  185.3660  177.6620  138.3400 C   0  0  0  0  0  2  0  0  0  0  0  0
  185.0630  179.3230  140.2480 C   0  0  1  0  0  3  0  0  0  0  0  0
  185.6250  178.3710  141.3280 C   0  0  1  0  0  3  0  0  0  0  0  0
  187.9380  176.1330  138.6870 C   0  0  0  0  0  2  0  0  0  0  0  0
  189.2210  178.9270  140.9020 O   0  0  0  0  0  0  0  0  0  0  0  0
  188.8780  177.8780  135.4680 O   0  0  0  0  0  1  0  0  0  0  0  0
  189.1550  177.5670  140.4840 C   0  0  1  0  0  0  0  0  0  0  0  0
  191.2740  176.9020  141.7890 C   0  0  1  0  0  3  0  0  0  0  0  0
  188.1030  178.8120  136.1600 C   0  0  2  0  0  3  0  0  0  0  0  0
  188.6800  179.1190  137.5420 C   0  0  0  0  0  2  0  0  0  0  0  0
  185.7060  179.0500  138.8880 C   0  0  0  0  0  2  0  0  0  0  0  0
  188.3170  176.7380  141.5240 C   0  0  1  0  0  3  0  0  0  0  0  0
  189.1070  175.6280  142.2220 C   0  0  0  0  0  2  0  0  0  0  0  0
  190.3930  176.1880  142.8260 C   0  0  0  0  0  2  0  0  0  0  0  0
  190.6210  177.0430  140.4040 C   0  0  1  0  0  3  0  0  0  0  0  0
  183.5290  179.2890  140.1170 C   0  0  0  0  0  2  0  0  0  0  0  0
  181.8570  176.0450  139.4480 C   0  0  0  0  0  0  0  0  0  0  0  0
  181.7710  177.5280  139.7550 C   0  0  1  0  0  3  0  0  0  0  0  0
  181.7290  178.2940  141.5800 C   0  0  0  0  0  2  0  0  0  0  0  0
  180.6740  177.7460  140.7100 N   0  0  0  0  0  0  0  0  0  0  0  0
  182.8620  178.0110  140.6490 C   0  0  2  0  0  3  0  0  0  0  0  0
  180.8240  175.2220  139.7240 C   0  0  0  0  0  3  0  0  0  0  0  0
  179.6060  175.6780  140.4440 C   0  0  0  0  0  3  0  0  0  0  0  0
  179.5450  176.9140  140.9430 C   0  0  0  0  0  3  0  0  0  0  0  0
  183.0420  175.5070  138.7130 C   0  0  0  0  0  2  0  0  0  0  0  0
  182.0190  174.9680  135.1450 N   0  0  0  0  0  0  0  0  0  0  0  0
  182.3900  175.7040  136.2260 C   0  0  0  0  0  0  0  0  0  0  0  0
  181.6770  172.7680  134.6000 O   0  0  0  0  0  0  0  0  0  0  0  0
  182.5120  177.1870  136.1550 C   0  0  0  0  0  1  0  0  0  0  0  0
  182.3910  173.3320  137.0410 S   0  0  0  0  0  0  0  0  0  0  0  0
  182.6430  174.9640  137.3810 C   0  0  2  0  0  3  0  0  0  0  0  0
  181.9780  173.6510  135.4430 C   0  0  0  0  0  0  0  0  0  0  0  0
  190.6980  175.8090  139.7400 O   0  0  0  0  0  0  0  0  0  0  0  0
  191.3220  176.0760  138.5180 C   0  0  1  0  0  3  0  0  0  0  0  0
  192.8130  176.3180  138.7380 C   0  0  0  0  0  2  0  0  0  0  0  0
  193.1130  175.8560  136.2980 C   0  0  0  0  0  0  0  0  0  0  0  0
  191.7640  175.1850  136.2270 C   0  0  0  0  0  2  0  0  0  0  0  0
  193.5530  176.4200  137.4340 C   0  0  0  0  0  3  0  0  0  0  0  0
  191.1660  174.8730  137.5990 C   0  0  0  0  0  2  0  0  0  0  0  0
  194.9510  176.8270  134.9420 C   0  0  0  0  0  1  0  0  0  0  0  0
  193.8660  175.9270  135.1190 O   0  0  0  0  0  0  0  0  0  0  0  0
  191.6590  178.1520  142.2760 O   0  0  0  0  0  0  0  0  0  0  0  0
  191.6980  177.9990  143.6630 C   0  0  0  0  0  2  0  0  0  0  0  0
  190.8140  179.0070  144.3080 C   0  0  0  0  0  0  0  0  0  0  0  0
  190.9320  180.2270  144.0160 O   0  0  0  0  0  0  0  0  0  0  0  0
  189.8460  178.5960  145.2670 N   0  0  0  0  0  1  0  0  0  0  0  0
  1  3  1  6  0  0  0
  1  4  1  0  0  0  0
  2  7  1  1  0  0  0
  2  6  1  0  0  0  0
  2 10  1  0  0  0  0
  5 13  1  6  0  0  0
  5 16  1  0  0  0  0
  6 13  1  0  0  0  0
  8  5  1  0  0  0  0
 10 20  1  0  0  0  0
 11 25  1  6  0  0  0
 11 12  1  0  0  0  0
 12  1  1  0  0  0  0
 12  9  1  1  0  0  0
 14  3  1  0  0  0  0
 16 14  1  1  0  0  0
 16 21  1  0  0  0  0
 17 51  1  1  0  0  0
 17 23  1  0  0  0  0
 18 15  1  1  0  0  0
 18  7  1  0  0  0  0
 18 19  1  0  0  0  0
 19  8  1  0  0  0  0
 20 11  1  0  0  0  0
 21 22  1  1  0  0  0
 21  4  1  0  0  0  0
 22 23  1  0  0  0  0
 24 42  1  1  0  0  0
 24 16  1  0  0  0  0
 24 17  1  0  0  0  0
 26 31  2  0  0  0  0
 27 26  1  1  0  0  0
 27 30  1  0  0  0  0
 27 29  1  0  0  0  0
 29 33  1  0  0  0  0
 29 28  1  0  0  0  0
 30 25  1  6  0  0  0
 30 28  1  0  0  0  0
 31 32  1  0  0  0  0
 32 33  2  0  0  0  0
 34 26  1  0  0  0  0
 35 41  1  0  0  0  0
 35 36  2  0  0  0  0
 36 40  1  0  0  0  0
 37 41  2  0  0  0  0
 38 36  1  0  0  0  0
 39 40  1  0  0  0  0
 40 34  1  1  0  0  0
 41 39  1  0  0  0  0
 43 44  1  0  0  0  0
 43 42  1  1  0  0  0
 45 47  2  0  0  0  0
 46 45  1  0  0  0  0
 46 48  1  0  0  0  0
 47 44  1  0  0  0  0
 48 43  1  0  0  0  0
 49 50  1  0  0  0  0
 50 45  1  0  0  0  0
 51 52  1  0  0  0  0
 52 53  1  0  0  0  0
 53 55  1  0  0  0  0
 54 53  2  0  0  0  0
M  END
>  <MODEL>
5

>  <REMARK>
 VINA RESULT:      -3.9      4.409     10.609
  Name = 
  10 active torsions:
  status: ('A' for Active; 'I' for Inactive)
    1  A    between atoms: C_3  and  C_27
    2  A    between atoms: C_4  and  C_20
    3  A    between atoms: C_4  and  C_33
    4  A    between atoms: C_5  and  C_46
    5  A    between atoms: C_12  and  O_24
    6  A    between atoms: C_19  and  O_29
    7  A    between atoms: O_24  and  C_53
    8  A    between atoms: C_27  and  O_55
    9  A    between atoms: C_35  and  O_55
   10  A    between atoms: C_40  and  C_46
                            x       y       z     vdW  Elec       q    Type
                         _______ _______ _______ _____ _____    ______ ____

>  <TORSDO>
F 10

$$$$
=
 OpenBabel11062412113D

 55 62  0  0  1  0  0  0  0  0999 V2000
  191.8670  176.4160  139.4390 C   0  0  2  0  0  3  0  0  0  0  0  0
  189.2540  177.5360  135.2050 C   0  0  2  0  0  3  0  0  0  0  0  0
  190.6590  175.4830  139.2240 C   0  0  0  0  0  2  0  0  0  0  0  0
  191.5020  177.5470  140.3930 C   0  0  0  0  0  2  0  0  0  0  0  0
  188.7130  177.1580  138.1340 C   0  0  1  0  0  3  0  0  0  0  0  0
  188.3710  178.5090  136.0010 C   0  0  0  0  0  2  0  0  0  0  0  0
  188.5830  176.2550  134.6820 C   0  0  0  0  0  2  0  0  0  0  0  0
  187.5520  176.4230  137.8610 O   0  0  0  0  0  0  0  0  0  0  0  0
  193.8740  177.5000  138.4540 C   0  0  0  0  0  1  0  0  0  0  0  0
  190.7230  177.4200  135.6330 C   0  0  0  0  0  2  0  0  0  0  0  0
  192.4270  176.0440  136.9340 C   0  0  1  0  0  3  0  0  0  0  0  0
  192.4630  177.0060  138.1440 C   0  0  1  0  0  3  0  0  0  0  0  0
  188.6500  178.5510  137.5050 C   0  0  0  0  0  2  0  0  0  0  0  0
  189.5300  175.8440  140.0050 O   0  0  0  0  0  0  0  0  0  0  0  0
  186.3120  176.3420  135.5160 O   0  0  0  0  0  1  0  0  0  0  0  0
  189.0680  177.1430  139.6520 C   0  0  1  0  0  0  0  0  0  0  0  0
  188.0890  177.6010  141.9910 C   0  0  1  0  0  3  0  0  0  0  0  0
  187.5090  175.6230  135.5770 C   0  0  2  0  0  3  0  0  0  0  0  0
  187.9560  175.3790  137.0190 C   0  0  0  0  0  2  0  0  0  0  0  0
  191.0570  176.0630  136.2580 C   0  0  0  0  0  2  0  0  0  0  0  0
  190.1860  178.2030  139.9700 C   0  0  1  0  0  3  0  0  0  0  0  0
  189.7840  179.2410  141.0190 C   0  0  0  0  0  2  0  0  0  0  0  0
  189.2610  178.5530  142.2780 C   0  0  0  0  0  2  0  0  0  0  0  0
  187.7850  177.4170  140.4950 C   0  0  1  0  0  3  0  0  0  0  0  0
  193.5290  176.3060  135.8910 C   0  0  0  0  0  2  0  0  0  0  0  0
  195.7160  173.6290  137.2400 C   0  0  0  0  0  0  0  0  0  0  0  0
  195.5470  175.0290  136.6800 C   0  0  1  0  0  3  0  0  0  0  0  0
  195.6260  175.4820  134.7540 C   0  0  0  0  0  2  0  0  0  0  0  0
  196.6730  175.3110  135.7770 N   0  0  0  0  0  0  0  0  0  0  0  0
  194.4790  175.1250  135.6430 C   0  0  2  0  0  3  0  0  0  0  0  0
  196.9100  173.0050  137.1860 C   0  0  0  0  0  3  0  0  0  0  0  0
  198.0850  173.5800  136.4800 C   0  0  0  0  0  3  0  0  0  0  0  0
  197.9580  174.7050  135.7740 C   0  0  0  0  0  3  0  0  0  0  0  0
  194.5870  172.9850  137.9780 C   0  0  0  0  0  2  0  0  0  0  0  0
  193.6590  169.6820  136.4610 N   0  0  0  0  0  0  0  0  0  0  0  0
  194.3130  170.5060  137.3220 C   0  0  0  0  0  0  0  0  0  0  0  0
  192.1120  169.8360  134.7760 O   0  0  0  0  0  0  0  0  0  0  0  0
  195.2780  169.9770  138.3250 C   0  0  0  0  0  1  0  0  0  0  0  0
  192.8780  172.0350  135.9450 S   0  0  0  0  0  0  0  0  0  0  0  0
  194.0060  171.8600  137.1870 C   0  0  2  0  0  3  0  0  0  0  0  0
  192.8370  170.3800  135.6480 C   0  0  0  0  0  0  0  0  0  0  0  0
  187.0880  178.5440  140.0320 O   0  0  0  0  0  0  0  0  0  0  0  0
  185.7340  178.2550  140.2210 C   0  0  1  0  0  3  0  0  0  0  0  0
  185.2060  179.0090  141.4390 C   0  0  0  0  0  2  0  0  0  0  0  0
  182.9120  178.6210  140.5180 C   0  0  0  0  0  0  0  0  0  0  0  0
  183.4780  178.3190  139.1530 C   0  0  0  0  0  2  0  0  0  0  0  0
  183.7140  178.8770  141.5650 C   0  0  0  0  0  3  0  0  0  0  0  0
  184.9470  178.7110  139.0010 C   0  0  0  0  0  2  0  0  0  0  0  0
  180.6620  179.6590  140.3780 C   0  0  0  0  0  1  0  0  0  0  0  0
  181.5220  178.5660  140.6730 O   0  0  0  0  0  0  0  0  0  0  0  0
  188.3250  176.3650  142.5950 O   0  0  0  0  0  0  0  0  0  0  0  0
  189.1280  176.6550  143.7000 C   0  0  0  0  0  2  0  0  0  0  0  0
  190.4490  175.9870  143.5540 C   0  0  0  0  0  0  0  0  0  0  0  0
  190.5490  174.9310  142.8740 O   0  0  0  0  0  0  0  0  0  0  0  0
  191.5970  176.5290  144.1960 N   0  0  0  0  0  1  0  0  0  0  0  0
  1  3  1  6  0  0  0
  1  4  1  0  0  0  0
  2  7  1  1  0  0  0
  2 10  1  0  0  0  0
  2  6  1  0  0  0  0
  3 14  1  0  0  0  0
  5 13  1  1  0  0  0
  5 16  1  0  0  0  0
  6 13  1  0  0  0  0
  7 18  1  0  0  0  0
  8  5  1  0  0  0  0
 10 20  1  0  0  0  0
 11 25  1  6  0  0  0
 11 12  1  0  0  0  0
 12  9  1  1  0  0  0
 12  1  1  0  0  0  0
 16 21  1  0  0  0  0
 16 14  1  1  0  0  0
 16 24  1  0  0  0  0
 17 23  1  0  0  0  0
 17 51  1  6  0  0  0
 18 15  1  1  0  0  0
 18 19  1  0  0  0  0
 19  8  1  0  0  0  0
 20 11  1  0  0  0  0
 21  4  1  1  0  0  0
 21 22  1  0  0  0  0
 22 23  1  0  0  0  0
 24 42  1  6  0  0  0
 24 17  1  0  0  0  0
 26 34  1  0  0  0  0
 27 26  1  6  0  0  0
 28 30  1  0  0  0  0
 28 29  1  0  0  0  0
 29 27  1  0  0  0  0
 30 25  1  1  0  0  0
 30 27  1  0  0  0  0
 31 26  2  0  0  0  0
 32 31  1  0  0  0  0
 33 29  1  0  0  0  0
 33 32  2  0  0  0  0
 35 36  2  0  0  0  0
 36 38  1  0  0  0  0
 37 41  2  0  0  0  0
 39 40  1  0  0  0  0
 40 36  1  0  0  0  0
 40 34  1  6  0  0  0
 41 39  1  0  0  0  0
 41 35  1  0  0  0  0
 43 42  1  6  0  0  0
 43 44  1  0  0  0  0
 44 47  1  0  0  0  0
 45 50  1  0  0  0  0
 45 47  2  0  0  0  0
 46 45  1  0  0  0  0
 48 46  1  0  0  0  0
 48 43  1  0  0  0  0
 49 50  1  0  0  0  0
 51 52  1  0  0  0  0
 53 52  1  0  0  0  0
 53 55  1  0  0  0  0
 54 53  2  0  0  0  0
M  END
>  <MODEL>
6

>  <REMARK>
 VINA RESULT:      -2.7      2.409      4.071
  Name = 
  10 active torsions:
  status: ('A' for Active; 'I' for Inactive)
    1  A    between atoms: C_3  and  C_27
    2  A    between atoms: C_4  and  C_20
    3  A    between atoms: C_4  and  C_33
    4  A    between atoms: C_5  and  C_46
    5  A    between atoms: C_12  and  O_24
    6  A    between atoms: C_19  and  O_29
    7  A    between atoms: O_24  and  C_53
    8  A    between atoms: C_27  and  O_55
    9  A    between atoms: C_35  and  O_55
   10  A    between atoms: C_40  and  C_46
                            x       y       z     vdW  Elec       q    Type
                         _______ _______ _______ _____ _____    ______ ____

>  <TORSDO>
F 10

$$$$
=
 OpenBabel11062412113D

 55 62  0  0  1  0  0  0  0  0999 V2000
  191.1820  176.4260  139.1240 C   0  0  2  0  0  3  0  0  0  0  0  0
  188.9460  175.6950  134.5990 C   0  0  2  0  0  3  0  0  0  0  0  0
  189.9620  175.4870  139.2100 C   0  0  0  0  0  2  0  0  0  0  0  0
  190.7820  177.8500  139.4920 C   0  0  0  0  0  2  0  0  0  0  0  0
  188.1660  176.5600  137.3660 C   0  0  1  0  0  3  0  0  0  0  0  0
  188.0390  176.9090  134.8450 C   0  0  0  0  0  2  0  0  0  0  0  0
  188.2740  174.3120  134.5940 C   0  0  0  0  0  2  0  0  0  0  0  0
  187.0050  175.7780  137.3210 O   0  0  0  0  0  0  0  0  0  0  0  0
  193.2950  177.0080  137.9550 C   0  0  0  0  0  1  0  0  0  0  0  0
  190.3730  175.7680  135.1600 C   0  0  0  0  0  2  0  0  0  0  0  0
  191.9220  175.0530  137.0520 C   0  0  1  0  0  3  0  0  0  0  0  0
  191.8970  176.4290  137.7570 C   0  0  1  0  0  3  0  0  0  0  0  0
  188.2010  177.5690  136.2160 C   0  0  0  0  0  2  0  0  0  0  0  0
  188.7890  176.1370  139.6740 O   0  0  0  0  0  0  0  0  0  0  0  0
  185.9510  174.7340  135.1210 O   0  0  0  0  0  1  0  0  0  0  0  0
  188.4010  177.1750  138.7790 C   0  0  1  0  0  0  0  0  0  0  0  0
  187.2590  178.5570  140.6290 C   0  0  1  0  0  3  0  0  0  0  0  0
  187.1130  174.1060  135.5740 C   0  0  2  0  0  3  0  0  0  0  0  0
  187.4370  174.4790  137.0210 C   0  0  0  0  0  2  0  0  0  0  0  0
  190.6100  174.7900  136.3130 C   0  0  0  0  0  2  0  0  0  0  0  0
  189.5270  178.2710  138.7270 C   0  0  1  0  0  3  0  0  0  0  0  0
  189.0810  179.6500  139.2170 C   0  0  0  0  0  2  0  0  0  0  0  0
  188.4370  179.5430  140.5970 C   0  0  0  0  0  2  0  0  0  0  0  0
  187.0670  177.7710  139.3220 C   0  0  1  0  0  3  0  0  0  0  0  0
  193.1100  174.8620  136.0910 C   0  0  0  0  0  2  0  0  0  0  0  0
  195.4930  172.3340  134.7850 C   0  0  0  0  0  0  0  0  0  0  0  0
  194.0670  172.7900  135.0330 C   0  0  1  0  0  3  0  0  0  0  0  0
  193.0410  172.4090  136.6830 C   0  0  0  0  0  2  0  0  0  0  0  0
  193.2700  171.6280  135.4550 N   0  0  0  0  0  0  0  0  0  0  0  0
  193.9060  173.5640  136.2980 C   0  0  2  0  0  3  0  0  0  0  0  0
  195.7780  171.0270  134.6100 C   0  0  0  0  0  3  0  0  0  0  0  0
  194.7590  169.9560  134.7680 C   0  0  0  0  0  3  0  0  0  0  0  0
  193.5340  170.2550  135.2010 C   0  0  0  0  0  3  0  0  0  0  0  0
  196.5740  173.3490  134.5990 C   0  0  0  0  0  2  0  0  0  0  0  0
  198.2550  173.4820  137.9500 N   0  0  0  0  0  0  0  0  0  0  0  0
  197.8140  172.8830  136.8110 C   0  0  0  0  0  0  0  0  0  0  0  0
  198.2880  175.5720  138.8900 O   0  0  0  0  0  0  0  0  0  0  0  0
  198.0140  171.4270  136.5690 C   0  0  0  0  0  1  0  0  0  0  0  0
  197.1560  175.2910  136.5600 S   0  0  0  0  0  0  0  0  0  0  0  0
  197.1750  173.7350  135.9110 C   0  0  2  0  0  3  0  0  0  0  0  0
  197.9660  174.8010  137.9500 C   0  0  0  0  0  0  0  0  0  0  0  0
  186.4480  178.6060  138.3780 O   0  0  0  0  0  0  0  0  0  0  0  0
  185.0750  178.4920  138.6170 C   0  0  1  0  0  3  0  0  0  0  0  0
  184.4480  179.8810  138.7150 C   0  0  0  0  0  2  0  0  0  0  0  0
  182.2470  178.7700  138.2870 C   0  0  0  0  0  0  0  0  0  0  0  0
  182.9360  177.5430  137.7440 C   0  0  0  0  0  2  0  0  0  0  0  0
  182.9480  179.8040  138.7800 C   0  0  0  0  0  3  0  0  0  0  0  0
  184.4220  177.7560  137.4560 C   0  0  0  0  0  2  0  0  0  0  0  0
  180.0460  179.2660  137.2520 C   0  0  0  0  0  1  0  0  0  0  0  0
  180.8470  178.7700  138.3160 O   0  0  0  0  0  0  0  0  0  0  0  0
  187.4040  177.6810  141.7060 O   0  0  0  0  0  0  0  0  0  0  0  0
  188.5070  178.1640  142.4130 C   0  0  0  0  0  2  0  0  0  0  0  0
  188.9830  177.1320  143.3740 C   0  0  0  0  0  0  0  0  0  0  0  0
  188.3230  176.8960  144.4210 O   0  0  0  0  0  0  0  0  0  0  0  0
  190.1910  176.4250  143.1200 N   0  0  0  0  0  1  0  0  0  0  0  0
  1  3  1  6  0  0  0
  1  4  1  0  0  0  0
  2  7  1  1  0  0  0
  2  6  1  0  0  0  0
  2 10  1  0  0  0  0
  3 14  1  0  0  0  0
  5 13  1  6  0  0  0
  5 16  1  0  0  0  0
  6 13  1  0  0  0  0
  7 18  1  0  0  0  0
  8  5  1  0  0  0  0
 10 20  1  0  0  0  0
 11 25  1  6  0  0  0
 11 12  1  0  0  0  0
 12  9  1  1  0  0  0
 12  1  1  0  0  0  0
 16 24  1  0  0  0  0
 16 14  1  1  0  0  0
 17 51  1  1  0  0  0
 18 15  1  6  0  0  0
 18 19  1  0  0  0  0
 19  8  1  0  0  0  0
 20 11  1  0  0  0  0
 21 16  1  0  0  0  0
 21 22  1  1  0  0  0
 21  4  1  0  0  0  0
 22 23  1  0  0  0  0
 23 17  1  0  0  0  0
 24 42  1  6  0  0  0
 24 17  1  0  0  0  0
 27 26  1  1  0  0  0
 27 29  1  0  0  0  0
 27 30  1  0  0  0  0
 29 28  1  0  0  0  0
 30 25  1  6  0  0  0
 30 28  1  0  0  0  0
 31 32  1  0  0  0  0
 31 26  2  0  0  0  0
 32 33  2  0  0  0  0
 33 29  1  0  0  0  0
 34 26  1  0  0  0  0
 36 35  2  0  0  0  0
 38 36  1  0  0  0  0
 39 41  1  0  0  0  0
 40 34  1  1  0  0  0
 40 39  1  0  0  0  0
 40 36  1  0  0  0  0
 41 35  1  0  0  0  0
 41 37  2  0  0  0  0
 43 42  1  6  0  0  0
 43 44  1  0  0  0  0
 44 47  1  0  0  0  0
 45 50  1  0  0  0  0
 45 47  2  0  0  0  0
 46 45  1  0  0  0  0
 48 46  1  0  0  0  0
 48 43  1  0  0  0  0
 49 50  1  0  0  0  0
 51 52  1  0  0  0  0
 52 53  1  0  0  0  0
 53 54  2  0  0  0  0
 55 53  1  0  0  0  0
M  END
>  <MODEL>
7

>  <REMARK>
 VINA RESULT:      -2.1      1.554      2.126
  Name = 
  10 active torsions:
  status: ('A' for Active; 'I' for Inactive)
    1  A    between atoms: C_3  and  C_27
    2  A    between atoms: C_4  and  C_20
    3  A    between atoms: C_4  and  C_33
    4  A    between atoms: C_5  and  C_46
    5  A    between atoms: C_12  and  O_24
    6  A    between atoms: C_19  and  O_29
    7  A    between atoms: O_24  and  C_53
    8  A    between atoms: C_27  and  O_55
    9  A    between atoms: C_35  and  O_55
   10  A    between atoms: C_40  and  C_46
                            x       y       z     vdW  Elec       q    Type
                         _______ _______ _______ _____ _____    ______ ____

>  <TORSDO>
F 10

$$$$
=
 OpenBabel11062412113D

 55 62  0  0  1  0  0  0  0  0999 V2000
  188.3790  173.0870  136.6380 C   0  0  2  0  0  3  0  0  0  0  0  0
  187.6870  177.9360  135.2200 C   0  0  2  0  0  3  0  0  0  0  0  0
  188.8350  174.0900  137.7150 C   0  0  0  0  0  2  0  0  0  0  0  0
  189.5670  172.6350  135.7960 C   0  0  0  0  0  2  0  0  0  0  0  0
  189.9120  176.2010  136.2440 C   0  0  1  0  0  3  0  0  0  0  0  0
  189.0890  177.9590  134.5940 C   0  0  0  0  0  2  0  0  0  0  0  0
  187.4710  178.7960  136.4760 C   0  0  0  0  0  2  0  0  0  0  0  0
  190.3490  177.2110  137.1100 O   0  0  0  0  0  0  0  0  0  0  0  0
  186.6080  172.3950  135.0390 C   0  0  0  0  0  1  0  0  0  0  0  0
  186.9140  176.6120  135.1470 C   0  0  0  0  0  2  0  0  0  0  0  0
  186.2250  174.5130  136.4140 C   0  0  1  0  0  3  0  0  0  0  0  0
  187.2570  173.6020  135.7130 C   0  0  1  0  0  3  0  0  0  0  0  0
  189.9050  176.6800  134.7910 C   0  0  0  0  0  2  0  0  0  0  0  0
  190.2390  174.3030  137.7220 O   0  0  0  0  0  0  0  0  0  0  0  0
  189.6350  179.7620  136.9640 O   0  0  0  0  0  1  0  0  0  0  0  0
  190.6690  174.8590  136.4850 C   0  0  1  0  0  0  0  0  0  0  0  0
  193.0290  173.8420  136.6690 C   0  0  1  0  0  3  0  0  0  0  0  0
  188.6500  178.9010  137.4520 C   0  0  2  0  0  3  0  0  0  0  0  0
  189.2310  177.5540  137.8830 C   0  0  0  0  0  2  0  0  0  0  0  0
  186.7380  175.9490  136.5150 C   0  0  0  0  0  2  0  0  0  0  0  0
  190.3790  173.8420  135.3210 C   0  0  1  0  0  3  0  0  0  0  0  0
  191.6310  173.3490  134.5940 C   0  0  0  0  0  2  0  0  0  0  0  0
  192.6520  172.8110  135.5930 C   0  0  0  0  0  2  0  0  0  0  0  0
  192.1980  175.1340  136.6150 C   0  0  1  0  0  3  0  0  0  0  0  0
  184.8300  174.5010  135.7620 C   0  0  0  0  0  2  0  0  0  0  0  0
  182.0290  176.1770  137.5270 C   0  0  0  0  0  0  0  0  0  0  0  0
  182.5640  175.4450  136.3110 C   0  0  1  0  0  3  0  0  0  0  0  0
  183.4090  176.3270  134.7530 C   0  0  0  0  0  2  0  0  0  0  0  0
  182.0010  176.0680  135.1030 N   0  0  0  0  0  0  0  0  0  0  0  0
  183.9890  175.7630  136.0090 C   0  0  2  0  0  3  0  0  0  0  0  0
  180.9370  176.9630  137.4330 C   0  0  0  0  0  3  0  0  0  0  0  0
  180.2700  177.2570  136.1380 C   0  0  0  0  0  3  0  0  0  0  0  0
  180.8080  176.8300  134.9940 C   0  0  0  0  0  3  0  0  0  0  0  0
  182.6350  175.9260  138.8700 C   0  0  0  0  0  2  0  0  0  0  0  0
  182.1790  178.7360  141.3130 N   0  0  0  0  0  0  0  0  0  0  0  0
  182.8520  177.9960  140.3920 C   0  0  0  0  0  0  0  0  0  0  0  0
  180.1190  178.7680  142.3170 O   0  0  0  0  0  0  0  0  0  0  0  0
  184.2450  178.3360  139.9860 C   0  0  0  0  0  1  0  0  0  0  0  0
  180.6140  176.8810  140.5900 S   0  0  0  0  0  0  0  0  0  0  0  0
  182.1400  176.9160  139.8730 C   0  0  2  0  0  3  0  0  0  0  0  0
  180.9390  178.2440  141.5210 C   0  0  0  0  0  0  0  0  0  0  0  0
  192.6750  175.9350  135.5650 O   0  0  0  0  0  0  0  0  0  0  0  0
  194.0660  175.9600  135.7100 C   0  0  1  0  0  3  0  0  0  0  0  0
  194.7070  174.9770  134.7340 C   0  0  0  0  0  2  0  0  0  0  0  0
  196.8400  176.2400  135.0730 C   0  0  0  0  0  0  0  0  0  0  0  0
  196.0880  177.4230  135.6300 C   0  0  0  0  0  2  0  0  0  0  0  0
  196.2040  175.1090  134.7230 C   0  0  0  0  0  3  0  0  0  0  0  0
  194.5800  177.3550  135.3880 C   0  0  0  0  0  2  0  0  0  0  0  0
  199.0680  175.2550  134.5940 C   0  0  0  0  0  1  0  0  0  0  0  0
  198.2350  176.3370  134.9900 O   0  0  0  0  0  0  0  0  0  0  0  0
  192.9400  173.2590  137.9340 O   0  0  0  0  0  0  0  0  0  0  0  0
  194.1950  172.6870  138.1530 C   0  0  0  0  0  2  0  0  0  0  0  0
  195.1830  173.7480  138.4890 C   0  0  0  0  0  0  0  0  0  0  0  0
  194.9810  174.5080  139.4720 O   0  0  0  0  0  0  0  0  0  0  0  0
  196.3480  173.9150  137.6890 N   0  0  0  0  0  1  0  0  0  0  0  0
  1  4  1  6  0  0  0
  1  3  1  0  0  0  0
  2  6  1  1  0  0  0
  2  7  1  0  0  0  0
  3 14  1  0  0  0  0
  5 13  1  6  0  0  0
  5 16  1  0  0  0  0
  5  8  1  0  0  0  0
  6 13  1  0  0  0  0
  7 18  1  0  0  0  0
  8 19  1  0  0  0  0
 10  2  1  0  0  0  0
 10 20  1  0  0  0  0
 11 25  1  6  0  0  0
 11 20  1  0  0  0  0
 12  9  1  1  0  0  0
 12 11  1  0  0  0  0
 12  1  1  0  0  0  0
 16 24  1  0  0  0  0
 16 14  1  1  0  0  0
 17 51  1  1  0  0  0
 18 15  1  6  0  0  0
 18 19  1  0  0  0  0
 21 22  1  1  0  0  0
 21  4  1  0  0  0  0
 21 16  1  0  0  0  0
 22 23  1  0  0  0  0
 23 17  1  0  0  0  0
 24 42  1  6  0  0  0
 24 17  1  0  0  0  0
 26 34  1  0  0  0  0
 27 26  1  1  0  0  0
 28 29  1  0  0  0  0
 28 30  1  0  0  0  0
 29 27  1  0  0  0  0
 30 25  1  6  0  0  0
 30 27  1  0  0  0  0
 31 26  2  0  0  0  0
 32 31  1  0  0  0  0
 33 29  1  0  0  0  0
 33 32  2  0  0  0  0
 35 41  1  0  0  0  0
 36 35  2  0  0  0  0
 38 36  1  0  0  0  0
 39 41  1  0  0  0  0
 40 34  1  1  0  0  0
 40 36  1  0  0  0  0
 40 39  1  0  0  0  0
 41 37  2  0  0  0  0
 43 42  1  6  0  0  0
 44 43  1  0  0  0  0
 45 46  1  0  0  0  0
 47 44  1  0  0  0  0
 47 45  2  0  0  0  0
 48 46  1  0  0  0  0
 48 43  1  0  0  0  0
 49 50  1  0  0  0  0
 50 45  1  0  0  0  0
 51 52  1  0  0  0  0
 52 53  1  0  0  0  0
 53 54  2  0  0  0  0
 55 53  1  0  0  0  0
M  END
>  <MODEL>
8

>  <REMARK>
 VINA RESULT:      -2.1      3.436     10.930
  Name = 
  10 active torsions:
  status: ('A' for Active; 'I' for Inactive)
    1  A    between atoms: C_3  and  C_27
    2  A    between atoms: C_4  and  C_20
    3  A    between atoms: C_4  and  C_33
    4  A    between atoms: C_5  and  C_46
    5  A    between atoms: C_12  and  O_24
    6  A    between atoms: C_19  and  O_29
    7  A    between atoms: O_24  and  C_53
    8  A    between atoms: C_27  and  O_55
    9  A    between atoms: C_35  and  O_55
   10  A    between atoms: C_40  and  C_46
                            x       y       z     vdW  Elec       q    Type
                         _______ _______ _______ _____ _____    ______ ____

>  <TORSDO>
F 10

$$$$
