=
 OpenBabel11062416083D

 43 49  0  0  1  0  0  0  0  0999 V2000
  188.7340  177.9040  141.1230 C   0  0  0  0  0  0  0  0  0  0  0  0
  187.5140  177.3860  144.3850 C   0  0  0  0  0  2  0  0  0  0  0  0
  189.8090  177.1960  143.3710 C   0  0  0  0  0  2  0  0  0  0  0  0
  186.6800  178.0910  141.9680 C   0  0  0  0  0  0  0  0  0  0  0  0
  188.7850  177.5460  142.4130 N   0  0  0  0  0  0  0  0  0  0  0  0
  189.4380  176.8040  145.7130 O   0  0  0  0  0  0  0  0  0  0  0  0
  187.5780  177.6570  142.9280 C   0  0  0  0  0  0  0  0  0  0  0  0
  188.9770  177.0910  144.6200 C   0  0  0  0  0  0  0  0  0  0  0  0
  187.4250  178.2510  140.7900 C   0  0  0  0  0  3  0  0  0  0  0  0
  185.3500  179.1350  144.5010 N   0  0  0  0  0  0  0  0  0  0  0  0
  182.3640  178.7500  142.3960 C   0  0  0  0  0  0  0  0  0  0  0  0
  184.7440  179.3400  143.1930 C   0  0  2  0  0  3  0  0  0  0  0  0
  184.4230  178.9180  145.3760 C   0  0  0  0  0  3  0  0  0  0  0  0
  184.3580  177.8890  141.2290 C   0  0  0  0  0  3  0  0  0  0  0  0
  183.1040  178.8710  144.7560 C   0  0  0  0  0  2  0  0  0  0  0  0
  183.2970  179.1260  143.4720 C   0  0  2  0  0  3  0  0  0  0  0  0
  182.9000  178.1520  141.3210 C   0  0  0  0  0  3  0  0  0  0  0  0
  185.2340  178.3670  142.1340 C   0  0  0  0  0  0  0  0  0  0  0  0
  179.8730  180.9240  140.4490 C   0  0  0  0  0  2  0  0  0  0  0  0
  179.4410  178.4300  139.9030 C   0  0  0  0  0  2  0  0  0  0  0  0
  179.3830  180.8140  141.8980 C   0  0  0  0  0  2  0  0  0  0  0  0
  178.9310  178.0700  141.3040 C   0  0  0  0  0  2  0  0  0  0  0  0
  180.9390  178.9520  142.5050 N   0  0  0  0  0  0  0  0  0  0  0  0
  180.4150  179.6140  139.8630 C   0  0  0  0  0  2  0  0  0  0  0  0
  180.4270  180.2760  142.8830 C   0  0  0  0  0  2  0  0  0  0  0  0
  180.0330  177.8080  142.3360 C   0  0  0  0  0  2  0  0  0  0  0  0
  189.9070  177.9630  140.2050 C   0  0  0  0  0  2  0  0  0  0  0  0
  189.9370  176.7350  139.3120 C   0  0  0  0  0  2  0  0  0  0  0  0
  190.3410  177.1120  137.8870 C   0  0  2  0  0  3  0  0  0  0  0  0
  187.9660  177.2370  137.2080 N   0  0  0  0  0  0  0  0  0  0  0  0
  187.5970  178.6160  137.2920 C   0  0  0  0  0  0  0  0  0  0  0  0
  187.7810  174.8800  137.0730 C   0  0  0  0  0  2  0  0  0  0  0  0
  189.1470  175.2920  136.5400 C   0  0  0  0  0  2  0  0  0  0  0  0
  187.0050  176.1590  137.3310 C   0  0  0  0  0  2  0  0  0  0  0  0
  186.4300  178.9440  137.6330 O   0  0  0  0  0  1  0  0  0  0  0  0
  188.5260  179.6060  136.9950 O   0  0  0  0  0  0  0  0  0  0  0  0
  189.2850  176.7870  136.8080 C   0  0  2  0  0  3  0  0  0  0  0  0
  194.1930  175.4470  136.9410 C   0  0  0  0  0  3  0  0  0  0  0  0
  193.7900  175.5900  138.2720 C   0  0  0  0  0  3  0  0  0  0  0  0
  193.3410  175.8490  135.9060 C   0  0  0  0  0  3  0  0  0  0  0  0
  191.6830  176.5400  137.5400 C   0  0  0  0  0  0  0  0  0  0  0  0
  192.0890  176.3920  136.2040 C   0  0  0  0  0  3  0  0  0  0  0  0
  192.5380  176.1350  138.5710 C   0  0  0  0  0  3  0  0  0  0  0  0
  1  5  1  0  0  0  0
  2  8  1  0  0  0  0
  3  8  1  0  0  0  0
  4 18  1  0  0  0  0
  4  7  2  0  0  0  0
  5  7  1  0  0  0  0
  5  3  1  0  0  0  0
  7  2  1  0  0  0  0
  8  6  2  0  0  0  0
  9  1  2  0  0  0  0
  9  4  1  0  0  0  0
 10 13  2  0  0  0  0
 11 23  1  0  0  0  0
 11 16  1  0  0  0  0
 12 18  1  6  0  0  0
 12 16  1  0  0  0  0
 12 10  1  0  0  0  0
 14 17  1  0  0  0  0
 14 18  2  0  0  0  0
 15 13  1  0  0  0  0
 16 15  1  1  0  0  0
 17 11  2  0  0  0  0
 19 21  1  0  0  0  0
 20 22  1  0  0  0  0
 21 25  1  0  0  0  0
 22 26  1  0  0  0  0
 23 25  1  0  0  0  0
 24 20  1  0  0  0  0
 24 19  1  0  0  0  0
 26 23  1  0  0  0  0
 27  1  1  0  0  0  0
 28 27  1  0  0  0  0
 29 28  1  1  0  0  0
 30 31  1  0  0  0  0
 30 34  1  0  0  0  0
 31 35  1  0  0  0  0
 32 34  1  0  0  0  0
 33 37  1  0  0  0  0
 33 32  1  0  0  0  0
 36 31  2  0  0  0  0
 37 30  1  0  0  0  0
 37 29  1  1  0  0  0
 38 39  1  0  0  0  0
 39 43  2  0  0  0  0
 40 42  1  0  0  0  0
 40 38  2  0  0  0  0
 41 29  1  0  0  0  0
 41 43  1  0  0  0  0
 42 41  2  0  0  0  0
M  END
>  <MODEL>
1

>  <REMARK>
 VINA RESULT:      -9.0      0.000      0.000
  Name = 
  7 active torsions:
  status: ('A' for Active; 'I' for Inactive)
    1  A    between atoms: C_5  and  N_25
    2  A    between atoms: C_11  and  C_37
    3  A    between atoms: C_15  and  C_16
    4  A    between atoms: C_15  and  C_37
    5  A    between atoms: C_16  and  C_27
    6  A    between atoms: C_16  and  C_35
    7  A    between atoms: C_19  and  C_31
                            x       y       z     vdW  Elec       q    Type
                         _______ _______ _______ _____ _____    ______ ____

>  <TORSDO>
F 7

$$$$
=
 OpenBabel11062416083D

 43 49  0  0  1  0  0  0  0  0999 V2000
  188.7350  178.0190  141.1440 C   0  0  0  0  0  0  0  0  0  0  0  0
  187.4600  177.3790  144.3630 C   0  0  0  0  0  2  0  0  0  0  0  0
  189.7770  177.2560  143.3900 C   0  0  0  0  0  2  0  0  0  0  0  0
  186.6620  178.1490  141.9540 C   0  0  0  0  0  0  0  0  0  0  0  0
  188.7660  177.6210  142.4230 N   0  0  0  0  0  0  0  0  0  0  0  0
  189.3660  176.7830  145.7110 O   0  0  0  0  0  0  0  0  0  0  0  0
  187.5480  177.6980  142.9170 C   0  0  0  0  0  0  0  0  0  0  0  0
  188.9220  177.0980  144.6190 C   0  0  0  0  0  0  0  0  0  0  0  0
  187.4280  178.3580  140.7970 C   0  0  0  0  0  3  0  0  0  0  0  0
  185.2810  179.1930  144.4600 N   0  0  0  0  0  0  0  0  0  0  0  0
  182.3290  178.7270  142.3230 C   0  0  0  0  0  0  0  0  0  0  0  0
  184.6870  179.3720  143.1430 C   0  0  2  0  0  3  0  0  0  0  0  0
  184.3470  178.9660  145.3260 C   0  0  0  0  0  3  0  0  0  0  0  0
  184.3540  177.8930  141.1890 C   0  0  0  0  0  3  0  0  0  0  0  0
  183.0380  178.8860  144.6910 C   0  0  0  0  0  2  0  0  0  0  0  0
  183.2410  179.1330  143.4070 C   0  0  2  0  0  3  0  0  0  0  0  0
  182.8900  178.1280  141.2610 C   0  0  0  0  0  3  0  0  0  0  0  0
  185.2090  178.3980  142.1000 C   0  0  0  0  0  0  0  0  0  0  0  0
  179.8460  180.9800  140.4570 C   0  0  0  0  0  2  0  0  0  0  0  0
  179.4640  178.5180  139.7520 C   0  0  0  0  0  2  0  0  0  0  0  0
  179.3280  180.7750  141.8860 C   0  0  0  0  0  2  0  0  0  0  0  0
  178.9310  178.0660  141.1170 C   0  0  0  0  0  2  0  0  0  0  0  0
  180.9000  178.9020  142.4130 N   0  0  0  0  0  0  0  0  0  0  0  0
  180.4210  179.7160  139.8050 C   0  0  0  0  0  2  0  0  0  0  0  0
  180.3590  180.1930  142.8590 C   0  0  0  0  0  2  0  0  0  0  0  0
  180.0150  177.7570  142.1560 C   0  0  0  0  0  2  0  0  0  0  0  0
  189.9240  178.1260  140.2530 C   0  0  0  0  0  2  0  0  0  0  0  0
  190.5230  176.7510  140.0110 C   0  0  0  0  0  2  0  0  0  0  0  0
  190.3130  176.3170  138.5600 C   0  0  2  0  0  3  0  0  0  0  0  0
  191.9050  175.0640  137.1410 N   0  0  0  0  0  0  0  0  0  0  0  0
  191.1200  174.4090  136.1410 C   0  0  0  0  0  0  0  0  0  0  0  0
  193.7320  175.6040  138.5460 C   0  0  0  0  0  2  0  0  0  0  0  0
  192.8200  176.8200  138.4450 C   0  0  0  0  0  2  0  0  0  0  0  0
  193.1980  174.5720  137.5720 C   0  0  0  0  0  2  0  0  0  0  0  0
  191.4620  173.2790  135.7020 O   0  0  0  0  0  1  0  0  0  0  0  0
  189.9740  175.0180  135.6440 O   0  0  0  0  0  0  0  0  0  0  0  0
  191.5800  176.3710  137.6790 C   0  0  2  0  0  3  0  0  0  0  0  0
  187.0040  178.4270  136.7980 C   0  0  0  0  0  3  0  0  0  0  0  0
  186.8280  177.1410  137.3180 C   0  0  0  0  0  3  0  0  0  0  0  0
  188.2630  179.0350  136.8470 C   0  0  0  0  0  3  0  0  0  0  0  0
  189.1720  177.0640  137.9360 C   0  0  0  0  0  0  0  0  0  0  0  0
  189.3440  178.3570  137.4160 C   0  0  0  0  0  3  0  0  0  0  0  0
  187.9100  176.4610  137.8860 C   0  0  0  0  0  3  0  0  0  0  0  0
  1  5  1  0  0  0  0
  2  8  1  0  0  0  0
  3  8  1  0  0  0  0
  4 18  1  0  0  0  0
  4  7  2  0  0  0  0
  5  7  1  0  0  0  0
  5  3  1  0  0  0  0
  7  2  1  0  0  0  0
  8  6  2  0  0  0  0
  9  1  2  0  0  0  0
  9  4  1  0  0  0  0
 10 13  2  0  0  0  0
 11 23  1  0  0  0  0
 11 16  1  0  0  0  0
 12 18  1  6  0  0  0
 12 16  1  0  0  0  0
 12 10  1  0  0  0  0
 14 17  1  0  0  0  0
 14 18  2  0  0  0  0
 15 13  1  0  0  0  0
 16 15  1  1  0  0  0
 17 11  2  0  0  0  0
 19 21  1  0  0  0  0
 20 24  1  0  0  0  0
 20 22  1  0  0  0  0
 21 25  1  0  0  0  0
 22 26  1  0  0  0  0
 23 25  1  0  0  0  0
 24 19  1  0  0  0  0
 26 23  1  0  0  0  0
 27  1  1  0  0  0  0
 28 27  1  0  0  0  0
 29 28  1  1  0  0  0
 30 34  1  0  0  0  0
 30 37  1  0  0  0  0
 31 30  1  0  0  0  0
 33 32  1  0  0  0  0
 34 32  1  0  0  0  0
 35 31  1  0  0  0  0
 36 31  2  0  0  0  0
 37 33  1  0  0  0  0
 37 29  1  1  0  0  0
 38 40  2  0  0  0  0
 38 39  1  0  0  0  0
 39 43  2  0  0  0  0
 40 42  1  0  0  0  0
 41 29  1  0  0  0  0
 42 41  2  0  0  0  0
 43 41  1  0  0  0  0
M  END
>  <MODEL>
2

>  <REMARK>
 VINA RESULT:      -8.9      1.619      3.182
  Name = 
  7 active torsions:
  status: ('A' for Active; 'I' for Inactive)
    1  A    between atoms: C_5  and  N_25
    2  A    between atoms: C_11  and  C_37
    3  A    between atoms: C_15  and  C_16
    4  A    between atoms: C_15  and  C_37
    5  A    between atoms: C_16  and  C_27
    6  A    between atoms: C_16  and  C_35
    7  A    between atoms: C_19  and  C_31
                            x       y       z     vdW  Elec       q    Type
                         _______ _______ _______ _____ _____    ______ ____

>  <TORSDO>
F 7

$$$$
=
 OpenBabel11062416083D

 43 49  0  0  1  0  0  0  0  0999 V2000
  185.2860  178.9270  143.3560 C   0  0  0  0  0  0  0  0  0  0  0  0
  188.2220  177.3010  144.4220 C   0  0  0  0  0  2  0  0  0  0  0  0
  186.1960  178.1460  145.6520 C   0  0  0  0  0  2  0  0  0  0  0  0
  187.0550  178.1940  142.2140 C   0  0  0  0  0  0  0  0  0  0  0  0
  186.1640  178.4220  144.2340 N   0  0  0  0  0  0  0  0  0  0  0  0
  187.9760  177.0110  146.8010 O   0  0  0  0  0  0  0  0  0  0  0  0
  187.2130  177.9800  143.5720 C   0  0  0  0  0  0  0  0  0  0  0  0
  187.5200  177.4380  145.7520 C   0  0  0  0  0  0  0  0  0  0  0  0
  185.8050  178.8130  142.0660 C   0  0  0  0  0  3  0  0  0  0  0  0
  189.9680  177.3740  142.5600 N   0  0  0  0  0  0  0  0  0  0  0  0
  189.7650  177.2540  138.8940 C   0  0  0  0  0  0  0  0  0  0  0  0
  189.2020  176.9590  141.3930 C   0  0  2  0  0  3  0  0  0  0  0  0
  191.1870  177.6250  142.2090 C   0  0  0  0  0  3  0  0  0  0  0  0
  187.6600  178.1180  139.8460 C   0  0  0  0  0  3  0  0  0  0  0  0
  191.3660  177.4890  140.7680 C   0  0  0  0  0  2  0  0  0  0  0  0
  190.1980  177.0910  140.2930 C   0  0  2  0  0  3  0  0  0  0  0  0
  188.5340  177.7530  138.7020 C   0  0  0  0  0  3  0  0  0  0  0  0
  187.9860  177.8270  141.1210 C   0  0  0  0  0  0  0  0  0  0  0  0
  190.9910  173.9660  137.3420 C   0  0  0  0  0  2  0  0  0  0  0  0
  189.3480  175.1230  135.7080 C   0  0  0  0  0  2  0  0  0  0  0  0
  192.0920  175.0190  137.1680 C   0  0  0  0  0  2  0  0  0  0  0  0
  190.2780  176.3010  135.3910 C   0  0  0  0  0  2  0  0  0  0  0  0
  190.6310  176.9550  137.7800 N   0  0  0  0  0  0  0  0  0  0  0  0
  189.5700  174.4870  137.0860 C   0  0  0  0  0  2  0  0  0  0  0  0
  191.9110  176.2760  138.0250 C   0  0  0  0  0  2  0  0  0  0  0  0
  190.2660  177.4230  136.4350 C   0  0  0  0  0  2  0  0  0  0  0  0
  183.9480  179.4800  143.7060 C   0  0  0  0  0  2  0  0  0  0  0  0
  182.8590  178.4820  143.3520 C   0  0  0  0  0  2  0  0  0  0  0  0
  182.0460  178.9710  142.1540 C   0  0  2  0  0  3  0  0  0  0  0  0
  179.7610  179.9100  142.2840 N   0  0  0  0  0  0  0  0  0  0  0  0
  179.6280  180.7950  141.1680 C   0  0  0  0  0  0  0  0  0  0  0  0
  179.3470  178.8670  144.3680 C   0  0  0  0  0  2  0  0  0  0  0  0
  180.1420  177.9070  143.4930 C   0  0  0  0  0  2  0  0  0  0  0  0
  178.9880  180.0580  143.5000 C   0  0  0  0  0  2  0  0  0  0  0  0
  178.9330  181.8410  141.2640 O   0  0  0  0  0  1  0  0  0  0  0  0
  180.2640  180.5050  139.9670 O   0  0  0  0  0  0  0  0  0  0  0  0
  180.5310  178.6830  142.2390 C   0  0  2  0  0  3  0  0  0  0  0  0
  183.6970  177.5010  138.4630 C   0  0  0  0  0  3  0  0  0  0  0  0
  183.0050  176.6420  139.3220 C   0  0  0  0  0  3  0  0  0  0  0  0
  183.8580  178.8490  138.8040 C   0  0  0  0  0  3  0  0  0  0  0  0
  182.6330  178.4740  140.8670 C   0  0  0  0  0  0  0  0  0  0  0  0
  183.3270  179.3340  140.0010 C   0  0  0  0  0  3  0  0  0  0  0  0
  182.4730  177.1270  140.5210 C   0  0  0  0  0  3  0  0  0  0  0  0
  1 27  1  0  0  0  0
  1  5  1  0  0  0  0
  2  8  1  0  0  0  0
  3  8  1  0  0  0  0
  4  7  2  0  0  0  0
  5  3  1  0  0  0  0
  7  5  1  0  0  0  0
  7  2  1  0  0  0  0
  8  6  2  0  0  0  0
  9  4  1  0  0  0  0
  9  1  2  0  0  0  0
 11 16  1  0  0  0  0
 12 18  1  6  0  0  0
 12 10  1  0  0  0  0
 13 10  2  0  0  0  0
 14 18  2  0  0  0  0
 15 13  1  0  0  0  0
 16 15  1  1  0  0  0
 16 12  1  0  0  0  0
 17 11  2  0  0  0  0
 17 14  1  0  0  0  0
 18  4  1  0  0  0  0
 20 24  1  0  0  0  0
 21 19  1  0  0  0  0
 21 25  1  0  0  0  0
 22 20  1  0  0  0  0
 22 26  1  0  0  0  0
 23 25  1  0  0  0  0
 23 11  1  0  0  0  0
 24 19  1  0  0  0  0
 26 23  1  0  0  0  0
 28 27  1  0  0  0  0
 29 28  1  1  0  0  0
 30 34  1  0  0  0  0
 31 35  1  0  0  0  0
 31 30  1  0  0  0  0
 33 32  1  0  0  0  0
 34 32  1  0  0  0  0
 36 31  2  0  0  0  0
 37 29  1  1  0  0  0
 37 30  1  0  0  0  0
 37 33  1  0  0  0  0
 38 40  2  0  0  0  0
 38 39  1  0  0  0  0
 39 43  2  0  0  0  0
 40 42  1  0  0  0  0
 41 29  1  0  0  0  0
 42 41  2  0  0  0  0
 43 41  1  0  0  0  0
M  END
>  <MODEL>
3

>  <REMARK>
 VINA RESULT:      -8.7      2.241      8.883
  Name = 
  7 active torsions:
  status: ('A' for Active; 'I' for Inactive)
    1  A    between atoms: C_5  and  N_25
    2  A    between atoms: C_11  and  C_37
    3  A    between atoms: C_15  and  C_16
    4  A    between atoms: C_15  and  C_37
    5  A    between atoms: C_16  and  C_27
    6  A    between atoms: C_16  and  C_35
    7  A    between atoms: C_19  and  C_31
                            x       y       z     vdW  Elec       q    Type
                         _______ _______ _______ _____ _____    ______ ____

>  <TORSDO>
F 7

$$$$
=
 OpenBabel11062416083D

 43 49  0  0  1  0  0  0  0  0999 V2000
  186.0690  178.7010  142.1500 C   0  0  0  0  0  0  0  0  0  0  0  0
  188.9910  177.1040  143.2940 C   0  0  0  0  0  2  0  0  0  0  0  0
  186.9020  177.8820  144.4620 C   0  0  0  0  0  2  0  0  0  0  0  0
  187.8950  178.0290  141.0630 C   0  0  0  0  0  0  0  0  0  0  0  0
  186.9200  178.1920  143.0510 N   0  0  0  0  0  0  0  0  0  0  0  0
  188.6570  176.7530  145.6550 O   0  0  0  0  0  0  0  0  0  0  0  0
  188.0030  177.7840  142.4220 C   0  0  0  0  0  0  0  0  0  0  0  0
  188.2350  177.1960  144.5990 C   0  0  0  0  0  0  0  0  0  0  0  0
  186.6400  178.6280  140.8800 C   0  0  0  0  0  3  0  0  0  0  0  0
  187.5590  178.6290  138.0960 N   0  0  0  0  0  0  0  0  0  0  0  0
  190.8020  176.9070  137.9750 C   0  0  0  0  0  0  0  0  0  0  0  0
  188.8800  178.4710  138.6880 C   0  0  2  0  0  3  0  0  0  0  0  0
  187.5560  178.1190  136.9080 C   0  0  0  0  0  3  0  0  0  0  0  0
  189.8790  176.8460  140.2610 C   0  0  0  0  0  3  0  0  0  0  0  0
  188.8340  177.4940  136.5910 C   0  0  0  0  0  2  0  0  0  0  0  0
  189.6130  177.7090  137.6390 C   0  0  2  0  0  3  0  0  0  0  0  0
  190.9090  176.5000  139.2490 C   0  0  0  0  0  3  0  0  0  0  0  0
  188.8750  177.7050  140.0000 C   0  0  0  0  0  0  0  0  0  0  0  0
  193.0270  173.8090  137.5610 C   0  0  0  0  0  2  0  0  0  0  0  0
  191.2060  173.8060  135.7200 C   0  0  0  0  0  2  0  0  0  0  0  0
  193.7750  175.0170  136.9860 C   0  0  0  0  0  2  0  0  0  0  0  0
  191.7620  175.0280  134.9770 C   0  0  0  0  0  2  0  0  0  0  0  0
  191.7770  176.5210  136.9840 N   0  0  0  0  0  0  0  0  0  0  0  0
  191.5320  173.7680  137.2190 C   0  0  0  0  0  2  0  0  0  0  0  0
  193.1840  176.3760  137.3760 C   0  0  0  0  0  2  0  0  0  0  0  0
  191.3620  176.3780  135.5810 C   0  0  0  0  0  2  0  0  0  0  0  0
  184.7070  179.2210  142.4600 C   0  0  0  0  0  2  0  0  0  0  0  0
  183.6680  178.1360  142.2330 C   0  0  0  0  0  2  0  0  0  0  0  0
  182.7480  178.5040  141.0680 C   0  0  2  0  0  3  0  0  0  0  0  0
  180.6240  179.7440  141.3260 N   0  0  0  0  0  0  0  0  0  0  0  0
  180.4300  180.4640  140.1050 C   0  0  0  0  0  0  0  0  0  0  0  0
  180.4010  179.0840  143.5880 C   0  0  0  0  0  2  0  0  0  0  0  0
  180.9510  177.9080  142.7900 C   0  0  0  0  0  2  0  0  0  0  0  0
  180.0550  180.1700  142.5880 C   0  0  0  0  0  2  0  0  0  0  0  0
  179.8760  181.5950  140.1150 O   0  0  0  0  0  1  0  0  0  0  0  0
  180.8510  179.9190  138.8990 O   0  0  0  0  0  0  0  0  0  0  0  0
  181.2390  178.4330  141.3880 C   0  0  2  0  0  3  0  0  0  0  0  0
  183.6980  176.2000  137.5620 C   0  0  0  0  0  3  0  0  0  0  0  0
  182.9860  175.6230  138.6170 C   0  0  0  0  0  3  0  0  0  0  0  0
  184.1090  177.5350  137.6430 C   0  0  0  0  0  3  0  0  0  0  0  0
  183.0940  177.7140  139.8420 C   0  0  0  0  0  0  0  0  0  0  0  0
  183.8070  178.2900  138.7780 C   0  0  0  0  0  3  0  0  0  0  0  0
  182.6840  176.3780  139.7550 C   0  0  0  0  0  3  0  0  0  0  0  0
  1 27  1  0  0  0  0
  1  5  1  0  0  0  0
  2  8  1  0  0  0  0
  3  8  1  0  0  0  0
  4  7  2  0  0  0  0
  5  3  1  0  0  0  0
  7  5  1  0  0  0  0
  7  2  1  0  0  0  0
  8  6  2  0  0  0  0
  9  4  1  0  0  0  0
  9  1  2  0  0  0  0
 11 17  2  0  0  0  0
 12 10  1  6  0  0  0
 12 18  1  0  0  0  0
 13 10  2  0  0  0  0
 15 13  1  0  0  0  0
 16 15  1  1  0  0  0
 16 11  1  0  0  0  0
 16 12  1  0  0  0  0
 17 14  1  0  0  0  0
 18 14  2  0  0  0  0
 18  4  1  0  0  0  0
 20 24  1  0  0  0  0
 21 25  1  0  0  0  0
 21 19  1  0  0  0  0
 22 26  1  0  0  0  0
 22 20  1  0  0  0  0
 23 25  1  0  0  0  0
 23 11  1  0  0  0  0
 24 19  1  0  0  0  0
 26 23  1  0  0  0  0
 28 27  1  0  0  0  0
 29 28  1  1  0  0  0
 30 37  1  0  0  0  0
 30 34  1  0  0  0  0
 31 35  1  0  0  0  0
 31 30  1  0  0  0  0
 33 32  1  0  0  0  0
 34 32  1  0  0  0  0
 36 31  2  0  0  0  0
 37 29  1  1  0  0  0
 37 33  1  0  0  0  0
 38 40  2  0  0  0  0
 38 39  1  0  0  0  0
 39 43  2  0  0  0  0
 40 42  1  0  0  0  0
 41 29  1  0  0  0  0
 42 41  2  0  0  0  0
 43 41  1  0  0  0  0
M  END
>  <MODEL>
4

>  <REMARK>
 VINA RESULT:      -8.7      2.220      9.123
  Name = 
  7 active torsions:
  status: ('A' for Active; 'I' for Inactive)
    1  A    between atoms: C_5  and  N_25
    2  A    between atoms: C_11  and  C_37
    3  A    between atoms: C_15  and  C_16
    4  A    between atoms: C_15  and  C_37
    5  A    between atoms: C_16  and  C_27
    6  A    between atoms: C_16  and  C_35
    7  A    between atoms: C_19  and  C_31
                            x       y       z     vdW  Elec       q    Type
                         _______ _______ _______ _____ _____    ______ ____

>  <TORSDO>
F 7

$$$$
=
 OpenBabel11062416083D

 43 49  0  0  1  0  0  0  0  0999 V2000
  189.1380  177.5300  139.9690 C   0  0  0  0  0  0  0  0  0  0  0  0
  188.2760  176.7410  136.6480 C   0  0  0  0  0  2  0  0  0  0  0  0
  187.2350  178.2530  138.3680 C   0  0  0  0  0  2  0  0  0  0  0  0
  190.1050  176.1780  138.4840 C   0  0  0  0  0  0  0  0  0  0  0  0
  188.3900  177.5360  138.8570 N   0  0  0  0  0  0  0  0  0  0  0  0
  186.3250  178.0650  136.1510 O   0  0  0  0  0  0  0  0  0  0  0  0
  188.9530  176.7450  137.9670 C   0  0  0  0  0  0  0  0  0  0  0  0
  187.1740  177.7250  136.9600 C   0  0  0  0  0  0  0  0  0  0  0  0
  190.2300  176.6820  139.7870 C   0  0  0  0  0  3  0  0  0  0  0  0
  193.0340  176.7530  137.8740 N   0  0  0  0  0  0  0  0  0  0  0  0
  192.7700  173.4170  136.3570 C   0  0  0  0  0  0  0  0  0  0  0  0
  192.5460  175.3870  138.0050 C   0  0  2  0  0  3  0  0  0  0  0  0
  193.9300  176.8010  136.9430 C   0  0  0  0  0  3  0  0  0  0  0  0
  190.5640  174.1780  137.1540 C   0  0  0  0  0  3  0  0  0  0  0  0
  194.0950  175.5080  136.2910 C   0  0  0  0  0  2  0  0  0  0  0  0
  193.2820  174.6770  136.9230 C   0  0  2  0  0  3  0  0  0  0  0  0
  191.4520  173.1980  136.4800 C   0  0  0  0  0  3  0  0  0  0  0  0
  191.0450  175.2530  137.8080 C   0  0  0  0  0  0  0  0  0  0  0  0
  196.4880  172.5200  136.6620 C   0  0  0  0  0  2  0  0  0  0  0  0
  195.0570  170.5270  137.4910 C   0  0  0  0  0  2  0  0  0  0  0  0
  196.0750  172.3600  135.1940 C   0  0  0  0  0  2  0  0  0  0  0  0
  194.4850  170.1860  136.1090 C   0  0  0  0  0  2  0  0  0  0  0  0
  193.6190  172.4880  135.6520 N   0  0  0  0  0  0  0  0  0  0  0  0
  195.4570  171.9970  137.6710 C   0  0  0  0  0  2  0  0  0  0  0  0
  194.7290  173.0010  134.8390 C   0  0  0  0  0  2  0  0  0  0  0  0
  193.2970  171.0540  135.6780 C   0  0  0  0  0  2  0  0  0  0  0  0
  188.8650  178.3410  141.1890 C   0  0  0  0  0  2  0  0  0  0  0  0
  187.6940  177.7530  141.9580 C   0  0  0  0  0  2  0  0  0  0  0  0
  187.9180  177.8830  143.4650 C   0  0  2  0  0  3  0  0  0  0  0  0
  190.0650  177.0560  144.3720 N   0  0  0  0  0  0  0  0  0  0  0  0
  190.4610  177.9910  145.3790 C   0  0  0  0  0  0  0  0  0  0  0  0
  190.1810  175.3150  142.7720 C   0  0  0  0  0  2  0  0  0  0  0  0
  188.7330  175.4690  143.2190 C   0  0  0  0  0  2  0  0  0  0  0  0
  191.0120  176.2300  143.6510 C   0  0  0  0  0  2  0  0  0  0  0  0
  191.6810  178.2430  145.5700 O   0  0  0  0  0  0  0  0  0  0  0  0
  189.5010  178.6280  146.1570 O   0  0  0  0  0  1  0  0  0  0  0  0
  188.6830  176.7060  144.1090 C   0  0  2  0  0  3  0  0  0  0  0  0
  184.1900  178.6790  145.4590 C   0  0  0  0  0  3  0  0  0  0  0  0
  184.3040  178.8470  144.0750 C   0  0  0  0  0  3  0  0  0  0  0  0
  185.2950  178.2530  146.2040 C   0  0  0  0  0  3  0  0  0  0  0  0
  186.6280  178.1630  144.1770 C   0  0  0  0  0  0  0  0  0  0  0  0
  186.5100  177.9940  145.5660 C   0  0  0  0  0  3  0  0  0  0  0  0
  185.5200  178.5880  143.4350 C   0  0  0  0  0  3  0  0  0  0  0  0
  1 27  1  0  0  0  0
  2  8  1  0  0  0  0
  2  7  1  0  0  0  0
  3  5  1  0  0  0  0
  4  9  1  0  0  0  0
  5  1  1  0  0  0  0
  6  8  2  0  0  0  0
  7  4  2  0  0  0  0
  7  5  1  0  0  0  0
  8  3  1  0  0  0  0
  9  1  2  0  0  0  0
 10 12  1  0  0  0  0
 11 17  2  0  0  0  0
 11 16  1  0  0  0  0
 12 18  1  6  0  0  0
 13 10  2  0  0  0  0
 14 18  2  0  0  0  0
 15 13  1  0  0  0  0
 16 15  1  6  0  0  0
 16 12  1  0  0  0  0
 17 14  1  0  0  0  0
 18  4  1  0  0  0  0
 19 24  1  0  0  0  0
 20 24  1  0  0  0  0
 21 19  1  0  0  0  0
 22 20  1  0  0  0  0
 23 26  1  0  0  0  0
 23 11  1  0  0  0  0
 25 21  1  0  0  0  0
 25 23  1  0  0  0  0
 26 22  1  0  0  0  0
 27 28  1  0  0  0  0
 29 28  1  6  0  0  0
 29 41  1  0  0  0  0
 30 31  1  0  0  0  0
 31 35  2  0  0  0  0
 31 36  1  0  0  0  0
 32 33  1  0  0  0  0
 32 34  1  0  0  0  0
 33 37  1  0  0  0  0
 34 30  1  0  0  0  0
 37 29  1  6  0  0  0
 37 30  1  0  0  0  0
 38 40  1  0  0  0  0
 39 38  2  0  0  0  0
 41 42  1  0  0  0  0
 42 40  2  0  0  0  0
 43 39  1  0  0  0  0
 43 41  2  0  0  0  0
M  END
>  <MODEL>
5

>  <REMARK>
 VINA RESULT:      -8.6      3.065     11.158
  Name = 
  7 active torsions:
  status: ('A' for Active; 'I' for Inactive)
    1  A    between atoms: C_5  and  N_25
    2  A    between atoms: C_11  and  C_37
    3  A    between atoms: C_15  and  C_16
    4  A    between atoms: C_15  and  C_37
    5  A    between atoms: C_16  and  C_27
    6  A    between atoms: C_16  and  C_35
    7  A    between atoms: C_19  and  C_31
                            x       y       z     vdW  Elec       q    Type
                         _______ _______ _______ _____ _____    ______ ____

>  <TORSDO>
F 7

$$$$
=
 OpenBabel11062416083D

 43 49  0  0  1  0  0  0  0  0999 V2000
  182.7240  179.1410  139.8560 C   0  0  0  0  0  0  0  0  0  0  0  0
  182.5720  178.7940  143.3570 C   0  0  0  0  0  2  0  0  0  0  0  0
  180.8430  179.3700  141.6220 C   0  0  0  0  0  2  0  0  0  0  0  0
  184.2960  178.6240  141.3490 C   0  0  0  0  0  0  0  0  0  0  0  0
  182.1670  179.1880  141.0740 N   0  0  0  0  0  0  0  0  0  0  0  0
  180.2670  179.1740  143.9480 O   0  0  0  0  0  0  0  0  0  0  0  0
  183.0840  178.8790  141.9680 C   0  0  0  0  0  0  0  0  0  0  0  0
  181.1240  179.1220  143.0800 C   0  0  0  0  0  0  0  0  0  0  0  0
  184.0700  178.7960  139.9760 C   0  0  0  0  0  3  0  0  0  0  0  0
  187.0270  178.6280  140.0000 N   0  0  0  0  0  0  0  0  0  0  0  0
  188.0020  177.2820  143.2770 C   0  0  0  0  0  0  0  0  0  0  0  0
  186.9020  178.7290  141.4470 C   0  0  2  0  0  3  0  0  0  0  0  0
  188.0630  177.9110  139.7060 C   0  0  0  0  0  3  0  0  0  0  0  0
  185.5530  177.5400  143.1450 C   0  0  0  0  0  3  0  0  0  0  0  0
  188.7050  177.3840  140.9040 C   0  0  0  0  0  2  0  0  0  0  0  0
  188.0220  177.8730  141.9270 C   0  0  2  0  0  3  0  0  0  0  0  0
  186.7960  177.1300  143.8450 C   0  0  0  0  0  3  0  0  0  0  0  0
  185.5740  178.2210  141.9820 C   0  0  0  0  0  0  0  0  0  0  0  0
  191.7360  177.8080  142.5690 C   0  0  0  0  0  2  0  0  0  0  0  0
  191.0820  179.1000  144.7150 C   0  0  0  0  0  2  0  0  0  0  0  0
  191.5590  176.4240  143.2050 C   0  0  0  0  0  2  0  0  0  0  0  0
  190.8180  177.8450  145.5560 C   0  0  0  0  0  2  0  0  0  0  0  0
  189.2020  176.8310  143.9380 N   0  0  0  0  0  0  0  0  0  0  0  0
  190.8830  178.9120  143.2060 C   0  0  0  0  0  2  0  0  0  0  0  0
  190.1120  175.9180  143.2340 C   0  0  0  0  0  2  0  0  0  0  0  0
  189.4400  177.2090  145.3380 C   0  0  0  0  0  2  0  0  0  0  0  0
  182.0000  179.3780  138.5750 C   0  0  0  0  0  2  0  0  0  0  0  0
  180.8980  178.3480  138.3980 C   0  0  0  0  0  2  0  0  0  0  0  0
  181.4840  176.9390  138.3040 C   0  0  2  0  0  3  0  0  0  0  0  0
  183.1970  176.5770  136.5580 N   0  0  0  0  0  0  0  0  0  0  0  0
  184.2030  175.7500  137.1500 C   0  0  0  0  0  0  0  0  0  0  0  0
  182.1290  178.0700  135.0630 C   0  0  0  0  0  2  0  0  0  0  0  0
  181.0610  177.2740  135.8020 C   0  0  0  0  0  2  0  0  0  0  0  0
  183.4690  177.4770  135.4560 C   0  0  0  0  0  2  0  0  0  0  0  0
  185.4130  175.8910  136.8280 O   0  0  0  0  0  0  0  0  0  0  0  0
  183.8520  174.7830  138.0830 O   0  0  0  0  0  1  0  0  0  0  0  0
  181.7860  176.4590  136.8680 C   0  0  2  0  0  3  0  0  0  0  0  0
  179.0740  174.0720  140.4200 C   0  0  0  0  0  3  0  0  0  0  0  0
  179.6260  173.7530  139.1760 C   0  0  0  0  0  3  0  0  0  0  0  0
  179.3030  175.3320  140.9840 C   0  0  0  0  0  3  0  0  0  0  0  0
  180.6360  175.9540  139.0520 C   0  0  0  0  0  0  0  0  0  0  0  0
  180.0820  176.2700  140.3030 C   0  0  0  0  0  3  0  0  0  0  0  0
  180.4060  174.6920  138.4930 C   0  0  0  0  0  3  0  0  0  0  0  0
  1  9  2  0  0  0  0
  1  5  1  0  0  0  0
  3  8  1  0  0  0  0
  4  7  2  0  0  0  0
  4 18  1  0  0  0  0
  5  3  1  0  0  0  0
  5  7  1  0  0  0  0
  7  2  1  0  0  0  0
  8  2  1  0  0  0  0
  8  6  2  0  0  0  0
  9  4  1  0  0  0  0
 11 17  2  0  0  0  0
 11 23  1  0  0  0  0
 12 10  1  6  0  0  0
 12 16  1  0  0  0  0
 12 18  1  0  0  0  0
 13 10  2  0  0  0  0
 13 15  1  0  0  0  0
 14 17  1  0  0  0  0
 16 15  1  6  0  0  0
 16 11  1  0  0  0  0
 18 14  2  0  0  0  0
 19 21  1  0  0  0  0
 19 24  1  0  0  0  0
 20 22  1  0  0  0  0
 21 25  1  0  0  0  0
 23 26  1  0  0  0  0
 24 20  1  0  0  0  0
 25 23  1  0  0  0  0
 26 22  1  0  0  0  0
 27  1  1  0  0  0  0
 28 27  1  0  0  0  0
 29 28  1  6  0  0  0
 29 41  1  0  0  0  0
 30 37  1  0  0  0  0
 30 31  1  0  0  0  0
 31 36  1  0  0  0  0
 32 34  1  0  0  0  0
 32 33  1  0  0  0  0
 33 37  1  0  0  0  0
 34 30  1  0  0  0  0
 35 31  2  0  0  0  0
 37 29  1  1  0  0  0
 38 40  1  0  0  0  0
 39 38  2  0  0  0  0
 41 42  1  0  0  0  0
 42 40  2  0  0  0  0
 43 41  2  0  0  0  0
 43 39  1  0  0  0  0
M  END
>  <MODEL>
6

>  <REMARK>
 VINA RESULT:      -8.6      3.324      8.757
  Name = 
  7 active torsions:
  status: ('A' for Active; 'I' for Inactive)
    1  A    between atoms: C_5  and  N_25
    2  A    between atoms: C_11  and  C_37
    3  A    between atoms: C_15  and  C_16
    4  A    between atoms: C_15  and  C_37
    5  A    between atoms: C_16  and  C_27
    6  A    between atoms: C_16  and  C_35
    7  A    between atoms: C_19  and  C_31
                            x       y       z     vdW  Elec       q    Type
                         _______ _______ _______ _____ _____    ______ ____

>  <TORSDO>
F 7

$$$$
=
 OpenBabel11062416083D

 43 49  0  0  1  0  0  0  0  0999 V2000
  187.1040  178.2600  140.8390 C   0  0  0  0  0  0  0  0  0  0  0  0
  186.8030  178.2730  137.3310 C   0  0  0  0  0  2  0  0  0  0  0  0
  188.7240  177.7750  138.8770 C   0  0  0  0  0  2  0  0  0  0  0  0
  185.3660  178.7080  139.5170 C   0  0  0  0  0  0  0  0  0  0  0  0
  187.5200  178.1760  139.5680 N   0  0  0  0  0  0  0  0  0  0  0  0
  188.9560  177.5920  136.4920 O   0  0  0  0  0  0  0  0  0  0  0  0
  186.5010  178.4330  138.7740 C   0  0  0  0  0  0  0  0  0  0  0  0
  188.2480  177.8520  137.4520 C   0  0  0  0  0  0  0  0  0  0  0  0
  185.7520  178.6000  140.8620 C   0  0  0  0  0  3  0  0  0  0  0  0
  183.6440  176.8890  137.7840 N   0  0  0  0  0  0  0  0  0  0  0  0
  181.4010  179.7930  137.9830 C   0  0  0  0  0  0  0  0  0  0  0  0
  183.0450  177.9140  138.6280 C   0  0  2  0  0  3  0  0  0  0  0  0
  182.9800  176.8010  136.6780 C   0  0  0  0  0  3  0  0  0  0  0  0
  183.5550  180.2910  139.0750 C   0  0  0  0  0  3  0  0  0  0  0  0
  181.9170  177.7960  136.6110 C   0  0  0  0  0  2  0  0  0  0  0  0
  181.9540  178.4450  137.7640 C   0  0  2  0  0  3  0  0  0  0  0  0
  182.1950  180.6690  138.6180 C   0  0  0  0  0  3  0  0  0  0  0  0
  184.0060  179.0230  139.0190 C   0  0  0  0  0  0  0  0  0  0  0  0
  180.0690  183.0100  136.3710 C   0  0  0  0  0  2  0  0  0  0  0  0
  180.1390  181.1280  134.5940 C   0  0  0  0  0  2  0  0  0  0  0  0
  178.9320  182.3700  137.1760 C   0  0  0  0  0  2  0  0  0  0  0  0
  179.0250  180.2920  135.2360 C   0  0  0  0  0  2  0  0  0  0  0  0
  180.1020  180.1820  137.4910 N   0  0  0  0  0  0  0  0  0  0  0  0
  180.9200  182.0120  135.5740 C   0  0  0  0  0  2  0  0  0  0  0  0
  179.3810  181.2770  138.1520 C   0  0  0  0  0  2  0  0  0  0  0  0
  179.4810  179.4110  136.4040 C   0  0  0  0  0  2  0  0  0  0  0  0
  187.9490  177.9860  142.0360 C   0  0  0  0  0  2  0  0  0  0  0  0
  187.1310  177.2860  143.1070 C   0  0  0  0  0  2  0  0  0  0  0  0
  187.7880  177.4420  144.4780 C   0  0  2  0  0  3  0  0  0  0  0  0
  186.8840  178.0610  146.6960 N   0  0  0  0  0  0  0  0  0  0  0  0
  187.8950  177.7200  147.6490 C   0  0  0  0  0  0  0  0  0  0  0  0
  184.7740  178.6280  145.7850 C   0  0  0  0  0  2  0  0  0  0  0  0
  185.8600  179.0900  144.8210 C   0  0  0  0  0  2  0  0  0  0  0  0
  185.4770  178.1310  147.0330 C   0  0  0  0  0  2  0  0  0  0  0  0
  187.5750  177.3120  148.7970 O   0  0  0  0  0  1  0  0  0  0  0  0
  189.2380  177.8380  147.3150 O   0  0  0  0  0  0  0  0  0  0  0  0
  187.1800  178.5510  145.3640 C   0  0  2  0  0  3  0  0  0  0  0  0
  192.0560  177.8120  144.0850 C   0  0  0  0  0  3  0  0  0  0  0  0
  191.4620  176.5520  144.2050 C   0  0  0  0  0  3  0  0  0  0  0  0
  191.2610  178.9630  144.0960 C   0  0  0  0  0  3  0  0  0  0  0  0
  189.2740  177.5900  144.3470 C   0  0  0  0  0  0  0  0  0  0  0  0
  189.8750  178.8530  144.2240 C   0  0  0  0  0  3  0  0  0  0  0  0
  190.0740  176.4410  144.3350 C   0  0  0  0  0  3  0  0  0  0  0  0
  1  9  2  0  0  0  0
  1 27  1  0  0  0  0
  2  8  1  0  0  0  0
  2  7  1  0  0  0  0
  3  5  1  0  0  0  0
  4  9  1  0  0  0  0
  5  1  1  0  0  0  0
  6  8  2  0  0  0  0
  7  4  2  0  0  0  0
  7  5  1  0  0  0  0
  8  3  1  0  0  0  0
 11 17  2  0  0  0  0
 12 10  1  6  0  0  0
 12 18  1  0  0  0  0
 13 10  2  0  0  0  0
 15 13  1  0  0  0  0
 16 15  1  6  0  0  0
 16 11  1  0  0  0  0
 16 12  1  0  0  0  0
 17 14  1  0  0  0  0
 18 14  2  0  0  0  0
 18  4  1  0  0  0  0
 19 21  1  0  0  0  0
 20 22  1  0  0  0  0
 20 24  1  0  0  0  0
 21 25  1  0  0  0  0
 22 26  1  0  0  0  0
 23 11  1  0  0  0  0
 23 25  1  0  0  0  0
 24 19  1  0  0  0  0
 26 23  1  0  0  0  0
 27 28  1  0  0  0  0
 29 28  1  6  0  0  0
 30 34  1  0  0  0  0
 30 31  1  0  0  0  0
 31 35  1  0  0  0  0
 32 34  1  0  0  0  0
 33 37  1  0  0  0  0
 33 32  1  0  0  0  0
 36 31  2  0  0  0  0
 37 29  1  6  0  0  0
 37 30  1  0  0  0  0
 38 40  2  0  0  0  0
 38 39  1  0  0  0  0
 39 43  2  0  0  0  0
 40 42  1  0  0  0  0
 41 29  1  0  0  0  0
 42 41  2  0  0  0  0
 43 41  1  0  0  0  0
M  END
>  <MODEL>
7

>  <REMARK>
 VINA RESULT:      -8.5      3.052      6.921
  Name = 
  7 active torsions:
  status: ('A' for Active; 'I' for Inactive)
    1  A    between atoms: C_5  and  N_25
    2  A    between atoms: C_11  and  C_37
    3  A    between atoms: C_15  and  C_16
    4  A    between atoms: C_15  and  C_37
    5  A    between atoms: C_16  and  C_27
    6  A    between atoms: C_16  and  C_35
    7  A    between atoms: C_19  and  C_31
                            x       y       z     vdW  Elec       q    Type
                         _______ _______ _______ _____ _____    ______ ____

>  <TORSDO>
F 7

$$$$
=
 OpenBabel11062416083D

 43 49  0  0  1  0  0  0  0  0999 V2000
  187.5180  177.9160  142.0020 C   0  0  0  0  0  0  0  0  0  0  0  0
  190.7790  176.8920  142.8490 C   0  0  0  0  0  2  0  0  0  0  0  0
  188.7660  177.4940  144.2330 C   0  0  0  0  0  2  0  0  0  0  0  0
  189.2690  177.3900  140.7270 C   0  0  0  0  0  0  0  0  0  0  0  0
  188.5500  177.6390  142.8110 N   0  0  0  0  0  0  0  0  0  0  0  0
  190.8170  176.7700  145.2550 O   0  0  0  0  0  0  0  0  0  0  0  0
  189.5910  177.3210  142.0710 C   0  0  0  0  0  0  0  0  0  0  0  0
  190.1960  177.0250  144.2360 C   0  0  0  0  0  0  0  0  0  0  0  0
  187.9220  177.7790  140.6750 C   0  0  0  0  0  3  0  0  0  0  0  0
  188.3240  176.3860  138.0100 N   0  0  0  0  0  0  0  0  0  0  0  0
  191.9460  176.4020  137.3940 C   0  0  0  0  0  0  0  0  0  0  0  0
  189.5830  177.1040  138.1520 C   0  0  2  0  0  3  0  0  0  0  0  0
  188.4560  175.4560  137.1220 C   0  0  0  0  0  3  0  0  0  0  0  0
  191.4690  176.9720  139.7450 C   0  0  0  0  0  3  0  0  0  0  0  0
  189.8240  175.3840  136.6230 C   0  0  0  0  0  2  0  0  0  0  0  0
  190.4820  176.3600  137.2270 C   0  0  2  0  0  3  0  0  0  0  0  0
  192.4000  176.7000  138.6210 C   0  0  0  0  0  3  0  0  0  0  0  0
  190.1390  177.0890  139.5650 C   0  0  0  0  0  0  0  0  0  0  0  0
  194.8520  173.9170  137.0750 C   0  0  0  0  0  2  0  0  0  0  0  0
  192.8790  173.1210  135.5980 C   0  0  0  0  0  2  0  0  0  0  0  0
  195.1670  175.1380  136.2030 C   0  0  0  0  0  2  0  0  0  0  0  0
  192.9860  174.2760  134.5940 C   0  0  0  0  0  2  0  0  0  0  0  0
  192.8530  176.0820  136.3190 N   0  0  0  0  0  0  0  0  0  0  0  0
  193.3920  173.4490  137.0060 C   0  0  0  0  0  2  0  0  0  0  0  0
  194.2860  176.3620  136.4800 C   0  0  0  0  0  2  0  0  0  0  0  0
  192.3170  175.5790  135.0470 C   0  0  0  0  0  2  0  0  0  0  0  0
  186.1440  178.2680  142.4580 C   0  0  0  0  0  2  0  0  0  0  0  0
  185.3990  179.0040  141.3580 C   0  0  0  0  0  2  0  0  0  0  0  0
  184.1230  178.2540  140.9740 C   0  0  2  0  0  3  0  0  0  0  0  0
  183.8820  177.1410  138.7790 N   0  0  0  0  0  0  0  0  0  0  0  0
  183.0570  175.9930  139.0000 C   0  0  0  0  0  0  0  0  0  0  0  0
  185.4110  178.6260  137.7490 C   0  0  0  0  0  2  0  0  0  0  0  0
  184.5560  179.4140  138.7340 C   0  0  0  0  0  2  0  0  0  0  0  0
  184.8370  177.2230  137.6920 C   0  0  0  0  0  2  0  0  0  0  0  0
  183.2440  174.9380  138.3390 O   0  0  0  0  0  0  0  0  0  0  0  0
  182.0410  176.0370  139.9470 O   0  0  0  0  0  1  0  0  0  0  0  0
  183.7140  178.3920  139.4910 C   0  0  2  0  0  3  0  0  0  0  0  0
  180.8490  179.2520  143.5790 C   0  0  0  0  0  3  0  0  0  0  0  0
  180.6620  179.2000  142.1950 C   0  0  0  0  0  3  0  0  0  0  0  0
  182.1080  178.9810  144.1250 C   0  0  0  0  0  3  0  0  0  0  0  0
  182.9950  178.6070  141.8960 C   0  0  0  0  0  0  0  0  0  0  0  0
  183.1780  178.6580  143.2870 C   0  0  0  0  0  3  0  0  0  0  0  0
  181.7330  178.8780  141.3550 C   0  0  0  0  0  3  0  0  0  0  0  0
  1 27  1  0  0  0  0
  1  5  1  0  0  0  0
  2  8  1  0  0  0  0
  3  8  1  0  0  0  0
  4  7  2  0  0  0  0
  5  3  1  0  0  0  0
  7  5  1  0  0  0  0
  7  2  1  0  0  0  0
  8  6  2  0  0  0  0
  9  4  1  0  0  0  0
  9  1  2  0  0  0  0
 11 17  2  0  0  0  0
 12 10  1  1  0  0  0
 12 18  1  0  0  0  0
 13 10  2  0  0  0  0
 15 13  1  0  0  0  0
 16 15  1  1  0  0  0
 16 11  1  0  0  0  0
 16 12  1  0  0  0  0
 17 14  1  0  0  0  0
 18 14  2  0  0  0  0
 18  4  1  0  0  0  0
 20 24  1  0  0  0  0
 21 25  1  0  0  0  0
 21 19  1  0  0  0  0
 22 26  1  0  0  0  0
 22 20  1  0  0  0  0
 23 25  1  0  0  0  0
 23 11  1  0  0  0  0
 24 19  1  0  0  0  0
 26 23  1  0  0  0  0
 28 27  1  0  0  0  0
 29 28  1  1  0  0  0
 29 41  1  0  0  0  0
 30 31  1  0  0  0  0
 30 37  1  0  0  0  0
 31 36  1  0  0  0  0
 32 33  1  0  0  0  0
 33 37  1  0  0  0  0
 34 32  1  0  0  0  0
 34 30  1  0  0  0  0
 35 31  2  0  0  0  0
 37 29  1  1  0  0  0
 38 40  1  0  0  0  0
 39 38  2  0  0  0  0
 41 42  1  0  0  0  0
 42 40  2  0  0  0  0
 43 41  2  0  0  0  0
 43 39  1  0  0  0  0
M  END
>  <MODEL>
8

>  <REMARK>
 VINA RESULT:      -8.4      2.124      9.731
  Name = 
  7 active torsions:
  status: ('A' for Active; 'I' for Inactive)
    1  A    between atoms: C_5  and  N_25
    2  A    between atoms: C_11  and  C_37
    3  A    between atoms: C_15  and  C_16
    4  A    between atoms: C_15  and  C_37
    5  A    between atoms: C_16  and  C_27
    6  A    between atoms: C_16  and  C_35
    7  A    between atoms: C_19  and  C_31
                            x       y       z     vdW  Elec       q    Type
                         _______ _______ _______ _____ _____    ______ ____

>  <TORSDO>
F 7

$$$$
=
 OpenBabel11062416083D

 43 49  0  0  1  0  0  0  0  0999 V2000
  182.4340  177.9170  140.2460 C   0  0  0  0  0  0  0  0  0  0  0  0
  182.5060  179.0060  143.5940 C   0  0  0  0  0  2  0  0  0  0  0  0
  180.6280  178.6230  141.9640 C   0  0  0  0  0  2  0  0  0  0  0  0
  184.1370  178.2360  141.6490 C   0  0  0  0  0  0  0  0  0  0  0  0
  181.9370  178.3900  141.3970 N   0  0  0  0  0  0  0  0  0  0  0  0
  180.2030  179.3230  144.2230 O   0  0  0  0  0  0  0  0  0  0  0  0
  182.9320  178.5780  142.2390 C   0  0  0  0  0  0  0  0  0  0  0  0
  181.0140  179.0230  143.3630 C   0  0  0  0  0  0  0  0  0  0  0  0
  183.8200  177.8080  140.3510 C   0  0  0  0  0  3  0  0  0  0  0  0
  186.7440  178.6920  140.1410 N   0  0  0  0  0  0  0  0  0  0  0  0
  188.1070  178.2020  143.5180 C   0  0  0  0  0  0  0  0  0  0  0  0
  186.6300  179.0000  141.5600 C   0  0  2  0  0  3  0  0  0  0  0  0
  187.9210  178.2170  139.8970 C   0  0  0  0  0  3  0  0  0  0  0  0
  185.6710  177.8160  143.5070 C   0  0  0  0  0  3  0  0  0  0  0  0
  188.7040  178.0750  141.1180 C   0  0  0  0  0  2  0  0  0  0  0  0
  187.9440  178.5430  142.0930 C   0  0  2  0  0  3  0  0  0  0  0  0
  186.9930  177.8520  144.1800 C   0  0  0  0  0  3  0  0  0  0  0  0
  185.4900  178.2750  142.2530 C   0  0  0  0  0  0  0  0  0  0  0  0
  190.8690  175.5500  143.7560 C   0  0  0  0  0  2  0  0  0  0  0  0
  191.6850  177.5030  142.2650 C   0  0  0  0  0  2  0  0  0  0  0  0
  190.8820  176.3730  145.0490 C   0  0  0  0  0  2  0  0  0  0  0  0
  191.7570  178.5250  143.4070 C   0  0  0  0  0  2  0  0  0  0  0  0
  189.3970  178.1800  144.1620 N   0  0  0  0  0  0  0  0  0  0  0  0
  190.6670  176.3770  142.4790 C   0  0  0  0  0  2  0  0  0  0  0  0
  189.6360  177.2390  145.2640 C   0  0  0  0  0  2  0  0  0  0  0  0
  190.4140  179.1680  143.7740 C   0  0  0  0  0  2  0  0  0  0  0  0
  181.6220  177.5270  139.0590 C   0  0  0  0  0  2  0  0  0  0  0  0
  182.5050  177.4290  137.8280 C   0  0  0  0  0  2  0  0  0  0  0  0
  182.8010  175.9680  137.4910 C   0  0  2  0  0  3  0  0  0  0  0  0
  185.0470  174.9990  137.1220 N   0  0  0  0  0  0  0  0  0  0  0  0
  184.9420  173.6100  137.4490 C   0  0  0  0  0  0  0  0  0  0  0  0
  185.9940  177.1200  136.6680 C   0  0  0  0  0  2  0  0  0  0  0  0
  184.6050  177.0630  136.0430 C   0  0  0  0  0  2  0  0  0  0  0  0
  186.2940  175.7310  137.1990 C   0  0  0  0  0  2  0  0  0  0  0  0
  185.9160  173.0030  137.9690 O   0  0  0  0  0  1  0  0  0  0  0  0
  183.7640  172.9190  137.1910 O   0  0  0  0  0  0  0  0  0  0  0  0
  183.9740  175.7560  136.5080 C   0  0  2  0  0  3  0  0  0  0  0  0
  179.2590  173.9410  136.1300 C   0  0  0  0  0  3  0  0  0  0  0  0
  180.0100  174.7240  135.2480 C   0  0  0  0  0  3  0  0  0  0  0  0
  179.6570  173.8150  137.4650 C   0  0  0  0  0  3  0  0  0  0  0  0
  181.5600  175.2600  137.0350 C   0  0  0  0  0  0  0  0  0  0  0  0
  180.8050  174.4710  137.9160 C   0  0  0  0  0  3  0  0  0  0  0  0
  181.1590  175.3820  135.6990 C   0  0  0  0  0  3  0  0  0  0  0  0
  1  9  2  0  0  0  0
  1  5  1  0  0  0  0
  3  8  1  0  0  0  0
  4  7  2  0  0  0  0
  4 18  1  0  0  0  0
  5  3  1  0  0  0  0
  5  7  1  0  0  0  0
  7  2  1  0  0  0  0
  8  2  1  0  0  0  0
  8  6  2  0  0  0  0
  9  4  1  0  0  0  0
 11 23  1  0  0  0  0
 11 17  2  0  0  0  0
 12 10  1  6  0  0  0
 12 16  1  0  0  0  0
 12 18  1  0  0  0  0
 13 10  2  0  0  0  0
 13 15  1  0  0  0  0
 14 17  1  0  0  0  0
 16 15  1  6  0  0  0
 16 11  1  0  0  0  0
 18 14  2  0  0  0  0
 19 21  1  0  0  0  0
 20 24  1  0  0  0  0
 20 22  1  0  0  0  0
 21 25  1  0  0  0  0
 22 26  1  0  0  0  0
 23 25  1  0  0  0  0
 24 19  1  0  0  0  0
 26 23  1  0  0  0  0
 27  1  1  0  0  0  0
 28 27  1  0  0  0  0
 29 28  1  6  0  0  0
 30 34  1  0  0  0  0
 30 31  1  0  0  0  0
 31 35  1  0  0  0  0
 32 34  1  0  0  0  0
 33 37  1  0  0  0  0
 33 32  1  0  0  0  0
 36 31  2  0  0  0  0
 37 30  1  0  0  0  0
 37 29  1  1  0  0  0
 38 40  1  0  0  0  0
 39 43  1  0  0  0  0
 39 38  2  0  0  0  0
 40 42  2  0  0  0  0
 41 29  1  0  0  0  0
 41 42  1  0  0  0  0
 43 41  2  0  0  0  0
M  END
>  <MODEL>
9

>  <REMARK>
 VINA RESULT:      -8.3      3.382      8.446
  Name = 
  7 active torsions:
  status: ('A' for Active; 'I' for Inactive)
    1  A    between atoms: C_5  and  N_25
    2  A    between atoms: C_11  and  C_37
    3  A    between atoms: C_15  and  C_16
    4  A    between atoms: C_15  and  C_37
    5  A    between atoms: C_16  and  C_27
    6  A    between atoms: C_16  and  C_35
    7  A    between atoms: C_19  and  C_31
                            x       y       z     vdW  Elec       q    Type
                         _______ _______ _______ _____ _____    ______ ____

>  <TORSDO>
F 7

$$$$
