=
 OpenBabel11062417273D

 45 50  0  0  1  0  0  0  0  0999 V2000
  187.3640  178.1800  136.3130 C   0  0  0  0  0  2  0  0  0  0  0  0
  184.5600  177.7570  137.2620 C   0  0  2  0  0  3  0  0  0  0  0  0
  186.0380  179.1550  141.7520 O   0  0  0  0  0  0  0  0  0  0  0  0
  187.2830  177.9420  140.0540 C   0  0  1  0  0  3  0  0  0  0  0  0
  188.5940  177.6870  139.2810 C   0  0  2  0  0  0  0  0  0  0  0  0
  184.9810  178.8050  140.4720 P   0  0  1  0  0  0  0  0  0  0  0  0
  185.0330  177.4030  134.7910 C   0  0  0  0  0  2  0  0  0  0  0  0
  184.0210  177.4740  140.8800 O   0  0  0  0  0  1  0  0  0  0  0  0
  187.3950  177.6650  134.8740 C   0  0  0  0  0  2  0  0  0  0  0  0
  183.2680  177.6470  138.0520 C   0  0  0  0  0  2  0  0  0  0  0  0
  184.1320  180.0070  140.1250 O   0  0  0  0  0  0  0  0  0  0  0  0
  182.5040  175.1700  135.8350 C   0  0  0  0  0  1  0  0  0  0  0  0
  184.3460  176.8510  136.0440 C   0  0  2  0  0  3  0  0  0  0  0  0
  187.0370  177.0560  137.2950 C   0  0  1  0  0  3  0  0  0  0  0  0
  189.1500  178.9910  138.7020 C   0  0  0  0  0  1  0  0  0  0  0  0
  182.8300  176.6500  135.8830 C   0  0  1  0  0  0  0  0  0  0  0  0
  188.2670  176.6920  138.1450 C   0  0  0  0  0  2  0  0  0  0  0  0
  182.2080  177.3560  134.7040 C   0  0  0  0  0  2  0  0  0  0  0  0
  181.1610  178.2490  135.3260 C   0  0  1  0  0  3  0  0  0  0  0  0
  186.3070  176.7290  134.5940 N   0  0  0  0  0  2  0  0  0  0  0  0
  187.3350  178.9150  141.2390 C   0  0  0  0  0  2  0  0  0  0  0  0
  181.5090  178.4620  136.6670 O   0  0  0  0  0  0  0  0  0  0  0  0
  185.7760  177.3550  138.1440 C   0  0  1  0  0  3  0  0  0  0  0  0
  182.1650  177.2910  137.0800 C   0  0  2  0  0  3  0  0  0  0  0  0
  186.1600  178.4310  139.1800 C   0  0  2  0  0  3  0  0  0  0  0  0
  189.6450  177.0250  140.2060 C   0  0  1  0  0  3  0  0  0  0  0  0
  191.0590  177.0990  139.6370 C   0  0  0  0  0  1  0  0  0  0  0  0
  189.6360  177.6110  141.5430 N   0  0  0  0  0  2  0  0  0  0  0  0
  189.8370  177.4890  143.9960 N   0  0  0  0  0  2  0  0  0  0  0  0
  190.0380  175.5930  142.6470 O   0  0  0  0  0  0  0  0  0  0  0  0
  189.8470  176.8380  142.7250 C   0  0  0  0  0  0  0  0  0  0  0  0
  190.0090  176.7690  145.2520 C   0  0  2  0  0  3  0  0  0  0  0  0
  188.9150  177.1470  146.2400 C   0  0  0  0  0  1  0  0  0  0  0  0
  191.5750  176.4000  147.2090 C   0  0  0  0  0  1  0  0  0  0  0  0
  191.3930  177.0350  145.8380 C   0  0  0  0  0  2  0  0  0  0  0  0
  181.1100  179.5230  134.6250 N   0  0  0  0  0  2  0  0  0  0  0  0
  180.6520  183.2080  135.6560 C   0  0  2  0  0  3  0  0  0  0  0  0
  181.0530  182.0690  134.7220 C   0  0  0  0  0  2  0  0  0  0  0  0
  179.1750  183.0850  136.0060 C   0  0  0  0  0  2  0  0  0  0  0  0
  180.5760  180.7170  135.2020 C   0  0  0  0  0  0  0  0  0  0  0  0
  178.9330  181.7800  136.7670 C   0  0  1  0  0  3  0  0  0  0  0  0
  179.5690  180.6020  136.0760 C   0  0  0  0  0  3  0  0  0  0  0  0
  180.8830  184.4190  135.0330 F   0  0  0  0  0  0  0  0  0  0  0  0
  179.1850  180.6480  138.6530 C   0  0  0  0  0  1  0  0  0  0  0  0
  179.4380  181.8880  138.0660 O   0  0  0  0  0  0  0  0  0  0  0  0
  2 10  1  1  0  0  0
  2 23  1  0  0  0  0
  4 21  1  1  0  0  0
  5 15  1  6  0  0  0
  5  4  1  0  0  0  0
  5 26  1  0  0  0  0
  6 11  2  6  0  0  0
  6  8  1  0  0  0  0
  6  3  1  0  0  0  0
  9  1  1  0  0  0  0
 13  7  1  6  0  0  0
 13  2  1  0  0  0  0
 14  1  1  1  0  0  0
 14 23  1  0  0  0  0
 14 17  1  0  0  0  0
 16 12  1  6  0  0  0
 16 13  1  0  0  0  0
 16 24  1  0  0  0  0
 17  5  1  0  0  0  0
 18 19  1  0  0  0  0
 18 16  1  0  0  0  0
 19 36  1  6  0  0  0
 19 22  1  0  0  0  0
 20  7  1  0  0  0  0
 20  9  1  0  0  0  0
 21  3  1  0  0  0  0
 22 24  1  0  0  0  0
 23 25  1  0  0  0  0
 24 10  1  0  0  0  0
 25  4  1  0  0  0  0
 25  6  1  0  0  0  0
 26 28  1  0  0  0  0
 27 26  1  0  0  0  0
 28 31  1  0  0  0  0
 29 32  1  0  0  0  0
 30 31  2  0  0  0  0
 31 29  1  0  0  0  0
 32 35  1  0  0  0  0
 32 33  1  0  0  0  0
 35 34  1  0  0  0  0
 36 40  1  0  0  0  0
 37 39  1  0  0  0  0
 38 40  1  0  0  0  0
 38 37  1  0  0  0  0
 39 41  1  0  0  0  0
 40 42  2  0  0  0  0
 41 45  1  0  0  0  0
 42 41  1  0  0  0  0
 43 37  1  0  0  0  0
 45 44  1  0  0  0  0
M  END
>  <MODEL>
1

>  <REMARK>
 VINA RESULT:      -7.8      0.000      0.000
  Name = 
  7 active torsions:
  status: ('A' for Active; 'I' for Inactive)
    1  A    between atoms: N_1  and  C_11
    2  A    between atoms: N_6  and  C_19
    3  A    between atoms: N_6  and  C_33
    4  A    between atoms: C_9  and  C_11
    5  A    between atoms: C_18  and  N_22
    6  A    between atoms: C_18  and  C_27
    7  A    between atoms: O_36  and  C_38
                            x       y       z     vdW  Elec       q    Type
                         _______ _______ _______ _____ _____    ______ ____

>  <TORSDO>
F 7

$$$$
=
 OpenBabel11062417273D

 45 50  0  0  1  0  0  0  0  0999 V2000
  184.1650  176.6240  137.8060 C   0  0  0  0  0  2  0  0  0  0  0  0
  186.5860  177.8550  139.0570 C   0  0  2  0  0  3  0  0  0  0  0  0
  183.8620  178.7540  143.0650 O   0  0  0  0  0  0  0  0  0  0  0  0
  183.1750  178.7450  140.7340 C   0  0  1  0  0  3  0  0  0  0  0  0
  182.1440  178.3850  139.6440 C   0  0  2  0  0  0  0  0  0  0  0  0
  185.2470  178.5440  142.1090 P   0  0  1  0  0  0  0  0  0  0  0  0
  186.8470  176.8300  136.7460 C   0  0  0  0  0  2  0  0  0  0  0  0
  186.0700  180.0150  141.9770 O   0  0  0  0  0  0  0  0  0  0  0  0
  184.5560  176.3220  136.3590 C   0  0  0  0  0  2  0  0  0  0  0  0
  187.5990  178.5300  139.9640 C   0  0  0  0  0  2  0  0  0  0  0  0
  186.1410  177.4650  142.6750 O   0  0  0  0  0  1  0  0  0  0  0  0
  189.0050  179.6080  137.0490 C   0  0  0  0  0  1  0  0  0  0  0  0
  187.1550  178.0330  137.6440 C   0  0  2  0  0  3  0  0  0  0  0  0
  184.2140  178.1240  138.0910 C   0  0  1  0  0  3  0  0  0  0  0  0
  181.7570  176.9070  139.7230 C   0  0  0  0  0  1  0  0  0  0  0  0
  188.6560  178.3310  137.7880 C   0  0  1  0  0  0  0  0  0  0  0  0
  182.7990  178.6950  138.2790 C   0  0  0  0  0  2  0  0  0  0  0  0
  189.5780  177.2160  137.3610 C   0  0  0  0  0  2  0  0  0  0  0  0
  190.3890  176.9210  138.6010 C   0  0  1  0  0  3  0  0  0  0  0  0
  185.6930  177.1250  135.9110 N   0  0  0  0  0  2  0  0  0  0  0  0
  182.7700  178.5160  142.1970 C   0  0  0  0  0  2  0  0  0  0  0  0
  189.6680  177.3750  139.7130 O   0  0  0  0  0  0  0  0  0  0  0  0
  185.1750  178.4780  139.2540 C   0  0  1  0  0  3  0  0  0  0  0  0
  188.9400  178.4890  139.2650 C   0  0  2  0  0  3  0  0  0  0  0  0
  184.4940  178.0390  140.5660 C   0  0  2  0  0  3  0  0  0  0  0  0
  180.8830  179.2740  139.7800 C   0  0  1  0  0  3  0  0  0  0  0  0
  180.2720  179.2170  141.1780 C   0  0  0  0  0  1  0  0  0  0  0  0
  181.1600  180.6650  139.4350 N   0  0  0  0  0  2  0  0  0  0  0  0
  180.7440  182.7400  138.1720 N   0  0  0  0  0  2  0  0  0  0  0  0
  179.4890  180.8030  137.8110 O   0  0  0  0  0  0  0  0  0  0  0  0
  180.4190  181.3750  138.4430 C   0  0  0  0  0  0  0  0  0  0  0  0
  180.0610  183.5260  137.1520 C   0  0  2  0  0  3  0  0  0  0  0  0
  180.7250  183.3360  135.7970 C   0  0  0  0  0  1  0  0  0  0  0  0
  178.9330  185.7690  136.8170 C   0  0  0  0  0  1  0  0  0  0  0  0
  180.0270  185.0000  137.5440 C   0  0  0  0  0  2  0  0  0  0  0  0
  190.6180  175.4890  138.7180 N   0  0  0  0  0  2  0  0  0  0  0  0
  191.8590  172.8960  136.1500 C   0  0  2  0  0  3  0  0  0  0  0  0
  190.8490  173.8540  136.7760 C   0  0  0  0  0  2  0  0  0  0  0  0
  193.1130  173.6630  135.7540 C   0  0  0  0  0  2  0  0  0  0  0  0
  191.4600  174.7520  137.8270 C   0  0  0  0  0  0  0  0  0  0  0  0
  193.7730  174.2530  137.0010 C   0  0  1  0  0  3  0  0  0  0  0  0
  192.7790  174.9770  137.8710 C   0  0  0  0  0  3  0  0  0  0  0  0
  191.3030  172.3030  135.0340 F   0  0  0  0  0  0  0  0  0  0  0  0
  195.3300  173.8890  138.5330 C   0  0  0  0  0  1  0  0  0  0  0  0
  194.3870  173.2360  137.7380 O   0  0  0  0  0  0  0  0  0  0  0  0
  2 23  1  0  0  0  0
  2 10  1  1  0  0  0
  4 21  1  1  0  0  0
  5 15  1  1  0  0  0
  5 26  1  0  0  0  0
  5  4  1  0  0  0  0
  6  8  2  6  0  0  0
  6 11  1  0  0  0  0
  6  3  1  0  0  0  0
  9  1  1  0  0  0  0
 13  7  1  6  0  0  0
 13 16  1  0  0  0  0
 13  2  1  0  0  0  0
 14  1  1  1  0  0  0
 14 17  1  0  0  0  0
 14 23  1  0  0  0  0
 16 12  1  6  0  0  0
 16 24  1  0  0  0  0
 17  5  1  0  0  0  0
 18 16  1  0  0  0  0
 18 19  1  0  0  0  0
 19 36  1  1  0  0  0
 19 22  1  0  0  0  0
 20  9  1  0  0  0  0
 20  7  1  0  0  0  0
 21  3  1  0  0  0  0
 23 25  1  0  0  0  0
 24 22  1  0  0  0  0
 24 10  1  0  0  0  0
 25  4  1  0  0  0  0
 25  6  1  0  0  0  0
 26 27  1  0  0  0  0
 28 26  1  0  0  0  0
 29 31  1  0  0  0  0
 30 31  2  0  0  0  0
 31 28  1  0  0  0  0
 32 35  1  0  0  0  0
 32 29  1  0  0  0  0
 33 32  1  0  0  0  0
 34 35  1  0  0  0  0
 37 38  1  0  0  0  0
 38 40  1  0  0  0  0
 39 37  1  0  0  0  0
 39 41  1  0  0  0  0
 40 42  2  0  0  0  0
 40 36  1  0  0  0  0
 41 45  1  0  0  0  0
 41 42  1  0  0  0  0
 43 37  1  0  0  0  0
 45 44  1  0  0  0  0
M  END
>  <MODEL>
2

>  <REMARK>
 VINA RESULT:      -7.4      3.868     10.310
  Name = 
  7 active torsions:
  status: ('A' for Active; 'I' for Inactive)
    1  A    between atoms: N_1  and  C_11
    2  A    between atoms: N_6  and  C_19
    3  A    between atoms: N_6  and  C_33
    4  A    between atoms: C_9  and  C_11
    5  A    between atoms: C_18  and  N_22
    6  A    between atoms: C_18  and  C_27
    7  A    between atoms: O_36  and  C_38
                            x       y       z     vdW  Elec       q    Type
                         _______ _______ _______ _____ _____    ______ ____

>  <TORSDO>
F 7

$$$$
=
 OpenBabel11062417273D

 45 50  0  0  1  0  0  0  0  0999 V2000
  189.0070  177.1370  138.2720 C   0  0  0  0  0  2  0  0  0  0  0  0
  186.7750  175.6980  136.8960 C   0  0  2  0  0  3  0  0  0  0  0  0
  189.9060  171.9870  136.0460 O   0  0  0  0  0  0  0  0  0  0  0  0
  190.3680  174.3710  136.1390 C   0  0  1  0  0  3  0  0  0  0  0  0
  191.2730  175.5420  136.5730 C   0  0  2  0  0  0  0  0  0  0  0  0
  188.4280  172.8040  136.2080 P   0  0  1  0  0  0  0  0  0  0  0  0
  186.2500  177.9470  137.9570 C   0  0  0  0  0  2  0  0  0  0  0  0
  187.6660  172.8960  134.7010 O   0  0  0  0  0  0  0  0  0  0  0  0
  188.4670  178.5320  138.5850 C   0  0  0  0  0  2  0  0  0  0  0  0
  185.8860  174.7190  136.1520 C   0  0  0  0  0  2  0  0  0  0  0  0
  187.5420  172.1290  137.2290 O   0  0  0  0  0  1  0  0  0  0  0  0
  184.2630  177.5170  135.0690 C   0  0  0  0  0  1  0  0  0  0  0  0
  186.0850  177.0560  136.7210 C   0  0  2  0  0  3  0  0  0  0  0  0
  189.0550  176.8880  136.7650 C   0  0  1  0  0  3  0  0  0  0  0  0
  191.5950  175.4610  138.0670 C   0  0  0  0  0  1  0  0  0  0  0  0
  184.6190  176.7800  136.3460 C   0  0  1  0  0  0  0  0  0  0  0  0
  190.5070  176.8480  136.2600 C   0  0  0  0  0  2  0  0  0  0  0  0
  183.6100  177.0900  137.4220 C   0  0  0  0  0  2  0  0  0  0  0  0
  182.9060  175.7730  137.6500 C   0  0  1  0  0  3  0  0  0  0  0  0
  187.3320  178.8930  137.7370 N   0  0  0  0  0  2  0  0  0  0  0  0
  190.8980  172.9460  136.3560 C   0  0  0  0  0  2  0  0  0  0  0  0
  183.7500  174.7450  137.2090 O   0  0  0  0  0  0  0  0  0  0  0  0
  188.2270  175.6500  136.3390 C   0  0  1  0  0  3  0  0  0  0  0  0
  184.4840  175.2880  136.1420 C   0  0  2  0  0  3  0  0  0  0  0  0
  189.0070  174.3960  136.7820 C   0  0  2  0  0  3  0  0  0  0  0  0
  192.5820  175.5480  135.7450 C   0  0  1  0  0  3  0  0  0  0  0  0
  192.5460  176.5510  134.5950 C   0  0  0  0  0  1  0  0  0  0  0  0
  193.7490  175.8170  136.5780 N   0  0  0  0  0  2  0  0  0  0  0  0
  195.6970  175.1260  137.9200 N   0  0  0  0  0  2  0  0  0  0  0  0
  194.2810  173.5680  136.9080 O   0  0  0  0  0  0  0  0  0  0  0  0
  194.5620  174.7790  137.1240 C   0  0  0  0  0  0  0  0  0  0  0  0
  196.5580  174.1280  138.5440 C   0  0  2  0  0  3  0  0  0  0  0  0
  197.1840  174.6810  139.8150 C   0  0  0  0  0  1  0  0  0  0  0  0
  198.0340  174.7460  136.5800 C   0  0  0  0  0  1  0  0  0  0  0  0
  197.6300  173.6580  137.5640 C   0  0  0  0  0  2  0  0  0  0  0  0
  182.6220  175.5970  139.0670 N   0  0  0  0  0  2  0  0  0  0  0  0
  180.2760  177.8540  141.1310 C   0  0  2  0  0  3  0  0  0  0  0  0
  181.4370  177.5570  140.1850 C   0  0  0  0  0  2  0  0  0  0  0  0
  178.9840  177.3090  140.5390 C   0  0  0  0  0  2  0  0  0  0  0  0
  181.4560  176.1230  139.7050 C   0  0  0  0  0  0  0  0  0  0  0  0
  179.0750  175.7880  140.4110 C   0  0  1  0  0  3  0  0  0  0  0  0
  180.3590  175.3580  139.7510 C   0  0  0  0  0  3  0  0  0  0  0  0
  180.1670  179.2180  141.3140 F   0  0  0  0  0  0  0  0  0  0  0  0
  179.1270  173.8310  141.4460 C   0  0  0  0  0  1  0  0  0  0  0  0
  178.9790  175.1990  141.6760 O   0  0  0  0  0  0  0  0  0  0  0  0
  1  9  1  0  0  0  0
  2 10  1  6  0  0  0
  3  6  1  0  0  0  0
  3 21  1  0  0  0  0
  4 21  1  1  0  0  0
  4  5  1  0  0  0  0
  4 25  1  0  0  0  0
  5 15  1  1  0  0  0
  6  8  2  6  0  0  0
  6 25  1  0  0  0  0
  6 11  1  0  0  0  0
 13  2  1  0  0  0  0
 13  7  1  1  0  0  0
 14 17  1  1  0  0  0
 14  1  1  0  0  0  0
 16 12  1  6  0  0  0
 16 13  1  0  0  0  0
 16 18  1  0  0  0  0
 17  5  1  0  0  0  0
 18 19  1  0  0  0  0
 19 36  1  1  0  0  0
 20  7  1  0  0  0  0
 20  9  1  0  0  0  0
 22 19  1  0  0  0  0
 23 14  1  0  0  0  0
 23 25  1  0  0  0  0
 23  2  1  0  0  0  0
 24 10  1  0  0  0  0
 24 16  1  0  0  0  0
 24 22  1  0  0  0  0
 26  5  1  0  0  0  0
 26 28  1  0  0  0  0
 27 26  1  0  0  0  0
 28 31  1  0  0  0  0
 29 32  1  0  0  0  0
 30 31  2  0  0  0  0
 31 29  1  0  0  0  0
 32 33  1  0  0  0  0
 34 35  1  0  0  0  0
 35 32  1  0  0  0  0
 36 40  1  0  0  0  0
 37 43  1  0  0  0  0
 38 37  1  0  0  0  0
 39 37  1  0  0  0  0
 40 42  2  0  0  0  0
 40 38  1  0  0  0  0
 41 39  1  0  0  0  0
 41 45  1  0  0  0  0
 42 41  1  0  0  0  0
 44 45  1  0  0  0  0
M  END
>  <MODEL>
3

>  <REMARK>
 VINA RESULT:      -6.5      4.867      6.606
  Name = 
  7 active torsions:
  status: ('A' for Active; 'I' for Inactive)
    1  A    between atoms: N_1  and  C_11
    2  A    between atoms: N_6  and  C_19
    3  A    between atoms: N_6  and  C_33
    4  A    between atoms: C_9  and  C_11
    5  A    between atoms: C_18  and  N_22
    6  A    between atoms: C_18  and  C_27
    7  A    between atoms: O_36  and  C_38
                            x       y       z     vdW  Elec       q    Type
                         _______ _______ _______ _____ _____    ______ ____

>  <TORSDO>
F 7

$$$$
=
 OpenBabel11062417273D

 45 50  0  0  1  0  0  0  0  0999 V2000
  188.0680  177.0080  137.9900 C   0  0  0  0  0  2  0  0  0  0  0  0
  185.7050  175.7070  136.6990 C   0  0  2  0  0  3  0  0  0  0  0  0
  188.5130  171.7270  135.9390 O   0  0  0  0  0  0  0  0  0  0  0  0
  189.1660  174.0680  135.9400 C   0  0  1  0  0  3  0  0  0  0  0  0
  190.1690  175.1770  136.3180 C   0  0  2  0  0  0  0  0  0  0  0  0
  187.1080  172.6660  136.0920 P   0  0  1  0  0  0  0  0  0  0  0  0
  185.3800  178.0260  137.6850 C   0  0  0  0  0  2  0  0  0  0  0  0
  186.3300  172.7670  134.5940 O   0  0  0  0  0  0  0  0  0  0  0  0
  187.6470  178.4520  138.2600 C   0  0  0  0  0  2  0  0  0  0  0  0
  184.7270  174.7770  136.0030 C   0  0  0  0  0  2  0  0  0  0  0  0
  186.1880  172.1010  137.1500 O   0  0  0  0  0  1  0  0  0  0  0  0
  183.3160  177.6580  134.8430 C   0  0  0  0  0  1  0  0  0  0  0  0
  185.1230  177.1090  136.4840 C   0  0  2  0  0  3  0  0  0  0  0  0
  188.0700  176.7030  136.4930 C   0  0  1  0  0  3  0  0  0  0  0  0
  190.5100  175.1220  137.8090 C   0  0  0  0  0  1  0  0  0  0  0  0
  183.6340  176.9400  136.1400 C   0  0  1  0  0  0  0  0  0  0  0  0
  189.5060  176.5290  135.9690 C   0  0  0  0  0  2  0  0  0  0  0  0
  182.6710  177.3680  137.2190 C   0  0  0  0  0  2  0  0  0  0  0  0
  181.8680  176.1200  137.5040 C   0  0  1  0  0  3  0  0  0  0  0  0
  186.5310  178.8740  137.4160 N   0  0  0  0  0  2  0  0  0  0  0  0
  189.5840  172.6140  136.2010 C   0  0  0  0  0  2  0  0  0  0  0  0
  182.6190  175.0120  137.0880 O   0  0  0  0  0  0  0  0  0  0  0  0
  187.1380  175.5220  136.1230 C   0  0  1  0  0  3  0  0  0  0  0  0
  183.3760  175.4570  135.9920 C   0  0  2  0  0  3  0  0  0  0  0  0
  187.8230  174.2250  136.6010 C   0  0  2  0  0  3  0  0  0  0  0  0
  191.4600  175.0480  135.4720 C   0  0  1  0  0  3  0  0  0  0  0  0
  191.7130  176.2720  134.5950 C   0  0  0  0  0  1  0  0  0  0  0  0
  192.6330  174.8060  136.3060 N   0  0  0  0  0  2  0  0  0  0  0  0
  194.7650  173.6850  136.8270 N   0  0  0  0  0  2  0  0  0  0  0  0
  193.5360  173.1670  134.9100 O   0  0  0  0  0  0  0  0  0  0  0  0
  193.6400  173.8540  135.9630 C   0  0  0  0  0  0  0  0  0  0  0  0
  195.8190  172.7110  136.5690 C   0  0  2  0  0  3  0  0  0  0  0  0
  195.5260  171.4040  137.2890 C   0  0  0  0  0  1  0  0  0  0  0  0
  197.0990  174.1290  138.2320 C   0  0  0  0  0  1  0  0  0  0  0  0
  197.1790  173.2700  136.9780 C   0  0  0  0  0  2  0  0  0  0  0  0
  181.5950  176.0180  138.9300 N   0  0  0  0  0  2  0  0  0  0  0  0
  181.2730  179.2540  140.9980 C   0  0  2  0  0  3  0  0  0  0  0  0
  180.7570  178.0050  140.2900 C   0  0  0  0  0  2  0  0  0  0  0  0
  182.2880  178.8560  142.0610 C   0  0  0  0  0  2  0  0  0  0  0  0
  181.8650  177.0700  139.8590 C   0  0  0  0  0  0  0  0  0  0  0  0
  183.4950  178.1910  141.3990 C   0  0  1  0  0  3  0  0  0  0  0  0
  183.0790  177.1230  140.4220 C   0  0  0  0  0  3  0  0  0  0  0  0
  180.2160  179.9200  141.5880 F   0  0  0  0  0  0  0  0  0  0  0  0
  185.5280  179.0650  141.3250 C   0  0  0  0  0  1  0  0  0  0  0  0
  184.2640  179.1540  140.7400 O   0  0  0  0  0  0  0  0  0  0  0  0
  1  9  1  0  0  0  0
  2 10  1  6  0  0  0
  3  6  1  0  0  0  0
  3 21  1  0  0  0  0
  4 21  1  1  0  0  0
  4  5  1  0  0  0  0
  4 25  1  0  0  0  0
  5 15  1  1  0  0  0
  6  8  2  6  0  0  0
  6 25  1  0  0  0  0
  6 11  1  0  0  0  0
 13  2  1  0  0  0  0
 13  7  1  1  0  0  0
 14 17  1  1  0  0  0
 14  1  1  0  0  0  0
 16 12  1  6  0  0  0
 16 13  1  0  0  0  0
 16 18  1  0  0  0  0
 17  5  1  0  0  0  0
 18 19  1  0  0  0  0
 19 36  1  1  0  0  0
 20  7  1  0  0  0  0
 20  9  1  0  0  0  0
 22 19  1  0  0  0  0
 23 14  1  0  0  0  0
 23 25  1  0  0  0  0
 23  2  1  0  0  0  0
 24 10  1  0  0  0  0
 24 16  1  0  0  0  0
 24 22  1  0  0  0  0
 26 28  1  0  0  0  0
 26  5  1  0  0  0  0
 27 26  1  0  0  0  0
 30 31  2  0  0  0  0
 31 28  1  0  0  0  0
 31 29  1  0  0  0  0
 32 29  1  0  0  0  0
 32 35  1  0  0  0  0
 32 33  1  0  0  0  0
 35 34  1  0  0  0  0
 36 40  1  0  0  0  0
 37 43  1  0  0  0  0
 37 39  1  0  0  0  0
 38 37  1  0  0  0  0
 40 38  1  0  0  0  0
 40 42  2  0  0  0  0
 41 39  1  0  0  0  0
 42 41  1  0  0  0  0
 45 44  1  0  0  0  0
 45 41  1  0  0  0  0
M  END
>  <MODEL>
4

>  <REMARK>
 VINA RESULT:      -6.4      4.675      6.540
  Name = 
  7 active torsions:
  status: ('A' for Active; 'I' for Inactive)
    1  A    between atoms: N_1  and  C_11
    2  A    between atoms: N_6  and  C_19
    3  A    between atoms: N_6  and  C_33
    4  A    between atoms: C_9  and  C_11
    5  A    between atoms: C_18  and  N_22
    6  A    between atoms: C_18  and  C_27
    7  A    between atoms: O_36  and  C_38
                            x       y       z     vdW  Elec       q    Type
                         _______ _______ _______ _____ _____    ______ ____

>  <TORSDO>
F 7

$$$$
=
 OpenBabel11062417273D

 45 50  0  0  1  0  0  0  0  0999 V2000
  187.0560  178.0510  136.0590 C   0  0  0  0  0  2  0  0  0  0  0  0
  184.4500  177.6500  137.4710 C   0  0  2  0  0  3  0  0  0  0  0  0
  186.6270  179.2350  141.6000 O   0  0  0  0  0  0  0  0  0  0  0  0
  187.5920  177.9620  139.7680 C   0  0  1  0  0  3  0  0  0  0  0  0
  188.7620  177.6850  138.8010 C   0  0  2  0  0  0  0  0  0  0  0  0
  185.3790  178.8280  140.5260 P   0  0  1  0  0  0  0  0  0  0  0  0
  184.5160  177.2000  134.9710 C   0  0  0  0  0  2  0  0  0  0  0  0
  184.5160  177.5090  141.1360 O   0  0  0  0  0  1  0  0  0  0  0  0
  186.8570  177.4800  134.6550 C   0  0  0  0  0  2  0  0  0  0  0  0
  183.3070  177.5640  138.4660 C   0  0  0  0  0  2  0  0  0  0  0  0
  184.4690  180.0100  140.2760 O   0  0  0  0  0  0  0  0  0  0  0  0
  182.2210  174.9950  136.5010 C   0  0  0  0  0  1  0  0  0  0  0  0
  184.0510  176.6940  136.3400 C   0  0  2  0  0  3  0  0  0  0  0  0
  186.9080  176.9660  137.1240 C   0  0  1  0  0  3  0  0  0  0  0  0
  189.1980  178.9680  138.0880 C   0  0  0  0  0  1  0  0  0  0  0  0
  182.5310  176.4780  136.4380 C   0  0  1  0  0  0  0  0  0  0  0  0
  188.2650  176.6440  137.7720 C   0  0  0  0  0  2  0  0  0  0  0  0
  181.7160  177.1330  135.3510 C   0  0  0  0  0  2  0  0  0  0  0  0
  180.7740  178.0430  136.1030 C   0  0  1  0  0  3  0  0  0  0  0  0
  185.7500  176.5270  134.5940 N   0  0  0  0  0  2  0  0  0  0  0  0
  187.8260  178.9830  140.8900 C   0  0  0  0  0  2  0  0  0  0  0  0
  181.3350  178.3130  137.3580 O   0  0  0  0  0  0  0  0  0  0  0  0
  185.8000  177.2900  138.1560 C   0  0  1  0  0  3  0  0  0  0  0  0
  182.0640  177.1630  137.7030 C   0  0  2  0  0  3  0  0  0  0  0  0
  186.3340  178.4100  139.0720 C   0  0  2  0  0  3  0  0  0  0  0  0
  189.9580  177.0670  139.5650 C   0  0  1  0  0  3  0  0  0  0  0  0
  189.6220  176.7400  141.0180 C   0  0  0  0  0  1  0  0  0  0  0  0
  190.4570  175.8630  138.9080 N   0  0  0  0  0  2  0  0  0  0  0  0
  192.1980  174.5470  137.7620 N   0  0  0  0  0  2  0  0  0  0  0  0
  192.5710  176.7450  138.4570 O   0  0  0  0  0  0  0  0  0  0  0  0
  191.7800  175.7650  138.3800 C   0  0  0  0  0  0  0  0  0  0  0  0
  193.5180  174.3760  137.1680 C   0  0  2  0  0  3  0  0  0  0  0  0
  193.5410  173.1570  136.2570 C   0  0  0  0  0  1  0  0  0  0  0  0
  195.4910  173.0610  138.0600 C   0  0  0  0  0  1  0  0  0  0  0  0
  194.5850  174.2690  138.2530 C   0  0  0  0  0  2  0  0  0  0  0  0
  180.5930  179.2880  135.3700 N   0  0  0  0  0  2  0  0  0  0  0  0
  180.8080  183.0290  136.2710 C   0  0  2  0  0  3  0  0  0  0  0  0
  180.8060  181.8280  135.3300 C   0  0  0  0  0  2  0  0  0  0  0  0
  179.4980  183.0740  137.0450 C   0  0  0  0  0  2  0  0  0  0  0  0
  180.3690  180.5480  136.0070 C   0  0  0  0  0  0  0  0  0  0  0  0
  179.3710  181.8260  137.9190 C   0  0  1  0  0  3  0  0  0  0  0  0
  179.6600  180.5680  137.1420 C   0  0  0  0  0  3  0  0  0  0  0  0
  180.9570  184.1900  135.5370 F   0  0  0  0  0  0  0  0  0  0  0  0
  180.0550  180.7340  139.7200 C   0  0  0  0  0  1  0  0  0  0  0  0
  180.2470  181.9170  139.0040 O   0  0  0  0  0  0  0  0  0  0  0  0
  2 23  1  0  0  0  0
  2 10  1  1  0  0  0
  4 21  1  1  0  0  0
  5 15  1  6  0  0  0
  5 26  1  0  0  0  0
  5  4  1  0  0  0  0
  6 11  2  6  0  0  0
  6  8  1  0  0  0  0
  6  3  1  0  0  0  0
  9  1  1  0  0  0  0
 13  7  1  6  0  0  0
 13 16  1  0  0  0  0
 13  2  1  0  0  0  0
 14  1  1  6  0  0  0
 14 17  1  0  0  0  0
 14 23  1  0  0  0  0
 16 12  1  1  0  0  0
 16 24  1  0  0  0  0
 17  5  1  0  0  0  0
 18 19  1  0  0  0  0
 18 16  1  0  0  0  0
 19 36  1  6  0  0  0
 19 22  1  0  0  0  0
 20  9  1  0  0  0  0
 20  7  1  0  0  0  0
 21  3  1  0  0  0  0
 22 24  1  0  0  0  0
 23 25  1  0  0  0  0
 24 10  1  0  0  0  0
 25  4  1  0  0  0  0
 25  6  1  0  0  0  0
 26 27  1  0  0  0  0
 28 26  1  0  0  0  0
 29 31  1  0  0  0  0
 31 30  2  0  0  0  0
 31 28  1  0  0  0  0
 32 29  1  0  0  0  0
 32 35  1  0  0  0  0
 33 32  1  0  0  0  0
 34 35  1  0  0  0  0
 36 40  1  0  0  0  0
 37 39  1  0  0  0  0
 38 40  1  0  0  0  0
 38 37  1  0  0  0  0
 39 41  1  0  0  0  0
 40 42  2  0  0  0  0
 41 45  1  0  0  0  0
 42 41  1  0  0  0  0
 43 37  1  0  0  0  0
 45 44  1  0  0  0  0
M  END
>  <MODEL>
5

>  <REMARK>
 VINA RESULT:      -6.3      2.121      3.467
  Name = 
  7 active torsions:
  status: ('A' for Active; 'I' for Inactive)
    1  A    between atoms: N_1  and  C_11
    2  A    between atoms: N_6  and  C_19
    3  A    between atoms: N_6  and  C_33
    4  A    between atoms: C_9  and  C_11
    5  A    between atoms: C_18  and  N_22
    6  A    between atoms: C_18  and  C_27
    7  A    between atoms: O_36  and  C_38
                            x       y       z     vdW  Elec       q    Type
                         _______ _______ _______ _____ _____    ______ ____

>  <TORSDO>
F 7

$$$$
=
 OpenBabel11062417273D

 45 50  0  0  1  0  0  0  0  0999 V2000
  188.0250  177.1980  138.2070 C   0  0  0  0  0  2  0  0  0  0  0  0
  185.8170  175.7570  136.7950 C   0  0  2  0  0  3  0  0  0  0  0  0
  188.9710  172.0600  135.9730 O   0  0  0  0  0  0  0  0  0  0  0  0
  189.4240  174.4450  136.0820 C   0  0  1  0  0  3  0  0  0  0  0  0
  190.3190  175.6180  136.5330 C   0  0  2  0  0  0  0  0  0  0  0  0
  187.4890  172.8710  136.1180 P   0  0  1  0  0  0  0  0  0  0  0  0
  185.2690  178.0000  137.8580 C   0  0  0  0  0  2  0  0  0  0  0  0
  186.7470  172.9670  134.6010 O   0  0  0  0  0  0  0  0  0  0  0  0
  187.4760  178.5900  138.5180 C   0  0  0  0  0  2  0  0  0  0  0  0
  184.9410  174.7780  136.0350 C   0  0  0  0  0  2  0  0  0  0  0  0
  186.5910  172.1890  137.1250 O   0  0  0  0  0  1  0  0  0  0  0  0
  183.3230  177.5750  134.9420 C   0  0  0  0  0  1  0  0  0  0  0  0
  185.1240  177.1140  136.6160 C   0  0  2  0  0  3  0  0  0  0  0  0
  188.0940  176.9550  136.7000 C   0  0  1  0  0  3  0  0  0  0  0  0
  190.6210  175.5320  138.0300 C   0  0  0  0  0  1  0  0  0  0  0  0
  183.6650  176.8340  136.2200 C   0  0  1  0  0  0  0  0  0  0  0  0
  189.5530  176.9220  136.2150 C   0  0  0  0  0  2  0  0  0  0  0  0
  182.6390  177.1370  137.2840 C   0  0  0  0  0  2  0  0  0  0  0  0
  181.9380  175.8160  137.4970 C   0  0  1  0  0  3  0  0  0  0  0  0
  186.3510  178.9510  137.6570 N   0  0  0  0  0  2  0  0  0  0  0  0
  189.9560  173.0220  136.3010 C   0  0  0  0  0  2  0  0  0  0  0  0
  182.7910  174.7920  137.0630 O   0  0  0  0  0  0  0  0  0  0  0  0
  187.2760  175.7160  136.2580 C   0  0  1  0  0  3  0  0  0  0  0  0
  183.5380  175.3430  136.0080 C   0  0  2  0  0  3  0  0  0  0  0  0
  188.0550  174.4630  136.7070 C   0  0  2  0  0  3  0  0  0  0  0  0
  191.6390  175.6310  135.7220 C   0  0  1  0  0  3  0  0  0  0  0  0
  191.6400  176.6840  134.6170 C   0  0  0  0  0  1  0  0  0  0  0  0
  192.8000  175.8390  136.5810 N   0  0  0  0  0  2  0  0  0  0  0  0
  195.0380  175.2520  137.4300 N   0  0  0  0  0  2  0  0  0  0  0  0
  193.9610  173.9700  135.8010 O   0  0  0  0  0  0  0  0  0  0  0  0
  193.9340  174.9720  136.5670 C   0  0  0  0  0  0  0  0  0  0  0  0
  196.2190  174.3990  137.5020 C   0  0  2  0  0  3  0  0  0  0  0  0
  196.6110  174.1510  138.9510 C   0  0  0  0  0  1  0  0  0  0  0  0
  197.5760  174.3520  135.3640 C   0  0  0  0  0  1  0  0  0  0  0  0
  197.3740  175.0160  136.7190 C   0  0  0  0  0  2  0  0  0  0  0  0
  181.6350  175.6340  138.9090 N   0  0  0  0  0  2  0  0  0  0  0  0
  182.9160  178.0720  141.6040 C   0  0  2  0  0  3  0  0  0  0  0  0
  183.0300  177.2000  140.3570 C   0  0  0  0  0  2  0  0  0  0  0  0
  181.8200  179.1090  141.4050 C   0  0  0  0  0  2  0  0  0  0  0  0
  181.6920  176.6930  139.8680 C   0  0  0  0  0  0  0  0  0  0  0  0
  180.4720  178.4070  141.2290 C   0  0  1  0  0  3  0  0  0  0  0  0
  180.5490  177.2940  140.2170 C   0  0  0  0  0  3  0  0  0  0  0  0
  184.1210  178.7070  141.8350 F   0  0  0  0  0  0  0  0  0  0  0  0
  179.9170  179.0100  143.2860 C   0  0  0  0  0  1  0  0  0  0  0  0
  180.0410  177.8950  142.4560 O   0  0  0  0  0  0  0  0  0  0  0  0
  1  9  1  0  0  0  0
  2 10  1  6  0  0  0
  3  6  1  0  0  0  0
  3 21  1  0  0  0  0
  4 21  1  1  0  0  0
  4  5  1  0  0  0  0
  4 25  1  0  0  0  0
  5 15  1  1  0  0  0
  6  8  2  6  0  0  0
  6 25  1  0  0  0  0
  6 11  1  0  0  0  0
 13  2  1  0  0  0  0
 13  7  1  1  0  0  0
 14 17  1  1  0  0  0
 14  1  1  0  0  0  0
 16 12  1  6  0  0  0
 16 13  1  0  0  0  0
 16 18  1  0  0  0  0
 17  5  1  0  0  0  0
 18 19  1  0  0  0  0
 19 36  1  1  0  0  0
 20  7  1  0  0  0  0
 20  9  1  0  0  0  0
 22 19  1  0  0  0  0
 23 14  1  0  0  0  0
 23 25  1  0  0  0  0
 23  2  1  0  0  0  0
 24 10  1  0  0  0  0
 24 16  1  0  0  0  0
 24 22  1  0  0  0  0
 26  5  1  0  0  0  0
 26 28  1  0  0  0  0
 27 26  1  0  0  0  0
 29 32  1  0  0  0  0
 30 31  2  0  0  0  0
 31 28  1  0  0  0  0
 31 29  1  0  0  0  0
 32 33  1  0  0  0  0
 34 35  1  0  0  0  0
 35 32  1  0  0  0  0
 36 40  1  0  0  0  0
 37 43  1  0  0  0  0
 38 37  1  0  0  0  0
 39 37  1  0  0  0  0
 40 42  2  0  0  0  0
 40 38  1  0  0  0  0
 41 39  1  0  0  0  0
 41 45  1  0  0  0  0
 42 41  1  0  0  0  0
 45 44  1  0  0  0  0
M  END
>  <MODEL>
6

>  <REMARK>
 VINA RESULT:      -6.2      4.731      6.427
  Name = 
  7 active torsions:
  status: ('A' for Active; 'I' for Inactive)
    1  A    between atoms: N_1  and  C_11
    2  A    between atoms: N_6  and  C_19
    3  A    between atoms: N_6  and  C_33
    4  A    between atoms: C_9  and  C_11
    5  A    between atoms: C_18  and  N_22
    6  A    between atoms: C_18  and  C_27
    7  A    between atoms: O_36  and  C_38
                            x       y       z     vdW  Elec       q    Type
                         _______ _______ _______ _____ _____    ______ ____

>  <TORSDO>
F 7

$$$$
=
 OpenBabel11062417273D

 45 50  0  0  1  0  0  0  0  0999 V2000
  186.0030  176.3600  135.1580 C   0  0  0  0  0  2  0  0  0  0  0  0
  185.7400  177.6010  137.8660 C   0  0  2  0  0  3  0  0  0  0  0  0
  190.6530  177.4420  138.2400 O   0  0  0  0  0  0  0  0  0  0  0  0
  189.1650  175.8840  137.1140 C   0  0  1  0  0  3  0  0  0  0  0  0
  188.8430  174.9720  135.9120 C   0  0  2  0  0  0  0  0  0  0  0  0
  189.0550  177.9040  138.5740 P   0  0  1  0  0  0  0  0  0  0  0  0
  183.6140  177.2570  136.5170 C   0  0  0  0  0  2  0  0  0  0  0  0
  188.6250  177.3720  140.1210 O   0  0  0  0  0  1  0  0  0  0  0  0
  184.5750  176.0590  134.7010 C   0  0  0  0  0  2  0  0  0  0  0  0
  185.9570  178.2080  139.2400 C   0  0  0  0  0  2  0  0  0  0  0  0
  188.8820  179.4000  138.4420 O   0  0  0  0  0  0  0  0  0  0  0  0
  182.8990  176.8770  139.9540 C   0  0  0  0  0  1  0  0  0  0  0  0
  184.2870  177.1110  137.8860 C   0  0  2  0  0  3  0  0  0  0  0  0
  186.3610  175.5670  136.4140 C   0  0  1  0  0  3  0  0  0  0  0  0
  188.9770  175.7370  134.5940 C   0  0  0  0  0  1  0  0  0  0  0  0
  183.5650  177.8640  139.0160 C   0  0  1  0  0  0  0  0  0  0  0  0
  187.3930  174.4720  136.0970 C   0  0  0  0  0  2  0  0  0  0  0  0
  182.5690  178.9020  138.5640 C   0  0  0  0  0  2  0  0  0  0  0  0
  183.0700  180.1830  139.1890 C   0  0  1  0  0  3  0  0  0  0  0  0
  183.6380  175.9800  135.8210 N   0  0  0  0  0  2  0  0  0  0  0  0
  190.5580  176.5270  137.1640 C   0  0  0  0  0  2  0  0  0  0  0  0
  184.4350  180.0280  139.4680 O   0  0  0  0  0  0  0  0  0  0  0  0
  186.7820  176.4790  137.5940 C   0  0  1  0  0  3  0  0  0  0  0  0
  184.6110  178.6650  139.7580 C   0  0  2  0  0  3  0  0  0  0  0  0
  188.1920  177.0200  137.2800 C   0  0  2  0  0  3  0  0  0  0  0  0
  189.7770  173.7360  135.9080 C   0  0  1  0  0  3  0  0  0  0  0  0
  189.1240  172.5090  135.2780 C   0  0  0  0  0  1  0  0  0  0  0  0
  191.0370  174.0120  135.2260 N   0  0  0  0  0  2  0  0  0  0  0  0
  193.4900  174.2440  135.1510 N   0  0  0  0  0  2  0  0  0  0  0  0
  192.3610  173.7100  137.1250 O   0  0  0  0  0  0  0  0  0  0  0  0
  192.2990  173.9750  135.8930 C   0  0  0  0  0  0  0  0  0  0  0  0
  194.8130  174.2610  135.7620 C   0  0  2  0  0  3  0  0  0  0  0  0
  195.5670  175.5220  135.3690 C   0  0  0  0  0  1  0  0  0  0  0  0
  195.6700  171.9980  136.5120 C   0  0  0  0  0  1  0  0  0  0  0  0
  195.5980  173.0100  135.3770 C   0  0  0  0  0  2  0  0  0  0  0  0
  182.8830  181.2950  138.2690 N   0  0  0  0  0  2  0  0  0  0  0  0
  179.9950  181.4910  135.7250 C   0  0  2  0  0  3  0  0  0  0  0  0
  181.1610  180.8240  136.4500 C   0  0  0  0  0  2  0  0  0  0  0  0
  178.9310  181.8970  136.7340 C   0  0  0  0  0  2  0  0  0  0  0  0
  181.6280  181.6050  137.6580 C   0  0  0  0  0  0  0  0  0  0  0  0
  179.5050  182.9350  137.7000 C   0  0  1  0  0  3  0  0  0  0  0  0
  180.8390  182.5070  138.2530 C   0  0  0  0  0  3  0  0  0  0  0  0
  179.4560  180.6080  134.8090 F   0  0  0  0  0  0  0  0  0  0  0  0
  179.0290  185.0890  137.8950 C   0  0  0  0  0  1  0  0  0  0  0  0
  179.6410  184.1640  137.0480 O   0  0  0  0  0  0  0  0  0  0  0  0
  2 13  1  0  0  0  0
  2 10  1  1  0  0  0
  3  6  1  0  0  0  0
  4 21  1  6  0  0  0
  4 25  1  0  0  0  0
  5 15  1  6  0  0  0
  5 17  1  0  0  0  0
  5  4  1  0  0  0  0
  6 11  2  6  0  0  0
  6  8  1  0  0  0  0
  9  1  1  0  0  0  0
  9 20  1  0  0  0  0
 10 24  1  0  0  0  0
 13  7  1  6  0  0  0
 13 16  1  0  0  0  0
 14  1  1  6  0  0  0
 14 23  1  0  0  0  0
 16 24  1  0  0  0  0
 16 12  1  1  0  0  0
 17 14  1  0  0  0  0
 18 16  1  0  0  0  0
 18 19  1  0  0  0  0
 19 36  1  6  0  0  0
 19 22  1  0  0  0  0
 20  7  1  0  0  0  0
 21  3  1  0  0  0  0
 22 24  1  0  0  0  0
 23  2  1  0  0  0  0
 25 23  1  0  0  0  0
 25  6  1  0  0  0  0
 26  5  1  0  0  0  0
 27 26  1  0  0  0  0
 28 31  1  0  0  0  0
 28 26  1  0  0  0  0
 29 32  1  0  0  0  0
 29 31  1  0  0  0  0
 31 30  2  0  0  0  0
 33 32  1  0  0  0  0
 35 32  1  0  0  0  0
 35 34  1  0  0  0  0
 37 38  1  0  0  0  0
 37 39  1  0  0  0  0
 38 40  1  0  0  0  0
 39 41  1  0  0  0  0
 40 42  2  0  0  0  0
 40 36  1  0  0  0  0
 41 42  1  0  0  0  0
 43 37  1  0  0  0  0
 45 41  1  0  0  0  0
 45 44  1  0  0  0  0
M  END
>  <MODEL>
7

>  <REMARK>
 VINA RESULT:      -6.1      3.860      5.535
  Name = 
  7 active torsions:
  status: ('A' for Active; 'I' for Inactive)
    1  A    between atoms: N_1  and  C_11
    2  A    between atoms: N_6  and  C_19
    3  A    between atoms: N_6  and  C_33
    4  A    between atoms: C_9  and  C_11
    5  A    between atoms: C_18  and  N_22
    6  A    between atoms: C_18  and  C_27
    7  A    between atoms: O_36  and  C_38
                            x       y       z     vdW  Elec       q    Type
                         _______ _______ _______ _____ _____    ______ ____

>  <TORSDO>
F 7

$$$$
=
 OpenBabel11062417273D

 45 50  0  0  1  0  0  0  0  0999 V2000
  184.5550  179.1410  140.2350 C   0  0  0  0  0  2  0  0  0  0  0  0
  181.8410  177.9010  140.0400 C   0  0  2  0  0  3  0  0  0  0  0  0
  181.0300  179.3310  144.6870 O   0  0  0  0  0  0  0  0  0  0  0  0
  183.1160  178.6270  143.6580 C   0  0  1  0  0  3  0  0  0  0  0  0
  184.6370  178.7970  143.4660 C   0  0  2  0  0  0  0  0  0  0  0  0
  180.6880  178.7960  143.1140 P   0  0  1  0  0  0  0  0  0  0  0  0
  183.3040  177.8650  137.9630 C   0  0  0  0  0  2  0  0  0  0  0  0
  180.0580  177.2280  143.1750 O   0  0  0  0  0  1  0  0  0  0  0  0
  185.2780  178.7580  138.9440 C   0  0  0  0  0  2  0  0  0  0  0  0
  180.4320  177.3860  140.2710 C   0  0  0  0  0  2  0  0  0  0  0  0
  179.7380  179.7400  142.4130 O   0  0  0  0  0  0  0  0  0  0  0  0
  181.3020  174.9570  138.0410 C   0  0  0  0  0  1  0  0  0  0  0  0
  182.3730  177.0590  138.8740 C   0  0  2  0  0  3  0  0  0  0  0  0
  184.2050  177.9050  141.0610 C   0  0  1  0  0  3  0  0  0  0  0  0
  184.9840  180.2400  143.0920 C   0  0  0  0  0  1  0  0  0  0  0  0
  181.1560  176.4630  138.1470 C   0  0  1  0  0  0  0  0  0  0  0  0
  185.0630  177.8330  142.3350 C   0  0  0  0  0  2  0  0  0  0  0  0
  180.8650  177.0520  136.7900 C   0  0  0  0  0  2  0  0  0  0  0  0
  179.4540  177.5780  136.9190 C   0  0  1  0  0  3  0  0  0  0  0  0
  184.6900  177.5820  138.3050 N   0  0  0  0  0  2  0  0  0  0  0  0
  182.4350  179.4920  144.7280 C   0  0  0  0  0  2  0  0  0  0  0  0
  179.1870  177.7840  138.2790 O   0  0  0  0  0  0  0  0  0  0  0  0
  182.6860  177.7860  141.3410 C   0  0  1  0  0  3  0  0  0  0  0  0
  179.9330  176.8120  138.9640 C   0  0  2  0  0  3  0  0  0  0  0  0
  182.3250  178.8510  142.3970 C   0  0  2  0  0  3  0  0  0  0  0  0
  185.3930  178.3840  144.7540 C   0  0  1  0  0  3  0  0  0  0  0  0
  184.5500  177.5040  145.6730 C   0  0  0  0  0  1  0  0  0  0  0  0
  186.6450  177.6980  144.4510 N   0  0  0  0  0  2  0  0  0  0  0  0
  189.0060  177.1410  144.8870 N   0  0  0  0  0  2  0  0  0  0  0  0
  187.8190  178.6280  146.2420 O   0  0  0  0  0  0  0  0  0  0  0  0
  187.8220  177.8590  145.2420 C   0  0  0  0  0  0  0  0  0  0  0  0
  190.2590  177.2750  145.6190 C   0  0  2  0  0  3  0  0  0  0  0  0
  191.4340  176.8540  144.7500 C   0  0  0  0  0  1  0  0  0  0  0  0
  191.5920  175.9840  147.3440 C   0  0  0  0  0  1  0  0  0  0  0  0
  190.2140  176.4640  146.9120 C   0  0  0  0  0  2  0  0  0  0  0  0
  179.3230  178.8360  136.1990 N   0  0  0  0  0  2  0  0  0  0  0  0
  179.6490  181.8860  138.5320 C   0  0  2  0  0  3  0  0  0  0  0  0
  179.4830  180.4060  138.2000 C   0  0  0  0  0  2  0  0  0  0  0  0
  180.9460  182.4030  137.9250 C   0  0  0  0  0  2  0  0  0  0  0  0
  179.7240  180.0970  136.7400 C   0  0  0  0  0  0  0  0  0  0  0  0
  180.8830  182.2930  136.4010 C   0  0  1  0  0  3  0  0  0  0  0  0
  180.4200  180.9300  135.9570 C   0  0  0  0  0  3  0  0  0  0  0  0
  179.6760  182.0520  139.9030 F   0  0  0  0  0  0  0  0  0  0  0  0
  180.8060  184.4190  135.7880 C   0  0  0  0  0  1  0  0  0  0  0  0
  180.0220  183.2690  135.8910 O   0  0  0  0  0  0  0  0  0  0  0  0
  2 10  1  1  0  0  0
  2 23  1  0  0  0  0
  3 21  1  0  0  0  0
  4 21  1  1  0  0  0
  5 15  1  6  0  0  0
  5  4  1  0  0  0  0
  5 26  1  0  0  0  0
  6 11  2  6  0  0  0
  6  8  1  0  0  0  0
  6  3  1  0  0  0  0
  7 20  1  0  0  0  0
  9  1  1  0  0  0  0
 13  7  1  6  0  0  0
 13  2  1  0  0  0  0
 14  1  1  1  0  0  0
 14 23  1  0  0  0  0
 14 17  1  0  0  0  0
 16 12  1  6  0  0  0
 16 13  1  0  0  0  0
 16 24  1  0  0  0  0
 17  5  1  0  0  0  0
 18 19  1  0  0  0  0
 18 16  1  0  0  0  0
 19 36  1  6  0  0  0
 19 22  1  0  0  0  0
 20  9  1  0  0  0  0
 22 24  1  0  0  0  0
 23 25  1  0  0  0  0
 24 10  1  0  0  0  0
 25  6  1  0  0  0  0
 25  4  1  0  0  0  0
 26 27  1  0  0  0  0
 28 26  1  0  0  0  0
 28 31  1  0  0  0  0
 29 31  1  0  0  0  0
 29 32  1  0  0  0  0
 31 30  2  0  0  0  0
 32 35  1  0  0  0  0
 33 32  1  0  0  0  0
 35 34  1  0  0  0  0
 36 40  1  0  0  0  0
 37 43  1  0  0  0  0
 38 37  1  0  0  0  0
 39 37  1  0  0  0  0
 40 38  1  0  0  0  0
 41 39  1  0  0  0  0
 42 41  1  0  0  0  0
 42 40  2  0  0  0  0
 44 45  1  0  0  0  0
 45 41  1  0  0  0  0
M  END
>  <MODEL>
8

>  <REMARK>
 VINA RESULT:      -6.1      3.123      4.229
  Name = 
  7 active torsions:
  status: ('A' for Active; 'I' for Inactive)
    1  A    between atoms: N_1  and  C_11
    2  A    between atoms: N_6  and  C_19
    3  A    between atoms: N_6  and  C_33
    4  A    between atoms: C_9  and  C_11
    5  A    between atoms: C_18  and  N_22
    6  A    between atoms: C_18  and  C_27
    7  A    between atoms: O_36  and  C_38
                            x       y       z     vdW  Elec       q    Type
                         _______ _______ _______ _____ _____    ______ ____

>  <TORSDO>
F 7

$$$$
=
 OpenBabel11062417273D

 45 50  0  0  1  0  0  0  0  0999 V2000
  186.4690  177.3740  142.5990 C   0  0  0  0  0  2  0  0  0  0  0  0
  185.8900  178.0720  139.7490 C   0  0  2  0  0  3  0  0  0  0  0  0
  190.4450  176.5630  138.6210 O   0  0  0  0  0  0  0  0  0  0  0  0
  189.6630  177.6390  140.6540 C   0  0  1  0  0  3  0  0  0  0  0  0
  189.6700  177.7610  142.1920 C   0  0  2  0  0  0  0  0  0  0  0  0
  188.8230  177.0060  138.3930 P   0  0  1  0  0  0  0  0  0  0  0  0
  184.0140  178.3650  141.4380 C   0  0  0  0  0  2  0  0  0  0  0  0
  188.7500  178.4270  137.4780 O   0  0  0  0  0  0  0  0  0  0  0  0
  185.2670  177.8750  143.3990 C   0  0  0  0  0  2  0  0  0  0  0  0
  185.9240  178.3120  138.2510 C   0  0  0  0  0  2  0  0  0  0  0  0
  188.0410  175.8910  137.7360 O   0  0  0  0  0  1  0  0  0  0  0  0
  183.7370  180.8400  138.9340 C   0  0  0  0  0  1  0  0  0  0  0  0
  184.7720  178.9890  140.2610 C   0  0  2  0  0  3  0  0  0  0  0  0
  187.2010  178.5300  141.9180 C   0  0  1  0  0  3  0  0  0  0  0  0
  189.3930  176.4060  142.8490 C   0  0  0  0  0  1  0  0  0  0  0  0
  183.8770  179.3350  139.0600 C   0  0  1  0  0  0  0  0  0  0  0  0
  188.5700  178.7760  142.5740 C   0  0  0  0  0  2  0  0  0  0  0  0
  182.5150  178.6870  139.0630 C   0  0  0  0  0  2  0  0  0  0  0  0
  182.4830  177.9030  137.7720 C   0  0  1  0  0  3  0  0  0  0  0  0
  184.5180  178.9100  142.6890 N   0  0  0  0  0  2  0  0  0  0  0  0
  190.6680  176.6720  140.0140 C   0  0  0  0  0  2  0  0  0  0  0  0
  183.8050  177.6640  137.3730 O   0  0  0  0  0  0  0  0  0  0  0  0
  187.2820  178.3600  140.3800 C   0  0  1  0  0  3  0  0  0  0  0  0
  184.5450  178.7680  137.8280 C   0  0  2  0  0  3  0  0  0  0  0  0
  188.3210  177.2570  140.0910 C   0  0  2  0  0  3  0  0  0  0  0  0
  191.0280  178.3230  142.6820 C   0  0  1  0  0  3  0  0  0  0  0  0
  190.9140  179.7460  143.2220 C   0  0  0  0  0  1  0  0  0  0  0  0
  191.6300  177.4710  143.7030 N   0  0  0  0  0  2  0  0  0  0  0  0
  191.8840  176.6570  146.0150 N   0  0  0  0  0  2  0  0  0  0  0  0
  190.3820  178.3590  145.4640 O   0  0  0  0  0  0  0  0  0  0  0  0
  191.2560  177.5350  145.0790 C   0  0  0  0  0  0  0  0  0  0  0  0
  191.5860  176.6820  147.4420 C   0  0  2  0  0  3  0  0  0  0  0  0
  192.4890  175.7170  148.1940 C   0  0  0  0  0  1  0  0  0  0  0  0
  189.3200  177.5790  148.1340 C   0  0  0  0  0  1  0  0  0  0  0  0
  190.1140  176.3590  147.6880 C   0  0  0  0  0  2  0  0  0  0  0  0
  181.7970  176.6360  137.9740 N   0  0  0  0  0  2  0  0  0  0  0  0
  184.1650  173.6310  137.5160 C   0  0  2  0  0  3  0  0  0  0  0  0
  183.5150  174.7790  138.2820 C   0  0  0  0  0  2  0  0  0  0  0  0
  183.0920  172.6630  137.0370 C   0  0  0  0  0  2  0  0  0  0  0  0
  182.3310  175.3780  137.5570 C   0  0  0  0  0  0  0  0  0  0  0  0
  182.1540  173.3740  136.0610 C   0  0  1  0  0  3  0  0  0  0  0  0
  181.6840  174.7000  136.6010 C   0  0  0  0  0  3  0  0  0  0  0  0
  185.0540  172.9700  138.3410 F   0  0  0  0  0  0  0  0  0  0  0  0
  183.4770  172.3730  134.5940 C   0  0  0  0  0  1  0  0  0  0  0  0
  182.8040  173.5710  134.8390 O   0  0  0  0  0  0  0  0  0  0  0  0
  1  9  1  0  0  0  0
  2 10  1  6  0  0  0
  2 13  1  0  0  0  0
  2 23  1  0  0  0  0
  3 21  1  0  0  0  0
  4 21  1  1  0  0  0
  4  5  1  0  0  0  0
  5 17  1  0  0  0  0
  5 26  1  0  0  0  0
  5 15  1  1  0  0  0
  6  8  2  6  0  0  0
  6  3  1  0  0  0  0
  6 25  1  0  0  0  0
  7 20  1  0  0  0  0
 11  6  1  0  0  0  0
 13  7  1  1  0  0  0
 14 17  1  1  0  0  0
 14  1  1  0  0  0  0
 16 12  1  6  0  0  0
 16 18  1  0  0  0  0
 16 13  1  0  0  0  0
 19 36  1  1  0  0  0
 19 18  1  0  0  0  0
 20  9  1  0  0  0  0
 22 19  1  0  0  0  0
 22 24  1  0  0  0  0
 23 14  1  0  0  0  0
 24 10  1  0  0  0  0
 24 16  1  0  0  0  0
 25 23  1  0  0  0  0
 25  4  1  0  0  0  0
 26 27  1  0  0  0  0
 26 28  1  0  0  0  0
 28 31  1  0  0  0  0
 29 32  1  0  0  0  0
 31 30  2  0  0  0  0
 31 29  1  0  0  0  0
 32 35  1  0  0  0  0
 32 33  1  0  0  0  0
 35 34  1  0  0  0  0
 37 38  1  0  0  0  0
 37 43  1  0  0  0  0
 39 37  1  0  0  0  0
 40 36  1  0  0  0  0
 40 38  1  0  0  0  0
 41 42  1  0  0  0  0
 41 39  1  0  0  0  0
 42 40  2  0  0  0  0
 44 45  1  0  0  0  0
 45 41  1  0  0  0  0
M  END
>  <MODEL>
9

>  <REMARK>
 VINA RESULT:      -6.0      3.692      5.923
  Name = 
  7 active torsions:
  status: ('A' for Active; 'I' for Inactive)
    1  A    between atoms: N_1  and  C_11
    2  A    between atoms: N_6  and  C_19
    3  A    between atoms: N_6  and  C_33
    4  A    between atoms: C_9  and  C_11
    5  A    between atoms: C_18  and  N_22
    6  A    between atoms: C_18  and  C_27
    7  A    between atoms: O_36  and  C_38
                            x       y       z     vdW  Elec       q    Type
                         _______ _______ _______ _____ _____    ______ ____

>  <TORSDO>
F 7

$$$$
