=
 OpenBabel11062417483D

 64 71  0  0  1  0  0  0  0  0999 V2000
  185.8590  178.3220  142.0840 C   0  0  1  0  0  3  0  0  0  0  0  0
  183.4040  178.9890  141.4170 C   0  0  2  0  0  3  0  0  0  0  0  0
  182.0690  177.8800  136.8410 F   0  0  0  0  0  0  0  0  0  0  0  0
  184.3560  177.5880  137.3690 C   0  0  1  0  0  3  0  0  0  0  0  0
  185.8010  177.1340  137.0050 C   0  0  1  0  0  3  0  0  0  0  0  0
  188.8420  174.9890  135.4160 C   0  0  0  0  0  3  0  0  0  0  0  0
  189.7260  179.0790  140.0040 C   0  0  0  0  0  1  0  0  0  0  0  0
  187.2090  179.0180  140.0440 C   0  0  1  0  0  3  0  0  0  0  0  0
  187.1750  178.1730  141.3200 C   0  0  0  0  0  2  0  0  0  0  0  0
  188.5530  176.2760  135.6510 C   0  0  0  0  0  0  0  0  0  0  0  0
  189.1680  178.5760  136.1980 O   0  0  0  0  0  1  0  0  0  0  0  0
  183.3540  177.4880  141.6600 C   0  0  0  0  0  2  0  0  0  0  0  0
  184.6380  178.1200  141.1410 C   0  0  2  0  0  0  0  0  0  0  0  0
  183.1460  177.0580  136.5720 C   0  0  0  0  0  0  0  0  0  0  0  0
  184.9150  178.1340  139.6660 C   0  0  0  0  0  0  0  0  0  0  0  0
  188.4660  178.7220  139.2230 C   0  0  2  0  0  3  0  0  0  0  0  0
  186.1390  175.6430  137.0980 C   0  0  1  0  0  3  0  0  0  0  0  0
  184.1150  177.5610  138.8150 N   0  0  0  0  0  0  0  0  0  0  0  0
  187.2130  178.0390  134.5930 O   0  0  0  0  0  1  0  0  0  0  0  0
  182.7560  175.6360  136.9710 C   0  0  0  0  0  2  0  0  0  0  0  0
  189.6790  176.9280  137.8780 C   0  0  0  0  0  2  0  0  0  0  0  0
  183.8150  174.6080  136.6230 C   0  0  0  0  0  2  0  0  0  0  0  0
  186.0710  178.7780  139.2170 O   0  0  0  0  0  0  0  0  0  0  0  0
  183.3870  177.1180  135.2120 F   0  0  0  0  0  0  0  0  0  0  0  0
  188.4890  177.2590  138.7650 C   0  0  0  0  0  2  0  0  0  0  0  0
  184.9940  174.7360  137.5800 C   0  0  0  0  0  2  0  0  0  0  0  0
  189.4850  177.2280  136.3880 C   0  0  1  0  0  3  0  0  0  0  0  0
  185.9350  176.3170  135.7380 C   0  0  2  0  0  3  0  0  0  0  0  0
  187.2400  176.7110  135.0210 C   0  0  2  0  0  3  0  0  0  0  0  0
  190.6680  171.9760  135.7940 O   0  0  0  0  0  0  0  0  0  0  0  0
  187.7490  173.2010  137.3460 O   0  0  0  0  0  1  0  0  0  0  0  0
  189.7730  172.8170  136.0670 C   0  0  0  0  0  0  0  0  0  0  0  0
  188.5560  172.3580  136.6650 N   0  0  0  0  0  2  0  0  0  0  0  0
  189.9950  174.2130  135.7990 N   0  0  0  0  0  0  0  0  0  0  0  0
  193.3660  175.3170  134.6030 C   0  0  0  0  0  3  0  0  0  0  0  0
  193.3160  175.4410  137.0110 C   0  0  0  0  0  3  0  0  0  0  0  0
  194.0150  175.6170  135.8100 C   0  0  0  0  0  0  0  0  0  0  0  0
  191.3450  174.7100  135.8010 C   0  0  0  0  0  0  0  0  0  0  0  0
  191.2960  174.8310  138.3260 C   0  0  0  0  0  1  0  0  0  0  0  0
  192.0400  174.8700  134.5940 C   0  0  0  0  0  3  0  0  0  0  0  0
  191.9990  174.9780  137.0200 C   0  0  0  0  0  0  0  0  0  0  0  0
  195.6220  177.4780  135.3700 C   0  0  0  0  0  1  0  0  0  0  0  0
  195.3720  176.1120  135.8240 N   0  0  0  0  0  0  0  0  0  0  0  0
  196.5130  175.2880  136.2760 C   0  0  2  0  0  0  0  0  0  0  0  0
  196.4920  173.9610  135.5390 C   0  0  0  0  0  1  0  0  0  0  0  0
  196.3790  175.0210  137.6500 O   0  0  0  0  0  1  0  0  0  0  0  0
  197.7430  175.9290  135.9440 O   0  0  0  0  0  0  0  0  0  0  0  0
  198.7740  175.0110  135.6840 C   0  0  0  0  0  1  0  0  0  0  0  0
  185.2300  177.9060  144.4680 N   0  0  0  0  0  2  0  0  0  0  0  0
  185.9630  177.5380  145.6170 N   0  0  0  0  0  2  0  0  0  0  0  0
  187.3340  177.0720  143.7200 C   0  0  0  0  0  2  0  0  0  0  0  0
  187.1490  176.8040  145.1820 C   0  0  1  0  0  3  0  0  0  0  0  0
  185.9320  177.3780  143.3000 C   0  0  2  0  0  3  0  0  0  0  0  0
  188.3440  177.2300  145.9630 C   0  0  0  0  0  0  0  0  0  0  0  0
  189.4710  176.7400  145.6950 O   0  0  0  0  0  0  0  0  0  0  0  0
  188.2230  178.1510  146.9980 O   0  0  0  0  0  1  0  0  0  0  0  0
  183.4890  179.7060  142.6830 N   0  0  0  0  0  2  0  0  0  0  0  0
  181.1270  179.7430  142.0810 C   0  0  0  0  0  2  0  0  0  0  0  0
  178.9310  179.6420  143.3100 C   0  0  0  0  0  2  0  0  0  0  0  0
  179.5370  179.2340  144.6440 C   0  0  0  0  0  2  0  0  0  0  0  0
  181.9590  178.6260  144.2400 C   0  0  0  0  0  2  0  0  0  0  0  0
  182.1410  179.7640  143.2230 C   0  0  0  0  0  3  0  0  0  0  0  0
  179.8740  180.5060  142.4880 C   0  0  0  0  0  2  0  0  0  0  0  0
  180.5360  178.1060  144.4300 C   0  0  0  0  0  2  0  0  0  0  0  0
  1  9  1  6  0  0  0
  1 53  1  0  0  0  0
  2 12  1  0  0  0  0
  2 57  1  1  0  0  0
  4 18  1  1  0  0  0
  5 17  1  0  0  0  0
  5  4  1  0  0  0  0
  6 10  2  0  0  0  0
  6 34  1  0  0  0  0
  8  9  1  0  0  0  0
 10 27  1  0  0  0  0
 11 27  1  0  0  0  0
 13  2  1  0  0  0  0
 13 12  1  0  0  0  0
 13  1  1  0  0  0  0
 14  3  1  0  0  0  0
 14 20  1  0  0  0  0
 14  4  1  0  0  0  0
 15 13  1  0  0  0  0
 16  7  1  0  0  0  0
 16  8  1  0  0  0  0
 17 26  1  0  0  0  0
 18 15  2  0  0  0  0
 19 29  1  0  0  0  0
 21 25  1  0  0  0  0
 22 20  1  0  0  0  0
 22 26  1  0  0  0  0
 23 15  1  0  0  0  0
 23  8  1  0  0  0  0
 24 14  1  0  0  0  0
 25 16  1  0  0  0  0
 27 21  1  0  0  0  0
 28  5  1  0  0  0  0
 28 17  1  0  0  0  0
 29 10  1  0  0  0  0
 29 28  1  0  0  0  0
 30 32  2  0  0  0  0
 32 33  1  0  0  0  0
 33 31  1  0  0  0  0
 34 38  1  0  0  0  0
 34 32  1  0  0  0  0
 35 37  1  0  0  0  0
 36 41  1  0  0  0  0
 37 43  1  0  0  0  0
 37 36  2  0  0  0  0
 38 41  2  0  0  0  0
 40 35  2  0  0  0  0
 40 38  1  0  0  0  0
 41 39  1  0  0  0  0
 42 43  1  0  0  0  0
 43 44  1  0  0  0  0
 44 46  1  0  0  0  0
 45 44  1  0  0  0  0
 47 44  1  0  0  0  0
 48 47  1  0  0  0  0
 49 50  1  0  0  0  0
 51 52  1  0  0  0  0
 52 50  1  0  0  0  0
 52 54  1  0  0  0  0
 53 51  1  0  0  0  0
 53 49  1  0  0  0  0
 54 56  1  0  0  0  0
 55 54  2  0  0  0  0
 57 62  1  0  0  0  0
 58 63  1  0  0  0  0
 58 62  1  0  0  0  0
 59 60  1  0  0  0  0
 61 64  1  0  0  0  0
 62 61  1  0  0  0  0
 63 59  1  0  0  0  0
 64 60  1  0  0  0  0
M  END
>  <MODEL>
1

>  <REMARK>
 VINA RESULT:      -3.3      0.000      0.000
  Name = 
  9 active torsions:
  status: ('A' for Active; 'I' for Inactive)
    1  A    between atoms: C_1  and  C_53
    2  A    between atoms: C_2  and  N_43
    3  A    between atoms: O_10  and  C_20
    4  A    between atoms: C_11  and  C_37
    5  A    between atoms: C_13  and  N_39
    6  A    between atoms: C_14  and  N_54
    7  A    between atoms: C_16  and  N_54
    8  A    between atoms: C_20  and  N_39
    9  A    between atoms: N_43  and  C_51
                            x       y       z     vdW  Elec       q    Type
                         _______ _______ _______ _____ _____    ______ ____

>  <TORSDO>
F 9

$$$$
=
 OpenBabel11062417483D

 64 71  0  0  1  0  0  0  0  0999 V2000
  182.9490  177.6810  139.0070 C   0  0  1  0  0  3  0  0  0  0  0  0
  181.6380  176.0160  137.4500 C   0  0  2  0  0  3  0  0  0  0  0  0
  184.3980  172.9300  134.8380 F   0  0  0  0  0  0  0  0  0  0  0  0
  185.5450  174.6440  135.9960 C   0  0  1  0  0  3  0  0  0  0  0  0
  186.8560  175.3500  136.4540 C   0  0  1  0  0  3  0  0  0  0  0  0
  190.6660  175.8870  137.7040 C   0  0  0  0  0  3  0  0  0  0  0  0
  186.3890  180.3700  138.1180 C   0  0  0  0  0  1  0  0  0  0  0  0
  184.8630  178.4580  137.5220 C   0  0  1  0  0  3  0  0  0  0  0  0
  184.3270  178.3420  138.9520 C   0  0  0  0  0  2  0  0  0  0  0  0
  189.7980  176.4920  136.8830 C   0  0  0  0  0  0  0  0  0  0  0  0
  188.8440  178.4620  135.7980 O   0  0  0  0  0  1  0  0  0  0  0  0
  182.0670  175.1820  138.6480 C   0  0  0  0  0  2  0  0  0  0  0  0
  182.9340  176.3510  138.2000 C   0  0  2  0  0  0  0  0  0  0  0  0
  185.5730  173.1760  135.5190 C   0  0  0  0  0  0  0  0  0  0  0  0
  184.0970  176.1030  137.2860 C   0  0  0  0  0  0  0  0  0  0  0  0
  186.3050  178.9720  137.5170 C   0  0  2  0  0  3  0  0  0  0  0  0
  187.6160  174.7670  137.6490 C   0  0  1  0  0  3  0  0  0  0  0  0
  184.4290  174.9020  136.9110 N   0  0  0  0  0  0  0  0  0  0  0  0
  188.9730  176.1780  134.5940 O   0  0  0  0  0  1  0  0  0  0  0  0
  185.6570  172.1840  136.6770 C   0  0  0  0  0  2  0  0  0  0  0  0
  188.6970  178.4170  138.2010 C   0  0  0  0  0  2  0  0  0  0  0  0
  186.9610  172.2720  137.4450 C   0  0  0  0  0  2  0  0  0  0  0  0
  184.8340  177.2040  136.8420 O   0  0  0  0  0  0  0  0  0  0  0  0
  186.6180  172.9650  134.6390 F   0  0  0  0  0  0  0  0  0  0  0  0
  187.2370  177.9950  138.2440 C   0  0  0  0  0  2  0  0  0  0  0  0
  186.9720  173.5320  138.3020 C   0  0  0  0  0  2  0  0  0  0  0  0
  189.4670  177.9760  136.9510 C   0  0  1  0  0  3  0  0  0  0  0  0
  188.1360  174.5780  136.2210 C   0  0  2  0  0  3  0  0  0  0  0  0
  189.2500  175.5610  135.8140 C   0  0  2  0  0  3  0  0  0  0  0  0
  193.2040  177.9020  139.1380 O   0  0  0  0  0  0  0  0  0  0  0  0
  193.3140  175.0520  137.0670 O   0  0  0  0  0  1  0  0  0  0  0  0
  192.7410  176.9230  138.5000 C   0  0  0  0  0  0  0  0  0  0  0  0
  193.5530  176.3120  137.4920 N   0  0  0  0  0  2  0  0  0  0  0  0
  191.4270  176.4230  138.8060 N   0  0  0  0  0  0  0  0  0  0  0  0
  189.0330  176.8150  141.6560 C   0  0  0  0  0  3  0  0  0  0  0  0
  191.2840  177.0380  142.4950 C   0  0  0  0  0  3  0  0  0  0  0  0
  189.9040  177.0260  142.7370 C   0  0  0  0  0  0  0  0  0  0  0  0
  190.9140  176.6030  140.1380 C   0  0  0  0  0  0  0  0  0  0  0  0
  193.2720  176.8460  141.0150 C   0  0  0  0  0  1  0  0  0  0  0  0
  189.5300  176.6020  140.3670 C   0  0  0  0  0  3  0  0  0  0  0  0
  191.7950  176.8450  141.2100 C   0  0  0  0  0  0  0  0  0  0  0  0
  187.9720  177.0160  144.3190 C   0  0  0  0  0  1  0  0  0  0  0  0
  189.3990  177.2130  144.0770 N   0  0  0  0  0  0  0  0  0  0  0  0
  190.2710  177.5970  145.2070 C   0  0  2  0  0  0  0  0  0  0  0  0
  189.4100  177.9160  146.4160 C   0  0  0  0  0  1  0  0  0  0  0  0
  190.9870  178.7600  144.8680 O   0  0  0  0  0  1  0  0  0  0  0  0
  191.1130  176.5050  145.5710 O   0  0  0  0  0  0  0  0  0  0  0  0
  191.6500  176.6480  146.8610 C   0  0  0  0  0  1  0  0  0  0  0  0
  181.5280  178.5300  140.8800 N   0  0  0  0  0  2  0  0  0  0  0  0
  181.8070  178.9610  142.1950 N   0  0  0  0  0  2  0  0  0  0  0  0
  183.7190  177.7610  141.4190 C   0  0  0  0  0  2  0  0  0  0  0  0
  183.0340  178.3020  142.6370 C   0  0  1  0  0  3  0  0  0  0  0  0
  182.5590  177.5700  140.4940 C   0  0  2  0  0  3  0  0  0  0  0  0
  183.9100  179.2620  143.3640 C   0  0  0  0  0  0  0  0  0  0  0  0
  185.1610  179.1450  143.2900 O   0  0  0  0  0  0  0  0  0  0  0  0
  183.3590  180.2760  144.1420 O   0  0  0  0  0  1  0  0  0  0  0  0
  180.5330  176.8940  137.8100 N   0  0  0  0  0  2  0  0  0  0  0  0
  180.6720  177.8590  135.5760 C   0  0  0  0  0  2  0  0  0  0  0  0
  180.8240  180.1740  134.5950 C   0  0  0  0  0  2  0  0  0  0  0  0
  180.4960  180.8960  135.8930 C   0  0  0  0  0  2  0  0  0  0  0  0
  179.6960  179.1680  137.5600 C   0  0  0  0  0  2  0  0  0  0  0  0
  180.7270  178.1340  137.0770 C   0  0  0  0  0  3  0  0  0  0  0  0
  181.5490  178.8580  134.8340 C   0  0  0  0  0  2  0  0  0  0  0  0
  179.2910  180.2420  136.5540 C   0  0  0  0  0  2  0  0  0  0  0  0
  1  9  1  1  0  0  0
  1 53  1  0  0  0  0
  2 57  1  1  0  0  0
  2 13  1  0  0  0  0
  2 12  1  0  0  0  0
  3 14  1  0  0  0  0
  4  5  1  0  0  0  0
  4 18  1  1  0  0  0
  5 17  1  0  0  0  0
  6 34  1  0  0  0  0
  8  9  1  0  0  0  0
 10 27  1  0  0  0  0
 10  6  2  0  0  0  0
 11 27  1  0  0  0  0
 13 12  1  0  0  0  0
 13  1  1  0  0  0  0
 14  4  1  0  0  0  0
 14 20  1  0  0  0  0
 15 13  1  0  0  0  0
 16  8  1  0  0  0  0
 16  7  1  0  0  0  0
 16 25  1  0  0  0  0
 17 26  1  0  0  0  0
 18 15  2  0  0  0  0
 19 29  1  0  0  0  0
 20 22  1  0  0  0  0
 21 25  1  0  0  0  0
 22 26  1  0  0  0  0
 23 15  1  0  0  0  0
 23  8  1  0  0  0  0
 24 14  1  0  0  0  0
 27 21  1  0  0  0  0
 28  5  1  0  0  0  0
 28 17  1  0  0  0  0
 29 28  1  0  0  0  0
 29 10  1  0  0  0  0
 31 33  1  0  0  0  0
 32 34  1  0  0  0  0
 32 30  2  0  0  0  0
 33 32  1  0  0  0  0
 34 38  1  0  0  0  0
 35 37  1  0  0  0  0
 36 37  2  0  0  0  0
 37 43  1  0  0  0  0
 38 40  1  0  0  0  0
 38 41  2  0  0  0  0
 39 41  1  0  0  0  0
 40 35  2  0  0  0  0
 41 36  1  0  0  0  0
 43 42  1  0  0  0  0
 43 44  1  0  0  0  0
 44 47  1  0  0  0  0
 44 45  1  0  0  0  0
 46 44  1  0  0  0  0
 47 48  1  0  0  0  0
 49 50  1  0  0  0  0
 50 52  1  0  0  0  0
 51 52  1  0  0  0  0
 52 54  1  0  0  0  0
 53 49  1  0  0  0  0
 53 51  1  0  0  0  0
 54 56  1  0  0  0  0
 55 54  2  0  0  0  0
 58 62  1  0  0  0  0
 59 63  1  0  0  0  0
 59 60  1  0  0  0  0
 60 64  1  0  0  0  0
 62 61  1  0  0  0  0
 62 57  1  0  0  0  0
 63 58  1  0  0  0  0
 64 61  1  0  0  0  0
M  END
>  <MODEL>
2

>  <REMARK>
 VINA RESULT:      -0.7      2.942      6.185
  Name = 
  9 active torsions:
  status: ('A' for Active; 'I' for Inactive)
    1  A    between atoms: C_1  and  C_53
    2  A    between atoms: C_2  and  N_43
    3  A    between atoms: O_10  and  C_20
    4  A    between atoms: C_11  and  C_37
    5  A    between atoms: C_13  and  N_39
    6  A    between atoms: C_14  and  N_54
    7  A    between atoms: C_16  and  N_54
    8  A    between atoms: C_20  and  N_39
    9  A    between atoms: N_43  and  C_51
                            x       y       z     vdW  Elec       q    Type
                         _______ _______ _______ _____ _____    ______ ____

>  <TORSDO>
F 9

$$$$
=
 OpenBabel11062417483D

 64 71  0  0  1  0  0  0  0  0999 V2000
  181.7880  177.9070  139.7170 C   0  0  1  0  0  3  0  0  0  0  0  0
  180.2140  176.4410  138.2040 C   0  0  2  0  0  3  0  0  0  0  0  0
  182.4740  173.3900  135.1150 F   0  0  0  0  0  0  0  0  0  0  0  0
  183.8480  174.9420  136.2530 C   0  0  1  0  0  3  0  0  0  0  0  0
  185.2440  175.5320  136.6130 C   0  0  1  0  0  3  0  0  0  0  0  0
  189.1900  175.7460  137.4800 C   0  0  0  0  0  3  0  0  0  0  0  0
  185.2940  180.4380  138.6410 C   0  0  0  0  0  1  0  0  0  0  0  0
  183.5880  178.6710  138.0890 C   0  0  1  0  0  3  0  0  0  0  0  0
  183.1950  178.4850  139.5580 C   0  0  0  0  0  2  0  0  0  0  0  0
  188.2850  176.4600  136.7970 C   0  0  0  0  0  0  0  0  0  0  0  0
  187.3620  178.5570  135.9520 O   0  0  0  0  0  1  0  0  0  0  0  0
  180.7050  175.4990  139.2930 C   0  0  0  0  0  2  0  0  0  0  0  0
  181.6000  176.6420  138.8310 C   0  0  2  0  0  0  0  0  0  0  0  0
  183.7270  173.5140  135.6810 C   0  0  0  0  0  0  0  0  0  0  0  0
  182.6430  176.3900  137.7830 C   0  0  0  0  0  0  0  0  0  0  0  0
  185.0530  179.0950  137.9630 C   0  0  2  0  0  3  0  0  0  0  0  0
  186.0820  174.8200  137.6790 C   0  0  1  0  0  3  0  0  0  0  0  0
  182.8520  175.2010  137.2970 N   0  0  0  0  0  0  0  0  0  0  0  0
  187.2100  176.3620  134.5940 O   0  0  0  0  0  1  0  0  0  0  0  0
  183.8610  172.4370  136.7560 C   0  0  0  0  0  2  0  0  0  0  0  0
  187.4600  178.3480  138.3490 C   0  0  0  0  0  2  0  0  0  0  0  0
  185.2410  172.3910  137.3840 C   0  0  0  0  0  2  0  0  0  0  0  0
  183.4040  177.4730  137.3350 O   0  0  0  0  0  0  0  0  0  0  0  0
  184.6590  173.3030  134.6820 F   0  0  0  0  0  0  0  0  0  0  0  0
  185.9860  178.0140  138.5200 C   0  0  0  0  0  2  0  0  0  0  0  0
  185.4250  173.5830  138.3150 C   0  0  0  0  0  2  0  0  0  0  0  0
  188.0650  177.9520  136.9970 C   0  0  1  0  0  3  0  0  0  0  0  0
  186.4380  174.7030  136.1940 C   0  0  2  0  0  3  0  0  0  0  0  0
  187.5690  175.6430  135.7350 C   0  0  2  0  0  3  0  0  0  0  0  0
  192.1980  177.1510  138.7180 O   0  0  0  0  0  0  0  0  0  0  0  0
  191.5190  174.2150  136.8880 O   0  0  0  0  0  1  0  0  0  0  0  0
  191.4830  176.2750  138.1670 C   0  0  0  0  0  0  0  0  0  0  0  0
  192.0830  175.4010  137.2050 N   0  0  0  0  0  2  0  0  0  0  0  0
  190.0950  176.1530  138.5260 N   0  0  0  0  0  0  0  0  0  0  0  0
  189.1260  176.0080  142.1380 C   0  0  0  0  0  3  0  0  0  0  0  0
  188.9250  178.2860  141.3700 C   0  0  0  0  0  3  0  0  0  0  0  0
  188.8120  177.3490  142.4060 C   0  0  0  0  0  0  0  0  0  0  0  0
  189.6850  176.5610  139.8430 C   0  0  0  0  0  0  0  0  0  0  0  0
  189.4640  178.9460  139.0350 C   0  0  0  0  0  1  0  0  0  0  0  0
  189.5630  175.6130  140.8700 C   0  0  0  0  0  3  0  0  0  0  0  0
  189.3410  177.9040  140.0930 C   0  0  0  0  0  0  0  0  0  0  0  0
  187.0180  178.2240  143.9080 C   0  0  0  0  0  1  0  0  0  0  0  0
  188.3940  177.7690  143.7240 N   0  0  0  0  0  0  0  0  0  0  0  0
  189.3080  177.7590  144.8860 C   0  0  2  0  0  0  0  0  0  0  0  0
  188.4980  177.9290  146.1580 C   0  0  0  0  0  1  0  0  0  0  0  0
  190.1950  178.8470  144.7900 O   0  0  0  0  0  1  0  0  0  0  0  0
  189.9710  176.4990  144.9780 O   0  0  0  0  0  0  0  0  0  0  0  0
  191.3490  176.6340  145.2070 C   0  0  0  0  0  1  0  0  0  0  0  0
  180.5850  178.6680  141.7720 N   0  0  0  0  0  2  0  0  0  0  0  0
  181.0050  179.0120  143.0740 N   0  0  0  0  0  2  0  0  0  0  0  0
  182.7980  177.8240  142.0390 C   0  0  0  0  0  2  0  0  0  0  0  0
  182.2530  178.3030  143.3490 C   0  0  1  0  0  3  0  0  0  0  0  0
  181.5470  177.7130  141.2270 C   0  0  2  0  0  3  0  0  0  0  0  0
  183.2220  179.1990  144.0400 C   0  0  0  0  0  0  0  0  0  0  0  0
  183.8530  180.0640  143.3780 O   0  0  0  0  0  0  0  0  0  0  0  0
  183.4530  179.0760  145.4060 O   0  0  0  0  0  1  0  0  0  0  0  0
  179.2140  177.3570  138.7370 N   0  0  0  0  0  2  0  0  0  0  0  0
  179.7460  179.6580  138.1320 C   0  0  0  0  0  2  0  0  0  0  0  0
  179.3800  181.1490  136.1360 C   0  0  0  0  0  2  0  0  0  0  0  0
  178.9330  180.0300  135.2070 C   0  0  0  0  0  2  0  0  0  0  0  0
  179.4180  177.8290  136.3560 C   0  0  0  0  0  2  0  0  0  0  0  0
  179.0060  178.3830  137.7300 C   0  0  0  0  0  3  0  0  0  0  0  0
  179.0140  180.8750  137.5860 C   0  0  0  0  0  2  0  0  0  0  0  0
  179.8890  178.8520  135.3260 C   0  0  0  0  0  2  0  0  0  0  0  0
  1  9  1  1  0  0  0
  1 53  1  0  0  0  0
  2 57  1  1  0  0  0
  2 13  1  0  0  0  0
  2 12  1  0  0  0  0
  3 14  1  0  0  0  0
  4  5  1  0  0  0  0
  4 18  1  1  0  0  0
  5 17  1  0  0  0  0
  6 34  1  0  0  0  0
  8  9  1  0  0  0  0
 10 27  1  0  0  0  0
 10  6  2  0  0  0  0
 11 27  1  0  0  0  0
 13 12  1  0  0  0  0
 13  1  1  0  0  0  0
 14  4  1  0  0  0  0
 14 20  1  0  0  0  0
 15 13  1  0  0  0  0
 16  8  1  0  0  0  0
 16 25  1  0  0  0  0
 16  7  1  0  0  0  0
 17 26  1  0  0  0  0
 18 15  2  0  0  0  0
 19 29  1  0  0  0  0
 20 22  1  0  0  0  0
 21 25  1  0  0  0  0
 22 26  1  0  0  0  0
 23 15  1  0  0  0  0
 23  8  1  0  0  0  0
 24 14  1  0  0  0  0
 27 21  1  0  0  0  0
 28  5  1  0  0  0  0
 28 17  1  0  0  0  0
 29 28  1  0  0  0  0
 29 10  1  0  0  0  0
 31 33  1  0  0  0  0
 32 34  1  0  0  0  0
 32 30  2  0  0  0  0
 33 32  1  0  0  0  0
 34 38  1  0  0  0  0
 35 37  1  0  0  0  0
 36 37  2  0  0  0  0
 37 43  1  0  0  0  0
 38 41  2  0  0  0  0
 38 40  1  0  0  0  0
 39 41  1  0  0  0  0
 40 35  2  0  0  0  0
 41 36  1  0  0  0  0
 43 42  1  0  0  0  0
 43 44  1  0  0  0  0
 44 47  1  0  0  0  0
 44 45  1  0  0  0  0
 46 44  1  0  0  0  0
 47 48  1  0  0  0  0
 49 50  1  0  0  0  0
 50 52  1  0  0  0  0
 51 52  1  0  0  0  0
 52 54  1  0  0  0  0
 53 49  1  0  0  0  0
 53 51  1  0  0  0  0
 54 56  1  0  0  0  0
 55 54  2  0  0  0  0
 59 63  1  0  0  0  0
 60 64  1  0  0  0  0
 60 59  1  0  0  0  0
 61 62  1  0  0  0  0
 62 58  1  0  0  0  0
 62 57  1  0  0  0  0
 63 58  1  0  0  0  0
 64 61  1  0  0  0  0
M  END
>  <MODEL>
3

>  <REMARK>
 VINA RESULT:      -0.7      2.957      6.091
  Name = 
  9 active torsions:
  status: ('A' for Active; 'I' for Inactive)
    1  A    between atoms: C_1  and  C_53
    2  A    between atoms: C_2  and  N_43
    3  A    between atoms: O_10  and  C_20
    4  A    between atoms: C_11  and  C_37
    5  A    between atoms: C_13  and  N_39
    6  A    between atoms: C_14  and  N_54
    7  A    between atoms: C_16  and  N_54
    8  A    between atoms: C_20  and  N_39
    9  A    between atoms: N_43  and  C_51
                            x       y       z     vdW  Elec       q    Type
                         _______ _______ _______ _____ _____    ______ ____

>  <TORSDO>
F 9

$$$$
