=
 OpenBabel11062418093D

 25 27  0  0  1  0  0  0  0  0999 V2000
  189.8860  177.8800  144.0970 C   0  0  2  0  0  3  0  0  0  0  0  0
  189.1730  175.8290  142.7820 C   0  0  0  0  0  1  0  0  0  0  0  0
  190.4140  177.7500  141.8130 C   0  0  0  0  0  2  0  0  0  0  0  0
  189.3350  177.3490  142.7960 C   0  0  2  0  0  0  0  0  0  0  0  0
  191.3770  177.8300  143.8710 C   0  0  0  0  0  2  0  0  0  0  0  0
  191.6350  177.9470  142.4920 O   0  0  0  0  0  0  0  0  0  0  0  0
  190.1750  176.7520  147.4550 N   0  0  0  0  0  2  0  0  0  0  0  0
  189.0020  177.5840  147.5230 C   0  0  0  0  0  0  0  0  0  0  0  0
  188.9400  178.5740  148.6540 C   0  0  0  0  0  2  0  0  0  0  0  0
  188.0470  177.3270  148.6560 C   0  0  0  0  0  2  0  0  0  0  0  0
  190.5960  176.8130  146.1550 O   0  0  0  0  0  0  0  0  0  0  0  0
  188.5050  177.9540  146.1880 C   0  0  0  0  0  2  0  0  0  0  0  0
  189.4620  177.1240  145.3620 C   0  0  1  0  0  3  0  0  0  0  0  0
  186.7910  177.6140  142.9920 C   0  0  0  0  0  0  0  0  0  0  0  0
  186.6850  176.6250  143.7650 O   0  0  0  0  0  0  0  0  0  0  0  0
  188.0720  178.0130  142.4860 N   0  0  0  0  0  2  0  0  0  0  0  0
  185.5670  178.3800  142.6120 C   0  0  2  0  0  3  0  0  0  0  0  0
  185.5700  178.6620  141.1810 N   0  0  0  0  0  2  0  0  0  0  0  0
  184.3700  178.8050  140.4190 C   0  0  0  0  0  0  0  0  0  0  0  0
  183.2420  178.7140  140.9740 O   0  0  0  0  0  0  0  0  0  0  0  0
  184.4540  179.0660  138.9600 C   0  0  0  0  0  1  0  0  0  0  0  0
  185.5120  179.6630  143.3860 C   0  0  0  0  0  3  0  0  0  0  0  0
  184.8570  179.7960  144.5450 C   0  0  0  0  0  3  0  0  0  0  0  0
  184.7820  178.3150  146.5040 C   0  0  0  0  0  1  0  0  0  0  0  0
  184.1170  178.6690  145.1910 C   0  0  0  0  0  2  0  0  0  0  0  0
  1  5  1  6  0  0  0
  1 13  1  0  0  0  0
  3  6  1  0  0  0  0
  3  4  1  0  0  0  0
  4  2  1  1  0  0  0
  4  1  1  0  0  0  0
  6  5  1  0  0  0  0
  7  8  1  0  0  0  0
  8  9  1  0  0  0  0
  8 10  1  0  0  0  0
  9 10  1  0  0  0  0
 11  7  1  0  0  0  0
 12  8  1  0  0  0  0
 13 11  1  0  0  0  0
 13 12  1  1  0  0  0
 14 15  2  0  0  0  0
 16  4  1  0  0  0  0
 16 14  1  0  0  0  0
 17 14  1  0  0  0  0
 17 22  1  1  0  0  0
 18 17  1  0  0  0  0
 19 20  2  0  0  0  0
 19 18  1  0  0  0  0
 21 19  1  0  0  0  0
 22 23  2  0  0  0  0
 23 25  1  0  0  0  0
 25 24  1  0  0  0  0
M  END
>  <MODEL>
1

>  <REMARK>
 VINA RESULT:      -7.4      0.000      0.000
  Name = 
  6 active torsions:
  status: ('A' for Active; 'I' for Inactive)
    1  A    between atoms: C_1  and  N_6
    2  A    between atoms: C_1  and  C_7
    3  A    between atoms: C_1  and  C_8
    4  A    between atoms: C_5  and  C_23
    5  A    between atoms: C_17  and  N_20
    6  A    between atoms: C_18  and  C_21
                            x       y       z     vdW  Elec       q    Type
                         _______ _______ _______ _____ _____    ______ ____

>  <TORSDO>
F 6

$$$$
=
 OpenBabel11062418093D

 25 27  0  0  1  0  0  0  0  0999 V2000
  190.2090  177.8340  144.1730 C   0  0  2  0  0  3  0  0  0  0  0  0
  190.1990  175.6360  142.9050 C   0  0  0  0  0  1  0  0  0  0  0  0
  191.3170  177.7050  142.1070 C   0  0  0  0  0  2  0  0  0  0  0  0
  190.1020  177.1590  142.8280 C   0  0  2  0  0  0  0  0  0  0  0  0
  191.6960  178.0430  144.3230 C   0  0  0  0  0  2  0  0  0  0  0  0
  192.2750  178.1460  143.0440 O   0  0  0  0  0  0  0  0  0  0  0  0
  190.0620  176.5900  147.4990 N   0  0  0  0  0  2  0  0  0  0  0  0
  188.9390  177.4920  147.4710 C   0  0  0  0  0  0  0  0  0  0  0  0
  188.8130  178.4490  148.6240 C   0  0  0  0  0  2  0  0  0  0  0  0
  187.8520  177.2610  148.4840 C   0  0  0  0  0  2  0  0  0  0  0  0
  190.6250  176.6640  146.2550 O   0  0  0  0  0  0  0  0  0  0  0  0
  188.6150  177.9320  146.1040 C   0  0  0  0  0  2  0  0  0  0  0  0
  189.6050  177.0690  145.3560 C   0  0  1  0  0  3  0  0  0  0  0  0
  188.6410  177.5050  140.7490 C   0  0  0  0  0  0  0  0  0  0  0  0
  189.5310  177.0640  139.9730 O   0  0  0  0  0  0  0  0  0  0  0  0
  188.8700  177.5730  142.1620 N   0  0  0  0  0  2  0  0  0  0  0  0
  187.3320  177.9480  140.1830 C   0  0  2  0  0  3  0  0  0  0  0  0
  187.5360  178.6350  138.9120 N   0  0  0  0  0  2  0  0  0  0  0  0
  187.1570  178.0670  137.6570 C   0  0  0  0  0  0  0  0  0  0  0  0
  186.5990  176.9390  137.6050 O   0  0  0  0  0  0  0  0  0  0  0  0
  187.4210  178.8160  136.4030 C   0  0  0  0  0  1  0  0  0  0  0  0
  186.6430  178.8610  141.1520 C   0  0  0  0  0  3  0  0  0  0  0  0
  185.3280  179.1050  141.1260 C   0  0  0  0  0  3  0  0  0  0  0  0
  183.9320  179.5390  139.1520 C   0  0  0  0  0  1  0  0  0  0  0  0
  184.4080  178.4820  140.1250 C   0  0  0  0  0  2  0  0  0  0  0  0
  1  5  1  1  0  0  0
  1 13  1  0  0  0  0
  3  4  1  0  0  0  0
  3  6  1  0  0  0  0
  4  2  1  1  0  0  0
  4  1  1  0  0  0  0
  6  5  1  0  0  0  0
  8  7  1  0  0  0  0
  8 10  1  0  0  0  0
  8  9  1  0  0  0  0
 10  9  1  0  0  0  0
 11  7  1  0  0  0  0
 12  8  1  0  0  0  0
 13 12  1  1  0  0  0
 13 11  1  0  0  0  0
 14 16  1  0  0  0  0
 15 14  2  0  0  0  0
 16  4  1  0  0  0  0
 17 14  1  0  0  0  0
 17 22  1  1  0  0  0
 18 17  1  0  0  0  0
 19 18  1  0  0  0  0
 20 19  2  0  0  0  0
 21 19  1  0  0  0  0
 23 22  2  0  0  0  0
 24 25  1  0  0  0  0
 25 23  1  0  0  0  0
M  END
>  <MODEL>
2

>  <REMARK>
 VINA RESULT:      -7.1      2.196      2.918
  Name = 
  6 active torsions:
  status: ('A' for Active; 'I' for Inactive)
    1  A    between atoms: C_1  and  N_6
    2  A    between atoms: C_1  and  C_7
    3  A    between atoms: C_1  and  C_8
    4  A    between atoms: C_5  and  C_23
    5  A    between atoms: C_17  and  N_20
    6  A    between atoms: C_18  and  C_21
                            x       y       z     vdW  Elec       q    Type
                         _______ _______ _______ _____ _____    ______ ____

>  <TORSDO>
F 6

$$$$
=
 OpenBabel11062418093D

 25 27  0  0  1  0  0  0  0  0999 V2000
  190.0270  177.0590  142.9580 C   0  0  2  0  0  3  0  0  0  0  0  0
  190.9440  179.1580  144.0490 C   0  0  0  0  0  1  0  0  0  0  0  0
  190.8450  176.9370  145.1550 C   0  0  0  0  0  2  0  0  0  0  0  0
  190.1210  177.8820  144.2190 C   0  0  2  0  0  0  0  0  0  0  0  0
  191.2380  176.1640  143.0540 C   0  0  0  0  0  2  0  0  0  0  0  0
  191.5630  175.9780  144.4100 O   0  0  0  0  0  0  0  0  0  0  0  0
  190.6280  177.6460  139.5040 N   0  0  0  0  0  2  0  0  0  0  0  0
  189.1890  177.5910  139.5490 C   0  0  0  0  0  0  0  0  0  0  0  0
  188.5140  176.7340  138.5140 C   0  0  0  0  0  2  0  0  0  0  0  0
  188.4450  178.2640  138.4280 C   0  0  0  0  0  2  0  0  0  0  0  0
  191.0450  177.4390  140.7900 O   0  0  0  0  0  0  0  0  0  0  0  0
  188.6740  177.6320  140.9270 C   0  0  0  0  0  2  0  0  0  0  0  0
  189.9880  177.8480  141.6440 C   0  0  1  0  0  3  0  0  0  0  0  0
  187.6450  177.3200  144.5770 C   0  0  0  0  0  0  0  0  0  0  0  0
  187.7480  176.2070  143.9970 O   0  0  0  0  0  0  0  0  0  0  0  0
  188.7810  178.1840  144.7140 N   0  0  0  0  0  2  0  0  0  0  0  0
  186.3230  177.7330  145.1370 C   0  0  2  0  0  3  0  0  0  0  0  0
  185.4060  178.0880  144.0590 N   0  0  0  0  0  2  0  0  0  0  0  0
  184.1120  178.6430  144.2970 C   0  0  0  0  0  0  0  0  0  0  0  0
  183.7170  178.8730  145.4720 O   0  0  0  0  0  0  0  0  0  0  0  0
  183.2240  178.9550  143.1490 C   0  0  0  0  0  1  0  0  0  0  0  0
  186.5040  178.9010  146.0590 C   0  0  0  0  0  3  0  0  0  0  0  0
  186.9460  178.7840  147.3170 C   0  0  0  0  0  3  0  0  0  0  0  0
  188.7960  177.4410  148.2150 C   0  0  0  0  0  1  0  0  0  0  0  0
  187.3100  177.4690  147.9280 C   0  0  0  0  0  2  0  0  0  0  0  0
  1  5  1  6  0  0  0
  1  4  1  0  0  0  0
  4  2  1  6  0  0  0
  4 16  1  0  0  0  0
  4  3  1  0  0  0  0
  5  6  1  0  0  0  0
  6  3  1  0  0  0  0
  7  8  1  0  0  0  0
  7 11  1  0  0  0  0
  8 12  1  0  0  0  0
  9  8  1  0  0  0  0
 10  9  1  0  0  0  0
 10  8  1  0  0  0  0
 11 13  1  0  0  0  0
 13 12  1  6  0  0  0
 13  1  1  0  0  0  0
 14 16  1  0  0  0  0
 14 17  1  0  0  0  0
 15 14  2  0  0  0  0
 17 22  1  1  0  0  0
 18 19  1  0  0  0  0
 18 17  1  0  0  0  0
 19 20  2  0  0  0  0
 21 19  1  0  0  0  0
 22 23  2  0  0  0  0
 23 25  1  0  0  0  0
 25 24  1  0  0  0  0
M  END
>  <MODEL>
3

>  <REMARK>
 VINA RESULT:      -6.7      2.274      4.887
  Name = 
  6 active torsions:
  status: ('A' for Active; 'I' for Inactive)
    1  A    between atoms: C_1  and  N_6
    2  A    between atoms: C_1  and  C_7
    3  A    between atoms: C_1  and  C_8
    4  A    between atoms: C_5  and  C_23
    5  A    between atoms: C_17  and  N_20
    6  A    between atoms: C_18  and  C_21
                            x       y       z     vdW  Elec       q    Type
                         _______ _______ _______ _____ _____    ______ ____

>  <TORSDO>
F 6

$$$$
=
 OpenBabel11062418093D

 25 27  0  0  1  0  0  0  0  0999 V2000
  189.2940  177.8650  142.4420 C   0  0  2  0  0  3  0  0  0  0  0  0
  190.1070  175.5270  142.9990 C   0  0  0  0  0  1  0  0  0  0  0  0
  191.6010  177.4340  142.4540 C   0  0  0  0  0  2  0  0  0  0  0  0
  190.2810  176.7680  142.1260 C   0  0  2  0  0  0  0  0  0  0  0  0
  190.0030  178.6520  143.5160 C   0  0  0  0  0  2  0  0  0  0  0  0
  191.3930  178.5020  143.3510 O   0  0  0  0  0  0  0  0  0  0  0  0
  186.3930  177.7990  144.4960 N   0  0  0  0  0  2  0  0  0  0  0  0
  185.8670  178.3120  143.2570 C   0  0  0  0  0  0  0  0  0  0  0  0
  184.9860  179.5280  143.3500 C   0  0  0  0  0  2  0  0  0  0  0  0
  184.3900  178.1520  143.0250 C   0  0  0  0  0  2  0  0  0  0  0  0
  187.7290  177.6030  144.2750 O   0  0  0  0  0  0  0  0  0  0  0  0
  186.8240  178.1740  142.1470 C   0  0  0  0  0  2  0  0  0  0  0  0
  187.8990  177.4040  142.8810 C   0  0  1  0  0  3  0  0  0  0  0  0
  189.8200  177.3350  139.6680 C   0  0  0  0  0  0  0  0  0  0  0  0
  189.5140  178.5280  139.9350 O   0  0  0  0  0  0  0  0  0  0  0  0
  190.2060  176.4270  140.7080 N   0  0  0  0  0  2  0  0  0  0  0  0
  189.7920  176.8730  138.2470 C   0  0  2  0  0  3  0  0  0  0  0  0
  191.0680  176.2670  137.8870 N   0  0  0  0  0  2  0  0  0  0  0  0
  191.2070  174.8750  137.5950 C   0  0  0  0  0  0  0  0  0  0  0  0
  190.2060  174.1110  137.6170 O   0  0  0  0  0  0  0  0  0  0  0  0
  192.5450  174.3250  137.2610 C   0  0  0  0  0  1  0  0  0  0  0  0
  189.5030  178.0340  137.3430 C   0  0  0  0  0  3  0  0  0  0  0  0
  188.3030  178.2610  136.7970 C   0  0  0  0  0  3  0  0  0  0  0  0
  186.1920  178.0450  138.0350 C   0  0  0  0  0  1  0  0  0  0  0  0
  187.1210  177.3790  137.0430 C   0  0  0  0  0  2  0  0  0  0  0  0
  1 13  1  0  0  0  0
  1  5  1  1  0  0  0
  3  6  1  0  0  0  0
  4  1  1  0  0  0  0
  4  3  1  0  0  0  0
  4  2  1  1  0  0  0
  6  5  1  0  0  0  0
  8  9  1  0  0  0  0
  8  7  1  0  0  0  0
 10  8  1  0  0  0  0
 10  9  1  0  0  0  0
 11  7  1  0  0  0  0
 12  8  1  0  0  0  0
 13 12  1  6  0  0  0
 13 11  1  0  0  0  0
 14 15  2  0  0  0  0
 14 16  1  0  0  0  0
 16  4  1  0  0  0  0
 17 22  1  6  0  0  0
 17 14  1  0  0  0  0
 18 17  1  0  0  0  0
 19 20  2  0  0  0  0
 19 18  1  0  0  0  0
 21 19  1  0  0  0  0
 23 25  1  0  0  0  0
 23 22  2  0  0  0  0
 25 24  1  0  0  0  0
M  END
>  <MODEL>
4

>  <REMARK>
 VINA RESULT:      -6.5      3.212      5.865
  Name = 
  6 active torsions:
  status: ('A' for Active; 'I' for Inactive)
    1  A    between atoms: C_1  and  N_6
    2  A    between atoms: C_1  and  C_7
    3  A    between atoms: C_1  and  C_8
    4  A    between atoms: C_5  and  C_23
    5  A    between atoms: C_17  and  N_20
    6  A    between atoms: C_18  and  C_21
                            x       y       z     vdW  Elec       q    Type
                         _______ _______ _______ _____ _____    ______ ____

>  <TORSDO>
F 6

$$$$
=
 OpenBabel11062418093D

 25 27  0  0  1  0  0  0  0  0999 V2000
  189.3670  178.0140  143.5410 C   0  0  2  0  0  3  0  0  0  0  0  0
  190.0780  175.6490  142.9550 C   0  0  0  0  0  1  0  0  0  0  0  0
  191.3660  177.6860  142.3540 C   0  0  0  0  0  2  0  0  0  0  0  0
  189.9750  177.1050  142.5010 C   0  0  2  0  0  0  0  0  0  0  0  0
  190.5690  178.4590  144.3380 C   0  0  0  0  0  2  0  0  0  0  0  0
  191.7070  178.4180  143.5100 O   0  0  0  0  0  0  0  0  0  0  0  0
  187.5540  177.4450  146.5450 N   0  0  0  0  0  2  0  0  0  0  0  0
  186.5600  178.0740  145.7140 C   0  0  0  0  0  0  0  0  0  0  0  0
  185.7700  179.1930  146.3370 C   0  0  0  0  0  2  0  0  0  0  0  0
  185.1200  177.8290  146.0700 C   0  0  0  0  0  2  0  0  0  0  0  0
  188.6880  177.3870  145.7830 O   0  0  0  0  0  0  0  0  0  0  0  0
  186.9850  178.1610  144.3080 C   0  0  0  0  0  2  0  0  0  0  0  0
  188.2800  177.3900  144.4240 C   0  0  1  0  0  3  0  0  0  0  0  0
  189.6870  176.7320  139.9810 C   0  0  0  0  0  0  0  0  0  0  0  0
  190.8070  176.1660  139.8730 O   0  0  0  0  0  0  0  0  0  0  0  0
  189.2280  177.2130  141.2510 N   0  0  0  0  0  2  0  0  0  0  0  0
  188.8270  176.8890  138.7690 C   0  0  2  0  0  3  0  0  0  0  0  0
  189.6550  177.0440  137.5780 N   0  0  0  0  0  2  0  0  0  0  0  0
  189.6740  176.0840  136.5210 C   0  0  0  0  0  0  0  0  0  0  0  0
  188.9430  175.0600  136.5700 O   0  0  0  0  0  0  0  0  0  0  0  0
  190.5630  176.2980  135.3510 C   0  0  0  0  0  1  0  0  0  0  0  0
  187.9360  178.0840  138.9310 C   0  0  0  0  0  3  0  0  0  0  0  0
  186.7460  178.2010  138.3310 C   0  0  0  0  0  3  0  0  0  0  0  0
  186.3270  177.5700  135.9940 C   0  0  0  0  0  1  0  0  0  0  0  0
  186.1810  177.1430  137.4390 C   0  0  0  0  0  2  0  0  0  0  0  0
  1  5  1  1  0  0  0
  1 13  1  0  0  0  0
  3  4  1  0  0  0  0
  3  6  1  0  0  0  0
  4  2  1  1  0  0  0
  4  1  1  0  0  0  0
  6  5  1  0  0  0  0
  8 10  1  0  0  0  0
  8  9  1  0  0  0  0
  8  7  1  0  0  0  0
 10  9  1  0  0  0  0
 11  7  1  0  0  0  0
 12  8  1  0  0  0  0
 13 12  1  1  0  0  0
 13 11  1  0  0  0  0
 14 16  1  0  0  0  0
 15 14  2  0  0  0  0
 16  4  1  0  0  0  0
 17 22  1  1  0  0  0
 17 14  1  0  0  0  0
 18 17  1  0  0  0  0
 19 20  2  0  0  0  0
 19 18  1  0  0  0  0
 21 19  1  0  0  0  0
 23 22  2  0  0  0  0
 24 25  1  0  0  0  0
 25 23  1  0  0  0  0
M  END
>  <MODEL>
5

>  <REMARK>
 VINA RESULT:      -6.5      3.202      4.932
  Name = 
  6 active torsions:
  status: ('A' for Active; 'I' for Inactive)
    1  A    between atoms: C_1  and  N_6
    2  A    between atoms: C_1  and  C_7
    3  A    between atoms: C_1  and  C_8
    4  A    between atoms: C_5  and  C_23
    5  A    between atoms: C_17  and  N_20
    6  A    between atoms: C_18  and  C_21
                            x       y       z     vdW  Elec       q    Type
                         _______ _______ _______ _____ _____    ______ ____

>  <TORSDO>
F 6

$$$$
=
 OpenBabel11062418093D

 25 27  0  0  1  0  0  0  0  0999 V2000
  189.3350  177.9270  142.8460 C   0  0  2  0  0  3  0  0  0  0  0  0
  190.0490  175.5090  143.1300 C   0  0  0  0  0  1  0  0  0  0  0  0
  191.6110  177.3830  142.6660 C   0  0  0  0  0  2  0  0  0  0  0  0
  190.2390  176.8180  142.3660 C   0  0  2  0  0  0  0  0  0  0  0  0
  190.1520  178.5720  143.9390 C   0  0  0  0  0  2  0  0  0  0  0  0
  191.5180  178.3700  143.6690 O   0  0  0  0  0  0  0  0  0  0  0  0
  186.4130  178.0700  144.8660 N   0  0  0  0  0  2  0  0  0  0  0  0
  185.8900  178.3970  143.5650 C   0  0  0  0  0  0  0  0  0  0  0  0
  184.9800  179.5930  143.4840 C   0  0  0  0  0  2  0  0  0  0  0  0
  184.4200  178.1720  143.3440 C   0  0  0  0  0  2  0  0  0  0  0  0
  187.7550  177.8780  144.6850 O   0  0  0  0  0  0  0  0  0  0  0  0
  186.8620  178.1340  142.4920 C   0  0  0  0  0  2  0  0  0  0  0  0
  187.9460  177.4970  143.3320 C   0  0  1  0  0  3  0  0  0  0  0  0
  190.9600  177.0860  139.9200 C   0  0  0  0  0  0  0  0  0  0  0  0
  192.0030  177.7220  140.2310 O   0  0  0  0  0  0  0  0  0  0  0  0
  190.0580  176.6180  140.9310 N   0  0  0  0  0  2  0  0  0  0  0  0
  190.6750  176.8100  138.4800 C   0  0  2  0  0  3  0  0  0  0  0  0
  189.2390  176.8560  138.2310 N   0  0  0  0  0  2  0  0  0  0  0  0
  188.5260  178.0790  138.0440 C   0  0  0  0  0  0  0  0  0  0  0  0
  189.1300  179.1840  138.0650 O   0  0  0  0  0  0  0  0  0  0  0  0
  187.0580  178.0470  137.8200 C   0  0  0  0  0  1  0  0  0  0  0  0
  191.2170  175.4630  138.1050 C   0  0  0  0  0  3  0  0  0  0  0  0
  192.4270  175.2810  137.5650 C   0  0  0  0  0  3  0  0  0  0  0  0
  193.9040  176.2830  135.8770 C   0  0  0  0  0  1  0  0  0  0  0  0
  193.3690  176.4090  137.2870 C   0  0  0  0  0  2  0  0  0  0  0  0
  1 13  1  0  0  0  0
  1  5  1  1  0  0  0
  3  6  1  0  0  0  0
  4  3  1  0  0  0  0
  4  1  1  0  0  0  0
  4  2  1  1  0  0  0
  6  5  1  0  0  0  0
  8  7  1  0  0  0  0
  9  8  1  0  0  0  0
 10  9  1  0  0  0  0
 10  8  1  0  0  0  0
 11  7  1  0  0  0  0
 12  8  1  0  0  0  0
 13 12  1  6  0  0  0
 13 11  1  0  0  0  0
 14 15  2  0  0  0  0
 14 16  1  0  0  0  0
 16  4  1  0  0  0  0
 17 22  1  1  0  0  0
 17 14  1  0  0  0  0
 18 17  1  0  0  0  0
 19 20  2  0  0  0  0
 19 18  1  0  0  0  0
 21 19  1  0  0  0  0
 23 22  2  0  0  0  0
 24 25  1  0  0  0  0
 25 23  1  0  0  0  0
M  END
>  <MODEL>
6

>  <REMARK>
 VINA RESULT:      -6.4      3.207      6.200
  Name = 
  6 active torsions:
  status: ('A' for Active; 'I' for Inactive)
    1  A    between atoms: C_1  and  N_6
    2  A    between atoms: C_1  and  C_7
    3  A    between atoms: C_1  and  C_8
    4  A    between atoms: C_5  and  C_23
    5  A    between atoms: C_17  and  N_20
    6  A    between atoms: C_18  and  C_21
                            x       y       z     vdW  Elec       q    Type
                         _______ _______ _______ _____ _____    ______ ____

>  <TORSDO>
F 6

$$$$
=
 OpenBabel11062418093D

 25 27  0  0  1  0  0  0  0  0999 V2000
  189.4890  177.8780  143.6150 C   0  0  2  0  0  3  0  0  0  0  0  0
  190.2160  175.4950  143.1330 C   0  0  0  0  0  1  0  0  0  0  0  0
  191.5160  177.5100  142.4890 C   0  0  0  0  0  2  0  0  0  0  0  0
  190.1230  176.9330  142.6240 C   0  0  2  0  0  0  0  0  0  0  0  0
  190.6710  178.3540  144.4230 C   0  0  0  0  0  2  0  0  0  0  0  0
  191.8280  178.2860  143.6250 O   0  0  0  0  0  0  0  0  0  0  0  0
  187.5950  177.4280  146.5890 N   0  0  0  0  0  2  0  0  0  0  0  0
  186.6200  178.0100  145.7020 C   0  0  0  0  0  0  0  0  0  0  0  0
  185.8030  179.1480  146.2500 C   0  0  0  0  0  2  0  0  0  0  0  0
  185.1720  177.7680  146.0270 C   0  0  0  0  0  2  0  0  0  0  0  0
  188.7510  177.3460  145.8630 O   0  0  0  0  0  0  0  0  0  0  0  0
  187.0850  178.0370  144.3060 C   0  0  0  0  0  2  0  0  0  0  0  0
  188.3820  177.2840  144.4940 C   0  0  1  0  0  3  0  0  0  0  0  0
  188.7790  178.1690  140.8240 C   0  0  0  0  0  0  0  0  0  0  0  0
  188.8160  179.2590  141.4550 O   0  0  0  0  0  0  0  0  0  0  0  0
  189.4060  176.9940  141.3530 N   0  0  0  0  0  2  0  0  0  0  0  0
  188.0830  178.1130  139.5030 C   0  0  2  0  0  3  0  0  0  0  0  0
  186.6500  178.3260  139.6780 N   0  0  0  0  0  2  0  0  0  0  0  0
  185.7850  178.6770  138.5980 C   0  0  0  0  0  0  0  0  0  0  0  0
  186.2340  178.7950  137.4260 O   0  0  0  0  0  0  0  0  0  0  0  0
  184.3400  178.9030  138.8580 C   0  0  0  0  0  1  0  0  0  0  0  0
  188.3280  176.7830  138.8570 C   0  0  0  0  0  3  0  0  0  0  0  0
  188.9640  176.6370  137.6900 C   0  0  0  0  0  3  0  0  0  0  0  0
  189.1900  177.6050  135.4430 C   0  0  0  0  0  1  0  0  0  0  0  0
  189.5040  177.7940  136.9120 C   0  0  0  0  0  2  0  0  0  0  0  0
  1  5  1  1  0  0  0
  1 13  1  0  0  0  0
  3  4  1  0  0  0  0
  3  6  1  0  0  0  0
  4  2  1  1  0  0  0
  4  1  1  0  0  0  0
  6  5  1  0  0  0  0
  8 10  1  0  0  0  0
  8  9  1  0  0  0  0
  8  7  1  0  0  0  0
 10  9  1  0  0  0  0
 11  7  1  0  0  0  0
 12  8  1  0  0  0  0
 13 12  1  1  0  0  0
 13 11  1  0  0  0  0
 14 16  1  0  0  0  0
 14 15  2  0  0  0  0
 16  4  1  0  0  0  0
 17 22  1  1  0  0  0
 17 18  1  0  0  0  0
 17 14  1  0  0  0  0
 19 21  1  0  0  0  0
 19 18  1  0  0  0  0
 20 19  2  0  0  0  0
 23 22  2  0  0  0  0
 24 25  1  0  0  0  0
 25 23  1  0  0  0  0
M  END
>  <MODEL>
7

>  <REMARK>
 VINA RESULT:      -6.3      2.694      4.445
  Name = 
  6 active torsions:
  status: ('A' for Active; 'I' for Inactive)
    1  A    between atoms: C_1  and  N_6
    2  A    between atoms: C_1  and  C_7
    3  A    between atoms: C_1  and  C_8
    4  A    between atoms: C_5  and  C_23
    5  A    between atoms: C_17  and  N_20
    6  A    between atoms: C_18  and  C_21
                            x       y       z     vdW  Elec       q    Type
                         _______ _______ _______ _____ _____    ______ ____

>  <TORSDO>
F 6

$$$$
=
 OpenBabel11062418093D

 25 27  0  0  1  0  0  0  0  0999 V2000
  189.9800  176.7220  142.5730 C   0  0  2  0  0  3  0  0  0  0  0  0
  190.7570  179.0060  143.3610 C   0  0  0  0  0  1  0  0  0  0  0  0
  190.0770  177.1600  144.8770 C   0  0  0  0  0  2  0  0  0  0  0  0
  189.7820  177.8460  143.5600 C   0  0  2  0  0  0  0  0  0  0  0  0
  190.9960  175.8470  143.2660 C   0  0  0  0  0  2  0  0  0  0  0  0
  190.8730  176.0160  144.6570 O   0  0  0  0  0  0  0  0  0  0  0  0
  190.7400  176.2410  139.1340 N   0  0  0  0  0  2  0  0  0  0  0  0
  189.6060  177.1270  139.0650 C   0  0  0  0  0  0  0  0  0  0  0  0
  188.5130  176.7520  138.1020 C   0  0  0  0  0  2  0  0  0  0  0  0
  189.4460  177.9350  137.8070 C   0  0  0  0  0  2  0  0  0  0  0  0
  190.9540  176.0190  140.4660 O   0  0  0  0  0  0  0  0  0  0  0  0
  189.2700  177.7020  140.3780 C   0  0  0  0  0  2  0  0  0  0  0  0
  190.4290  177.1360  141.1670 C   0  0  1  0  0  3  0  0  0  0  0  0
  187.2490  177.4530  143.4780 C   0  0  0  0  0  0  0  0  0  0  0  0
  187.3800  176.2000  143.4920 O   0  0  0  0  0  0  0  0  0  0  0  0
  188.3980  178.3100  143.5110 N   0  0  0  0  0  2  0  0  0  0  0  0
  185.8780  178.0450  143.4410 C   0  0  2  0  0  3  0  0  0  0  0  0
  185.6930  178.8160  142.2160 N   0  0  0  0  0  2  0  0  0  0  0  0
  184.7070  178.4850  141.2370 C   0  0  0  0  0  0  0  0  0  0  0  0
  183.9290  177.5100  141.4130 O   0  0  0  0  0  0  0  0  0  0  0  0
  184.5950  179.3020  140.0030 C   0  0  0  0  0  1  0  0  0  0  0  0
  185.6740  178.9280  144.6360 C   0  0  0  0  0  3  0  0  0  0  0  0
  184.4820  179.1260  145.2090 C   0  0  0  0  0  3  0  0  0  0  0  0
  182.4580  179.4590  143.8560 C   0  0  0  0  0  1  0  0  0  0  0  0
  183.2270  178.4790  144.7150 C   0  0  0  0  0  2  0  0  0  0  0  0
  1  5  1  1  0  0  0
  1  4  1  0  0  0  0
  4  2  1  6  0  0  0
  4  3  1  0  0  0  0
  5  6  1  0  0  0  0
  6  3  1  0  0  0  0
  7 11  1  0  0  0  0
  8  7  1  0  0  0  0
  8 12  1  0  0  0  0
  9  8  1  0  0  0  0
 10  9  1  0  0  0  0
 10  8  1  0  0  0  0
 11 13  1  0  0  0  0
 13 12  1  6  0  0  0
 13  1  1  0  0  0  0
 14 15  2  0  0  0  0
 14 16  1  0  0  0  0
 16  4  1  0  0  0  0
 17 14  1  0  0  0  0
 17 22  1  1  0  0  0
 18 17  1  0  0  0  0
 19 20  2  0  0  0  0
 19 18  1  0  0  0  0
 21 19  1  0  0  0  0
 22 23  2  0  0  0  0
 24 25  1  0  0  0  0
 25 23  1  0  0  0  0
M  END
>  <MODEL>
8

>  <REMARK>
 VINA RESULT:      -6.1      2.041      4.606
  Name = 
  6 active torsions:
  status: ('A' for Active; 'I' for Inactive)
    1  A    between atoms: C_1  and  N_6
    2  A    between atoms: C_1  and  C_7
    3  A    between atoms: C_1  and  C_8
    4  A    between atoms: C_5  and  C_23
    5  A    between atoms: C_17  and  N_20
    6  A    between atoms: C_18  and  C_21
                            x       y       z     vdW  Elec       q    Type
                         _______ _______ _______ _____ _____    ______ ____

>  <TORSDO>
F 6

$$$$
=
 OpenBabel11062418093D

 25 27  0  0  1  0  0  0  0  0999 V2000
  187.6920  176.6900  137.8950 C   0  0  2  0  0  3  0  0  0  0  0  0
  189.3080  178.6470  137.8710 C   0  0  0  0  0  1  0  0  0  0  0  0
  190.0000  176.2610  137.8560 C   0  0  0  0  0  2  0  0  0  0  0  0
  188.9950  177.2510  138.4090 C   0  0  2  0  0  0  0  0  0  0  0  0
  188.1080  175.9910  136.6250 C   0  0  0  0  0  2  0  0  0  0  0  0
  189.4530  175.5920  136.7420 O   0  0  0  0  0  0  0  0  0  0  0  0
  184.3610  177.7690  137.2830 N   0  0  0  0  0  2  0  0  0  0  0  0
  184.6050  178.2980  138.6000 C   0  0  0  0  0  0  0  0  0  0  0  0
  183.5380  178.0590  139.6320 C   0  0  0  0  0  2  0  0  0  0  0  0
  183.7540  179.4570  139.0390 C   0  0  0  0  0  2  0  0  0  0  0  0
  185.5090  177.1160  136.9290 O   0  0  0  0  0  0  0  0  0  0  0  0
  186.0270  178.2230  138.9740 C   0  0  0  0  0  2  0  0  0  0  0  0
  186.5710  177.7090  137.6600 C   0  0  1  0  0  3  0  0  0  0  0  0
  190.1690  177.3750  140.6860 C   0  0  0  0  0  0  0  0  0  0  0  0
  191.3060  177.5180  140.1620 O   0  0  0  0  0  0  0  0  0  0  0  0
  188.9980  177.2390  139.8690 N   0  0  0  0  0  2  0  0  0  0  0  0
  190.0460  177.3590  142.1740 C   0  0  2  0  0  3  0  0  0  0  0  0
  188.7790  177.9550  142.5830 N   0  0  0  0  0  2  0  0  0  0  0  0
  187.7280  177.1990  143.1850 C   0  0  0  0  0  0  0  0  0  0  0  0
  187.8700  175.9670  143.4090 O   0  0  0  0  0  0  0  0  0  0  0  0
  186.4560  177.8720  143.5510 C   0  0  0  0  0  1  0  0  0  0  0  0
  191.1880  178.1150  142.7850 C   0  0  0  0  0  3  0  0  0  0  0  0
  191.7110  177.8180  143.9800 C   0  0  0  0  0  3  0  0  0  0  0  0
  190.3050  177.2410  145.9100 C   0  0  0  0  0  1  0  0  0  0  0  0
  191.2100  176.6930  144.8270 C   0  0  0  0  0  2  0  0  0  0  0  0
  1  5  1  6  0  0  0
  1  4  1  0  0  0  0
  3  4  1  0  0  0  0
  4  2  1  6  0  0  0
  4 16  1  0  0  0  0
  5  6  1  0  0  0  0
  6  3  1  0  0  0  0
  7  8  1  0  0  0  0
  8 12  1  0  0  0  0
  8 10  1  0  0  0  0
  8  9  1  0  0  0  0
 10  9  1  0  0  0  0
 11  7  1  0  0  0  0
 11 13  1  0  0  0  0
 13  1  1  0  0  0  0
 13 12  1  1  0  0  0
 14 17  1  0  0  0  0
 15 14  2  0  0  0  0
 16 14  1  0  0  0  0
 17 18  1  0  0  0  0
 17 22  1  1  0  0  0
 18 19  1  0  0  0  0
 19 20  2  0  0  0  0
 19 21  1  0  0  0  0
 22 23  2  0  0  0  0
 23 25  1  0  0  0  0
 25 24  1  0  0  0  0
M  END
>  <MODEL>
9

>  <REMARK>
 VINA RESULT:      -6.1      2.960      7.142
  Name = 
  6 active torsions:
  status: ('A' for Active; 'I' for Inactive)
    1  A    between atoms: C_1  and  N_6
    2  A    between atoms: C_1  and  C_7
    3  A    between atoms: C_1  and  C_8
    4  A    between atoms: C_5  and  C_23
    5  A    between atoms: C_17  and  N_20
    6  A    between atoms: C_18  and  C_21
                            x       y       z     vdW  Elec       q    Type
                         _______ _______ _______ _____ _____    ______ ____

>  <TORSDO>
F 6

$$$$
