=
 OpenBabel11062414403D

 38 41  0  0  1  0  0  0  0  0999 V2000
  188.0110  178.3270  140.0470 C   0  0  0  0  0  2  0  0  0  0  0  0
  186.6400  178.8500  140.4390 C   0  0  1  0  0  3  0  0  0  0  0  0
  185.6440  178.2650  139.6370 O   0  0  0  0  0  0  0  0  0  0  0  0
  186.3830  178.5610  141.9220 C   0  0  0  0  0  2  0  0  0  0  0  0
  184.4820  179.0360  139.8360 C   0  0  0  0  0  2  0  0  0  0  0  0
  183.9640  178.9340  141.2820 C   0  0  0  0  0  2  0  0  0  0  0  0
  184.9280  178.1410  142.1810 C   0  0  2  0  0  3  0  0  0  0  0  0
  184.5570  178.2700  143.6650 C   0  0  2  0  0  3  0  0  0  0  0  0
  183.5200  179.3620  143.8830 C   0  0  0  0  0  2  0  0  0  0  0  0
  182.3340  178.8100  144.3680 O   0  0  0  0  0  1  0  0  0  0  0  0
  185.7810  178.6120  144.5020 C   0  0  0  0  0  2  0  0  0  0  0  0
  184.8650  178.4890  146.8310 C   0  0  0  0  0  1  0  0  0  0  0  0
  185.7700  177.8270  145.8060 C   0  0  2  0  0  3  0  0  0  0  0  0
  189.4850  177.0400  146.0900 C   0  0  0  0  0  3  0  0  0  0  0  0
  187.4170  178.0660  147.6680 C   0  0  0  0  0  3  0  0  0  0  0  0
  187.1550  177.6700  146.3510 C   0  0  0  0  0  0  0  0  0  0  0  0
  188.1960  177.1580  145.5610 C   0  0  0  0  0  3  0  0  0  0  0  0
  189.7390  177.4340  147.4070 C   0  0  0  0  0  3  0  0  0  0  0  0
  188.7060  177.9470  148.1950 C   0  0  0  0  0  3  0  0  0  0  0  0
  188.8690  179.2500  137.9030 C   0  0  0  0  0  1  0  0  0  0  0  0
  188.0970  178.1060  138.5440 C   0  0  1  0  0  3  0  0  0  0  0  0
  188.6930  176.7290  138.2150 C   0  0  1  0  0  3  0  0  0  0  0  0
  187.8110  175.9340  137.2950 C   0  0  0  0  0  0  0  0  0  0  0  0
  185.8960  174.1370  136.1390 C   0  0  1  0  0  3  0  0  0  0  0  0
  188.1370  174.5230  136.9090 C   0  0  0  0  0  2  0  0  0  0  0  0
  186.6340  176.4340  136.9110 C   0  0  0  0  0  3  0  0  0  0  0  0
  185.6880  175.6270  136.0540 C   0  0  2  0  0  3  0  0  0  0  0  0
  186.9390  173.7050  137.0810 N   0  0  0  0  0  2  0  0  0  0  0  0
  184.8840  174.8000  136.8620 O   0  0  0  0  0  0  0  0  0  0  0  0
  190.1330  176.7950  137.7090 C   0  0  0  0  0  2  0  0  0  0  0  0
  191.0720  176.1310  138.7040 C   0  0  0  0  0  2  0  0  0  0  0  0
  190.5890  176.3120  140.0470 N   0  0  0  0  0  0  0  0  0  0  0  0
  191.1300  177.1820  140.8230 C   0  0  0  0  0  3  0  0  0  0  0  0
  190.6430  177.3620  142.2290 C   0  0  1  0  0  3  0  0  0  0  0  0
  189.6430  176.4470  142.5000 F   0  0  0  0  0  0  0  0  0  0  0  0
  191.7780  177.1920  143.2320 C   0  0  0  0  0  2  0  0  0  0  0  0
  190.8120  179.4060  143.8610 C   0  0  0  0  0  1  0  0  0  0  0  0
  191.9650  178.4430  144.0770 C   0  0  0  0  0  2  0  0  0  0  0  0
  2  1  1  6  0  0  0
  2  4  1  0  0  0  0
  3  5  1  0  0  0  0
  3  2  1  0  0  0  0
  4  7  1  0  0  0  0
  5  6  1  0  0  0  0
  6  7  1  0  0  0  0
  7  8  1  1  0  0  0
  8  9  1  6  0  0  0
  8 11  1  0  0  0  0
  9 10  1  0  0  0  0
 11 13  1  0  0  0  0
 13 16  1  0  0  0  0
 13 12  1  1  0  0  0
 14 18  1  0  0  0  0
 15 19  1  0  0  0  0
 16 15  2  0  0  0  0
 17 14  2  0  0  0  0
 17 16  1  0  0  0  0
 18 19  2  0  0  0  0
 21 20  1  6  0  0  0
 21  1  1  0  0  0  0
 22 30  1  6  0  0  0
 22 21  1  0  0  0  0
 23 22  1  0  0  0  0
 24 29  1  1  0  0  0
 24 28  1  0  0  0  0
 25 28  1  0  0  0  0
 25 23  1  0  0  0  0
 26 23  2  0  0  0  0
 27 24  1  0  0  0  0
 27 29  1  0  0  0  0
 27 26  1  1  0  0  0
 30 31  1  0  0  0  0
 31 32  1  0  0  0  0
 32 33  2  0  0  0  0
 33 34  1  0  0  0  0
 34 35  1  1  0  0  0
 34 36  1  0  0  0  0
 36 38  1  0  0  0  0
 37 38  1  0  0  0  0
M  END
>  <MODEL>
1

>  <REMARK>
 VINA RESULT:      -7.9      0.000      0.000
  Name = 
  15 active torsions:
  status: ('A' for Active; 'I' for Inactive)
    1  A    between atoms: N_2  and  C_14
    2  A    between atoms: C_3  and  C_4
    3  A    between atoms: C_3  and  C_25
    4  A    between atoms: C_3  and  C_36
    5  A    between atoms: C_6  and  C_18
    6  A    between atoms: C_8  and  C_9
    7  A    between atoms: C_8  and  C_26
    8  A    between atoms: C_13  and  C_37
    9  A    between atoms: C_13  and  C_38
   10  A    between atoms: C_14  and  C_25
   11  A    between atoms: C_17  and  C_38
   12  A    between atoms: C_18  and  C_36
   13  A    between atoms: C_19  and  C_37
   14  A    between atoms: C_26  and  C_30
   15  A    between atoms: C_34  and  C_37
                            x       y       z     vdW  Elec       q    Type
                         _______ _______ _______ _____ _____    ______ ____

>  <TORSDO>
F 15

$$$$
=
 OpenBabel11062414403D

 38 41  0  0  1  0  0  0  0  0999 V2000
  190.5270  177.7910  141.9780 C   0  0  0  0  0  2  0  0  0  0  0  0
  190.4850  177.1450  143.3520 C   0  0  1  0  0  3  0  0  0  0  0  0
  191.6670  177.4220  144.0610 O   0  0  0  0  0  0  0  0  0  0  0  0
  189.2590  177.6510  144.1210 C   0  0  0  0  0  2  0  0  0  0  0  0
  191.6830  176.5320  145.1530 C   0  0  0  0  0  2  0  0  0  0  0  0
  190.5340  176.8100  146.1390 C   0  0  0  0  0  2  0  0  0  0  0  0
  189.5720  177.8850  145.6070 C   0  0  2  0  0  3  0  0  0  0  0  0
  188.2900  177.9670  146.4490 C   0  0  2  0  0  3  0  0  0  0  0  0
  188.3650  177.0500  147.6620 C   0  0  0  0  0  2  0  0  0  0  0  0
  188.3760  177.8040  148.8350 O   0  0  0  0  0  1  0  0  0  0  0  0
  187.0750  177.5590  145.6280 C   0  0  0  0  0  2  0  0  0  0  0  0
  185.1580  178.4080  146.9990 C   0  0  0  0  0  1  0  0  0  0  0  0
  185.9810  178.6120  145.7390 C   0  0  2  0  0  3  0  0  0  0  0  0
  182.9380  178.9130  143.4690 C   0  0  0  0  0  3  0  0  0  0  0  0
  185.6610  178.3040  143.2810 C   0  0  0  0  0  3  0  0  0  0  0  0
  185.1000  178.6020  144.5290 C   0  0  0  0  0  0  0  0  0  0  0  0
  183.7330  178.9100  144.6190 C   0  0  0  0  0  3  0  0  0  0  0  0
  183.5030  178.6100  142.2280 C   0  0  0  0  0  3  0  0  0  0  0  0
  184.8640  178.3060  142.1330 C   0  0  0  0  0  3  0  0  0  0  0  0
  188.3620  177.9770  140.7710 C   0  0  0  0  0  1  0  0  0  0  0  0
  189.5740  177.0910  141.0210 C   0  0  1  0  0  3  0  0  0  0  0  0
  190.2860  176.6780  139.7250 C   0  0  1  0  0  3  0  0  0  0  0  0
  189.5270  177.1020  138.5000 C   0  0  0  0  0  0  0  0  0  0  0  0
  187.5350  177.9300  136.6080 C   0  0  1  0  0  3  0  0  0  0  0  0
  188.6910  176.1390  137.7140 C   0  0  0  0  0  2  0  0  0  0  0  0
  189.4750  178.3950  138.1690 C   0  0  0  0  0  3  0  0  0  0  0  0
  188.6530  178.8640  136.9920 C   0  0  2  0  0  3  0  0  0  0  0  0
  187.3860  176.7480  137.4700 N   0  0  0  0  0  2  0  0  0  0  0  0
  187.3190  179.0840  137.3870 O   0  0  0  0  0  0  0  0  0  0  0  0
  191.7490  177.1170  139.6690 C   0  0  0  0  0  2  0  0  0  0  0  0
  192.3700  176.7080  138.3430 C   0  0  0  0  0  2  0  0  0  0  0  0
  193.5810  175.9630  138.5640 N   0  0  0  0  0  0  0  0  0  0  0  0
  193.9570  175.0660  137.7240 C   0  0  0  0  0  3  0  0  0  0  0  0
  195.2080  174.2740  137.9590 C   0  0  1  0  0  3  0  0  0  0  0  0
  195.3300  173.9770  139.3030 F   0  0  0  0  0  0  0  0  0  0  0  0
  195.2030  172.9840  137.1470 C   0  0  0  0  0  2  0  0  0  0  0  0
  195.4640  170.6350  137.9540 C   0  0  0  0  0  1  0  0  0  0  0  0
  196.1690  171.9600  137.7270 C   0  0  0  0  0  2  0  0  0  0  0  0
  2  1  1  6  0  0  0
  2  3  1  0  0  0  0
  2  4  1  0  0  0  0
  3  5  1  0  0  0  0
  4  7  1  0  0  0  0
  5  6  1  0  0  0  0
  7  6  1  0  0  0  0
  7  8  1  1  0  0  0
  8 11  1  6  0  0  0
  8  9  1  0  0  0  0
  9 10  1  0  0  0  0
 11 13  1  0  0  0  0
 13 12  1  1  0  0  0
 14 17  1  0  0  0  0
 15 16  1  0  0  0  0
 16 17  2  0  0  0  0
 16 13  1  0  0  0  0
 18 14  2  0  0  0  0
 19 18  1  0  0  0  0
 19 15  2  0  0  0  0
 21 20  1  6  0  0  0
 21  1  1  0  0  0  0
 22 30  1  6  0  0  0
 22 21  1  0  0  0  0
 23 22  1  0  0  0  0
 24 27  1  0  0  0  0
 24 29  1  1  0  0  0
 24 28  1  0  0  0  0
 25 23  1  0  0  0  0
 26 23  2  0  0  0  0
 27 29  1  0  0  0  0
 27 26  1  1  0  0  0
 28 25  1  0  0  0  0
 31 32  1  0  0  0  0
 31 30  1  0  0  0  0
 33 34  1  0  0  0  0
 33 32  2  0  0  0  0
 34 35  1  1  0  0  0
 36 38  1  0  0  0  0
 36 34  1  0  0  0  0
 38 37  1  0  0  0  0
M  END
>  <MODEL>
2

>  <REMARK>
 VINA RESULT:      -7.8      3.175      5.643
  Name = 
  15 active torsions:
  status: ('A' for Active; 'I' for Inactive)
    1  A    between atoms: N_2  and  C_14
    2  A    between atoms: C_3  and  C_4
    3  A    between atoms: C_3  and  C_25
    4  A    between atoms: C_3  and  C_36
    5  A    between atoms: C_6  and  C_18
    6  A    between atoms: C_8  and  C_9
    7  A    between atoms: C_8  and  C_26
    8  A    between atoms: C_13  and  C_37
    9  A    between atoms: C_13  and  C_38
   10  A    between atoms: C_14  and  C_25
   11  A    between atoms: C_17  and  C_38
   12  A    between atoms: C_18  and  C_36
   13  A    between atoms: C_19  and  C_37
   14  A    between atoms: C_26  and  C_30
   15  A    between atoms: C_34  and  C_37
                            x       y       z     vdW  Elec       q    Type
                         _______ _______ _______ _____ _____    ______ ____

>  <TORSDO>
F 15

$$$$
=
 OpenBabel11062414403D

 38 41  0  0  1  0  0  0  0  0999 V2000
  184.6980  178.6190  140.7630 C   0  0  0  0  0  2  0  0  0  0  0  0
  184.3530  179.0360  142.1820 C   0  0  1  0  0  3  0  0  0  0  0  0
  183.0440  178.6380  142.5060 O   0  0  0  0  0  0  0  0  0  0  0  0
  185.3640  178.4250  143.1580 C   0  0  0  0  0  2  0  0  0  0  0  0
  182.7030  179.3410  143.6790 C   0  0  0  0  0  2  0  0  0  0  0  0
  183.5730  178.9190  144.8760 C   0  0  0  0  0  2  0  0  0  0  0  0
  184.6930  177.9520  144.4570 C   0  0  2  0  0  3  0  0  0  0  0  0
  185.7170  177.7470  145.5820 C   0  0  2  0  0  3  0  0  0  0  0  0
  185.2730  178.4330  146.8670 C   0  0  0  0  0  2  0  0  0  0  0  0
  185.8770  179.6860  146.9760 O   0  0  0  0  0  1  0  0  0  0  0  0
  187.0720  178.3180  145.1920 C   0  0  0  0  0  2  0  0  0  0  0  0
  188.7380  177.7040  146.9590 C   0  0  0  0  0  1  0  0  0  0  0  0
  188.1870  177.3590  145.5860 C   0  0  2  0  0  3  0  0  0  0  0  0
  191.2310  178.3750  143.5350 C   0  0  0  0  0  3  0  0  0  0  0  0
  189.3970  176.2690  143.6930 C   0  0  0  0  0  3  0  0  0  0  0  0
  189.2820  177.3570  144.5650 C   0  0  0  0  0  0  0  0  0  0  0  0
  190.2060  178.4120  144.4860 C   0  0  0  0  0  3  0  0  0  0  0  0
  191.3380  177.2880  142.6640 C   0  0  0  0  0  3  0  0  0  0  0  0
  190.4230  176.2350  142.7430 C   0  0  0  0  0  3  0  0  0  0  0  0
  183.4380  179.9320  139.0690 C   0  0  0  0  0  1  0  0  0  0  0  0
  183.4610  178.6420  139.8760 C   0  0  1  0  0  3  0  0  0  0  0  0
  183.3830  177.3870  138.9940 C   0  0  1  0  0  3  0  0  0  0  0  0
  182.0100  176.7770  138.9960 C   0  0  0  0  0  0  0  0  0  0  0  0
  179.7410  175.0320  139.1870 C   0  0  1  0  0  3  0  0  0  0  0  0
  181.5070  175.9560  137.8480 C   0  0  0  0  0  2  0  0  0  0  0  0
  181.2590  176.8430  140.0980 C   0  0  0  0  0  3  0  0  0  0  0  0
  179.9090  176.1700  140.1610 C   0  0  2  0  0  3  0  0  0  0  0  0
  180.9280  174.7230  138.3770 N   0  0  0  0  0  2  0  0  0  0  0  0
  180.0550  174.8220  140.5450 O   0  0  0  0  0  0  0  0  0  0  0  0
  183.9060  177.6080  137.5750 C   0  0  0  0  0  2  0  0  0  0  0  0
  185.1570  176.7750  137.3400 C   0  0  0  0  0  2  0  0  0  0  0  0
  186.3020  177.6280  137.1610 N   0  0  0  0  0  0  0  0  0  0  0  0
  187.4310  177.3240  137.6920 C   0  0  0  0  0  3  0  0  0  0  0  0
  188.6220  178.2180  137.5240 C   0  0  1  0  0  3  0  0  0  0  0  0
  188.2580  179.3610  136.8360 F   0  0  0  0  0  0  0  0  0  0  0  0
  189.2190  178.6010  138.8730 C   0  0  0  0  0  2  0  0  0  0  0  0
  188.2600  178.6930  141.1770 C   0  0  0  0  0  1  0  0  0  0  0  0
  188.6010  177.7920  140.0030 C   0  0  0  0  0  2  0  0  0  0  0  0
  2  1  1  6  0  0  0
  2  3  1  0  0  0  0
  2  4  1  0  0  0  0
  3  5  1  0  0  0  0
  4  7  1  0  0  0  0
  5  6  1  0  0  0  0
  7  6  1  0  0  0  0
  7  8  1  1  0  0  0
  8 11  1  6  0  0  0
  8  9  1  0  0  0  0
  9 10  1  0  0  0  0
 11 13  1  0  0  0  0
 13 12  1  1  0  0  0
 14 17  1  0  0  0  0
 15 16  1  0  0  0  0
 16 13  1  0  0  0  0
 17 16  2  0  0  0  0
 18 19  1  0  0  0  0
 18 14  2  0  0  0  0
 19 15  2  0  0  0  0
 21 20  1  6  0  0  0
 21  1  1  0  0  0  0
 22 30  1  6  0  0  0
 22 23  1  0  0  0  0
 22 21  1  0  0  0  0
 23 26  2  0  0  0  0
 24 28  1  6  0  0  0
 24 27  1  0  0  0  0
 24 29  1  0  0  0  0
 25 28  1  0  0  0  0
 25 23  1  0  0  0  0
 27 26  1  6  0  0  0
 27 29  1  0  0  0  0
 31 30  1  0  0  0  0
 32 31  1  0  0  0  0
 32 33  2  0  0  0  0
 34 35  1  1  0  0  0
 34 33  1  0  0  0  0
 34 36  1  0  0  0  0
 36 38  1  0  0  0  0
 38 37  1  0  0  0  0
M  END
>  <MODEL>
3

>  <REMARK>
 VINA RESULT:      -7.8      2.861      4.855
  Name = 
  15 active torsions:
  status: ('A' for Active; 'I' for Inactive)
    1  A    between atoms: N_2  and  C_14
    2  A    between atoms: C_3  and  C_4
    3  A    between atoms: C_3  and  C_25
    4  A    between atoms: C_3  and  C_36
    5  A    between atoms: C_6  and  C_18
    6  A    between atoms: C_8  and  C_9
    7  A    between atoms: C_8  and  C_26
    8  A    between atoms: C_13  and  C_37
    9  A    between atoms: C_13  and  C_38
   10  A    between atoms: C_14  and  C_25
   11  A    between atoms: C_17  and  C_38
   12  A    between atoms: C_18  and  C_36
   13  A    between atoms: C_19  and  C_37
   14  A    between atoms: C_26  and  C_30
   15  A    between atoms: C_34  and  C_37
                            x       y       z     vdW  Elec       q    Type
                         _______ _______ _______ _____ _____    ______ ____

>  <TORSDO>
F 15

$$$$
=
 OpenBabel11062414403D

 38 41  0  0  1  0  0  0  0  0999 V2000
  189.4010  176.6330  141.1650 C   0  0  0  0  0  2  0  0  0  0  0  0
  190.0680  176.8440  142.5130 C   0  0  1  0  0  3  0  0  0  0  0  0
  190.8920  177.9830  142.4790 O   0  0  0  0  0  0  0  0  0  0  0  0
  188.9960  176.9820  143.6010 C   0  0  0  0  0  2  0  0  0  0  0  0
  191.7040  177.9090  143.6290 C   0  0  0  0  0  2  0  0  0  0  0  0
  190.8800  178.0310  144.9230 C   0  0  0  0  0  2  0  0  0  0  0  0
  189.3690  178.0490  144.6410 C   0  0  2  0  0  3  0  0  0  0  0  0
  188.5480  177.8960  145.9290 C   0  0  2  0  0  3  0  0  0  0  0  0
  189.1720  176.8680  146.8640 C   0  0  0  0  0  2  0  0  0  0  0  0
  188.4160  176.7580  148.0300 O   0  0  0  0  0  1  0  0  0  0  0  0
  187.1290  177.4440  145.6170 C   0  0  0  0  0  2  0  0  0  0  0  0
  185.4610  178.5070  147.1550 C   0  0  0  0  0  1  0  0  0  0  0  0
  186.1510  178.5950  145.8040 C   0  0  2  0  0  3  0  0  0  0  0  0
  184.5230  178.3140  142.3720 C   0  0  0  0  0  3  0  0  0  0  0  0
  183.8200  178.9790  144.9960 C   0  0  0  0  0  3  0  0  0  0  0  0
  185.1420  178.6290  144.6990 C   0  0  0  0  0  0  0  0  0  0  0  0
  185.4910  178.2930  143.3820 C   0  0  0  0  0  3  0  0  0  0  0  0
  183.2060  178.6690  142.6750 C   0  0  0  0  0  3  0  0  0  0  0  0
  182.8540  179.0010  143.9860 C   0  0  0  0  0  3  0  0  0  0  0  0
  191.1560  176.7820  139.4100 C   0  0  0  0  0  1  0  0  0  0  0  0
  190.0260  177.5280  140.1050 C   0  0  1  0  0  3  0  0  0  0  0  0
  188.9690  178.0530  139.1230 C   0  0  1  0  0  3  0  0  0  0  0  0
  189.0320  177.3560  137.7940 C   0  0  0  0  0  0  0  0  0  0  0  0
  188.4660  176.1730  135.2420 C   0  0  1  0  0  3  0  0  0  0  0  0
  188.6020  175.9300  137.6280 C   0  0  0  0  0  2  0  0  0  0  0  0
  189.3470  178.0490  136.6980 C   0  0  0  0  0  3  0  0  0  0  0  0
  189.3390  177.3970  135.3360 C   0  0  2  0  0  3  0  0  0  0  0  0
  187.7200  175.8430  136.4660 N   0  0  0  0  0  2  0  0  0  0  0  0
  188.0430  177.4360  134.7840 O   0  0  0  0  0  0  0  0  0  0  0  0
  187.5530  178.0570  139.6990 C   0  0  0  0  0  2  0  0  0  0  0  0
  186.5410  178.3620  138.6050 C   0  0  0  0  0  2  0  0  0  0  0  0
  185.3720  178.9860  139.1640 N   0  0  0  0  0  0  0  0  0  0  0  0
  184.2490  178.9400  138.5420 C   0  0  0  0  0  3  0  0  0  0  0  0
  183.0310  179.6040  139.1110 C   0  0  1  0  0  3  0  0  0  0  0  0
  182.9820  180.9240  138.7010 F   0  0  0  0  0  0  0  0  0  0  0  0
  181.7580  178.8860  138.6770 C   0  0  0  0  0  2  0  0  0  0  0  0
  179.8260  179.3470  140.1910 C   0  0  0  0  0  1  0  0  0  0  0  0
  180.9630  178.3910  139.8770 C   0  0  0  0  0  2  0  0  0  0  0  0
  2  1  1  6  0  0  0
  2  4  1  0  0  0  0
  3  2  1  0  0  0  0
  3  5  1  0  0  0  0
  4  7  1  0  0  0  0
  5  6  1  0  0  0  0
  7  6  1  0  0  0  0
  7  8  1  1  0  0  0
  8 11  1  6  0  0  0
  8  9  1  0  0  0  0
  9 10  1  0  0  0  0
 11 13  1  0  0  0  0
 13 12  1  1  0  0  0
 14 18  2  0  0  0  0
 14 17  1  0  0  0  0
 16 15  1  0  0  0  0
 16 13  1  0  0  0  0
 17 16  2  0  0  0  0
 18 19  1  0  0  0  0
 19 15  2  0  0  0  0
 21 20  1  6  0  0  0
 21  1  1  0  0  0  0
 22 30  1  1  0  0  0
 22 21  1  0  0  0  0
 23 22  1  0  0  0  0
 24 29  1  6  0  0  0
 24 27  1  0  0  0  0
 24 28  1  0  0  0  0
 25 23  1  0  0  0  0
 26 23  2  0  0  0  0
 27 26  1  1  0  0  0
 28 25  1  0  0  0  0
 29 27  1  0  0  0  0
 31 32  1  0  0  0  0
 31 30  1  0  0  0  0
 33 34  1  0  0  0  0
 33 32  2  0  0  0  0
 34 35  1  6  0  0  0
 36 34  1  0  0  0  0
 36 38  1  0  0  0  0
 38 37  1  0  0  0  0
M  END
>  <MODEL>
4

>  <REMARK>
 VINA RESULT:      -7.6      2.900      5.919
  Name = 
  15 active torsions:
  status: ('A' for Active; 'I' for Inactive)
    1  A    between atoms: N_2  and  C_14
    2  A    between atoms: C_3  and  C_4
    3  A    between atoms: C_3  and  C_25
    4  A    between atoms: C_3  and  C_36
    5  A    between atoms: C_6  and  C_18
    6  A    between atoms: C_8  and  C_9
    7  A    between atoms: C_8  and  C_26
    8  A    between atoms: C_13  and  C_37
    9  A    between atoms: C_13  and  C_38
   10  A    between atoms: C_14  and  C_25
   11  A    between atoms: C_17  and  C_38
   12  A    between atoms: C_18  and  C_36
   13  A    between atoms: C_19  and  C_37
   14  A    between atoms: C_26  and  C_30
   15  A    between atoms: C_34  and  C_37
                            x       y       z     vdW  Elec       q    Type
                         _______ _______ _______ _____ _____    ______ ____

>  <TORSDO>
F 15

$$$$
=
 OpenBabel11062414403D

 38 41  0  0  1  0  0  0  0  0999 V2000
  184.9650  177.8010  142.8810 C   0  0  0  0  0  2  0  0  0  0  0  0
  185.2890  178.3750  144.2490 C   0  0  1  0  0  3  0  0  0  0  0  0
  184.2340  178.1320  145.1460 O   0  0  0  0  0  0  0  0  0  0  0  0
  186.5950  177.7620  144.7670 C   0  0  0  0  0  2  0  0  0  0  0  0
  184.4690  178.9670  146.2570 C   0  0  0  0  0  2  0  0  0  0  0  0
  185.7520  178.5750  147.0100 C   0  0  0  0  0  2  0  0  0  0  0  0
  186.5330  177.4730  146.2750 C   0  0  2  0  0  3  0  0  0  0  0  0
  187.9340  177.2750  146.8720 C   0  0  2  0  0  3  0  0  0  0  0  0
  188.0450  177.9170  148.2480 C   0  0  0  0  0  2  0  0  0  0  0  0
  189.3120  178.4760  148.4170 O   0  0  0  0  0  1  0  0  0  0  0  0
  188.9970  177.8990  145.9780 C   0  0  0  0  0  2  0  0  0  0  0  0
  191.2740  176.8780  146.2010 C   0  0  0  0  0  1  0  0  0  0  0  0
  189.9490  176.8300  145.4590 C   0  0  2  0  0  3  0  0  0  0  0  0
  189.3660  176.8470  141.6960 C   0  0  0  0  0  3  0  0  0  0  0  0
  191.4070  177.4200  143.5200 C   0  0  0  0  0  3  0  0  0  0  0  0
  190.1650  176.9710  143.9850 C   0  0  0  0  0  0  0  0  0  0  0  0
  189.1420  176.6880  143.0670 C   0  0  0  0  0  3  0  0  0  0  0  0
  190.6090  177.2910  141.2380 C   0  0  0  0  0  3  0  0  0  0  0  0
  191.6290  177.5780  142.1490 C   0  0  0  0  0  3  0  0  0  0  0  0
  186.2660  179.3140  141.3970 C   0  0  0  0  0  1  0  0  0  0  0  0
  184.8680  178.9060  141.8390 C   0  0  1  0  0  3  0  0  0  0  0  0
  183.9710  178.4880  140.6640 C   0  0  1  0  0  3  0  0  0  0  0  0
  182.5140  178.7010  140.9590 C   0  0  0  0  0  0  0  0  0  0  0  0
  179.7340  178.4110  141.6090 C   0  0  1  0  0  3  0  0  0  0  0  0
  181.4530  178.4440  139.9320 C   0  0  0  0  0  2  0  0  0  0  0  0
  182.1260  178.9950  142.2020 C   0  0  0  0  0  3  0  0  0  0  0  0
  180.6630  179.1340  142.5490 C   0  0  2  0  0  3  0  0  0  0  0  0
  180.3970  177.6420  140.5450 N   0  0  0  0  0  2  0  0  0  0  0  0
  180.1130  177.8740  142.8550 O   0  0  0  0  0  0  0  0  0  0  0  0
  184.3820  179.1170  139.3330 C   0  0  0  0  0  2  0  0  0  0  0  0
  185.0910  178.0910  138.4630 C   0  0  0  0  0  2  0  0  0  0  0  0
  186.3390  178.6190  137.9800 N   0  0  0  0  0  0  0  0  0  0  0  0
  187.4220  177.9370  138.0930 C   0  0  0  0  0  3  0  0  0  0  0  0
  188.7290  178.4900  137.6090 C   0  0  1  0  0  3  0  0  0  0  0  0
  189.4040  179.0850  138.6580 F   0  0  0  0  0  0  0  0  0  0  0  0
  189.5960  177.3970  136.9960 C   0  0  0  0  0  2  0  0  0  0  0  0
  190.9900  175.6060  138.0380 C   0  0  0  0  0  1  0  0  0  0  0  0
  189.5800  176.1330  137.8440 C   0  0  0  0  0  2  0  0  0  0  0  0
  2  1  1  6  0  0  0
  2  4  1  0  0  0  0
  2  3  1  0  0  0  0
  3  5  1  0  0  0  0
  4  7  1  0  0  0  0
  5  6  1  0  0  0  0
  7  8  1  1  0  0  0
  7  6  1  0  0  0  0
  8 11  1  6  0  0  0
  8  9  1  0  0  0  0
  9 10  1  0  0  0  0
 13 11  1  0  0  0  0
 13 12  1  1  0  0  0
 14 17  1  0  0  0  0
 15 16  1  0  0  0  0
 16 13  1  0  0  0  0
 17 16  2  0  0  0  0
 18 14  2  0  0  0  0
 18 19  1  0  0  0  0
 19 15  2  0  0  0  0
 21 20  1  6  0  0  0
 21  1  1  0  0  0  0
 22 30  1  6  0  0  0
 22 23  1  0  0  0  0
 22 21  1  0  0  0  0
 23 26  2  0  0  0  0
 24 28  1  6  0  0  0
 24 27  1  0  0  0  0
 24 29  1  0  0  0  0
 25 28  1  0  0  0  0
 25 23  1  0  0  0  0
 27 26  1  6  0  0  0
 27 29  1  0  0  0  0
 31 30  1  0  0  0  0
 32 33  2  0  0  0  0
 32 31  1  0  0  0  0
 34 33  1  0  0  0  0
 34 35  1  1  0  0  0
 36 34  1  0  0  0  0
 36 38  1  0  0  0  0
 38 37  1  0  0  0  0
M  END
>  <MODEL>
5

>  <REMARK>
 VINA RESULT:      -7.6      2.662      6.085
  Name = 
  15 active torsions:
  status: ('A' for Active; 'I' for Inactive)
    1  A    between atoms: N_2  and  C_14
    2  A    between atoms: C_3  and  C_4
    3  A    between atoms: C_3  and  C_25
    4  A    between atoms: C_3  and  C_36
    5  A    between atoms: C_6  and  C_18
    6  A    between atoms: C_8  and  C_9
    7  A    between atoms: C_8  and  C_26
    8  A    between atoms: C_13  and  C_37
    9  A    between atoms: C_13  and  C_38
   10  A    between atoms: C_14  and  C_25
   11  A    between atoms: C_17  and  C_38
   12  A    between atoms: C_18  and  C_36
   13  A    between atoms: C_19  and  C_37
   14  A    between atoms: C_26  and  C_30
   15  A    between atoms: C_34  and  C_37
                            x       y       z     vdW  Elec       q    Type
                         _______ _______ _______ _____ _____    ______ ____

>  <TORSDO>
F 15

$$$$
=
 OpenBabel11062414403D

 38 41  0  0  1  0  0  0  0  0999 V2000
  190.4580  177.6450  141.8810 C   0  0  0  0  0  2  0  0  0  0  0  0
  190.4330  177.0230  143.2660 C   0  0  1  0  0  3  0  0  0  0  0  0
  191.6260  177.3060  143.9530 O   0  0  0  0  0  0  0  0  0  0  0  0
  189.2200  177.5490  144.0440 C   0  0  0  0  0  2  0  0  0  0  0  0
  191.6540  176.4350  145.0600 C   0  0  0  0  0  2  0  0  0  0  0  0
  190.5200  176.7360  146.0570 C   0  0  0  0  0  2  0  0  0  0  0  0
  189.5560  177.8070  145.5210 C   0  0  2  0  0  3  0  0  0  0  0  0
  188.2870  177.9110  146.3800 C   0  0  2  0  0  3  0  0  0  0  0  0
  188.3490  176.9670  147.5730 C   0  0  0  0  0  2  0  0  0  0  0  0
  188.2570  177.6910  148.7620 O   0  0  0  0  0  1  0  0  0  0  0  0
  187.0520  177.5550  145.5660 C   0  0  0  0  0  2  0  0  0  0  0  0
  185.2330  178.4650  147.0290 C   0  0  0  0  0  1  0  0  0  0  0  0
  185.9860  178.6310  145.7200 C   0  0  2  0  0  3  0  0  0  0  0  0
  182.8320  178.9890  143.6160 C   0  0  0  0  0  3  0  0  0  0  0  0
  185.5110  178.2540  143.2980 C   0  0  0  0  0  3  0  0  0  0  0  0
  185.0370  178.6190  144.5630 C   0  0  0  0  0  0  0  0  0  0  0  0
  183.6920  178.9910  144.7190 C   0  0  0  0  0  3  0  0  0  0  0  0
  183.3100  178.6190  142.3570 C   0  0  0  0  0  3  0  0  0  0  0  0
  184.6490  178.2520  142.1970 C   0  0  0  0  0  3  0  0  0  0  0  0
  188.1920  178.1500  140.9900 C   0  0  0  0  0  1  0  0  0  0  0  0
  189.3110  177.1190  141.0300 C   0  0  1  0  0  3  0  0  0  0  0  0
  189.7950  176.7130  139.6300 C   0  0  1  0  0  3  0  0  0  0  0  0
  188.9400  177.2990  138.5420 C   0  0  0  0  0  0  0  0  0  0  0  0
  187.8270  178.1870  136.0520 C   0  0  1  0  0  3  0  0  0  0  0  0
  189.2260  178.6450  137.9490 C   0  0  0  0  0  2  0  0  0  0  0  0
  187.9800  176.5580  137.9840 C   0  0  0  0  0  3  0  0  0  0  0  0
  187.1580  177.0870  136.8340 C   0  0  2  0  0  3  0  0  0  0  0  0
  189.1870  178.5280  136.4930 N   0  0  0  0  0  2  0  0  0  0  0  0
  187.8180  176.8480  135.6130 O   0  0  0  0  0  0  0  0  0  0  0  0
  191.2800  176.9870  139.3970 C   0  0  0  0  0  2  0  0  0  0  0  0
  191.7400  176.3300  138.1050 C   0  0  0  0  0  2  0  0  0  0  0  0
  191.0730  175.0680  137.9180 N   0  0  0  0  0  0  0  0  0  0  0  0
  190.7990  174.6440  136.7370 C   0  0  0  0  0  3  0  0  0  0  0  0
  190.0880  173.3400  136.5380 C   0  0  1  0  0  3  0  0  0  0  0  0
  189.2330  173.1040  137.5980 F   0  0  0  0  0  0  0  0  0  0  0  0
  189.2990  173.3360  135.2330 C   0  0  0  0  0  2  0  0  0  0  0  0
  187.2690  171.8810  135.2460 C   0  0  0  0  0  1  0  0  0  0  0  0
  187.8000  173.2820  135.4900 C   0  0  0  0  0  2  0  0  0  0  0  0
  2  1  1  6  0  0  0
  2  3  1  0  0  0  0
  2  4  1  0  0  0  0
  3  5  1  0  0  0  0
  4  7  1  0  0  0  0
  5  6  1  0  0  0  0
  7  6  1  0  0  0  0
  7  8  1  1  0  0  0
  8 11  1  6  0  0  0
  8  9  1  0  0  0  0
  9 10  1  0  0  0  0
 11 13  1  0  0  0  0
 13 12  1  1  0  0  0
 14 17  1  0  0  0  0
 15 16  1  0  0  0  0
 16 17  2  0  0  0  0
 16 13  1  0  0  0  0
 18 14  2  0  0  0  0
 19 18  1  0  0  0  0
 19 15  2  0  0  0  0
 21 20  1  6  0  0  0
 21  1  1  0  0  0  0
 22 30  1  6  0  0  0
 22 21  1  0  0  0  0
 23 22  1  0  0  0  0
 24 29  1  6  0  0  0
 24 28  1  0  0  0  0
 24 27  1  0  0  0  0
 25 23  1  0  0  0  0
 26 23  2  0  0  0  0
 27 26  1  1  0  0  0
 28 25  1  0  0  0  0
 29 27  1  0  0  0  0
 31 30  1  0  0  0  0
 32 31  1  0  0  0  0
 33 32  2  0  0  0  0
 34 33  1  0  0  0  0
 34 35  1  1  0  0  0
 36 38  1  0  0  0  0
 36 34  1  0  0  0  0
 37 38  1  0  0  0  0
M  END
>  <MODEL>
6

>  <REMARK>
 VINA RESULT:      -7.6      2.574      5.692
  Name = 
  15 active torsions:
  status: ('A' for Active; 'I' for Inactive)
    1  A    between atoms: N_2  and  C_14
    2  A    between atoms: C_3  and  C_4
    3  A    between atoms: C_3  and  C_25
    4  A    between atoms: C_3  and  C_36
    5  A    between atoms: C_6  and  C_18
    6  A    between atoms: C_8  and  C_9
    7  A    between atoms: C_8  and  C_26
    8  A    between atoms: C_13  and  C_37
    9  A    between atoms: C_13  and  C_38
   10  A    between atoms: C_14  and  C_25
   11  A    between atoms: C_17  and  C_38
   12  A    between atoms: C_18  and  C_36
   13  A    between atoms: C_19  and  C_37
   14  A    between atoms: C_26  and  C_30
   15  A    between atoms: C_34  and  C_37
                            x       y       z     vdW  Elec       q    Type
                         _______ _______ _______ _____ _____    ______ ____

>  <TORSDO>
F 15

$$$$
=
 OpenBabel11062414403D

 38 41  0  0  1  0  0  0  0  0999 V2000
  184.5810  179.2480  139.5320 C   0  0  0  0  0  2  0  0  0  0  0  0
  185.7520  178.3800  139.1040 C   0  0  1  0  0  3  0  0  0  0  0  0
  186.3210  178.8740  137.9170 O   0  0  0  0  0  0  0  0  0  0  0  0
  186.7940  178.3330  140.2280 C   0  0  0  0  0  2  0  0  0  0  0  0
  187.1550  177.8480  137.4300 C   0  0  0  0  0  2  0  0  0  0  0  0
  188.3390  177.5730  138.3740 C   0  0  0  0  0  2  0  0  0  0  0  0
  188.2290  178.3760  139.6810 C   0  0  2  0  0  3  0  0  0  0  0  0
  189.2490  177.9030  140.7270 C   0  0  2  0  0  3  0  0  0  0  0  0
  190.3100  177.0100  140.1000 C   0  0  0  0  0  2  0  0  0  0  0  0
  191.5750  177.5690  140.2770 O   0  0  0  0  0  1  0  0  0  0  0  0
  188.5640  177.1120  141.8310 C   0  0  0  0  0  2  0  0  0  0  0  0
  190.1880  175.7130  143.1280 C   0  0  0  0  0  1  0  0  0  0  0  0
  189.4530  177.0410  143.0650 C   0  0  2  0  0  3  0  0  0  0  0  0
  186.5400  177.4500  145.4830 C   0  0  0  0  0  3  0  0  0  0  0  0
  189.3360  177.4530  145.5250 C   0  0  0  0  0  3  0  0  0  0  0  0
  188.6600  177.2630  144.3140 C   0  0  0  0  0  0  0  0  0  0  0  0
  187.2560  177.2590  144.2970 C   0  0  0  0  0  3  0  0  0  0  0  0
  187.2210  177.6430  146.6880 C   0  0  0  0  0  3  0  0  0  0  0  0
  188.6180  177.6440  146.7100 C   0  0  0  0  0  3  0  0  0  0  0  0
  183.1110  177.4850  138.5770 C   0  0  0  0  0  1  0  0  0  0  0  0
  183.3640  178.9830  138.6580 C   0  0  1  0  0  3  0  0  0  0  0  0
  182.1390  179.7670  139.1530 C   0  0  1  0  0  3  0  0  0  0  0  0
  181.6270  180.7310  138.1210 C   0  0  0  0  0  0  0  0  0  0  0  0
  180.0330  182.4510  136.4670 C   0  0  1  0  0  3  0  0  0  0  0  0
  180.9390  180.2640  136.8750 C   0  0  0  0  0  2  0  0  0  0  0  0
  181.6550  182.0420  138.3690 C   0  0  0  0  0  3  0  0  0  0  0  0
  181.0730  183.0330  137.3890 C   0  0  2  0  0  3  0  0  0  0  0  0
  179.7100  181.0360  136.7050 N   0  0  0  0  0  2  0  0  0  0  0  0
  179.6920  183.1900  137.6170 O   0  0  0  0  0  0  0  0  0  0  0  0
  181.0270  178.8740  139.7010 C   0  0  0  0  0  2  0  0  0  0  0  0
  179.9670  179.7180  140.3910 C   0  0  0  0  0  2  0  0  0  0  0  0
  180.2110  179.7710  141.8080 N   0  0  0  0  0  0  0  0  0  0  0  0
  180.7350  178.7690  142.4170 C   0  0  0  0  0  3  0  0  0  0  0  0
  180.9750  178.8110  143.8960 C   0  0  1  0  0  3  0  0  0  0  0  0
  180.3040  177.7700  144.5100 F   0  0  0  0  0  0  0  0  0  0  0  0
  182.4630  178.7210  144.2160 C   0  0  0  0  0  2  0  0  0  0  0  0
  184.6160  179.4570  143.1880 C   0  0  0  0  0  1  0  0  0  0  0  0
  183.3050  178.7300  142.9490 C   0  0  0  0  0  2  0  0  0  0  0  0
  2  1  1  1  0  0  0
  2  4  1  0  0  0  0
  3  2  1  0  0  0  0
  5  3  1  0  0  0  0
  5  6  1  0  0  0  0
  6  7  1  0  0  0  0
  7  4  1  0  0  0  0
  7  8  1  1  0  0  0
  8  9  1  6  0  0  0
  8 11  1  0  0  0  0
  9 10  1  0  0  0  0
 11 13  1  0  0  0  0
 13 12  1  1  0  0  0
 13 16  1  0  0  0  0
 14 18  1  0  0  0  0
 15 19  1  0  0  0  0
 16 15  2  0  0  0  0
 17 16  1  0  0  0  0
 17 14  2  0  0  0  0
 18 19  2  0  0  0  0
 21 20  1  1  0  0  0
 21 22  1  0  0  0  0
 21  1  1  0  0  0  0
 22 30  1  6  0  0  0
 23 26  2  0  0  0  0
 23 22  1  0  0  0  0
 24 28  1  1  0  0  0
 24 27  1  0  0  0  0
 24 29  1  0  0  0  0
 25 23  1  0  0  0  0
 27 29  1  0  0  0  0
 27 26  1  1  0  0  0
 28 25  1  0  0  0  0
 30 31  1  0  0  0  0
 31 32  1  0  0  0  0
 32 33  2  0  0  0  0
 33 34  1  0  0  0  0
 34 36  1  0  0  0  0
 34 35  1  1  0  0  0
 38 37  1  0  0  0  0
 38 36  1  0  0  0  0
M  END
>  <MODEL>
7

>  <REMARK>
 VINA RESULT:      -7.4      4.077      7.209
  Name = 
  15 active torsions:
  status: ('A' for Active; 'I' for Inactive)
    1  A    between atoms: N_2  and  C_14
    2  A    between atoms: C_3  and  C_4
    3  A    between atoms: C_3  and  C_25
    4  A    between atoms: C_3  and  C_36
    5  A    between atoms: C_6  and  C_18
    6  A    between atoms: C_8  and  C_9
    7  A    between atoms: C_8  and  C_26
    8  A    between atoms: C_13  and  C_37
    9  A    between atoms: C_13  and  C_38
   10  A    between atoms: C_14  and  C_25
   11  A    between atoms: C_17  and  C_38
   12  A    between atoms: C_18  and  C_36
   13  A    between atoms: C_19  and  C_37
   14  A    between atoms: C_26  and  C_30
   15  A    between atoms: C_34  and  C_37
                            x       y       z     vdW  Elec       q    Type
                         _______ _______ _______ _____ _____    ______ ____

>  <TORSDO>
F 15

$$$$
=
 OpenBabel11062414403D

 38 41  0  0  1  0  0  0  0  0999 V2000
  189.1460  178.1120  140.8650 C   0  0  0  0  0  2  0  0  0  0  0  0
  189.7320  177.5400  142.1450 C   0  0  1  0  0  3  0  0  0  0  0  0
  190.9690  178.1430  142.4300 O   0  0  0  0  0  0  0  0  0  0  0  0
  188.7460  177.7490  143.3000 C   0  0  0  0  0  2  0  0  0  0  0  0
  191.5760  177.3370  143.4140 C   0  0  0  0  0  2  0  0  0  0  0  0
  190.7910  177.3560  144.7380 C   0  0  0  0  0  2  0  0  0  0  0  0
  189.4640  178.1230  144.6050 C   0  0  2  0  0  3  0  0  0  0  0  0
  188.5610  177.9120  145.8290 C   0  0  2  0  0  3  0  0  0  0  0  0
  189.1220  176.8380  146.7520 C   0  0  0  0  0  2  0  0  0  0  0  0
  188.9370  177.2060  148.0850 O   0  0  0  0  0  1  0  0  0  0  0  0
  187.1650  177.4810  145.4050 C   0  0  0  0  0  2  0  0  0  0  0  0
  185.5650  178.4740  147.0570 C   0  0  0  0  0  1  0  0  0  0  0  0
  186.1620  178.5960  145.6650 C   0  0  2  0  0  3  0  0  0  0  0  0
  182.7740  178.9580  143.9640 C   0  0  0  0  0  3  0  0  0  0  0  0
  185.4080  178.2890  143.3050 C   0  0  0  0  0  3  0  0  0  0  0  0
  185.0820  178.6030  144.6290 C   0  0  0  0  0  0  0  0  0  0  0  0
  183.7600  178.9420  144.9560 C   0  0  0  0  0  3  0  0  0  0  0  0
  183.1050  178.6390  142.6450 C   0  0  0  0  0  3  0  0  0  0  0  0
  184.4220  178.3050  142.3140 C   0  0  0  0  0  3  0  0  0  0  0  0
  190.7020  176.4000  139.9520 C   0  0  0  0  0  1  0  0  0  0  0  0
  189.9840  177.7100  139.6600 C   0  0  1  0  0  3  0  0  0  0  0  0
  189.1310  177.6490  138.3830 C   0  0  1  0  0  3  0  0  0  0  0  0
  189.5660  176.5430  137.4630 C   0  0  0  0  0  0  0  0  0  0  0  0
  190.8710  174.3150  136.2120 C   0  0  1  0  0  3  0  0  0  0  0  0
  190.7490  176.6890  136.5550 C   0  0  0  0  0  2  0  0  0  0  0  0
  188.9790  175.3470  137.5430 C   0  0  0  0  0  3  0  0  0  0  0  0
  189.4470  174.1920  136.6910 C   0  0  2  0  0  3  0  0  0  0  0  0
  191.5910  175.5030  136.6950 N   0  0  0  0  0  2  0  0  0  0  0  0
  190.5150  173.5230  137.3210 O   0  0  0  0  0  0  0  0  0  0  0  0
  187.6290  177.6040  138.6570 C   0  0  0  0  0  2  0  0  0  0  0  0
  186.8640  178.2220  137.4970 C   0  0  0  0  0  2  0  0  0  0  0  0
  185.4470  178.0530  137.6830 N   0  0  0  0  0  0  0  0  0  0  0  0
  184.8300  178.6920  138.6100 C   0  0  0  0  0  3  0  0  0  0  0  0
  183.3580  178.5060  138.8200 C   0  0  1  0  0  3  0  0  0  0  0  0
  182.6580  179.4650  138.1110 F   0  0  0  0  0  0  0  0  0  0  0  0
  182.9100  177.1170  138.3810 C   0  0  0  0  0  2  0  0  0  0  0  0
  181.1160  176.5190  140.0130 C   0  0  0  0  0  1  0  0  0  0  0  0
  182.5450  176.2480  139.5760 C   0  0  0  0  0  2  0  0  0  0  0  0
  2  1  1  6  0  0  0
  2  3  1  0  0  0  0
  2  4  1  0  0  0  0
  3  5  1  0  0  0  0
  4  7  1  0  0  0  0
  5  6  1  0  0  0  0
  7  6  1  0  0  0  0
  7  8  1  1  0  0  0
  8 11  1  6  0  0  0
  8  9  1  0  0  0  0
  9 10  1  0  0  0  0
 11 13  1  0  0  0  0
 13 12  1  1  0  0  0
 14 17  1  0  0  0  0
 15 16  1  0  0  0  0
 16 17  2  0  0  0  0
 16 13  1  0  0  0  0
 18 14  2  0  0  0  0
 19 18  1  0  0  0  0
 19 15  2  0  0  0  0
 21 20  1  1  0  0  0
 21  1  1  0  0  0  0
 22 30  1  1  0  0  0
 22 21  1  0  0  0  0
 23 26  2  0  0  0  0
 23 22  1  0  0  0  0
 24 27  1  0  0  0  0
 24 28  1  1  0  0  0
 24 29  1  0  0  0  0
 25 28  1  0  0  0  0
 25 23  1  0  0  0  0
 27 29  1  0  0  0  0
 27 26  1  1  0  0  0
 31 32  1  0  0  0  0
 31 30  1  0  0  0  0
 32 33  2  0  0  0  0
 33 34  1  0  0  0  0
 34 35  1  6  0  0  0
 36 34  1  0  0  0  0
 36 38  1  0  0  0  0
 38 37  1  0  0  0  0
M  END
>  <MODEL>
8

>  <REMARK>
 VINA RESULT:      -7.4      2.935      5.868
  Name = 
  15 active torsions:
  status: ('A' for Active; 'I' for Inactive)
    1  A    between atoms: N_2  and  C_14
    2  A    between atoms: C_3  and  C_4
    3  A    between atoms: C_3  and  C_25
    4  A    between atoms: C_3  and  C_36
    5  A    between atoms: C_6  and  C_18
    6  A    between atoms: C_8  and  C_9
    7  A    between atoms: C_8  and  C_26
    8  A    between atoms: C_13  and  C_37
    9  A    between atoms: C_13  and  C_38
   10  A    between atoms: C_14  and  C_25
   11  A    between atoms: C_17  and  C_38
   12  A    between atoms: C_18  and  C_36
   13  A    between atoms: C_19  and  C_37
   14  A    between atoms: C_26  and  C_30
   15  A    between atoms: C_34  and  C_37
                            x       y       z     vdW  Elec       q    Type
                         _______ _______ _______ _____ _____    ______ ____

>  <TORSDO>
F 15

$$$$
=
 OpenBabel11062414403D

 38 41  0  0  1  0  0  0  0  0999 V2000
  184.8960  177.8270  142.4170 C   0  0  0  0  0  2  0  0  0  0  0  0
  185.0940  178.4300  143.7960 C   0  0  1  0  0  3  0  0  0  0  0  0
  183.9890  178.1480  144.6190 O   0  0  0  0  0  0  0  0  0  0  0  0
  186.3860  177.8840  144.4160 C   0  0  0  0  0  2  0  0  0  0  0  0
  184.1040  179.0040  145.7320 C   0  0  0  0  0  2  0  0  0  0  0  0
  185.3460  178.6810  146.5810 C   0  0  0  0  0  2  0  0  0  0  0  0
  186.2290  177.6090  145.9190 C   0  0  2  0  0  3  0  0  0  0  0  0
  187.5900  177.4840  146.6170 C   0  0  2  0  0  3  0  0  0  0  0  0
  187.6290  178.2960  147.9050 C   0  0  0  0  0  2  0  0  0  0  0  0
  188.6830  177.8670  148.7120 O   0  0  0  0  0  1  0  0  0  0  0  0
  188.7100  177.9840  145.7160 C   0  0  0  0  0  2  0  0  0  0  0  0
  190.8420  176.7760  146.2360 C   0  0  0  0  0  1  0  0  0  0  0  0
  189.6290  176.8360  145.3230 C   0  0  2  0  0  3  0  0  0  0  0  0
  191.6970  177.5260  142.2010 C   0  0  0  0  0  3  0  0  0  0  0  0
  189.1760  176.5290  142.8870 C   0  0  0  0  0  3  0  0  0  0  0  0
  190.0530  176.9510  143.8920 C   0  0  0  0  0  0  0  0  0  0  0  0
  191.3200  177.4480  143.5450 C   0  0  0  0  0  3  0  0  0  0  0  0
  190.8150  177.1080  141.2010 C   0  0  0  0  0  3  0  0  0  0  0  0
  189.5550  176.6090  141.5430 C   0  0  0  0  0  3  0  0  0  0  0  0
  184.9490  179.3780  140.4740 C   0  0  0  0  0  1  0  0  0  0  0  0
  184.0620  178.7470  141.5380 C   0  0  1  0  0  3  0  0  0  0  0  0
  182.8540  178.0080  140.9420 C   0  0  1  0  0  3  0  0  0  0  0  0
  181.5550  178.4700  141.5400 C   0  0  0  0  0  0  0  0  0  0  0  0
  179.0420  178.6860  142.9060 C   0  0  1  0  0  3  0  0  0  0  0  0
  180.2380  178.1870  140.8850 C   0  0  0  0  0  2  0  0  0  0  0  0
  181.5470  179.0270  142.7530 C   0  0  0  0  0  3  0  0  0  0  0  0
  180.2510  179.4270  143.4160 C   0  0  2  0  0  3  0  0  0  0  0  0
  179.3220  177.6580  141.8920 N   0  0  0  0  0  2  0  0  0  0  0  0
  179.6950  178.3290  144.1020 O   0  0  0  0  0  0  0  0  0  0  0  0
  182.8190  178.0320  139.4150 C   0  0  0  0  0  2  0  0  0  0  0  0
  182.9280  176.6190  138.8640 C   0  0  0  0  0  2  0  0  0  0  0  0
  184.1740  176.4470  138.1650 N   0  0  0  0  0  0  0  0  0  0  0  0
  184.6800  177.4130  137.4870 C   0  0  0  0  0  3  0  0  0  0  0  0
  185.9690  177.2330  136.7420 C   0  0  1  0  0  3  0  0  0  0  0  0
  185.7440  177.3440  135.3830 F   0  0  0  0  0  0  0  0  0  0  0  0
  187.0040  178.2640  137.1760 C   0  0  0  0  0  2  0  0  0  0  0  0
  188.6770  176.5650  137.9190 C   0  0  0  0  0  1  0  0  0  0  0  0
  187.8380  177.7570  138.3440 C   0  0  0  0  0  2  0  0  0  0  0  0
  2  1  1  6  0  0  0
  2  4  1  0  0  0  0
  2  3  1  0  0  0  0
  3  5  1  0  0  0  0
  4  7  1  0  0  0  0
  5  6  1  0  0  0  0
  7  6  1  0  0  0  0
  7  8  1  1  0  0  0
  8 11  1  6  0  0  0
  8  9  1  0  0  0  0
  9 10  1  0  0  0  0
 13 11  1  0  0  0  0
 13 12  1  1  0  0  0
 14 17  1  0  0  0  0
 15 16  1  0  0  0  0
 16 13  1  0  0  0  0
 17 16  2  0  0  0  0
 18 19  1  0  0  0  0
 18 14  2  0  0  0  0
 19 15  2  0  0  0  0
 21 20  1  6  0  0  0
 21  1  1  0  0  0  0
 22 30  1  6  0  0  0
 22 21  1  0  0  0  0
 22 23  1  0  0  0  0
 23 26  2  0  0  0  0
 24 28  1  6  0  0  0
 24 27  1  0  0  0  0
 24 29  1  0  0  0  0
 25 23  1  0  0  0  0
 25 28  1  0  0  0  0
 27 26  1  6  0  0  0
 27 29  1  0  0  0  0
 31 30  1  0  0  0  0
 32 31  1  0  0  0  0
 33 32  2  0  0  0  0
 34 35  1  6  0  0  0
 34 36  1  0  0  0  0
 34 33  1  0  0  0  0
 36 38  1  0  0  0  0
 37 38  1  0  0  0  0
M  END
>  <MODEL>
9

>  <REMARK>
 VINA RESULT:      -7.4      3.048      6.688
  Name = 
  15 active torsions:
  status: ('A' for Active; 'I' for Inactive)
    1  A    between atoms: N_2  and  C_14
    2  A    between atoms: C_3  and  C_4
    3  A    between atoms: C_3  and  C_25
    4  A    between atoms: C_3  and  C_36
    5  A    between atoms: C_6  and  C_18
    6  A    between atoms: C_8  and  C_9
    7  A    between atoms: C_8  and  C_26
    8  A    between atoms: C_13  and  C_37
    9  A    between atoms: C_13  and  C_38
   10  A    between atoms: C_14  and  C_25
   11  A    between atoms: C_17  and  C_38
   12  A    between atoms: C_18  and  C_36
   13  A    between atoms: C_19  and  C_37
   14  A    between atoms: C_26  and  C_30
   15  A    between atoms: C_34  and  C_37
                            x       y       z     vdW  Elec       q    Type
                         _______ _______ _______ _____ _____    ______ ____

>  <TORSDO>
F 15

$$$$
