=
 OpenBabel11062417543D

 39 46  0  0  1  0  0  0  0  0999 V2000
  186.9300  178.6210  137.1580 C   0  0  0  0  0  2  0  0  0  0  0  0
  182.6850  170.9350  136.0910 C   0  0  0  0  0  0  0  0  0  0  0  0
  187.3440  177.2450  136.6710 C   0  0  2  0  0  3  0  0  0  0  0  0
  181.2230  170.8090  134.5940 C   0  0  0  0  0  3  0  0  0  0  0  0
  186.1230  176.4320  136.2070 C   0  0  2  0  0  3  0  0  0  0  0  0
  180.7780  175.2660  138.5240 C   0  0  2  0  0  3  0  0  0  0  0  0
  187.0030  178.5430  139.8870 C   0  0  2  0  0  3  0  0  0  0  0  0
  181.2190  169.6380  135.2680 N   0  0  0  0  0  0  0  0  0  0  0  0
  183.2790  179.4650  139.4510 C   0  0  0  0  0  2  0  0  0  0  0  0
  178.9560  176.8660  138.2500 C   0  0  0  0  0  1  0  0  0  0  0  0
  180.9610  177.1280  137.0710 C   0  0  2  0  0  3  0  0  0  0  0  0
  184.7700  179.4150  139.3210 C   0  0  0  0  0  3  0  0  0  0  0  0
  182.1460  169.7490  136.1720 O   0  0  0  0  0  0  0  0  0  0  0  0
  185.8740  175.1610  137.0320 C   0  0  1  0  0  3  0  0  0  0  0  0
  182.6150  178.1580  139.0430 C   0  0  0  0  0  2  0  0  0  0  0  0
  184.3890  172.6630  136.8010 C   0  0  0  0  0  0  0  0  0  0  0  0
  182.5620  178.0210  137.2270 S   0  0  0  0  0  0  0  0  0  0  0  0
  186.3740  174.4880  134.8500 N   0  0  0  0  0  0  0  0  0  0  0  0
  189.4330  177.9260  138.3510 S   0  0  0  0  0  0  0  0  0  0  0  0
  180.3950  176.6890  138.3640 N   0  0  0  0  0  0  0  0  0  0  0  0
  183.6570  173.8990  137.2090 C   0  0  0  0  0  0  0  0  0  0  0  0
  187.8990  176.9310  138.0710 C   0  0  1  0  0  3  0  0  0  0  0  0
  184.4350  175.1320  137.5890 C   0  0  0  0  0  2  0  0  0  0  0  0
  182.3390  174.0230  137.0870 C   0  0  0  0  0  0  0  0  0  0  0  0
  186.4250  175.9370  134.7840 C   0  0  0  0  0  2  0  0  0  0  0  0
  181.1490  175.9180  136.1610 C   0  0  0  0  0  2  0  0  0  0  0  0
  185.5050  178.4920  139.9550 C   0  0  0  0  0  3  0  0  0  0  0  0
  182.1570  171.6560  135.0840 N   0  0  0  0  0  0  0  0  0  0  0  0
  187.6320  178.3160  138.4800 C   0  0  2  0  0  0  0  0  0  0  0  0
  180.9510  173.5260  136.7630 O   0  0  0  0  0  0  0  0  0  0  0  0
  181.2120  174.8060  137.1580 C   0  0  2  0  0  0  0  0  0  0  0  0
  183.7950  171.3610  136.8940 N   0  0  0  0  0  2  0  0  0  0  0  0
  185.5610  172.7790  136.2430 N   0  0  0  0  0  0  0  0  0  0  0  0
  186.1200  174.0770  136.0390 C   0  0  0  0  0  0  0  0  0  0  0  0
  186.9540  177.5960  142.2300 O   0  0  0  0  0  1  0  0  0  0  0  0
  188.8060  177.3450  140.9070 O   0  0  0  0  0  0  0  0  0  0  0  0
  187.6310  177.7770  141.0200 C   0  0  0  0  0  0  0  0  0  0  0  0
  179.7230  174.3880  139.2040 C   0  0  0  0  0  2  0  0  0  0  0  0
  179.9000  174.4140  140.7090 C   0  0  0  0  0  1  0  0  0  0  0  0
  2 13  1  0  0  0  0
  2 32  1  0  0  0  0
  3  1  1  1  0  0  0
  3 22  1  0  0  0  0
  4 28  1  0  0  0  0
  4  8  2  0  0  0  0
  5 25  1  6  0  0  0
  5  3  1  0  0  0  0
  5 14  1  0  0  0  0
  6 38  1  6  0  0  0
  7 27  1  0  0  0  0
  7 37  1  1  0  0  0
  8 13  1  0  0  0  0
 10 20  1  0  0  0  0
 11 26  1  6  0  0  0
 11 17  1  0  0  0  0
 11 20  1  0  0  0  0
 12  9  1  0  0  0  0
 12 27  2  0  0  0  0
 14 23  1  6  0  0  0
 15  9  1  0  0  0  0
 16 32  1  0  0  0  0
 16 21  1  0  0  0  0
 17 15  1  0  0  0  0
 18 34  2  0  0  0  0
 19 29  1  0  0  0  0
 20  6  1  0  0  0  0
 21 23  1  0  0  0  0
 22 19  1  6  0  0  0
 22 29  1  0  0  0  0
 24 31  1  0  0  0  0
 24 21  2  0  0  0  0
 25 18  1  0  0  0  0
 28  2  2  0  0  0  0
 29  1  1  6  0  0  0
 29  7  1  0  0  0  0
 30 24  1  0  0  0  0
 30 31  1  0  0  0  0
 31 26  1  6  0  0  0
 31  6  1  0  0  0  0
 33 16  2  0  0  0  0
 34 33  1  0  0  0  0
 34 14  1  0  0  0  0
 36 37  2  0  0  0  0
 37 35  1  0  0  0  0
 38 39  1  0  0  0  0
M  END
>  <MODEL>
1

>  <REMARK>
 VINA RESULT:      -5.4      0.000      0.000
  Name = 
  2 active torsions:
  status: ('A' for Active; 'I' for Inactive)
    1  A    between atoms: C_5  and  C_8
    2  A    between atoms: C_9  and  C_22
                            x       y       z     vdW  Elec       q    Type
                         _______ _______ _______ _____ _____    ______ ____

>  <TORSDO>
F 2

$$$$
=
 OpenBabel11062417543D

 39 46  0  0  1  0  0  0  0  0999 V2000
  188.6490  178.7930  138.8920 C   0  0  0  0  0  2  0  0  0  0  0  0
  182.0950  173.7300  135.7870 C   0  0  0  0  0  0  0  0  0  0  0  0
  188.5760  177.6640  137.8810 C   0  0  2  0  0  3  0  0  0  0  0  0
  180.6260  174.6310  134.5940 C   0  0  0  0  0  3  0  0  0  0  0  0
  187.1420  177.4900  137.3500 C   0  0  2  0  0  3  0  0  0  0  0  0
  181.7850  177.1040  139.8900 C   0  0  2  0  0  3  0  0  0  0  0  0
  188.7790  177.6310  141.3600 C   0  0  2  0  0  3  0  0  0  0  0  0
  180.2610  173.3450  134.7890 N   0  0  0  0  0  0  0  0  0  0  0  0
  185.5480  179.6830  141.8740 C   0  0  0  0  0  2  0  0  0  0  0  0
  180.5780  179.1350  140.5020 C   0  0  0  0  0  1  0  0  0  0  0  0
  182.5200  179.2480  139.2010 C   0  0  2  0  0  3  0  0  0  0  0  0
  186.9360  179.2600  141.5040 C   0  0  0  0  0  3  0  0  0  0  0  0
  181.2010  172.8190  135.5150 O   0  0  0  0  0  0  0  0  0  0  0  0
  186.5180  176.1280  137.6860 C   0  0  1  0  0  3  0  0  0  0  0  0
  184.4820  178.8940  141.1290 C   0  0  0  0  0  2  0  0  0  0  0  0
  184.2920  174.4670  136.8000 C   0  0  0  0  0  0  0  0  0  0  0  0
  184.3300  179.5040  139.4190 S   0  0  0  0  0  0  0  0  0  0  0  0
  186.7010  176.2550  135.3590 N   0  0  0  0  0  0  0  0  0  0  0  0
  190.8250  176.9950  139.3460 S   0  0  0  0  0  0  0  0  0  0  0  0
  181.8830  178.5200  140.3170 N   0  0  0  0  0  0  0  0  0  0  0  0
  184.0170  175.5970  137.7370 C   0  0  0  0  0  0  0  0  0  0  0  0
  189.0410  176.6800  138.9670 C   0  0  1  0  0  3  0  0  0  0  0  0
  185.1670  176.2990  138.4120 C   0  0  0  0  0  2  0  0  0  0  0  0
  182.8080  176.1340  137.8760 C   0  0  0  0  0  0  0  0  0  0  0  0
  187.2210  177.5300  135.8160 C   0  0  0  0  0  2  0  0  0  0  0  0
  182.2740  178.4970  137.8970 C   0  0  0  0  0  2  0  0  0  0  0  0
  187.3490  177.9930  141.6380 C   0  0  0  0  0  3  0  0  0  0  0  0
  181.8010  174.9090  135.2050 N   0  0  0  0  0  0  0  0  0  0  0  0
  189.2540  177.8060  139.8870 C   0  0  2  0  0  0  0  0  0  0  0  0
  181.3250  176.2290  137.6140 O   0  0  0  0  0  0  0  0  0  0  0  0
  182.0020  177.1150  138.4000 C   0  0  2  0  0  0  0  0  0  0  0  0
  183.3090  173.4660  136.5060 N   0  0  0  0  0  2  0  0  0  0  0  0
  185.4190  174.4500  136.1470 N   0  0  0  0  0  0  0  0  0  0  0  0
  186.3650  175.5020  136.3430 C   0  0  0  0  0  0  0  0  0  0  0  0
  188.2390  175.6350  142.8130 O   0  0  0  0  0  1  0  0  0  0  0  0
  190.3330  175.9030  141.9280 O   0  0  0  0  0  0  0  0  0  0  0  0
  189.1570  176.3360  142.0250 C   0  0  0  0  0  0  0  0  0  0  0  0
  180.5230  176.3760  140.3600 C   0  0  0  0  0  2  0  0  0  0  0  0
  180.6830  174.8770  140.1970 C   0  0  0  0  0  1  0  0  0  0  0  0
  2 32  1  0  0  0  0
  3  1  1  1  0  0  0
  3 22  1  0  0  0  0
  4  8  2  0  0  0  0
  4 28  1  0  0  0  0
  5 25  1  6  0  0  0
  5 14  1  0  0  0  0
  5  3  1  0  0  0  0
  6 20  1  0  0  0  0
  6 38  1  6  0  0  0
  7 27  1  0  0  0  0
  7 37  1  6  0  0  0
  8 13  1  0  0  0  0
 11 26  1  6  0  0  0
 11 17  1  0  0  0  0
 11 20  1  0  0  0  0
 12 27  2  0  0  0  0
 12  9  1  0  0  0  0
 13  2  1  0  0  0  0
 14 23  1  6  0  0  0
 15  9  1  0  0  0  0
 16 21  1  0  0  0  0
 17 15  1  0  0  0  0
 18 25  1  0  0  0  0
 18 34  2  0  0  0  0
 19 29  1  0  0  0  0
 20 10  1  0  0  0  0
 21 24  2  0  0  0  0
 21 23  1  0  0  0  0
 22 19  1  6  0  0  0
 22 29  1  0  0  0  0
 24 31  1  0  0  0  0
 28  2  2  0  0  0  0
 29  1  1  6  0  0  0
 29  7  1  0  0  0  0
 30 24  1  0  0  0  0
 30 31  1  0  0  0  0
 31 26  1  6  0  0  0
 31  6  1  0  0  0  0
 32 16  1  0  0  0  0
 33 34  1  0  0  0  0
 33 16  2  0  0  0  0
 34 14  1  0  0  0  0
 36 37  2  0  0  0  0
 37 35  1  0  0  0  0
 39 38  1  0  0  0  0
M  END
>  <MODEL>
2

>  <REMARK>
 VINA RESULT:      -4.9      1.972      2.576
  Name = 
  2 active torsions:
  status: ('A' for Active; 'I' for Inactive)
    1  A    between atoms: C_5  and  C_8
    2  A    between atoms: C_9  and  C_22
                            x       y       z     vdW  Elec       q    Type
                         _______ _______ _______ _____ _____    ______ ____

>  <TORSDO>
F 2

$$$$
