=
 OpenBabel11062413513D

 25 29  0  0  1  0  0  0  0  0999 V2000
  191.2340  178.6480  144.3450 C   0  0  0  0  0  0  0  0  0  0  0  0
  191.5260  175.2060  143.6070 C   0  0  0  0  0  1  0  0  0  0  0  0
  189.5060  177.5870  141.3980 S   0  0  0  0  0  0  0  0  0  0  0  0
  189.8670  176.7880  144.8320 C   0  0  1  0  0  3  0  0  0  0  0  0
  189.8670  178.3200  144.8080 C   0  0  2  0  0  3  0  0  0  0  0  0
  188.0540  178.2170  140.5580 C   0  0  0  0  0  0  0  0  0  0  0  0
  192.0650  177.5220  144.1670 N   0  0  0  0  0  2  0  0  0  0  0  0
  191.6370  179.8210  144.1290 O   0  0  0  0  0  0  0  0  0  0  0  0
  188.8900  176.3210  143.7530 C   0  0  0  0  0  2  0  0  0  0  0  0
  188.5160  177.5340  142.9280 C   0  0  2  0  0  0  0  0  0  0  0  0
  186.9360  178.0990  141.1850 N   0  0  0  0  0  0  0  0  0  0  0  0
  187.0490  177.4540  142.4800 C   0  0  2  0  0  3  0  0  0  0  0  0
  191.3350  176.3460  144.5970 C   0  0  2  0  0  3  0  0  0  0  0  0
  188.8390  178.7530  143.7770 C   0  0  0  0  0  2  0  0  0  0  0  0
  184.0750  178.3190  141.8890 C   0  0  0  0  0  3  0  0  0  0  0  0
  185.4650  178.5760  145.7690 C   0  0  0  0  0  3  0  0  0  0  0  0
  182.7990  178.8070  142.1760 C   0  0  0  0  0  3  0  0  0  0  0  0
  186.3870  178.0880  144.8200 C   0  0  0  0  0  3  0  0  0  0  0  0
  186.0240  177.9490  143.4680 C   0  0  0  0  0  0  0  0  0  0  0  0
  184.1640  178.9380  145.3790 C   0  0  0  0  0  3  0  0  0  0  0  0
  184.7190  178.3250  143.1100 C   0  0  0  0  0  0  0  0  0  0  0  0
  183.8320  178.7990  144.0340 C   0  0  0  0  0  0  0  0  0  0  0  0
  182.6910  179.0810  143.4650 O   0  0  0  0  0  0  0  0  0  0  0  0
  188.1040  178.8450  139.3130 O   0  0  0  0  0  0  0  0  0  0  0  0
  189.1370  178.5770  138.3780 C   0  0  0  0  0  1  0  0  0  0  0  0
  1  5  1  0  0  0  0
  3 10  1  0  0  0  0
  4  9  1  6  0  0  0
  5 14  1  6  0  0  0
  5  4  1  0  0  0  0
  6 11  2  0  0  0  0
  6  3  1  0  0  0  0
  7  1  1  0  0  0  0
  7 13  1  0  0  0  0
  8  1  2  0  0  0  0
 10  9  1  1  0  0  0
 10 14  1  0  0  0  0
 11 12  1  0  0  0  0
 12 10  1  0  0  0  0
 12 19  1  1  0  0  0
 13  2  1  6  0  0  0
 13  4  1  0  0  0  0
 15 17  2  0  0  0  0
 15 21  1  0  0  0  0
 17 23  1  0  0  0  0
 18 16  2  0  0  0  0
 19 18  1  0  0  0  0
 20 16  1  0  0  0  0
 21 19  2  0  0  0  0
 21 22  1  0  0  0  0
 22 20  2  0  0  0  0
 23 22  1  0  0  0  0
 24  6  1  0  0  0  0
 25 24  1  0  0  0  0
M  END
>  <MODEL>
1

>  <REMARK>
 VINA RESULT:      -8.3      0.000      0.000
  Name = 
  2 active torsions:
  status: ('A' for Active; 'I' for Inactive)
    1  A    between atoms: O_2  and  C_13
    2  A    between atoms: C_12  and  C_22
                            x       y       z     vdW  Elec       q    Type
                         _______ _______ _______ _____ _____    ______ ____

>  <TORSDO>
F 2

$$$$
=
 OpenBabel11062413513D

 25 29  0  0  1  0  0  0  0  0999 V2000
  181.7770  176.4230  138.9590 C   0  0  0  0  0  0  0  0  0  0  0  0
  181.1260  179.6370  137.6460 C   0  0  0  0  0  1  0  0  0  0  0  0
  184.6690  178.4790  138.5060 S   0  0  0  0  0  0  0  0  0  0  0  0
  181.4430  178.5260  139.9740 C   0  0  1  0  0  3  0  0  0  0  0  0
  181.9560  177.1110  140.2580 C   0  0  2  0  0  3  0  0  0  0  0  0
  186.2580  178.5240  139.3310 C   0  0  0  0  0  0  0  0  0  0  0  0
  181.1560  177.2160  137.9720 N   0  0  0  0  0  2  0  0  0  0  0  0
  182.1350  175.2350  138.7410 O   0  0  0  0  0  0  0  0  0  0  0  0
  182.6430  179.4670  140.0710 C   0  0  0  0  0  2  0  0  0  0  0  0
  183.8870  178.6070  140.1480 C   0  0  2  0  0  0  0  0  0  0  0  0
  186.2510  178.9060  140.5610 N   0  0  0  0  0  0  0  0  0  0  0  0
  184.9360  179.2500  141.0670 C   0  0  2  0  0  3  0  0  0  0  0  0
  180.7810  178.4810  138.5730 C   0  0  2  0  0  3  0  0  0  0  0  0
  183.4320  177.2270  140.5970 C   0  0  0  0  0  2  0  0  0  0  0  0
  186.9440  177.6960  142.9380 C   0  0  0  0  0  3  0  0  0  0  0  0
  183.4420  179.1430  144.5800 C   0  0  0  0  0  3  0  0  0  0  0  0
  187.4130  177.1220  144.1210 C   0  0  0  0  0  3  0  0  0  0  0  0
  183.6290  179.4090  143.2070 C   0  0  0  0  0  3  0  0  0  0  0  0
  184.7890  178.9720  142.5410 C   0  0  0  0  0  0  0  0  0  0  0  0
  184.4100  178.4300  145.3070 C   0  0  0  0  0  3  0  0  0  0  0  0
  185.7340  178.2580  143.2950 C   0  0  0  0  0  0  0  0  0  0  0  0
  185.5450  178.0030  144.6230 C   0  0  0  0  0  0  0  0  0  0  0  0
  186.5530  177.3270  145.1030 O   0  0  0  0  0  0  0  0  0  0  0  0
  187.4490  178.1320  138.7180 O   0  0  0  0  0  0  0  0  0  0  0  0
  188.6620  178.0100  139.4430 C   0  0  0  0  0  1  0  0  0  0  0  0
  1  5  1  0  0  0  0
  3  6  1  0  0  0  0
  3 10  1  0  0  0  0
  4  9  1  6  0  0  0
  4  5  1  0  0  0  0
  5 14  1  6  0  0  0
  6 11  2  0  0  0  0
  7 13  1  0  0  0  0
  7  1  1  0  0  0  0
  8  1  2  0  0  0  0
 10  9  1  6  0  0  0
 10 14  1  0  0  0  0
 10 12  1  0  0  0  0
 11 12  1  0  0  0  0
 12 19  1  1  0  0  0
 13  2  1  6  0  0  0
 13  4  1  0  0  0  0
 15 21  1  0  0  0  0
 15 17  2  0  0  0  0
 16 20  1  0  0  0  0
 17 23  1  0  0  0  0
 18 16  2  0  0  0  0
 19 18  1  0  0  0  0
 19 21  2  0  0  0  0
 21 22  1  0  0  0  0
 22 23  1  0  0  0  0
 22 20  2  0  0  0  0
 24  6  1  0  0  0  0
 24 25  1  0  0  0  0
M  END
>  <MODEL>
2

>  <REMARK>
 VINA RESULT:      -7.5      3.077      6.899
  Name = 
  2 active torsions:
  status: ('A' for Active; 'I' for Inactive)
    1  A    between atoms: O_2  and  C_13
    2  A    between atoms: C_12  and  C_22
                            x       y       z     vdW  Elec       q    Type
                         _______ _______ _______ _____ _____    ______ ____

>  <TORSDO>
F 2

$$$$
=
 OpenBabel11062413513D

 25 29  0  0  1  0  0  0  0  0999 V2000
  191.3520  178.7420  144.2370 C   0  0  0  0  0  0  0  0  0  0  0  0
  191.4700  175.2400  143.7900 C   0  0  0  0  0  1  0  0  0  0  0  0
  189.6610  177.5370  141.3240 S   0  0  0  0  0  0  0  0  0  0  0  0
  189.8660  177.0050  144.8230 C   0  0  1  0  0  3  0  0  0  0  0  0
  189.9540  178.5280  144.6760 C   0  0  2  0  0  3  0  0  0  0  0  0
  188.2750  178.1730  140.3840 C   0  0  0  0  0  0  0  0  0  0  0  0
  192.1220  177.5610  144.1810 N   0  0  0  0  0  2  0  0  0  0  0  0
  191.8280  179.8700  143.9430 O   0  0  0  0  0  0  0  0  0  0  0  0
  188.8990  176.5050  143.7500 C   0  0  0  0  0  2  0  0  0  0  0  0
  188.6220  177.6640  142.8160 C   0  0  2  0  0  0  0  0  0  0  0  0
  187.1330  178.1680  140.9770 N   0  0  0  0  0  0  0  0  0  0  0  0
  187.1670  177.6280  142.3240 C   0  0  2  0  0  3  0  0  0  0  0  0
  191.3120  176.4660  144.6770 C   0  0  2  0  0  3  0  0  0  0  0  0
  188.9860  178.9300  143.5760 C   0  0  0  0  0  2  0  0  0  0  0  0
  186.8120  177.1790  145.4250 C   0  0  0  0  0  3  0  0  0  0  0  0
  184.1930  179.7200  143.4900 C   0  0  0  0  0  3  0  0  0  0  0  0
  186.2280  177.3260  146.6840 C   0  0  0  0  0  3  0  0  0  0  0  0
  185.1880  179.1340  142.6800 C   0  0  0  0  0  3  0  0  0  0  0  0
  186.1410  178.2570  143.2300 C   0  0  0  0  0  0  0  0  0  0  0  0
  184.1330  179.4340  144.8640 C   0  0  0  0  0  3  0  0  0  0  0  0
  186.0500  177.9880  144.6050 C   0  0  0  0  0  0  0  0  0  0  0  0
  185.0830  178.5580  145.3830 C   0  0  0  0  0  0  0  0  0  0  0  0
  185.2010  178.1560  146.6200 O   0  0  0  0  0  0  0  0  0  0  0  0
  188.4010  178.6920  139.0950 O   0  0  0  0  0  0  0  0  0  0  0  0
  189.3340  178.1710  138.1630 C   0  0  0  0  0  1  0  0  0  0  0  0
  1  5  1  0  0  0  0
  3 10  1  0  0  0  0
  4  9  1  6  0  0  0
  5 14  1  6  0  0  0
  5  4  1  0  0  0  0
  6 11  2  0  0  0  0
  6  3  1  0  0  0  0
  7  1  1  0  0  0  0
  7 13  1  0  0  0  0
  8  1  2  0  0  0  0
 10 14  1  1  0  0  0
 10  9  1  0  0  0  0
 11 12  1  0  0  0  0
 12 10  1  0  0  0  0
 12 19  1  1  0  0  0
 13  2  1  6  0  0  0
 13  4  1  0  0  0  0
 15 17  2  0  0  0  0
 16 20  1  0  0  0  0
 18 19  1  0  0  0  0
 18 16  2  0  0  0  0
 19 21  2  0  0  0  0
 20 22  2  0  0  0  0
 21 22  1  0  0  0  0
 21 15  1  0  0  0  0
 22 23  1  0  0  0  0
 23 17  1  0  0  0  0
 24  6  1  0  0  0  0
 25 24  1  0  0  0  0
M  END
>  <MODEL>
3

>  <REMARK>
 VINA RESULT:      -7.2      1.070      1.972
  Name = 
  2 active torsions:
  status: ('A' for Active; 'I' for Inactive)
    1  A    between atoms: O_2  and  C_13
    2  A    between atoms: C_12  and  C_22
                            x       y       z     vdW  Elec       q    Type
                         _______ _______ _______ _____ _____    ______ ____

>  <TORSDO>
F 2

$$$$
=
 OpenBabel11062413513D

 25 29  0  0  1  0  0  0  0  0999 V2000
  189.3190  176.2260  143.2730 C   0  0  0  0  0  0  0  0  0  0  0  0
  190.8930  179.3310  143.8700 C   0  0  0  0  0  1  0  0  0  0  0  0
  188.9130  178.6460  140.6700 S   0  0  0  0  0  0  0  0  0  0  0  0
  191.4180  177.1000  142.6450 C   0  0  1  0  0  3  0  0  0  0  0  0
  190.4360  175.9630  142.3390 C   0  0  2  0  0  3  0  0  0  0  0  0
  188.6420  178.4860  138.9060 C   0  0  0  0  0  0  0  0  0  0  0  0
  189.5410  177.3140  144.1420 N   0  0  0  0  0  2  0  0  0  0  0  0
  188.2600  175.5440  143.3070 O   0  0  0  0  0  0  0  0  0  0  0  0
  191.4750  177.9910  141.4040 C   0  0  0  0  0  2  0  0  0  0  0  0
  190.3580  177.5510  140.4810 C   0  0  2  0  0  0  0  0  0  0  0  0
  189.6180  177.9990  138.2220 N   0  0  0  0  0  0  0  0  0  0  0  0
  190.7900  177.6710  139.0120 C   0  0  2  0  0  3  0  0  0  0  0  0
  190.8850  177.8100  143.9150 C   0  0  2  0  0  3  0  0  0  0  0  0
  189.9780  176.1400  140.9010 C   0  0  0  0  0  2  0  0  0  0  0  0
  189.6370  175.1260  137.5500 C   0  0  0  0  0  3  0  0  0  0  0  0
  193.7210  175.4000  138.0970 C   0  0  0  0  0  3  0  0  0  0  0  0
  189.6750  173.8830  136.9140 C   0  0  0  0  0  3  0  0  0  0  0  0
  192.9640  176.4860  138.5850 C   0  0  0  0  0  3  0  0  0  0  0  0
  191.5640  176.5070  138.4480 C   0  0  0  0  0  0  0  0  0  0  0  0
  193.0880  174.3140  137.4680 C   0  0  0  0  0  3  0  0  0  0  0  0
  190.9610  175.4050  137.8200 C   0  0  0  0  0  0  0  0  0  0  0  0
  191.7010  174.3560  137.3520 C   0  0  0  0  0  0  0  0  0  0  0  0
  190.9220  173.4570  136.8130 O   0  0  0  0  0  0  0  0  0  0  0  0
  187.4390  178.8210  138.2840 O   0  0  0  0  0  0  0  0  0  0  0  0
  186.5890  177.8380  137.7160 C   0  0  0  0  0  1  0  0  0  0  0  0
  1  8  2  0  0  0  0
  1  7  1  0  0  0  0
  4  9  1  6  0  0  0
  4 13  1  0  0  0  0
  5 14  1  6  0  0  0
  5  4  1  0  0  0  0
  5  1  1  0  0  0  0
  6  3  1  0  0  0  0
 10  3  1  0  0  0  0
 10 14  1  1  0  0  0
 10  9  1  0  0  0  0
 11  6  2  0  0  0  0
 11 12  1  0  0  0  0
 12 19  1  6  0  0  0
 12 10  1  0  0  0  0
 13  2  1  6  0  0  0
 13  7  1  0  0  0  0
 15 21  1  0  0  0  0
 16 18  1  0  0  0  0
 17 15  2  0  0  0  0
 19 18  2  0  0  0  0
 20 16  2  0  0  0  0
 21 19  1  0  0  0  0
 22 20  1  0  0  0  0
 22 21  2  0  0  0  0
 23 17  1  0  0  0  0
 23 22  1  0  0  0  0
 24  6  1  0  0  0  0
 25 24  1  0  0  0  0
M  END
>  <MODEL>
4

>  <REMARK>
 VINA RESULT:      -7.0      3.718      6.729
  Name = 
  2 active torsions:
  status: ('A' for Active; 'I' for Inactive)
    1  A    between atoms: O_2  and  C_13
    2  A    between atoms: C_12  and  C_22
                            x       y       z     vdW  Elec       q    Type
                         _______ _______ _______ _____ _____    ______ ____

>  <TORSDO>
F 2

$$$$
=
 OpenBabel11062413513D

 25 29  0  0  1  0  0  0  0  0999 V2000
  190.3440  175.6490  142.9020 C   0  0  0  0  0  0  0  0  0  0  0  0
  192.0670  178.6740  143.4970 C   0  0  0  0  0  1  0  0  0  0  0  0
  189.1510  177.5380  145.6960 S   0  0  0  0  0  0  0  0  0  0  0  0
  189.9280  177.8790  142.2550 C   0  0  1  0  0  3  0  0  0  0  0  0
  189.2670  176.5000  142.3480 C   0  0  2  0  0  3  0  0  0  0  0  0
  187.5440  177.6460  146.4810 C   0  0  0  0  0  0  0  0  0  0  0  0
  191.5730  176.3190  143.0750 N   0  0  0  0  0  2  0  0  0  0  0  0
  190.1950  174.4330  143.1930 O   0  0  0  0  0  0  0  0  0  0  0  0
  189.2140  178.7880  143.2540 C   0  0  0  0  0  2  0  0  0  0  0  0
  188.3290  177.9090  144.1120 C   0  0  2  0  0  0  0  0  0  0  0  0
  186.6070  178.1910  145.7870 N   0  0  0  0  0  0  0  0  0  0  0  0
  187.0260  178.6390  144.4720 C   0  0  2  0  0  3  0  0  0  0  0  0
  191.4350  177.6640  142.5510 C   0  0  2  0  0  3  0  0  0  0  0  0
  188.1210  176.6170  143.3380 C   0  0  0  0  0  2  0  0  0  0  0  0
  183.9220  178.8430  144.9910 C   0  0  0  0  0  3  0  0  0  0  0  0
  185.2370  178.2570  141.1200 C   0  0  0  0  0  3  0  0  0  0  0  0
  182.5640  178.8400  144.6680 C   0  0  0  0  0  3  0  0  0  0  0  0
  186.2470  178.3590  142.1000 C   0  0  0  0  0  3  0  0  0  0  0  0
  185.9190  178.5670  143.4520 C   0  0  0  0  0  0  0  0  0  0  0  0
  183.8820  178.3560  141.4790 C   0  0  0  0  0  3  0  0  0  0  0  0
  184.5560  178.6570  143.7790 C   0  0  0  0  0  0  0  0  0  0  0  0
  183.5840  178.5550  142.8240 C   0  0  0  0  0  0  0  0  0  0  0  0
  182.4020  178.6670  143.3670 O   0  0  0  0  0  0  0  0  0  0  0  0
  187.2800  177.1410  147.7540 O   0  0  0  0  0  0  0  0  0  0  0  0
  187.9320  177.6410  148.9110 C   0  0  0  0  0  1  0  0  0  0  0  0
  1  7  1  0  0  0  0
  1  8  2  0  0  0  0
  3  6  1  0  0  0  0
  4  5  1  0  0  0  0
  4 13  1  0  0  0  0
  4  9  1  1  0  0  0
  5  1  1  0  0  0  0
  5 14  1  1  0  0  0
  6 24  1  0  0  0  0
 10  9  1  6  0  0  0
 10 12  1  0  0  0  0
 10  3  1  0  0  0  0
 11  6  2  0  0  0  0
 12 19  1  6  0  0  0
 12 11  1  0  0  0  0
 13  7  1  0  0  0  0
 13  2  1  1  0  0  0
 14 10  1  0  0  0  0
 16 20  2  0  0  0  0
 16 18  1  0  0  0  0
 17 15  2  0  0  0  0
 18 19  2  0  0  0  0
 19 21  1  0  0  0  0
 20 22  1  0  0  0  0
 21 15  1  0  0  0  0
 22 23  1  0  0  0  0
 22 21  2  0  0  0  0
 23 17  1  0  0  0  0
 24 25  1  0  0  0  0
M  END
>  <MODEL>
5

>  <REMARK>
 VINA RESULT:      -7.0      2.544      4.142
  Name = 
  2 active torsions:
  status: ('A' for Active; 'I' for Inactive)
    1  A    between atoms: O_2  and  C_13
    2  A    between atoms: C_12  and  C_22
                            x       y       z     vdW  Elec       q    Type
                         _______ _______ _______ _____ _____    ______ ____

>  <TORSDO>
F 2

$$$$
=
 OpenBabel11062413513D

 25 29  0  0  1  0  0  0  0  0999 V2000
  191.3540  178.6680  144.5520 C   0  0  0  0  0  0  0  0  0  0  0  0
  191.7310  175.1620  144.3400 C   0  0  0  0  0  1  0  0  0  0  0  0
  190.5670  177.2580  141.3600 S   0  0  0  0  0  0  0  0  0  0  0  0
  189.8370  176.8790  144.8080 C   0  0  1  0  0  3  0  0  0  0  0  0
  189.9000  178.3970  144.6090 C   0  0  2  0  0  3  0  0  0  0  0  0
  189.4640  177.7810  140.0490 C   0  0  0  0  0  0  0  0  0  0  0  0
  192.1580  177.5290  144.7680 N   0  0  0  0  0  2  0  0  0  0  0  0
  191.8460  179.8070  144.3370 O   0  0  0  0  0  0  0  0  0  0  0  0
  189.2180  176.2850  143.5430 C   0  0  0  0  0  2  0  0  0  0  0  0
  189.1580  177.3890  142.5090 C   0  0  2  0  0  0  0  0  0  0  0  0
  188.2050  177.7390  140.3130 N   0  0  0  0  0  0  0  0  0  0  0  0
  187.8940  177.2560  141.6460 C   0  0  2  0  0  3  0  0  0  0  0  0
  191.2900  176.4120  145.0860 C   0  0  2  0  0  3  0  0  0  0  0  0
  189.2510  178.7020  143.2700 C   0  0  0  0  0  2  0  0  0  0  0  0
  185.5460  178.6270  140.0490 C   0  0  0  0  0  3  0  0  0  0  0  0
  185.2950  178.4660  144.1670 C   0  0  0  0  0  3  0  0  0  0  0  0
  184.3380  179.3040  139.8720 C   0  0  0  0  0  3  0  0  0  0  0  0
  186.4450  177.8780  143.6010 C   0  0  0  0  0  3  0  0  0  0  0  0
  186.6360  177.8660  142.2080 C   0  0  0  0  0  0  0  0  0  0  0  0
  184.3180  179.0560  143.3470 C   0  0  0  0  0  3  0  0  0  0  0  0
  185.6450  178.4680  141.4160 C   0  0  0  0  0  0  0  0  0  0  0  0
  184.5340  179.0370  141.9720 C   0  0  0  0  0  0  0  0  0  0  0  0
  183.7630  179.5300  141.0410 O   0  0  0  0  0  0  0  0  0  0  0  0
  189.9130  178.2540  138.8160 O   0  0  0  0  0  0  0  0  0  0  0  0
  189.0560  178.9380  137.9170 C   0  0  0  0  0  1  0  0  0  0  0  0
  1  5  1  0  0  0  0
  1  7  1  0  0  0  0
  3 10  1  0  0  0  0
  4  9  1  6  0  0  0
  4 13  1  0  0  0  0
  5 14  1  6  0  0  0
  5  4  1  0  0  0  0
  6 11  2  0  0  0  0
  6  3  1  0  0  0  0
  7 13  1  0  0  0  0
  8  1  2  0  0  0  0
 10 14  1  1  0  0  0
 10  9  1  0  0  0  0
 11 12  1  0  0  0  0
 12 19  1  1  0  0  0
 12 10  1  0  0  0  0
 13  2  1  6  0  0  0
 15 21  1  0  0  0  0
 17 15  2  0  0  0  0
 17 23  1  0  0  0  0
 18 16  1  0  0  0  0
 19 18  2  0  0  0  0
 20 16  2  0  0  0  0
 21 22  2  0  0  0  0
 21 19  1  0  0  0  0
 22 20  1  0  0  0  0
 23 22  1  0  0  0  0
 24  6  1  0  0  0  0
 25 24  1  0  0  0  0
M  END
>  <MODEL>
6

>  <REMARK>
 VINA RESULT:      -7.0      1.241      1.471
  Name = 
  2 active torsions:
  status: ('A' for Active; 'I' for Inactive)
    1  A    between atoms: O_2  and  C_13
    2  A    between atoms: C_12  and  C_22
                            x       y       z     vdW  Elec       q    Type
                         _______ _______ _______ _____ _____    ______ ____

>  <TORSDO>
F 2

$$$$
=
 OpenBabel11062413513D

 25 29  0  0  1  0  0  0  0  0999 V2000
  182.0020  174.9280  137.9570 C   0  0  0  0  0  0  0  0  0  0  0  0
  180.4480  177.4530  136.0360 C   0  0  0  0  0  1  0  0  0  0  0  0
  183.9730  177.8720  137.4600 S   0  0  0  0  0  0  0  0  0  0  0  0
  180.7580  176.8450  138.5440 C   0  0  1  0  0  3  0  0  0  0  0  0
  181.6990  175.7850  139.1260 C   0  0  2  0  0  3  0  0  0  0  0  0
  185.2750  178.6290  138.4300 C   0  0  0  0  0  0  0  0  0  0  0  0
  181.3070  175.2920  136.7840 N   0  0  0  0  0  2  0  0  0  0  0  0
  182.8000  173.9550  137.9910 O   0  0  0  0  0  0  0  0  0  0  0  0
  181.4970  178.1820  138.6020 C   0  0  0  0  0  2  0  0  0  0  0  0
  182.9380  177.8870  138.9600 C   0  0  2  0  0  0  0  0  0  0  0  0
  184.9250  179.1260  139.5650 N   0  0  0  0  0  0  0  0  0  0  0  0
  183.5110  178.9920  139.8590 C   0  0  2  0  0  3  0  0  0  0  0  0
  180.4010  176.3760  137.1100 C   0  0  2  0  0  3  0  0  0  0  0  0
  182.9520  176.5040  139.5940 C   0  0  0  0  0  2  0  0  0  0  0  0
  180.7620  179.4320  141.3420 C   0  0  0  0  0  3  0  0  0  0  0  0
  184.0760  178.4340  143.5940 C   0  0  0  0  0  3  0  0  0  0  0  0
  179.8890  179.5170  142.4280 C   0  0  0  0  0  3  0  0  0  0  0  0
  184.2900  178.5350  142.2040 C   0  0  0  0  0  3  0  0  0  0  0  0
  183.2330  178.8620  141.3350 C   0  0  0  0  0  0  0  0  0  0  0  0
  182.8010  178.6620  144.1390 C   0  0  0  0  0  3  0  0  0  0  0  0
  181.9730  179.0900  141.9110 C   0  0  0  0  0  0  0  0  0  0  0  0
  181.7740  178.9910  143.2590 C   0  0  0  0  0  0  0  0  0  0  0  0
  180.5280  179.2470  143.5530 O   0  0  0  0  0  0  0  0  0  0  0  0
  186.6100  178.6580  138.0260 O   0  0  0  0  0  0  0  0  0  0  0  0
  187.6160  177.9240  138.7060 C   0  0  0  0  0  1  0  0  0  0  0  0
  1  8  2  0  0  0  0
  1  5  1  0  0  0  0
  3  6  1  0  0  0  0
  3 10  1  0  0  0  0
  4  9  1  6  0  0  0
  4  5  1  0  0  0  0
  5 14  1  6  0  0  0
  6 11  2  0  0  0  0
  7 13  1  0  0  0  0
  7  1  1  0  0  0  0
 10  9  1  6  0  0  0
 10 14  1  0  0  0  0
 10 12  1  0  0  0  0
 11 12  1  0  0  0  0
 12 19  1  1  0  0  0
 13  2  1  6  0  0  0
 13  4  1  0  0  0  0
 15 21  1  0  0  0  0
 15 17  2  0  0  0  0
 16 20  1  0  0  0  0
 17 23  1  0  0  0  0
 18 16  2  0  0  0  0
 19 21  2  0  0  0  0
 19 18  1  0  0  0  0
 21 22  1  0  0  0  0
 22 23  1  0  0  0  0
 22 20  2  0  0  0  0
 24  6  1  0  0  0  0
 24 25  1  0  0  0  0
M  END
>  <MODEL>
7

>  <REMARK>
 VINA RESULT:      -6.8      4.582      7.518
  Name = 
  2 active torsions:
  status: ('A' for Active; 'I' for Inactive)
    1  A    between atoms: O_2  and  C_13
    2  A    between atoms: C_12  and  C_22
                            x       y       z     vdW  Elec       q    Type
                         _______ _______ _______ _____ _____    ______ ____

>  <TORSDO>
F 2

$$$$
=
 OpenBabel11062413513D

 25 29  0  0  1  0  0  0  0  0999 V2000
  182.0260  175.2120  137.4620 C   0  0  0  0  0  0  0  0  0  0  0  0
  178.9310  175.3380  139.1600 C   0  0  0  0  0  1  0  0  0  0  0  0
  180.7690  178.5070  138.0620 S   0  0  0  0  0  0  0  0  0  0  0  0
  181.4610  175.4620  139.7390 C   0  0  1  0  0  3  0  0  0  0  0  0
  182.6260  175.6140  138.7550 C   0  0  2  0  0  3  0  0  0  0  0  0
  181.5830  180.0900  138.2670 C   0  0  0  0  0  0  0  0  0  0  0  0
  180.6900  174.7710  137.5630 N   0  0  0  0  0  2  0  0  0  0  0  0
  182.6410  175.2500  136.3640 O   0  0  0  0  0  0  0  0  0  0  0  0
  181.1050  176.8640  140.2340 C   0  0  0  0  0  2  0  0  0  0  0  0
  181.8580  177.8530  139.3690 C   0  0  2  0  0  0  0  0  0  0  0  0
  182.2950  180.2320  139.3300 N   0  0  0  0  0  0  0  0  0  0  0  0
  182.3040  179.0680  140.1960 C   0  0  2  0  0  3  0  0  0  0  0  0
  180.3210  174.7520  138.9650 C   0  0  2  0  0  3  0  0  0  0  0  0
  183.0040  177.0840  138.7300 C   0  0  0  0  0  2  0  0  0  0  0  0
  182.6790  178.8180  143.3170 C   0  0  0  0  0  3  0  0  0  0  0  0
  186.0440  178.8010  140.9230 C   0  0  0  0  0  3  0  0  0  0  0  0
  183.3770  178.7070  144.5210 C   0  0  0  0  0  3  0  0  0  0  0  0
  184.8110  178.9090  140.2450 C   0  0  0  0  0  3  0  0  0  0  0  0
  183.5970  178.9180  140.9560 C   0  0  0  0  0  0  0  0  0  0  0  0
  186.0810  178.7040  142.3240 C   0  0  0  0  0  3  0  0  0  0  0  0
  183.6690  178.8250  142.3550 C   0  0  0  0  0  0  0  0  0  0  0  0
  184.8670  178.7220  143.0050 C   0  0  0  0  0  0  0  0  0  0  0  0
  184.6780  178.6510  144.2940 O   0  0  0  0  0  0  0  0  0  0  0  0
  181.5050  181.1170  137.3250 O   0  0  0  0  0  0  0  0  0  0  0  0
  180.5680  182.1750  137.4440 C   0  0  0  0  0  1  0  0  0  0  0  0
  1  7  1  0  0  0  0
  1  5  1  0  0  0  0
  3  6  1  0  0  0  0
  3 10  1  0  0  0  0
  4  9  1  6  0  0  0
  5 14  1  6  0  0  0
  5  4  1  0  0  0  0
  6 11  2  0  0  0  0
  7 13  1  0  0  0  0
  8  1  2  0  0  0  0
 10 14  1  6  0  0  0
 10 12  1  0  0  0  0
 10  9  1  0  0  0  0
 11 12  1  0  0  0  0
 12 19  1  6  0  0  0
 13  2  1  6  0  0  0
 13  4  1  0  0  0  0
 15 17  2  0  0  0  0
 16 20  1  0  0  0  0
 18 16  2  0  0  0  0
 18 19  1  0  0  0  0
 19 21  2  0  0  0  0
 20 22  2  0  0  0  0
 21 22  1  0  0  0  0
 21 15  1  0  0  0  0
 22 23  1  0  0  0  0
 23 17  1  0  0  0  0
 24 25  1  0  0  0  0
 24  6  1  0  0  0  0
M  END
>  <MODEL>
8

>  <REMARK>
 VINA RESULT:      -6.6      4.759      8.099
  Name = 
  2 active torsions:
  status: ('A' for Active; 'I' for Inactive)
    1  A    between atoms: O_2  and  C_13
    2  A    between atoms: C_12  and  C_22
                            x       y       z     vdW  Elec       q    Type
                         _______ _______ _______ _____ _____    ______ ____

>  <TORSDO>
F 2

$$$$
=
 OpenBabel11062413513D

 25 29  0  0  1  0  0  0  0  0999 V2000
  189.3030  176.3780  143.5890 C   0  0  0  0  0  0  0  0  0  0  0  0
  191.0580  179.4440  143.5930 C   0  0  0  0  0  1  0  0  0  0  0  0
  188.4130  178.6280  140.9540 S   0  0  0  0  0  0  0  0  0  0  0  0
  191.2410  177.1120  142.4600 C   0  0  1  0  0  3  0  0  0  0  0  0
  190.1840  176.0020  142.4600 C   0  0  2  0  0  3  0  0  0  0  0  0
  187.7620  178.3590  139.3060 C   0  0  0  0  0  0  0  0  0  0  0  0
  189.7400  177.5140  144.3030 N   0  0  0  0  0  2  0  0  0  0  0  0
  188.2580  175.7490  143.9010 O   0  0  0  0  0  0  0  0  0  0  0  0
  191.0530  177.9120  141.1720 C   0  0  0  0  0  2  0  0  0  0  0  0
  189.7510  177.4600  140.5450 C   0  0  2  0  0  0  0  0  0  0  0  0
  188.5520  177.7830  138.4690 N   0  0  0  0  0  0  0  0  0  0  0  0
  189.8580  177.4580  139.0130 C   0  0  2  0  0  3  0  0  0  0  0  0
  191.0160  177.9320  143.7570 C   0  0  2  0  0  3  0  0  0  0  0  0
  189.4310  176.0990  141.1450 C   0  0  0  0  0  2  0  0  0  0  0  0
  192.9160  176.7520  138.7140 C   0  0  0  0  0  3  0  0  0  0  0  0
  190.1280  174.1010  137.2130 C   0  0  0  0  0  3  0  0  0  0  0  0
  194.0290  176.0040  138.3230 C   0  0  0  0  0  3  0  0  0  0  0  0
  189.6040  175.2550  137.8330 C   0  0  0  0  0  3  0  0  0  0  0  0
  190.4580  176.2250  138.3880 C   0  0  0  0  0  0  0  0  0  0  0  0
  191.5170  173.9020  137.1350 C   0  0  0  0  0  3  0  0  0  0  0  0
  191.8400  175.9990  138.2880 C   0  0  0  0  0  0  0  0  0  0  0  0
  192.3410  174.8800  137.6850 C   0  0  0  0  0  0  0  0  0  0  0  0
  193.6460  174.8950  137.7140 O   0  0  0  0  0  0  0  0  0  0  0  0
  186.4630  178.7030  138.9320 O   0  0  0  0  0  0  0  0  0  0  0  0
  185.7410  177.9630  137.9620 C   0  0  0  0  0  1  0  0  0  0  0  0
  1  8  2  0  0  0  0
  1  7  1  0  0  0  0
  4  9  1  6  0  0  0
  4 13  1  0  0  0  0
  5 14  1  6  0  0  0
  5  4  1  0  0  0  0
  5  1  1  0  0  0  0
  6  3  1  0  0  0  0
 10  3  1  0  0  0  0
 10 14  1  1  0  0  0
 10  9  1  0  0  0  0
 11 12  1  0  0  0  0
 11  6  2  0  0  0  0
 12 19  1  6  0  0  0
 12 10  1  0  0  0  0
 13  2  1  6  0  0  0
 13  7  1  0  0  0  0
 16 18  1  0  0  0  0
 17 15  2  0  0  0  0
 18 19  2  0  0  0  0
 20 16  2  0  0  0  0
 20 22  1  0  0  0  0
 21 19  1  0  0  0  0
 21 15  1  0  0  0  0
 22 23  1  0  0  0  0
 22 21  2  0  0  0  0
 23 17  1  0  0  0  0
 24  6  1  0  0  0  0
 25 24  1  0  0  0  0
M  END
>  <MODEL>
9

>  <REMARK>
 VINA RESULT:      -6.4      3.507      6.821
  Name = 
  2 active torsions:
  status: ('A' for Active; 'I' for Inactive)
    1  A    between atoms: O_2  and  C_13
    2  A    between atoms: C_12  and  C_22
                            x       y       z     vdW  Elec       q    Type
                         _______ _______ _______ _____ _____    ______ ____

>  <TORSDO>
F 2

$$$$
