=
 OpenBabel11062412273D

 37 43  0  0  1  0  0  0  0  0999 V2000
  184.3890  179.1630  139.7940 C   0  0  1  0  0  3  0  0  0  0  0  0
  185.4290  176.0970  137.4240 N   0  0  1  0  0  0  0  0  0  0  0  0
  183.8710  174.4260  136.2350 C   0  0  1  0  0  0  0  0  0  0  0  0
  183.4780  173.0650  135.7650 C   0  0  0  0  0  0  0  0  0  0  0  0
  187.8790  178.2750  142.0990 C   0  0  0  0  0  3  0  0  0  0  0  0
  186.7350  178.5640  141.3500 C   0  0  0  0  0  0  0  0  0  0  0  0
  189.9540  176.5990  137.9790 N   0  0  0  0  0  0  0  0  0  0  0  0
  183.1200  175.5730  135.5620 C   0  0  1  0  0  3  0  0  0  0  0  0
  186.5760  176.4250  136.5480 C   0  0  2  0  0  3  0  0  0  0  0  0
  181.2750  174.0340  135.1290 O   0  0  0  0  0  0  0  0  0  0  0  0
  187.9370  178.0850  139.3190 C   0  0  0  0  0  3  0  0  0  0  0  0
  183.2470  178.6430  138.9190 C   0  0  0  0  0  2  0  0  0  0  0  0
  184.2790  172.0940  135.8020 O   0  0  0  0  0  0  0  0  0  0  0  0
  185.8540  173.6790  137.5490 O   0  0  0  0  0  1  0  0  0  0  0  0
  191.3070  176.8930  139.8420 O   0  0  0  0  0  0  0  0  0  0  0  0
  184.3400  177.0920  137.2740 C   0  0  2  0  0  3  0  0  0  0  0  0
  180.9120  176.2990  134.9850 F   0  0  0  0  0  0  0  0  0  0  0  0
  187.8520  175.7420  137.0760 C   0  0  0  0  0  2  0  0  0  0  0  0
  189.0760  177.7260  140.0450 C   0  0  0  0  0  0  0  0  0  0  0  0
  186.7800  178.5040  139.9590 C   0  0  0  0  0  0  0  0  0  0  0  0
  181.6970  171.7850  134.8630 O   0  0  0  0  0  0  0  0  0  0  0  0
  189.0570  177.8670  141.4550 C   0  0  0  0  0  0  0  0  0  0  0  0
  184.2480  178.6340  141.2300 C   0  0  0  0  0  2  0  0  0  0  0  0
  189.1320  176.4990  136.7350 C   0  0  2  0  0  3  0  0  0  0  0  0
  190.2550  175.7030  136.8260 C   0  0  0  0  0  2  0  0  0  0  0  0
  190.1910  177.5320  142.2500 N   0  0  0  0  0  1  0  0  0  0  0  0
  185.4850  178.8390  141.9820 N   0  0  0  0  0  2  0  0  0  0  0  0
  183.6890  174.4660  137.6400 O   0  0  0  0  0  0  0  0  0  0  0  0
  185.6450  178.8090  139.2070 O   0  0  0  0  0  0  0  0  0  0  0  0
  184.9890  174.7070  137.1700 C   0  0  1  0  0  0  0  0  0  0  0  0
  183.4450  177.1820  138.5100 C   0  0  0  0  0  2  0  0  0  0  0  0
  190.1860  177.0850  139.3030 C   0  0  0  0  0  0  0  0  0  0  0  0
  181.6130  175.3210  135.6660 C   0  0  2  0  0  3  0  0  0  0  0  0
  182.1100  172.9110  135.2440 C   0  0  0  0  0  0  0  0  0  0  0  0
  183.5520  176.9880  135.9610 C   0  0  0  0  0  2  0  0  0  0  0  0
  186.8770  178.0860  135.1020 C   0  0  0  0  0  1  0  0  0  0  0  0
  186.7640  177.8150  136.4670 O   0  0  0  0  0  0  0  0  0  0  0  0
  1 12  1  6  0  0  0
  1 23  1  0  0  0  0
  3 30  1  0  0  0  0
  3 28  1  0  0  0  0
  4 13  2  0  0  0  0
  4  3  1  0  0  0  0
  6 27  1  0  0  0  0
  6  5  2  0  0  0  0
  7 32  1  0  0  0  0
  8 33  1  0  0  0  0
  8 35  1  0  0  0  0
  8  3  1  0  0  0  0
  9 18  1  0  0  0  0
  9  2  1  0  0  0  0
 10 34  1  0  0  0  0
 10 33  1  0  0  0  0
 11 20  2  0  0  0  0
 11 19  1  0  0  0  0
 16  2  1  0  0  0  0
 16 31  1  0  0  0  0
 17 33  1  0  0  0  0
 19 22  2  0  0  0  0
 20  6  1  0  0  0  0
 21 34  2  0  0  0  0
 22  5  1  0  0  0  0
 22 26  1  0  0  0  0
 23 27  1  0  0  0  0
 24 25  1  0  0  0  0
 24 18  1  0  0  0  0
 24  7  1  0  0  0  0
 25  7  1  0  0  0  0
 29  1  1  0  0  0  0
 29 20  1  0  0  0  0
 30  2  1  0  0  0  0
 30 14  1  0  0  0  0
 30 28  1  0  0  0  0
 31 12  1  0  0  0  0
 32 15  2  0  0  0  0
 32 19  1  0  0  0  0
 34  4  1  0  0  0  0
 35 16  1  0  0  0  0
 36 37  1  0  0  0  0
 37  9  1  0  0  0  0
M  END
>  <MODEL>
1

>  <REMARK>
 VINA RESULT:      -7.8      0.000      0.000
  Name = 
  1 active torsions:
  status: ('A' for Active; 'I' for Inactive)
    1  A    between atoms: C_9  and  O_28
                            x       y       z     vdW  Elec       q    Type
                         _______ _______ _______ _____ _____    ______ ____

>  <TORSDO>
F 1

$$$$
=
 OpenBabel11062412273D

 37 43  0  0  1  0  0  0  0  0999 V2000
  184.1530  179.2130  141.2150 C   0  0  1  0  0  3  0  0  0  0  0  0
  185.0040  176.8630  138.0770 N   0  0  1  0  0  0  0  0  0  0  0  0
  183.3480  175.6220  136.5440 C   0  0  1  0  0  0  0  0  0  0  0  0
  182.8880  174.4500  135.7420 C   0  0  0  0  0  0  0  0  0  0  0  0
  187.6660  177.6310  143.0700 C   0  0  0  0  0  3  0  0  0  0  0  0
  186.5140  178.1460  142.4680 C   0  0  0  0  0  0  0  0  0  0  0  0
  189.5590  177.0550  138.5780 N   0  0  0  0  0  0  0  0  0  0  0  0
  182.6260  176.9300  136.2290 C   0  0  1  0  0  3  0  0  0  0  0  0
  186.1390  177.3770  137.2780 C   0  0  2  0  0  3  0  0  0  0  0  0
  180.7090  175.6230  135.4690 O   0  0  0  0  0  0  0  0  0  0  0  0
  187.6410  178.1900  140.3390 C   0  0  0  0  0  3  0  0  0  0  0  0
  182.9680  178.9840  140.2760 C   0  0  0  0  0  2  0  0  0  0  0  0
  183.6510  173.4790  135.4890 O   0  0  0  0  0  0  0  0  0  0  0  0
  185.3350  174.4880  137.5370 O   0  0  0  0  0  1  0  0  0  0  0  0
  190.9730  176.7960  140.4010 O   0  0  0  0  0  0  0  0  0  0  0  0
  183.9530  177.8960  138.2380 C   0  0  2  0  0  3  0  0  0  0  0  0
  180.4350  177.8540  135.9490 F   0  0  0  0  0  0  0  0  0  0  0  0
  187.4010  176.5380  137.5570 C   0  0  0  0  0  2  0  0  0  0  0  0
  188.7840  177.6150  140.9010 C   0  0  0  0  0  0  0  0  0  0  0  0
  186.5190  178.4600  141.1100 C   0  0  0  0  0  0  0  0  0  0  0  0
  181.0330  173.5140  134.5980 O   0  0  0  0  0  0  0  0  0  0  0  0
  188.8080  177.3740  142.2960 C   0  0  0  0  0  0  0  0  0  0  0  0
  184.0300  178.3240  142.4630 C   0  0  0  0  0  2  0  0  0  0  0  0
  188.7000  177.3180  137.3830 C   0  0  2  0  0  3  0  0  0  0  0  0
  189.7930  176.4920  137.2170 C   0  0  0  0  0  2  0  0  0  0  0  0
  189.9500  176.8020  142.9310 N   0  0  0  0  0  1  0  0  0  0  0  0
  185.2940  178.2810  143.1950 N   0  0  0  0  0  2  0  0  0  0  0  0
  183.2060  175.2900  137.9140 O   0  0  0  0  0  0  0  0  0  0  0  0
  185.3780  178.9910  140.5090 O   0  0  0  0  0  0  0  0  0  0  0  0
  184.5020  175.6070  137.4770 C   0  0  1  0  0  0  0  0  0  0  0  0
  183.0960  177.6800  139.4850 C   0  0  0  0  0  2  0  0  0  0  0  0
  189.8460  177.1610  139.9740 C   0  0  0  0  0  0  0  0  0  0  0  0
  181.1140  176.7080  136.3180 C   0  0  2  0  0  3  0  0  0  0  0  0
  181.5010  174.4840  135.2500 C   0  0  0  0  0  0  0  0  0  0  0  0
  183.1250  178.1720  136.9750 C   0  0  0  0  0  2  0  0  0  0  0  0
  186.7160  179.3060  136.3360 C   0  0  0  0  0  1  0  0  0  0  0  0
  186.3810  178.7310  137.5640 O   0  0  0  0  0  0  0  0  0  0  0  0
  1 12  1  6  0  0  0
  1 23  1  0  0  0  0
  2 16  1  0  0  0  0
  3 30  1  0  0  0  0
  3 28  1  0  0  0  0
  4  3  1  0  0  0  0
  6  5  1  0  0  0  0
  6 27  1  0  0  0  0
  7 32  1  0  0  0  0
  8 33  1  0  0  0  0
  8  3  1  0  0  0  0
  8 35  1  0  0  0  0
  9 18  1  0  0  0  0
  9 37  1  0  0  0  0
  9  2  1  0  0  0  0
 10 33  1  0  0  0  0
 11 19  2  0  0  0  0
 11 20  1  0  0  0  0
 13  4  2  0  0  0  0
 16 31  1  0  0  0  0
 17 33  1  0  0  0  0
 19 22  1  0  0  0  0
 20  6  2  0  0  0  0
 21 34  2  0  0  0  0
 22 26  1  0  0  0  0
 22  5  2  0  0  0  0
 23 27  1  0  0  0  0
 24 18  1  0  0  0  0
 24  7  1  0  0  0  0
 25 24  1  0  0  0  0
 25  7  1  0  0  0  0
 29 20  1  0  0  0  0
 29  1  1  0  0  0  0
 30 14  1  0  0  0  0
 30 28  1  0  0  0  0
 30  2  1  0  0  0  0
 31 12  1  0  0  0  0
 32 15  2  0  0  0  0
 32 19  1  0  0  0  0
 34 10  1  0  0  0  0
 34  4  1  0  0  0  0
 35 16  1  0  0  0  0
 36 37  1  0  0  0  0
M  END
>  <MODEL>
2

>  <REMARK>
 VINA RESULT:      -6.5      1.173      1.315
  Name = 
  1 active torsions:
  status: ('A' for Active; 'I' for Inactive)
    1  A    between atoms: C_9  and  O_28
                            x       y       z     vdW  Elec       q    Type
                         _______ _______ _______ _____ _____    ______ ____

>  <TORSDO>
F 1

$$$$
=
 OpenBabel11062412273D

 37 43  0  0  1  0  0  0  0  0999 V2000
  184.9710  179.0140  143.0560 C   0  0  1  0  0  3  0  0  0  0  0  0
  184.0980  177.4900  139.4490 N   0  0  1  0  0  0  0  0  0  0  0  0
  181.8980  176.3780  138.7000 C   0  0  1  0  0  0  0  0  0  0  0  0
  181.1010  175.3430  137.9780 C   0  0  0  0  0  0  0  0  0  0  0  0
  188.9510  177.5710  142.4560 C   0  0  0  0  0  3  0  0  0  0  0  0
  187.6490  178.0400  142.6570 C   0  0  0  0  0  0  0  0  0  0  0  0
  188.2530  178.1830  137.6360 N   0  0  0  0  0  0  0  0  0  0  0  0
  181.1060  177.6140  139.1180 C   0  0  1  0  0  3  0  0  0  0  0  0
  184.6500  178.3040  138.3440 C   0  0  2  0  0  3  0  0  0  0  0  0
  179.0850  176.2450  139.1260 O   0  0  0  0  0  0  0  0  0  0  0  0
  187.5120  178.6680  140.3360 C   0  0  0  0  0  3  0  0  0  0  0  0
  183.4730  178.8240  142.8120 C   0  0  0  0  0  2  0  0  0  0  0  0
  181.6320  174.5560  137.1490 O   0  0  0  0  0  0  0  0  0  0  0  0
  184.1230  175.3410  138.2550 O   0  0  0  0  0  1  0  0  0  0  0  0
  190.4080  177.7500  138.3820 O   0  0  0  0  0  0  0  0  0  0  0  0
  183.2720  178.3180  140.3610 C   0  0  2  0  0  3  0  0  0  0  0  0
  179.0770  178.2740  140.2060 F   0  0  0  0  0  0  0  0  0  0  0  0
  185.8820  177.6010  137.7410 C   0  0  0  0  0  2  0  0  0  0  0  0
  188.7860  178.1480  140.0910 C   0  0  0  0  0  0  0  0  0  0  0  0
  186.9480  178.6220  141.6020 C   0  0  0  0  0  0  0  0  0  0  0  0
  178.9310  174.4220  137.7250 O   0  0  0  0  0  0  0  0  0  0  0  0
  189.5310  177.6320  141.1790 C   0  0  0  0  0  0  0  0  0  0  0  0
  185.5200  177.8810  143.9380 C   0  0  0  0  0  2  0  0  0  0  0  0
  186.8980  178.5680  137.1370 C   0  0  2  0  0  3  0  0  0  0  0  0
  187.7540  177.9470  136.2510 C   0  0  0  0  0  2  0  0  0  0  0  0
  190.8410  177.1010  140.9970 N   0  0  0  0  0  1  0  0  0  0  0  0
  186.9810  177.8580  143.9040 N   0  0  0  0  0  2  0  0  0  0  0  0
  182.4890  175.7570  139.8280 O   0  0  0  0  0  0  0  0  0  0  0  0
  185.6560  179.1070  141.8030 O   0  0  0  0  0  0  0  0  0  0  0  0
  183.3690  176.3270  138.8960 C   0  0  1  0  0  0  0  0  0  0  0  0
  183.1850  177.7390  141.7720 C   0  0  0  0  0  2  0  0  0  0  0  0
  189.2200  178.0400  138.6790 C   0  0  0  0  0  0  0  0  0  0  0  0
  179.8600  177.1780  139.8940 C   0  0  2  0  0  3  0  0  0  0  0  0
  179.6590  175.2920  138.2700 C   0  0  0  0  0  0  0  0  0  0  0  0
  181.9070  178.7330  139.7920 C   0  0  0  0  0  2  0  0  0  0  0  0
  183.9540  180.4140  138.3530 C   0  0  0  0  0  1  0  0  0  0  0  0
  184.9930  179.5910  138.7910 O   0  0  0  0  0  0  0  0  0  0  0  0
  1 12  1  6  0  0  0
  1 23  1  0  0  0  0
  2 16  1  0  0  0  0
  3 30  1  0  0  0  0
  3  8  1  0  0  0  0
  3 28  1  0  0  0  0
  4 34  1  0  0  0  0
  4  3  1  0  0  0  0
  5  6  1  0  0  0  0
  6 27  1  0  0  0  0
  7 32  1  0  0  0  0
  8 35  1  0  0  0  0
  8 33  1  0  0  0  0
  9 37  1  0  0  0  0
  9  2  1  0  0  0  0
 10 33  1  0  0  0  0
 11 20  1  0  0  0  0
 13  4  2  0  0  0  0
 14 30  1  0  0  0  0
 15 32  2  0  0  0  0
 16 31  1  0  0  0  0
 18  9  1  0  0  0  0
 19 11  2  0  0  0  0
 19 22  1  0  0  0  0
 20 29  1  0  0  0  0
 20  6  2  0  0  0  0
 21 34  2  0  0  0  0
 22  5  2  0  0  0  0
 24  7  1  0  0  0  0
 24 18  1  0  0  0  0
 25 24  1  0  0  0  0
 25  7  1  0  0  0  0
 26 22  1  0  0  0  0
 27 23  1  0  0  0  0
 29  1  1  0  0  0  0
 30  2  1  0  0  0  0
 30 28  1  0  0  0  0
 31 12  1  0  0  0  0
 32 19  1  0  0  0  0
 33 17  1  0  0  0  0
 34 10  1  0  0  0  0
 35 16  1  0  0  0  0
 36 37  1  0  0  0  0
M  END
>  <MODEL>
3

>  <REMARK>
 VINA RESULT:      -6.4      2.479      3.351
  Name = 
  1 active torsions:
  status: ('A' for Active; 'I' for Inactive)
    1  A    between atoms: C_9  and  O_28
                            x       y       z     vdW  Elec       q    Type
                         _______ _______ _______ _____ _____    ______ ____

>  <TORSDO>
F 1

$$$$
=
 OpenBabel11062412273D

 37 43  0  0  1  0  0  0  0  0999 V2000
  188.1530  172.4980  134.5940 C   0  0  1  0  0  3  0  0  0  0  0  0
  188.8560  175.6360  136.9930 N   0  0  1  0  0  0  0  0  0  0  0  0
  191.0960  176.3400  138.0500 C   0  0  1  0  0  0  0  0  0  0  0  0
  191.9470  176.8530  139.1630 C   0  0  0  0  0  0  0  0  0  0  0  0
  184.3600  172.1460  136.5350 C   0  0  0  0  0  3  0  0  0  0  0  0
  185.6020  172.2550  135.9020 C   0  0  0  0  0  0  0  0  0  0  0  0
  184.4840  176.9980  137.2630 N   0  0  0  0  0  0  0  0  0  0  0  0
  191.7560  176.3840  136.6740 C   0  0  1  0  0  3  0  0  0  0  0  0
  188.0920  176.8370  136.5890 C   0  0  2  0  0  3  0  0  0  0  0  0
  193.9310  176.2730  137.7760 O   0  0  0  0  0  0  0  0  0  0  0  0
  185.4210  174.6570  135.9540 C   0  0  0  0  0  3  0  0  0  0  0  0
  189.6310  172.8780  134.6960 C   0  0  0  0  0  2  0  0  0  0  0  0
  191.4460  177.3570  140.2040 O   0  0  0  0  0  0  0  0  0  0  0  0
  188.9960  176.1840  139.3850 O   0  0  0  0  0  1  0  0  0  0  0  0
  182.4910  175.8820  137.6760 O   0  0  0  0  0  0  0  0  0  0  0  0
  189.6520  175.1030  135.8610 C   0  0  2  0  0  3  0  0  0  0  0  0
  193.7780  175.7980  135.5320 F   0  0  0  0  0  0  0  0  0  0  0  0
  186.9100  177.0560  137.5530 C   0  0  0  0  0  2  0  0  0  0  0  0
  184.2090  174.5780  136.6460 C   0  0  0  0  0  0  0  0  0  0  0  0
  186.1100  173.5120  135.5800 C   0  0  0  0  0  0  0  0  0  0  0  0
  194.1850  177.1310  139.8990 O   0  0  0  0  0  0  0  0  0  0  0  0
  183.6520  173.3010  136.8990 C   0  0  0  0  0  0  0  0  0  0  0  0
  187.8510  171.2760  135.4760 C   0  0  0  0  0  2  0  0  0  0  0  0
  185.7200  177.7600  136.9050 C   0  0  2  0  0  3  0  0  0  0  0  0
  184.8690  178.3200  137.8350 C   0  0  0  0  0  2  0  0  0  0  0  0
  182.4120  173.1550  137.5870 N   0  0  0  0  0  1  0  0  0  0  0  0
  186.4100  171.1070  135.6510 N   0  0  0  0  0  2  0  0  0  0  0  0
  190.7100  175.0170  138.3770 O   0  0  0  0  0  0  0  0  0  0  0  0
  187.3400  173.6260  134.9320 O   0  0  0  0  0  0  0  0  0  0  0  0
  189.6730  175.9440  138.1870 C   0  0  1  0  0  0  0  0  0  0  0  0
  189.9550  173.6120  136.0000 C   0  0  0  0  0  2  0  0  0  0  0  0
  183.6540  175.8360  137.1970 C   0  0  0  0  0  0  0  0  0  0  0  0
  193.1200  175.6920  136.7440 C   0  0  2  0  0  3  0  0  0  0  0  0
  193.4050  176.7520  138.9860 C   0  0  0  0  0  0  0  0  0  0  0  0
  190.8850  175.9400  135.4930 C   0  0  0  0  0  2  0  0  0  0  0  0
  188.0630  177.8770  134.6240 C   0  0  0  0  0  1  0  0  0  0  0  0
  187.6280  176.7160  135.2680 O   0  0  0  0  0  0  0  0  0  0  0  0
  1 12  1  1  0  0  0
  1 29  1  0  0  0  0
  1 23  1  0  0  0  0
  2 30  1  0  0  0  0
  3 30  1  0  0  0  0
  3 28  1  0  0  0  0
  3  4  1  0  0  0  0
  4 13  2  0  0  0  0
  5 22  1  0  0  0  0
  6  5  2  0  0  0  0
  7 25  1  0  0  0  0
  8 33  1  0  0  0  0
  8  3  1  0  0  0  0
  9  2  1  0  0  0  0
  9 18  1  0  0  0  0
 10 34  1  0  0  0  0
 11 19  1  0  0  0  0
 12 31  1  0  0  0  0
 16 31  1  0  0  0  0
 16  2  1  0  0  0  0
 17 33  1  0  0  0  0
 19 22  2  0  0  0  0
 19 32  1  0  0  0  0
 20  6  1  0  0  0  0
 20 11  2  0  0  0  0
 22 26  1  0  0  0  0
 23 27  1  0  0  0  0
 24  7  1  0  0  0  0
 24 18  1  0  0  0  0
 24 25  1  0  0  0  0
 27  6  1  0  0  0  0
 29 20  1  0  0  0  0
 30 28  1  0  0  0  0
 30 14  1  0  0  0  0
 32  7  1  0  0  0  0
 32 15  2  0  0  0  0
 33 10  1  0  0  0  0
 34  4  1  0  0  0  0
 34 21  2  0  0  0  0
 35 16  1  0  0  0  0
 35  8  1  0  0  0  0
 36 37  1  0  0  0  0
 37  9  1  0  0  0  0
M  END
>  <MODEL>
4

>  <REMARK>
 VINA RESULT:      -6.0      3.469      8.252
  Name = 
  1 active torsions:
  status: ('A' for Active; 'I' for Inactive)
    1  A    between atoms: C_9  and  O_28
                            x       y       z     vdW  Elec       q    Type
                         _______ _______ _______ _____ _____    ______ ____

>  <TORSDO>
F 1

$$$$
=
 OpenBabel11062412273D

 37 43  0  0  1  0  0  0  0  0999 V2000
  179.8450  175.1360  140.0250 C   0  0  1  0  0  3  0  0  0  0  0  0
  181.5610  178.4080  138.4630 N   0  0  1  0  0  0  0  0  0  0  0  0
  180.6320  180.8100  138.4280 C   0  0  1  0  0  0  0  0  0  0  0  0
  180.3700  182.1340  137.7900 C   0  0  0  0  0  0  0  0  0  0  0  0
  181.5440  172.9580  136.7620 C   0  0  0  0  0  3  0  0  0  0  0  0
  180.9830  173.6680  137.8280 C   0  0  0  0  0  0  0  0  0  0  0  0
  185.2010  176.2310  136.7170 N   0  0  0  0  0  0  0  0  0  0  0  0
  180.4720  180.7940  139.9460 C   0  0  1  0  0  3  0  0  0  0  0  0
  183.0240  178.4400  138.6860 C   0  0  2  0  0  3  0  0  0  0  0  0
  178.9310  182.6760  139.7480 O   0  0  0  0  0  0  0  0  0  0  0  0
  182.9810  175.0030  137.9950 C   0  0  0  0  0  3  0  0  0  0  0  0
  179.2510  176.4490  140.5380 C   0  0  0  0  0  2  0  0  0  0  0  0
  180.9170  182.4670  136.7050 O   0  0  0  0  0  0  0  0  0  0  0  0
  181.5660  179.7240  136.3860 O   0  0  0  0  0  1  0  0  0  0  0  0
  185.4450  174.3020  135.4480 O   0  0  0  0  0  0  0  0  0  0  0  0
  180.8300  178.2320  139.7410 C   0  0  2  0  0  3  0  0  0  0  0  0
  178.9700  181.4500  141.6920 F   0  0  0  0  0  0  0  0  0  0  0  0
  183.7620  178.0910  137.3780 C   0  0  0  0  0  2  0  0  0  0  0  0
  183.5410  174.3540  136.8910 C   0  0  0  0  0  0  0  0  0  0  0  0
  181.7210  174.6640  138.4650 C   0  0  0  0  0  0  0  0  0  0  0  0
  179.1520  184.1580  137.9980 O   0  0  0  0  0  0  0  0  0  0  0  0
  182.8260  173.2860  136.2960 C   0  0  0  0  0  0  0  0  0  0  0  0
  178.9320  174.5150  138.9570 C   0  0  0  0  0  2  0  0  0  0  0  0
  185.1190  177.4310  137.6040 C   0  0  2  0  0  3  0  0  0  0  0  0
  185.9340  177.5100  136.4940 C   0  0  0  0  0  2  0  0  0  0  0  0
  183.3500  172.5750  135.1760 N   0  0  0  0  0  1  0  0  0  0  0  0
  179.6300  173.4580  138.2280 N   0  0  0  0  0  2  0  0  0  0  0  0
  179.7690  179.8620  137.8240 O   0  0  0  0  0  0  0  0  0  0  0  0
  181.1710  175.3630  139.5400 O   0  0  0  0  0  0  0  0  0  0  0  0
  181.1460  179.6150  137.7140 C   0  0  1  0  0  0  0  0  0  0  0  0
  179.4500  177.6020  139.5520 C   0  0  0  0  0  2  0  0  0  0  0  0
  184.7860  174.9210  136.3240 C   0  0  0  0  0  0  0  0  0  0  0  0
  179.1040  181.3700  140.3180 C   0  0  2  0  0  3  0  0  0  0  0  0
  179.4480  183.0400  138.4940 C   0  0  0  0  0  0  0  0  0  0  0  0
  180.8100  179.4720  140.6450 C   0  0  0  0  0  2  0  0  0  0  0  0
  184.1360  178.3180  140.6060 C   0  0  0  0  0  1  0  0  0  0  0  0
  183.3940  177.5490  139.7070 O   0  0  0  0  0  0  0  0  0  0  0  0
  1 23  1  6  0  0  0
  1 12  1  0  0  0  0
  2  9  1  0  0  0  0
  2 16  1  0  0  0  0
  3  8  1  0  0  0  0
  4  3  1  0  0  0  0
  4 34  1  0  0  0  0
  5  6  1  0  0  0  0
  6 27  1  0  0  0  0
  6 20  2  0  0  0  0
  7 24  1  0  0  0  0
  8 33  1  0  0  0  0
  8 35  1  0  0  0  0
  9 37  1  0  0  0  0
 10 33  1  0  0  0  0
 11 20  1  0  0  0  0
 13  4  2  0  0  0  0
 14 30  1  0  0  0  0
 15 32  2  0  0  0  0
 16 35  1  0  0  0  0
 18 24  1  0  0  0  0
 18  9  1  0  0  0  0
 19 11  2  0  0  0  0
 20 29  1  0  0  0  0
 21 34  2  0  0  0  0
 22  5  2  0  0  0  0
 22 19  1  0  0  0  0
 25  7  1  0  0  0  0
 25 24  1  0  0  0  0
 26 22  1  0  0  0  0
 27 23  1  0  0  0  0
 28  3  1  0  0  0  0
 29  1  1  0  0  0  0
 30 28  1  0  0  0  0
 30  3  1  0  0  0  0
 30  2  1  0  0  0  0
 31 16  1  0  0  0  0
 31 12  1  0  0  0  0
 32  7  1  0  0  0  0
 32 19  1  0  0  0  0
 33 17  1  0  0  0  0
 34 10  1  0  0  0  0
 37 36  1  0  0  0  0
M  END
>  <MODEL>
5

>  <REMARK>
 VINA RESULT:      -5.8      4.213      7.507
  Name = 
  1 active torsions:
  status: ('A' for Active; 'I' for Inactive)
    1  A    between atoms: C_9  and  O_28
                            x       y       z     vdW  Elec       q    Type
                         _______ _______ _______ _____ _____    ______ ____

>  <TORSDO>
F 1

$$$$
=
 OpenBabel11062412273D

 37 43  0  0  1  0  0  0  0  0999 V2000
  185.2530  176.0820  136.1310 C   0  0  1  0  0  3  0  0  0  0  0  0
  181.6840  175.7870  137.9410 N   0  0  1  0  0  0  0  0  0  0  0  0
  180.7390  177.2820  139.8130 C   0  0  1  0  0  0  0  0  0  0  0  0
  179.9970  177.5250  141.0850 C   0  0  0  0  0  0  0  0  0  0  0  0
  185.2810  171.8090  135.9820 C   0  0  0  0  0  3  0  0  0  0  0  0
  185.2770  173.2060  136.0340 C   0  0  0  0  0  0  0  0  0  0  0  0
  180.3800  171.9630  135.7690 N   0  0  0  0  0  0  0  0  0  0  0  0
  180.9600  178.5290  138.9580 C   0  0  1  0  0  3  0  0  0  0  0  0
  180.6030  175.4170  137.0000 C   0  0  2  0  0  3  0  0  0  0  0  0
  180.8050  179.8780  140.9860 O   0  0  0  0  0  0  0  0  0  0  0  0
  182.9180  173.2210  135.5480 C   0  0  0  0  0  3  0  0  0  0  0  0
  184.8310  177.3500  136.8750 C   0  0  0  0  0  2  0  0  0  0  0  0
  179.3050  176.6250  141.6300 O   0  0  0  0  0  0  0  0  0  0  0  0
  180.6640  174.7930  139.9450 O   0  0  0  0  0  1  0  0  0  0  0  0
  181.4290  169.9360  135.3460 O   0  0  0  0  0  0  0  0  0  0  0  0
  182.4180  176.9850  137.4670 C   0  0  2  0  0  3  0  0  0  0  0  0
  181.7240  180.7940  139.0900 F   0  0  0  0  0  0  0  0  0  0  0  0
  180.2180  173.9380  137.1980 C   0  0  0  0  0  2  0  0  0  0  0  0
  182.8800  171.8240  135.5540 C   0  0  0  0  0  0  0  0  0  0  0  0
  184.1010  173.9080  135.7780 C   0  0  0  0  0  0  0  0  0  0  0  0
  179.5330  179.1380  142.7600 O   0  0  0  0  0  0  0  0  0  0  0  0
  184.0900  171.1110  135.7310 C   0  0  0  0  0  0  0  0  0  0  0  0
  186.2790  175.2900  136.9580 C   0  0  0  0  0  2  0  0  0  0  0  0
  179.6820  173.2750  135.9320 C   0  0  2  0  0  3  0  0  0  0  0  0
  178.9640  172.1290  136.2020 C   0  0  0  0  0  2  0  0  0  0  0  0
  184.1190  169.6860  135.7330 N   0  0  0  0  0  1  0  0  0  0  0  0
  186.4370  173.9370  136.4290 N   0  0  0  0  0  2  0  0  0  0  0  0
  181.9770  176.6780  140.1440 O   0  0  0  0  0  0  0  0  0  0  0  0
  184.0960  175.3030  135.8120 O   0  0  0  0  0  0  0  0  0  0  0  0
  181.1270  175.9440  139.3020 C   0  0  1  0  0  0  0  0  0  0  0  0
  183.8450  177.0590  138.0090 C   0  0  0  0  0  2  0  0  0  0  0  0
  181.5470  171.1770  135.5180 C   0  0  0  0  0  0  0  0  0  0  0  0
  181.5970  179.6240  139.8160 C   0  0  2  0  0  3  0  0  0  0  0  0
  180.1030  178.8720  141.6700 C   0  0  0  0  0  0  0  0  0  0  0  0
  181.6480  178.3060  137.6070 C   0  0  0  0  0  2  0  0  0  0  0  0
  179.9500  176.3760  135.1040 C   0  0  0  0  0  1  0  0  0  0  0  0
  180.9970  175.6450  135.6700 O   0  0  0  0  0  0  0  0  0  0  0  0
  1 12  1  1  0  0  0
  1 23  1  0  0  0  0
  2 30  1  0  0  0  0
  3 28  1  0  0  0  0
  3  4  1  0  0  0  0
  4 13  2  0  0  0  0
  4 34  1  0  0  0  0
  5  6  1  0  0  0  0
  6 27  1  0  0  0  0
  7 24  1  0  0  0  0
  7 25  1  0  0  0  0
  8  3  1  0  0  0  0
  8 33  1  0  0  0  0
  9 18  1  0  0  0  0
  9  2  1  0  0  0  0
 10 34  1  0  0  0  0
 11 19  2  0  0  0  0
 11 20  1  0  0  0  0
 12 31  1  0  0  0  0
 15 32  2  0  0  0  0
 16 35  1  0  0  0  0
 16  2  1  0  0  0  0
 16 31  1  0  0  0  0
 17 33  1  0  0  0  0
 19 22  1  0  0  0  0
 20 29  1  0  0  0  0
 20  6  2  0  0  0  0
 22 26  1  0  0  0  0
 22  5  2  0  0  0  0
 24 25  1  0  0  0  0
 24 18  1  0  0  0  0
 27 23  1  0  0  0  0
 29  1  1  0  0  0  0
 30  3  1  0  0  0  0
 30 14  1  0  0  0  0
 30 28  1  0  0  0  0
 32 19  1  0  0  0  0
 32  7  1  0  0  0  0
 33 10  1  0  0  0  0
 34 21  2  0  0  0  0
 35  8  1  0  0  0  0
 36 37  1  0  0  0  0
 37  9  1  0  0  0  0
M  END
>  <MODEL>
6

>  <REMARK>
 VINA RESULT:      -5.6      3.829      7.730
  Name = 
  1 active torsions:
  status: ('A' for Active; 'I' for Inactive)
    1  A    between atoms: C_9  and  O_28
                            x       y       z     vdW  Elec       q    Type
                         _______ _______ _______ _____ _____    ______ ____

>  <TORSDO>
F 1

$$$$
=
 OpenBabel11062412273D

 37 43  0  0  1  0  0  0  0  0999 V2000
  180.0480  175.3030  139.7010 C   0  0  1  0  0  3  0  0  0  0  0  0
  181.6510  178.0130  137.2150 N   0  0  1  0  0  0  0  0  0  0  0  0
  180.8650  180.4310  136.8030 C   0  0  1  0  0  0  0  0  0  0  0  0
  180.5720  181.6140  135.9420 C   0  0  0  0  0  0  0  0  0  0  0  0
  181.0340  172.3540  136.7660 C   0  0  0  0  0  3  0  0  0  0  0  0
  180.7060  173.3170  137.7260 C   0  0  0  0  0  0  0  0  0  0  0  0
  184.8060  175.1990  135.4380 N   0  0  0  0  0  0  0  0  0  0  0  0
  180.9690  180.7420  138.2950 C   0  0  1  0  0  3  0  0  0  0  0  0
  183.1290  177.9550  137.1950 C   0  0  2  0  0  3  0  0  0  0  0  0
  179.5250  182.6760  137.9350 O   0  0  0  0  0  0  0  0  0  0  0  0
  182.7750  174.4690  137.2850 C   0  0  0  0  0  3  0  0  0  0  0  0
  179.6260  176.7420  140.0020 C   0  0  0  0  0  2  0  0  0  0  0  0
  180.9420  181.6660  134.7380 O   0  0  0  0  0  0  0  0  0  0  0  0
  181.3710  178.8680  134.9270 O   0  0  0  0  0  1  0  0  0  0  0  0
  184.7200  173.0370  134.5980 O   0  0  0  0  0  0  0  0  0  0  0  0
  181.1410  178.1710  138.5990 C   0  0  2  0  0  3  0  0  0  0  0  0
  179.8300  181.8780  140.0680 F   0  0  0  0  0  0  0  0  0  0  0  0
  183.6100  177.2800  135.8950 C   0  0  0  0  0  2  0  0  0  0  0  0
  183.0990  173.5580  136.2750 C   0  0  0  0  0  0  0  0  0  0  0  0
  181.5970  174.3510  138.0080 C   0  0  0  0  0  0  0  0  0  0  0  0
  179.5250  183.7410  135.8910 O   0  0  0  0  0  0  0  0  0  0  0  0
  182.2330  172.4610  136.0450 C   0  0  0  0  0  0  0  0  0  0  0  0
  178.9310  174.5620  138.9500 C   0  0  0  0  0  2  0  0  0  0  0  0
  184.9470  176.5580  136.0450 C   0  0  2  0  0  3  0  0  0  0  0  0
  185.5610  176.3320  134.8300 C   0  0  0  0  0  2  0  0  0  0  0  0
  182.5150  171.4900  135.0400 N   0  0  0  0  0  1  0  0  0  0  0  0
  179.4330  173.3180  138.3690 N   0  0  0  0  0  2  0  0  0  0  0  0
  179.8600  179.4630  136.5630 O   0  0  0  0  0  0  0  0  0  0  0  0
  181.2810  175.3030  138.9770 O   0  0  0  0  0  0  0  0  0  0  0  0
  181.1810  179.0730  136.2960 C   0  0  1  0  0  0  0  0  0  0  0  0
  179.7170  177.6450  138.7700 C   0  0  0  0  0  2  0  0  0  0  0  0
  184.2570  173.8800  135.4100 C   0  0  0  0  0  0  0  0  0  0  0  0
  179.7200  181.5050  138.7410 C   0  0  2  0  0  3  0  0  0  0  0  0
  179.8380  182.7270  136.5670 C   0  0  0  0  0  0  0  0  0  0  0  0
  181.3480  179.5670  139.2040 C   0  0  0  0  0  2  0  0  0  0  0  0
  184.5760  178.1120  138.8740 C   0  0  0  0  0  1  0  0  0  0  0  0
  183.6190  177.2630  138.3150 O   0  0  0  0  0  0  0  0  0  0  0  0
  1 23  1  6  0  0  0
  1 12  1  0  0  0  0
  2 16  1  0  0  0  0
  3  8  1  0  0  0  0
  4 34  1  0  0  0  0
  4  3  1  0  0  0  0
  5  6  1  0  0  0  0
  6 20  2  0  0  0  0
  6 27  1  0  0  0  0
  7 24  1  0  0  0  0
  8 33  1  0  0  0  0
  8 35  1  0  0  0  0
  9  2  1  0  0  0  0
  9 37  1  0  0  0  0
 10 33  1  0  0  0  0
 11 20  1  0  0  0  0
 13  4  2  0  0  0  0
 14 30  1  0  0  0  0
 15 32  2  0  0  0  0
 16 31  1  0  0  0  0
 16 35  1  0  0  0  0
 18 24  1  0  0  0  0
 18  9  1  0  0  0  0
 19 11  2  0  0  0  0
 20 29  1  0  0  0  0
 21 34  2  0  0  0  0
 22 19  1  0  0  0  0
 22  5  2  0  0  0  0
 25  7  1  0  0  0  0
 25 24  1  0  0  0  0
 26 22  1  0  0  0  0
 27 23  1  0  0  0  0
 28  3  1  0  0  0  0
 29  1  1  0  0  0  0
 30 28  1  0  0  0  0
 30  3  1  0  0  0  0
 30  2  1  0  0  0  0
 31 12  1  0  0  0  0
 32  7  1  0  0  0  0
 32 19  1  0  0  0  0
 33 17  1  0  0  0  0
 34 10  1  0  0  0  0
 37 36  1  0  0  0  0
M  END
>  <MODEL>
7

>  <REMARK>
 VINA RESULT:      -5.5      4.142      7.390
  Name = 
  1 active torsions:
  status: ('A' for Active; 'I' for Inactive)
    1  A    between atoms: C_9  and  O_28
                            x       y       z     vdW  Elec       q    Type
                         _______ _______ _______ _____ _____    ______ ____

>  <TORSDO>
F 1

$$$$
=
 OpenBabel11062412273D

 37 43  0  0  1  0  0  0  0  0999 V2000
  186.7030  173.4510  134.8610 C   0  0  1  0  0  3  0  0  0  0  0  0
  188.0960  176.2980  137.3210 N   0  0  1  0  0  0  0  0  0  0  0  0
  190.5290  176.6690  138.0830 C   0  0  1  0  0  0  0  0  0  0  0  0
  191.5790  176.9970  139.0900 C   0  0  0  0  0  0  0  0  0  0  0  0
  183.1960  173.3680  137.3060 C   0  0  0  0  0  3  0  0  0  0  0  0
  184.3440  173.3890  136.5070 C   0  0  0  0  0  0  0  0  0  0  0  0
  183.9980  178.1060  138.3040 N   0  0  0  0  0  0  0  0  0  0  0  0
  190.9950  176.7470  136.6300 C   0  0  1  0  0  3  0  0  0  0  0  0
  187.4340  177.6040  137.1060 C   0  0  2  0  0  3  0  0  0  0  0  0
  193.2710  176.3130  137.3970 O   0  0  0  0  0  0  0  0  0  0  0  0
  184.4600  175.7850  136.7320 C   0  0  0  0  0  3  0  0  0  0  0  0
  188.2150  173.6590  134.7710 C   0  0  0  0  0  2  0  0  0  0  0  0
  191.2880  177.4710  140.2210 O   0  0  0  0  0  0  0  0  0  0  0  0
  188.6280  176.6410  139.6960 O   0  0  0  0  0  1  0  0  0  0  0  0
  181.9610  177.1870  138.9320 O   0  0  0  0  0  0  0  0  0  0  0  0
  188.6610  175.7710  136.0550 C   0  0  2  0  0  3  0  0  0  0  0  0
  192.7570  176.0330  135.1750 F   0  0  0  0  0  0  0  0  0  0  0  0
  186.4290  177.8760  138.2420 C   0  0  0  0  0  2  0  0  0  0  0  0
  183.3540  175.7860  137.5860 C   0  0  0  0  0  0  0  0  0  0  0  0
  184.9500  174.6040  136.1930 C   0  0  0  0  0  0  0  0  0  0  0  0
  193.9130  176.9710  139.5100 O   0  0  0  0  0  0  0  0  0  0  0  0
  182.6880  174.5620  137.8390 C   0  0  0  0  0  0  0  0  0  0  0  0
  186.3800  172.2060  135.7000 C   0  0  0  0  0  2  0  0  0  0  0  0
  185.2550  178.7530  137.8180 C   0  0  2  0  0  3  0  0  0  0  0  0
  184.6120  179.3290  138.8940 C   0  0  0  0  0  2  0  0  0  0  0  0
  181.5450  174.5000  138.6890 N   0  0  0  0  0  1  0  0  0  0  0  0
  184.9670  172.1820  136.0720 N   0  0  0  0  0  2  0  0  0  0  0  0
  190.0350  175.3750  138.3810 O   0  0  0  0  0  0  0  0  0  0  0  0
  186.0840  174.6320  135.3820 O   0  0  0  0  0  0  0  0  0  0  0  0
  189.1000  176.4210  138.4000 C   0  0  1  0  0  0  0  0  0  0  0  0
  188.8000  174.2490  136.0560 C   0  0  0  0  0  2  0  0  0  0  0  0
  183.0340  177.0510  138.2870 C   0  0  0  0  0  0  0  0  0  0  0  0
  192.2630  175.9070  136.4600 C   0  0  2  0  0  3  0  0  0  0  0  0
  192.9770  176.7520  138.6980 C   0  0  0  0  0  0  0  0  0  0  0  0
  189.9230  176.4940  135.5640 C   0  0  0  0  0  2  0  0  0  0  0  0
  187.2680  178.7840  135.2290 C   0  0  0  0  0  1  0  0  0  0  0  0
  186.7830  177.6370  135.8610 O   0  0  0  0  0  0  0  0  0  0  0  0
  1 12  1  1  0  0  0
  1 29  1  0  0  0  0
  1 23  1  0  0  0  0
  2 30  1  0  0  0  0
  3 28  1  0  0  0  0
  3 30  1  0  0  0  0
  3  4  1  0  0  0  0
  4 13  2  0  0  0  0
  5 22  1  0  0  0  0
  6  5  2  0  0  0  0
  7 25  1  0  0  0  0
  8  3  1  0  0  0  0
  9  2  1  0  0  0  0
  9 18  1  0  0  0  0
 10 34  1  0  0  0  0
 11 19  1  0  0  0  0
 12 31  1  0  0  0  0
 16 31  1  0  0  0  0
 16  2  1  0  0  0  0
 17 33  1  0  0  0  0
 19 22  2  0  0  0  0
 19 32  1  0  0  0  0
 20  6  1  0  0  0  0
 20 11  2  0  0  0  0
 22 26  1  0  0  0  0
 23 27  1  0  0  0  0
 24 18  1  0  0  0  0
 24  7  1  0  0  0  0
 24 25  1  0  0  0  0
 27  6  1  0  0  0  0
 28 30  1  0  0  0  0
 29 20  1  0  0  0  0
 30 14  1  0  0  0  0
 32  7  1  0  0  0  0
 32 15  2  0  0  0  0
 33  8  1  0  0  0  0
 33 10  1  0  0  0  0
 34  4  1  0  0  0  0
 34 21  2  0  0  0  0
 35 16  1  0  0  0  0
 35  8  1  0  0  0  0
 36 37  1  0  0  0  0
 37  9  1  0  0  0  0
M  END
>  <MODEL>
8

>  <REMARK>
 VINA RESULT:      -5.5      3.217      7.744
  Name = 
  1 active torsions:
  status: ('A' for Active; 'I' for Inactive)
    1  A    between atoms: C_9  and  O_28
                            x       y       z     vdW  Elec       q    Type
                         _______ _______ _______ _____ _____    ______ ____

>  <TORSDO>
F 1

$$$$
=
 OpenBabel11062412273D

 37 43  0  0  1  0  0  0  0  0999 V2000
  187.0590  177.3170  136.7540 C   0  0  1  0  0  3  0  0  0  0  0  0
  183.3410  176.1550  137.7180 N   0  0  1  0  0  0  0  0  0  0  0  0
  181.6920  177.3190  139.3180 C   0  0  1  0  0  0  0  0  0  0  0  0
  180.6530  177.3340  140.3890 C   0  0  0  0  0  0  0  0  0  0  0  0
  188.0890  173.1690  136.6470 C   0  0  0  0  0  3  0  0  0  0  0  0
  187.7560  174.5260  136.6860 C   0  0  0  0  0  0  0  0  0  0  0  0
  183.4520  172.2360  135.3380 N   0  0  0  0  0  0  0  0  0  0  0  0
  181.8070  178.6190  138.5250 C   0  0  1  0  0  3  0  0  0  0  0  0
  182.6070  175.5960  136.5610 C   0  0  2  0  0  3  0  0  0  0  0  0
  180.9070  179.8100  140.4570 O   0  0  0  0  0  0  0  0  0  0  0  0
  185.6220  174.0370  135.6820 C   0  0  0  0  0  3  0  0  0  0  0  0
  186.2070  178.4250  137.3750 C   0  0  0  0  0  2  0  0  0  0  0  0
  180.0800  176.2790  140.7710 O   0  0  0  0  0  0  0  0  0  0  0  0
  182.1580  174.8720  139.4480 O   0  0  0  0  0  1  0  0  0  0  0  0
  185.0000  170.5140  135.1760 O   0  0  0  0  0  0  0  0  0  0  0  0
  183.8700  177.5070  137.4120 C   0  0  2  0  0  3  0  0  0  0  0  0
  181.9890  180.9900  138.8080 F   0  0  0  0  0  0  0  0  0  0  0  0
  182.5340  174.0610  136.6790 C   0  0  0  0  0  2  0  0  0  0  0  0
  185.9010  172.6670  135.6910 C   0  0  0  0  0  0  0  0  0  0  0  0
  186.5370  174.9590  136.1680 C   0  0  0  0  0  0  0  0  0  0  0  0
  179.4770  178.7280  141.9050 O   0  0  0  0  0  0  0  0  0  0  0  0
  187.1730  172.2350  136.1410 C   0  0  0  0  0  0  0  0  0  0  0  0
  188.0290  176.7390  137.7960 C   0  0  0  0  0  2  0  0  0  0  0  0
  182.4560  173.3510  135.3300 C   0  0  2  0  0  3  0  0  0  0  0  0
  181.9740  172.0630  135.4400 C   0  0  0  0  0  2  0  0  0  0  0  0
  187.5230  170.8530  136.1600 N   0  0  0  0  0  1  0  0  0  0  0  0
  188.6030  175.4790  137.3270 N   0  0  0  0  0  2  0  0  0  0  0  0
  182.9310  176.9920  139.9240 O   0  0  0  0  0  0  0  0  0  0  0  0
  186.2080  176.3150  136.1890 O   0  0  0  0  0  0  0  0  0  0  0  0
  182.4770  176.1240  138.9180 C   0  0  1  0  0  0  0  0  0  0  0  0
  185.0870  177.8730  138.2600 C   0  0  0  0  0  2  0  0  0  0  0  0
  184.7920  171.7420  135.3610 C   0  0  0  0  0  0  0  0  0  0  0  0
  181.9730  179.7910  139.4960 C   0  0  2  0  0  3  0  0  0  0  0  0
  180.3190  178.6430  140.9720 C   0  0  0  0  0  0  0  0  0  0  0  0
  182.8090  178.6150  137.3650 C   0  0  0  0  0  2  0  0  0  0  0  0
  182.2090  176.5630  134.6000 C   0  0  0  0  0  1  0  0  0  0  0  0
  183.2220  175.9630  135.3520 O   0  0  0  0  0  0  0  0  0  0  0  0
  1 12  1  1  0  0  0
  1 23  1  0  0  0  0
  2 30  1  0  0  0  0
  3 28  1  0  0  0  0
  3  4  1  0  0  0  0
  4 13  2  0  0  0  0
  4 34  1  0  0  0  0
  5  6  1  0  0  0  0
  6 27  1  0  0  0  0
  7 32  1  0  0  0  0
  7 25  1  0  0  0  0
  8  3  1  0  0  0  0
  8 33  1  0  0  0  0
  9 18  1  0  0  0  0
  9  2  1  0  0  0  0
 10 34  1  0  0  0  0
 11 19  2  0  0  0  0
 11 20  1  0  0  0  0
 12 31  1  0  0  0  0
 15 32  2  0  0  0  0
 16  2  1  0  0  0  0
 16 31  1  0  0  0  0
 17 33  1  0  0  0  0
 19 22  1  0  0  0  0
 20 29  1  0  0  0  0
 20  6  2  0  0  0  0
 22 26  1  0  0  0  0
 22  5  2  0  0  0  0
 24  7  1  0  0  0  0
 24 25  1  0  0  0  0
 24 18  1  0  0  0  0
 27 23  1  0  0  0  0
 29  1  1  0  0  0  0
 30  3  1  0  0  0  0
 30 14  1  0  0  0  0
 30 28  1  0  0  0  0
 32 19  1  0  0  0  0
 33 10  1  0  0  0  0
 34 21  2  0  0  0  0
 35 16  1  0  0  0  0
 35  8  1  0  0  0  0
 36 37  1  0  0  0  0
 37  9  1  0  0  0  0
M  END
>  <MODEL>
9

>  <REMARK>
 VINA RESULT:      -5.1      2.939      6.298
  Name = 
  1 active torsions:
  status: ('A' for Active; 'I' for Inactive)
    1  A    between atoms: C_9  and  O_28
                            x       y       z     vdW  Elec       q    Type
                         _______ _______ _______ _____ _____    ______ ____

>  <TORSDO>
F 1

$$$$
