=
 OpenBabel11062416383D

 62 69  0  0  1  0  0  0  0  0999 V2000
  189.1120  176.3700  135.5080 N   0  0  0  0  0  0  0  0  0  0  0  0
  186.8740  176.7760  136.4680 C   0  0  0  0  0  0  0  0  0  0  0  0
  188.6630  176.5410  137.8830 C   0  0  0  0  0  0  0  0  0  0  0  0
  191.2320  174.8180  137.6690 C   0  0  0  0  0  1  0  0  0  0  0  0
  187.3400  176.7500  137.7640 N   0  0  0  0  0  0  0  0  0  0  0  0
  190.6970  176.2390  137.6980 C   0  0  2  0  0  3  0  0  0  0  0  0
  187.7600  176.5830  135.3430 C   0  0  0  0  0  3  0  0  0  0  0  0
  189.8050  176.4130  138.8350 C   0  0  1  0  0  3  0  0  0  0  0  0
  189.5220  176.3600  136.7880 C   0  0  0  0  0  0  0  0  0  0  0  0
  190.0620  177.7530  139.5350 C   0  0  2  0  0  3  0  0  0  0  0  0
  190.4150  177.5520  140.9490 N   0  0  0  0  0  0  0  0  0  0  0  0
  192.5240  177.9160  140.0150 O   0  0  0  0  0  1  0  0  0  0  0  0
  191.8530  177.3480  141.0990 C   0  0  0  0  0  2  0  0  0  0  0  0
  189.7590  176.3360  141.4040 C   0  0  0  0  0  2  0  0  0  0  0  0
  190.2400  175.9840  142.7980 C   0  0  0  0  0  2  0  0  0  0  0  0
  188.7950  176.2570  144.6810 F   0  0  0  0  0  0  0  0  0  0  0  0
  189.6210  176.9430  143.8070 C   0  0  1  0  0  3  0  0  0  0  0  0
  190.5790  178.9420  144.5830 O   0  0  0  0  0  0  0  0  0  0  0  0
  190.6460  177.7230  144.5840 C   0  0  0  0  0  0  0  0  0  0  0  0
  191.7230  177.0410  145.3980 C   0  0  0  0  0  2  0  0  0  0  0  0
  192.1510  175.4480  146.9930 O   0  0  0  0  0  1  0  0  0  0  0  0
  191.2150  176.3390  146.5840 N   0  0  0  0  0  0  0  0  0  0  0  0
  190.9990  177.2820  147.6730 C   0  0  0  0  0  2  0  0  0  0  0  0
  188.7680  178.6050  147.8560 N   0  0  0  0  0  0  0  0  0  0  0  0
  189.5400  177.5090  147.8720 C   0  0  0  0  0  0  0  0  0  0  0  0
  187.6720  177.7790  148.1130 C   0  0  0  0  0  2  0  0  0  0  0  0
  188.4000  176.6100  148.1360 N   0  0  0  0  0  2  0  0  0  0  0  0
  188.9460  178.5940  139.3970 O   0  0  0  0  0  0  0  0  0  0  0  0
  188.3670  178.6540  140.6690 C   0  0  0  0  0  2  0  0  0  0  0  0
  186.8510  178.6040  140.5520 C   0  0  0  0  0  2  0  0  0  0  0  0
  186.1980  178.6810  141.8920 C   0  0  0  0  0  0  0  0  0  0  0  0
  186.4700  177.7440  142.8060 C   0  0  0  0  0  3  0  0  0  0  0  0
  185.2950  179.7210  142.1740 O   0  0  0  0  0  0  0  0  0  0  0  0
  186.7780  178.4330  145.0430 O   0  0  0  0  0  1  0  0  0  0  0  0
  185.8750  177.8020  144.1850 C   0  0  1  0  0  3  0  0  0  0  0  0
  184.7050  179.9020  143.4630 C   0  0  0  0  0  2  0  0  0  0  0  0
  184.5350  178.5500  144.1520 C   0  0  2  0  0  3  0  0  0  0  0  0
  183.8750  178.6700  145.5220 C   0  0  0  0  0  2  0  0  0  0  0  0
  184.7880  179.0930  146.4930 O   0  0  0  0  0  1  0  0  0  0  0  0
  185.4250  177.0330  136.2270 C   0  0  0  0  0  2  0  0  0  0  0  0
  184.5970  176.8240  137.4900 C   0  0  0  0  0  2  0  0  0  0  0  0
  183.3470  177.6970  137.5130 C   0  0  0  0  0  2  0  0  0  0  0  0
  179.5510  175.9050  139.1520 C   0  0  0  0  0  2  0  0  0  0  0  0
  182.0050  175.9960  136.6170 C   0  0  0  0  0  2  0  0  0  0  0  0
  179.6360  176.9060  137.9940 C   0  0  0  0  0  2  0  0  0  0  0  0
  180.9930  179.9650  138.7350 C   0  0  0  0  0  0  0  0  0  0  0  0
  181.1150  180.9470  139.5140 O   0  0  0  0  0  0  0  0  0  0  0  0
  180.7430  174.1450  137.7870 C   0  0  0  0  0  2  0  0  0  0  0  0
  180.8080  180.0550  137.3130 C   0  0  0  0  0  0  0  0  0  0  0  0
  182.1430  176.9000  137.7610 N   0  0  0  0  0  0  0  0  0  0  0  0
  181.0450  178.5920  139.1380 N   0  0  0  0  0  0  0  0  0  0  0  0
  180.4890  180.9670  135.1200 C   0  0  0  0  0  3  0  0  0  0  0  0
  182.0330  174.5440  137.0790 C   0  0  0  0  0  2  0  0  0  0  0  0
  180.7710  178.7710  136.8140 C   0  0  0  0  0  0  0  0  0  0  0  0
  180.5860  178.5480  135.4460 C   0  0  0  0  0  3  0  0  0  0  0  0
  180.4460  179.6600  134.5970 C   0  0  0  0  0  3  0  0  0  0  0  0
  180.6730  181.1760  136.4950 C   0  0  0  0  0  3  0  0  0  0  0  0
  180.6430  174.8370  139.1390 C   0  0  0  0  0  2  0  0  0  0  0  0
  180.9300  177.7480  137.9280 C   0  0  2  0  0  0  0  0  0  0  0  0
  180.2680  178.1350  141.3850 C   0  0  0  0  0  2  0  0  0  0  0  0
  181.4240  178.0760  140.4590 C   0  0  2  0  0  3  0  0  0  0  0  0
  181.3100  179.0760  141.4460 O   0  0  0  0  0  0  0  0  0  0  0  0
  1  9  1  0  0  0  0
  2  5  2  0  0  0  0
  3  8  1  0  0  0  0
  5  3  1  0  0  0  0
  6  4  1  1  0  0  0
  6  8  1  0  0  0  0
  7  1  2  0  0  0  0
  7  2  1  0  0  0  0
  8 10  1  6  0  0  0
  9  6  1  0  0  0  0
  9  3  2  0  0  0  0
 10 28  1  1  0  0  0
 10 11  1  0  0  0  0
 11 13  1  0  0  0  0
 11 14  1  0  0  0  0
 12 13  1  0  0  0  0
 14 15  1  0  0  0  0
 15 17  1  0  0  0  0
 17 19  1  0  0  0  0
 17 16  1  1  0  0  0
 18 19  2  0  0  0  0
 19 20  1  0  0  0  0
 20 22  1  0  0  0  0
 22 21  1  0  0  0  0
 22 23  1  0  0  0  0
 23 25  1  0  0  0  0
 24 25  2  0  0  0  0
 24 26  1  0  0  0  0
 25 27  1  0  0  0  0
 26 27  1  0  0  0  0
 28 29  1  0  0  0  0
 30 29  1  0  0  0  0
 30 31  1  0  0  0  0
 31 33  1  0  0  0  0
 31 32  2  0  0  0  0
 32 35  1  0  0  0  0
 33 36  1  0  0  0  0
 35 34  1  1  0  0  0
 36 37  1  0  0  0  0
 37 35  1  0  0  0  0
 37 38  1  1  0  0  0
 38 39  1  0  0  0  0
 40  2  1  0  0  0  0
 40 41  1  0  0  0  0
 41 42  1  0  0  0  0
 42 50  1  0  0  0  0
 44 53  1  0  0  0  0
 44 50  1  0  0  0  0
 45 43  1  0  0  0  0
 46 51  1  0  0  0  0
 46 47  2  0  0  0  0
 48 58  1  0  0  0  0
 49 46  1  0  0  0  0
 50 59  1  0  0  0  0
 52 57  1  0  0  0  0
 53 48  1  0  0  0  0
 54 49  1  0  0  0  0
 54 59  1  0  0  0  0
 55 54  2  0  0  0  0
 56 52  2  0  0  0  0
 56 55  1  0  0  0  0
 57 49  2  0  0  0  0
 58 43  1  0  0  0  0
 59 45  1  1  0  0  0
 59 51  1  0  0  0  0
 60 62  1  0  0  0  0
 61 51  1  6  0  0  0
 61 60  1  0  0  0  0
 61 62  1  0  0  0  0
M  END
>  <MODEL>
1

>  <REMARK>
 VINA RESULT:      -7.6      0.000      0.000
  Name = 
  21 active torsions:
  status: ('A' for Active; 'I' for Inactive)
    1  A    between atoms: C_1  and  C_42
    2  A    between atoms: C_1  and  N_45
    3  A    between atoms: C_3  and  C_56
    4  A    between atoms: C_5  and  C_22
    5  A    between atoms: C_5  and  N_59
    6  A    between atoms: C_7  and  C_27
    7  A    between atoms: C_9  and  C_57
    8  A    between atoms: C_14  and  N_29
    9  A    between atoms: C_14  and  C_32
   10  A    between atoms: C_19  and  C_23
   11  A    between atoms: C_19  and  N_45
   12  A    between atoms: C_22  and  C_55
   13  A    between atoms: C_27  and  C_32
   14  A    between atoms: N_31  and  C_60
   15  A    between atoms: C_34  and  O_53
   16  A    between atoms: C_34  and  C_56
   17  A    between atoms: C_36  and  N_59
   18  A    between atoms: C_42  and  C_55
   19  A    between atoms: C_48  and  O_53
   20  A    between atoms: C_48  and  C_58
   21  A    between atoms: C_48  and  N_59
                            x       y       z     vdW  Elec       q    Type
                         _______ _______ _______ _____ _____    ______ ____

>  <TORSDO>
F 21

$$$$
=
 OpenBabel11062416383D

 62 69  0  0  1  0  0  0  0  0999 V2000
  187.6690  177.0390  143.0820 N   0  0  0  0  0  0  0  0  0  0  0  0
  186.3740  178.5820  141.6530 C   0  0  0  0  0  0  0  0  0  0  0  0
  188.5380  178.0860  141.0760 C   0  0  0  0  0  0  0  0  0  0  0  0
  191.0320  177.4740  142.8140 C   0  0  0  0  0  1  0  0  0  0  0  0
  187.4190  178.7670  140.7740 N   0  0  0  0  0  0  0  0  0  0  0  0
  190.0540  176.8910  141.8090 C   0  0  2  0  0  3  0  0  0  0  0  0
  186.5030  177.7200  142.8060 C   0  0  0  0  0  3  0  0  0  0  0  0
  189.9360  177.7730  140.6570 C   0  0  1  0  0  3  0  0  0  0  0  0
  188.6570  177.2450  142.1940 C   0  0  0  0  0  0  0  0  0  0  0  0
  189.9280  176.9710  139.3500 C   0  0  2  0  0  3  0  0  0  0  0  0
  191.0780  176.0550  139.2860 N   0  0  0  0  0  0  0  0  0  0  0  0
  192.9010  177.3640  139.9300 O   0  0  0  0  0  1  0  0  0  0  0  0
  192.2760  176.7590  138.8380 C   0  0  0  0  0  2  0  0  0  0  0  0
  190.7820  175.0370  138.2910 C   0  0  0  0  0  2  0  0  0  0  0  0
  191.8170  175.0830  137.1840 C   0  0  0  0  0  2  0  0  0  0  0  0
  191.4300  173.2440  135.7080 F   0  0  0  0  0  0  0  0  0  0  0  0
  192.1960  173.6630  136.7840 C   0  0  1  0  0  3  0  0  0  0  0  0
  193.9740  172.8200  135.5010 O   0  0  0  0  0  0  0  0  0  0  0  0
  193.6560  173.5120  136.4560 C   0  0  0  0  0  0  0  0  0  0  0  0
  194.7320  174.2250  137.2440 C   0  0  0  0  0  2  0  0  0  0  0  0
  195.3190  172.0930  137.8580 O   0  0  0  0  0  1  0  0  0  0  0  0
  195.3750  173.3860  138.2630 N   0  0  0  0  0  0  0  0  0  0  0  0
  196.7810  173.7450  138.3980 C   0  0  0  0  0  2  0  0  0  0  0  0
  196.2090  175.5920  140.1360 N   0  0  0  0  0  0  0  0  0  0  0  0
  196.9700  174.6440  139.5700 C   0  0  0  0  0  0  0  0  0  0  0  0
  197.2220  175.7730  141.0810 C   0  0  0  0  0  2  0  0  0  0  0  0
  198.0530  174.8070  140.5590 N   0  0  0  0  0  2  0  0  0  0  0  0
  189.9000  177.8400  138.2470 O   0  0  0  0  0  0  0  0  0  0  0  0
  189.0160  177.2540  137.3360 C   0  0  0  0  0  2  0  0  0  0  0  0
  187.6100  177.7900  137.5580 C   0  0  0  0  0  2  0  0  0  0  0  0
  186.5830  176.8930  136.9510 C   0  0  0  0  0  0  0  0  0  0  0  0
  185.3320  177.3400  136.8030 C   0  0  0  0  0  3  0  0  0  0  0  0
  186.9320  175.5880  136.5610 O   0  0  0  0  0  0  0  0  0  0  0  0
  184.1970  176.8170  134.7990 O   0  0  0  0  0  1  0  0  0  0  0  0
  184.2710  176.4940  136.1560 C   0  0  1  0  0  3  0  0  0  0  0  0
  186.0200  174.7120  135.8950 C   0  0  0  0  0  2  0  0  0  0  0  0
  184.5920  175.0050  136.3490 C   0  0  2  0  0  3  0  0  0  0  0  0
  183.5690  174.0760  135.7000 C   0  0  0  0  0  2  0  0  0  0  0  0
  182.3300  174.1520  136.3430 O   0  0  0  0  0  1  0  0  0  0  0  0
  185.0780  179.2690  141.3890 C   0  0  0  0  0  2  0  0  0  0  0  0
  183.9710  178.2760  141.0550 C   0  0  0  0  0  2  0  0  0  0  0  0
  182.6760  178.9700  140.6450 C   0  0  0  0  0  2  0  0  0  0  0  0
  178.9310  176.5080  140.1830 C   0  0  0  0  0  2  0  0  0  0  0  0
  182.2150  177.2460  139.1240 C   0  0  0  0  0  2  0  0  0  0  0  0
  179.3610  177.6560  139.2630 C   0  0  0  0  0  2  0  0  0  0  0  0
  179.6680  180.7370  140.7320 C   0  0  0  0  0  0  0  0  0  0  0  0
  179.2450  181.6150  141.5300 O   0  0  0  0  0  0  0  0  0  0  0  0
  180.9030  175.1100  139.4480 C   0  0  0  0  0  2  0  0  0  0  0  0
  180.1440  180.9910  139.4000 C   0  0  0  0  0  0  0  0  0  0  0  0
  181.6530  178.0000  140.2470 N   0  0  0  0  0  0  0  0  0  0  0  0
  179.7690  179.3410  141.0320 N   0  0  0  0  0  0  0  0  0  0  0  0
  180.7130  182.1380  137.3740 C   0  0  0  0  0  3  0  0  0  0  0  0
  182.2820  175.7610  139.4600 C   0  0  0  0  0  2  0  0  0  0  0  0
  180.5650  179.7910  138.8710 C   0  0  0  0  0  0  0  0  0  0  0  0
  181.0710  179.7300  137.5680 C   0  0  0  0  0  3  0  0  0  0  0  0
  181.1430  180.9170  136.8200 C   0  0  0  0  0  3  0  0  0  0  0  0
  180.2050  182.1840  138.6820 C   0  0  0  0  0  3  0  0  0  0  0  0
  180.0740  175.5980  140.6270 C   0  0  0  0  0  2  0  0  0  0  0  0
  180.3710  178.6570  139.8660 C   0  0  2  0  0  0  0  0  0  0  0  0
  180.4140  179.3870  143.3660 C   0  0  0  0  0  2  0  0  0  0  0  0
  179.5830  178.7070  142.3430 C   0  0  2  0  0  3  0  0  0  0  0  0
  180.7900  178.1500  142.8130 O   0  0  0  0  0  0  0  0  0  0  0  0
  2  7  2  0  0  0  0
  3  9  1  0  0  0  0
  5  3  2  0  0  0  0
  5  2  1  0  0  0  0
  6  9  1  0  0  0  0
  6  4  1  1  0  0  0
  7  1  1  0  0  0  0
  8 10  1  6  0  0  0
  8  3  1  0  0  0  0
  8  6  1  0  0  0  0
  9  1  2  0  0  0  0
 10 28  1  6  0  0  0
 11 10  1  0  0  0  0
 13 11  1  0  0  0  0
 13 12  1  0  0  0  0
 14 11  1  0  0  0  0
 15 14  1  0  0  0  0
 17 16  1  6  0  0  0
 17 15  1  0  0  0  0
 18 19  2  0  0  0  0
 19 17  1  0  0  0  0
 19 20  1  0  0  0  0
 20 22  1  0  0  0  0
 21 22  1  0  0  0  0
 22 23  1  0  0  0  0
 23 25  1  0  0  0  0
 24 26  1  0  0  0  0
 25 24  2  0  0  0  0
 25 27  1  0  0  0  0
 27 26  1  0  0  0  0
 29 30  1  0  0  0  0
 29 28  1  0  0  0  0
 31 30  1  0  0  0  0
 32 31  2  0  0  0  0
 33 31  1  0  0  0  0
 35 34  1  6  0  0  0
 35 37  1  0  0  0  0
 35 32  1  0  0  0  0
 36 37  1  0  0  0  0
 36 33  1  0  0  0  0
 37 38  1  6  0  0  0
 38 39  1  0  0  0  0
 40  2  1  0  0  0  0
 41 40  1  0  0  0  0
 42 41  1  0  0  0  0
 43 58  1  0  0  0  0
 44 53  1  0  0  0  0
 44 50  1  0  0  0  0
 45 43  1  0  0  0  0
 46 51  1  0  0  0  0
 46 47  2  0  0  0  0
 48 53  1  0  0  0  0
 48 58  1  0  0  0  0
 49 46  1  0  0  0  0
 50 42  1  0  0  0  0
 52 57  1  0  0  0  0
 54 49  1  0  0  0  0
 54 59  1  0  0  0  0
 55 54  2  0  0  0  0
 56 52  2  0  0  0  0
 56 55  1  0  0  0  0
 57 49  2  0  0  0  0
 59 45  1  6  0  0  0
 59 50  1  0  0  0  0
 59 51  1  0  0  0  0
 61 51  1  6  0  0  0
 61 62  1  0  0  0  0
 61 60  1  0  0  0  0
 62 60  1  0  0  0  0
M  END
>  <MODEL>
2

>  <REMARK>
 VINA RESULT:      -6.6      3.414      6.458
  Name = 
  21 active torsions:
  status: ('A' for Active; 'I' for Inactive)
    1  A    between atoms: C_1  and  C_42
    2  A    between atoms: C_1  and  N_45
    3  A    between atoms: C_3  and  C_56
    4  A    between atoms: C_5  and  C_22
    5  A    between atoms: C_5  and  N_59
    6  A    between atoms: C_7  and  C_27
    7  A    between atoms: C_9  and  C_57
    8  A    between atoms: C_14  and  N_29
    9  A    between atoms: C_14  and  C_32
   10  A    between atoms: C_19  and  C_23
   11  A    between atoms: C_19  and  N_45
   12  A    between atoms: C_22  and  C_55
   13  A    between atoms: C_27  and  C_32
   14  A    between atoms: N_31  and  C_60
   15  A    between atoms: C_34  and  O_53
   16  A    between atoms: C_34  and  C_56
   17  A    between atoms: C_36  and  N_59
   18  A    between atoms: C_42  and  C_55
   19  A    between atoms: C_48  and  O_53
   20  A    between atoms: C_48  and  C_58
   21  A    between atoms: C_48  and  N_59
                            x       y       z     vdW  Elec       q    Type
                         _______ _______ _______ _____ _____    ______ ____

>  <TORSDO>
F 21

$$$$
=
 OpenBabel11062416383D

 62 69  0  0  1  0  0  0  0  0999 V2000
  190.0920  178.0720  144.7240 N   0  0  0  0  0  0  0  0  0  0  0  0
  190.1780  177.0460  142.4800 C   0  0  0  0  0  0  0  0  0  0  0  0
  188.1430  177.3040  143.5050 C   0  0  0  0  0  0  0  0  0  0  0  0
  187.3250  177.1840  146.4940 C   0  0  0  0  0  1  0  0  0  0  0  0
  188.8120  176.8720  142.4220 N   0  0  0  0  0  0  0  0  0  0  0  0
  187.4420  178.0900  145.2810 C   0  0  2  0  0  3  0  0  0  0  0  0
  190.8140  177.6430  143.6320 C   0  0  0  0  0  3  0  0  0  0  0  0
  186.7990  177.4710  144.1320 C   0  0  1  0  0  3  0  0  0  0  0  0
  188.7640  177.8880  144.6200 C   0  0  0  0  0  0  0  0  0  0  0  0
  185.9740  178.4990  143.3450 C   0  0  2  0  0  3  0  0  0  0  0  0
  184.8360  178.9820  144.1410 N   0  0  0  0  0  0  0  0  0  0  0  0
  183.8530  179.0020  146.2590 O   0  0  0  0  0  1  0  0  0  0  0  0
  184.9490  178.5410  145.5280 C   0  0  0  0  0  2  0  0  0  0  0  0
  183.6260  178.3860  143.5980 C   0  0  0  0  0  2  0  0  0  0  0  0
  182.6050  179.4680  143.3070 C   0  0  0  0  0  2  0  0  0  0  0  0
  180.7790  177.9710  143.6760 F   0  0  0  0  0  0  0  0  0  0  0  0
  181.3380  178.8340  142.7470 C   0  0  1  0  0  3  0  0  0  0  0  0
  180.0590  180.7780  143.0600 O   0  0  0  0  0  0  0  0  0  0  0  0
  180.3130  179.8460  142.3140 C   0  0  0  0  0  0  0  0  0  0  0  0
  179.6260  179.7650  140.9690 C   0  0  0  0  0  2  0  0  0  0  0  0
  181.3650  180.7750  139.8620 O   0  0  0  0  0  1  0  0  0  0  0  0
  180.0220  180.8290  140.0370 N   0  0  0  0  0  0  0  0  0  0  0  0
  179.3990  180.6160  138.7360 C   0  0  0  0  0  2  0  0  0  0  0  0
  180.8730  182.1280  137.2210 N   0  0  0  0  0  0  0  0  0  0  0  0
  179.7380  181.7370  137.8160 C   0  0  0  0  0  0  0  0  0  0  0  0
  180.1490  183.1650  136.6280 C   0  0  0  0  0  2  0  0  0  0  0  0
  178.9450  182.8170  137.1980 N   0  0  0  0  0  2  0  0  0  0  0  0
  185.5530  177.9490  142.1230 O   0  0  0  0  0  0  0  0  0  0  0  0
  185.2910  179.0460  141.2950 C   0  0  0  0  0  2  0  0  0  0  0  0
  185.3380  178.6160  139.8360 C   0  0  0  0  0  2  0  0  0  0  0  0
  184.0370  178.0300  139.3980 C   0  0  0  0  0  0  0  0  0  0  0  0
  183.5660  178.3220  138.1820 C   0  0  0  0  0  3  0  0  0  0  0  0
  183.3140  177.1960  140.2690 O   0  0  0  0  0  0  0  0  0  0  0  0
  182.5820  176.5820  136.9260 O   0  0  0  0  0  1  0  0  0  0  0  0
  182.2850  177.7220  137.6750 C   0  0  1  0  0  3  0  0  0  0  0  0
  182.1090  176.5340  139.8800 C   0  0  0  0  0  2  0  0  0  0  0  0
  181.3600  177.3800  138.8520 C   0  0  2  0  0  3  0  0  0  0  0  0
  180.0410  176.7440  138.4200 C   0  0  0  0  0  2  0  0  0  0  0  0
  179.3750  177.5380  137.4810 O   0  0  0  0  0  1  0  0  0  0  0  0
  191.0090  176.6290  141.3140 C   0  0  0  0  0  2  0  0  0  0  0  0
  190.4100  177.1060  139.9960 C   0  0  0  0  0  2  0  0  0  0  0  0
  189.8960  175.9500  139.1430 C   0  0  0  0  0  2  0  0  0  0  0  0
  191.6610  174.6130  135.2190 C   0  0  0  0  0  2  0  0  0  0  0  0
  191.6800  176.8700  137.9310 C   0  0  0  0  0  2  0  0  0  0  0  0
  190.7350  175.8190  135.4140 C   0  0  0  0  0  2  0  0  0  0  0  0
  187.6060  175.1400  136.6380 C   0  0  0  0  0  0  0  0  0  0  0  0
  186.5730  174.4200  136.6590 O   0  0  0  0  0  0  0  0  0  0  0  0
  193.4790  175.7230  136.5770 C   0  0  0  0  0  2  0  0  0  0  0  0
  187.6110  176.5770  136.6070 C   0  0  0  0  0  0  0  0  0  0  0  0
  190.7020  175.7800  137.9320 N   0  0  0  0  0  0  0  0  0  0  0  0
  188.9490  174.6440  136.6660 N   0  0  0  0  0  0  0  0  0  0  0  0
  186.8490  178.8470  136.5140 C   0  0  0  0  0  3  0  0  0  0  0  0
  193.0980  176.3130  137.9300 C   0  0  0  0  0  2  0  0  0  0  0  0
  188.9250  176.9910  136.6430 C   0  0  0  0  0  0  0  0  0  0  0  0
  189.2390  178.3530  136.6110 C   0  0  0  0  0  3  0  0  0  0  0  0
  188.1880  179.2840  136.5470 C   0  0  0  0  0  3  0  0  0  0  0  0
  186.5490  177.4770  136.5450 C   0  0  0  0  0  3  0  0  0  0  0  0
  192.7040  174.4390  136.3210 C   0  0  0  0  0  2  0  0  0  0  0  0
  189.8710  175.8010  136.6950 C   0  0  2  0  0  0  0  0  0  0  0  0
  189.0040  172.4020  135.7540 C   0  0  0  0  0  2  0  0  0  0  0  0
  189.3700  173.2590  136.9070 C   0  0  2  0  0  3  0  0  0  0  0  0
  188.2610  172.3910  136.9470 O   0  0  0  0  0  0  0  0  0  0  0  0
  2  7  1  0  0  0  0
  3  8  1  0  0  0  0
  3  9  2  0  0  0  0
  5  2  2  0  0  0  0
  5  3  1  0  0  0  0
  6  4  1  1  0  0  0
  7  1  2  0  0  0  0
  8 10  1  6  0  0  0
  8  6  1  0  0  0  0
  9  1  1  0  0  0  0
  9  6  1  0  0  0  0
 10 28  1  6  0  0  0
 10 11  1  0  0  0  0
 11 13  1  0  0  0  0
 13 12  1  0  0  0  0
 14 11  1  0  0  0  0
 15 14  1  0  0  0  0
 17 15  1  0  0  0  0
 17 16  1  1  0  0  0
 19 17  1  0  0  0  0
 19 18  2  0  0  0  0
 20 19  1  0  0  0  0
 21 22  1  0  0  0  0
 22 20  1  0  0  0  0
 23 22  1  0  0  0  0
 24 25  2  0  0  0  0
 25 23  1  0  0  0  0
 26 27  1  0  0  0  0
 26 24  1  0  0  0  0
 27 25  1  0  0  0  0
 29 28  1  0  0  0  0
 30 29  1  0  0  0  0
 31 30  1  0  0  0  0
 31 33  1  0  0  0  0
 32 31  2  0  0  0  0
 35 34  1  1  0  0  0
 35 32  1  0  0  0  0
 35 37  1  0  0  0  0
 36 33  1  0  0  0  0
 37 38  1  6  0  0  0
 37 36  1  0  0  0  0
 39 38  1  0  0  0  0
 40  2  1  0  0  0  0
 41 40  1  0  0  0  0
 42 41  1  0  0  0  0
 43 45  1  0  0  0  0
 43 58  1  0  0  0  0
 44 50  1  0  0  0  0
 46 47  2  0  0  0  0
 46 51  1  0  0  0  0
 48 53  1  0  0  0  0
 49 46  1  0  0  0  0
 49 54  1  0  0  0  0
 50 42  1  0  0  0  0
 51 59  1  0  0  0  0
 51 61  1  0  0  0  0
 52 57  1  0  0  0  0
 52 56  2  0  0  0  0
 53 44  1  0  0  0  0
 54 59  1  0  0  0  0
 55 54  2  0  0  0  0
 56 55  1  0  0  0  0
 57 49  2  0  0  0  0
 58 48  1  0  0  0  0
 59 45  1  6  0  0  0
 59 50  1  0  0  0  0
 60 62  1  0  0  0  0
 61 60  1  6  0  0  0
 61 62  1  0  0  0  0
M  END
>  <MODEL>
3

>  <REMARK>
 VINA RESULT:      -6.2      2.856      9.439
  Name = 
  21 active torsions:
  status: ('A' for Active; 'I' for Inactive)
    1  A    between atoms: C_1  and  C_42
    2  A    between atoms: C_1  and  N_45
    3  A    between atoms: C_3  and  C_56
    4  A    between atoms: C_5  and  C_22
    5  A    between atoms: C_5  and  N_59
    6  A    between atoms: C_7  and  C_27
    7  A    between atoms: C_9  and  C_57
    8  A    between atoms: C_14  and  N_29
    9  A    between atoms: C_14  and  C_32
   10  A    between atoms: C_19  and  C_23
   11  A    between atoms: C_19  and  N_45
   12  A    between atoms: C_22  and  C_55
   13  A    between atoms: C_27  and  C_32
   14  A    between atoms: N_31  and  C_60
   15  A    between atoms: C_34  and  O_53
   16  A    between atoms: C_34  and  C_56
   17  A    between atoms: C_36  and  N_59
   18  A    between atoms: C_42  and  C_55
   19  A    between atoms: C_48  and  O_53
   20  A    between atoms: C_48  and  C_58
   21  A    between atoms: C_48  and  N_59
                            x       y       z     vdW  Elec       q    Type
                         _______ _______ _______ _____ _____    ______ ____

>  <TORSDO>
F 21

$$$$
=
 OpenBabel11062416383D

 62 69  0  0  1  0  0  0  0  0999 V2000
  186.1220  177.9980  138.1570 N   0  0  0  0  0  0  0  0  0  0  0  0
  185.5590  176.1890  136.5740 C   0  0  0  0  0  0  0  0  0  0  0  0
  187.7110  176.9770  136.6400 C   0  0  0  0  0  0  0  0  0  0  0  0
  188.8410  179.8090  137.2050 C   0  0  0  0  0  1  0  0  0  0  0  0
  186.8430  176.1170  136.0800 N   0  0  0  0  0  0  0  0  0  0  0  0
  188.7670  178.3820  137.7220 C   0  0  2  0  0  3  0  0  0  0  0  0
  185.2010  177.1320  137.6090 C   0  0  0  0  0  3  0  0  0  0  0  0
  189.1270  177.4490  136.6650 C   0  0  1  0  0  3  0  0  0  0  0  0
  187.3620  177.8860  137.6490 C   0  0  0  0  0  0  0  0  0  0  0  0
  190.0440  176.3420  137.2000 C   0  0  2  0  0  3  0  0  0  0  0  0
  189.9110  175.1150  136.4000 N   0  0  0  0  0  0  0  0  0  0  0  0
  188.8870  173.0780  136.9030 O   0  0  0  0  0  1  0  0  0  0  0  0
  189.9320  173.9330  137.2570 C   0  0  0  0  0  2  0  0  0  0  0  0
  191.0670  175.0280  135.5220 C   0  0  0  0  0  2  0  0  0  0  0  0
  192.3260  174.8430  136.3460 C   0  0  0  0  0  2  0  0  0  0  0  0
  193.7050  176.6970  136.9560 F   0  0  0  0  0  0  0  0  0  0  0  0
  193.3750  175.8560  135.9060 C   0  0  1  0  0  3  0  0  0  0  0  0
  194.5080  174.2620  134.6070 O   0  0  0  0  0  0  0  0  0  0  0  0
  194.6220  175.2160  135.3600 C   0  0  0  0  0  0  0  0  0  0  0  0
  196.0010  175.7460  135.6800 C   0  0  0  0  0  2  0  0  0  0  0  0
  197.8880  175.5150  136.9660 O   0  0  0  0  0  1  0  0  0  0  0  0
  196.8100  174.8360  136.5010 N   0  0  0  0  0  0  0  0  0  0  0  0
  196.0430  174.3830  137.6550 C   0  0  0  0  0  2  0  0  0  0  0  0
  195.2310  171.9790  138.2200 N   0  0  0  0  0  0  0  0  0  0  0  0
  196.0850  172.8960  137.7460 C   0  0  0  0  0  0  0  0  0  0  0  0
  196.1480  170.9980  137.8390 C   0  0  0  0  0  2  0  0  0  0  0  0
  197.0700  171.8820  137.3250 N   0  0  0  0  0  2  0  0  0  0  0  0
  189.7750  176.1030  138.5580 O   0  0  0  0  0  0  0  0  0  0  0  0
  190.6570  176.9290  139.2610 C   0  0  0  0  0  2  0  0  0  0  0  0
  190.8560  176.3950  140.6710 C   0  0  0  0  0  2  0  0  0  0  0  0
  189.7830  176.8750  141.5920 C   0  0  0  0  0  0  0  0  0  0  0  0
  189.8320  176.5380  142.8840 C   0  0  0  0  0  3  0  0  0  0  0  0
  188.7260  177.6560  141.0910 O   0  0  0  0  0  0  0  0  0  0  0  0
  189.2830  178.1870  144.4820 O   0  0  0  0  0  1  0  0  0  0  0  0
  188.8020  177.0330  143.8610 C   0  0  1  0  0  3  0  0  0  0  0  0
  187.7180  178.2190  141.9330 C   0  0  0  0  0  2  0  0  0  0  0  0
  187.4780  177.3100  143.1370 C   0  0  2  0  0  3  0  0  0  0  0  0
  186.3820  177.8390  144.0600 C   0  0  0  0  0  2  0  0  0  0  0  0
  186.3750  177.1620  145.2830 O   0  0  0  0  0  1  0  0  0  0  0  0
  184.5260  175.2550  136.0410 C   0  0  0  0  0  2  0  0  0  0  0  0
  183.3810  175.0580  137.0270 C   0  0  0  0  0  2  0  0  0  0  0  0
  182.2420  176.0460  136.7950 C   0  0  0  0  0  2  0  0  0  0  0  0
  179.6550  176.3120  140.4750 C   0  0  0  0  0  2  0  0  0  0  0  0
  180.1570  175.0570  137.2150 C   0  0  0  0  0  2  0  0  0  0  0  0
  179.4100  177.0580  139.1580 C   0  0  0  0  0  2  0  0  0  0  0  0
  181.8700  179.2310  138.1700 C   0  0  0  0  0  0  0  0  0  0  0  0
  182.7180  180.1200  138.4450 O   0  0  0  0  0  0  0  0  0  0  0  0
  179.2280  174.0880  139.3560 C   0  0  0  0  0  2  0  0  0  0  0  0
  180.9700  179.2650  137.0490 C   0  0  0  0  0  0  0  0  0  0  0  0
  181.1950  175.9020  137.8100 N   0  0  0  0  0  0  0  0  0  0  0  0
  181.6780  178.0250  138.9170 N   0  0  0  0  0  0  0  0  0  0  0  0
  179.8140  180.0190  135.0900 C   0  0  0  0  0  3  0  0  0  0  0  0
  179.9540  173.7970  138.0470 C   0  0  0  0  0  2  0  0  0  0  0  0
  180.2420  178.0960  137.0620 C   0  0  0  0  0  0  0  0  0  0  0  0
  179.2690  177.8570  136.0860 C   0  0  0  0  0  3  0  0  0  0  0  0
  179.0600  178.8300  135.0940 C   0  0  0  0  0  3  0  0  0  0  0  0
  180.7850  180.2470  136.0770 C   0  0  0  0  0  3  0  0  0  0  0  0
  180.1280  174.8710  140.3000 C   0  0  0  0  0  2  0  0  0  0  0  0
  180.6400  177.2170  138.2370 C   0  0  2  0  0  0  0  0  0  0  0  0
  182.3130  178.3050  141.2360 C   0  0  0  0  0  2  0  0  0  0  0  0
  182.5280  177.5160  140.0000 C   0  0  2  0  0  3  0  0  0  0  0  0
  183.4460  178.4970  140.4270 O   0  0  0  0  0  0  0  0  0  0  0  0
  2  7  1  0  0  0  0
  3  8  1  0  0  0  0
  3  9  2  0  0  0  0
  5  2  2  0  0  0  0
  5  3  1  0  0  0  0
  6  4  1  6  0  0  0
  7  1  2  0  0  0  0
  8 10  1  1  0  0  0
  8  6  1  0  0  0  0
  9  6  1  0  0  0  0
  9  1  1  0  0  0  0
 10 28  1  1  0  0  0
 11 10  1  0  0  0  0
 11 13  1  0  0  0  0
 12 13  1  0  0  0  0
 14 15  1  0  0  0  0
 14 11  1  0  0  0  0
 17 15  1  0  0  0  0
 17 16  1  1  0  0  0
 18 19  2  0  0  0  0
 19 20  1  0  0  0  0
 19 17  1  0  0  0  0
 20 22  1  0  0  0  0
 22 21  1  0  0  0  0
 22 23  1  0  0  0  0
 23 25  1  0  0  0  0
 25 24  2  0  0  0  0
 26 24  1  0  0  0  0
 27 25  1  0  0  0  0
 27 26  1  0  0  0  0
 28 29  1  0  0  0  0
 29 30  1  0  0  0  0
 30 31  1  0  0  0  0
 31 32  2  0  0  0  0
 32 35  1  0  0  0  0
 33 31  1  0  0  0  0
 33 36  1  0  0  0  0
 35 34  1  6  0  0  0
 36 37  1  0  0  0  0
 37 35  1  0  0  0  0
 37 38  1  1  0  0  0
 38 39  1  0  0  0  0
 40  2  1  0  0  0  0
 40 41  1  0  0  0  0
 42 41  1  0  0  0  0
 42 50  1  0  0  0  0
 44 50  1  0  0  0  0
 44 53  1  0  0  0  0
 45 43  1  0  0  0  0
 46 47  2  0  0  0  0
 46 51  1  0  0  0  0
 48 58  1  0  0  0  0
 49 54  1  0  0  0  0
 49 46  1  0  0  0  0
 50 59  1  0  0  0  0
 52 56  2  0  0  0  0
 52 57  1  0  0  0  0
 53 48  1  0  0  0  0
 54 59  1  0  0  0  0
 55 54  2  0  0  0  0
 56 55  1  0  0  0  0
 57 49  2  0  0  0  0
 58 43  1  0  0  0  0
 59 51  1  0  0  0  0
 59 45  1  1  0  0  0
 61 51  1  6  0  0  0
 61 62  1  0  0  0  0
 61 60  1  0  0  0  0
 62 60  1  0  0  0  0
M  END
>  <MODEL>
4

>  <REMARK>
 VINA RESULT:      -6.2      3.292      5.958
  Name = 
  21 active torsions:
  status: ('A' for Active; 'I' for Inactive)
    1  A    between atoms: C_1  and  C_42
    2  A    between atoms: C_1  and  N_45
    3  A    between atoms: C_3  and  C_56
    4  A    between atoms: C_5  and  C_22
    5  A    between atoms: C_5  and  N_59
    6  A    between atoms: C_7  and  C_27
    7  A    between atoms: C_9  and  C_57
    8  A    between atoms: C_14  and  N_29
    9  A    between atoms: C_14  and  C_32
   10  A    between atoms: C_19  and  C_23
   11  A    between atoms: C_19  and  N_45
   12  A    between atoms: C_22  and  C_55
   13  A    between atoms: C_27  and  C_32
   14  A    between atoms: N_31  and  C_60
   15  A    between atoms: C_34  and  O_53
   16  A    between atoms: C_34  and  C_56
   17  A    between atoms: C_36  and  N_59
   18  A    between atoms: C_42  and  C_55
   19  A    between atoms: C_48  and  O_53
   20  A    between atoms: C_48  and  C_58
   21  A    between atoms: C_48  and  N_59
                            x       y       z     vdW  Elec       q    Type
                         _______ _______ _______ _____ _____    ______ ____

>  <TORSDO>
F 21

$$$$
=
 OpenBabel11062416383D

 62 69  0  0  1  0  0  0  0  0999 V2000
  185.1860  176.5550  135.6970 N   0  0  0  0  0  0  0  0  0  0  0  0
  185.5370  177.5790  137.9160 C   0  0  0  0  0  0  0  0  0  0  0  0
  186.9230  175.8800  137.2450 C   0  0  0  0  0  0  0  0  0  0  0  0
  186.4000  173.3850  135.4810 C   0  0  0  0  0  1  0  0  0  0  0  0
  186.6050  176.7600  138.2100 N   0  0  0  0  0  0  0  0  0  0  0  0
  187.1530  174.7000  135.5670 C   0  0  2  0  0  3  0  0  0  0  0  0
  184.8280  177.4730  136.6610 C   0  0  0  0  0  3  0  0  0  0  0  0
  187.8570  174.7900  136.8370 C   0  0  1  0  0  3  0  0  0  0  0  0
  186.2370  175.7830  136.0250 C   0  0  0  0  0  0  0  0  0  0  0  0
  189.2710  175.3510  136.6430 C   0  0  2  0  0  3  0  0  0  0  0  0
  189.2850  176.8140  136.8010 N   0  0  0  0  0  0  0  0  0  0  0  0
  188.4060  177.7480  134.8500 O   0  0  0  0  0  1  0  0  0  0  0  0
  189.5910  177.4690  135.5320 C   0  0  0  0  0  2  0  0  0  0  0  0
  190.3530  177.1530  137.7280 C   0  0  0  0  0  2  0  0  0  0  0  0
  189.9630  176.7410  139.1340 C   0  0  0  0  0  2  0  0  0  0  0  0
  188.9380  178.8860  139.3730 F   0  0  0  0  0  0  0  0  0  0  0  0
  189.7840  177.9830  139.9970 C   0  0  1  0  0  3  0  0  0  0  0  0
  188.1070  177.3220  141.5010 O   0  0  0  0  0  0  0  0  0  0  0  0
  189.2690  177.6750  141.3750 C   0  0  0  0  0  0  0  0  0  0  0  0
  190.1570  177.7460  142.5970 C   0  0  0  0  0  2  0  0  0  0  0  0
  190.7730  175.6300  143.2350 O   0  0  0  0  0  1  0  0  0  0  0  0
  189.9410  176.6520  143.5530 N   0  0  0  0  0  0  0  0  0  0  0  0
  190.2730  177.0880  144.9030 C   0  0  0  0  0  2  0  0  0  0  0  0
  187.8000  177.7610  145.3340 N   0  0  0  0  0  0  0  0  0  0  0  0
  189.0290  177.3510  145.6780 C   0  0  0  0  0  0  0  0  0  0  0  0
  187.4440  177.6650  146.6810 C   0  0  0  0  0  2  0  0  0  0  0  0
  188.6800  177.2330  147.1060 N   0  0  0  0  0  2  0  0  0  0  0  0
  189.7800  174.9630  135.3930 O   0  0  0  0  0  0  0  0  0  0  0  0
  190.4280  173.7450  135.6190 C   0  0  0  0  0  2  0  0  0  0  0  0
  191.6070  173.6010  134.6680 C   0  0  0  0  0  2  0  0  0  0  0  0
  192.8950  173.9420  135.3420 C   0  0  0  0  0  0  0  0  0  0  0  0
  193.1390  175.2120  135.6790 C   0  0  0  0  0  3  0  0  0  0  0  0
  193.8420  172.9340  135.5980 O   0  0  0  0  0  0  0  0  0  0  0  0
  194.1470  175.6310  137.7730 O   0  0  0  0  0  1  0  0  0  0  0  0
  194.4000  175.6010  136.4000 C   0  0  1  0  0  3  0  0  0  0  0  0
  195.0530  173.1780  136.3170 C   0  0  0  0  0  2  0  0  0  0  0  0
  195.5250  174.6100  136.0700 C   0  0  2  0  0  3  0  0  0  0  0  0
  196.8370  174.9240  136.7820 C   0  0  0  0  0  2  0  0  0  0  0  0
  197.4670  176.0400  136.2220 O   0  0  0  0  0  1  0  0  0  0  0  0
  185.1240  178.6120  138.9090 C   0  0  0  0  0  2  0  0  0  0  0  0
  183.9770  179.4700  138.3860 C   0  0  0  0  0  2  0  0  0  0  0  0
  182.7520  179.4110  139.2930 C   0  0  0  0  0  2  0  0  0  0  0  0
  178.9310  179.5180  136.9070 C   0  0  0  0  0  2  0  0  0  0  0  0
  181.3830  181.2420  138.7700 C   0  0  0  0  0  2  0  0  0  0  0  0
  179.0300  179.6030  138.4350 C   0  0  0  0  0  2  0  0  0  0  0  0
  180.4350  176.9030  140.0110 C   0  0  0  0  0  0  0  0  0  0  0  0
  180.5720  175.6560  140.1310 O   0  0  0  0  0  0  0  0  0  0  0  0
  180.0940  181.7470  136.6560 C   0  0  0  0  0  2  0  0  0  0  0  0
  180.2490  177.8230  141.0990 C   0  0  0  0  0  0  0  0  0  0  0  0
  181.5360  179.7990  138.5730 N   0  0  0  0  0  0  0  0  0  0  0  0
  180.4660  177.6120  138.7680 N   0  0  0  0  0  0  0  0  0  0  0  0
  179.9420  178.6850  143.3130 C   0  0  0  0  0  3  0  0  0  0  0  0
  181.3890  181.9660  137.4300 C   0  0  0  0  0  2  0  0  0  0  0  0
  180.1930  179.0930  140.5680 C   0  0  0  0  0  0  0  0  0  0  0  0
  180.0030  180.2010  141.4000 C   0  0  0  0  0  3  0  0  0  0  0  0
  179.8790  179.9880  142.7830 C   0  0  0  0  0  3  0  0  0  0  0  0
  180.1300  177.5820  142.4670 C   0  0  0  0  0  3  0  0  0  0  0  0
  180.0050  180.3090  136.1640 C   0  0  0  0  0  2  0  0  0  0  0  0
  180.3360  179.0580  139.0540 C   0  0  2  0  0  0  0  0  0  0  0  0
  179.8880  176.0070  137.0490 C   0  0  0  0  0  2  0  0  0  0  0  0
  180.8380  177.0710  137.4550 C   0  0  2  0  0  3  0  0  0  0  0  0
  181.1680  175.7030  137.5450 O   0  0  0  0  0  0  0  0  0  0  0  0
  1  9  2  0  0  0  0
  1  7  1  0  0  0  0
  2  5  1  0  0  0  0
  2 40  1  0  0  0  0
  3  5  2  0  0  0  0
  6  4  1  1  0  0  0
  6  9  1  0  0  0  0
  6  8  1  0  0  0  0
  7  2  2  0  0  0  0
  8 10  1  6  0  0  0
  8  3  1  0  0  0  0
  9  3  1  0  0  0  0
 10 28  1  6  0  0  0
 10 11  1  0  0  0  0
 11 14  1  0  0  0  0
 12 13  1  0  0  0  0
 13 11  1  0  0  0  0
 14 15  1  0  0  0  0
 15 17  1  0  0  0  0
 17 16  1  6  0  0  0
 17 19  1  0  0  0  0
 19 18  2  0  0  0  0
 19 20  1  0  0  0  0
 20 22  1  0  0  0  0
 21 22  1  0  0  0  0
 22 23  1  0  0  0  0
 23 25  1  0  0  0  0
 24 25  2  0  0  0  0
 24 26  1  0  0  0  0
 25 27  1  0  0  0  0
 26 27  1  0  0  0  0
 28 29  1  0  0  0  0
 30 31  1  0  0  0  0
 30 29  1  0  0  0  0
 31 33  1  0  0  0  0
 31 32  2  0  0  0  0
 32 35  1  0  0  0  0
 33 36  1  0  0  0  0
 35 34  1  1  0  0  0
 37 36  1  0  0  0  0
 37 35  1  0  0  0  0
 37 38  1  1  0  0  0
 39 38  1  0  0  0  0
 41 40  1  0  0  0  0
 41 42  1  0  0  0  0
 43 45  1  0  0  0  0
 46 47  2  0  0  0  0
 46 49  1  0  0  0  0
 48 53  1  0  0  0  0
 49 57  1  0  0  0  0
 50 44  1  0  0  0  0
 50 59  1  0  0  0  0
 50 42  1  0  0  0  0
 51 59  1  0  0  0  0
 51 46  1  0  0  0  0
 53 44  1  0  0  0  0
 54 49  2  0  0  0  0
 54 55  1  0  0  0  0
 55 56  2  0  0  0  0
 56 52  1  0  0  0  0
 57 52  2  0  0  0  0
 58 48  1  0  0  0  0
 58 43  1  0  0  0  0
 59 45  1  6  0  0  0
 59 54  1  0  0  0  0
 60 62  1  0  0  0  0
 61 60  1  6  0  0  0
 61 62  1  0  0  0  0
 61 51  1  0  0  0  0
M  END
>  <MODEL>
5

>  <REMARK>
 VINA RESULT:      -6.2      2.818      6.648
  Name = 
  21 active torsions:
  status: ('A' for Active; 'I' for Inactive)
    1  A    between atoms: C_1  and  C_42
    2  A    between atoms: C_1  and  N_45
    3  A    between atoms: C_3  and  C_56
    4  A    between atoms: C_5  and  C_22
    5  A    between atoms: C_5  and  N_59
    6  A    between atoms: C_7  and  C_27
    7  A    between atoms: C_9  and  C_57
    8  A    between atoms: C_14  and  N_29
    9  A    between atoms: C_14  and  C_32
   10  A    between atoms: C_19  and  C_23
   11  A    between atoms: C_19  and  N_45
   12  A    between atoms: C_22  and  C_55
   13  A    between atoms: C_27  and  C_32
   14  A    between atoms: N_31  and  C_60
   15  A    between atoms: C_34  and  O_53
   16  A    between atoms: C_34  and  C_56
   17  A    between atoms: C_36  and  N_59
   18  A    between atoms: C_42  and  C_55
   19  A    between atoms: C_48  and  O_53
   20  A    between atoms: C_48  and  C_58
   21  A    between atoms: C_48  and  N_59
                            x       y       z     vdW  Elec       q    Type
                         _______ _______ _______ _____ _____    ______ ____

>  <TORSDO>
F 21

$$$$
=
 OpenBabel11062416383D

 62 69  0  0  1  0  0  0  0  0999 V2000
  187.4460  177.2590  143.0900 N   0  0  0  0  0  0  0  0  0  0  0  0
  186.3930  178.6800  141.3670 C   0  0  0  0  0  0  0  0  0  0  0  0
  188.6110  178.1360  141.1550 C   0  0  0  0  0  0  0  0  0  0  0  0
  190.8180  177.6660  143.2820 C   0  0  0  0  0  1  0  0  0  0  0  0
  187.5580  178.7910  140.6380 N   0  0  0  0  0  0  0  0  0  0  0  0
  189.9880  177.0040  142.1960 C   0  0  2  0  0  3  0  0  0  0  0  0
  186.3410  177.9160  142.5920 C   0  0  0  0  0  3  0  0  0  0  0  0
  190.0510  177.7880  140.9710 C   0  0  1  0  0  3  0  0  0  0  0  0
  188.5550  177.3900  142.3420 C   0  0  0  0  0  0  0  0  0  0  0  0
  190.2230  176.8810  139.7460 C   0  0  2  0  0  3  0  0  0  0  0  0
  191.6190  176.4360  139.6120 N   0  0  0  0  0  0  0  0  0  0  0  0
  193.4460  177.8770  139.4290 O   0  0  0  0  0  1  0  0  0  0  0  0
  192.5210  177.3370  140.3230 C   0  0  0  0  0  2  0  0  0  0  0  0
  191.9730  176.4980  138.2030 C   0  0  0  0  0  2  0  0  0  0  0  0
  192.5300  175.1620  137.7530 C   0  0  0  0  0  2  0  0  0  0  0  0
  194.6710  175.2580  138.8110 F   0  0  0  0  0  0  0  0  0  0  0  0
  194.0390  175.2730  137.5780 C   0  0  1  0  0  3  0  0  0  0  0  0
  194.1960  173.0530  136.8280 O   0  0  0  0  0  0  0  0  0  0  0  0
  194.6130  174.1940  136.7020 C   0  0  0  0  0  0  0  0  0  0  0  0
  195.6530  174.4890  135.6440 C   0  0  0  0  0  2  0  0  0  0  0  0
  197.2850  175.8950  136.4350 O   0  0  0  0  0  1  0  0  0  0  0  0
  197.0210  174.5920  136.1700 N   0  0  0  0  0  0  0  0  0  0  0  0
  197.1350  173.8560  137.4220 C   0  0  0  0  0  2  0  0  0  0  0  0
  199.0950  172.2110  136.9610 N   0  0  0  0  0  0  0  0  0  0  0  0
  197.8190  172.5530  137.1900 C   0  0  0  0  0  0  0  0  0  0  0  0
  198.6780  170.8790  136.9110 C   0  0  0  0  0  2  0  0  0  0  0  0
  197.3510  171.1550  137.1500 N   0  0  0  0  0  2  0  0  0  0  0  0
  189.7780  177.5400  138.5890 O   0  0  0  0  0  0  0  0  0  0  0  0
  188.6300  176.8500  138.1880 C   0  0  0  0  0  2  0  0  0  0  0  0
  188.8560  176.2170  136.8220 C   0  0  0  0  0  2  0  0  0  0  0  0
  187.9710  175.0330  136.6180 C   0  0  0  0  0  0  0  0  0  0  0  0
  188.3440  174.0790  135.7580 C   0  0  0  0  0  3  0  0  0  0  0  0
  186.7510  174.9390  137.3120 O   0  0  0  0  0  0  0  0  0  0  0  0
  187.9910  171.8280  136.3760 O   0  0  0  0  0  1  0  0  0  0  0  0
  187.5110  172.8460  135.5490 C   0  0  1  0  0  3  0  0  0  0  0  0
  185.9020  173.7930  137.2280 C   0  0  0  0  0  2  0  0  0  0  0  0
  186.0360  173.1460  135.8500 C   0  0  2  0  0  3  0  0  0  0  0  0
  185.1240  171.9340  135.6820 C   0  0  0  0  0  2  0  0  0  0  0  0
  184.3130  171.7450  136.8060 O   0  0  0  0  0  1  0  0  0  0  0  0
  185.1580  179.3450  140.8610 C   0  0  0  0  0  2  0  0  0  0  0  0
  184.5080  178.5460  139.7370 C   0  0  0  0  0  2  0  0  0  0  0  0
  183.1930  179.1660  139.2740 C   0  0  0  0  0  2  0  0  0  0  0  0
  179.6820  176.3440  139.2080 C   0  0  0  0  0  2  0  0  0  0  0  0
  182.5790  177.6050  137.6360 C   0  0  0  0  0  2  0  0  0  0  0  0
  179.7950  177.6430  138.4020 C   0  0  0  0  0  2  0  0  0  0  0  0
  180.1240  180.5280  140.2230 C   0  0  0  0  0  0  0  0  0  0  0  0
  179.8020  181.2400  141.2110 O   0  0  0  0  0  0  0  0  0  0  0  0
  181.5710  175.3020  137.8930 C   0  0  0  0  0  2  0  0  0  0  0  0
  180.2760  181.0040  138.8750 C   0  0  0  0  0  0  0  0  0  0  0  0
  182.2030  178.1370  138.9480 N   0  0  0  0  0  0  0  0  0  0  0  0
  180.4160  179.1280  140.2850 N   0  0  0  0  0  0  0  0  0  0  0  0
  180.2870  182.4580  136.9710 C   0  0  0  0  0  3  0  0  0  0  0  0
  182.8530  176.1090  137.7260 C   0  0  0  0  0  2  0  0  0  0  0  0
  180.6840  179.9410  138.1000 C   0  0  0  0  0  0  0  0  0  0  0  0
  180.9010  180.1070  136.7280 C   0  0  0  0  0  3  0  0  0  0  0  0
  180.7000  181.3790  136.1660 C   0  0  0  0  0  3  0  0  0  0  0  0
  180.0700  182.2770  138.3450 C   0  0  0  0  0  3  0  0  0  0  0  0
  180.9740  175.5320  139.2740 C   0  0  0  0  0  2  0  0  0  0  0  0
  180.8140  178.6760  138.9330 C   0  0  2  0  0  0  0  0  0  0  0  0
  180.5750  179.1810  142.7000 C   0  0  0  0  0  2  0  0  0  0  0  0
  180.5760  178.3150  141.4970 C   0  0  2  0  0  3  0  0  0  0  0  0
  181.7650  178.6470  142.1770 O   0  0  0  0  0  0  0  0  0  0  0  0
  2  7  2  0  0  0  0
  3  9  1  0  0  0  0
  5  3  2  0  0  0  0
  5  2  1  0  0  0  0
  6  9  1  0  0  0  0
  6  4  1  1  0  0  0
  7  1  1  0  0  0  0
  8 10  1  6  0  0  0
  8  3  1  0  0  0  0
  8  6  1  0  0  0  0
  9  1  2  0  0  0  0
 10 28  1  6  0  0  0
 11 10  1  0  0  0  0
 11 13  1  0  0  0  0
 12 13  1  0  0  0  0
 14 11  1  0  0  0  0
 15 14  1  0  0  0  0
 17 15  1  0  0  0  0
 17 16  1  1  0  0  0
 19 18  2  0  0  0  0
 19 17  1  0  0  0  0
 20 22  1  0  0  0  0
 20 19  1  0  0  0  0
 22 21  1  0  0  0  0
 22 23  1  0  0  0  0
 24 25  2  0  0  0  0
 25 23  1  0  0  0  0
 26 24  1  0  0  0  0
 26 27  1  0  0  0  0
 27 25  1  0  0  0  0
 29 28  1  0  0  0  0
 30 29  1  0  0  0  0
 31 30  1  0  0  0  0
 31 33  1  0  0  0  0
 32 31  2  0  0  0  0
 35 32  1  0  0  0  0
 35 37  1  0  0  0  0
 35 34  1  1  0  0  0
 36 33  1  0  0  0  0
 37 38  1  1  0  0  0
 37 36  1  0  0  0  0
 38 39  1  0  0  0  0
 40  2  1  0  0  0  0
 41 40  1  0  0  0  0
 42 41  1  0  0  0  0
 43 58  1  0  0  0  0
 44 53  1  0  0  0  0
 44 50  1  0  0  0  0
 45 43  1  0  0  0  0
 46 51  1  0  0  0  0
 46 47  2  0  0  0  0
 48 58  1  0  0  0  0
 49 46  1  0  0  0  0
 50 42  1  0  0  0  0
 52 57  2  0  0  0  0
 53 48  1  0  0  0  0
 54 49  2  0  0  0  0
 54 59  1  0  0  0  0
 55 54  1  0  0  0  0
 56 55  2  0  0  0  0
 56 52  1  0  0  0  0
 57 49  1  0  0  0  0
 59 45  1  6  0  0  0
 59 50  1  0  0  0  0
 59 51  1  0  0  0  0
 61 51  1  6  0  0  0
 61 62  1  0  0  0  0
 61 60  1  0  0  0  0
 62 60  1  0  0  0  0
M  END
>  <MODEL>
6

>  <REMARK>
 VINA RESULT:      -6.0      3.904      7.177
  Name = 
  21 active torsions:
  status: ('A' for Active; 'I' for Inactive)
    1  A    between atoms: C_1  and  C_42
    2  A    between atoms: C_1  and  N_45
    3  A    between atoms: C_3  and  C_56
    4  A    between atoms: C_5  and  C_22
    5  A    between atoms: C_5  and  N_59
    6  A    between atoms: C_7  and  C_27
    7  A    between atoms: C_9  and  C_57
    8  A    between atoms: C_14  and  N_29
    9  A    between atoms: C_14  and  C_32
   10  A    between atoms: C_19  and  C_23
   11  A    between atoms: C_19  and  N_45
   12  A    between atoms: C_22  and  C_55
   13  A    between atoms: C_27  and  C_32
   14  A    between atoms: N_31  and  C_60
   15  A    between atoms: C_34  and  O_53
   16  A    between atoms: C_34  and  C_56
   17  A    between atoms: C_36  and  N_59
   18  A    between atoms: C_42  and  C_55
   19  A    between atoms: C_48  and  O_53
   20  A    between atoms: C_48  and  C_58
   21  A    between atoms: C_48  and  N_59
                            x       y       z     vdW  Elec       q    Type
                         _______ _______ _______ _____ _____    ______ ____

>  <TORSDO>
F 21

$$$$
=
 OpenBabel11062416383D

 62 69  0  0  1  0  0  0  0  0999 V2000
  187.1270  178.0660  135.7740 N   0  0  0  0  0  0  0  0  0  0  0  0
  186.0260  178.1250  137.9840 C   0  0  0  0  0  0  0  0  0  0  0  0
  187.5940  176.5050  137.5670 C   0  0  0  0  0  0  0  0  0  0  0  0
  188.3340  174.9910  134.9650 C   0  0  0  0  0  1  0  0  0  0  0  0
  186.7260  177.0320  138.4470 N   0  0  0  0  0  0  0  0  0  0  0  0
  188.8350  175.9790  136.0040 C   0  0  2  0  0  3  0  0  0  0  0  0
  186.2260  178.6380  136.6480 C   0  0  0  0  0  3  0  0  0  0  0  0
  188.6220  175.4460  137.3420 C   0  0  1  0  0  3  0  0  0  0  0  0
  187.7910  177.0080  136.2730 C   0  0  0  0  0  0  0  0  0  0  0  0
  189.8440  175.6990  138.2340 C   0  0  2  0  0  3  0  0  0  0  0  0
  189.6200  176.8490  139.1220 N   0  0  0  0  0  0  0  0  0  0  0  0
  189.5180  179.0590  138.3760 O   0  0  0  0  0  1  0  0  0  0  0  0
  190.3870  178.0080  138.6710 C   0  0  0  0  0  2  0  0  0  0  0  0
  190.1150  176.4960  140.4430 C   0  0  0  0  0  2  0  0  0  0  0  0
  191.3840  177.2700  140.7410 C   0  0  0  0  0  2  0  0  0  0  0  0
  191.4970  178.6550  142.6850 F   0  0  0  0  0  0  0  0  0  0  0  0
  191.5920  177.3440  142.2480 C   0  0  1  0  0  3  0  0  0  0  0  0
  190.7330  175.2680  142.9310 O   0  0  0  0  0  0  0  0  0  0  0  0
  190.6320  176.4810  143.0200 C   0  0  0  0  0  0  0  0  0  0  0  0
  189.5810  177.0720  143.9320 C   0  0  0  0  0  2  0  0  0  0  0  0
  187.9460  175.6780  143.1240 O   0  0  0  0  0  1  0  0  0  0  0  0
  188.2140  176.9780  143.4010 N   0  0  0  0  0  0  0  0  0  0  0  0
  187.2530  177.4230  144.4020 C   0  0  0  0  0  2  0  0  0  0  0  0
  185.6200  178.1070  142.4990 N   0  0  0  0  0  0  0  0  0  0  0  0
  186.1150  178.1230  143.7440 C   0  0  0  0  0  0  0  0  0  0  0  0
  184.6480  179.0150  142.9250 C   0  0  0  0  0  2  0  0  0  0  0  0
  185.0960  179.0760  144.2250 N   0  0  0  0  0  2  0  0  0  0  0  0
  190.9930  175.8720  137.4450 O   0  0  0  0  0  0  0  0  0  0  0  0
  191.6310  174.6270  137.4410 C   0  0  0  0  0  2  0  0  0  0  0  0
  192.3700  174.4270  136.1260 C   0  0  0  0  0  2  0  0  0  0  0  0
  193.8350  174.6630  136.2830 C   0  0  0  0  0  0  0  0  0  0  0  0
  194.5170  175.2270  135.2810 C   0  0  0  0  0  3  0  0  0  0  0  0
  194.4860  174.2750  137.4680 O   0  0  0  0  0  0  0  0  0  0  0  0
  196.1430  176.8520  135.8220 O   0  0  0  0  0  1  0  0  0  0  0  0
  195.9840  175.5280  135.4060 C   0  0  1  0  0  3  0  0  0  0  0  0
  195.8660  174.5520  137.7160 C   0  0  0  0  0  2  0  0  0  0  0  0
  196.6400  174.5590  136.3990 C   0  0  2  0  0  3  0  0  0  0  0  0
  198.1320  174.8130  136.5990 C   0  0  0  0  0  2  0  0  0  0  0  0
  198.7440  175.2170  135.4090 O   0  0  0  0  0  1  0  0  0  0  0  0
  185.0600  178.8040  138.8950 C   0  0  0  0  0  2  0  0  0  0  0  0
  183.6560  178.8400  138.3020 C   0  0  0  0  0  2  0  0  0  0  0  0
  182.6770  179.6100  139.1820 C   0  0  0  0  0  2  0  0  0  0  0  0
  178.9980  179.9620  136.6040 C   0  0  0  0  0  2  0  0  0  0  0  0
  181.4160  181.5150  138.6530 C   0  0  0  0  0  2  0  0  0  0  0  0
  179.0180  179.9920  138.1370 C   0  0  0  0  0  2  0  0  0  0  0  0
  180.2210  177.1830  139.6890 C   0  0  0  0  0  0  0  0  0  0  0  0
  180.2990  175.9290  139.7720 O   0  0  0  0  0  0  0  0  0  0  0  0
  180.2650  182.1450  136.4930 C   0  0  0  0  0  2  0  0  0  0  0  0
  180.0160  178.0750  140.7970 C   0  0  0  0  0  0  0  0  0  0  0  0
  181.5190  180.0740  138.4130 N   0  0  0  0  0  0  0  0  0  0  0  0
  180.3490  177.9310  138.4750 N   0  0  0  0  0  0  0  0  0  0  0  0
  179.6260  178.8760  143.0220 C   0  0  0  0  0  3  0  0  0  0  0  0
  181.5240  182.2830  137.3410 C   0  0  0  0  0  2  0  0  0  0  0  0
  180.0410  179.3630  140.3090 C   0  0  0  0  0  0  0  0  0  0  0  0
  179.8530  180.4500  141.1680 C   0  0  0  0  0  3  0  0  0  0  0  0
  179.6460  180.1980  142.5340 C   0  0  0  0  0  3  0  0  0  0  0  0
  179.8140  177.7950  142.1480 C   0  0  0  0  0  3  0  0  0  0  0  0
  180.1430  180.7300  135.9470 C   0  0  0  0  0  2  0  0  0  0  0  0
  180.2650  179.3710  138.8040 C   0  0  2  0  0  0  0  0  0  0  0  0
  179.6580  176.6750  136.5230 C   0  0  0  0  0  2  0  0  0  0  0  0
  180.7690  177.4170  137.1650 C   0  0  2  0  0  3  0  0  0  0  0  0
  180.7320  176.0080  137.1370 O   0  0  0  0  0  0  0  0  0  0  0  0
  1  9  2  0  0  0  0
  1  7  1  0  0  0  0
  2  5  1  0  0  0  0
  2 40  1  0  0  0  0
  3  5  2  0  0  0  0
  6  4  1  6  0  0  0
  6  9  1  0  0  0  0
  6  8  1  0  0  0  0
  7  2  2  0  0  0  0
  8  3  1  0  0  0  0
  8 10  1  1  0  0  0
  9  3  1  0  0  0  0
 10 28  1  6  0  0  0
 10 11  1  0  0  0  0
 11 14  1  0  0  0  0
 12 13  1  0  0  0  0
 13 11  1  0  0  0  0
 14 15  1  0  0  0  0
 15 17  1  0  0  0  0
 17 16  1  1  0  0  0
 17 19  1  0  0  0  0
 18 19  2  0  0  0  0
 19 20  1  0  0  0  0
 21 22  1  0  0  0  0
 22 20  1  0  0  0  0
 22 23  1  0  0  0  0
 24 26  1  0  0  0  0
 24 25  2  0  0  0  0
 25 27  1  0  0  0  0
 25 23  1  0  0  0  0
 26 27  1  0  0  0  0
 29 28  1  0  0  0  0
 30 31  1  0  0  0  0
 30 29  1  0  0  0  0
 31 33  1  0  0  0  0
 32 35  1  0  0  0  0
 32 31  2  0  0  0  0
 33 36  1  0  0  0  0
 35 34  1  1  0  0  0
 35 37  1  0  0  0  0
 37 38  1  1  0  0  0
 37 36  1  0  0  0  0
 39 38  1  0  0  0  0
 41 40  1  0  0  0  0
 41 42  1  0  0  0  0
 43 45  1  0  0  0  0
 46 47  2  0  0  0  0
 46 49  1  0  0  0  0
 48 53  1  0  0  0  0
 49 57  1  0  0  0  0
 50 44  1  0  0  0  0
 50 59  1  0  0  0  0
 50 42  1  0  0  0  0
 51 59  1  0  0  0  0
 51 46  1  0  0  0  0
 53 44  1  0  0  0  0
 54 49  2  0  0  0  0
 54 55  1  0  0  0  0
 55 56  2  0  0  0  0
 56 52  1  0  0  0  0
 57 52  2  0  0  0  0
 58 48  1  0  0  0  0
 58 43  1  0  0  0  0
 59 45  1  6  0  0  0
 59 54  1  0  0  0  0
 60 62  1  0  0  0  0
 61 60  1  6  0  0  0
 61 51  1  0  0  0  0
 62 61  1  0  0  0  0
M  END
>  <MODEL>
7

>  <REMARK>
 VINA RESULT:      -5.9      2.948      6.803
  Name = 
  21 active torsions:
  status: ('A' for Active; 'I' for Inactive)
    1  A    between atoms: C_1  and  C_42
    2  A    between atoms: C_1  and  N_45
    3  A    between atoms: C_3  and  C_56
    4  A    between atoms: C_5  and  C_22
    5  A    between atoms: C_5  and  N_59
    6  A    between atoms: C_7  and  C_27
    7  A    between atoms: C_9  and  C_57
    8  A    between atoms: C_14  and  N_29
    9  A    between atoms: C_14  and  C_32
   10  A    between atoms: C_19  and  C_23
   11  A    between atoms: C_19  and  N_45
   12  A    between atoms: C_22  and  C_55
   13  A    between atoms: C_27  and  C_32
   14  A    between atoms: N_31  and  C_60
   15  A    between atoms: C_34  and  O_53
   16  A    between atoms: C_34  and  C_56
   17  A    between atoms: C_36  and  N_59
   18  A    between atoms: C_42  and  C_55
   19  A    between atoms: C_48  and  O_53
   20  A    between atoms: C_48  and  C_58
   21  A    between atoms: C_48  and  N_59
                            x       y       z     vdW  Elec       q    Type
                         _______ _______ _______ _____ _____    ______ ____

>  <TORSDO>
F 21

$$$$
=
 OpenBabel11062416383D

 62 69  0  0  1  0  0  0  0  0999 V2000
  189.4890  177.7280  144.6670 N   0  0  0  0  0  0  0  0  0  0  0  0
  189.8730  177.1170  142.3060 C   0  0  0  0  0  0  0  0  0  0  0  0
  187.7390  177.5970  142.9960 C   0  0  0  0  0  0  0  0  0  0  0  0
  186.3060  177.1220  145.7040 C   0  0  0  0  0  1  0  0  0  0  0  0
  188.5400  177.2360  141.9780 N   0  0  0  0  0  0  0  0  0  0  0  0
  186.8220  178.1850  144.7490 C   0  0  2  0  0  3  0  0  0  0  0  0
  190.3440  177.3600  143.6500 C   0  0  0  0  0  3  0  0  0  0  0  0
  186.3400  177.9210  143.4020 C   0  0  1  0  0  3  0  0  0  0  0  0
  188.2010  177.8390  144.2990 C   0  0  0  0  0  0  0  0  0  0  0  0
  185.8790  179.2150  142.7210 C   0  0  2  0  0  3  0  0  0  0  0  0
  184.4790  179.5190  143.0560 N   0  0  0  0  0  0  0  0  0  0  0  0
  183.6840  179.3770  145.2470 O   0  0  0  0  0  1  0  0  0  0  0  0
  184.3910  180.1840  144.3540 C   0  0  0  0  0  2  0  0  0  0  0  0
  183.7640  178.2580  143.1710 C   0  0  0  0  0  2  0  0  0  0  0  0
  182.7000  178.1710  142.0940 C   0  0  0  0  0  2  0  0  0  0  0  0
  181.2710  179.6220  143.3440 F   0  0  0  0  0  0  0  0  0  0  0  0
  181.3270  178.3880  142.7160 C   0  0  1  0  0  3  0  0  0  0  0  0
  179.8300  179.2810  141.1430 O   0  0  0  0  0  0  0  0  0  0  0  0
  180.2040  178.2740  141.7230 C   0  0  0  0  0  0  0  0  0  0  0  0
  179.5600  176.9470  141.3910 C   0  0  0  0  0  2  0  0  0  0  0  0
  181.3270  176.3960  140.0340 O   0  0  0  0  0  1  0  0  0  0  0  0
  179.9720  176.3950  140.0940 N   0  0  0  0  0  0  0  0  0  0  0  0
  179.5260  175.0130  139.9690 C   0  0  0  0  0  2  0  0  0  0  0  0
  179.2940  175.0810  137.3810 N   0  0  0  0  0  0  0  0  0  0  0  0
  179.6620  174.5560  138.5580 C   0  0  0  0  0  0  0  0  0  0  0  0
  179.8580  173.9640  136.7610 C   0  0  0  0  0  2  0  0  0  0  0  0
  180.2730  173.3690  137.9310 N   0  0  0  0  0  2  0  0  0  0  0  0
  186.0680  179.1270  141.3320 O   0  0  0  0  0  0  0  0  0  0  0  0
  184.7840  179.1710  140.7790 C   0  0  0  0  0  2  0  0  0  0  0  0
  184.8420  178.8040  139.3040 C   0  0  0  0  0  2  0  0  0  0  0  0
  183.5200  179.0060  138.6400 C   0  0  0  0  0  0  0  0  0  0  0  0
  182.7120  179.9780  139.0760 C   0  0  0  0  0  3  0  0  0  0  0  0
  183.1290  178.1670  137.5820 O   0  0  0  0  0  0  0  0  0  0  0  0
  181.5590  181.2670  137.4680 O   0  0  0  0  0  1  0  0  0  0  0  0
  181.3910  180.2530  138.4140 C   0  0  1  0  0  3  0  0  0  0  0  0
  181.9190  178.3630  136.8480 C   0  0  0  0  0  2  0  0  0  0  0  0
  180.8540  178.9740  137.7560 C   0  0  2  0  0  3  0  0  0  0  0  0
  179.5210  179.1760  137.0410 C   0  0  0  0  0  2  0  0  0  0  0  0
  179.7030  179.3760  135.6690 O   0  0  0  0  0  1  0  0  0  0  0  0
  190.8490  176.7520  141.2390 C   0  0  0  0  0  2  0  0  0  0  0  0
  190.3210  177.0950  139.8510 C   0  0  0  0  0  2  0  0  0  0  0  0
  189.8720  175.8570  139.0810 C   0  0  0  0  0  2  0  0  0  0  0  0
  191.5740  174.4740  135.1460 C   0  0  0  0  0  2  0  0  0  0  0  0
  191.6440  176.7560  137.8360 C   0  0  0  0  0  2  0  0  0  0  0  0
  190.6580  175.6870  135.3420 C   0  0  0  0  0  2  0  0  0  0  0  0
  187.5420  175.0370  136.6160 C   0  0  0  0  0  0  0  0  0  0  0  0
  186.5060  174.3230  136.6580 O   0  0  0  0  0  0  0  0  0  0  0  0
  193.4170  175.5860  136.4680 C   0  0  0  0  0  2  0  0  0  0  0  0
  187.5550  176.4740  136.5710 C   0  0  0  0  0  0  0  0  0  0  0  0
  190.6590  175.6720  137.8600 N   0  0  0  0  0  0  0  0  0  0  0  0
  188.8830  174.5340  136.6300 N   0  0  0  0  0  0  0  0  0  0  0  0
  186.8050  178.7470  136.4680 C   0  0  0  0  0  3  0  0  0  0  0  0
  193.0590  176.1910  137.8210 C   0  0  0  0  0  2  0  0  0  0  0  0
  188.8720  176.8810  136.5860 C   0  0  0  0  0  0  0  0  0  0  0  0
  189.1930  178.2410  136.5360 C   0  0  0  0  0  3  0  0  0  0  0  0
  188.1460  179.1760  136.4780 C   0  0  0  0  0  3  0  0  0  0  0  0
  186.4970  177.3790  136.5150 C   0  0  0  0  0  3  0  0  0  0  0  0
  192.6320  174.3040  136.2340 C   0  0  0  0  0  2  0  0  0  0  0  0
  189.8120  175.6860  136.6350 C   0  0  2  0  0  0  0  0  0  0  0  0
  189.0340  172.3100  135.6840 C   0  0  0  0  0  2  0  0  0  0  0  0
  189.3000  173.1490  136.8780 C   0  0  2  0  0  3  0  0  0  0  0  0
  188.2000  172.2690  136.8150 O   0  0  0  0  0  0  0  0  0  0  0  0
  2  7  1  0  0  0  0
  3  8  1  0  0  0  0
  3  9  2  0  0  0  0
  5  2  2  0  0  0  0
  5  3  1  0  0  0  0
  6  4  1  1  0  0  0
  7  1  2  0  0  0  0
  8 10  1  6  0  0  0
  8  6  1  0  0  0  0
  9  1  1  0  0  0  0
  9  6  1  0  0  0  0
 10 28  1  6  0  0  0
 10 11  1  0  0  0  0
 11 14  1  0  0  0  0
 11 13  1  0  0  0  0
 13 12  1  0  0  0  0
 15 17  1  0  0  0  0
 15 14  1  0  0  0  0
 17 16  1  6  0  0  0
 18 19  2  0  0  0  0
 19 17  1  0  0  0  0
 20 19  1  0  0  0  0
 21 22  1  0  0  0  0
 22 20  1  0  0  0  0
 23 22  1  0  0  0  0
 24 25  2  0  0  0  0
 25 23  1  0  0  0  0
 26 24  1  0  0  0  0
 26 27  1  0  0  0  0
 27 25  1  0  0  0  0
 29 28  1  0  0  0  0
 30 29  1  0  0  0  0
 31 32  2  0  0  0  0
 31 30  1  0  0  0  0
 33 31  1  0  0  0  0
 35 34  1  6  0  0  0
 35 32  1  0  0  0  0
 36 33  1  0  0  0  0
 36 37  1  0  0  0  0
 37 38  1  6  0  0  0
 37 35  1  0  0  0  0
 39 38  1  0  0  0  0
 40  2  1  0  0  0  0
 41 40  1  0  0  0  0
 42 41  1  0  0  0  0
 43 45  1  0  0  0  0
 43 58  1  0  0  0  0
 44 50  1  0  0  0  0
 46 51  1  0  0  0  0
 46 47  2  0  0  0  0
 48 53  1  0  0  0  0
 49 54  1  0  0  0  0
 49 46  1  0  0  0  0
 50 42  1  0  0  0  0
 51 59  1  0  0  0  0
 51 61  1  0  0  0  0
 52 56  2  0  0  0  0
 52 57  1  0  0  0  0
 53 44  1  0  0  0  0
 54 59  1  0  0  0  0
 55 54  2  0  0  0  0
 56 55  1  0  0  0  0
 57 49  2  0  0  0  0
 58 48  1  0  0  0  0
 59 45  1  6  0  0  0
 59 50  1  0  0  0  0
 60 62  1  0  0  0  0
 61 60  1  6  0  0  0
 62 61  1  0  0  0  0
M  END
>  <MODEL>
8

>  <REMARK>
 VINA RESULT:      -5.7      2.769      9.362
  Name = 
  21 active torsions:
  status: ('A' for Active; 'I' for Inactive)
    1  A    between atoms: C_1  and  C_42
    2  A    between atoms: C_1  and  N_45
    3  A    between atoms: C_3  and  C_56
    4  A    between atoms: C_5  and  C_22
    5  A    between atoms: C_5  and  N_59
    6  A    between atoms: C_7  and  C_27
    7  A    between atoms: C_9  and  C_57
    8  A    between atoms: C_14  and  N_29
    9  A    between atoms: C_14  and  C_32
   10  A    between atoms: C_19  and  C_23
   11  A    between atoms: C_19  and  N_45
   12  A    between atoms: C_22  and  C_55
   13  A    between atoms: C_27  and  C_32
   14  A    between atoms: N_31  and  C_60
   15  A    between atoms: C_34  and  O_53
   16  A    between atoms: C_34  and  C_56
   17  A    between atoms: C_36  and  N_59
   18  A    between atoms: C_42  and  C_55
   19  A    between atoms: C_48  and  O_53
   20  A    between atoms: C_48  and  C_58
   21  A    between atoms: C_48  and  N_59
                            x       y       z     vdW  Elec       q    Type
                         _______ _______ _______ _____ _____    ______ ____

>  <TORSDO>
F 21

$$$$
=
 OpenBabel11062416383D

 62 69  0  0  1  0  0  0  0  0999 V2000
  187.2050  177.0110  143.5470 N   0  0  0  0  0  0  0  0  0  0  0  0
  185.7570  178.3910  142.0980 C   0  0  0  0  0  0  0  0  0  0  0  0
  187.9890  178.2200  141.5980 C   0  0  0  0  0  0  0  0  0  0  0  0
  190.4800  177.9230  143.4210 C   0  0  0  0  0  1  0  0  0  0  0  0
  186.7970  178.7440  141.2650 N   0  0  0  0  0  0  0  0  0  0  0  0
  189.6310  177.2330  142.3660 C   0  0  2  0  0  3  0  0  0  0  0  0
  185.9650  177.5280  143.2380 C   0  0  0  0  0  3  0  0  0  0  0  0
  189.4320  178.1190  141.2290 C   0  0  1  0  0  3  0  0  0  0  0  0
  188.1860  177.3770  142.7020 C   0  0  0  0  0  0  0  0  0  0  0  0
  189.5860  177.3570  139.9070 C   0  0  2  0  0  3  0  0  0  0  0  0
  190.8370  176.5840  139.8860 N   0  0  0  0  0  0  0  0  0  0  0  0
  192.9860  177.1080  139.1410 O   0  0  0  0  0  1  0  0  0  0  0  0
  191.9910  177.4620  140.0520 C   0  0  0  0  0  2  0  0  0  0  0  0
  190.9560  175.9630  138.5760 C   0  0  0  0  0  2  0  0  0  0  0  0
  189.6340  175.3320  138.1840 C   0  0  0  0  0  2  0  0  0  0  0  0
  188.7370  173.3340  137.2270 F   0  0  0  0  0  0  0  0  0  0  0  0
  189.8930  174.0890  137.3420 C   0  0  1  0  0  3  0  0  0  0  0  0
  189.6710  174.8750  135.1400 O   0  0  0  0  0  0  0  0  0  0  0  0
  190.4300  174.4050  135.9730 C   0  0  0  0  0  0  0  0  0  0  0  0
  191.8850  174.2000  135.6170 C   0  0  0  0  0  2  0  0  0  0  0  0
  191.5600  176.2790  134.7030 O   0  0  0  0  0  1  0  0  0  0  0  0
  192.5240  175.3840  135.0290 N   0  0  0  0  0  0  0  0  0  0  0  0
  193.4030  176.0180  136.0040 C   0  0  0  0  0  2  0  0  0  0  0  0
  195.9620  176.4640  135.9110 N   0  0  0  0  0  0  0  0  0  0  0  0
  194.8270  175.8140  135.6190 C   0  0  0  0  0  0  0  0  0  0  0  0
  196.6430  175.5270  135.1310 C   0  0  0  0  0  2  0  0  0  0  0  0
  195.5200  174.8050  134.7950 N   0  0  0  0  0  2  0  0  0  0  0  0
  189.5110  178.2460  138.8220 O   0  0  0  0  0  0  0  0  0  0  0  0
  188.1710  178.2300  138.4210 C   0  0  0  0  0  2  0  0  0  0  0  0
  188.0840  178.2730  136.9030 C   0  0  0  0  0  2  0  0  0  0  0  0
  187.0510  177.3250  136.3900 C   0  0  0  0  0  0  0  0  0  0  0  0
  185.8390  177.3130  136.9530 C   0  0  0  0  0  3  0  0  0  0  0  0
  187.3660  176.4450  135.3390 O   0  0  0  0  0  0  0  0  0  0  0  0
  183.9600  177.1190  135.5360 O   0  0  0  0  0  1  0  0  0  0  0  0
  184.7500  176.4110  136.4440 C   0  0  1  0  0  3  0  0  0  0  0  0
  186.3990  175.5760  134.7450 C   0  0  0  0  0  2  0  0  0  0  0  0
  185.3600  175.1650  135.7860 C   0  0  2  0  0  3  0  0  0  0  0  0
  184.3150  174.2050  135.2230 C   0  0  0  0  0  2  0  0  0  0  0  0
  184.6540  172.8730  135.4820 O   0  0  0  0  0  1  0  0  0  0  0  0
  184.3870  178.8950  141.7970 C   0  0  0  0  0  2  0  0  0  0  0  0
  184.0410  178.7380  140.3200 C   0  0  0  0  0  2  0  0  0  0  0  0
  182.6940  179.3650  139.9730 C   0  0  0  0  0  2  0  0  0  0  0  0
  179.0670  176.6950  140.0970 C   0  0  0  0  0  2  0  0  0  0  0  0
  182.0820  177.6290  138.5200 C   0  0  0  0  0  2  0  0  0  0  0  0
  179.2730  177.8730  139.1380 C   0  0  0  0  0  2  0  0  0  0  0  0
  179.6500  180.9550  140.5890 C   0  0  0  0  0  0  0  0  0  0  0  0
  179.3170  181.8010  141.4620 O   0  0  0  0  0  0  0  0  0  0  0  0
  180.9630  175.4190  139.0200 C   0  0  0  0  0  2  0  0  0  0  0  0
  179.8820  181.2470  139.2010 C   0  0  0  0  0  0  0  0  0  0  0  0
  181.6740  178.3410  139.7330 N   0  0  0  0  0  0  0  0  0  0  0  0
  179.8760  179.5650  140.8440 N   0  0  0  0  0  0  0  0  0  0  0  0
  180.0400  182.4400  137.1290 C   0  0  0  0  0  3  0  0  0  0  0  0
  182.2860  176.1480  138.8140 C   0  0  0  0  0  2  0  0  0  0  0  0
  180.2750  180.0770  138.5880 C   0  0  0  0  0  0  0  0  0  0  0  0
  180.5580  180.0550  137.2190 C   0  0  0  0  0  3  0  0  0  0  0  0
  180.4390  181.2500  136.4900 C   0  0  0  0  0  3  0  0  0  0  0  0
  179.7560  182.4470  138.5030 C   0  0  0  0  0  3  0  0  0  0  0  0
  180.3170  175.8490  140.3290 C   0  0  0  0  0  2  0  0  0  0  0  0
  180.3120  178.9260  139.5820 C   0  0  2  0  0  0  0  0  0  0  0  0
  179.4220  179.8120  143.2090 C   0  0  0  0  0  2  0  0  0  0  0  0
  179.9470  178.9110  142.1560 C   0  0  2  0  0  3  0  0  0  0  0  0
  180.8010  179.6150  143.0290 O   0  0  0  0  0  0  0  0  0  0  0  0
  2  7  2  0  0  0  0
  3  9  1  0  0  0  0
  5  3  2  0  0  0  0
  5  2  1  0  0  0  0
  6  9  1  0  0  0  0
  6  4  1  1  0  0  0
  7  1  1  0  0  0  0
  8 10  1  6  0  0  0
  8  3  1  0  0  0  0
  8  6  1  0  0  0  0
  9  1  2  0  0  0  0
 10 28  1  6  0  0  0
 11 10  1  0  0  0  0
 11 13  1  0  0  0  0
 12 13  1  0  0  0  0
 14 11  1  0  0  0  0
 15 14  1  0  0  0  0
 17 16  1  6  0  0  0
 17 15  1  0  0  0  0
 18 19  2  0  0  0  0
 19 17  1  0  0  0  0
 20 19  1  0  0  0  0
 21 22  1  0  0  0  0
 22 20  1  0  0  0  0
 22 23  1  0  0  0  0
 25 24  2  0  0  0  0
 25 23  1  0  0  0  0
 26 24  1  0  0  0  0
 27 26  1  0  0  0  0
 27 25  1  0  0  0  0
 29 28  1  0  0  0  0
 30 29  1  0  0  0  0
 31 30  1  0  0  0  0
 31 32  2  0  0  0  0
 33 31  1  0  0  0  0
 35 34  1  6  0  0  0
 35 32  1  0  0  0  0
 36 33  1  0  0  0  0
 36 37  1  0  0  0  0
 37 38  1  6  0  0  0
 37 35  1  0  0  0  0
 38 39  1  0  0  0  0
 40  2  1  0  0  0  0
 41 40  1  0  0  0  0
 42 41  1  0  0  0  0
 43 58  1  0  0  0  0
 44 53  1  0  0  0  0
 44 50  1  0  0  0  0
 45 43  1  0  0  0  0
 46 51  1  0  0  0  0
 46 47  2  0  0  0  0
 48 58  1  0  0  0  0
 49 46  1  0  0  0  0
 50 42  1  0  0  0  0
 52 57  1  0  0  0  0
 53 48  1  0  0  0  0
 54 49  1  0  0  0  0
 54 59  1  0  0  0  0
 55 54  2  0  0  0  0
 56 52  2  0  0  0  0
 56 55  1  0  0  0  0
 57 49  2  0  0  0  0
 59 45  1  6  0  0  0
 59 50  1  0  0  0  0
 59 51  1  0  0  0  0
 61 51  1  6  0  0  0
 61 62  1  0  0  0  0
 61 60  1  0  0  0  0
 62 60  1  0  0  0  0
M  END
>  <MODEL>
9

>  <REMARK>
 VINA RESULT:      -5.5      3.069      6.958
  Name = 
  21 active torsions:
  status: ('A' for Active; 'I' for Inactive)
    1  A    between atoms: C_1  and  C_42
    2  A    between atoms: C_1  and  N_45
    3  A    between atoms: C_3  and  C_56
    4  A    between atoms: C_5  and  C_22
    5  A    between atoms: C_5  and  N_59
    6  A    between atoms: C_7  and  C_27
    7  A    between atoms: C_9  and  C_57
    8  A    between atoms: C_14  and  N_29
    9  A    between atoms: C_14  and  C_32
   10  A    between atoms: C_19  and  C_23
   11  A    between atoms: C_19  and  N_45
   12  A    between atoms: C_22  and  C_55
   13  A    between atoms: C_27  and  C_32
   14  A    between atoms: N_31  and  C_60
   15  A    between atoms: C_34  and  O_53
   16  A    between atoms: C_34  and  C_56
   17  A    between atoms: C_36  and  N_59
   18  A    between atoms: C_42  and  C_55
   19  A    between atoms: C_48  and  O_53
   20  A    between atoms: C_48  and  C_58
   21  A    between atoms: C_48  and  N_59
                            x       y       z     vdW  Elec       q    Type
                         _______ _______ _______ _____ _____    ______ ____

>  <TORSDO>
F 21

$$$$
