=
 OpenBabel11062413553D

 61 69  0  0  1  0  0  0  0  0999 V2000
  189.1190  179.3430  138.9810 O   0  0  0  0  0  0  0  0  0  0  0  0
  189.6150  178.3750  138.3430 C   0  0  0  0  0  0  0  0  0  0  0  0
  189.5290  178.4000  136.9100 N   0  0  0  0  0  2  0  0  0  0  0  0
  192.4650  178.2900  139.2650 O   0  0  0  0  0  0  0  0  0  0  0  0
  191.8280  177.3370  138.8410 C   0  0  0  0  0  0  0  0  0  0  0  0
  189.7740  176.0300  138.5660 O   0  0  0  0  0  0  0  0  0  0  0  0
  192.5540  176.2290  138.1360 C   0  0  1  0  0  3  0  0  0  0  0  0
  190.6180  175.0300  138.7960 O   0  0  0  0  0  0  0  0  0  0  0  0
  190.3170  177.2490  139.0820 C   0  0  2  0  0  0  0  0  0  0  0  0
  192.3290  173.7950  137.6850 C   0  0  0  0  0  1  0  0  0  0  0  0
  191.5850  175.1110  137.7850 C   0  0  2  0  0  3  0  0  0  0  0  0
  193.1570  176.7130  136.9770 O   0  0  0  0  0  1  0  0  0  0  0  0
  190.0300  177.4290  140.4580 O   0  0  0  0  0  0  0  0  0  0  0  0
  190.2490  178.5360  144.6210 C   0  0  0  0  0  2  0  0  0  0  0  0
  190.9780  177.1230  142.5570 C   0  0  1  0  0  0  0  0  0  0  0  0
  189.8320  175.5120  141.9310 O   0  0  0  0  0  0  0  0  0  0  0  0
  191.9750  176.6350  141.7040 O   0  0  0  0  0  0  0  0  0  0  0  0
  190.5310  177.1370  145.3090 C   0  0  1  0  0  0  0  0  0  0  0  0
  191.4750  177.0550  147.9040 C   0  0  0  0  0  2  0  0  0  0  0  0
  190.2050  177.6440  147.6540 O   0  0  0  0  0  0  0  0  0  0  0  0
  189.6170  176.9970  146.5500 C   0  0  1  0  0  3  0  0  0  0  0  0
  190.2970  175.8680  144.4150 C   0  0  0  0  0  2  0  0  0  0  0  0
  190.9340  178.8730  142.9170 S   0  0  0  0  0  0  0  0  0  0  0  0
  190.6580  176.4480  141.2550 C   0  0  1  0  0  0  0  0  0  0  0  0
  191.9990  176.3540  146.7870 O   0  0  0  0  0  0  0  0  0  0  0  0
  189.8480  176.3310  143.0570 C   0  0  1  0  0  3  0  0  0  0  0  0
  191.8820  177.1630  145.7390 O   0  0  0  0  0  0  0  0  0  0  0  0
  185.5560  178.2500  145.8480 C   0  0  0  0  0  3  0  0  0  0  0  0
  188.1830  177.4040  146.3380 C   0  0  0  0  0  0  0  0  0  0  0  0
  187.4710  178.1040  147.3230 C   0  0  0  0  0  3  0  0  0  0  0  0
  186.1610  178.5250  147.0770 C   0  0  0  0  0  3  0  0  0  0  0  0
  187.5750  177.1390  145.1060 C   0  0  0  0  0  3  0  0  0  0  0  0
  186.2630  177.5560  144.8610 C   0  0  0  0  0  3  0  0  0  0  0  0
  189.4420  175.9820  136.4030 C   0  0  0  0  0  1  0  0  0  0  0  0
  189.4660  177.6560  134.6180 C   0  0  0  0  0  1  0  0  0  0  0  0
  188.9750  177.3740  136.0240 C   0  0  0  0  0  0  0  0  0  0  0  0
  187.1510  177.4510  136.0210 P   0  0  1  0  0  0  0  0  0  0  0  0
  186.7320  178.8510  135.6190 O   0  0  0  0  0  0  0  0  0  0  0  0
  186.4960  176.2760  134.8040 C   0  0  0  0  0  1  0  0  0  0  0  0
  186.5370  177.0290  137.5540 O   0  0  0  0  0  0  0  0  0  0  0  0
  185.4200  177.8410  137.7830 C   0  0  1  0  0  3  0  0  0  0  0  0
  184.0810  175.6930  137.6600 C   0  0  0  0  0  3  0  0  0  0  0  0
  181.7280  175.7280  137.0640 C   0  0  0  0  0  0  0  0  0  0  0  0
  183.0090  177.7950  137.1360 C   0  0  0  0  0  3  0  0  0  0  0  0
  184.1460  177.0860  137.5320 C   0  0  0  0  0  0  0  0  0  0  0  0
  180.6910  177.8630  136.5080 O   0  0  0  0  0  1  0  0  0  0  0  0
  182.8770  175.0210  137.4330 C   0  0  0  0  0  3  0  0  0  0  0  0
  181.8030  177.1260  136.8980 C   0  0  0  0  0  0  0  0  0  0  0  0
  180.4000  174.2590  135.5100 C   0  0  2  0  0  3  0  0  0  0  0  0
  180.4550  174.9530  136.8820 C   0  0  1  0  0  3  0  0  0  0  0  0
  179.2230  174.7930  134.7170 C   0  0  0  0  0  1  0  0  0  0  0  0
  180.2730  173.8710  137.9720 C   0  0  2  0  0  3  0  0  0  0  0  0
  180.2120  172.8480  135.7890 N   0  0  0  0  0  0  0  0  0  0  0  0
  180.1880  172.6220  137.1840 C   0  0  0  0  0  0  0  0  0  0  0  0
  180.3600  171.7990  134.7930 C   0  0  0  0  0  1  0  0  0  0  0  0
  180.1380  171.4710  137.6940 O   0  0  0  0  0  0  0  0  0  0  0  0
  179.1490  175.0400  139.9300 C   0  0  0  0  0  2  0  0  0  0  0  0
  179.0160  174.0270  138.8540 C   0  0  2  0  0  3  0  0  0  0  0  0
  179.2930  173.6630  140.1860 O   0  0  0  0  0  0  0  0  0  0  0  0
  185.4860  178.4270  139.1870 C   0  0  0  0  0  2  0  0  0  0  0  0
  184.9710  179.7230  139.1870 O   0  0  0  0  0  1  0  0  0  0  0  0
  2  1  2  0  0  0  0
  3  2  1  0  0  0  0
  5  9  1  0  0  0  0
  5  4  2  0  0  0  0
  6  8  1  0  0  0  0
  6  9  1  0  0  0  0
  7 12  1  6  0  0  0
  7  5  1  0  0  0  0
  9  2  1  6  0  0  0
  9 13  1  0  0  0  0
 11 10  1  1  0  0  0
 11  7  1  0  0  0  0
 11  8  1  0  0  0  0
 14 18  1  0  0  0  0
 15 17  1  1  0  0  0
 15 23  1  0  0  0  0
 15 26  1  0  0  0  0
 16 26  1  0  0  0  0
 18 22  1  6  0  0  0
 18 27  1  0  0  0  0
 18 21  1  0  0  0  0
 20 19  1  0  0  0  0
 21 29  1  6  0  0  0
 21 20  1  0  0  0  0
 23 14  1  0  0  0  0
 24 13  1  6  0  0  0
 24 17  1  0  0  0  0
 24 16  1  0  0  0  0
 24 15  1  0  0  0  0
 25 19  1  0  0  0  0
 26 22  1  1  0  0  0
 27 25  1  0  0  0  0
 28 31  1  0  0  0  0
 29 30  1  0  0  0  0
 31 30  2  0  0  0  0
 32 29  2  0  0  0  0
 33 32  1  0  0  0  0
 33 28  2  0  0  0  0
 35 36  1  0  0  0  0
 36 34  1  0  0  0  0
 36  3  1  0  0  0  0
 37 39  1  6  0  0  0
 37 36  1  0  0  0  0
 37 40  1  0  0  0  0
 38 37  2  0  0  0  0
 40 41  1  0  0  0  0
 41 60  1  1  0  0  0
 43 47  1  0  0  0  0
 44 45  2  0  0  0  0
 45 42  1  0  0  0  0
 45 41  1  0  0  0  0
 46 48  1  0  0  0  0
 47 42  2  0  0  0  0
 48 43  2  0  0  0  0
 48 44  1  0  0  0  0
 49 51  1  6  0  0  0
 49 53  1  0  0  0  0
 49 50  1  0  0  0  0
 50 43  1  1  0  0  0
 50 52  1  0  0  0  0
 52 54  1  6  0  0  0
 52 58  1  0  0  0  0
 53 54  1  0  0  0  0
 54 56  2  0  0  0  0
 55 53  1  0  0  0  0
 57 59  1  0  0  0  0
 58 57  1  1  0  0  0
 58 59  1  0  0  0  0
 61 60  1  0  0  0  0
M  END
>  <MODEL>
1

>  <REMARK>
 VINA RESULT:      -7.5      0.000      0.000
  Name = 
  12 active torsions:
  status: ('A' for Active; 'I' for Inactive)
    1  A    between atoms: P_1  and  O_42
    2  A    between atoms: P_1  and  C_53
    3  A    between atoms: C_2  and  C_5
    4  A    between atoms: C_2  and  C_37
    5  A    between atoms: C_2  and  O_42
    6  A    between atoms: C_4  and  C_12
    7  A    between atoms: C_22  and  C_23
    8  A    between atoms: C_32  and  C_36
    9  A    between atoms: O_39  and  C_40
   10  A    between atoms: O_39  and  C_51
   11  A    between atoms: C_40  and  C_47
   12  A    between atoms: C_53  and  N_58
                            x       y       z     vdW  Elec       q    Type
                         _______ _______ _______ _____ _____    ______ ____

>  <TORSDO>
F 12

$$$$
=
 OpenBabel11062413553D

 61 69  0  0  1  0  0  0  0  0999 V2000
  189.7620  179.7610  138.5250 O   0  0  0  0  0  0  0  0  0  0  0  0
  189.4050  178.5860  138.2400 C   0  0  0  0  0  0  0  0  0  0  0  0
  188.4190  178.4140  137.2100 N   0  0  0  0  0  2  0  0  0  0  0  0
  192.2770  178.2460  139.0220 O   0  0  0  0  0  0  0  0  0  0  0  0
  191.5380  177.3540  138.6300 C   0  0  0  0  0  0  0  0  0  0  0  0
  189.3650  176.2350  138.4570 O   0  0  0  0  0  0  0  0  0  0  0  0
  192.1280  176.1890  137.8910 C   0  0  1  0  0  3  0  0  0  0  0  0
  190.1280  175.1640  138.6460 O   0  0  0  0  0  0  0  0  0  0  0  0
  190.0390  177.4000  138.9450 C   0  0  2  0  0  0  0  0  0  0  0  0
  191.6660  173.7850  137.4540 C   0  0  0  0  0  1  0  0  0  0  0  0
  191.0470  175.1620  137.5890 C   0  0  2  0  0  3  0  0  0  0  0  0
  192.7140  176.6210  136.7040 O   0  0  0  0  0  1  0  0  0  0  0  0
  189.8370  177.5990  140.3330 O   0  0  0  0  0  0  0  0  0  0  0  0
  190.1680  178.5620  144.5240 C   0  0  0  0  0  2  0  0  0  0  0  0
  190.7640  177.1520  142.4150 C   0  0  1  0  0  0  0  0  0  0  0  0
  189.4830  175.6630  141.7520 O   0  0  0  0  0  0  0  0  0  0  0  0
  191.7120  176.6070  141.5420 O   0  0  0  0  0  0  0  0  0  0  0  0
  190.3330  177.1250  145.1700 C   0  0  1  0  0  0  0  0  0  0  0  0
  191.2780  176.8870  147.7550 C   0  0  0  0  0  2  0  0  0  0  0  0
  190.0610  177.5890  147.5310 O   0  0  0  0  0  0  0  0  0  0  0  0
  189.4150  177.0270  146.4130 C   0  0  1  0  0  3  0  0  0  0  0  0
  189.9870  175.9060  144.2420 C   0  0  0  0  0  2  0  0  0  0  0  0
  190.8720  178.8890  142.8260 S   0  0  0  0  0  0  0  0  0  0  0  0
  190.3820  176.5460  141.0970 C   0  0  1  0  0  0  0  0  0  0  0  0
  191.7350  176.1760  146.6150 O   0  0  0  0  0  0  0  0  0  0  0  0
  189.5730  176.4450  142.9010 C   0  0  1  0  0  3  0  0  0  0  0  0
  191.6830  177.0230  145.5920 O   0  0  0  0  0  0  0  0  0  0  0  0
  185.3800  178.4640  145.9650 C   0  0  0  0  0  3  0  0  0  0  0  0
  188.0210  177.5600  146.2230 C   0  0  0  0  0  0  0  0  0  0  0  0
  187.3060  177.3240  145.0390 C   0  0  0  0  0  3  0  0  0  0  0  0
  185.9890  177.7770  144.9120 C   0  0  0  0  0  3  0  0  0  0  0  0
  187.4010  178.2410  147.2770 C   0  0  0  0  0  3  0  0  0  0  0  0
  186.0860  178.6970  147.1480 C   0  0  0  0  0  3  0  0  0  0  0  0
  185.9600  178.5970  137.0470 C   0  0  0  0  0  1  0  0  0  0  0  0
  187.0200  177.1290  138.6940 C   0  0  0  0  0  1  0  0  0  0  0  0
  187.1490  177.6890  137.2910 C   0  0  0  0  0  0  0  0  0  0  0  0
  187.1340  176.2950  136.1130 P   0  0  1  0  0  0  0  0  0  0  0  0
  188.3840  176.3760  135.2600 O   0  0  0  0  0  0  0  0  0  0  0  0
  187.1530  174.7280  137.0270 C   0  0  0  0  0  1  0  0  0  0  0  0
  185.7210  176.3380  135.1600 O   0  0  0  0  0  0  0  0  0  0  0  0
  184.8380  175.3940  135.6970 C   0  0  1  0  0  3  0  0  0  0  0  0
  182.8610  176.9750  135.8160 C   0  0  0  0  0  3  0  0  0  0  0  0
  181.6380  177.2810  137.8900 C   0  0  0  0  0  0  0  0  0  0  0  0
  183.5590  175.7910  137.8040 C   0  0  0  0  0  3  0  0  0  0  0  0
  183.7220  176.0650  136.4440 C   0  0  0  0  0  0  0  0  0  0  0  0
  182.3940  176.0970  139.8830 O   0  0  0  0  0  1  0  0  0  0  0  0
  181.8230  177.5730  136.5350 C   0  0  0  0  0  3  0  0  0  0  0  0
  182.5270  176.3940  138.5320 C   0  0  0  0  0  0  0  0  0  0  0  0
  180.5000  177.6390  140.1060 C   0  0  2  0  0  3  0  0  0  0  0  0
  180.4740  177.9190  138.5930 C   0  0  1  0  0  3  0  0  0  0  0  0
  179.2570  176.8650  140.5010 C   0  0  0  0  0  1  0  0  0  0  0  0
  180.4430  179.4510  138.3910 C   0  0  2  0  0  3  0  0  0  0  0  0
  180.4990  178.9400  140.7480 N   0  0  0  0  0  0  0  0  0  0  0  0
  180.5150  179.9670  139.7760 C   0  0  0  0  0  0  0  0  0  0  0  0
  180.7740  179.1470  142.1600 C   0  0  0  0  0  1  0  0  0  0  0  0
  180.6180  181.1880  140.0670 O   0  0  0  0  0  0  0  0  0  0  0  0
  179.3620  180.2620  136.2370 C   0  0  0  0  0  2  0  0  0  0  0  0
  179.1830  179.9980  137.6870 C   0  0  2  0  0  3  0  0  0  0  0  0
  179.4130  181.2960  137.1910 O   0  0  0  0  0  0  0  0  0  0  0  0
  184.3330  174.4730  134.5950 C   0  0  0  0  0  2  0  0  0  0  0  0
  183.7700  173.3250  135.1530 O   0  0  0  0  0  1  0  0  0  0  0  0
  2  1  2  0  0  0  0
  3 36  1  0  0  0  0
  3  2  1  0  0  0  0
  5  9  1  0  0  0  0
  5  4  2  0  0  0  0
  6  8  1  0  0  0  0
  6  9  1  0  0  0  0
  7 12  1  6  0  0  0
  7  5  1  0  0  0  0
  9  2  1  6  0  0  0
  9 13  1  0  0  0  0
 11 10  1  1  0  0  0
 11  7  1  0  0  0  0
 11  8  1  0  0  0  0
 14 18  1  0  0  0  0
 15 17  1  1  0  0  0
 15 23  1  0  0  0  0
 15 26  1  0  0  0  0
 16 26  1  0  0  0  0
 18 22  1  6  0  0  0
 18 27  1  0  0  0  0
 18 21  1  0  0  0  0
 20 19  1  0  0  0  0
 21 29  1  6  0  0  0
 21 20  1  0  0  0  0
 23 14  1  0  0  0  0
 24 13  1  6  0  0  0
 24 17  1  0  0  0  0
 24 16  1  0  0  0  0
 24 15  1  0  0  0  0
 25 19  1  0  0  0  0
 26 22  1  1  0  0  0
 27 25  1  0  0  0  0
 28 33  1  0  0  0  0
 29 32  1  0  0  0  0
 30 29  2  0  0  0  0
 31 30  1  0  0  0  0
 31 28  2  0  0  0  0
 33 32  2  0  0  0  0
 34 36  1  0  0  0  0
 36 35  1  0  0  0  0
 37 39  1  1  0  0  0
 37 36  1  0  0  0  0
 38 37  2  0  0  0  0
 40 41  1  0  0  0  0
 40 37  1  0  0  0  0
 41 60  1  6  0  0  0
 41 45  1  0  0  0  0
 42 45  2  0  0  0  0
 42 47  1  0  0  0  0
 43 48  1  0  0  0  0
 44 48  2  0  0  0  0
 45 44  1  0  0  0  0
 47 43  2  0  0  0  0
 48 46  1  0  0  0  0
 49 51  1  1  0  0  0
 49 53  1  0  0  0  0
 50 43  1  6  0  0  0
 50 49  1  0  0  0  0
 52 50  1  0  0  0  0
 52 54  1  1  0  0  0
 53 55  1  0  0  0  0
 54 56  2  0  0  0  0
 54 53  1  0  0  0  0
 57 59  1  0  0  0  0
 58 57  1  6  0  0  0
 58 52  1  0  0  0  0
 59 58  1  0  0  0  0
 60 61  1  0  0  0  0
M  END
>  <MODEL>
2

>  <REMARK>
 VINA RESULT:      -6.3      2.245      3.723
  Name = 
  12 active torsions:
  status: ('A' for Active; 'I' for Inactive)
    1  A    between atoms: P_1  and  O_42
    2  A    between atoms: P_1  and  C_53
    3  A    between atoms: C_2  and  C_5
    4  A    between atoms: C_2  and  C_37
    5  A    between atoms: C_2  and  O_42
    6  A    between atoms: C_4  and  C_12
    7  A    between atoms: C_22  and  C_23
    8  A    between atoms: C_32  and  C_36
    9  A    between atoms: O_39  and  C_40
   10  A    between atoms: O_39  and  C_51
   11  A    between atoms: C_40  and  C_47
   12  A    between atoms: C_53  and  N_58
                            x       y       z     vdW  Elec       q    Type
                         _______ _______ _______ _____ _____    ______ ____

>  <TORSDO>
F 12

$$$$
=
 OpenBabel11062413553D

 61 69  0  0  1  0  0  0  0  0999 V2000
  188.8130  175.1850  143.2230 O   0  0  0  0  0  0  0  0  0  0  0  0
  188.4920  176.2540  142.6360 C   0  0  0  0  0  0  0  0  0  0  0  0
  188.6290  176.3040  141.2080 N   0  0  0  0  0  2  0  0  0  0  0  0
  189.9620  178.7050  143.5340 O   0  0  0  0  0  0  0  0  0  0  0  0
  189.0840  178.1350  144.1640 C   0  0  0  0  0  0  0  0  0  0  0  0
  186.9860  176.8820  144.3430 O   0  0  0  0  0  0  0  0  0  0  0  0
  189.1070  178.1890  145.6630 C   0  0  1  0  0  3  0  0  0  0  0  0
  186.8040  177.7230  145.3550 O   0  0  0  0  0  0  0  0  0  0  0  0
  187.9410  177.4270  143.4270 C   0  0  2  0  0  0  0  0  0  0  0  0
  187.5460  178.0710  147.5940 C   0  0  0  0  0  1  0  0  0  0  0  0
  187.8750  177.5000  146.2290 C   0  0  2  0  0  3  0  0  0  0  0  0
  190.2580  177.5700  146.1470 O   0  0  0  0  0  1  0  0  0  0  0  0
  187.3480  178.3060  142.4870 O   0  0  0  0  0  0  0  0  0  0  0  0
  184.9260  179.0470  138.9950 C   0  0  0  0  0  2  0  0  0  0  0  0
  185.3980  179.1580  141.5560 C   0  0  1  0  0  0  0  0  0  0  0  0
  185.0770  177.4970  142.7550 O   0  0  0  0  0  0  0  0  0  0  0  0
  185.5070  179.8880  142.7450 O   0  0  0  0  0  0  0  0  0  0  0  0
  183.4650  178.8410  139.5710 C   0  0  1  0  0  0  0  0  0  0  0  0
  181.2910  179.7870  138.1520 C   0  0  0  0  0  2  0  0  0  0  0  0
  182.1220  178.7970  137.5570 O   0  0  0  0  0  0  0  0  0  0  0  0
  182.6510  177.9810  138.5750 C   0  0  1  0  0  3  0  0  0  0  0  0
  183.3670  178.1440  140.9750 C   0  0  0  0  0  2  0  0  0  0  0  0
  186.2570  179.7460  140.1030 S   0  0  0  0  0  0  0  0  0  0  0  0
  185.9990  178.5750  142.8010 C   0  0  1  0  0  0  0  0  0  0  0  0
  181.5590  179.9900  139.5310 O   0  0  0  0  0  0  0  0  0  0  0  0
  184.7620  177.8400  141.4420 C   0  0  1  0  0  3  0  0  0  0  0  0
  182.8760  180.1300  139.6470 O   0  0  0  0  0  0  0  0  0  0  0  0
  184.6420  174.5450  136.9070 C   0  0  0  0  0  3  0  0  0  0  0  0
  183.3720  176.7760  138.0330 C   0  0  0  0  0  0  0  0  0  0  0  0
  183.1440  175.4950  138.5570 C   0  0  0  0  0  3  0  0  0  0  0  0
  183.7800  174.3830  137.9950 C   0  0  0  0  0  3  0  0  0  0  0  0
  184.2300  176.9300  136.9380 C   0  0  0  0  0  3  0  0  0  0  0  0
  184.8680  175.8190  136.3780 C   0  0  0  0  0  3  0  0  0  0  0  0
  190.8510  177.2610  140.7050 C   0  0  0  0  0  1  0  0  0  0  0  0
  188.8450  178.6630  140.7640 C   0  0  0  0  0  1  0  0  0  0  0  0
  189.3650  177.2840  140.4070 C   0  0  0  0  0  0  0  0  0  0  0  0
  189.0720  177.0040  138.6270 P   0  0  1  0  0  0  0  0  0  0  0  0
  187.5750  176.9860  138.3860 O   0  0  0  0  0  0  0  0  0  0  0  0
  189.7990  178.3630  137.6710 C   0  0  0  0  0  1  0  0  0  0  0  0
  189.8050  175.5490  138.1270 O   0  0  0  0  0  0  0  0  0  0  0  0
  190.0610  175.6720  136.7560 C   0  0  1  0  0  3  0  0  0  0  0  0
  191.9120  175.1560  135.1040 C   0  0  0  0  0  3  0  0  0  0  0  0
  194.0730  174.3580  135.8690 C   0  0  0  0  0  0  0  0  0  0  0  0
  192.2930  174.8080  137.4650 C   0  0  0  0  0  3  0  0  0  0  0  0
  191.4510  175.2120  136.4260 C   0  0  0  0  0  0  0  0  0  0  0  0
  194.4080  173.9860  138.2550 O   0  0  0  0  0  1  0  0  0  0  0  0
  193.2160  174.7370  134.8300 C   0  0  0  0  0  3  0  0  0  0  0  0
  193.5970  174.3790  137.1970 C   0  0  0  0  0  0  0  0  0  0  0  0
  196.5140  174.8930  136.1690 C   0  0  2  0  0  3  0  0  0  0  0  0
  195.4780  173.9650  135.5130 C   0  0  1  0  0  3  0  0  0  0  0  0
  197.3150  175.6020  135.0930 C   0  0  0  0  0  1  0  0  0  0  0  0
  195.8000  172.5130  135.9390 C   0  0  2  0  0  3  0  0  0  0  0  0
  197.3820  174.0290  136.9470 N   0  0  0  0  0  0  0  0  0  0  0  0
  196.9490  172.6870  136.8540 C   0  0  0  0  0  0  0  0  0  0  0  0
  198.3390  174.5140  137.9270 C   0  0  0  0  0  1  0  0  0  0  0  0
  197.4680  171.7490  137.5160 O   0  0  0  0  0  0  0  0  0  0  0  0
  195.3030  170.3650  134.6730 C   0  0  0  0  0  2  0  0  0  0  0  0
  196.1790  171.5570  134.7880 C   0  0  2  0  0  3  0  0  0  0  0  0
  196.5660  170.3000  135.2910 O   0  0  0  0  0  0  0  0  0  0  0  0
  188.9950  174.9280  135.9620 C   0  0  0  0  0  2  0  0  0  0  0  0
  188.2190  175.8350  135.2410 O   0  0  0  0  0  1  0  0  0  0  0  0
  2  1  2  0  0  0  0
  2  9  1  0  0  0  0
  3  2  1  0  0  0  0
  4  5  2  0  0  0  0
  5  7  1  0  0  0  0
  6  8  1  0  0  0  0
  7 12  1  1  0  0  0
  7 11  1  0  0  0  0
  8 11  1  0  0  0  0
  9 13  1  6  0  0  0
  9  5  1  0  0  0  0
  9  6  1  0  0  0  0
 11 10  1  1  0  0  0
 14 23  1  0  0  0  0
 15 23  1  6  0  0  0
 15 17  1  0  0  0  0
 15 24  1  0  0  0  0
 16 24  1  0  0  0  0
 17 24  1  0  0  0  0
 18 14  1  6  0  0  0
 18 27  1  0  0  0  0
 18 22  1  0  0  0  0
 19 25  1  0  0  0  0
 20 19  1  0  0  0  0
 20 21  1  0  0  0  0
 21 29  1  6  0  0  0
 21 18  1  0  0  0  0
 24 13  1  1  0  0  0
 25 27  1  0  0  0  0
 26 22  1  1  0  0  0
 26 15  1  0  0  0  0
 26 16  1  0  0  0  0
 28 31  1  0  0  0  0
 29 30  1  0  0  0  0
 31 30  2  0  0  0  0
 32 29  2  0  0  0  0
 33 28  2  0  0  0  0
 33 32  1  0  0  0  0
 36 34  1  0  0  0  0
 36 35  1  0  0  0  0
 36  3  1  0  0  0  0
 37 39  1  6  0  0  0
 37 36  1  0  0  0  0
 38 37  2  0  0  0  0
 40 37  1  0  0  0  0
 41 60  1  6  0  0  0
 41 40  1  0  0  0  0
 42 45  1  0  0  0  0
 43 48  2  0  0  0  0
 45 41  1  0  0  0  0
 45 44  2  0  0  0  0
 47 42  2  0  0  0  0
 47 43  1  0  0  0  0
 48 44  1  0  0  0  0
 48 46  1  0  0  0  0
 49 51  1  6  0  0  0
 49 53  1  0  0  0  0
 50 43  1  1  0  0  0
 50 52  1  0  0  0  0
 50 49  1  0  0  0  0
 52 54  1  1  0  0  0
 53 55  1  0  0  0  0
 54 53  1  0  0  0  0
 54 56  2  0  0  0  0
 57 59  1  0  0  0  0
 58 57  1  6  0  0  0
 58 59  1  0  0  0  0
 58 52  1  0  0  0  0
 61 60  1  0  0  0  0
M  END
>  <MODEL>
3

>  <REMARK>
 VINA RESULT:      -5.3      3.342     10.537
  Name = 
  12 active torsions:
  status: ('A' for Active; 'I' for Inactive)
    1  A    between atoms: P_1  and  O_42
    2  A    between atoms: P_1  and  C_53
    3  A    between atoms: C_2  and  C_5
    4  A    between atoms: C_2  and  C_37
    5  A    between atoms: C_2  and  O_42
    6  A    between atoms: C_4  and  C_12
    7  A    between atoms: C_22  and  C_23
    8  A    between atoms: C_32  and  C_36
    9  A    between atoms: O_39  and  C_40
   10  A    between atoms: O_39  and  C_51
   11  A    between atoms: C_40  and  C_47
   12  A    between atoms: C_53  and  N_58
                            x       y       z     vdW  Elec       q    Type
                         _______ _______ _______ _____ _____    ______ ____

>  <TORSDO>
F 12

$$$$
=
 OpenBabel11062413553D

 61 69  0  0  1  0  0  0  0  0999 V2000
  191.1520  175.6800  139.3550 O   0  0  0  0  0  0  0  0  0  0  0  0
  190.1170  176.1260  138.7900 C   0  0  0  0  0  0  0  0  0  0  0  0
  189.3590  175.2250  137.9670 N   0  0  0  0  0  2  0  0  0  0  0  0
  187.7090  177.0840  140.2930 O   0  0  0  0  0  0  0  0  0  0  0  0
  188.1690  177.6030  139.2860 C   0  0  0  0  0  0  0  0  0  0  0  0
  190.0170  178.2800  137.8260 O   0  0  0  0  0  0  0  0  0  0  0  0
  187.2460  178.3290  138.3510 C   0  0  1  0  0  3  0  0  0  0  0  0
  189.2810  179.3820  137.7420 O   0  0  0  0  0  0  0  0  0  0  0  0
  189.6770  177.5620  139.0170 C   0  0  2  0  0  0  0  0  0  0  0  0
  187.2950  180.1740  136.6860 C   0  0  0  0  0  1  0  0  0  0  0  0
  188.0430  178.9730  137.2280 C   0  0  2  0  0  3  0  0  0  0  0  0
  186.3100  177.4450  137.8190 O   0  0  0  0  0  1  0  0  0  0  0  0
  190.3880  178.0280  140.1500 O   0  0  0  0  0  0  0  0  0  0  0  0
  190.1890  178.7540  144.3970 C   0  0  0  0  0  2  0  0  0  0  0  0
  191.1050  177.5100  142.2980 C   0  0  1  0  0  0  0  0  0  0  0  0
  190.0030  175.9940  141.4130 O   0  0  0  0  0  0  0  0  0  0  0  0
  192.1770  177.0730  141.5110 O   0  0  0  0  0  0  0  0  0  0  0  0
  190.3720  177.2920  144.9800 C   0  0  1  0  0  0  0  0  0  0  0  0
  191.0370  176.9520  147.6400 C   0  0  0  0  0  2  0  0  0  0  0  0
  189.8100  177.5960  147.3150 O   0  0  0  0  0  0  0  0  0  0  0  0
  189.3300  177.0670  146.1020 C   0  0  1  0  0  3  0  0  0  0  0  0
  190.2100  176.1140  143.9540 C   0  0  0  0  0  2  0  0  0  0  0  0
  191.0550  179.2220  142.8110 S   0  0  0  0  0  0  0  0  0  0  0  0
  190.9110  176.9640  140.9140 C   0  0  1  0  0  0  0  0  0  0  0  0
  191.6620  176.3390  146.5230 O   0  0  0  0  0  0  0  0  0  0  0  0
  189.9150  176.7080  142.6050 C   0  0  1  0  0  3  0  0  0  0  0  0
  191.6710  177.2420  145.5470 O   0  0  0  0  0  0  0  0  0  0  0  0
  185.2860  178.2790  145.2480 C   0  0  0  0  0  3  0  0  0  0  0  0
  187.9340  177.5290  145.7820 C   0  0  0  0  0  0  0  0  0  0  0  0
  187.4590  177.5510  144.4630 C   0  0  0  0  0  3  0  0  0  0  0  0
  186.1380  177.9260  144.1980 C   0  0  0  0  0  3  0  0  0  0  0  0
  187.0730  177.8760  146.8300 C   0  0  0  0  0  3  0  0  0  0  0  0
  185.7540  178.2540  146.5650 C   0  0  0  0  0  3  0  0  0  0  0  0
  189.9410  176.2680  135.8040 C   0  0  0  0  0  1  0  0  0  0  0  0
  187.6160  176.1030  136.5520 C   0  0  0  0  0  1  0  0  0  0  0  0
  188.9600  175.4020  136.5690 C   0  0  0  0  0  0  0  0  0  0  0  0
  188.7730  173.7810  135.7500 P   0  0  1  0  0  0  0  0  0  0  0  0
  189.9610  173.5690  134.8320 O   0  0  0  0  0  0  0  0  0  0  0  0
  188.7610  172.4670  137.0000 C   0  0  0  0  0  1  0  0  0  0  0  0
  187.3000  173.7150  134.8940 O   0  0  0  0  0  0  0  0  0  0  0  0
  186.5140  172.7350  135.5120 C   0  0  1  0  0  3  0  0  0  0  0  0
  184.5510  172.8900  137.1070 C   0  0  0  0  0  3  0  0  0  0  0  0
  182.6990  174.3920  136.6560 C   0  0  0  0  0  0  0  0  0  0  0  0
  184.5550  174.2250  135.0920 C   0  0  0  0  0  3  0  0  0  0  0  0
  185.1840  173.2960  135.9250 C   0  0  0  0  0  0  0  0  0  0  0  0
  182.7210  175.6960  134.5960 O   0  0  0  0  0  1  0  0  0  0  0  0
  183.3200  173.4400  137.4710 C   0  0  0  0  0  3  0  0  0  0  0  0
  183.3170  174.7730  135.4470 C   0  0  0  0  0  0  0  0  0  0  0  0
  180.6000  173.9860  137.9850 C   0  0  2  0  0  3  0  0  0  0  0  0
  181.4000  174.9810  137.1280 C   0  0  1  0  0  3  0  0  0  0  0  0
  179.2740  173.6870  137.3130 C   0  0  0  0  0  1  0  0  0  0  0  0
  181.6150  176.2650  137.9620 C   0  0  2  0  0  3  0  0  0  0  0  0
  180.3760  174.6500  139.2550 N   0  0  0  0  0  0  0  0  0  0  0  0
  180.9900  175.9220  139.2590 C   0  0  0  0  0  0  0  0  0  0  0  0
  179.8820  173.9770  140.4450 C   0  0  0  0  0  1  0  0  0  0  0  0
  181.0320  176.6630  140.2770 O   0  0  0  0  0  0  0  0  0  0  0  0
  181.8790  178.3600  136.5450 C   0  0  0  0  0  2  0  0  0  0  0  0
  180.9690  177.5430  137.3850 C   0  0  2  0  0  3  0  0  0  0  0  0
  181.6070  178.6940  137.8850 O   0  0  0  0  0  0  0  0  0  0  0  0
  186.3810  171.5260  134.5950 C   0  0  0  0  0  2  0  0  0  0  0  0
  186.1390  170.3790  135.3510 O   0  0  0  0  0  1  0  0  0  0  0  0
  2  1  2  0  0  0  0
  3  2  1  0  0  0  0
  5  4  2  0  0  0  0
  6  9  1  0  0  0  0
  7 12  1  6  0  0  0
  7  5  1  0  0  0  0
  8  6  1  0  0  0  0
  9  2  1  6  0  0  0
  9  5  1  0  0  0  0
  9 13  1  0  0  0  0
 11 10  1  1  0  0  0
 11  8  1  0  0  0  0
 11  7  1  0  0  0  0
 14 18  1  0  0  0  0
 15 17  1  1  0  0  0
 15 26  1  0  0  0  0
 15 23  1  0  0  0  0
 16 26  1  0  0  0  0
 18 22  1  6  0  0  0
 18 27  1  0  0  0  0
 18 21  1  0  0  0  0
 20 19  1  0  0  0  0
 21 29  1  6  0  0  0
 21 20  1  0  0  0  0
 23 14  1  0  0  0  0
 24 13  1  6  0  0  0
 24 16  1  0  0  0  0
 24 17  1  0  0  0  0
 24 15  1  0  0  0  0
 25 19  1  0  0  0  0
 26 22  1  1  0  0  0
 27 25  1  0  0  0  0
 28 33  1  0  0  0  0
 29 32  1  0  0  0  0
 30 29  2  0  0  0  0
 31 30  1  0  0  0  0
 31 28  2  0  0  0  0
 33 32  2  0  0  0  0
 34 36  1  0  0  0  0
 35 36  1  0  0  0  0
 36  3  1  0  0  0  0
 37 36  1  0  0  0  0
 37 39  1  1  0  0  0
 38 37  2  0  0  0  0
 40 41  1  0  0  0  0
 40 37  1  0  0  0  0
 41 60  1  6  0  0  0
 41 45  1  0  0  0  0
 42 47  1  0  0  0  0
 43 47  2  0  0  0  0
 44 48  2  0  0  0  0
 44 45  1  0  0  0  0
 45 42  2  0  0  0  0
 46 48  1  0  0  0  0
 48 43  1  0  0  0  0
 49 51  1  6  0  0  0
 49 53  1  0  0  0  0
 50 43  1  1  0  0  0
 50 52  1  0  0  0  0
 50 49  1  0  0  0  0
 52 54  1  1  0  0  0
 53 54  1  0  0  0  0
 53 55  1  0  0  0  0
 54 56  2  0  0  0  0
 57 59  1  0  0  0  0
 58 57  1  6  0  0  0
 58 59  1  0  0  0  0
 58 52  1  0  0  0  0
 60 61  1  0  0  0  0
M  END
>  <MODEL>
4

>  <REMARK>
 VINA RESULT:      -5.2      2.188      3.857
  Name = 
  12 active torsions:
  status: ('A' for Active; 'I' for Inactive)
    1  A    between atoms: P_1  and  O_42
    2  A    between atoms: P_1  and  C_53
    3  A    between atoms: C_2  and  C_5
    4  A    between atoms: C_2  and  C_37
    5  A    between atoms: C_2  and  O_42
    6  A    between atoms: C_4  and  C_12
    7  A    between atoms: C_22  and  C_23
    8  A    between atoms: C_32  and  C_36
    9  A    between atoms: O_39  and  C_40
   10  A    between atoms: O_39  and  C_51
   11  A    between atoms: C_40  and  C_47
   12  A    between atoms: C_53  and  N_58
                            x       y       z     vdW  Elec       q    Type
                         _______ _______ _______ _____ _____    ______ ____

>  <TORSDO>
F 12

$$$$
=
 OpenBabel11062413553D

 61 69  0  0  1  0  0  0  0  0999 V2000
  189.4000  178.4500  139.5050 O   0  0  0  0  0  0  0  0  0  0  0  0
  190.1160  177.6750  138.8140 C   0  0  0  0  0  0  0  0  0  0  0  0
  189.7740  177.4980  137.4310 N   0  0  0  0  0  2  0  0  0  0  0  0
  192.9800  178.5440  138.6650 O   0  0  0  0  0  0  0  0  0  0  0  0
  192.5890  177.3860  138.6590 C   0  0  0  0  0  0  0  0  0  0  0  0
  191.0770  175.5860  139.3510 O   0  0  0  0  0  0  0  0  0  0  0  0
  193.3950  176.3470  137.9360 C   0  0  1  0  0  3  0  0  0  0  0  0
  192.2260  174.9230  139.4280 O   0  0  0  0  0  0  0  0  0  0  0  0
  191.3250  176.9930  139.4310 C   0  0  2  0  0  0  0  0  0  0  0  0
  193.8430  173.9020  138.0030 C   0  0  0  0  0  1  0  0  0  0  0  0
  192.7780  174.9720  138.1410 C   0  0  2  0  0  3  0  0  0  0  0  0
  193.4470  176.6420  136.5750 O   0  0  0  0  0  1  0  0  0  0  0  0
  191.4080  177.4520  140.7700 O   0  0  0  0  0  0  0  0  0  0  0  0
  189.4810  178.6450  144.4390 C   0  0  0  0  0  2  0  0  0  0  0  0
  190.9470  177.0350  143.0080 C   0  0  1  0  0  0  0  0  0  0  0  0
  190.0600  175.6740  141.7200 O   0  0  0  0  0  0  0  0  0  0  0  0
  192.1340  176.3200  142.8080 O   0  0  0  0  0  0  0  0  0  0  0  0
  189.0570  177.2450  145.0470 C   0  0  1  0  0  0  0  0  0  0  0  0
  188.3600  177.0670  147.7150 C   0  0  0  0  0  2  0  0  0  0  0  0
  187.5860  177.8960  146.8570 O   0  0  0  0  0  0  0  0  0  0  0  0
  187.6000  177.3440  145.5610 C   0  0  1  0  0  3  0  0  0  0  0  0
  189.1210  176.0180  144.0680 C   0  0  0  0  0  2  0  0  0  0  0  0
  191.0480  178.7690  143.4310 S   0  0  0  0  0  0  0  0  0  0  0  0
  191.2830  176.3930  141.6940 C   0  0  1  0  0  0  0  0  0  0  0  0
  189.2700  176.2300  147.0160 O   0  0  0  0  0  0  0  0  0  0  0  0
  189.6030  176.5130  142.7330 C   0  0  1  0  0  3  0  0  0  0  0  0
  189.9150  177.0070  146.1510 O   0  0  0  0  0  0  0  0  0  0  0  0
  184.9500  179.3810  142.8460 C   0  0  0  0  0  3  0  0  0  0  0  0
  186.6380  178.0300  144.6300 C   0  0  0  0  0  0  0  0  0  0  0  0
  185.6530  178.9030  145.1140 C   0  0  0  0  0  3  0  0  0  0  0  0
  184.8120  179.5760  144.2230 C   0  0  0  0  0  3  0  0  0  0  0  0
  186.7770  177.8450  143.2490 C   0  0  0  0  0  3  0  0  0  0  0  0
  185.9330  178.5150  142.3580 C   0  0  0  0  0  3  0  0  0  0  0  0
  189.6190  175.0400  137.6370 C   0  0  0  0  0  1  0  0  0  0  0  0
  190.5830  176.0920  135.6480 C   0  0  0  0  0  1  0  0  0  0  0  0
  189.5220  176.2430  136.7190 C   0  0  0  0  0  0  0  0  0  0  0  0
  187.8870  176.2890  135.9060 P   0  0  1  0  0  0  0  0  0  0  0  0
  187.8430  177.4940  134.9880 O   0  0  0  0  0  0  0  0  0  0  0  0
  187.6630  174.7890  134.9100 C   0  0  0  0  0  1  0  0  0  0  0  0
  186.6460  176.3440  137.0730 O   0  0  0  0  0  0  0  0  0  0  0  0
  185.8070  177.4100  136.7260 C   0  0  1  0  0  3  0  0  0  0  0  0
  184.0840  176.0800  138.0220 C   0  0  0  0  0  3  0  0  0  0  0  0
  181.7550  176.7620  138.0550 C   0  0  0  0  0  0  0  0  0  0  0  0
  183.3890  178.0260  136.7710 C   0  0  0  0  0  3  0  0  0  0  0  0
  184.4030  177.1640  137.1950 C   0  0  0  0  0  0  0  0  0  0  0  0
  181.0860  178.7110  136.7510 O   0  0  0  0  0  1  0  0  0  0  0  0
  182.7700  175.8850  138.4530 C   0  0  0  0  0  3  0  0  0  0  0  0
  182.0690  177.8320  137.1910 C   0  0  0  0  0  0  0  0  0  0  0  0
  180.1300  175.0420  138.9130 C   0  0  2  0  0  3  0  0  0  0  0  0
  180.3720  176.5270  138.5920 C   0  0  1  0  0  3  0  0  0  0  0  0
  178.9970  174.5140  138.0540 C   0  0  0  0  0  1  0  0  0  0  0  0
  180.1020  177.3430  139.8770 C   0  0  2  0  0  3  0  0  0  0  0  0
  179.7540  174.9970  140.3140 N   0  0  0  0  0  0  0  0  0  0  0  0
  179.7840  176.2950  140.8720 C   0  0  0  0  0  0  0  0  0  0  0  0
  179.6830  173.7730  141.0940 C   0  0  0  0  0  1  0  0  0  0  0  0
  179.5970  176.5210  142.0970 O   0  0  0  0  0  0  0  0  0  0  0  0
  179.3700  179.7590  139.5740 C   0  0  0  0  0  2  0  0  0  0  0  0
  178.9400  178.3550  139.7840 C   0  0  2  0  0  3  0  0  0  0  0  0
  178.9980  179.2800  140.8440 O   0  0  0  0  0  0  0  0  0  0  0  0
  186.3830  178.7150  137.2600 C   0  0  0  0  0  2  0  0  0  0  0  0
  186.6370  178.5990  138.6270 O   0  0  0  0  0  1  0  0  0  0  0  0
  2  1  2  0  0  0  0
  3  2  1  0  0  0  0
  5  4  2  0  0  0  0
  5  9  1  0  0  0  0
  6  8  1  0  0  0  0
  6  9  1  0  0  0  0
  7 12  1  6  0  0  0
  7 11  1  0  0  0  0
  7  5  1  0  0  0  0
  9  2  1  6  0  0  0
  9 13  1  0  0  0  0
 11 10  1  1  0  0  0
 11  8  1  0  0  0  0
 14 18  1  0  0  0  0
 15 17  1  1  0  0  0
 15 23  1  0  0  0  0
 16 26  1  0  0  0  0
 18 22  1  6  0  0  0
 18 21  1  0  0  0  0
 18 27  1  0  0  0  0
 20 19  1  0  0  0  0
 21 29  1  6  0  0  0
 21 20  1  0  0  0  0
 23 14  1  0  0  0  0
 24 13  1  6  0  0  0
 24 16  1  0  0  0  0
 24 17  1  0  0  0  0
 24 15  1  0  0  0  0
 25 19  1  0  0  0  0
 26 15  1  0  0  0  0
 26 22  1  1  0  0  0
 27 25  1  0  0  0  0
 28 31  1  0  0  0  0
 29 30  1  0  0  0  0
 31 30  2  0  0  0  0
 32 29  2  0  0  0  0
 33 28  2  0  0  0  0
 33 32  1  0  0  0  0
 35 36  1  0  0  0  0
 36  3  1  0  0  0  0
 36 34  1  0  0  0  0
 37 39  1  6  0  0  0
 37 36  1  0  0  0  0
 37 40  1  0  0  0  0
 38 37  2  0  0  0  0
 41 40  1  0  0  0  0
 41 45  1  0  0  0  0
 41 60  1  1  0  0  0
 42 47  1  0  0  0  0
 43 47  2  0  0  0  0
 44 48  2  0  0  0  0
 44 45  1  0  0  0  0
 45 42  2  0  0  0  0
 46 48  1  0  0  0  0
 48 43  1  0  0  0  0
 49 51  1  6  0  0  0
 49 53  1  0  0  0  0
 50 43  1  1  0  0  0
 50 49  1  0  0  0  0
 50 52  1  0  0  0  0
 52 54  1  1  0  0  0
 53 54  1  0  0  0  0
 53 55  1  0  0  0  0
 54 56  2  0  0  0  0
 57 59  1  0  0  0  0
 58 57  1  6  0  0  0
 58 52  1  0  0  0  0
 58 59  1  0  0  0  0
 60 61  1  0  0  0  0
M  END
>  <MODEL>
5

>  <REMARK>
 VINA RESULT:      -5.2      1.919      2.573
  Name = 
  12 active torsions:
  status: ('A' for Active; 'I' for Inactive)
    1  A    between atoms: P_1  and  O_42
    2  A    between atoms: P_1  and  C_53
    3  A    between atoms: C_2  and  C_5
    4  A    between atoms: C_2  and  C_37
    5  A    between atoms: C_2  and  O_42
    6  A    between atoms: C_4  and  C_12
    7  A    between atoms: C_22  and  C_23
    8  A    between atoms: C_32  and  C_36
    9  A    between atoms: O_39  and  C_40
   10  A    between atoms: O_39  and  C_51
   11  A    between atoms: C_40  and  C_47
   12  A    between atoms: C_53  and  N_58
                            x       y       z     vdW  Elec       q    Type
                         _______ _______ _______ _____ _____    ______ ____

>  <TORSDO>
F 12

$$$$
=
 OpenBabel11062413553D

 61 69  0  0  1  0  0  0  0  0999 V2000
  183.9350  177.4600  140.5800 O   0  0  0  0  0  0  0  0  0  0  0  0
  183.4310  177.2090  139.4520 C   0  0  0  0  0  0  0  0  0  0  0  0
  184.3070  176.7500  138.4110 N   0  0  0  0  0  2  0  0  0  0  0  0
  182.0100  179.3120  137.8600 O   0  0  0  0  0  0  0  0  0  0  0  0
  181.6000  178.8090  138.8960 C   0  0  0  0  0  0  0  0  0  0  0  0
  181.3080  176.9360  140.4490 O   0  0  0  0  0  0  0  0  0  0  0  0
  180.7170  179.6170  139.8010 C   0  0  1  0  0  3  0  0  0  0  0  0
  180.0840  177.4490  140.5210 O   0  0  0  0  0  0  0  0  0  0  0  0
  181.9350  177.3510  139.2320 C   0  0  2  0  0  0  0  0  0  0  0  0
  178.9320  179.2920  141.5000 C   0  0  0  0  0  1  0  0  0  0  0  0
  180.2500  178.7650  140.9710 C   0  0  2  0  0  3  0  0  0  0  0  0
  181.4080  180.7310  140.2740 O   0  0  0  0  0  1  0  0  0  0  0  0
  181.6050  176.5100  138.1400 O   0  0  0  0  0  0  0  0  0  0  0  0
  181.3300  173.3470  135.2200 C   0  0  0  0  0  2  0  0  0  0  0  0
  180.4540  174.6870  137.2760 C   0  0  1  0  0  0  0  0  0  0  0  0
  181.2370  174.3430  139.1650 O   0  0  0  0  0  0  0  0  0  0  0  0
  179.4400  175.4040  137.9220 O   0  0  0  0  0  0  0  0  0  0  0  0
  180.6790  172.1820  136.0730 C   0  0  1  0  0  0  0  0  0  0  0  0
  179.5440  170.0160  134.7860 C   0  0  0  0  0  2  0  0  0  0  0  0
  180.9320  170.2710  134.6080 O   0  0  0  0  0  0  0  0  0  0  0  0
  181.4370  170.8640  135.7810 C   0  0  1  0  0  3  0  0  0  0  0  0
  180.6790  172.3820  137.6310 C   0  0  0  0  0  2  0  0  0  0  0  0
  180.8760  175.1190  135.5940 S   0  0  0  0  0  0  0  0  0  0  0  0
  180.7070  175.4900  138.5180 C   0  0  1  0  0  0  0  0  0  0  0  0
  178.9590  170.7910  135.8220 O   0  0  0  0  0  0  0  0  0  0  0  0
  181.3260  173.7040  137.9300 C   0  0  1  0  0  3  0  0  0  0  0  0
  179.3410  172.0480  135.6190 O   0  0  0  0  0  0  0  0  0  0  0  0
  185.7190  171.3210  135.7170 C   0  0  0  0  0  3  0  0  0  0  0  0
  182.9370  170.9780  135.7720 C   0  0  0  0  0  0  0  0  0  0  0  0
  183.7130  170.3110  134.8120 C   0  0  0  0  0  3  0  0  0  0  0  0
  185.1000  170.4830  134.7870 C   0  0  0  0  0  3  0  0  0  0  0  0
  183.5630  171.8240  136.6950 C   0  0  0  0  0  3  0  0  0  0  0  0
  184.9500  171.9920  136.6730 C   0  0  0  0  0  3  0  0  0  0  0  0
  184.4450  178.8280  137.0800 C   0  0  0  0  0  1  0  0  0  0  0  0
  183.3360  176.8290  136.2060 C   0  0  0  0  0  1  0  0  0  0  0  0
  184.4830  177.3130  137.0700 C   0  0  0  0  0  0  0  0  0  0  0  0
  186.0460  176.7230  136.3320 P   0  0  1  0  0  0  0  0  0  0  0  0
  185.7110  175.7640  135.2060 O   0  0  0  0  0  0  0  0  0  0  0  0
  186.9610  178.1310  135.6440 C   0  0  0  0  0  1  0  0  0  0  0  0
  187.0210  175.9830  137.5170 O   0  0  0  0  0  0  0  0  0  0  0  0
  188.1010  176.8410  137.7510 C   0  0  1  0  0  3  0  0  0  0  0  0
  187.1660  178.2280  139.6540 C   0  0  0  0  0  3  0  0  0  0  0  0
  188.1750  178.1530  141.8600 C   0  0  0  0  0  0  0  0  0  0  0  0
  189.1120  176.8470  140.0340 C   0  0  0  0  0  3  0  0  0  0  0  0
  188.1130  177.3140  139.1760 C   0  0  0  0  0  0  0  0  0  0  0  0
  190.1590  176.7750  142.1950 O   0  0  0  0  0  1  0  0  0  0  0  0
  187.1950  178.6390  140.9890 C   0  0  0  0  0  3  0  0  0  0  0  0
  189.1520  177.2620  141.3690 C   0  0  0  0  0  0  0  0  0  0  0  0
  186.7630  178.2770  143.9400 C   0  0  2  0  0  3  0  0  0  0  0  0
  188.1230  178.5950  143.2950 C   0  0  1  0  0  3  0  0  0  0  0  0
  186.0930  179.5660  144.3750 C   0  0  0  0  0  1  0  0  0  0  0  0
  189.2240  177.9250  144.1490 C   0  0  2  0  0  3  0  0  0  0  0  0
  187.0580  177.4540  145.0980 N   0  0  0  0  0  0  0  0  0  0  0  0
  188.4480  177.2160  145.1890 C   0  0  0  0  0  0  0  0  0  0  0  0
  186.0510  176.7220  145.8480 C   0  0  0  0  0  1  0  0  0  0  0  0
  188.9590  176.4480  146.0470 O   0  0  0  0  0  0  0  0  0  0  0  0
  191.4710  179.1090  144.0230 C   0  0  0  0  0  2  0  0  0  0  0  0
  190.2290  178.8950  144.8070 C   0  0  2  0  0  3  0  0  0  0  0  0
  191.4300  178.2310  145.1220 O   0  0  0  0  0  0  0  0  0  0  0  0
  189.4010  176.1570  137.3510 C   0  0  0  0  0  2  0  0  0  0  0  0
  190.1980  177.0370  136.6180 O   0  0  0  0  0  1  0  0  0  0  0  0
  2  1  2  0  0  0  0
  3  2  1  0  0  0  0
  4  5  2  0  0  0  0
  5  9  1  0  0  0  0
  5  7  1  0  0  0  0
  6  8  1  0  0  0  0
  7 12  1  1  0  0  0
  7 11  1  0  0  0  0
  8 11  1  0  0  0  0
  9 13  1  6  0  0  0
  9  2  1  0  0  0  0
  9  6  1  0  0  0  0
 11 10  1  6  0  0  0
 14 23  1  0  0  0  0
 15 23  1  6  0  0  0
 15 17  1  0  0  0  0
 15 26  1  0  0  0  0
 15 24  1  0  0  0  0
 17 24  1  0  0  0  0
 18 14  1  6  0  0  0
 18 22  1  0  0  0  0
 19 25  1  0  0  0  0
 20 19  1  0  0  0  0
 20 21  1  0  0  0  0
 21 29  1  6  0  0  0
 21 18  1  0  0  0  0
 24 13  1  6  0  0  0
 24 16  1  0  0  0  0
 26 22  1  1  0  0  0
 26 16  1  0  0  0  0
 27 25  1  0  0  0  0
 27 18  1  0  0  0  0
 28 33  1  0  0  0  0
 29 32  1  0  0  0  0
 30 29  2  0  0  0  0
 31 30  1  0  0  0  0
 31 28  2  0  0  0  0
 33 32  2  0  0  0  0
 35 36  1  0  0  0  0
 36 34  1  0  0  0  0
 36  3  1  0  0  0  0
 37 39  1  6  0  0  0
 37 36  1  0  0  0  0
 37 40  1  0  0  0  0
 38 37  2  0  0  0  0
 40 41  1  0  0  0  0
 41 60  1  1  0  0  0
 41 45  1  0  0  0  0
 42 47  1  0  0  0  0
 44 48  2  0  0  0  0
 45 42  2  0  0  0  0
 45 44  1  0  0  0  0
 47 43  2  0  0  0  0
 48 43  1  0  0  0  0
 48 46  1  0  0  0  0
 49 51  1  1  0  0  0
 49 53  1  0  0  0  0
 50 43  1  6  0  0  0
 50 49  1  0  0  0  0
 50 52  1  0  0  0  0
 52 58  1  0  0  0  0
 52 54  1  1  0  0  0
 53 54  1  0  0  0  0
 53 55  1  0  0  0  0
 54 56  2  0  0  0  0
 57 59  1  0  0  0  0
 58 57  1  6  0  0  0
 58 59  1  0  0  0  0
 61 60  1  0  0  0  0
M  END
>  <MODEL>
6

>  <REMARK>
 VINA RESULT:      -4.5      3.233     11.118
  Name = 
  12 active torsions:
  status: ('A' for Active; 'I' for Inactive)
    1  A    between atoms: P_1  and  O_42
    2  A    between atoms: P_1  and  C_53
    3  A    between atoms: C_2  and  C_5
    4  A    between atoms: C_2  and  C_37
    5  A    between atoms: C_2  and  O_42
    6  A    between atoms: C_4  and  C_12
    7  A    between atoms: C_22  and  C_23
    8  A    between atoms: C_32  and  C_36
    9  A    between atoms: O_39  and  C_40
   10  A    between atoms: O_39  and  C_51
   11  A    between atoms: C_40  and  C_47
   12  A    between atoms: C_53  and  N_58
                            x       y       z     vdW  Elec       q    Type
                         _______ _______ _______ _____ _____    ______ ____

>  <TORSDO>
F 12

$$$$
=
 OpenBabel11062413553D

 61 69  0  0  1  0  0  0  0  0999 V2000
  181.6230  174.8750  138.9680 O   0  0  0  0  0  0  0  0  0  0  0  0
  181.6490  176.1320  139.0610 C   0  0  0  0  0  0  0  0  0  0  0  0
  181.4710  176.7140  140.3620 N   0  0  0  0  0  2  0  0  0  0  0  0
  184.1240  177.6850  138.3960 O   0  0  0  0  0  0  0  0  0  0  0  0
  182.9790  178.0340  138.1460 C   0  0  0  0  0  0  0  0  0  0  0  0
  180.6550  177.6010  137.5030 O   0  0  0  0  0  0  0  0  0  0  0  0
  182.6570  179.4980  138.0920 C   0  0  1  0  0  3  0  0  0  0  0  0
  180.8680  178.6860  136.7650 O   0  0  0  0  0  0  0  0  0  0  0  0
  181.9040  176.9870  137.8320 C   0  0  2  0  0  0  0  0  0  0  0  0
  181.0470  181.0510  137.0060 C   0  0  0  0  0  1  0  0  0  0  0  0
  181.2090  179.6990  137.6710 C   0  0  2  0  0  3  0  0  0  0  0  0
  182.8720  180.0820  139.3380 O   0  0  0  0  0  1  0  0  0  0  0  0
  182.3590  176.1090  136.8160 O   0  0  0  0  0  0  0  0  0  0  0  0
  185.6660  174.3740  134.6580 C   0  0  0  0  0  2  0  0  0  0  0  0
  183.6420  174.2450  136.2950 C   0  0  1  0  0  0  0  0  0  0  0  0
  183.8460  174.8560  138.2660 O   0  0  0  0  0  0  0  0  0  0  0  0
  182.4270  173.6720  136.6880 O   0  0  0  0  0  0  0  0  0  0  0  0
  186.1980  173.3030  135.6970 C   0  0  1  0  0  0  0  0  0  0  0  0
  187.8850  171.2890  134.8410 C   0  0  0  0  0  2  0  0  0  0  0  0
  188.3090  172.6410  134.7140 O   0  0  0  0  0  0  0  0  0  0  0  0
  187.7420  173.3920  135.7610 C   0  0  1  0  0  3  0  0  0  0  0  0
  185.6630  173.4410  137.1670 C   0  0  0  0  0  2  0  0  0  0  0  0
  183.8400  174.7600  134.5950 S   0  0  0  0  0  0  0  0  0  0  0  0
  182.7670  174.8660  137.3430 C   0  0  1  0  0  0  0  0  0  0  0  0
  186.7160  171.1390  135.6320 O   0  0  0  0  0  0  0  0  0  0  0  0
  184.7260  174.6150  137.2130 C   0  0  1  0  0  3  0  0  0  0  0  0
  185.8360  172.0300  135.1850 O   0  0  0  0  0  0  0  0  0  0  0  0
  189.2280  177.4240  136.0590 C   0  0  0  0  0  3  0  0  0  0  0  0
  188.2990  174.7880  135.8390 C   0  0  0  0  0  0  0  0  0  0  0  0
  188.3600  175.6120  134.7050 C   0  0  0  0  0  3  0  0  0  0  0  0
  188.8250  176.9270  134.8170 C   0  0  0  0  0  3  0  0  0  0  0  0
  188.6960  175.2950  137.0810 C   0  0  0  0  0  3  0  0  0  0  0  0
  189.1640  176.6080  137.1920 C   0  0  0  0  0  3  0  0  0  0  0  0
  179.2340  177.0990  141.3380 C   0  0  0  0  0  1  0  0  0  0  0  0
  180.0990  178.5170  139.5400 C   0  0  0  0  0  1  0  0  0  0  0  0
  180.4930  177.7240  140.7700 C   0  0  0  0  0  0  0  0  0  0  0  0
  181.2310  178.8740  141.9810 P   0  0  1  0  0  0  0  0  0  0  0  0
  180.6250  180.2470  141.7680 O   0  0  0  0  0  0  0  0  0  0  0  0
  180.8360  178.3190  143.6630 C   0  0  0  0  0  1  0  0  0  0  0  0
  182.9270  178.9040  141.8150 O   0  0  0  0  0  0  0  0  0  0  0  0
  183.4600  178.3190  142.9690 C   0  0  1  0  0  3  0  0  0  0  0  0
  185.7340  177.8880  144.0020 C   0  0  0  0  0  3  0  0  0  0  0  0
  187.7590  178.1140  142.6840 C   0  0  0  0  0  0  0  0  0  0  0  0
  185.5880  178.5720  141.6890 C   0  0  0  0  0  3  0  0  0  0  0  0
  184.9580  178.2470  142.8920 C   0  0  0  0  0  0  0  0  0  0  0  0
  187.5740  178.8400  140.3640 O   0  0  0  0  0  1  0  0  0  0  0  0
  187.1250  177.8170  143.8950 C   0  0  0  0  0  3  0  0  0  0  0  0
  186.9810  178.5120  141.5770 C   0  0  0  0  0  0  0  0  0  0  0  0
  189.9060  178.1840  143.9980 C   0  0  2  0  0  3  0  0  0  0  0  0
  189.2530  177.9710  142.6210 C   0  0  1  0  0  3  0  0  0  0  0  0
  190.8400  179.3770  143.9380 C   0  0  0  0  0  1  0  0  0  0  0  0
  189.6810  176.5790  142.0990 C   0  0  2  0  0  3  0  0  0  0  0  0
  190.6600  176.9740  144.2680 N   0  0  0  0  0  0  0  0  0  0  0  0
  190.4950  176.0470  143.2150 C   0  0  0  0  0  0  0  0  0  0  0  0
  191.2230  176.6450  145.5670 C   0  0  0  0  0  1  0  0  0  0  0  0
  190.9630  174.8770  143.2480 O   0  0  0  0  0  0  0  0  0  0  0  0
  191.6770  177.5060  140.8250 C   0  0  0  0  0  2  0  0  0  0  0  0
  190.5110  176.5900  140.7970 C   0  0  2  0  0  3  0  0  0  0  0  0
  190.4710  177.8600  140.1910 O   0  0  0  0  0  0  0  0  0  0  0  0
  182.9730  179.0690  144.2020 C   0  0  0  0  0  2  0  0  0  0  0  0
  183.5850  180.3200  144.2710 O   0  0  0  0  0  1  0  0  0  0  0  0
  1  2  2  0  0  0  0
  2  3  1  0  0  0  0
  3 36  1  0  0  0  0
  5  4  2  0  0  0  0
  6  9  1  0  0  0  0
  7  5  1  0  0  0  0
  7 12  1  1  0  0  0
  8  6  1  0  0  0  0
  8 11  1  0  0  0  0
  9 13  1  6  0  0  0
  9  5  1  0  0  0  0
  9  2  1  0  0  0  0
 11 10  1  6  0  0  0
 11  7  1  0  0  0  0
 15 23  1  6  0  0  0
 15 17  1  0  0  0  0
 15 26  1  0  0  0  0
 15 24  1  0  0  0  0
 17 24  1  0  0  0  0
 18 14  1  6  0  0  0
 18 21  1  0  0  0  0
 18 22  1  0  0  0  0
 19 25  1  0  0  0  0
 20 19  1  0  0  0  0
 20 21  1  0  0  0  0
 21 29  1  6  0  0  0
 23 14  1  0  0  0  0
 24 13  1  6  0  0  0
 24 16  1  0  0  0  0
 26 22  1  1  0  0  0
 26 16  1  0  0  0  0
 27 25  1  0  0  0  0
 27 18  1  0  0  0  0
 28 33  1  0  0  0  0
 29 32  1  0  0  0  0
 30 31  1  0  0  0  0
 30 29  2  0  0  0  0
 31 28  2  0  0  0  0
 32 33  2  0  0  0  0
 35 36  1  0  0  0  0
 36 34  1  0  0  0  0
 36 37  1  0  0  0  0
 37 39  1  1  0  0  0
 38 37  2  0  0  0  0
 40 37  1  0  0  0  0
 40 41  1  0  0  0  0
 41 60  1  1  0  0  0
 43 47  2  0  0  0  0
 44 45  1  0  0  0  0
 45 41  1  0  0  0  0
 45 42  2  0  0  0  0
 46 48  1  0  0  0  0
 47 42  1  0  0  0  0
 48 44  2  0  0  0  0
 48 43  1  0  0  0  0
 49 51  1  6  0  0  0
 49 53  1  0  0  0  0
 50 43  1  1  0  0  0
 50 49  1  0  0  0  0
 52 50  1  0  0  0  0
 52 54  1  1  0  0  0
 53 55  1  0  0  0  0
 54 56  2  0  0  0  0
 54 53  1  0  0  0  0
 58 57  1  1  0  0  0
 58 52  1  0  0  0  0
 59 58  1  0  0  0  0
 59 57  1  0  0  0  0
 60 61  1  0  0  0  0
M  END
>  <MODEL>
7

>  <REMARK>
 VINA RESULT:      -4.5      3.501     10.487
  Name = 
  12 active torsions:
  status: ('A' for Active; 'I' for Inactive)
    1  A    between atoms: P_1  and  O_42
    2  A    between atoms: P_1  and  C_53
    3  A    between atoms: C_2  and  C_5
    4  A    between atoms: C_2  and  C_37
    5  A    between atoms: C_2  and  O_42
    6  A    between atoms: C_4  and  C_12
    7  A    between atoms: C_22  and  C_23
    8  A    between atoms: C_32  and  C_36
    9  A    between atoms: O_39  and  C_40
   10  A    between atoms: O_39  and  C_51
   11  A    between atoms: C_40  and  C_47
   12  A    between atoms: C_53  and  N_58
                            x       y       z     vdW  Elec       q    Type
                         _______ _______ _______ _____ _____    ______ ____

>  <TORSDO>
F 12

$$$$
