=
 OpenBabel11062415463D

 27 31  0  0  1  0  0  0  0  0999 V2000
  185.5800  178.5760  147.3250 C   0  0  0  0  0  2  0  0  0  0  0  0
  189.2810  177.4930  145.6930 C   0  0  2  0  0  3  0  0  0  0  0  0
  186.8040  177.7790  145.4800 C   0  0  1  0  0  3  0  0  0  0  0  0
  188.7160  176.6650  146.9150 N   0  0  0  0  0  2  0  0  0  0  0  0
  188.0950  177.4640  144.8260 C   0  0  1  0  0  3  0  0  0  0  0  0
  188.0860  177.5960  143.3840 N   0  0  0  0  0  0  0  0  0  0  0  0
  187.0030  178.2260  146.8640 C   0  0  2  0  0  3  0  0  0  0  0  0
  188.8140  177.5670  141.0620 C   0  0  0  0  0  1  0  0  0  0  0  0
  187.7630  177.3630  147.6690 O   0  0  0  0  0  0  0  0  0  0  0  0
  189.0720  177.4910  142.5360 C   0  0  0  0  0  0  0  0  0  0  0  0
  190.7490  177.0030  145.4390 C   0  0  1  0  0  0  0  0  0  0  0  0
  185.8600  178.7520  144.8700 C   0  0  2  0  0  3  0  0  0  0  0  0
  190.9610  176.5130  144.0310 C   0  0  1  0  0  3  0  0  0  0  0  0
  184.7930  178.8110  145.9910 C   0  0  0  0  0  2  0  0  0  0  0  0
  190.3590  177.1310  142.8720 N   0  0  0  0  0  2  0  0  0  0  0  0
  191.6770  177.6390  144.6100 N   0  0  0  0  0  2  0  0  0  0  0  0
  192.2180  176.2930  147.5820 C   0  0  0  0  0  3  0  0  0  0  0  0
  192.7300  175.1770  147.2690 O   0  0  0  0  0  0  0  0  0  0  0  0
  191.3440  177.0690  146.7130 N   0  0  0  0  0  2  0  0  0  0  0  0
  185.4630  178.1170  143.4840 C   0  0  0  0  0  2  0  0  0  0  0  0
  184.0580  178.3210  143.0250 C   0  0  0  0  0  2  0  0  0  0  0  0
  182.7590  178.7650  141.0380 N   0  0  0  0  0  0  0  0  0  0  0  0
  182.5900  179.0780  139.7810 C   0  0  0  0  0  3  0  0  0  0  0  0
  184.8930  179.5570  139.6400 N   0  0  0  0  0  0  0  0  0  0  0  0
  183.6770  179.4670  139.0050 C   0  0  0  0  0  3  0  0  0  0  0  0
  185.0500  179.1290  140.8920 C   0  0  0  0  0  3  0  0  0  0  0  0
  183.9700  178.5950  141.6070 C   0  0  0  0  0  0  0  0  0  0  0  0
  2  4  1  1  0  0  0
  3  7  1  0  0  0  0
  4  9  1  0  0  0  0
  5  3  1  0  0  0  0
  5  2  1  0  0  0  0
  6  5  1  0  0  0  0
  7  1  1  0  0  0  0
  7  9  1  0  0  0  0
  8 10  1  0  0  0  0
 10 15  1  0  0  0  0
 10  6  2  0  0  0  0
 11  2  1  0  0  0  0
 11 19  1  0  0  0  0
 12  3  1  0  0  0  0
 12 14  1  0  0  0  0
 13 16  1  0  0  0  0
 13 11  1  0  0  0  0
 14  1  1  0  0  0  0
 15 13  1  0  0  0  0
 16 11  1  0  0  0  0
 18 17  2  0  0  0  0
 19 17  1  0  0  0  0
 20 12  1  0  0  0  0
 21 20  1  0  0  0  0
 22 27  1  0  0  0  0
 23 22  2  0  0  0  0
 24 26  1  0  0  0  0
 25 24  2  0  0  0  0
 25 23  1  0  0  0  0
 26 27  2  0  0  0  0
 27 21  1  0  0  0  0
M  END
>  <MODEL>
1

>  <REMARK>
 VINA RESULT:      -9.5      0.000      0.000
  Name = 
  4 active torsions:
  status: ('A' for Active; 'I' for Inactive)
    1  A    between atoms: C_7  and  C_18
    2  A    between atoms: C_7  and  C_23
    3  A    between atoms: C_17  and  N_20
    4  A    between atoms: C_23  and  C_27
                            x       y       z     vdW  Elec       q    Type
                         _______ _______ _______ _____ _____    ______ ____

>  <TORSDO>
F 4

$$$$
=
 OpenBabel11062415463D

 27 31  0  0  1  0  0  0  0  0999 V2000
  185.0940  178.5300  146.6720 C   0  0  0  0  0  2  0  0  0  0  0  0
  188.8930  177.6210  145.1620 C   0  0  2  0  0  3  0  0  0  0  0  0
  186.4170  177.8260  144.8570 C   0  0  1  0  0  3  0  0  0  0  0  0
  188.3090  176.7400  146.3380 N   0  0  0  0  0  2  0  0  0  0  0  0
  187.7440  177.5750  144.2480 C   0  0  1  0  0  3  0  0  0  0  0  0
  187.7870  177.7460  142.8100 N   0  0  0  0  0  0  0  0  0  0  0  0
  186.5450  178.2420  146.2600 C   0  0  2  0  0  3  0  0  0  0  0  0
  188.6060  177.8070  140.5190 C   0  0  0  0  0  1  0  0  0  0  0  0
  187.3030  177.3830  147.0710 O   0  0  0  0  0  0  0  0  0  0  0  0
  188.8080  177.7000  142.0010 C   0  0  0  0  0  0  0  0  0  0  0  0
  190.3860  177.1880  144.9540 C   0  0  1  0  0  0  0  0  0  0  0  0
  185.4640  178.7830  144.2360 C   0  0  2  0  0  3  0  0  0  0  0  0
  190.6700  176.7460  143.5440 C   0  0  1  0  0  3  0  0  0  0  0  0
  184.3520  178.7750  145.3140 C   0  0  0  0  0  2  0  0  0  0  0  0
  190.0930  177.3740  142.3790 N   0  0  0  0  0  2  0  0  0  0  0  0
  191.3230  177.8790  144.1810 N   0  0  0  0  0  2  0  0  0  0  0  0
  191.7980  176.4730  147.1340 C   0  0  0  0  0  3  0  0  0  0  0  0
  192.3660  175.3880  146.8090 O   0  0  0  0  0  0  0  0  0  0  0  0
  190.9270  177.2400  146.2530 N   0  0  0  0  0  2  0  0  0  0  0  0
  185.1450  178.1740  142.8190 C   0  0  0  0  0  2  0  0  0  0  0  0
  183.8510  178.5690  142.1890 C   0  0  0  0  0  2  0  0  0  0  0  0
  184.9040  178.7310  140.0210 N   0  0  0  0  0  0  0  0  0  0  0  0
  185.0040  178.5160  138.7370 C   0  0  0  0  0  3  0  0  0  0  0  0
  183.1500  177.0710  138.8800 N   0  0  0  0  0  0  0  0  0  0  0  0
  184.0950  177.6840  138.0930 C   0  0  0  0  0  3  0  0  0  0  0  0
  183.0080  177.3940  140.1650 C   0  0  0  0  0  3  0  0  0  0  0  0
  183.8390  178.3540  140.7580 C   0  0  0  0  0  0  0  0  0  0  0  0
  2  4  1  1  0  0  0
  3  7  1  0  0  0  0
  4  9  1  0  0  0  0
  5  3  1  0  0  0  0
  5  2  1  0  0  0  0
  6  5  1  0  0  0  0
  7  1  1  0  0  0  0
  7  9  1  0  0  0  0
  8 10  1  0  0  0  0
 10 15  1  0  0  0  0
 10  6  2  0  0  0  0
 11  2  1  0  0  0  0
 11 19  1  0  0  0  0
 12  3  1  0  0  0  0
 12 14  1  0  0  0  0
 13 16  1  0  0  0  0
 13 11  1  0  0  0  0
 14  1  1  0  0  0  0
 15 13  1  0  0  0  0
 16 11  1  0  0  0  0
 18 17  2  0  0  0  0
 19 17  1  0  0  0  0
 20 12  1  0  0  0  0
 21 20  1  0  0  0  0
 22 27  1  0  0  0  0
 23 22  2  0  0  0  0
 24 26  1  0  0  0  0
 25 23  1  0  0  0  0
 25 24  2  0  0  0  0
 26 27  2  0  0  0  0
 27 21  1  0  0  0  0
M  END
>  <MODEL>
2

>  <REMARK>
 VINA RESULT:      -9.1      1.040      1.300
  Name = 
  4 active torsions:
  status: ('A' for Active; 'I' for Inactive)
    1  A    between atoms: C_7  and  C_18
    2  A    between atoms: C_7  and  C_23
    3  A    between atoms: C_17  and  N_20
    4  A    between atoms: C_23  and  C_27
                            x       y       z     vdW  Elec       q    Type
                         _______ _______ _______ _____ _____    ______ ____

>  <TORSDO>
F 4

$$$$
=
 OpenBabel11062415463D

 27 31  0  0  1  0  0  0  0  0999 V2000
  186.7580  177.8620  146.0970 C   0  0  0  0  0  2  0  0  0  0  0  0
  187.8960  177.9650  142.0690 C   0  0  2  0  0  3  0  0  0  0  0  0
  186.1220  177.8740  143.8310 C   0  0  1  0  0  3  0  0  0  0  0  0
  188.3260  176.7260  142.9500 N   0  0  0  0  0  2  0  0  0  0  0  0
  186.4640  177.9940  142.3950 C   0  0  1  0  0  3  0  0  0  0  0  0
  185.4090  178.5470  141.5710 N   0  0  0  0  0  0  0  0  0  0  0  0
  187.3260  177.9140  144.6710 C   0  0  2  0  0  3  0  0  0  0  0  0
  184.1780  179.3380  139.6270 C   0  0  0  0  0  1  0  0  0  0  0  0
  188.3270  176.9930  144.3260 O   0  0  0  0  0  0  0  0  0  0  0  0
  185.4280  178.8710  140.3080 C   0  0  0  0  0  0  0  0  0  0  0  0
  188.6300  177.8310  140.6890 C   0  0  1  0  0  0  0  0  0  0  0  0
  185.1540  178.8090  144.4640 C   0  0  2  0  0  3  0  0  0  0  0  0
  187.6770  177.8280  139.5240 C   0  0  1  0  0  3  0  0  0  0  0  0
  185.2770  178.3470  145.9370 C   0  0  0  0  0  2  0  0  0  0  0  0
  186.4920  178.6510  139.4590 N   0  0  0  0  0  2  0  0  0  0  0  0
  188.7090  178.8350  139.7200 N   0  0  0  0  0  2  0  0  0  0  0  0
  191.2400  177.2110  140.4580 C   0  0  0  0  0  3  0  0  0  0  0  0
  191.4010  176.9390  139.2300 O   0  0  0  0  0  0  0  0  0  0  0  0
  189.9730  177.6140  141.0510 N   0  0  0  0  0  2  0  0  0  0  0  0
  183.7960  178.5580  143.7070 C   0  0  0  0  0  2  0  0  0  0  0  0
  182.5470  179.0000  144.3940 C   0  0  0  0  0  2  0  0  0  0  0  0
  181.5650  178.9720  142.1880 N   0  0  0  0  0  0  0  0  0  0  0  0
  180.5830  178.8770  141.3320 C   0  0  0  0  0  3  0  0  0  0  0  0
  179.1560  178.2740  143.1070 N   0  0  0  0  0  0  0  0  0  0  0  0
  179.3040  178.5470  141.7680 C   0  0  0  0  0  3  0  0  0  0  0  0
  180.1520  178.4820  143.9670 C   0  0  0  0  0  3  0  0  0  0  0  0
  181.3910  178.9660  143.5250 C   0  0  0  0  0  0  0  0  0  0  0  0
  2  5  1  0  0  0  0
  2  4  1  1  0  0  0
  3 12  1  0  0  0  0
  3  7  1  0  0  0  0
  4  9  1  0  0  0  0
  5  3  1  0  0  0  0
  6  5  1  0  0  0  0
  7  1  1  0  0  0  0
  8 10  1  0  0  0  0
  9  7  1  0  0  0  0
 10  6  2  0  0  0  0
 11 19  1  0  0  0  0
 11  2  1  0  0  0  0
 12 14  1  0  0  0  0
 13 16  1  0  0  0  0
 13 11  1  0  0  0  0
 14  1  1  0  0  0  0
 15 13  1  0  0  0  0
 15 10  1  0  0  0  0
 16 11  1  0  0  0  0
 17 19  1  0  0  0  0
 18 17  2  0  0  0  0
 20 21  1  0  0  0  0
 20 12  1  0  0  0  0
 22 27  1  0  0  0  0
 23 25  1  0  0  0  0
 23 22  2  0  0  0  0
 24 26  1  0  0  0  0
 25 24  2  0  0  0  0
 27 26  2  0  0  0  0
 27 21  1  0  0  0  0
M  END
>  <MODEL>
3

>  <REMARK>
 VINA RESULT:      -8.9      2.714      4.463
  Name = 
  4 active torsions:
  status: ('A' for Active; 'I' for Inactive)
    1  A    between atoms: C_7  and  C_18
    2  A    between atoms: C_7  and  C_23
    3  A    between atoms: C_17  and  N_20
    4  A    between atoms: C_23  and  C_27
                            x       y       z     vdW  Elec       q    Type
                         _______ _______ _______ _____ _____    ______ ____

>  <TORSDO>
F 4

$$$$
=
 OpenBabel11062415463D

 27 31  0  0  1  0  0  0  0  0999 V2000
  184.3180  178.4410  143.6230 C   0  0  0  0  0  2  0  0  0  0  0  0
  186.6880  178.1970  140.1790 C   0  0  2  0  0  3  0  0  0  0  0  0
  186.4650  178.4610  142.6570 C   0  0  1  0  0  3  0  0  0  0  0  0
  185.6770  179.4030  140.3240 N   0  0  0  0  0  2  0  0  0  0  0  0
  187.3540  178.2960  141.4850 C   0  0  1  0  0  3  0  0  0  0  0  0
  188.6870  177.8280  141.8030 N   0  0  0  0  0  0  0  0  0  0  0  0
  185.0520  178.3250  142.2790 C   0  0  2  0  0  3  0  0  0  0  0  0
  191.0050  177.1270  141.5550 C   0  0  0  0  0  1  0  0  0  0  0  0
  184.6330  179.1510  141.2250 O   0  0  0  0  0  0  0  0  0  0  0  0
  189.6600  177.4910  141.0020 C   0  0  0  0  0  0  0  0  0  0  0  0
  187.2710  178.2530  138.7240 C   0  0  1  0  0  0  0  0  0  0  0  0
  186.6430  177.6200  143.8710 C   0  0  2  0  0  3  0  0  0  0  0  0
  188.7750  178.3260  138.7050 C   0  0  1  0  0  3  0  0  0  0  0  0
  185.4120  178.0840  144.6870 C   0  0  0  0  0  2  0  0  0  0  0  0
  189.6200  177.6080  139.6290 N   0  0  0  0  0  2  0  0  0  0  0  0
  188.0130  177.2360  138.1160 N   0  0  0  0  0  2  0  0  0  0  0  0
  185.0610  177.5220  137.3690 C   0  0  0  0  0  3  0  0  0  0  0  0
  184.9400  176.2810  137.5920 O   0  0  0  0  0  0  0  0  0  0  0  0
  186.1250  178.3560  137.9140 N   0  0  0  0  0  2  0  0  0  0  0  0
  188.0800  177.9790  144.4050 C   0  0  0  0  0  2  0  0  0  0  0  0
  188.3130  177.8310  145.8710 C   0  0  0  0  0  2  0  0  0  0  0  0
  190.4570  176.9440  145.1990 N   0  0  0  0  0  0  0  0  0  0  0  0
  191.6170  176.3770  145.3980 C   0  0  0  0  0  3  0  0  0  0  0  0
  191.2440  176.5360  147.7190 N   0  0  0  0  0  0  0  0  0  0  0  0
  192.0560  176.1150  146.6920 C   0  0  0  0  0  3  0  0  0  0  0  0
  190.0240  177.0140  147.4820 C   0  0  0  0  0  3  0  0  0  0  0  0
  189.5400  177.1240  146.1710 C   0  0  0  0  0  0  0  0  0  0  0  0
  1 14  1  0  0  0  0
  2  4  1  6  0  0  0
  2  5  1  0  0  0  0
  3 12  1  0  0  0  0
  4  9  1  0  0  0  0
  5  6  1  0  0  0  0
  5  3  1  0  0  0  0
  7  3  1  0  0  0  0
  7  1  1  0  0  0  0
  9  7  1  0  0  0  0
 10  8  1  0  0  0  0
 10  6  2  0  0  0  0
 11  2  1  0  0  0  0
 12 20  1  0  0  0  0
 12 14  1  0  0  0  0
 13 11  1  0  0  0  0
 13 15  1  0  0  0  0
 15 10  1  0  0  0  0
 16 13  1  0  0  0  0
 16 11  1  0  0  0  0
 17 18  2  0  0  0  0
 17 19  1  0  0  0  0
 19 11  1  0  0  0  0
 20 21  1  0  0  0  0
 21 27  1  0  0  0  0
 22 23  2  0  0  0  0
 22 27  1  0  0  0  0
 23 25  1  0  0  0  0
 25 24  2  0  0  0  0
 26 24  1  0  0  0  0
 27 26  2  0  0  0  0
M  END
>  <MODEL>
4

>  <REMARK>
 VINA RESULT:      -8.6      3.085      7.270
  Name = 
  4 active torsions:
  status: ('A' for Active; 'I' for Inactive)
    1  A    between atoms: C_7  and  C_18
    2  A    between atoms: C_7  and  C_23
    3  A    between atoms: C_17  and  N_20
    4  A    between atoms: C_23  and  C_27
                            x       y       z     vdW  Elec       q    Type
                         _______ _______ _______ _____ _____    ______ ____

>  <TORSDO>
F 4

$$$$
=
 OpenBabel11062415463D

 27 31  0  0  1  0  0  0  0  0999 V2000
  184.0820  179.0020  145.4950 C   0  0  0  0  0  2  0  0  0  0  0  0
  188.0550  177.8790  144.7950 C   0  0  2  0  0  3  0  0  0  0  0  0
  185.7080  178.2060  143.9910 C   0  0  1  0  0  3  0  0  0  0  0  0
  187.1990  177.0460  145.8300 N   0  0  0  0  0  2  0  0  0  0  0  0
  187.1150  177.8780  143.6650 C   0  0  1  0  0  3  0  0  0  0  0  0
  187.4580  178.0260  142.2660 N   0  0  0  0  0  0  0  0  0  0  0  0
  185.5690  178.6350  145.3880 C   0  0  2  0  0  3  0  0  0  0  0  0
  188.7280  178.0120  140.1900 C   0  0  0  0  0  1  0  0  0  0  0  0
  186.1000  177.7510  146.3410 O   0  0  0  0  0  0  0  0  0  0  0  0
  188.6190  177.9150  141.6820 C   0  0  0  0  0  0  0  0  0  0  0  0
  189.5340  177.3670  144.8970 C   0  0  1  0  0  0  0  0  0  0  0  0
  184.9530  179.2010  143.1840 C   0  0  2  0  0  3  0  0  0  0  0  0
  190.0750  176.8900  143.5760 C   0  0  1  0  0  3  0  0  0  0  0  0
  183.6460  179.2650  144.0130 C   0  0  0  0  0  2  0  0  0  0  0  0
  189.7810  177.5300  142.3150 N   0  0  0  0  0  2  0  0  0  0  0  0
  190.6440  177.9980  144.3280 N   0  0  0  0  0  2  0  0  0  0  0  0
  190.7690  176.9110  147.2470 C   0  0  0  0  0  3  0  0  0  0  0  0
  191.7790  176.2060  146.9510 O   0  0  0  0  0  0  0  0  0  0  0  0
  189.8020  177.4100  146.2780 N   0  0  0  0  0  2  0  0  0  0  0  0
  184.8960  178.5880  141.7340 C   0  0  0  0  0  2  0  0  0  0  0  0
  183.6340  177.8950  141.3430 C   0  0  0  0  0  2  0  0  0  0  0  0
  181.5630  178.9650  140.7100 N   0  0  0  0  0  0  0  0  0  0  0  0
  180.7990  179.7080  139.9560 C   0  0  0  0  0  3  0  0  0  0  0  0
  182.7040  180.3310  138.7190 N   0  0  0  0  0  0  0  0  0  0  0  0
  181.3430  180.4140  138.8880 C   0  0  0  0  0  3  0  0  0  0  0  0
  183.4380  179.4830  139.4380 C   0  0  0  0  0  3  0  0  0  0  0  0
  182.8430  178.6640  140.4080 C   0  0  0  0  0  0  0  0  0  0  0  0
  2 11  1  0  0  0  0
  2  4  1  1  0  0  0
  3  7  1  0  0  0  0
  4  9  1  0  0  0  0
  5  3  1  0  0  0  0
  5  2  1  0  0  0  0
  6  5  1  0  0  0  0
  7  1  1  0  0  0  0
  7  9  1  0  0  0  0
  8 10  1  0  0  0  0
 10  6  2  0  0  0  0
 10 15  1  0  0  0  0
 11 19  1  0  0  0  0
 12  3  1  0  0  0  0
 12 14  1  0  0  0  0
 13 16  1  0  0  0  0
 13 11  1  0  0  0  0
 14  1  1  0  0  0  0
 15 13  1  0  0  0  0
 16 11  1  0  0  0  0
 18 17  2  0  0  0  0
 19 17  1  0  0  0  0
 20 12  1  0  0  0  0
 21 20  1  0  0  0  0
 23 22  2  0  0  0  0
 24 25  2  0  0  0  0
 24 26  1  0  0  0  0
 25 23  1  0  0  0  0
 26 27  2  0  0  0  0
 27 22  1  0  0  0  0
 27 21  1  0  0  0  0
M  END
>  <MODEL>
5

>  <REMARK>
 VINA RESULT:      -8.5      1.334      1.773
  Name = 
  4 active torsions:
  status: ('A' for Active; 'I' for Inactive)
    1  A    between atoms: C_7  and  C_18
    2  A    between atoms: C_7  and  C_23
    3  A    between atoms: C_17  and  N_20
    4  A    between atoms: C_23  and  C_27
                            x       y       z     vdW  Elec       q    Type
                         _______ _______ _______ _____ _____    ______ ____

>  <TORSDO>
F 4

$$$$
=
 OpenBabel11062415463D

 27 31  0  0  1  0  0  0  0  0999 V2000
  190.4120  176.9920  141.0910 C   0  0  0  0  0  2  0  0  0  0  0  0
  190.1390  176.8670  145.2680 C   0  0  2  0  0  3  0  0  0  0  0  0
  189.3310  177.7090  143.0540 C   0  0  1  0  0  3  0  0  0  0  0  0
  191.4470  177.4600  144.6070 N   0  0  0  0  0  2  0  0  0  0  0  0
  189.1350  177.6360  144.5200 C   0  0  1  0  0  3  0  0  0  0  0  0
  187.7910  177.9460  144.9630 N   0  0  0  0  0  0  0  0  0  0  0  0
  190.4300  176.8380  142.6190 C   0  0  2  0  0  3  0  0  0  0  0  0
  185.8750  178.3450  146.4100 C   0  0  0  0  0  1  0  0  0  0  0  0
  191.6490  177.0330  143.2870 O   0  0  0  0  0  0  0  0  0  0  0  0
  187.2760  177.8750  146.1590 C   0  0  0  0  0  0  0  0  0  0  0  0
  190.4070  176.7570  146.8090 C   0  0  1  0  0  0  0  0  0  0  0  0
  188.2040  177.4380  142.1220 C   0  0  2  0  0  3  0  0  0  0  0  0
  189.3870  177.5010  147.6290 C   0  0  1  0  0  3  0  0  0  0  0  0
  188.9650  177.5030  140.7750 C   0  0  0  0  0  2  0  0  0  0  0  0
  187.9830  177.5540  147.2990 N   0  0  0  0  0  2  0  0  0  0  0  0
  189.6010  176.0650  147.7170 N   0  0  0  0  0  2  0  0  0  0  0  0
  192.8050  175.9690  147.7480 C   0  0  0  0  0  3  0  0  0  0  0  0
  192.9390  176.5810  148.8500 O   0  0  0  0  0  0  0  0  0  0  0  0
  191.6400  176.0820  146.8810 N   0  0  0  0  0  2  0  0  0  0  0  0
  187.1390  178.5540  142.4400 C   0  0  0  0  0  2  0  0  0  0  0  0
  186.0150  178.7100  141.4710 C   0  0  0  0  0  2  0  0  0  0  0  0
  184.5610  179.2620  143.3200 N   0  0  0  0  0  0  0  0  0  0  0  0
  183.4140  179.3370  143.9400 C   0  0  0  0  0  3  0  0  0  0  0  0
  182.3470  178.6570  141.9530 N   0  0  0  0  0  0  0  0  0  0  0  0
  182.2370  179.0030  143.2780 C   0  0  0  0  0  3  0  0  0  0  0  0
  183.5390  178.4870  141.3810 C   0  0  0  0  0  3  0  0  0  0  0  0
  184.7180  178.6800  142.1130 C   0  0  0  0  0  0  0  0  0  0  0  0
  1  7  1  0  0  0  0
  2  4  1  6  0  0  0
  2 11  1  0  0  0  0
  3  5  1  0  0  0  0
  5  6  1  0  0  0  0
  5  2  1  0  0  0  0
  6 10  2  0  0  0  0
  7  3  1  0  0  0  0
  7  9  1  0  0  0  0
  9  4  1  0  0  0  0
 10  8  1  0  0  0  0
 10 15  1  0  0  0  0
 11 19  1  0  0  0  0
 11 13  1  0  0  0  0
 11 16  1  0  0  0  0
 12 20  1  0  0  0  0
 12  3  1  0  0  0  0
 13 16  1  0  0  0  0
 14  1  1  0  0  0  0
 14 12  1  0  0  0  0
 15 13  1  0  0  0  0
 17 18  2  0  0  0  0
 19 17  1  0  0  0  0
 21 27  1  0  0  0  0
 21 20  1  0  0  0  0
 22 23  1  0  0  0  0
 24 25  1  0  0  0  0
 25 23  2  0  0  0  0
 26 24  2  0  0  0  0
 26 27  1  0  0  0  0
 27 22  2  0  0  0  0
M  END
>  <MODEL>
6

>  <REMARK>
 VINA RESULT:      -8.5      1.781      3.933
  Name = 
  4 active torsions:
  status: ('A' for Active; 'I' for Inactive)
    1  A    between atoms: C_7  and  C_18
    2  A    between atoms: C_7  and  C_23
    3  A    between atoms: C_17  and  N_20
    4  A    between atoms: C_23  and  C_27
                            x       y       z     vdW  Elec       q    Type
                         _______ _______ _______ _____ _____    ______ ____

>  <TORSDO>
F 4

$$$$
=
 OpenBabel11062415463D

 27 31  0  0  1  0  0  0  0  0999 V2000
  182.7460  178.7460  142.3060 C   0  0  0  0  0  2  0  0  0  0  0  0
  186.1740  178.3090  139.9400 C   0  0  2  0  0  3  0  0  0  0  0  0
  185.0900  178.8500  142.1300 C   0  0  1  0  0  3  0  0  0  0  0  0
  185.1210  179.4230  139.5570 N   0  0  0  0  0  2  0  0  0  0  0  0
  186.3390  178.6290  141.3650 C   0  0  1  0  0  3  0  0  0  0  0  0
  187.4980  178.3310  142.1800 N   0  0  0  0  0  0  0  0  0  0  0  0
  183.9060  178.5370  141.3210 C   0  0  2  0  0  3  0  0  0  0  0  0
  189.7870  177.8270  142.8360 C   0  0  0  0  0  1  0  0  0  0  0  0
  183.8410  179.1860  140.0780 O   0  0  0  0  0  0  0  0  0  0  0  0
  188.7040  177.9920  141.8140 C   0  0  0  0  0  0  0  0  0  0  0  0
  187.2230  178.2420  138.7770 C   0  0  1  0  0  0  0  0  0  0  0  0
  184.8740  178.1840  143.4420 C   0  0  2  0  0  3  0  0  0  0  0  0
  188.6340  178.4540  139.2560 C   0  0  1  0  0  3  0  0  0  0  0  0
  183.4160  178.6260  143.7170 C   0  0  0  0  0  2  0  0  0  0  0  0
  189.1380  177.9370  140.5070 N   0  0  0  0  0  2  0  0  0  0  0  0
  188.1760  177.2330  138.6110 N   0  0  0  0  0  2  0  0  0  0  0  0
  185.6620  177.1460  136.8760 C   0  0  0  0  0  3  0  0  0  0  0  0
  185.5330  175.9340  137.2210 O   0  0  0  0  0  0  0  0  0  0  0  0
  186.4270  178.1370  137.6210 N   0  0  0  0  0  2  0  0  0  0  0  0
  186.0180  178.7400  144.3720 C   0  0  0  0  0  2  0  0  0  0  0  0
  185.8120  178.6160  145.8440 C   0  0  0  0  0  2  0  0  0  0  0  0
  188.0020  177.5970  145.7910 N   0  0  0  0  0  0  0  0  0  0  0  0
  189.0930  177.1120  146.3200 C   0  0  0  0  0  3  0  0  0  0  0  0
  188.3620  177.8830  148.4220 N   0  0  0  0  0  0  0  0  0  0  0  0
  189.3100  177.2100  147.6910 C   0  0  0  0  0  3  0  0  0  0  0  0
  187.2130  178.2720  147.8710 C   0  0  0  0  0  3  0  0  0  0  0  0
  186.9480  178.0240  146.5170 C   0  0  0  0  0  0  0  0  0  0  0  0
  1 14  1  0  0  0  0
  2  4  1  6  0  0  0
  2  5  1  0  0  0  0
  3 12  1  0  0  0  0
  4  9  1  0  0  0  0
  5  3  1  0  0  0  0
  5  6  1  0  0  0  0
  7  3  1  0  0  0  0
  7  1  1  0  0  0  0
  9  7  1  0  0  0  0
 10  6  2  0  0  0  0
 10  8  1  0  0  0  0
 11 13  1  0  0  0  0
 11  2  1  0  0  0  0
 12 14  1  0  0  0  0
 12 20  1  0  0  0  0
 13 15  1  0  0  0  0
 15 10  1  0  0  0  0
 16 11  1  0  0  0  0
 16 13  1  0  0  0  0
 17 18  2  0  0  0  0
 17 19  1  0  0  0  0
 19 11  1  0  0  0  0
 20 21  1  0  0  0  0
 21 27  1  0  0  0  0
 22 23  2  0  0  0  0
 22 27  1  0  0  0  0
 23 25  1  0  0  0  0
 25 24  2  0  0  0  0
 26 24  1  0  0  0  0
 27 26  2  0  0  0  0
M  END
>  <MODEL>
7

>  <REMARK>
 VINA RESULT:      -8.4      3.403      7.014
  Name = 
  4 active torsions:
  status: ('A' for Active; 'I' for Inactive)
    1  A    between atoms: C_7  and  C_18
    2  A    between atoms: C_7  and  C_23
    3  A    between atoms: C_17  and  N_20
    4  A    between atoms: C_23  and  C_27
                            x       y       z     vdW  Elec       q    Type
                         _______ _______ _______ _____ _____    ______ ____

>  <TORSDO>
F 4

$$$$
=
 OpenBabel11062415463D

 27 31  0  0  1  0  0  0  0  0999 V2000
  192.0560  177.3000  141.9210 C   0  0  0  0  0  2  0  0  0  0  0  0
  189.0890  177.8600  139.0190 C   0  0  2  0  0  3  0  0  0  0  0  0
  189.7670  177.4270  141.3890 C   0  0  1  0  0  3  0  0  0  0  0  0
  190.0460  176.6080  138.8980 N   0  0  0  0  0  2  0  0  0  0  0  0
  188.6800  177.7030  140.4210 C   0  0  1  0  0  3  0  0  0  0  0  0
  187.4570  178.2020  141.0170 N   0  0  0  0  0  0  0  0  0  0  0  0
  191.0860  177.5320  140.7530 C   0  0  2  0  0  3  0  0  0  0  0  0
  185.1740  179.0090  141.2610 C   0  0  0  0  0  1  0  0  0  0  0  0
  191.2540  176.7590  139.5930 O   0  0  0  0  0  0  0  0  0  0  0  0
  186.3680  178.6280  140.4390 C   0  0  0  0  0  0  0  0  0  0  0  0
  188.2370  177.9220  137.7030 C   0  0  1  0  0  0  0  0  0  0  0  0
  189.8660  178.1940  142.6590 C   0  0  2  0  0  3  0  0  0  0  0  0
  186.7560  177.9100  137.9710 C   0  0  1  0  0  3  0  0  0  0  0  0
  191.2050  177.6290  143.1950 C   0  0  0  0  0  2  0  0  0  0  0  0
  186.1400  178.5990  139.0800 N   0  0  0  0  0  2  0  0  0  0  0  0
  187.4470  179.0050  137.3080 N   0  0  0  0  0  2  0  0  0  0  0  0
  189.3610  177.2840  135.3400 C   0  0  0  0  0  3  0  0  0  0  0  0
  188.4490  176.6800  134.7010 O   0  0  0  0  0  0  0  0  0  0  0  0
  189.2020  177.8270  136.6830 N   0  0  0  0  0  2  0  0  0  0  0  0
  188.5400  177.8580  143.4400 C   0  0  0  0  0  2  0  0  0  0  0  0
  188.6380  176.8490  144.5350 C   0  0  0  0  0  2  0  0  0  0  0  0
  187.3490  177.7460  146.3710 N   0  0  0  0  0  0  0  0  0  0  0  0
  187.1810  178.2250  147.5740 C   0  0  0  0  0  3  0  0  0  0  0  0
  189.4280  177.7030  148.0460 N   0  0  0  0  0  0  0  0  0  0  0  0
  188.2430  178.2530  148.4710 C   0  0  0  0  0  3  0  0  0  0  0  0
  189.5970  177.3200  146.7810 C   0  0  0  0  0  3  0  0  0  0  0  0
  188.5570  177.4460  145.8510 C   0  0  0  0  0  0  0  0  0  0  0  0
  1 14  1  0  0  0  0
  2  4  1  6  0  0  0
  2  5  1  0  0  0  0
  3 12  1  0  0  0  0
  4  9  1  0  0  0  0
  5  6  1  0  0  0  0
  5  3  1  0  0  0  0
  7  3  1  0  0  0  0
  7  1  1  0  0  0  0
  9  7  1  0  0  0  0
 10  6  2  0  0  0  0
 10  8  1  0  0  0  0
 11 13  1  0  0  0  0
 11  2  1  0  0  0  0
 12 14  1  0  0  0  0
 12 20  1  0  0  0  0
 13 15  1  0  0  0  0
 15 10  1  0  0  0  0
 16 11  1  0  0  0  0
 16 13  1  0  0  0  0
 17 19  1  0  0  0  0
 18 17  2  0  0  0  0
 19 11  1  0  0  0  0
 20 21  1  0  0  0  0
 21 27  1  0  0  0  0
 22 23  1  0  0  0  0
 23 25  2  0  0  0  0
 24 25  1  0  0  0  0
 26 24  2  0  0  0  0
 27 22  2  0  0  0  0
 27 26  1  0  0  0  0
M  END
>  <MODEL>
8

>  <REMARK>
 VINA RESULT:      -8.3      3.830      7.735
  Name = 
  4 active torsions:
  status: ('A' for Active; 'I' for Inactive)
    1  A    between atoms: C_7  and  C_18
    2  A    between atoms: C_7  and  C_23
    3  A    between atoms: C_17  and  N_20
    4  A    between atoms: C_23  and  C_27
                            x       y       z     vdW  Elec       q    Type
                         _______ _______ _______ _____ _____    ______ ____

>  <TORSDO>
F 4

$$$$
=
 OpenBabel11062415463D

 27 31  0  0  1  0  0  0  0  0999 V2000
  185.0670  178.3260  143.9210 C   0  0  0  0  0  2  0  0  0  0  0  0
  186.1890  178.1780  139.8890 C   0  0  2  0  0  3  0  0  0  0  0  0
  186.7830  178.3880  142.3110 C   0  0  1  0  0  3  0  0  0  0  0  0
  185.2760  179.3700  140.3830 N   0  0  0  0  0  2  0  0  0  0  0  0
  187.2430  178.2570  140.9100 C   0  0  1  0  0  3  0  0  0  0  0  0
  188.6090  177.7970  140.7670 N   0  0  0  0  0  0  0  0  0  0  0  0
  185.3240  178.2450  142.4090 C   0  0  2  0  0  3  0  0  0  0  0  0
  190.7220  177.1250  139.7640 C   0  0  0  0  0  1  0  0  0  0  0  0
  184.5820  179.0890  141.5680 O   0  0  0  0  0  0  0  0  0  0  0  0
  189.2690  177.4860  139.6860 C   0  0  0  0  0  0  0  0  0  0  0  0
  186.2670  178.2690  138.3250 C   0  0  1  0  0  0  0  0  0  0  0  0
  187.3480  177.5250  143.3810 C   0  0  2  0  0  3  0  0  0  0  0  0
  187.6820  178.3590  137.8200 C   0  0  1  0  0  3  0  0  0  0  0  0
  186.4480  177.9600  144.5640 C   0  0  0  0  0  2  0  0  0  0  0  0
  188.7850  177.6310  138.4030 N   0  0  0  0  0  2  0  0  0  0  0  0
  186.7740  177.2730  137.4860 N   0  0  0  0  0  2  0  0  0  0  0  0
  183.7260  177.5530  137.7930 C   0  0  0  0  0  3  0  0  0  0  0  0
  183.6710  176.3190  138.0770 O   0  0  0  0  0  0  0  0  0  0  0  0
  184.9190  178.3770  137.9350 N   0  0  0  0  0  2  0  0  0  0  0  0
  188.8800  177.8880  143.4280 C   0  0  0  0  0  2  0  0  0  0  0  0
  189.8280  176.7810  143.7460 C   0  0  0  0  0  2  0  0  0  0  0  0
  189.5880  177.0860  146.1300 N   0  0  0  0  0  0  0  0  0  0  0  0
  190.0130  177.1400  147.3640 C   0  0  0  0  0  3  0  0  0  0  0  0
  192.1040  176.3420  146.6290 N   0  0  0  0  0  0  0  0  0  0  0  0
  191.3250  176.7920  147.6680 C   0  0  0  0  0  3  0  0  0  0  0  0
  191.6740  176.4000  145.3690 C   0  0  0  0  0  3  0  0  0  0  0  0
  190.4010  176.9010  145.0690 C   0  0  0  0  0  0  0  0  0  0  0  0
  1 14  1  0  0  0  0
  2  4  1  1  0  0  0
  2  5  1  0  0  0  0
  3  7  1  0  0  0  0
  3 12  1  0  0  0  0
  4  9  1  0  0  0  0
  5  3  1  0  0  0  0
  6  5  1  0  0  0  0
  7  1  1  0  0  0  0
  9  7  1  0  0  0  0
 10  8  1  0  0  0  0
 10  6  2  0  0  0  0
 11  2  1  0  0  0  0
 12 20  1  0  0  0  0
 12 14  1  0  0  0  0
 13 11  1  0  0  0  0
 13 15  1  0  0  0  0
 15 10  1  0  0  0  0
 16 13  1  0  0  0  0
 16 11  1  0  0  0  0
 17 19  1  0  0  0  0
 17 18  2  0  0  0  0
 19 11  1  0  0  0  0
 20 21  1  0  0  0  0
 21 27  1  0  0  0  0
 22 23  1  0  0  0  0
 23 25  2  0  0  0  0
 24 25  1  0  0  0  0
 26 24  2  0  0  0  0
 27 26  1  0  0  0  0
 27 22  2  0  0  0  0
M  END
>  <MODEL>
9

>  <REMARK>
 VINA RESULT:      -8.0      3.136      7.574
  Name = 
  4 active torsions:
  status: ('A' for Active; 'I' for Inactive)
    1  A    between atoms: C_7  and  C_18
    2  A    between atoms: C_7  and  C_23
    3  A    between atoms: C_17  and  N_20
    4  A    between atoms: C_23  and  C_27
                            x       y       z     vdW  Elec       q    Type
                         _______ _______ _______ _____ _____    ______ ____

>  <TORSDO>
F 4

$$$$
