=
 OpenBabel11062413013D

 38 43  0  0  1  0  0  0  0  0999 V2000
  193.4590  176.9550  139.9560 C   0  0  0  0  0  0  0  0  0  0  0  0
  192.9310  176.5800  138.5990 C   0  0  0  0  0  2  0  0  0  0  0  0
  186.0500  176.0490  135.9530 O   0  0  0  0  0  0  0  0  0  0  0  0
  189.1430  177.2540  139.3470 C   0  0  2  0  0  3  0  0  0  0  0  0
  186.2750  174.9680  136.8210 C   0  0  2  0  0  0  0  0  0  0  0  0
  191.4290  176.6990  138.4660 C   0  0  0  0  0  0  0  0  0  0  0  0
  188.5680  175.4010  137.1010 C   0  0  0  0  0  0  0  0  0  0  0  0
  190.6570  177.2390  139.4480 C   0  0  0  0  0  0  0  0  0  0  0  0
  188.5320  177.7170  138.0320 C   0  0  0  0  0  2  0  0  0  0  0  0
  186.4340  176.3650  137.2810 C   0  0  1  0  0  3  0  0  0  0  0  0
  190.8800  176.3040  137.1250 C   0  0  0  0  0  2  0  0  0  0  0  0
  187.6470  174.3070  136.7220 C   0  0  0  0  0  2  0  0  0  0  0  0
  189.9550  175.2200  137.2150 O   0  0  0  0  0  0  0  0  0  0  0  0
  192.5760  177.5400  140.9660 C   0  0  0  0  0  3  0  0  0  0  0  0
  191.2760  177.6700  140.7240 C   0  0  0  0  0  3  0  0  0  0  0  0
  187.9110  176.5220  137.3870 C   0  0  0  0  0  0  0  0  0  0  0  0
  194.6770  176.7720  140.2250 O   0  0  0  0  0  0  0  0  0  0  0  0
  187.2710  178.5560  140.4340 C   0  0  0  0  0  3  0  0  0  0  0  0
  186.4660  178.8360  141.5370 C   0  0  0  0  0  0  0  0  0  0  0  0
  185.4250  179.7460  141.4240 O   0  0  0  0  0  1  0  0  0  0  0  0
  188.5760  177.0100  141.7770 C   0  0  0  0  0  0  0  0  0  0  0  0
  186.7090  178.2000  142.7570 C   0  0  0  0  0  3  0  0  0  0  0  0
  189.6180  176.0960  141.8940 O   0  0  0  0  0  1  0  0  0  0  0  0
  187.7650  177.2870  142.8910 C   0  0  0  0  0  0  0  0  0  0  0  0
  188.3330  177.6430  140.5480 C   0  0  0  0  0  0  0  0  0  0  0  0
  188.0120  176.5810  144.1170 N   0  0  0  0  0  2  0  0  0  0  0  0
  189.3620  177.1900  146.0650 C   0  0  0  0  0  0  0  0  0  0  0  0
  189.4630  177.6900  147.3740 C   0  0  0  0  0  3  0  0  0  0  0  0
  188.3240  178.1100  148.0630 C   0  0  0  0  0  3  0  0  0  0  0  0
  186.9600  177.5390  146.1490 C   0  0  0  0  0  3  0  0  0  0  0  0
  187.0720  178.0430  147.4470 C   0  0  0  0  0  3  0  0  0  0  0  0
  188.0990  177.1030  145.4520 C   0  0  0  0  0  0  0  0  0  0  0  0
  190.4920  176.7700  145.3390 O   0  0  0  0  0  0  0  0  0  0  0  0
  191.0370  178.6490  144.0710 O   0  0  0  0  0  0  0  0  0  0  0  0
  191.4000  177.5960  144.6600 C   0  0  0  0  0  3  0  0  0  0  0  0
  185.0460  174.2750  137.3770 C   0  0  0  0  0  2  0  0  0  0  0  0
  185.3350  172.8060  137.6150 C   0  0  0  0  0  2  0  0  0  0  0  0
  184.1580  172.0700  137.4810 O   0  0  0  0  0  1  0  0  0  0  0  0
  1 17  2  0  0  0  0
  1 14  1  0  0  0  0
  2  1  1  0  0  0  0
  3  5  1  0  0  0  0
  4  8  1  0  0  0  0
  4 25  1  1  0  0  0
  5 10  1  0  0  0  0
  5 36  1  1  0  0  0
  6  2  1  0  0  0  0
  6  8  2  0  0  0  0
  7 13  1  0  0  0  0
  7 16  2  0  0  0  0
  8 15  1  0  0  0  0
  9  4  1  0  0  0  0
 10  3  1  6  0  0  0
 10 16  1  0  0  0  0
 11 13  1  0  0  0  0
 11  6  1  0  0  0  0
 12  5  1  0  0  0  0
 12  7  1  0  0  0  0
 15 14  2  0  0  0  0
 16  9  1  0  0  0  0
 18 25  2  0  0  0  0
 18 19  1  0  0  0  0
 19 22  2  0  0  0  0
 20 19  1  0  0  0  0
 21 23  1  0  0  0  0
 21 24  2  0  0  0  0
 22 24  1  0  0  0  0
 24 26  1  0  0  0  0
 25 21  1  0  0  0  0
 26 32  1  0  0  0  0
 27 28  1  0  0  0  0
 28 29  2  0  0  0  0
 30 31  2  0  0  0  0
 31 29  1  0  0  0  0
 32 27  2  0  0  0  0
 32 30  1  0  0  0  0
 33 27  1  0  0  0  0
 34 35  2  0  0  0  0
 35 33  1  0  0  0  0
 36 37  1  0  0  0  0
 38 37  1  0  0  0  0
M  END
>  <MODEL>
1

>  <REMARK>
 VINA RESULT:      -9.2      0.000      0.000
  Name = 
  7 active torsions:
  status: ('A' for Active; 'I' for Inactive)
    1  A    between atoms: C_1  and  O_35
    2  A    between atoms: C_6  and  C_12
    3  A    between atoms: C_6  and  C_25
    4  A    between atoms: C_10  and  C_38
    5  A    between atoms: C_20  and  O_35
    6  A    between atoms: N_30  and  C_31
    7  A    between atoms: N_30  and  C_34
                            x       y       z     vdW  Elec       q    Type
                         _______ _______ _______ _____ _____    ______ ____

>  <TORSDO>
F 7

$$$$
=
 OpenBabel11062413013D

 38 43  0  0  1  0  0  0  0  0999 V2000
  191.2350  176.0120  147.1060 C   0  0  0  0  0  0  0  0  0  0  0  0
  191.9070  176.2840  145.7880 C   0  0  0  0  0  2  0  0  0  0  0  0
  189.3230  178.8730  139.3660 O   0  0  0  0  0  0  0  0  0  0  0  0
  188.8110  177.8610  143.9760 C   0  0  2  0  0  3  0  0  0  0  0  0
  188.8570  177.5590  139.5330 C   0  0  2  0  0  0  0  0  0  0  0  0
  191.0050  176.9150  144.7520 C   0  0  0  0  0  0  0  0  0  0  0  0
  190.1600  177.1180  141.4390 C   0  0  0  0  0  0  0  0  0  0  0  0
  189.7420  177.3290  145.0490 C   0  0  0  0  0  0  0  0  0  0  0  0
  189.3720  178.8930  143.0070 C   0  0  0  0  0  2  0  0  0  0  0  0
  188.5780  178.6050  140.5410 C   0  0  1  0  0  3  0  0  0  0  0  0
  191.6520  177.1720  143.4200 C   0  0  0  0  0  2  0  0  0  0  0  0
  189.8630  176.5610  140.1000 C   0  0  0  0  0  2  0  0  0  0  0  0
  191.0020  176.4740  142.3580 O   0  0  0  0  0  0  0  0  0  0  0  0
  189.8760  176.4920  147.3630 C   0  0  0  0  0  3  0  0  0  0  0  0
  189.1890  177.1030  146.4050 C   0  0  0  0  0  3  0  0  0  0  0  0
  189.4760  178.2350  141.6700 C   0  0  0  0  0  0  0  0  0  0  0  0
  191.8490  175.3710  148.0000 O   0  0  0  0  0  0  0  0  0  0  0  0
  186.9770  178.5310  145.5790 C   0  0  0  0  0  3  0  0  0  0  0  0
  185.6400  178.8240  145.8430 C   0  0  0  0  0  0  0  0  0  0  0  0
  185.2600  179.2570  147.1050 O   0  0  0  0  0  1  0  0  0  0  0  0
  186.3980  177.9330  143.2980 C   0  0  0  0  0  0  0  0  0  0  0  0
  184.6830  178.6800  144.8360 C   0  0  0  0  0  3  0  0  0  0  0  0
  186.7760  177.5000  142.0320 O   0  0  0  0  0  1  0  0  0  0  0  0
  185.0500  178.2300  143.5590 C   0  0  0  0  0  0  0  0  0  0  0  0
  187.3640  178.0820  144.3060 C   0  0  0  0  0  0  0  0  0  0  0  0
  184.0990  178.1160  142.4880 N   0  0  0  0  0  2  0  0  0  0  0  0
  182.1640  178.8370  141.1750 C   0  0  0  0  0  0  0  0  0  0  0  0
  180.8450  179.3150  141.1040 C   0  0  0  0  0  3  0  0  0  0  0  0
  180.1080  179.5410  142.2680 C   0  0  0  0  0  3  0  0  0  0  0  0
  181.9940  178.8170  143.5980 C   0  0  0  0  0  3  0  0  0  0  0  0
  180.6790  179.2830  143.5160 C   0  0  0  0  0  3  0  0  0  0  0  0
  182.7460  178.5970  142.4330 C   0  0  0  0  0  0  0  0  0  0  0  0
  182.9290  178.5870  140.0210 O   0  0  0  0  0  0  0  0  0  0  0  0
  184.6240  180.0010  139.2690 O   0  0  0  0  0  0  0  0  0  0  0  0
  183.4530  179.5500  139.1450 C   0  0  0  0  0  3  0  0  0  0  0  0
  187.6450  177.1580  138.7140 C   0  0  0  0  0  2  0  0  0  0  0  0
  188.0710  176.3230  137.5220 C   0  0  0  0  0  2  0  0  0  0  0  0
  188.9340  177.0630  136.7150 O   0  0  0  0  0  1  0  0  0  0  0  0
  1 14  1  0  0  0  0
  1 17  2  0  0  0  0
  2  1  1  0  0  0  0
  3  5  1  0  0  0  0
  4 25  1  1  0  0  0
  4  8  1  0  0  0  0
  5 36  1  6  0  0  0
  5 12  1  0  0  0  0
  5 10  1  0  0  0  0
  6  8  2  0  0  0  0
  6  2  1  0  0  0  0
  7 16  2  0  0  0  0
  7 13  1  0  0  0  0
  8 15  1  0  0  0  0
  9  4  1  0  0  0  0
 10  3  1  6  0  0  0
 10 16  1  0  0  0  0
 11  6  1  0  0  0  0
 12  7  1  0  0  0  0
 13 11  1  0  0  0  0
 15 14  2  0  0  0  0
 16  9  1  0  0  0  0
 18 19  1  0  0  0  0
 19 20  1  0  0  0  0
 21 24  2  0  0  0  0
 21 25  1  0  0  0  0
 22 19  2  0  0  0  0
 23 21  1  0  0  0  0
 24 22  1  0  0  0  0
 25 18  2  0  0  0  0
 26 24  1  0  0  0  0
 27 32  1  0  0  0  0
 28 27  2  0  0  0  0
 28 29  1  0  0  0  0
 29 31  2  0  0  0  0
 31 30  1  0  0  0  0
 32 26  1  0  0  0  0
 32 30  2  0  0  0  0
 33 27  1  0  0  0  0
 35 34  2  0  0  0  0
 35 33  1  0  0  0  0
 37 36  1  0  0  0  0
 38 37  1  0  0  0  0
M  END
>  <MODEL>
2

>  <REMARK>
 VINA RESULT:      -8.5      2.995      6.310
  Name = 
  7 active torsions:
  status: ('A' for Active; 'I' for Inactive)
    1  A    between atoms: C_1  and  O_35
    2  A    between atoms: C_6  and  C_12
    3  A    between atoms: C_6  and  C_25
    4  A    between atoms: C_10  and  C_38
    5  A    between atoms: C_20  and  O_35
    6  A    between atoms: N_30  and  C_31
    7  A    between atoms: N_30  and  C_34
                            x       y       z     vdW  Elec       q    Type
                         _______ _______ _______ _____ _____    ______ ____

>  <TORSDO>
F 7

$$$$
=
 OpenBabel11062413013D

 38 43  0  0  1  0  0  0  0  0999 V2000
  183.1460  178.9800  144.0370 C   0  0  0  0  0  0  0  0  0  0  0  0
  181.8450  179.5470  143.5410 C   0  0  0  0  0  2  0  0  0  0  0  0
  178.9340  180.0370  136.7650 O   0  0  0  0  0  0  0  0  0  0  0  0
  182.2470  178.4830  139.7910 C   0  0  2  0  0  3  0  0  0  0  0  0
  179.9850  180.9620  136.8630 C   0  0  2  0  0  0  0  0  0  0  0  0
  181.6070  179.3460  142.0610 C   0  0  0  0  0  0  0  0  0  0  0  0
  180.3200  180.6530  139.1690 C   0  0  0  0  0  0  0  0  0  0  0  0
  182.4360  178.5880  141.2920 C   0  0  0  0  0  0  0  0  0  0  0  0
  180.8380  178.2140  139.2780 C   0  0  0  0  0  2  0  0  0  0  0  0
  180.2080  179.5220  137.1130 C   0  0  1  0  0  3  0  0  0  0  0  0
  180.3230  179.9290  141.5420 C   0  0  0  0  0  2  0  0  0  0  0  0
  180.0800  181.7280  138.1800 C   0  0  0  0  0  2  0  0  0  0  0  0
  180.5430  180.9110  140.5300 O   0  0  0  0  0  0  0  0  0  0  0  0
  183.9890  178.1660  143.1590 C   0  0  0  0  0  3  0  0  0  0  0  0
  183.6530  177.9880  141.8860 C   0  0  0  0  0  3  0  0  0  0  0  0
  180.3720  179.4560  138.5920 C   0  0  0  0  0  0  0  0  0  0  0  0
  183.5130  179.2000  145.2230 O   0  0  0  0  0  0  0  0  0  0  0  0
  183.0560  176.6450  138.2590 C   0  0  0  0  0  3  0  0  0  0  0  0
  184.0260  176.1030  137.4160 C   0  0  0  0  0  0  0  0  0  0  0  0
  183.7710  174.9240  136.7320 O   0  0  0  0  0  1  0  0  0  0  0  0
  184.5530  178.4760  138.8070 C   0  0  0  0  0  0  0  0  0  0  0  0
  185.2540  176.7490  137.2620 C   0  0  0  0  0  3  0  0  0  0  0  0
  184.8110  179.6600  139.4910 O   0  0  0  0  0  1  0  0  0  0  0  0
  185.5320  177.9350  137.9570 C   0  0  0  0  0  0  0  0  0  0  0  0
  183.3140  177.8330  138.9610 C   0  0  0  0  0  0  0  0  0  0  0  0
  186.7660  178.6490  137.7850 N   0  0  0  0  0  2  0  0  0  0  0  0
  188.7350  178.2190  139.1740 C   0  0  0  0  0  0  0  0  0  0  0  0
  190.0530  177.7550  139.3150 C   0  0  0  0  0  3  0  0  0  0  0  0
  190.7410  177.2270  138.2210 C   0  0  0  0  0  3  0  0  0  0  0  0
  188.8070  177.6190  136.8210 C   0  0  0  0  0  3  0  0  0  0  0  0
  190.1150  177.1510  136.9740 C   0  0  0  0  0  3  0  0  0  0  0  0
  188.1110  178.1610  137.9140 C   0  0  0  0  0  0  0  0  0  0  0  0
  188.0100  178.7450  140.2600 O   0  0  0  0  0  0  0  0  0  0  0  0
  188.0910  177.2730  142.0670 O   0  0  0  0  0  0  0  0  0  0  0  0
  188.2070  178.4440  141.6160 C   0  0  0  0  0  3  0  0  0  0  0  0
  180.5790  181.4580  135.5580 C   0  0  0  0  0  2  0  0  0  0  0  0
  180.0390  182.8360  135.2260 C   0  0  0  0  0  2  0  0  0  0  0  0
  181.0390  183.7880  135.4150 O   0  0  0  0  0  1  0  0  0  0  0  0
  1 17  2  0  0  0  0
  2  1  1  0  0  0  0
  3  5  1  0  0  0  0
  4 25  1  1  0  0  0
  4  8  1  0  0  0  0
  5 36  1  6  0  0  0
  5 10  1  0  0  0  0
  5 12  1  0  0  0  0
  6  2  1  0  0  0  0
  7 13  1  0  0  0  0
  8 15  1  0  0  0  0
  8  6  2  0  0  0  0
  9  4  1  0  0  0  0
 10  3  1  1  0  0  0
 10 16  1  0  0  0  0
 11  6  1  0  0  0  0
 12  7  1  0  0  0  0
 13 11  1  0  0  0  0
 14  1  1  0  0  0  0
 15 14  2  0  0  0  0
 16  7  2  0  0  0  0
 16  9  1  0  0  0  0
 18 25  1  0  0  0  0
 19 18  2  0  0  0  0
 20 19  1  0  0  0  0
 21 25  2  0  0  0  0
 21 23  1  0  0  0  0
 22 19  1  0  0  0  0
 22 24  2  0  0  0  0
 24 21  1  0  0  0  0
 26 32  1  0  0  0  0
 26 24  1  0  0  0  0
 27 28  1  0  0  0  0
 27 33  1  0  0  0  0
 29 28  2  0  0  0  0
 30 31  2  0  0  0  0
 30 32  1  0  0  0  0
 31 29  1  0  0  0  0
 32 27  2  0  0  0  0
 33 35  1  0  0  0  0
 35 34  2  0  0  0  0
 37 38  1  0  0  0  0
 37 36  1  0  0  0  0
M  END
>  <MODEL>
3

>  <REMARK>
 VINA RESULT:      -8.3      4.898      8.666
  Name = 
  7 active torsions:
  status: ('A' for Active; 'I' for Inactive)
    1  A    between atoms: C_1  and  O_35
    2  A    between atoms: C_6  and  C_12
    3  A    between atoms: C_6  and  C_25
    4  A    between atoms: C_10  and  C_38
    5  A    between atoms: C_20  and  O_35
    6  A    between atoms: N_30  and  C_31
    7  A    between atoms: N_30  and  C_34
                            x       y       z     vdW  Elec       q    Type
                         _______ _______ _______ _____ _____    ______ ____

>  <TORSDO>
F 7

$$$$
=
 OpenBabel11062413013D

 38 43  0  0  1  0  0  0  0  0999 V2000
  191.8850  172.6810  135.5260 C   0  0  0  0  0  0  0  0  0  0  0  0
  190.7110  173.3780  134.8940 C   0  0  0  0  0  2  0  0  0  0  0  0
  186.5880  179.0990  137.1070 O   0  0  0  0  0  0  0  0  0  0  0  0
  190.3360  176.2200  137.5660 C   0  0  2  0  0  3  0  0  0  0  0  0
  186.2610  177.9860  137.8980 C   0  0  2  0  0  0  0  0  0  0  0  0
  190.2250  174.5870  135.6600 C   0  0  0  0  0  0  0  0  0  0  0  0
  187.5270  176.4570  136.6380 C   0  0  0  0  0  0  0  0  0  0  0  0
  190.8920  175.0740  136.7420 C   0  0  0  0  0  0  0  0  0  0  0  0
  189.8160  177.4370  136.8130 C   0  0  0  0  0  2  0  0  0  0  0  0
  187.6510  178.4850  137.8170 C   0  0  1  0  0  3  0  0  0  0  0  0
  189.0370  175.2820  135.0580 C   0  0  0  0  0  2  0  0  0  0  0  0
  186.1570  176.6520  137.1620 C   0  0  0  0  0  2  0  0  0  0  0  0
  187.9160  175.3030  135.9410 O   0  0  0  0  0  0  0  0  0  0  0  0
  192.5630  173.2620  136.6850 C   0  0  0  0  0  3  0  0  0  0  0  0
  192.0980  174.3740  137.2450 C   0  0  0  0  0  3  0  0  0  0  0  0
  188.3320  177.4600  136.9790 C   0  0  0  0  0  0  0  0  0  0  0  0
  192.2940  171.5880  135.0490 O   0  0  0  0  0  0  0  0  0  0  0  0
  192.3600  176.8370  138.9460 C   0  0  0  0  0  3  0  0  0  0  0  0
  192.9310  177.2480  140.1490 C   0  0  0  0  0  0  0  0  0  0  0  0
  194.2930  177.5060  140.2190 O   0  0  0  0  0  1  0  0  0  0  0  0
  190.1850  176.7130  140.0190 C   0  0  0  0  0  0  0  0  0  0  0  0
  192.1320  177.4000  141.2850 C   0  0  0  0  0  3  0  0  0  0  0  0
  188.8200  176.4560  139.9520 O   0  0  0  0  0  1  0  0  0  0  0  0
  190.7570  177.1300  141.2330 C   0  0  0  0  0  0  0  0  0  0  0  0
  190.9840  176.5640  138.8740 C   0  0  0  0  0  0  0  0  0  0  0  0
  189.8990  177.3210  142.3690 N   0  0  0  0  0  2  0  0  0  0  0  0
  189.2180  177.4610  144.7160 C   0  0  0  0  0  0  0  0  0  0  0  0
  189.4940  177.2790  146.0810 C   0  0  0  0  0  3  0  0  0  0  0  0
  190.7190  176.7540  146.4940 C   0  0  0  0  0  3  0  0  0  0  0  0
  191.4200  176.5820  144.1850 C   0  0  0  0  0  3  0  0  0  0  0  0
  191.6810  176.3970  145.5450 C   0  0  0  0  0  3  0  0  0  0  0  0
  190.1940  177.1200  143.7610 C   0  0  0  0  0  0  0  0  0  0  0  0
  187.9880  177.9760  144.2660 O   0  0  0  0  0  0  0  0  0  0  0  0
  185.6670  177.8950  144.0560 O   0  0  0  0  0  0  0  0  0  0  0  0
  186.7120  177.5610  144.6760 C   0  0  0  0  0  3  0  0  0  0  0  0
  185.5820  178.2690  139.2240 C   0  0  0  0  0  2  0  0  0  0  0  0
  184.2240  178.9030  138.9940 C   0  0  0  0  0  2  0  0  0  0  0  0
  184.3320  180.2890  139.0940 O   0  0  0  0  0  1  0  0  0  0  0  0
  1 14  1  0  0  0  0
  2  1  1  0  0  0  0
  2  6  1  0  0  0  0
  3 10  1  0  0  0  0
  3  5  1  0  0  0  0
  4 25  1  1  0  0  0
  5 36  1  1  0  0  0
  6  8  2  0  0  0  0
  7 16  2  0  0  0  0
  7 12  1  0  0  0  0
  8 15  1  0  0  0  0
  8  4  1  0  0  0  0
  9 16  1  0  0  0  0
  9  4  1  0  0  0  0
 10 16  1  6  0  0  0
 10  5  1  0  0  0  0
 11  6  1  0  0  0  0
 11 13  1  0  0  0  0
 12  5  1  0  0  0  0
 13  7  1  0  0  0  0
 14 15  2  0  0  0  0
 17  1  2  0  0  0  0
 18 19  1  0  0  0  0
 19 20  1  0  0  0  0
 19 22  2  0  0  0  0
 21 24  2  0  0  0  0
 23 21  1  0  0  0  0
 24 22  1  0  0  0  0
 24 26  1  0  0  0  0
 25 18  2  0  0  0  0
 25 21  1  0  0  0  0
 26 32  1  0  0  0  0
 27 28  1  0  0  0  0
 28 29  2  0  0  0  0
 30 31  2  0  0  0  0
 31 29  1  0  0  0  0
 32 30  1  0  0  0  0
 32 27  2  0  0  0  0
 33 35  1  0  0  0  0
 33 27  1  0  0  0  0
 34 35  2  0  0  0  0
 37 38  1  0  0  0  0
 37 36  1  0  0  0  0
M  END
>  <MODEL>
4

>  <REMARK>
 VINA RESULT:      -8.1      2.160      4.518
  Name = 
  7 active torsions:
  status: ('A' for Active; 'I' for Inactive)
    1  A    between atoms: C_1  and  O_35
    2  A    between atoms: C_6  and  C_12
    3  A    between atoms: C_6  and  C_25
    4  A    between atoms: C_10  and  C_38
    5  A    between atoms: C_20  and  O_35
    6  A    between atoms: N_30  and  C_31
    7  A    between atoms: N_30  and  C_34
                            x       y       z     vdW  Elec       q    Type
                         _______ _______ _______ _____ _____    ______ ____

>  <TORSDO>
F 7

$$$$
=
 OpenBabel11062413013D

 38 43  0  0  1  0  0  0  0  0999 V2000
  191.3120  176.0430  147.0070 C   0  0  0  0  0  0  0  0  0  0  0  0
  191.9620  176.3280  145.6810 C   0  0  0  0  0  2  0  0  0  0  0  0
  189.2540  178.9090  139.3070 O   0  0  0  0  0  0  0  0  0  0  0  0
  188.8210  177.8730  143.9200 C   0  0  2  0  0  3  0  0  0  0  0  0
  188.8070  177.5890  139.4750 C   0  0  2  0  0  0  0  0  0  0  0  0
  191.0370  176.9520  144.6600 C   0  0  0  0  0  0  0  0  0  0  0  0
  190.1420  177.1560  141.3610 C   0  0  0  0  0  0  0  0  0  0  0  0
  189.7740  177.3490  144.9770 C   0  0  0  0  0  0  0  0  0  0  0  0
  189.3560  178.9160  142.9470 C   0  0  0  0  0  2  0  0  0  0  0  0
  188.5300  178.6270  140.4920 C   0  0  1  0  0  3  0  0  0  0  0  0
  191.6620  177.2210  143.3210 C   0  0  0  0  0  2  0  0  0  0  0  0
  189.8330  176.6010  140.0240 C   0  0  0  0  0  2  0  0  0  0  0  0
  191.0050  176.5200  142.2650 O   0  0  0  0  0  0  0  0  0  0  0  0
  189.9520  176.5050  147.2860 C   0  0  0  0  0  3  0  0  0  0  0  0
  189.2430  177.1110  146.3400 C   0  0  0  0  0  3  0  0  0  0  0  0
  189.4480  178.2640  141.6060 C   0  0  0  0  0  0  0  0  0  0  0  0
  191.9470  175.4060  147.8900 O   0  0  0  0  0  0  0  0  0  0  0  0
  187.0090  178.6460  145.5010 C   0  0  0  0  0  3  0  0  0  0  0  0
  185.6690  178.9160  145.7750 C   0  0  0  0  0  0  0  0  0  0  0  0
  185.3080  179.4700  146.9950 O   0  0  0  0  0  1  0  0  0  0  0  0
  186.3890  177.7830  143.3170 C   0  0  0  0  0  0  0  0  0  0  0  0
  184.6900  178.6280  144.8210 C   0  0  0  0  0  3  0  0  0  0  0  0
  186.7480  177.2290  142.0930 O   0  0  0  0  0  1  0  0  0  0  0  0
  185.0380  178.0560  143.5890 C   0  0  0  0  0  0  0  0  0  0  0  0
  187.3770  178.0750  144.2710 C   0  0  0  0  0  0  0  0  0  0  0  0
  184.0620  177.7910  142.5690 N   0  0  0  0  0  2  0  0  0  0  0  0
  182.4620  178.8710  141.0640 C   0  0  0  0  0  0  0  0  0  0  0  0
  182.1810  179.5890  139.8890 C   0  0  0  0  0  3  0  0  0  0  0  0
  183.2120  179.9770  139.0320 C   0  0  0  0  0  3  0  0  0  0  0  0
  184.8250  178.9370  140.5050 C   0  0  0  0  0  3  0  0  0  0  0  0
  184.5360  179.6590  139.3430 C   0  0  0  0  0  3  0  0  0  0  0  0
  183.7940  178.5330  141.3680 C   0  0  0  0  0  0  0  0  0  0  0  0
  181.4480  178.4760  141.9560 O   0  0  0  0  0  0  0  0  0  0  0  0
  180.4230  180.3750  142.8410 O   0  0  0  0  0  0  0  0  0  0  0  0
  180.9300  179.2340  143.0170 C   0  0  0  0  0  3  0  0  0  0  0  0
  187.5890  177.1760  138.6720 C   0  0  0  0  0  2  0  0  0  0  0  0
  187.9910  176.8230  137.2530 C   0  0  0  0  0  2  0  0  0  0  0  0
  187.3590  175.6430  136.8670 O   0  0  0  0  0  1  0  0  0  0  0  0
  1 14  1  0  0  0  0
  1 17  2  0  0  0  0
  2  1  1  0  0  0  0
  3  5  1  0  0  0  0
  4 25  1  1  0  0  0
  4  8  1  0  0  0  0
  5 36  1  6  0  0  0
  5 12  1  0  0  0  0
  5 10  1  0  0  0  0
  6  8  2  0  0  0  0
  6  2  1  0  0  0  0
  7 16  2  0  0  0  0
  7 13  1  0  0  0  0
  8 15  1  0  0  0  0
  9  4  1  0  0  0  0
 10  3  1  6  0  0  0
 10 16  1  0  0  0  0
 11  6  1  0  0  0  0
 12  7  1  0  0  0  0
 13 11  1  0  0  0  0
 15 14  2  0  0  0  0
 16  9  1  0  0  0  0
 18 19  1  0  0  0  0
 19 20  1  0  0  0  0
 21 24  2  0  0  0  0
 21 25  1  0  0  0  0
 22 19  2  0  0  0  0
 23 21  1  0  0  0  0
 24 22  1  0  0  0  0
 25 18  2  0  0  0  0
 26 24  1  0  0  0  0
 27 32  1  0  0  0  0
 27 33  1  0  0  0  0
 28 27  2  0  0  0  0
 29 31  2  0  0  0  0
 29 28  1  0  0  0  0
 30 32  2  0  0  0  0
 31 30  1  0  0  0  0
 32 26  1  0  0  0  0
 33 35  1  0  0  0  0
 34 35  2  0  0  0  0
 37 36  1  0  0  0  0
 38 37  1  0  0  0  0
M  END
>  <MODEL>
5

>  <REMARK>
 VINA RESULT:      -8.1      2.786      6.422
  Name = 
  7 active torsions:
  status: ('A' for Active; 'I' for Inactive)
    1  A    between atoms: C_1  and  O_35
    2  A    between atoms: C_6  and  C_12
    3  A    between atoms: C_6  and  C_25
    4  A    between atoms: C_10  and  C_38
    5  A    between atoms: C_20  and  O_35
    6  A    between atoms: N_30  and  C_31
    7  A    between atoms: N_30  and  C_34
                            x       y       z     vdW  Elec       q    Type
                         _______ _______ _______ _____ _____    ______ ____

>  <TORSDO>
F 7

$$$$
=
 OpenBabel11062413013D

 38 43  0  0  1  0  0  0  0  0999 V2000
  181.2300  177.8890  140.1170 C   0  0  0  0  0  0  0  0  0  0  0  0
  181.0280  178.4690  141.4900 C   0  0  0  0  0  2  0  0  0  0  0  0
  185.7680  179.9770  146.9580 O   0  0  0  0  0  0  0  0  0  0  0  0
  184.8110  178.6660  142.4960 C   0  0  2  0  0  3  0  0  0  0  0  0
  185.6160  178.5840  146.8750 C   0  0  2  0  0  0  0  0  0  0  0  0
  182.3110  178.7010  142.2570 C   0  0  0  0  0  0  0  0  0  0  0  0
  183.8650  178.6580  145.3090 C   0  0  0  0  0  0  0  0  0  0  0  0
  183.5350  178.5340  141.6860 C   0  0  0  0  0  0  0  0  0  0  0  0
  184.9390  179.8750  143.4130 C   0  0  0  0  0  2  0  0  0  0  0  0
  186.0660  179.3750  145.7090 C   0  0  1  0  0  3  0  0  0  0  0  0
  182.1280  179.2570  143.6410 C   0  0  0  0  0  2  0  0  0  0  0  0
  184.1960  178.0800  146.6310 C   0  0  0  0  0  2  0  0  0  0  0  0
  182.6570  178.3930  144.6470 O   0  0  0  0  0  0  0  0  0  0  0  0
  182.5740  177.7420  139.5580 C   0  0  0  0  0  3  0  0  0  0  0  0
  183.6410  178.0440  140.2910 C   0  0  0  0  0  3  0  0  0  0  0  0
  184.8720  179.3740  144.8180 C   0  0  0  0  0  0  0  0  0  0  0  0
  180.2300  177.5310  139.4370 O   0  0  0  0  0  0  0  0  0  0  0  0
  186.5470  178.7940  140.6650 C   0  0  0  0  0  3  0  0  0  0  0  0
  187.8020  178.4670  140.1550 C   0  0  0  0  0  0  0  0  0  0  0  0
  188.2220  179.0030  138.9470 O   0  0  0  0  0  1  0  0  0  0  0  0
  186.9540  177.3680  142.5880 C   0  0  0  0  0  0  0  0  0  0  0  0
  188.6370  177.5980  140.8620 C   0  0  0  0  0  3  0  0  0  0  0  0
  186.5370  176.8300  143.8000 O   0  0  0  0  0  1  0  0  0  0  0  0
  188.2220  177.0380  142.0790 C   0  0  0  0  0  0  0  0  0  0  0  0
  186.1140  178.2450  141.8830 C   0  0  0  0  0  0  0  0  0  0  0  0
  189.0730  176.1790  142.8530 N   0  0  0  0  0  2  0  0  0  0  0  0
  191.2610  176.6650  143.8370 C   0  0  0  0  0  0  0  0  0  0  0  0
  192.0580  176.9740  144.9510 C   0  0  0  0  0  3  0  0  0  0  0  0
  191.4830  177.1360  146.2120 C   0  0  0  0  0  3  0  0  0  0  0  0
  189.3020  176.6800  145.2720 C   0  0  0  0  0  3  0  0  0  0  0  0
  190.1020  176.9970  146.3730 C   0  0  0  0  0  3  0  0  0  0  0  0
  189.8730  176.5050  144.0010 C   0  0  0  0  0  0  0  0  0  0  0  0
  191.8080  176.5080  142.5500 O   0  0  0  0  0  0  0  0  0  0  0  0
  192.8410  177.4720  140.6950 O   0  0  0  0  0  0  0  0  0  0  0  0
  191.9370  177.5060  141.5730 C   0  0  0  0  0  3  0  0  0  0  0  0
  186.7090  177.7420  147.5040 C   0  0  0  0  0  2  0  0  0  0  0  0
  187.2750  178.4430  148.7250 C   0  0  0  0  0  2  0  0  0  0  0  0
  188.6520  178.2400  148.7850 O   0  0  0  0  0  1  0  0  0  0  0  0
  1  2  1  0  0  0  0
  2  6  1  0  0  0  0
  4 25  1  6  0  0  0
  4  9  1  0  0  0  0
  5  3  1  0  0  0  0
  5 36  1  1  0  0  0
  6 11  1  0  0  0  0
  7 12  1  0  0  0  0
  8  6  2  0  0  0  0
  8  4  1  0  0  0  0
  9 16  1  0  0  0  0
 10 16  1  6  0  0  0
 10  5  1  0  0  0  0
 10  3  1  0  0  0  0
 11 13  1  0  0  0  0
 12  5  1  0  0  0  0
 13  7  1  0  0  0  0
 14  1  1  0  0  0  0
 14 15  2  0  0  0  0
 15  8  1  0  0  0  0
 16  7  2  0  0  0  0
 17  1  2  0  0  0  0
 18 25  1  0  0  0  0
 19 18  2  0  0  0  0
 19 22  1  0  0  0  0
 20 19  1  0  0  0  0
 21 23  1  0  0  0  0
 22 24  2  0  0  0  0
 24 21  1  0  0  0  0
 24 26  1  0  0  0  0
 25 21  2  0  0  0  0
 26 32  1  0  0  0  0
 27 32  2  0  0  0  0
 27 28  1  0  0  0  0
 28 29  2  0  0  0  0
 29 31  1  0  0  0  0
 30 31  2  0  0  0  0
 32 30  1  0  0  0  0
 33 27  1  0  0  0  0
 34 35  2  0  0  0  0
 35 33  1  0  0  0  0
 36 37  1  0  0  0  0
 37 38  1  0  0  0  0
M  END
>  <MODEL>
6

>  <REMARK>
 VINA RESULT:      -8.1      3.118      7.944
  Name = 
  7 active torsions:
  status: ('A' for Active; 'I' for Inactive)
    1  A    between atoms: C_1  and  O_35
    2  A    between atoms: C_6  and  C_12
    3  A    between atoms: C_6  and  C_25
    4  A    between atoms: C_10  and  C_38
    5  A    between atoms: C_20  and  O_35
    6  A    between atoms: N_30  and  C_31
    7  A    between atoms: N_30  and  C_34
                            x       y       z     vdW  Elec       q    Type
                         _______ _______ _______ _____ _____    ______ ____

>  <TORSDO>
F 7

$$$$
=
 OpenBabel11062413013D

 38 43  0  0  1  0  0  0  0  0999 V2000
  194.4930  174.7560  135.9700 C   0  0  0  0  0  0  0  0  0  0  0  0
  193.5530  173.7900  135.3020 C   0  0  0  0  0  2  0  0  0  0  0  0
  186.1760  173.3480  135.1980 O   0  0  0  0  0  0  0  0  0  0  0  0
  190.2160  175.5840  136.3040 C   0  0  2  0  0  3  0  0  0  0  0  0
  186.6250  172.9550  136.4690 C   0  0  2  0  0  0  0  0  0  0  0  0
  192.0910  174.1350  135.4680 C   0  0  0  0  0  0  0  0  0  0  0  0
  188.9040  172.9530  135.8930 C   0  0  0  0  0  0  0  0  0  0  0  0
  191.6840  175.2990  136.0460 C   0  0  0  0  0  0  0  0  0  0  0  0
  189.2390  175.3170  135.1660 C   0  0  0  0  0  2  0  0  0  0  0  0
  186.9670  174.2820  135.9130 C   0  0  1  0  0  3  0  0  0  0  0  0
  191.1360  173.1680  134.8290 C   0  0  0  0  0  2  0  0  0  0  0  0
  187.8740  172.0770  136.4940 C   0  0  0  0  0  2  0  0  0  0  0  0
  190.2500  172.5730  135.7770 O   0  0  0  0  0  0  0  0  0  0  0  0
  193.9910  175.9940  136.5670 C   0  0  0  0  0  3  0  0  0  0  0  0
  192.6850  176.2410  136.5990 C   0  0  0  0  0  3  0  0  0  0  0  0
  188.4080  174.1420  135.5620 C   0  0  0  0  0  0  0  0  0  0  0  0
  195.7270  174.5010  136.0110 O   0  0  0  0  0  0  0  0  0  0  0  0
  189.1670  177.8640  136.5880 C   0  0  0  0  0  3  0  0  0  0  0  0
  188.7350  178.9100  137.4020 C   0  0  0  0  0  0  0  0  0  0  0  0
  188.0830  180.0000  136.8430 O   0  0  0  0  0  1  0  0  0  0  0  0
  190.0640  176.7200  138.5340 C   0  0  0  0  0  0  0  0  0  0  0  0
  188.9580  178.8600  138.7790 C   0  0  0  0  0  3  0  0  0  0  0  0
  190.7150  175.6280  139.0960 O   0  0  0  0  0  1  0  0  0  0  0  0
  189.6270  177.7710  139.3570 C   0  0  0  0  0  0  0  0  0  0  0  0
  189.8360  176.7630  137.1490 C   0  0  0  0  0  0  0  0  0  0  0  0
  189.8320  177.6670  140.7750 N   0  0  0  0  0  2  0  0  0  0  0  0
  189.1960  176.9090  143.0140 C   0  0  0  0  0  0  0  0  0  0  0  0
  188.2450  176.7960  144.0420 C   0  0  0  0  0  3  0  0  0  0  0  0
  186.9690  177.3420  143.8910 C   0  0  0  0  0  3  0  0  0  0  0  0
  187.5680  178.1230  141.6810 C   0  0  0  0  0  3  0  0  0  0  0  0
  186.6320  178.0140  142.7130 C   0  0  0  0  0  3  0  0  0  0  0  0
  188.8500  177.5680  141.8190 C   0  0  0  0  0  0  0  0  0  0  0  0
  190.4940  176.3810  143.1390 O   0  0  0  0  0  0  0  0  0  0  0  0
  191.6800  177.4370  144.8470 O   0  0  0  0  0  0  0  0  0  0  0  0
  191.2820  176.3740  144.3000 C   0  0  0  0  0  3  0  0  0  0  0  0
  185.6100  173.0030  137.5940 C   0  0  0  0  0  2  0  0  0  0  0  0
  184.3390  172.2840  137.1850 C   0  0  0  0  0  2  0  0  0  0  0  0
  183.2820  173.1910  137.1380 O   0  0  0  0  0  1  0  0  0  0  0  0
  1 17  2  0  0  0  0
  1 14  1  0  0  0  0
  2  6  1  0  0  0  0
  2  1  1  0  0  0  0
  3  5  1  0  0  0  0
  4 25  1  6  0  0  0
  5 12  1  0  0  0  0
  5 36  1  1  0  0  0
  6  8  2  0  0  0  0
  7 12  1  0  0  0  0
  8  4  1  0  0  0  0
  8 15  1  0  0  0  0
  9 16  1  0  0  0  0
  9  4  1  0  0  0  0
 10  3  1  6  0  0  0
 10  5  1  0  0  0  0
 11  6  1  0  0  0  0
 11 13  1  0  0  0  0
 13  7  1  0  0  0  0
 14 15  2  0  0  0  0
 16  7  2  0  0  0  0
 16 10  1  0  0  0  0
 18 25  2  0  0  0  0
 18 19  1  0  0  0  0
 19 22  2  0  0  0  0
 20 19  1  0  0  0  0
 21 23  1  0  0  0  0
 21 24  2  0  0  0  0
 22 24  1  0  0  0  0
 24 26  1  0  0  0  0
 25 21  1  0  0  0  0
 26 32  1  0  0  0  0
 27 33  1  0  0  0  0
 27 28  1  0  0  0  0
 29 28  2  0  0  0  0
 30 32  1  0  0  0  0
 30 31  2  0  0  0  0
 31 29  1  0  0  0  0
 32 27  2  0  0  0  0
 33 35  1  0  0  0  0
 35 34  2  0  0  0  0
 37 36  1  0  0  0  0
 38 37  1  0  0  0  0
M  END
>  <MODEL>
7

>  <REMARK>
 VINA RESULT:      -8.0      2.338      3.657
  Name = 
  7 active torsions:
  status: ('A' for Active; 'I' for Inactive)
    1  A    between atoms: C_1  and  O_35
    2  A    between atoms: C_6  and  C_12
    3  A    between atoms: C_6  and  C_25
    4  A    between atoms: C_10  and  C_38
    5  A    between atoms: C_20  and  O_35
    6  A    between atoms: N_30  and  C_31
    7  A    between atoms: N_30  and  C_34
                            x       y       z     vdW  Elec       q    Type
                         _______ _______ _______ _____ _____    ______ ____

>  <TORSDO>
F 7

$$$$
=
 OpenBabel11062413013D

 38 43  0  0  1  0  0  0  0  0999 V2000
  181.5870  177.8400  140.4470 C   0  0  0  0  0  0  0  0  0  0  0  0
  181.3730  178.4100  141.8220 C   0  0  0  0  0  2  0  0  0  0  0  0
  186.0620  179.8890  147.3400 O   0  0  0  0  0  0  0  0  0  0  0  0
  185.1470  178.6090  142.8610 C   0  0  2  0  0  3  0  0  0  0  0  0
  185.9150  178.4960  147.2460 C   0  0  2  0  0  0  0  0  0  0  0  0
  182.6480  178.6400  142.6010 C   0  0  0  0  0  0  0  0  0  0  0  0
  184.1770  178.5780  145.6660 C   0  0  0  0  0  0  0  0  0  0  0  0
  183.8780  178.4800  142.0400 C   0  0  0  0  0  0  0  0  0  0  0  0
  185.2640  179.8110  143.7880 C   0  0  0  0  0  2  0  0  0  0  0  0
  186.3720  179.2980  146.0900 C   0  0  1  0  0  3  0  0  0  0  0  0
  182.4530  179.1850  143.9880 C   0  0  0  0  0  2  0  0  0  0  0  0
  184.4980  177.9910  146.9860 C   0  0  0  0  0  2  0  0  0  0  0  0
  182.9750  178.3150  144.9910 O   0  0  0  0  0  0  0  0  0  0  0  0
  182.9370  177.7010  139.8980 C   0  0  0  0  0  3  0  0  0  0  0  0
  183.9970  178.0000  140.6420 C   0  0  0  0  0  3  0  0  0  0  0  0
  185.1870  179.3000  145.1890 C   0  0  0  0  0  0  0  0  0  0  0  0
  180.5950  177.4850  139.7550 O   0  0  0  0  0  0  0  0  0  0  0  0
  187.2860  177.2660  142.9050 C   0  0  0  0  0  3  0  0  0  0  0  0
  188.4530  176.8190  142.2880 C   0  0  0  0  0  0  0  0  0  0  0  0
  189.2760  175.9090  142.9360 O   0  0  0  0  0  1  0  0  0  0  0  0
  186.8050  178.6680  140.9810 C   0  0  0  0  0  0  0  0  0  0  0  0
  188.7940  177.2870  141.0170 C   0  0  0  0  0  3  0  0  0  0  0  0
  185.9810  179.5780  140.3280 O   0  0  0  0  0  1  0  0  0  0  0  0
  187.9790  178.2160  140.3550 C   0  0  0  0  0  0  0  0  0  0  0  0
  186.4560  178.1950  142.2560 C   0  0  0  0  0  0  0  0  0  0  0  0
  188.2760  178.6820  139.0290 N   0  0  0  0  0  2  0  0  0  0  0  0
  188.9980  177.5030  137.0100 C   0  0  0  0  0  0  0  0  0  0  0  0
  188.7050  176.9070  135.7710 C   0  0  0  0  0  3  0  0  0  0  0  0
  187.3930  176.8640  135.2980 C   0  0  0  0  0  3  0  0  0  0  0  0
  186.6400  178.0110  137.2890 C   0  0  0  0  0  3  0  0  0  0  0  0
  186.3570  177.4080  136.0610 C   0  0  0  0  0  3  0  0  0  0  0  0
  187.9580  178.0690  137.7690 C   0  0  0  0  0  0  0  0  0  0  0  0
  190.3080  177.5520  137.5210 O   0  0  0  0  0  0  0  0  0  0  0  0
  190.4260  175.4310  138.4860 O   0  0  0  0  0  0  0  0  0  0  0  0
  190.9990  176.5010  138.1440 C   0  0  0  0  0  3  0  0  0  0  0  0
  187.0050  177.6530  147.8790 C   0  0  0  0  0  2  0  0  0  0  0  0
  187.9200  178.5220  148.7190 C   0  0  0  0  0  2  0  0  0  0  0  0
  189.2490  178.2530  148.3950 O   0  0  0  0  0  1  0  0  0  0  0  0
  1  2  1  0  0  0  0
  2  6  1  0  0  0  0
  4 25  1  6  0  0  0
  4  9  1  0  0  0  0
  5  3  1  0  0  0  0
  5 36  1  1  0  0  0
  6 11  1  0  0  0  0
  7 12  1  0  0  0  0
  8  6  2  0  0  0  0
  8  4  1  0  0  0  0
  9 16  1  0  0  0  0
 10 16  1  6  0  0  0
 10  5  1  0  0  0  0
 10  3  1  0  0  0  0
 11 13  1  0  0  0  0
 12  5  1  0  0  0  0
 13  7  1  0  0  0  0
 14  1  1  0  0  0  0
 14 15  2  0  0  0  0
 15  8  1  0  0  0  0
 16  7  2  0  0  0  0
 17  1  2  0  0  0  0
 19 18  1  0  0  0  0
 19 20  1  0  0  0  0
 21 25  1  0  0  0  0
 22 19  2  0  0  0  0
 23 21  1  0  0  0  0
 24 21  2  0  0  0  0
 24 22  1  0  0  0  0
 25 18  2  0  0  0  0
 26 24  1  0  0  0  0
 27 33  1  0  0  0  0
 27 32  1  0  0  0  0
 28 27  2  0  0  0  0
 29 28  1  0  0  0  0
 29 31  2  0  0  0  0
 30 32  2  0  0  0  0
 31 30  1  0  0  0  0
 32 26  1  0  0  0  0
 33 35  1  0  0  0  0
 35 34  2  0  0  0  0
 36 37  1  0  0  0  0
 38 37  1  0  0  0  0
M  END
>  <MODEL>
8

>  <REMARK>
 VINA RESULT:      -7.9      2.876      9.144
  Name = 
  7 active torsions:
  status: ('A' for Active; 'I' for Inactive)
    1  A    between atoms: C_1  and  O_35
    2  A    between atoms: C_6  and  C_12
    3  A    between atoms: C_6  and  C_25
    4  A    between atoms: C_10  and  C_38
    5  A    between atoms: C_20  and  O_35
    6  A    between atoms: N_30  and  C_31
    7  A    between atoms: N_30  and  C_34
                            x       y       z     vdW  Elec       q    Type
                         _______ _______ _______ _____ _____    ______ ____

>  <TORSDO>
F 7

$$$$
=
 OpenBabel11062413013D

 38 43  0  0  1  0  0  0  0  0999 V2000
  188.6700  178.2860  148.4580 C   0  0  0  0  0  0  0  0  0  0  0  0
  187.2090  178.3940  148.1200 C   0  0  0  0  0  2  0  0  0  0  0  0
  183.5650  177.8290  141.7150 O   0  0  0  0  0  0  0  0  0  0  0  0
  187.5160  177.4710  144.3240 C   0  0  2  0  0  3  0  0  0  0  0  0
  184.2640  179.0460  141.7200 C   0  0  2  0  0  0  0  0  0  0  0  0
  186.8870  178.1080  146.6710 C   0  0  0  0  0  0  0  0  0  0  0  0
  184.9340  178.8910  143.9680 C   0  0  0  0  0  0  0  0  0  0  0  0
  187.8250  177.6510  145.7980 C   0  0  0  0  0  0  0  0  0  0  0  0
  186.2220  176.7530  143.9610 C   0  0  0  0  0  2  0  0  0  0  0  0
  184.9680  177.7590  141.9100 C   0  0  1  0  0  3  0  0  0  0  0  0
  185.4340  178.2360  146.3090 C   0  0  0  0  0  2  0  0  0  0  0  0
  184.2510  179.8180  143.0380 C   0  0  0  0  0  2  0  0  0  0  0  0
  185.2110  179.2240  145.3030 O   0  0  0  0  0  0  0  0  0  0  0  0
  189.6280  177.7780  147.4750 C   0  0  0  0  0  3  0  0  0  0  0  0
  189.2300  177.4850  146.2420 C   0  0  0  0  0  3  0  0  0  0  0  0
  185.3060  177.7680  143.3600 C   0  0  0  0  0  0  0  0  0  0  0  0
  189.0750  178.6280  149.6020 O   0  0  0  0  0  0  0  0  0  0  0  0
  189.5760  176.1810  143.6360 C   0  0  0  0  0  3  0  0  0  0  0  0
  190.5560  175.8690  142.6950 C   0  0  0  0  0  0  0  0  0  0  0  0
  191.4880  174.8770  142.9670 O   0  0  0  0  0  1  0  0  0  0  0  0
  188.6880  177.8820  142.1470 C   0  0  0  0  0  0  0  0  0  0  0  0
  190.6000  176.5540  141.4790 C   0  0  0  0  0  3  0  0  0  0  0  0
  187.7550  178.8760  141.8710 O   0  0  0  0  0  1  0  0  0  0  0  0
  189.6730  177.5680  141.1950 C   0  0  0  0  0  0  0  0  0  0  0  0
  188.6380  177.1920  143.3680 C   0  0  0  0  0  0  0  0  0  0  0  0
  189.6610  178.2590  139.9370 N   0  0  0  0  0  2  0  0  0  0  0  0
  189.6370  177.3680  137.6570 C   0  0  0  0  0  0  0  0  0  0  0  0
  188.9460  177.0520  136.4760 C   0  0  0  0  0  3  0  0  0  0  0  0
  187.5730  177.2830  136.3740 C   0  0  0  0  0  3  0  0  0  0  0  0
  187.5550  178.1520  138.6310 C   0  0  0  0  0  3  0  0  0  0  0  0
  186.8740  177.8260  137.4550 C   0  0  0  0  0  3  0  0  0  0  0  0
  188.9380  177.9330  138.7390 C   0  0  0  0  0  0  0  0  0  0  0  0
  191.0180  177.1360  137.7970 O   0  0  0  0  0  0  0  0  0  0  0  0
  191.0180  174.8680  138.3440 O   0  0  0  0  0  0  0  0  0  0  0  0
  191.6420  175.8870  137.9420 C   0  0  0  0  0  3  0  0  0  0  0  0
  184.5170  179.6910  140.3720 C   0  0  0  0  0  2  0  0  0  0  0  0
  183.3130  179.5100  139.4690 C   0  0  0  0  0  2  0  0  0  0  0  0
  183.6320  178.6350  138.4320 O   0  0  0  0  0  1  0  0  0  0  0  0
  1 17  2  0  0  0  0
  2  1  1  0  0  0  0
  3  5  1  0  0  0  0
  4 25  1  1  0  0  0
  4  8  1  0  0  0  0
  5 36  1  6  0  0  0
  5 10  1  0  0  0  0
  5 12  1  0  0  0  0
  6  2  1  0  0  0  0
  7 13  1  0  0  0  0
  8 15  1  0  0  0  0
  8  6  2  0  0  0  0
  9  4  1  0  0  0  0
 10  3  1  1  0  0  0
 10 16  1  0  0  0  0
 11  6  1  0  0  0  0
 12  7  1  0  0  0  0
 13 11  1  0  0  0  0
 14  1  1  0  0  0  0
 15 14  2  0  0  0  0
 16  9  1  0  0  0  0
 16  7  2  0  0  0  0
 19 20  1  0  0  0  0
 19 18  2  0  0  0  0
 21 25  2  0  0  0  0
 22 19  1  0  0  0  0
 23 21  1  0  0  0  0
 24 22  2  0  0  0  0
 24 21  1  0  0  0  0
 25 18  1  0  0  0  0
 26 24  1  0  0  0  0
 27 33  1  0  0  0  0
 27 32  1  0  0  0  0
 28 27  2  0  0  0  0
 29 28  1  0  0  0  0
 29 31  2  0  0  0  0
 30 32  2  0  0  0  0
 31 30  1  0  0  0  0
 32 26  1  0  0  0  0
 33 35  1  0  0  0  0
 35 34  2  0  0  0  0
 37 36  1  0  0  0  0
 38 37  1  0  0  0  0
M  END
>  <MODEL>
9

>  <REMARK>
 VINA RESULT:      -7.7      2.621      7.561
  Name = 
  7 active torsions:
  status: ('A' for Active; 'I' for Inactive)
    1  A    between atoms: C_1  and  O_35
    2  A    between atoms: C_6  and  C_12
    3  A    between atoms: C_6  and  C_25
    4  A    between atoms: C_10  and  C_38
    5  A    between atoms: C_20  and  O_35
    6  A    between atoms: N_30  and  C_31
    7  A    between atoms: N_30  and  C_34
                            x       y       z     vdW  Elec       q    Type
                         _______ _______ _______ _____ _____    ______ ____

>  <TORSDO>
F 7

$$$$
