=
 OpenBabel11062412393D

 68 74  0  0  1  0  0  0  0  0999 V2000
  187.8670  179.1150  139.1730 C   0  0  0  0  0  2  0  0  0  0  0  0
  185.1680  179.4640  142.0710 C   0  0  1  0  0  3  0  0  0  0  0  0
  186.8030  176.9700  138.2730 N   0  0  2  0  0  0  0  0  0  0  0  0
  183.3220  178.1940  140.8720 N   0  0  0  0  0  2  0  0  0  0  0  0
  189.5630  176.9110  141.7580 C   0  0  0  0  0  0  0  0  0  0  0  0
  187.6060  178.1770  137.9720 C   0  0  2  0  0  3  0  0  0  0  0  0
  187.5730  178.8540  141.6860 C   0  0  0  0  0  0  0  0  0  0  0  0
  189.2310  177.4790  140.5290 C   0  0  0  0  0  3  0  0  0  0  0  0
  190.5770  175.6990  143.5000 N   0  0  0  0  0  0  0  0  0  0  0  0
  188.9390  177.2830  142.9050 C   0  0  0  0  0  0  0  0  0  0  0  0
  189.5420  176.5850  144.0630 C   0  0  1  0  0  3  0  0  0  0  0  0
  184.2810  179.2550  140.8730 C   0  0  0  0  0  0  0  0  0  0  0  0
  190.6230  175.9300  142.0450 C   0  0  0  0  0  2  0  0  0  0  0  0
  186.5720  179.9690  141.7080 C   0  0  0  0  0  2  0  0  0  0  0  0
  188.2050  178.4440  140.4800 C   0  0  0  0  0  0  0  0  0  0  0  0
  184.3950  179.9970  139.8580 O   0  0  0  0  0  0  0  0  0  0  0  0
  184.2580  177.9150  137.2390 C   0  0  2  0  0  3  0  0  0  0  0  0
  185.4160  177.5540  136.2980 C   0  0  0  0  0  2  0  0  0  0  0  0
  183.2160  176.6330  139.3100 C   0  0  2  0  0  3  0  0  0  0  0  0
  182.6660  177.8600  139.7310 O   0  0  0  0  0  0  0  0  0  0  0  0
  186.1490  176.4280  137.0610 C   0  0  2  0  0  3  0  0  0  0  0  0
  185.6640  177.2740  139.1470 C   0  0  0  0  0  2  0  0  0  0  0  0
  187.9530  178.2710  142.9070 C   0  0  0  0  0  3  0  0  0  0  0  0
  184.9740  175.6790  137.6300 C   0  0  0  0  0  2  0  0  0  0  0  0
  184.4260  176.8720  138.3620 C   0  0  2  0  0  0  0  0  0  0  0  0
  180.2210  174.4600  139.1100 C   0  0  0  0  0  2  0  0  0  0  0  0
  180.0010  176.8110  138.9810 O   0  0  0  0  0  1  0  0  0  0  0  0
  182.1200  175.7730  138.6600 C   0  0  1  0  0  3  0  0  0  0  0  0
  181.3670  173.6550  138.5360 C   0  0  2  0  0  3  0  0  0  0  0  0
  182.5380  174.4370  138.5300 O   0  0  0  0  0  0  0  0  0  0  0  0
  180.8300  175.7840  139.4440 C   0  0  2  0  0  3  0  0  0  0  0  0
  181.0350  173.2160  137.1480 C   0  0  0  0  0  3  0  0  0  0  0  0
  181.3390  171.9850  136.7330 C   0  0  0  0  0  3  0  0  0  0  0  0
  179.7500  170.9460  135.3140 O   0  0  0  0  0  1  0  0  0  0  0  0
  181.0090  171.5530  135.3440 C   0  0  0  0  0  2  0  0  0  0  0  0
  189.0620  176.5410  136.6790 N   0  0  0  0  0  1  0  0  0  0  0  0
  189.7990  178.6820  137.1790 O   0  0  0  0  0  0  0  0  0  0  0  0
  188.8790  177.8270  137.2630 C   0  0  0  0  0  0  0  0  0  0  0  0
  182.4980  178.9370  135.6950 N   0  0  0  0  0  2  0  0  0  0  0  0
  182.2210  176.8250  136.6580 O   0  0  0  0  0  0  0  0  0  0  0  0
  182.9320  177.8550  136.5290 C   0  0  0  0  0  0  0  0  0  0  0  0
  181.3080  178.9180  134.8520 C   0  0  2  0  0  3  0  0  0  0  0  0
  180.9200  181.5840  134.8120 O   0  0  0  0  0  0  0  0  0  0  0  0
  180.2770  180.3120  135.2930 S   0  0  0  0  0  0  0  0  0  0  0  0
  178.9310  180.1430  134.6310 O   0  0  0  0  0  0  0  0  0  0  0  0
  180.0910  180.3720  137.0180 N   0  0  0  0  0  2  0  0  0  0  0  0
  180.7230  181.5950  137.4870 C   0  0  0  0  0  2  0  0  0  0  0  0
  180.5570  181.7040  138.9930 C   0  0  0  0  0  1  0  0  0  0  0  0
  179.2000  177.9130  135.3910 O   0  0  0  0  0  1  0  0  0  0  0  0
  180.5240  177.6250  135.0620 C   0  0  0  0  0  2  0  0  0  0  0  0
  184.5510  180.2090  143.1010 O   0  0  0  0  0  0  0  0  0  0  0  0
  184.3960  179.3910  144.2310 C   0  0  0  0  0  1  0  0  0  0  0  0
  188.5410  175.7790  144.7510 N   0  0  0  0  0  2  0  0  0  0  0  0
  186.2810  176.4340  145.9480 O   0  0  0  0  0  0  0  0  0  0  0  0
  187.7520  176.7440  145.9580 S   0  0  0  0  0  0  0  0  0  0  0  0
  187.9560  178.2110  145.6870 O   0  0  0  0  0  0  0  0  0  0  0  0
  188.4340  176.3620  147.5060 N   0  0  0  0  0  2  0  0  0  0  0  0
  188.2660  177.5190  148.3710 C   0  0  0  0  0  2  0  0  0  0  0  0
  189.5630  178.3150  148.4470 C   0  0  0  0  0  2  0  0  0  0  0  0
  191.9240  177.8810  149.1640 C   0  0  0  0  0  2  0  0  0  0  0  0
  192.9940  176.8240  149.2370 C   0  0  0  0  0  3  0  0  0  0  0  0
  190.7260  177.4390  148.4420 N   0  0  0  0  0  0  0  0  0  0  0  0
  190.7030  176.2190  147.6830 C   0  0  0  0  0  3  0  0  0  0  0  0
  192.9110  175.6840  148.5520 C   0  0  0  0  0  3  0  0  0  0  0  0
  191.7380  175.3810  147.7190 C   0  0  0  0  0  3  0  0  0  0  0  0
  191.8560  176.1240  144.0470 C   0  0  0  0  0  2  0  0  0  0  0  0
  192.3500  178.4310  144.6420 N   0  0  0  0  0  1  0  0  0  0  0  0
  191.6390  177.2300  145.0600 C   0  0  0  0  0  2  0  0  0  0  0  0
  1 15  1  0  0  0  0
  2 51  1  1  0  0  0
  3 22  1  1  0  0  0
  4 12  1  0  0  0  0
  5 13  1  0  0  0  0
  5 10  1  0  0  0  0
  6 38  1  1  0  0  0
  6  3  1  0  0  0  0
  6  1  1  0  0  0  0
  7 14  1  0  0  0  0
  7 23  1  0  0  0  0
  8  5  2  0  0  0  0
  9 66  1  0  0  0  0
  9 11  1  0  0  0  0
 10 23  2  0  0  0  0
 10 11  1  0  0  0  0
 11 53  1  6  0  0  0
 12  2  1  0  0  0  0
 13  9  1  0  0  0  0
 14  2  1  0  0  0  0
 15  8  1  0  0  0  0
 15  7  2  0  0  0  0
 16 12  2  0  0  0  0
 17 41  1  6  0  0  0
 17 25  1  0  0  0  0
 18 17  1  0  0  0  0
 19 20  1  6  0  0  0
 20  4  1  0  0  0  0
 21 18  1  6  0  0  0
 21 24  1  0  0  0  0
 21  3  1  0  0  0  0
 25 24  1  6  0  0  0
 25 22  1  0  0  0  0
 25 19  1  0  0  0  0
 26 31  1  0  0  0  0
 28 30  1  1  0  0  0
 28 19  1  0  0  0  0
 28 31  1  0  0  0  0
 29 32  1  6  0  0  0
 29 26  1  0  0  0  0
 30 29  1  0  0  0  0
 31 27  1  6  0  0  0
 33 32  2  0  0  0  0
 34 35  1  0  0  0  0
 35 33  1  0  0  0  0
 36 38  1  0  0  0  0
 37 38  2  0  0  0  0
 39 41  1  0  0  0  0
 41 40  2  0  0  0  0
 42 50  1  1  0  0  0
 42 44  1  0  0  0  0
 42 39  1  0  0  0  0
 43 44  2  0  0  0  0
 44 46  1  0  0  0  0
 45 44  2  0  0  0  0
 46 47  1  0  0  0  0
 47 48  1  0  0  0  0
 50 49  1  0  0  0  0
 51 52  1  0  0  0  0
 53 55  1  0  0  0  0
 54 55  2  0  0  0  0
 55 57  1  0  0  0  0
 56 55  2  0  0  0  0
 57 58  1  0  0  0  0
 58 59  1  0  0  0  0
 60 61  1  0  0  0  0
 62 59  1  0  0  0  0
 62 60  1  0  0  0  0
 63 65  2  0  0  0  0
 63 62  1  0  0  0  0
 64 61  2  0  0  0  0
 65 64  1  0  0  0  0
 66 68  1  0  0  0  0
 67 68  1  0  0  0  0
M  END
>  <MODEL>
1

>  <REMARK>
 VINA RESULT:      -0.2      0.000      0.000
  Name = 
  19 active torsions:
  status: ('A' for Active; 'I' for Inactive)
    1  A    between atoms: N_1  and  C_51
    2  A    between atoms: C_2  and  C_21
    3  A    between atoms: C_3  and  C_37
    4  A    between atoms: C_9  and  O_40
    5  A    between atoms: C_16  and  C_44
    6  A    between atoms: C_20  and  C_57
    7  A    between atoms: C_22  and  N_54
    8  A    between atoms: N_23  and  C_24
    9  A    between atoms: N_23  and  S_50
   10  A    between atoms: C_24  and  C_31
   11  A    between atoms: C_26  and  C_45
   12  A    between atoms: N_27  and  C_45
   13  A    between atoms: C_30  and  N_33
   14  A    between atoms: C_31  and  N_34
   15  A    between atoms: C_32  and  C_51
   16  A    between atoms: N_33  and  S_50
   17  A    between atoms: C_51  and  S_65
   18  A    between atoms: C_52  and  C_63
   19  A    between atoms: N_54  and  S_65
                            x       y       z     vdW  Elec       q    Type
                         _______ _______ _______ _____ _____    ______ ____

>  <TORSDO>
F 19

$$$$
=
 OpenBabel11062412393D

 68 74  0  0  1  0  0  0  0  0999 V2000
  187.3340  178.9710  138.9530 C   0  0  0  0  0  2  0  0  0  0  0  0
  185.2430  179.5990  142.2760 C   0  0  1  0  0  3  0  0  0  0  0  0
  186.0380  176.8380  138.3940 N   0  0  2  0  0  0  0  0  0  0  0  0
  183.1580  178.3610  141.5180 N   0  0  0  0  0  2  0  0  0  0  0  0
  189.4000  176.8220  141.3030 C   0  0  0  0  0  0  0  0  0  0  0  0
  186.8150  177.9870  137.8790 C   0  0  2  0  0  3  0  0  0  0  0  0
  187.5080  178.8530  141.4880 C   0  0  0  0  0  0  0  0  0  0  0  0
  188.8640  177.3410  140.1270 C   0  0  0  0  0  3  0  0  0  0  0  0
  190.6750  175.6520  142.8960 N   0  0  0  0  0  0  0  0  0  0  0  0
  189.0170  177.2820  142.5230 C   0  0  0  0  0  0  0  0  0  0  0  0
  189.8000  176.6150  143.5870 C   0  0  1  0  0  3  0  0  0  0  0  0
  184.1390  179.3730  141.2780 C   0  0  0  0  0  0  0  0  0  0  0  0
  190.4560  175.8060  141.4460 C   0  0  0  0  0  2  0  0  0  0  0  0
  186.5720  180.0150  141.6290 C   0  0  0  0  0  2  0  0  0  0  0  0
  187.8850  178.3520  140.2120 C   0  0  0  0  0  0  0  0  0  0  0  0
  184.0890  180.0550  140.2170 O   0  0  0  0  0  0  0  0  0  0  0  0
  183.3820  177.8520  137.7970 C   0  0  2  0  0  3  0  0  0  0  0  0
  184.3270  177.3870  136.6810 C   0  0  0  0  0  2  0  0  0  0  0  0
  182.6990  176.7300  140.0970 C   0  0  2  0  0  3  0  0  0  0  0  0
  182.2860  178.0020  140.5400 O   0  0  0  0  0  0  0  0  0  0  0  0
  185.1470  176.2670  137.3590 C   0  0  2  0  0  3  0  0  0  0  0  0
  185.0950  177.2410  139.4450 C   0  0  0  0  0  2  0  0  0  0  0  0
  188.0880  178.3160  142.6490 C   0  0  0  0  0  3  0  0  0  0  0  0
  184.0710  175.6060  138.1800 C   0  0  0  0  0  2  0  0  0  0  0  0
  183.7170  176.8610  138.9290 C   0  0  2  0  0  0  0  0  0  0  0  0
  179.5250  174.8750  140.5640 C   0  0  0  0  0  2  0  0  0  0  0  0
  179.4940  177.1820  140.0480 O   0  0  0  0  0  1  0  0  0  0  0  0
  181.4680  175.8920  139.7150 C   0  0  1  0  0  3  0  0  0  0  0  0
  180.5270  173.8730  140.0350 C   0  0  2  0  0  3  0  0  0  0  0  0
  181.7530  174.5180  139.7820 O   0  0  0  0  0  0  0  0  0  0  0  0
  180.2780  176.1660  140.6030 C   0  0  2  0  0  3  0  0  0  0  0  0
  180.0080  173.2470  138.7830 C   0  0  0  0  0  3  0  0  0  0  0  0
  180.1690  173.8490  137.6040 C   0  0  0  0  0  3  0  0  0  0  0  0
  178.9340  172.0570  136.6640 O   0  0  0  0  0  1  0  0  0  0  0  0
  179.6440  173.2210  136.3560 C   0  0  0  0  0  2  0  0  0  0  0  0
  188.3050  176.1710  136.9040 N   0  0  0  0  0  1  0  0  0  0  0  0
  188.5080  178.3850  136.2450 O   0  0  0  0  0  0  0  0  0  0  0  0
  187.9180  177.5390  136.9670 C   0  0  0  0  0  0  0  0  0  0  0  0
  181.0600  178.9080  137.6510 N   0  0  0  0  0  2  0  0  0  0  0  0
  181.5370  176.8350  136.6820 O   0  0  0  0  0  0  0  0  0  0  0  0
  181.9440  177.8210  137.3510 C   0  0  0  0  0  0  0  0  0  0  0  0
  179.6990  179.0450  137.1440 C   0  0  2  0  0  3  0  0  0  0  0  0
  181.2090  179.5110  134.9610 O   0  0  0  0  0  0  0  0  0  0  0  0
  179.7810  179.5550  135.4310 S   0  0  0  0  0  0  0  0  0  0  0  0
  178.9460  178.6060  134.6060 O   0  0  0  0  0  0  0  0  0  0  0  0
  179.1710  181.1730  135.2790 N   0  0  0  0  0  2  0  0  0  0  0  0
  180.2200  182.0820  135.7120 C   0  0  0  0  0  2  0  0  0  0  0  0
  179.7350  183.5150  135.5780 C   0  0  0  0  0  1  0  0  0  0  0  0
  179.1450  179.9050  139.3100 O   0  0  0  0  0  1  0  0  0  0  0  0
  178.9310  180.0920  137.9450 C   0  0  0  0  0  2  0  0  0  0  0  0
  184.8600  180.4250  143.3560 O   0  0  0  0  0  0  0  0  0  0  0  0
  183.6690  179.9320  143.9120 C   0  0  0  0  0  1  0  0  0  0  0  0
  188.9160  175.8950  144.4960 N   0  0  0  0  0  2  0  0  0  0  0  0
  190.7470  175.1620  146.2520 O   0  0  0  0  0  0  0  0  0  0  0  0
  189.5230  176.0250  146.1170 S   0  0  0  0  0  0  0  0  0  0  0  0
  188.4850  175.5800  147.1130 O   0  0  0  0  0  0  0  0  0  0  0  0
  189.9220  177.6830  146.4280 N   0  0  0  0  0  2  0  0  0  0  0  0
  189.5260  177.9940  147.7920 C   0  0  0  0  0  2  0  0  0  0  0  0
  188.5050  179.1250  147.8010 C   0  0  0  0  0  2  0  0  0  0  0  0
  186.0770  178.6310  148.1740 C   0  0  0  0  0  2  0  0  0  0  0  0
  184.7770  178.3390  147.4720 C   0  0  0  0  0  3  0  0  0  0  0  0
  187.2240  178.6890  147.2620 N   0  0  0  0  0  0  0  0  0  0  0  0
  187.1290  178.2620  145.8940 C   0  0  0  0  0  3  0  0  0  0  0  0
  184.7300  177.9910  146.1860 C   0  0  0  0  0  3  0  0  0  0  0  0
  185.9530  177.9170  145.3730 C   0  0  0  0  0  3  0  0  0  0  0  0
  192.0500  176.0420  143.1690 C   0  0  0  0  0  2  0  0  0  0  0  0
  191.7240  178.4490  143.0500 N   0  0  0  0  0  1  0  0  0  0  0  0
  192.0710  177.3470  143.9380 C   0  0  0  0  0  2  0  0  0  0  0  0
  1 15  1  0  0  0  0
  2 51  1  1  0  0  0
  3 22  1  1  0  0  0
  5 13  1  0  0  0  0
  5 10  1  0  0  0  0
  6 38  1  1  0  0  0
  6  3  1  0  0  0  0
  6  1  1  0  0  0  0
  7 14  1  0  0  0  0
  7 23  1  0  0  0  0
  8 15  1  0  0  0  0
  8  5  2  0  0  0  0
  9 66  1  0  0  0  0
  9 11  1  0  0  0  0
 10 23  2  0  0  0  0
 10 11  1  0  0  0  0
 11 53  1  1  0  0  0
 12  4  1  0  0  0  0
 12  2  1  0  0  0  0
 13  9  1  0  0  0  0
 14  2  1  0  0  0  0
 15  7  2  0  0  0  0
 16 12  2  0  0  0  0
 17 41  1  6  0  0  0
 17 25  1  0  0  0  0
 18 17  1  0  0  0  0
 19 20  1  6  0  0  0
 20  4  1  0  0  0  0
 21 18  1  6  0  0  0
 21 24  1  0  0  0  0
 21  3  1  0  0  0  0
 25 24  1  6  0  0  0
 25 22  1  0  0  0  0
 25 19  1  0  0  0  0
 26 31  1  0  0  0  0
 28 30  1  1  0  0  0
 28 19  1  0  0  0  0
 28 31  1  0  0  0  0
 29 32  1  6  0  0  0
 29 26  1  0  0  0  0
 30 29  1  0  0  0  0
 31 27  1  6  0  0  0
 33 32  2  0  0  0  0
 35 34  1  0  0  0  0
 35 33  1  0  0  0  0
 36 38  1  0  0  0  0
 37 38  2  0  0  0  0
 40 41  2  0  0  0  0
 41 39  1  0  0  0  0
 42 39  1  0  0  0  0
 42 50  1  1  0  0  0
 43 44  2  0  0  0  0
 44 42  1  0  0  0  0
 45 44  2  0  0  0  0
 46 44  1  0  0  0  0
 46 47  1  0  0  0  0
 48 47  1  0  0  0  0
 50 49  1  0  0  0  0
 51 52  1  0  0  0  0
 53 55  1  0  0  0  0
 55 54  2  0  0  0  0
 55 57  1  0  0  0  0
 55 56  2  0  0  0  0
 57 58  1  0  0  0  0
 58 59  1  0  0  0  0
 61 60  1  0  0  0  0
 62 59  1  0  0  0  0
 62 60  1  0  0  0  0
 63 62  1  0  0  0  0
 64 61  2  0  0  0  0
 65 63  2  0  0  0  0
 65 64  1  0  0  0  0
 66 68  1  0  0  0  0
 67 68  1  0  0  0  0
M  END
>  <MODEL>
2

>  <REMARK>
 VINA RESULT:       0.5      1.629      2.572
  Name = 
  19 active torsions:
  status: ('A' for Active; 'I' for Inactive)
    1  A    between atoms: N_1  and  C_51
    2  A    between atoms: C_2  and  C_21
    3  A    between atoms: C_3  and  C_37
    4  A    between atoms: C_9  and  O_40
    5  A    between atoms: C_16  and  C_44
    6  A    between atoms: C_20  and  C_57
    7  A    between atoms: C_22  and  N_54
    8  A    between atoms: N_23  and  C_24
    9  A    between atoms: N_23  and  S_50
   10  A    between atoms: C_24  and  C_31
   11  A    between atoms: C_26  and  C_45
   12  A    between atoms: N_27  and  C_45
   13  A    between atoms: C_30  and  N_33
   14  A    between atoms: C_31  and  N_34
   15  A    between atoms: C_32  and  C_51
   16  A    between atoms: N_33  and  S_50
   17  A    between atoms: C_51  and  S_65
   18  A    between atoms: C_52  and  C_63
   19  A    between atoms: N_54  and  S_65
                            x       y       z     vdW  Elec       q    Type
                         _______ _______ _______ _____ _____    ______ ____

>  <TORSDO>
F 19

$$$$
=
 OpenBabel11062412393D

 68 74  0  0  1  0  0  0  0  0999 V2000
  184.5540  178.9590  139.8060 C   0  0  0  0  0  2  0  0  0  0  0  0
  187.5090  177.6110  137.5130 C   0  0  1  0  0  3  0  0  0  0  0  0
  185.3780  177.6550  141.8460 N   0  0  2  0  0  0  0  0  0  0  0  0
  189.1480  177.1910  139.4090 N   0  0  0  0  0  2  0  0  0  0  0  0
  182.9290  175.7170  138.6810 C   0  0  0  0  0  0  0  0  0  0  0  0
  184.6430  178.8370  141.3450 C   0  0  2  0  0  3  0  0  0  0  0  0
  185.0420  177.3490  137.8980 C   0  0  0  0  0  0  0  0  0  0  0  0
  183.1960  176.8640  139.4260 C   0  0  0  0  0  3  0  0  0  0  0  0
  181.9820  173.7580  137.7880 N   0  0  0  0  0  0  0  0  0  0  0  0
  183.6740  175.3840  137.5960 C   0  0  0  0  0  0  0  0  0  0  0  0
  183.1230  174.1710  136.9520 C   0  0  1  0  0  3  0  0  0  0  0  0
  188.2730  178.0870  138.7190 C   0  0  0  0  0  0  0  0  0  0  0  0
  181.8280  174.7560  138.8630 C   0  0  0  0  0  2  0  0  0  0  0  0
  186.1190  178.2520  137.3810 C   0  0  0  0  0  2  0  0  0  0  0  0
  184.2810  177.6820  139.0520 C   0  0  0  0  0  0  0  0  0  0  0  0
  188.1270  179.2680  139.1420 O   0  0  0  0  0  0  0  0  0  0  0  0
  187.8870  178.9790  142.4690 C   0  0  2  0  0  3  0  0  0  0  0  0
  186.6300  179.2130  143.3190 C   0  0  0  0  0  2  0  0  0  0  0  0
  189.0070  176.7520  141.5710 C   0  0  2  0  0  3  0  0  0  0  0  0
  189.6780  177.5340  140.6110 O   0  0  0  0  0  0  0  0  0  0  0  0
  185.8850  177.8630  143.2210 C   0  0  2  0  0  3  0  0  0  0  0  0
  186.6070  177.4090  141.0820 C   0  0  0  0  0  2  0  0  0  0  0  0
  184.7260  176.1940  137.1630 C   0  0  0  0  0  3  0  0  0  0  0  0
  187.0470  176.9080  143.2910 C   0  0  0  0  0  2  0  0  0  0  0  0
  187.7410  177.4910  142.0910 C   0  0  2  0  0  0  0  0  0  0  0  0
  192.0790  175.4300  143.1660 C   0  0  0  0  0  2  0  0  0  0  0  0
  191.9490  177.7030  142.5270 O   0  0  0  0  0  1  0  0  0  0  0  0
  189.9780  176.3790  142.7030 C   0  0  1  0  0  3  0  0  0  0  0  0
  190.9320  174.6060  143.7100 C   0  0  2  0  0  3  0  0  0  0  0  0
  189.7160  175.0850  143.1860 O   0  0  0  0  0  0  0  0  0  0  0  0
  191.4230  176.4320  142.2720 C   0  0  2  0  0  3  0  0  0  0  0  0
  190.9140  174.6810  145.2010 C   0  0  0  0  0  3  0  0  0  0  0  0
  192.0500  174.8130  145.8890 C   0  0  0  0  0  3  0  0  0  0  0  0
  193.1750  175.5270  147.8500 O   0  0  0  0  0  1  0  0  0  0  0  0
  192.0270  174.8830  147.3790 C   0  0  0  0  0  2  0  0  0  0  0  0
  183.1350  178.8370  143.3930 N   0  0  0  0  0  1  0  0  0  0  0  0
  182.2800  179.1640  141.2620 O   0  0  0  0  0  0  0  0  0  0  0  0
  183.2910  178.9550  141.9830 C   0  0  0  0  0  0  0  0  0  0  0  0
  189.4560  178.6060  144.4500 N   0  0  0  0  0  2  0  0  0  0  0  0
  189.9220  180.1790  142.7840 O   0  0  0  0  0  0  0  0  0  0  0  0
  189.1400  179.3030  143.2380 C   0  0  0  0  0  0  0  0  0  0  0  0
  190.7070  178.7380  145.1890 C   0  0  2  0  0  3  0  0  0  0  0  0
  191.6200  177.6300  147.4690 O   0  0  0  0  0  0  0  0  0  0  0  0
  190.4050  178.3100  146.9000 S   0  0  0  0  0  0  0  0  0  0  0  0
  190.1260  179.5770  147.6710 O   0  0  0  0  0  0  0  0  0  0  0  0
  189.0430  177.2390  146.9960 N   0  0  0  0  0  2  0  0  0  0  0  0
  187.8880  178.0270  147.3950 C   0  0  0  0  0  2  0  0  0  0  0  0
  186.6310  177.4180  146.8000 C   0  0  0  0  0  1  0  0  0  0  0  0
  192.5560  180.1810  144.6950 O   0  0  0  0  0  1  0  0  0  0  0  0
  191.2260  180.1720  145.1120 C   0  0  0  0  0  2  0  0  0  0  0  0
  188.2640  177.6550  136.3200 O   0  0  0  0  0  0  0  0  0  0  0  0
  187.4820  178.2210  135.3010 C   0  0  0  0  0  1  0  0  0  0  0  0
  184.1170  173.1060  136.9350 N   0  0  0  0  0  2  0  0  0  0  0  0
  182.9360  172.6010  134.6280 O   0  0  0  0  0  0  0  0  0  0  0  0
  183.6740  171.9200  135.7470 S   0  0  0  0  0  0  0  0  0  0  0  0
  182.7940  170.8600  136.3540 O   0  0  0  0  0  0  0  0  0  0  0  0
  185.1170  171.1720  135.1450 N   0  0  0  0  0  2  0  0  0  0  0  0
  186.2590  171.8620  135.7240 C   0  0  0  0  0  2  0  0  0  0  0  0
  186.7180  172.9880  134.8060 C   0  0  0  0  0  2  0  0  0  0  0  0
  188.6780  174.5480  134.8370 C   0  0  0  0  0  2  0  0  0  0  0  0
  190.1600  174.6280  135.0910 C   0  0  0  0  0  3  0  0  0  0  0  0
  188.1610  173.1760  134.8750 N   0  0  0  0  0  0  0  0  0  0  0  0
  189.0330  172.0350  134.9020 C   0  0  0  0  0  3  0  0  0  0  0  0
  190.9270  173.5390  135.1560 C   0  0  0  0  0  3  0  0  0  0  0  0
  190.3500  172.1940  135.0250 C   0  0  0  0  0  3  0  0  0  0  0  0
  180.7880  173.8280  136.9590 C   0  0  0  0  0  2  0  0  0  0  0  0
  179.1070  172.1060  136.6080 N   0  0  0  0  0  1  0  0  0  0  0  0
  179.6760  173.0160  137.5920 C   0  0  0  0  0  2  0  0  0  0  0  0
  1  6  1  0  0  0  0
  2 51  1  6  0  0  0
  2 12  1  0  0  0  0
  3 22  1  6  0  0  0
  3 21  1  0  0  0  0
  4 20  1  0  0  0  0
  5 13  1  0  0  0  0
  5  8  1  0  0  0  0
  6  3  1  0  0  0  0
  6 38  1  1  0  0  0
  7 15  1  0  0  0  0
  9 13  1  0  0  0  0
 10  5  2  0  0  0  0
 11 53  1  1  0  0  0
 11 10  1  0  0  0  0
 11  9  1  0  0  0  0
 12 16  2  0  0  0  0
 12  4  1  0  0  0  0
 14  2  1  0  0  0  0
 14  7  1  0  0  0  0
 15  8  2  0  0  0  0
 15  1  1  0  0  0  0
 17 41  1  1  0  0  0
 17 18  1  0  0  0  0
 19 20  1  6  0  0  0
 19 25  1  0  0  0  0
 19 28  1  0  0  0  0
 21 24  1  6  0  0  0
 21 18  1  0  0  0  0
 23 10  1  0  0  0  0
 23  7  2  0  0  0  0
 25 22  1  6  0  0  0
 25 17  1  0  0  0  0
 25 24  1  0  0  0  0
 26 29  1  0  0  0  0
 28 30  1  6  0  0  0
 29 32  1  1  0  0  0
 30 29  1  0  0  0  0
 31 27  1  1  0  0  0
 31 28  1  0  0  0  0
 31 26  1  0  0  0  0
 32 33  2  0  0  0  0
 33 35  1  0  0  0  0
 35 34  1  0  0  0  0
 37 38  2  0  0  0  0
 38 36  1  0  0  0  0
 39 42  1  0  0  0  0
 40 41  2  0  0  0  0
 41 39  1  0  0  0  0
 42 50  1  1  0  0  0
 42 44  1  0  0  0  0
 44 46  1  0  0  0  0
 44 43  2  0  0  0  0
 44 45  2  0  0  0  0
 46 47  1  0  0  0  0
 48 47  1  0  0  0  0
 49 50  1  0  0  0  0
 52 51  1  0  0  0  0
 54 55  2  0  0  0  0
 55 56  2  0  0  0  0
 55 53  1  0  0  0  0
 57 58  1  0  0  0  0
 57 55  1  0  0  0  0
 59 62  1  0  0  0  0
 59 58  1  0  0  0  0
 60 62  1  0  0  0  0
 60 61  1  0  0  0  0
 61 64  2  0  0  0  0
 62 63  1  0  0  0  0
 63 65  2  0  0  0  0
 65 64  1  0  0  0  0
 66 68  1  0  0  0  0
 66  9  1  0  0  0  0
 67 68  1  0  0  0  0
M  END
>  <MODEL>
3

>  <REMARK>
 VINA RESULT:       0.7      3.320     11.127
  Name = 
  19 active torsions:
  status: ('A' for Active; 'I' for Inactive)
    1  A    between atoms: N_1  and  C_51
    2  A    between atoms: C_2  and  C_21
    3  A    between atoms: C_3  and  C_37
    4  A    between atoms: C_9  and  O_40
    5  A    between atoms: C_16  and  C_44
    6  A    between atoms: C_20  and  C_57
    7  A    between atoms: C_22  and  N_54
    8  A    between atoms: N_23  and  C_24
    9  A    between atoms: N_23  and  S_50
   10  A    between atoms: C_24  and  C_31
   11  A    between atoms: C_26  and  C_45
   12  A    between atoms: N_27  and  C_45
   13  A    between atoms: C_30  and  N_33
   14  A    between atoms: C_31  and  N_34
   15  A    between atoms: C_32  and  C_51
   16  A    between atoms: N_33  and  S_50
   17  A    between atoms: C_51  and  S_65
   18  A    between atoms: C_52  and  C_63
   19  A    between atoms: N_54  and  S_65
                            x       y       z     vdW  Elec       q    Type
                         _______ _______ _______ _____ _____    ______ ____

>  <TORSDO>
F 19

$$$$
=
 OpenBabel11062412393D

 68 74  0  0  1  0  0  0  0  0999 V2000
  188.7320  179.2360  139.5190 C   0  0  0  0  0  2  0  0  0  0  0  0
  187.0780  178.8620  135.9230 C   0  0  1  0  0  3  0  0  0  0  0  0
  189.4170  176.7730  139.5960 N   0  0  2  0  0  0  0  0  0  0  0  0
  188.5010  176.8930  135.1780 N   0  0  0  0  0  2  0  0  0  0  0  0
  185.2920  178.0740  140.6270 C   0  0  0  0  0  0  0  0  0  0  0  0
  189.6990  178.1530  140.0500 C   0  0  2  0  0  3  0  0  0  0  0  0
  186.4770  179.1370  138.3460 C   0  0  0  0  0  0  0  0  0  0  0  0
  186.6560  178.3550  140.6550 C   0  0  0  0  0  3  0  0  0  0  0  0
  183.0790  177.4950  141.1790 N   0  0  0  0  0  0  0  0  0  0  0  0
  184.5410  178.3040  139.5180 C   0  0  0  0  0  0  0  0  0  0  0  0
  183.1200  177.9930  139.7920 C   0  0  1  0  0  3  0  0  0  0  0  0
  188.4220  178.2250  135.6910 C   0  0  0  0  0  0  0  0  0  0  0  0
  184.4460  177.5810  141.7270 C   0  0  0  0  0  2  0  0  0  0  0  0
  187.0520  179.8060  137.1350 C   0  0  0  0  0  2  0  0  0  0  0  0
  187.2700  178.8690  139.4950 C   0  0  0  0  0  0  0  0  0  0  0  0
  189.4810  178.8520  135.9700 O   0  0  0  0  0  0  0  0  0  0  0  0
  191.4370  176.6150  137.5140 C   0  0  2  0  0  3  0  0  0  0  0  0
  191.8210  176.6090  139.0000 C   0  0  0  0  0  2  0  0  0  0  0  0
  189.6020  175.2540  136.1730 C   0  0  2  0  0  3  0  0  0  0  0  0
  189.6870  176.2300  135.1610 O   0  0  0  0  0  0  0  0  0  0  0  0
  190.6170  175.9120  139.6720 C   0  0  2  0  0  3  0  0  0  0  0  0
  189.0730  176.7250  138.1690 C   0  0  0  0  0  2  0  0  0  0  0  0
  185.1010  178.8580  138.3660 C   0  0  0  0  0  3  0  0  0  0  0  0
  190.3210  174.8450  138.6510 C   0  0  0  0  0  2  0  0  0  0  0  0
  190.1140  175.8230  137.5270 C   0  0  2  0  0  0  0  0  0  0  0  0
  190.5320  171.6690  136.0580 C   0  0  0  0  0  2  0  0  0  0  0  0
  188.8830  172.5220  134.5940 O   0  0  0  0  0  1  0  0  0  0  0  0
  190.3650  173.9930  135.7370 C   0  0  1  0  0  3  0  0  0  0  0  0
  191.7690  172.4130  136.5120 C   0  0  2  0  0  3  0  0  0  0  0  0
  191.5090  173.7960  136.5310 O   0  0  0  0  0  0  0  0  0  0  0  0
  189.5220  172.7440  135.8180 C   0  0  2  0  0  3  0  0  0  0  0  0
  192.9070  172.1170  135.5910 C   0  0  0  0  0  3  0  0  0  0  0  0
  193.9980  171.4920  136.0360 C   0  0  0  0  0  3  0  0  0  0  0  0
  196.2960  170.9410  135.8440 O   0  0  0  0  0  1  0  0  0  0  0  0
  195.1340  171.2030  135.1130 C   0  0  0  0  0  2  0  0  0  0  0  0
  191.0610  178.6260  142.1440 N   0  0  0  0  0  1  0  0  0  0  0  0
  188.8540  177.9260  142.2710 O   0  0  0  0  0  0  0  0  0  0  0  0
  189.8360  178.2230  141.5410 C   0  0  0  0  0  0  0  0  0  0  0  0
  193.7130  175.4840  137.2590 N   0  0  0  0  0  2  0  0  0  0  0  0
  192.3430  175.9320  135.4190 O   0  0  0  0  0  0  0  0  0  0  0  0
  192.5180  176.0050  136.6630 C   0  0  0  0  0  0  0  0  0  0  0  0
  194.7490  174.7450  136.5460 C   0  0  2  0  0  3  0  0  0  0  0  0
  195.2660  172.7240  138.2520 O   0  0  0  0  0  0  0  0  0  0  0  0
  195.8540  174.0140  137.7480 S   0  0  0  0  0  0  0  0  0  0  0  0
  197.1790  173.7390  137.0800 O   0  0  0  0  0  0  0  0  0  0  0  0
  196.0700  175.1090  139.0780 N   0  0  0  0  0  2  0  0  0  0  0  0
  197.1450  174.5900  139.9080 C   0  0  0  0  0  2  0  0  0  0  0  0
  198.4520  175.2600  139.5210 C   0  0  0  0  0  1  0  0  0  0  0  0
  196.3370  174.9370  134.7620 O   0  0  0  0  0  1  0  0  0  0  0  0
  195.5420  175.6780  135.6350 C   0  0  0  0  0  2  0  0  0  0  0  0
  186.5180  179.4290  134.7560 O   0  0  0  0  0  0  0  0  0  0  0  0
  185.2040  178.9600  134.6020 C   0  0  0  0  0  1  0  0  0  0  0  0
  182.6430  176.9500  138.8930 N   0  0  0  0  0  2  0  0  0  0  0  0
  180.9300  176.0490  140.6900 O   0  0  0  0  0  0  0  0  0  0  0  0
  180.9950  176.5630  139.2780 S   0  0  0  0  0  0  0  0  0  0  0  0
  180.4600  175.5150  138.3390 O   0  0  0  0  0  0  0  0  0  0  0  0
  180.0370  177.9990  139.1180 N   0  0  0  0  0  2  0  0  0  0  0  0
  180.6500  178.8390  138.1000 C   0  0  0  0  0  2  0  0  0  0  0  0
  180.5770  180.3050  138.5100 C   0  0  0  0  0  2  0  0  0  0  0  0
  180.7360  182.6130  137.5480 C   0  0  0  0  0  2  0  0  0  0  0  0
  180.8020  183.3860  136.2570 C   0  0  0  0  0  3  0  0  0  0  0  0
  180.4980  181.1790  137.3480 N   0  0  0  0  0  0  0  0  0  0  0  0
  180.1210  180.6420  136.0700 C   0  0  0  0  0  3  0  0  0  0  0  0
  180.4880  182.8350  135.0840 C   0  0  0  0  0  3  0  0  0  0  0  0
  180.1020  181.4200  134.9890 C   0  0  0  0  0  3  0  0  0  0  0  0
  182.2480  178.4100  141.9450 C   0  0  0  0  0  2  0  0  0  0  0  0
  183.0310  179.5110  143.9680 N   0  0  0  0  0  1  0  0  0  0  0  0
  182.5390  178.2530  143.4240 C   0  0  0  0  0  2  0  0  0  0  0  0
  1  6  1  0  0  0  0
  2 51  1  6  0  0  0
  2 14  1  0  0  0  0
  3 22  1  6  0  0  0
  3 21  1  0  0  0  0
  3  6  1  0  0  0  0
  4 12  1  0  0  0  0
  5  8  1  0  0  0  0
  5 13  1  0  0  0  0
  6 38  1  1  0  0  0
  7 23  2  0  0  0  0
  7 15  1  0  0  0  0
  9 13  1  0  0  0  0
  9 66  1  0  0  0  0
 10 11  1  0  0  0  0
 10  5  2  0  0  0  0
 11 53  1  6  0  0  0
 11  9  1  0  0  0  0
 12  2  1  0  0  0  0
 12 16  2  0  0  0  0
 14  7  1  0  0  0  0
 15  1  1  0  0  0  0
 15  8  2  0  0  0  0
 17 41  1  6  0  0  0
 17 25  1  0  0  0  0
 17 18  1  0  0  0  0
 18 21  1  0  0  0  0
 19 20  1  6  0  0  0
 19 25  1  0  0  0  0
 20  4  1  0  0  0  0
 21 24  1  6  0  0  0
 23 10  1  0  0  0  0
 25 22  1  1  0  0  0
 25 24  1  0  0  0  0
 26 29  1  0  0  0  0
 28 31  1  0  0  0  0
 28 19  1  0  0  0  0
 28 30  1  1  0  0  0
 29 32  1  6  0  0  0
 29 30  1  0  0  0  0
 31 27  1  6  0  0  0
 31 26  1  0  0  0  0
 32 33  2  0  0  0  0
 35 34  1  0  0  0  0
 35 33  1  0  0  0  0
 38 36  1  0  0  0  0
 38 37  2  0  0  0  0
 40 41  2  0  0  0  0
 41 39  1  0  0  0  0
 42 50  1  6  0  0  0
 42 39  1  0  0  0  0
 42 44  1  0  0  0  0
 44 43  2  0  0  0  0
 44 46  1  0  0  0  0
 45 44  2  0  0  0  0
 46 47  1  0  0  0  0
 48 47  1  0  0  0  0
 49 50  1  0  0  0  0
 52 51  1  0  0  0  0
 53 55  1  0  0  0  0
 55 54  2  0  0  0  0
 56 55  2  0  0  0  0
 57 55  1  0  0  0  0
 58 59  1  0  0  0  0
 58 57  1  0  0  0  0
 61 60  1  0  0  0  0
 62 60  1  0  0  0  0
 62 59  1  0  0  0  0
 63 62  1  0  0  0  0
 64 61  2  0  0  0  0
 65 64  1  0  0  0  0
 65 63  2  0  0  0  0
 66 68  1  0  0  0  0
 68 67  1  0  0  0  0
M  END
>  <MODEL>
4

>  <REMARK>
 VINA RESULT:       0.9      4.591     11.160
  Name = 
  19 active torsions:
  status: ('A' for Active; 'I' for Inactive)
    1  A    between atoms: N_1  and  C_51
    2  A    between atoms: C_2  and  C_21
    3  A    between atoms: C_3  and  C_37
    4  A    between atoms: C_9  and  O_40
    5  A    between atoms: C_16  and  C_44
    6  A    between atoms: C_20  and  C_57
    7  A    between atoms: C_22  and  N_54
    8  A    between atoms: N_23  and  C_24
    9  A    between atoms: N_23  and  S_50
   10  A    between atoms: C_24  and  C_31
   11  A    between atoms: C_26  and  C_45
   12  A    between atoms: N_27  and  C_45
   13  A    between atoms: C_30  and  N_33
   14  A    between atoms: C_31  and  N_34
   15  A    between atoms: C_32  and  C_51
   16  A    between atoms: N_33  and  S_50
   17  A    between atoms: C_51  and  S_65
   18  A    between atoms: C_52  and  C_63
   19  A    between atoms: N_54  and  S_65
                            x       y       z     vdW  Elec       q    Type
                         _______ _______ _______ _____ _____    ______ ____

>  <TORSDO>
F 19

$$$$
=
 OpenBabel11062412393D

 68 74  0  0  1  0  0  0  0  0999 V2000
  189.4870  179.1280  140.2130 C   0  0  0  0  0  2  0  0  0  0  0  0
  187.2240  179.1910  136.9450 C   0  0  1  0  0  3  0  0  0  0  0  0
  189.9380  176.6190  140.0010 N   0  0  2  0  0  0  0  0  0  0  0  0
  188.3080  177.1820  135.8300 N   0  0  0  0  0  2  0  0  0  0  0  0
  186.1870  178.1630  141.8230 C   0  0  0  0  0  0  0  0  0  0  0  0
  190.4220  177.9290  140.4910 C   0  0  2  0  0  3  0  0  0  0  0  0
  187.0680  179.3130  139.4480 C   0  0  0  0  0  0  0  0  0  0  0  0
  187.5570  178.3280  141.6320 C   0  0  0  0  0  3  0  0  0  0  0  0
  184.0540  177.7230  142.7130 N   0  0  0  0  0  0  0  0  0  0  0  0
  185.2860  178.5450  140.8820 C   0  0  0  0  0  0  0  0  0  0  0  0
  183.9080  178.3300  141.3780 C   0  0  1  0  0  3  0  0  0  0  0  0
  188.4430  178.4690  136.4380 C   0  0  0  0  0  0  0  0  0  0  0  0
  185.4950  177.6520  143.0180 C   0  0  0  0  0  2  0  0  0  0  0  0
  187.4920  180.0300  138.2030 C   0  0  0  0  0  2  0  0  0  0  0  0
  188.0140  178.8850  140.4200 C   0  0  0  0  0  0  0  0  0  0  0  0
  189.5890  178.9810  136.5700 O   0  0  0  0  0  0  0  0  0  0  0  0
  191.5540  176.4710  137.5920 C   0  0  2  0  0  3  0  0  0  0  0  0
  192.1810  176.3100  138.9840 C   0  0  0  0  0  2  0  0  0  0  0  0
  189.4000  175.3810  136.5030 C   0  0  2  0  0  3  0  0  0  0  0  0
  189.4050  176.4280  135.5610 O   0  0  0  0  0  0  0  0  0  0  0  0
  191.0460  175.6590  139.8070 C   0  0  2  0  0  3  0  0  0  0  0  0
  189.3560  176.7190  138.6570 C   0  0  0  0  0  2  0  0  0  0  0  0
  185.6940  179.1460  139.6900 C   0  0  0  0  0  3  0  0  0  0  0  0
  190.4830  174.7100  138.7830 C   0  0  0  0  0  2  0  0  0  0  0  0
  190.1840  175.7910  137.7820 C   0  0  2  0  0  0  0  0  0  0  0  0
  189.7880  171.7570  135.8380 C   0  0  0  0  0  2  0  0  0  0  0  0
  188.2390  173.0390  134.5950 O   0  0  0  0  0  1  0  0  0  0  0  0
  189.9560  174.1020  135.8560 C   0  0  1  0  0  3  0  0  0  0  0  0
  191.1350  172.2440  136.3270 C   0  0  2  0  0  3  0  0  0  0  0  0
  191.0810  173.6320  136.5540 O   0  0  0  0  0  0  0  0  0  0  0  0
  188.9400  172.9870  135.8040 C   0  0  2  0  0  3  0  0  0  0  0  0
  192.1880  171.9280  135.3170 C   0  0  0  0  0  3  0  0  0  0  0  0
  193.2940  171.2720  135.6690 C   0  0  0  0  0  3  0  0  0  0  0  0
  195.0800  169.8400  135.0500 O   0  0  0  0  0  1  0  0  0  0  0  0
  194.3450  170.9630  134.6560 C   0  0  0  0  0  2  0  0  0  0  0  0
  190.1360  178.6460  142.9140 N   0  0  0  0  0  1  0  0  0  0  0  0
  191.7530  177.1040  142.2930 O   0  0  0  0  0  0  0  0  0  0  0  0
  190.8140  177.8630  141.9370 C   0  0  0  0  0  0  0  0  0  0  0  0
  193.7280  175.3640  136.8330 N   0  0  0  0  0  2  0  0  0  0  0  0
  191.9480  175.7290  135.3620 O   0  0  0  0  0  0  0  0  0  0  0  0
  192.4140  175.8470  136.5260 C   0  0  0  0  0  0  0  0  0  0  0  0
  194.5800  174.6160  135.9160 C   0  0  2  0  0  3  0  0  0  0  0  0
  197.0190  175.1510  136.9310 O   0  0  0  0  0  0  0  0  0  0  0  0
  196.0140  174.0370  136.8160 S   0  0  0  0  0  0  0  0  0  0  0  0
  195.5750  173.6060  138.1940 O   0  0  0  0  0  0  0  0  0  0  0  0
  196.7270  172.7000  135.9700 N   0  0  0  0  0  2  0  0  0  0  0  0
  197.8980  173.1970  135.2650 C   0  0  0  0  0  2  0  0  0  0  0  0
  199.1530  172.7790  136.0120 C   0  0  0  0  0  1  0  0  0  0  0  0
  195.0460  176.8410  135.1590 O   0  0  0  0  0  1  0  0  0  0  0  0
  195.0350  175.5050  134.7610 C   0  0  0  0  0  2  0  0  0  0  0  0
  186.5320  179.8980  135.9350 O   0  0  0  0  0  0  0  0  0  0  0  0
  186.6070  179.1740  134.7340 C   0  0  0  0  0  1  0  0  0  0  0  0
  183.1900  177.4080  140.5070 N   0  0  0  0  0  2  0  0  0  0  0  0
  181.6600  179.5530  140.3160 O   0  0  0  0  0  0  0  0  0  0  0  0
  181.6230  178.0590  140.1430 S   0  0  0  0  0  0  0  0  0  0  0  0
  180.5770  177.4760  141.0560 O   0  0  0  0  0  0  0  0  0  0  0  0
  181.2220  177.6560  138.5050 N   0  0  0  0  0  2  0  0  0  0  0  0
  179.9200  177.0080  138.5050 C   0  0  0  0  0  2  0  0  0  0  0  0
  179.9900  175.6800  137.7600 C   0  0  0  0  0  2  0  0  0  0  0  0
  180.8350  176.8280  135.6990 C   0  0  0  0  0  2  0  0  0  0  0  0
  181.9810  176.8810  134.7250 C   0  0  0  0  0  3  0  0  0  0  0  0
  180.9540  175.7330  136.6690 N   0  0  0  0  0  0  0  0  0  0  0  0
  181.9320  174.6920  136.5240 C   0  0  0  0  0  3  0  0  0  0  0  0
  182.8970  175.9140  134.6550 C   0  0  0  0  0  3  0  0  0  0  0  0
  182.8550  174.7600  135.5660 C   0  0  0  0  0  3  0  0  0  0  0  0
  183.4540  178.6370  143.6730 C   0  0  0  0  0  2  0  0  0  0  0  0
  184.5580  179.2690  145.7460 N   0  0  0  0  0  1  0  0  0  0  0  0
  183.8130  178.2090  145.0820 C   0  0  0  0  0  2  0  0  0  0  0  0
  1 15  1  0  0  0  0
  1  6  1  0  0  0  0
  2 51  1  6  0  0  0
  2 14  1  0  0  0  0
  3 22  1  6  0  0  0
  3  6  1  0  0  0  0
  4 12  1  0  0  0  0
  5 13  1  0  0  0  0
  6 38  1  1  0  0  0
  7 23  2  0  0  0  0
  7 15  1  0  0  0  0
  8  5  1  0  0  0  0
  9 13  1  0  0  0  0
  9 66  1  0  0  0  0
 10 11  1  0  0  0  0
 10  5  2  0  0  0  0
 11 53  1  6  0  0  0
 11  9  1  0  0  0  0
 12 16  2  0  0  0  0
 12  2  1  0  0  0  0
 14  7  1  0  0  0  0
 15  8  2  0  0  0  0
 17 41  1  6  0  0  0
 17 25  1  0  0  0  0
 17 18  1  0  0  0  0
 18 21  1  0  0  0  0
 19 20  1  6  0  0  0
 19 25  1  0  0  0  0
 20  4  1  0  0  0  0
 21 24  1  6  0  0  0
 21  3  1  0  0  0  0
 23 10  1  0  0  0  0
 25 22  1  1  0  0  0
 25 24  1  0  0  0  0
 26 29  1  0  0  0  0
 28 19  1  0  0  0  0
 28 30  1  1  0  0  0
 29 32  1  6  0  0  0
 29 30  1  0  0  0  0
 31 27  1  6  0  0  0
 31 26  1  0  0  0  0
 31 28  1  0  0  0  0
 32 33  2  0  0  0  0
 35 34  1  0  0  0  0
 35 33  1  0  0  0  0
 38 37  2  0  0  0  0
 38 36  1  0  0  0  0
 40 41  2  0  0  0  0
 41 39  1  0  0  0  0
 42 50  1  6  0  0  0
 42 44  1  0  0  0  0
 42 39  1  0  0  0  0
 44 43  2  0  0  0  0
 44 45  2  0  0  0  0
 46 44  1  0  0  0  0
 47 46  1  0  0  0  0
 47 48  1  0  0  0  0
 50 49  1  0  0  0  0
 52 51  1  0  0  0  0
 55 54  2  0  0  0  0
 55 53  1  0  0  0  0
 55 56  2  0  0  0  0
 57 55  1  0  0  0  0
 58 57  1  0  0  0  0
 59 58  1  0  0  0  0
 60 62  1  0  0  0  0
 61 60  1  0  0  0  0
 62 59  1  0  0  0  0
 63 62  1  0  0  0  0
 64 61  2  0  0  0  0
 64 65  1  0  0  0  0
 65 63  2  0  0  0  0
 66 68  1  0  0  0  0
 68 67  1  0  0  0  0
M  END
>  <MODEL>
5

>  <REMARK>
 VINA RESULT:       1.6      4.767     10.743
  Name = 
  19 active torsions:
  status: ('A' for Active; 'I' for Inactive)
    1  A    between atoms: N_1  and  C_51
    2  A    between atoms: C_2  and  C_21
    3  A    between atoms: C_3  and  C_37
    4  A    between atoms: C_9  and  O_40
    5  A    between atoms: C_16  and  C_44
    6  A    between atoms: C_20  and  C_57
    7  A    between atoms: C_22  and  N_54
    8  A    between atoms: N_23  and  C_24
    9  A    between atoms: N_23  and  S_50
   10  A    between atoms: C_24  and  C_31
   11  A    between atoms: C_26  and  C_45
   12  A    between atoms: N_27  and  C_45
   13  A    between atoms: C_30  and  N_33
   14  A    between atoms: C_31  and  N_34
   15  A    between atoms: C_32  and  C_51
   16  A    between atoms: N_33  and  S_50
   17  A    between atoms: C_51  and  S_65
   18  A    between atoms: C_52  and  C_63
   19  A    between atoms: N_54  and  S_65
                            x       y       z     vdW  Elec       q    Type
                         _______ _______ _______ _____ _____    ______ ____

>  <TORSDO>
F 19

$$$$
