=
 OpenBabel11062417403D

 39 43  0  0  1  0  0  0  0  0999 V2000
  190.9560  174.6770  137.6740 O   0  0  0  0  0  0  0  0  0  0  0  0
  186.4870  175.3840  135.7640 O   0  0  0  0  0  1  0  0  0  0  0  0
  190.0080  176.7950  137.5530 C   0  0  2  0  0  3  0  0  0  0  0  0
  189.7200  175.3370  137.6910 C   0  0  1  0  0  3  0  0  0  0  0  0
  191.8790  175.5860  138.2490 C   0  0  2  0  0  3  0  0  0  0  0  0
  188.8070  174.9270  136.5450 C   0  0  0  0  0  2  0  0  0  0  0  0
  187.5920  175.8330  136.4810 C   0  0  0  0  0  0  0  0  0  0  0  0
  187.5810  177.0640  137.0460 C   0  0  0  0  0  0  0  0  0  0  0  0
  191.2180  176.9590  138.4290 C   0  0  2  0  0  3  0  0  0  0  0  0
  188.7450  177.5910  137.8670 C   0  0  0  0  0  2  0  0  0  0  0  0
  191.7750  177.2750  140.8200 C   0  0  0  0  0  3  0  0  0  0  0  0
  190.8460  177.1820  139.8730 C   0  0  0  0  0  3  0  0  0  0  0  0
  191.4250  177.5210  142.2530 C   0  0  0  0  0  2  0  0  0  0  0  0
  189.9250  177.3860  142.5070 C   0  0  0  0  0  2  0  0  0  0  0  0
  189.6740  176.9050  143.8560 N   0  0  0  0  0  2  0  0  0  0  0  0
  190.3140  178.8960  144.8960 O   0  0  0  0  0  0  0  0  0  0  0  0
  189.8810  177.7160  145.0170 C   0  0  0  0  0  0  0  0  0  0  0  0
  189.5910  177.1480  146.3770 C   0  0  1  0  0  3  0  0  0  0  0  0
  190.8250  177.0930  147.2630 C   0  0  0  0  0  2  0  0  0  0  0  0
  191.7690  176.0200  146.7660 C   0  0  0  0  0  2  0  0  0  0  0  0
  192.7040  175.6150  147.8900 C   0  0  0  0  0  1  0  0  0  0  0  0
  188.4170  177.8560  147.0800 C   0  0  0  0  0  2  0  0  0  0  0  0
  187.0240  177.4140  146.6080 C   0  0  0  0  0  2  0  0  0  0  0  0
  186.3520  178.4700  145.7460 C   0  0  1  0  0  3  0  0  0  0  0  0
  184.8750  178.2090  145.6890 C   0  0  2  0  0  0  0  0  0  0  0  0
  184.2920  179.8410  143.8720 C   0  0  0  0  0  2  0  0  0  0  0  0
  183.7550  179.0590  145.0570 C   0  0  1  0  0  3  0  0  0  0  0  0
  184.7480  178.4210  144.1630 C   0  0  2  0  0  3  0  0  0  0  0  0
  185.4780  179.2100  146.5050 O   0  0  0  0  0  0  0  0  0  0  0  0
  193.6720  176.8210  137.2710 O   0  0  0  0  0  0  0  0  0  0  0  0
  193.0790  175.7160  137.3510 C   0  0  0  0  0  0  0  0  0  0  0  0
  193.5810  174.6310  136.6280 O   0  0  0  0  0  0  0  0  0  0  0  0
  194.9380  173.3100  138.0840 C   0  0  0  0  0  1  0  0  0  0  0  0
  194.8950  174.1270  136.8160 C   0  0  0  0  0  3  0  0  0  0  0  0
  195.2640  173.2330  135.6450 C   0  0  0  0  0  1  0  0  0  0  0  0
  186.3450  177.9080  136.9880 C   0  0  0  0  0  2  0  0  0  0  0  0
  186.2680  178.7520  138.1300 O   0  0  0  0  0  0  0  0  0  0  0  0
  185.1770  178.6790  138.9890 C   0  0  0  0  0  3  0  0  0  0  0  0
  185.0760  179.4890  139.9440 O   0  0  0  0  0  0  0  0  0  0  0  0
  1  4  1  0  0  0  0
  1  5  1  0  0  0  0
  2  7  1  0  0  0  0
  3  4  1  0  0  0  0
  3 10  1  1  0  0  0
  3  9  1  0  0  0  0
  4  6  1  6  0  0  0
  5 31  1  6  0  0  0
  5  9  1  0  0  0  0
  7  6  1  0  0  0  0
  7  8  2  0  0  0  0
  8 10  1  0  0  0  0
  9 12  1  1  0  0  0
 11 13  1  0  0  0  0
 12 11  2  0  0  0  0
 13 14  1  0  0  0  0
 14 15  1  0  0  0  0
 15 17  1  0  0  0  0
 16 17  2  0  0  0  0
 17 18  1  0  0  0  0
 18 22  1  1  0  0  0
 18 19  1  0  0  0  0
 20 19  1  0  0  0  0
 20 21  1  0  0  0  0
 23 22  1  0  0  0  0
 24 29  1  0  0  0  0
 24 23  1  1  0  0  0
 25 24  1  0  0  0  0
 25 29  1  6  0  0  0
 27 26  1  1  0  0  0
 27 25  1  0  0  0  0
 28 26  1  1  0  0  0
 28 27  1  0  0  0  0
 28 25  1  0  0  0  0
 30 31  2  0  0  0  0
 32 34  1  0  0  0  0
 32 31  1  0  0  0  0
 34 33  1  0  0  0  0
 35 34  1  0  0  0  0
 36  8  1  0  0  0  0
 36 37  1  0  0  0  0
 37 38  1  0  0  0  0
 38 39  2  0  0  0  0
M  END
>  <MODEL>
1

>  <REMARK>
 VINA RESULT:      -7.8      0.000      0.000
  Name = 
  16 active torsions:
  status: ('A' for Active; 'I' for Inactive)
    1  A    between atoms: N_1  and  C_22
    2  A    between atoms: C_2  and  C_8
    3  A    between atoms: C_3  and  C_7
    4  A    between atoms: C_3  and  C_31
    5  A    between atoms: C_4  and  C_8
    6  A    between atoms: C_4  and  C_28
    7  A    between atoms: C_4  and  C_31
    8  A    between atoms: C_16  and  C_34
    9  A    between atoms: O_17  and  C_25
   10  A    between atoms: O_17  and  C_32
   11  A    between atoms: C_18  and  C_23
   12  A    between atoms: C_18  and  O_26
   13  A    between atoms: C_19  and  O_26
   14  A    between atoms: C_21  and  C_36
   15  A    between atoms: C_22  and  C_34
   16  A    between atoms: C_25  and  C_33
                            x       y       z     vdW  Elec       q    Type
                         _______ _______ _______ _____ _____    ______ ____

>  <TORSDO>
F 16

$$$$
=
 OpenBabel11062417403D

 39 43  0  0  1  0  0  0  0  0999 V2000
  187.7120  178.6050  147.0000 O   0  0  0  0  0  0  0  0  0  0  0  0
  183.1560  179.2780  145.2940 O   0  0  0  0  0  1  0  0  0  0  0  0
  186.9580  177.5180  145.0900 C   0  0  2  0  0  3  0  0  0  0  0  0
  186.8310  178.7520  145.9210 C   0  0  1  0  0  3  0  0  0  0  0  0
  188.7860  177.8220  146.5090 C   0  0  2  0  0  3  0  0  0  0  0  0
  185.3770  178.8810  146.3500 C   0  0  0  0  0  2  0  0  0  0  0  0
  184.4560  178.8040  145.1470 C   0  0  0  0  0  0  0  0  0  0  0  0
  184.8470  178.2420  143.9770 C   0  0  0  0  0  0  0  0  0  0  0  0
  188.4400  177.2760  145.1170 C   0  0  2  0  0  3  0  0  0  0  0  0
  186.2610  177.7390  143.7500 C   0  0  0  0  0  2  0  0  0  0  0  0
  189.7840  177.4410  143.0450 C   0  0  0  0  0  3  0  0  0  0  0  0
  189.1620  178.0560  144.0480 C   0  0  0  0  0  3  0  0  0  0  0  0
  190.4840  178.2000  141.9620 C   0  0  0  0  0  2  0  0  0  0  0  0
  191.6380  177.4040  141.3580 C   0  0  0  0  0  2  0  0  0  0  0  0
  191.2870  176.9110  140.0370 N   0  0  0  0  0  2  0  0  0  0  0  0
  193.4610  177.0450  139.1940 O   0  0  0  0  0  0  0  0  0  0  0  0
  192.2510  176.7450  138.9920 C   0  0  0  0  0  0  0  0  0  0  0  0
  191.8090  176.2220  137.6550 C   0  0  1  0  0  3  0  0  0  0  0  0
  191.7910  174.7030  137.5970 C   0  0  0  0  0  2  0  0  0  0  0  0
  193.1790  174.1820  137.2960 C   0  0  0  0  0  2  0  0  0  0  0  0
  193.7060  174.8570  136.0440 C   0  0  0  0  0  1  0  0  0  0  0  0
  190.4690  176.8250  137.1930 C   0  0  0  0  0  2  0  0  0  0  0  0
  189.3810  175.7950  136.8570 C   0  0  0  0  0  2  0  0  0  0  0  0
  188.0060  176.2430  137.3250 C   0  0  1  0  0  3  0  0  0  0  0  0
  187.0100  176.0540  136.2190 C   0  0  2  0  0  0  0  0  0  0  0  0
  185.0890  177.3020  137.2490 C   0  0  0  0  0  2  0  0  0  0  0  0
  185.4800  176.2380  136.2390 C   0  0  1  0  0  3  0  0  0  0  0  0
  186.3370  177.4350  136.3910 C   0  0  2  0  0  3  0  0  0  0  0  0
  187.1410  175.1760  137.3340 O   0  0  0  0  0  0  0  0  0  0  0  0
  188.1850  176.3900  148.3210 O   0  0  0  0  0  0  0  0  0  0  0  0
  189.0450  176.6780  147.4520 C   0  0  0  0  0  0  0  0  0  0  0  0
  190.2010  175.8980  147.3650 O   0  0  0  0  0  0  0  0  0  0  0  0
  192.4830  175.8120  148.0660 C   0  0  0  0  0  1  0  0  0  0  0  0
  191.4860  176.4570  147.1350 C   0  0  0  0  0  3  0  0  0  0  0  0
  191.9050  176.1800  145.7010 C   0  0  0  0  0  1  0  0  0  0  0  0
  183.9150  178.2200  142.8050 C   0  0  0  0  0  2  0  0  0  0  0  0
  184.6450  178.3320  141.5890 O   0  0  0  0  0  0  0  0  0  0  0  0
  184.1160  179.0310  140.5100 C   0  0  0  0  0  3  0  0  0  0  0  0
  184.8660  179.7350  139.7910 O   0  0  0  0  0  0  0  0  0  0  0  0
  3 10  1  6  0  0  0
  3  9  1  0  0  0  0
  3  4  1  0  0  0  0
  4  6  1  1  0  0  0
  4  1  1  0  0  0  0
  5  1  1  0  0  0  0
  5 31  1  1  0  0  0
  7  2  1  0  0  0  0
  7  6  1  0  0  0  0
  8  7  2  0  0  0  0
  9 12  1  6  0  0  0
  9  5  1  0  0  0  0
 10  8  1  0  0  0  0
 11 12  2  0  0  0  0
 13 11  1  0  0  0  0
 14 13  1  0  0  0  0
 15 14  1  0  0  0  0
 17 16  2  0  0  0  0
 17 15  1  0  0  0  0
 18 22  1  1  0  0  0
 18 17  1  0  0  0  0
 19 18  1  0  0  0  0
 20 19  1  0  0  0  0
 21 20  1  0  0  0  0
 23 22  1  0  0  0  0
 24 23  1  6  0  0  0
 24 29  1  0  0  0  0
 25 27  1  0  0  0  0
 25 28  1  0  0  0  0
 25 24  1  0  0  0  0
 25 29  1  1  0  0  0
 27 28  1  0  0  0  0
 27 26  1  1  0  0  0
 28 26  1  1  0  0  0
 31 30  2  0  0  0  0
 32 31  1  0  0  0  0
 34 32  1  0  0  0  0
 34 33  1  0  0  0  0
 35 34  1  0  0  0  0
 36  8  1  0  0  0  0
 37 36  1  0  0  0  0
 38 37  1  0  0  0  0
 39 38  2  0  0  0  0
M  END
>  <MODEL>
2

>  <REMARK>
 VINA RESULT:      -7.4      1.725      8.624
  Name = 
  16 active torsions:
  status: ('A' for Active; 'I' for Inactive)
    1  A    between atoms: N_1  and  C_22
    2  A    between atoms: C_2  and  C_8
    3  A    between atoms: C_3  and  C_7
    4  A    between atoms: C_3  and  C_31
    5  A    between atoms: C_4  and  C_8
    6  A    between atoms: C_4  and  C_28
    7  A    between atoms: C_4  and  C_31
    8  A    between atoms: C_16  and  C_34
    9  A    between atoms: O_17  and  C_25
   10  A    between atoms: O_17  and  C_32
   11  A    between atoms: C_18  and  C_23
   12  A    between atoms: C_18  and  O_26
   13  A    between atoms: C_19  and  O_26
   14  A    between atoms: C_21  and  C_36
   15  A    between atoms: C_22  and  C_34
   16  A    between atoms: C_25  and  C_33
                            x       y       z     vdW  Elec       q    Type
                         _______ _______ _______ _____ _____    ______ ____

>  <TORSDO>
F 16

$$$$
=
 OpenBabel11062417403D

 39 43  0  0  1  0  0  0  0  0999 V2000
  189.2720  176.2410  143.3580 O   0  0  0  0  0  0  0  0  0  0  0  0
  191.1620  176.7330  138.8520 O   0  0  0  0  0  1  0  0  0  0  0  0
  188.7830  178.0840  142.0300 C   0  0  2  0  0  3  0  0  0  0  0  0
  189.1320  176.6330  142.0200 C   0  0  1  0  0  3  0  0  0  0  0  0
  188.3780  177.0620  144.0890 C   0  0  2  0  0  3  0  0  0  0  0  0
  190.4080  176.4620  141.2100 C   0  0  0  0  0  2  0  0  0  0  0  0
  190.2660  177.1120  139.8460 C   0  0  0  0  0  0  0  0  0  0  0  0
  189.3430  178.0730  139.6000 C   0  0  0  0  0  0  0  0  0  0  0  0
  187.8190  178.1650  143.1800 C   0  0  2  0  0  3  0  0  0  0  0  0
  188.3200  178.5010  140.6370 C   0  0  0  0  0  2  0  0  0  0  0  0
  185.4640  178.7790  142.7260 C   0  0  0  0  0  3  0  0  0  0  0  0
  186.4080  177.8410  142.7600 C   0  0  0  0  0  3  0  0  0  0  0  0
  184.0650  178.4800  142.2890 C   0  0  0  0  0  2  0  0  0  0  0  0
  184.0160  177.9210  140.8690 C   0  0  0  0  0  2  0  0  0  0  0  0
  182.8510  178.4240  140.1590 N   0  0  0  0  0  2  0  0  0  0  0  0
  183.9940  180.1780  139.1240 O   0  0  0  0  0  0  0  0  0  0  0  0
  182.9060  179.5590  139.2890 C   0  0  0  0  0  0  0  0  0  0  0  0
  181.6580  180.0120  138.5850 C   0  0  1  0  0  3  0  0  0  0  0  0
  181.5640  179.4820  137.1640 C   0  0  0  0  0  2  0  0  0  0  0  0
  180.4550  180.1950  136.4210 C   0  0  0  0  0  2  0  0  0  0  0  0
  180.7560  181.6800  136.3760 C   0  0  0  0  0  1  0  0  0  0  0  0
  180.3790  179.7140  139.3900 C   0  0  0  0  0  2  0  0  0  0  0  0
  180.0500  180.7440  140.4810 C   0  0  0  0  0  2  0  0  0  0  0  0
  179.5650  180.0840  141.7610 C   0  0  1  0  0  3  0  0  0  0  0  0
  180.7430  179.6670  142.5920 C   0  0  2  0  0  0  0  0  0  0  0  0
  179.5140  178.2810  144.2870 C   0  0  0  0  0  2  0  0  0  0  0  0
  180.7770  179.0790  144.0160 C   0  0  1  0  0  3  0  0  0  0  0  0
  180.1940  178.2620  142.9290 C   0  0  2  0  0  3  0  0  0  0  0  0
  179.9560  180.8260  142.8500 O   0  0  0  0  0  0  0  0  0  0  0  0
  190.3590  177.6390  145.2880 O   0  0  0  0  0  0  0  0  0  0  0  0
  189.1040  177.6830  145.2510 C   0  0  0  0  0  0  0  0  0  0  0  0
  188.4250  178.3450  146.2770 O   0  0  0  0  0  0  0  0  0  0  0  0
  187.8850  177.7260  148.5200 C   0  0  0  0  0  1  0  0  0  0  0  0
  187.4400  177.7090  147.0780 C   0  0  0  0  0  3  0  0  0  0  0  0
  186.1290  178.4680  146.9610 C   0  0  0  0  0  1  0  0  0  0  0  0
  189.2160  178.6600  138.2280 C   0  0  0  0  0  2  0  0  0  0  0  0
  187.8540  178.9390  137.9320 O   0  0  0  0  0  0  0  0  0  0  0  0
  187.3180  178.6070  136.6930 C   0  0  0  0  0  3  0  0  0  0  0  0
  187.8730  177.7300  135.9850 O   0  0  0  0  0  0  0  0  0  0  0  0
  1  5  1  0  0  0  0
  2  7  1  0  0  0  0
  3 10  1  6  0  0  0
  3  9  1  0  0  0  0
  4  6  1  6  0  0  0
  4  3  1  0  0  0  0
  4  1  1  0  0  0  0
  5 31  1  1  0  0  0
  7  6  1  0  0  0  0
  8  7  2  0  0  0  0
  8 10  1  0  0  0  0
  9 12  1  6  0  0  0
  9  5  1  0  0  0  0
 11 12  2  0  0  0  0
 13 11  1  0  0  0  0
 14 13  1  0  0  0  0
 15 14  1  0  0  0  0
 16 17  2  0  0  0  0
 17 15  1  0  0  0  0
 18 19  1  6  0  0  0
 18 17  1  0  0  0  0
 18 22  1  0  0  0  0
 20 19  1  0  0  0  0
 21 20  1  0  0  0  0
 22 23  1  0  0  0  0
 24 23  1  6  0  0  0
 24 25  1  0  0  0  0
 24 29  1  0  0  0  0
 25 29  1  1  0  0  0
 25 28  1  0  0  0  0
 25 27  1  0  0  0  0
 27 26  1  1  0  0  0
 28 27  1  0  0  0  0
 28 26  1  1  0  0  0
 31 30  2  0  0  0  0
 31 32  1  0  0  0  0
 32 34  1  0  0  0  0
 34 33  1  0  0  0  0
 35 34  1  0  0  0  0
 36  8  1  0  0  0  0
 37 36  1  0  0  0  0
 38 37  1  0  0  0  0
 39 38  2  0  0  0  0
M  END
>  <MODEL>
3

>  <REMARK>
 VINA RESULT:      -7.4      3.331      8.620
  Name = 
  16 active torsions:
  status: ('A' for Active; 'I' for Inactive)
    1  A    between atoms: N_1  and  C_22
    2  A    between atoms: C_2  and  C_8
    3  A    between atoms: C_3  and  C_7
    4  A    between atoms: C_3  and  C_31
    5  A    between atoms: C_4  and  C_8
    6  A    between atoms: C_4  and  C_28
    7  A    between atoms: C_4  and  C_31
    8  A    between atoms: C_16  and  C_34
    9  A    between atoms: O_17  and  C_25
   10  A    between atoms: O_17  and  C_32
   11  A    between atoms: C_18  and  C_23
   12  A    between atoms: C_18  and  O_26
   13  A    between atoms: C_19  and  O_26
   14  A    between atoms: C_21  and  C_36
   15  A    between atoms: C_22  and  C_34
   16  A    between atoms: C_25  and  C_33
                            x       y       z     vdW  Elec       q    Type
                         _______ _______ _______ _____ _____    ______ ____

>  <TORSDO>
F 16

$$$$
=
 OpenBabel11062417403D

 39 43  0  0  1  0  0  0  0  0999 V2000
  189.5090  176.1030  143.5450 O   0  0  0  0  0  0  0  0  0  0  0  0
  191.0760  176.8120  138.9440 O   0  0  0  0  0  1  0  0  0  0  0  0
  188.9250  178.0030  142.3410 C   0  0  2  0  0  3  0  0  0  0  0  0
  189.2740  176.5560  142.2400 C   0  0  1  0  0  3  0  0  0  0  0  0
  188.6680  176.8850  144.3740 C   0  0  2  0  0  3  0  0  0  0  0  0
  190.4910  176.4280  141.3340 C   0  0  0  0  0  2  0  0  0  0  0  0
  190.2520  177.1400  140.0160 C   0  0  0  0  0  0  0  0  0  0  0  0
  189.3120  178.1070  139.8800 C   0  0  0  0  0  0  0  0  0  0  0  0
  188.0450  178.0260  143.5590 C   0  0  2  0  0  3  0  0  0  0  0  0
  188.3640  178.4820  141.0060 C   0  0  0  0  0  2  0  0  0  0  0  0
  185.6570  178.6400  143.3350 C   0  0  0  0  0  3  0  0  0  0  0  0
  186.6080  177.7160  143.2260 C   0  0  0  0  0  3  0  0  0  0  0  0
  184.2310  178.3560  142.9860 C   0  0  0  0  0  2  0  0  0  0  0  0
  184.0830  177.8470  141.5540 C   0  0  0  0  0  2  0  0  0  0  0  0
  182.8170  178.2770  140.9830 N   0  0  0  0  0  2  0  0  0  0  0  0
  183.7890  179.5160  139.2590 O   0  0  0  0  0  0  0  0  0  0  0  0
  182.7350  179.1110  139.8230 C   0  0  0  0  0  0  0  0  0  0  0  0
  181.3870  179.5060  139.2900 C   0  0  1  0  0  3  0  0  0  0  0  0
  180.2430  178.9220  140.1020 C   0  0  0  0  0  2  0  0  0  0  0  0
  179.7410  177.6540  139.4480 C   0  0  0  0  0  2  0  0  0  0  0  0
  179.3000  176.6770  140.5220 C   0  0  0  0  0  1  0  0  0  0  0  0
  181.2400  181.0290  139.1140 C   0  0  0  0  0  2  0  0  0  0  0  0
  181.1500  181.5030  137.6550 C   0  0  0  0  0  2  0  0  0  0  0  0
  180.3500  182.7880  137.5210 C   0  0  1  0  0  3  0  0  0  0  0  0
  180.7450  183.4990  136.2600 C   0  0  2  0  0  0  0  0  0  0  0  0
  179.5650  185.6740  136.6890 C   0  0  0  0  0  2  0  0  0  0  0  0
  180.1390  184.7630  135.6190 C   0  0  1  0  0  3  0  0  0  0  0  0
  180.8530  184.8980  136.9080 C   0  0  2  0  0  3  0  0  0  0  0  0
  179.5530  182.7320  136.4040 O   0  0  0  0  0  0  0  0  0  0  0  0
  190.7210  177.3000  145.5200 O   0  0  0  0  0  0  0  0  0  0  0  0
  189.4740  177.4560  145.5100 C   0  0  0  0  0  0  0  0  0  0  0  0
  188.8810  178.1900  146.5400 O   0  0  0  0  0  0  0  0  0  0  0  0
  188.1650  177.9390  148.8050 C   0  0  0  0  0  1  0  0  0  0  0  0
  187.8450  177.6640  147.3560 C   0  0  0  0  0  3  0  0  0  0  0  0
  186.5330  178.3470  147.0070 C   0  0  0  0  0  1  0  0  0  0  0  0
  189.0870  178.7560  138.5500 C   0  0  0  0  0  2  0  0  0  0  0  0
  187.7000  178.7880  138.2420 O   0  0  0  0  0  0  0  0  0  0  0  0
  187.1070  177.7420  137.5450 C   0  0  0  0  0  3  0  0  0  0  0  0
  185.8770  177.7740  137.2930 O   0  0  0  0  0  0  0  0  0  0  0  0
  1  5  1  0  0  0  0
  2  7  1  0  0  0  0
  3 10  1  6  0  0  0
  3  9  1  0  0  0  0
  4  6  1  6  0  0  0
  4  3  1  0  0  0  0
  4  1  1  0  0  0  0
  5 31  1  1  0  0  0
  7  6  1  0  0  0  0
  8  7  2  0  0  0  0
  8 10  1  0  0  0  0
  9 12  1  6  0  0  0
  9  5  1  0  0  0  0
 12 11  2  0  0  0  0
 13 11  1  0  0  0  0
 14 13  1  0  0  0  0
 15 14  1  0  0  0  0
 16 17  2  0  0  0  0
 17 15  1  0  0  0  0
 18 22  1  1  0  0  0
 18 17  1  0  0  0  0
 18 19  1  0  0  0  0
 20 19  1  0  0  0  0
 20 21  1  0  0  0  0
 23 22  1  0  0  0  0
 24 23  1  6  0  0  0
 25 29  1  1  0  0  0
 25 28  1  0  0  0  0
 25 24  1  0  0  0  0
 27 25  1  0  0  0  0
 27 26  1  1  0  0  0
 27 28  1  0  0  0  0
 28 26  1  1  0  0  0
 29 24  1  0  0  0  0
 31 30  2  0  0  0  0
 31 32  1  0  0  0  0
 32 34  1  0  0  0  0
 34 33  1  0  0  0  0
 35 34  1  0  0  0  0
 36  8  1  0  0  0  0
 37 36  1  0  0  0  0
 38 37  1  0  0  0  0
 39 38  2  0  0  0  0
M  END
>  <MODEL>
4

>  <REMARK>
 VINA RESULT:      -7.3      4.138      9.204
  Name = 
  16 active torsions:
  status: ('A' for Active; 'I' for Inactive)
    1  A    between atoms: N_1  and  C_22
    2  A    between atoms: C_2  and  C_8
    3  A    between atoms: C_3  and  C_7
    4  A    between atoms: C_3  and  C_31
    5  A    between atoms: C_4  and  C_8
    6  A    between atoms: C_4  and  C_28
    7  A    between atoms: C_4  and  C_31
    8  A    between atoms: C_16  and  C_34
    9  A    between atoms: O_17  and  C_25
   10  A    between atoms: O_17  and  C_32
   11  A    between atoms: C_18  and  C_23
   12  A    between atoms: C_18  and  O_26
   13  A    between atoms: C_19  and  O_26
   14  A    between atoms: C_21  and  C_36
   15  A    between atoms: C_22  and  C_34
   16  A    between atoms: C_25  and  C_33
                            x       y       z     vdW  Elec       q    Type
                         _______ _______ _______ _____ _____    ______ ____

>  <TORSDO>
F 16

$$$$
=
 OpenBabel11062417403D

 39 43  0  0  1  0  0  0  0  0999 V2000
  189.3970  178.1100  137.1140 O   0  0  0  0  0  0  0  0  0  0  0  0
  192.6070  175.2340  134.7580 O   0  0  0  0  0  1  0  0  0  0  0  0
  190.0340  176.0450  137.9690 C   0  0  2  0  0  3  0  0  0  0  0  0
  190.4720  177.2110  137.1460 C   0  0  1  0  0  3  0  0  0  0  0  0
  188.7230  177.9390  138.3480 C   0  0  2  0  0  3  0  0  0  0  0  0
  190.8610  176.6950  135.7690 C   0  0  0  0  0  2  0  0  0  0  0  0
  191.8630  175.5620  135.8870 C   0  0  0  0  0  0  0  0  0  0  0  0
  192.0050  174.8430  137.0270 C   0  0  0  0  0  0  0  0  0  0  0  0
  189.2850  176.7160  139.0860 C   0  0  2  0  0  3  0  0  0  0  0  0
  191.2450  175.1770  138.2980 C   0  0  0  0  0  2  0  0  0  0  0  0
  189.8500  176.9960  141.4790 C   0  0  0  0  0  3  0  0  0  0  0  0
  190.1990  177.1460  140.2040 C   0  0  0  0  0  3  0  0  0  0  0  0
  190.7560  177.3950  142.6010 C   0  0  0  0  0  2  0  0  0  0  0  0
  190.2120  178.5910  143.3780 C   0  0  0  0  0  2  0  0  0  0  0  0
  190.2530  178.3370  144.8090 N   0  0  0  0  0  2  0  0  0  0  0  0
  188.4810  176.8170  144.7890 O   0  0  0  0  0  0  0  0  0  0  0  0
  189.3610  177.4270  145.4590 C   0  0  0  0  0  0  0  0  0  0  0  0
  189.4720  177.2130  146.9420 C   0  0  1  0  0  3  0  0  0  0  0  0
  190.9080  177.0160  147.3980 C   0  0  0  0  0  2  0  0  0  0  0  0
  191.6390  176.1150  146.4260 C   0  0  0  0  0  2  0  0  0  0  0  0
  192.6210  175.2470  147.1880 C   0  0  0  0  0  1  0  0  0  0  0  0
  188.7620  178.3110  147.7560 C   0  0  0  0  0  2  0  0  0  0  0  0
  187.2370  178.1600  147.8490 C   0  0  0  0  0  2  0  0  0  0  0  0
  186.5200  178.9060  146.7360 C   0  0  1  0  0  3  0  0  0  0  0  0
  185.2320  178.2080  146.4080 C   0  0  2  0  0  0  0  0  0  0  0  0
  184.6640  179.4680  144.3120 C   0  0  0  0  0  2  0  0  0  0  0  0
  184.1020  178.6380  145.4520 C   0  0  1  0  0  3  0  0  0  0  0  0
  185.4160  178.2740  144.8750 C   0  0  2  0  0  3  0  0  0  0  0  0
  185.3200  179.3940  147.1930 O   0  0  0  0  0  0  0  0  0  0  0  0
  186.8660  176.7320  137.4570 O   0  0  0  0  0  0  0  0  0  0  0  0
  187.2530  177.7440  138.0930 C   0  0  0  0  0  0  0  0  0  0  0  0
  186.2950  178.6390  138.5760 O   0  0  0  0  0  0  0  0  0  0  0  0
  186.5010  178.7960  140.9510 C   0  0  0  0  0  1  0  0  0  0  0  0
  185.6000  178.4320  139.7970 C   0  0  0  0  0  3  0  0  0  0  0  0
  184.3710  179.3250  139.8350 C   0  0  0  0  0  1  0  0  0  0  0  0
  193.0340  173.7570  137.1090 C   0  0  0  0  0  2  0  0  0  0  0  0
  194.0540  174.1100  138.0340 O   0  0  0  0  0  0  0  0  0  0  0  0
  195.3820  174.1800  137.6280 C   0  0  0  0  0  3  0  0  0  0  0  0
  195.8700  175.2800  137.2690 O   0  0  0  0  0  0  0  0  0  0  0  0
  1  4  1  0  0  0  0
  1  5  1  0  0  0  0
  2  7  1  0  0  0  0
  3 10  1  1  0  0  0
  3  9  1  0  0  0  0
  4  6  1  6  0  0  0
  4  3  1  0  0  0  0
  5 31  1  6  0  0  0
  5  9  1  0  0  0  0
  6  7  1  0  0  0  0
  7  8  2  0  0  0  0
  8 36  1  0  0  0  0
  8 10  1  0  0  0  0
  9 12  1  1  0  0  0
 11 13  1  0  0  0  0
 12 11  2  0  0  0  0
 13 14  1  0  0  0  0
 14 15  1  0  0  0  0
 15 17  1  0  0  0  0
 16 17  2  0  0  0  0
 17 18  1  0  0  0  0
 18 19  1  1  0  0  0
 18 22  1  0  0  0  0
 20 21  1  0  0  0  0
 20 19  1  0  0  0  0
 22 23  1  0  0  0  0
 24 29  1  0  0  0  0
 24 23  1  1  0  0  0
 25 24  1  0  0  0  0
 25 29  1  6  0  0  0
 27 26  1  1  0  0  0
 27 25  1  0  0  0  0
 28 26  1  1  0  0  0
 28 27  1  0  0  0  0
 28 25  1  0  0  0  0
 30 31  2  0  0  0  0
 31 32  1  0  0  0  0
 32 34  1  0  0  0  0
 34 35  1  0  0  0  0
 34 33  1  0  0  0  0
 36 37  1  0  0  0  0
 38 37  1  0  0  0  0
 39 38  2  0  0  0  0
M  END
>  <MODEL>
5

>  <REMARK>
 VINA RESULT:      -7.3      1.458      5.395
  Name = 
  16 active torsions:
  status: ('A' for Active; 'I' for Inactive)
    1  A    between atoms: N_1  and  C_22
    2  A    between atoms: C_2  and  C_8
    3  A    between atoms: C_3  and  C_7
    4  A    between atoms: C_3  and  C_31
    5  A    between atoms: C_4  and  C_8
    6  A    between atoms: C_4  and  C_28
    7  A    between atoms: C_4  and  C_31
    8  A    between atoms: C_16  and  C_34
    9  A    between atoms: O_17  and  C_25
   10  A    between atoms: O_17  and  C_32
   11  A    between atoms: C_18  and  C_23
   12  A    between atoms: C_18  and  O_26
   13  A    between atoms: C_19  and  O_26
   14  A    between atoms: C_21  and  C_36
   15  A    between atoms: C_22  and  C_34
   16  A    between atoms: C_25  and  C_33
                            x       y       z     vdW  Elec       q    Type
                         _______ _______ _______ _____ _____    ______ ____

>  <TORSDO>
F 16

$$$$
=
 OpenBabel11062417403D

 39 43  0  0  1  0  0  0  0  0999 V2000
  190.5280  175.9070  142.0960 O   0  0  0  0  0  0  0  0  0  0  0  0
  190.5570  177.0280  137.3150 O   0  0  0  0  0  1  0  0  0  0  0  0
  189.6900  177.9300  141.3180 C   0  0  2  0  0  3  0  0  0  0  0  0
  189.9080  176.4920  140.9840 C   0  0  1  0  0  3  0  0  0  0  0  0
  190.0450  176.6230  143.2200 C   0  0  2  0  0  3  0  0  0  0  0  0
  190.7570  176.4250  139.7230 C   0  0  0  0  0  2  0  0  0  0  0  0
  190.1440  177.2690  138.6210 C   0  0  0  0  0  0  0  0  0  0  0  0
  189.2650  178.2660  138.8840 C   0  0  0  0  0  0  0  0  0  0  0  0
  189.2550  177.8540  142.7540 C   0  0  2  0  0  3  0  0  0  0  0  0
  188.7550  178.5510  140.2850 C   0  0  0  0  0  2  0  0  0  0  0  0
  187.0850  178.0730  143.9270 C   0  0  0  0  0  3  0  0  0  0  0  0
  187.7720  177.6120  142.8840 C   0  0  0  0  0  3  0  0  0  0  0  0
  185.6110  177.8630  144.0590 C   0  0  0  0  0  2  0  0  0  0  0  0
  184.8110  179.0070  143.4400 C   0  0  0  0  0  2  0  0  0  0  0  0
  183.8750  178.5030  142.4480 N   0  0  0  0  0  2  0  0  0  0  0  0
  185.0370  179.3770  140.6210 O   0  0  0  0  0  0  0  0  0  0  0  0
  184.0480  178.7160  141.0440 C   0  0  0  0  0  0  0  0  0  0  0  0
  183.0390  178.1560  140.0820 C   0  0  1  0  0  3  0  0  0  0  0  0
  181.9590  179.1610  139.7170 C   0  0  0  0  0  2  0  0  0  0  0  0
  180.6510  178.7720  140.3720 C   0  0  0  0  0  2  0  0  0  0  0  0
  180.4080  179.6670  141.5720 C   0  0  0  0  0  1  0  0  0  0  0  0
  183.6900  177.5400  138.8280 C   0  0  0  0  0  2  0  0  0  0  0  0
  183.1970  176.1300  138.4740 C   0  0  0  0  0  2  0  0  0  0  0  0
  184.0280  175.4950  137.3710 C   0  0  1  0  0  3  0  0  0  0  0  0
  184.1660  174.0230  137.6270 C   0  0  2  0  0  0  0  0  0  0  0  0
  185.9130  173.5190  135.8950 C   0  0  0  0  0  2  0  0  0  0  0  0
  184.8000  172.9310  136.7420 C   0  0  1  0  0  3  0  0  0  0  0  0
  185.6820  173.9650  137.3290 C   0  0  2  0  0  3  0  0  0  0  0  0
  183.2690  174.5860  136.6740 O   0  0  0  0  0  0  0  0  0  0  0  0
  191.7690  178.1570  143.8320 O   0  0  0  0  0  0  0  0  0  0  0  0
  191.2050  177.0600  144.0730 C   0  0  0  0  0  0  0  0  0  0  0  0
  191.6530  176.2980  145.1550 O   0  0  0  0  0  0  0  0  0  0  0  0
  190.1520  176.9390  146.8990 C   0  0  0  0  0  1  0  0  0  0  0  0
  191.5950  176.7630  146.4950 C   0  0  0  0  0  3  0  0  0  0  0  0
  192.2390  175.7370  147.4120 C   0  0  0  0  0  1  0  0  0  0  0  0
  188.6580  179.0490  137.7610 C   0  0  0  0  0  2  0  0  0  0  0  0
  187.2560  178.8180  137.6970 O   0  0  0  0  0  0  0  0  0  0  0  0
  186.7160  178.0270  136.6890 C   0  0  0  0  0  3  0  0  0  0  0  0
  187.4750  177.3620  135.9400 O   0  0  0  0  0  0  0  0  0  0  0  0
  1  5  1  0  0  0  0
  2  7  1  0  0  0  0
  3 10  1  6  0  0  0
  3  9  1  0  0  0  0
  4  6  1  6  0  0  0
  4  3  1  0  0  0  0
  4  1  1  0  0  0  0
  5 31  1  1  0  0  0
  7  8  2  0  0  0  0
  7  6  1  0  0  0  0
  8 10  1  0  0  0  0
  9 12  1  6  0  0  0
  9  5  1  0  0  0  0
 11 13  1  0  0  0  0
 12 11  2  0  0  0  0
 14 13  1  0  0  0  0
 15 14  1  0  0  0  0
 16 17  2  0  0  0  0
 17 15  1  0  0  0  0
 18 22  1  6  0  0  0
 18 17  1  0  0  0  0
 19 18  1  0  0  0  0
 19 20  1  0  0  0  0
 20 21  1  0  0  0  0
 23 22  1  0  0  0  0
 24 25  1  0  0  0  0
 24 23  1  1  0  0  0
 25 29  1  6  0  0  0
 27 26  1  6  0  0  0
 27 28  1  0  0  0  0
 27 25  1  0  0  0  0
 28 26  1  6  0  0  0
 28 25  1  0  0  0  0
 29 24  1  0  0  0  0
 30 31  2  0  0  0  0
 31 32  1  0  0  0  0
 32 34  1  0  0  0  0
 34 33  1  0  0  0  0
 34 35  1  0  0  0  0
 36  8  1  0  0  0  0
 37 36  1  0  0  0  0
 38 37  1  0  0  0  0
 39 38  2  0  0  0  0
M  END
>  <MODEL>
6

>  <REMARK>
 VINA RESULT:      -7.2      2.804      7.792
  Name = 
  16 active torsions:
  status: ('A' for Active; 'I' for Inactive)
    1  A    between atoms: N_1  and  C_22
    2  A    between atoms: C_2  and  C_8
    3  A    between atoms: C_3  and  C_7
    4  A    between atoms: C_3  and  C_31
    5  A    between atoms: C_4  and  C_8
    6  A    between atoms: C_4  and  C_28
    7  A    between atoms: C_4  and  C_31
    8  A    between atoms: C_16  and  C_34
    9  A    between atoms: O_17  and  C_25
   10  A    between atoms: O_17  and  C_32
   11  A    between atoms: C_18  and  C_23
   12  A    between atoms: C_18  and  O_26
   13  A    between atoms: C_19  and  O_26
   14  A    between atoms: C_21  and  C_36
   15  A    between atoms: C_22  and  C_34
   16  A    between atoms: C_25  and  C_33
                            x       y       z     vdW  Elec       q    Type
                         _______ _______ _______ _____ _____    ______ ____

>  <TORSDO>
F 16

$$$$
=
 OpenBabel11062417403D

 39 43  0  0  1  0  0  0  0  0999 V2000
  185.7480  177.4500  144.0380 O   0  0  0  0  0  0  0  0  0  0  0  0
  187.8790  177.0540  148.4450 O   0  0  0  0  0  1  0  0  0  0  0  0
  187.9110  178.2120  144.4150 C   0  0  2  0  0  3  0  0  0  0  0  0
  186.8860  177.2040  144.8170 C   0  0  1  0  0  3  0  0  0  0  0  0
  186.2330  177.9650  142.8100 C   0  0  2  0  0  3  0  0  0  0  0  0
  186.6350  177.3600  146.3090 C   0  0  0  0  0  2  0  0  0  0  0  0
  187.9410  177.3110  147.0790 C   0  0  0  0  0  0  0  0  0  0  0  0
  189.1340  177.5630  146.4880 C   0  0  0  0  0  0  0  0  0  0  0  0
  187.7360  178.2550  142.9230 C   0  0  2  0  0  3  0  0  0  0  0  0
  189.2640  177.8160  144.9970 C   0  0  0  0  0  2  0  0  0  0  0  0
  189.5490  177.4900  141.4210 C   0  0  0  0  0  3  0  0  0  0  0  0
  188.5360  177.1830  142.2270 C   0  0  0  0  0  3  0  0  0  0  0  0
  190.3690  176.4390  140.7420 C   0  0  0  0  0  2  0  0  0  0  0  0
  190.9420  176.9280  139.4140 C   0  0  0  0  0  2  0  0  0  0  0  0
  190.0530  176.5880  138.3140 N   0  0  0  0  0  2  0  0  0  0  0  0
  189.1420  178.7310  138.1310 O   0  0  0  0  0  0  0  0  0  0  0  0
  189.1770  177.5420  137.7060 C   0  0  0  0  0  0  0  0  0  0  0  0
  188.2940  177.1150  136.5690 C   0  0  1  0  0  3  0  0  0  0  0  0
  187.4280  178.2480  136.0430 C   0  0  0  0  0  2  0  0  0  0  0  0
  186.4840  177.7260  134.9810 C   0  0  0  0  0  2  0  0  0  0  0  0
  185.2590  177.1320  135.6480 C   0  0  0  0  0  1  0  0  0  0  0  0
  189.0750  176.4220  135.4360 C   0  0  0  0  0  2  0  0  0  0  0  0
  188.8720  174.9030  135.3490 C   0  0  0  0  0  2  0  0  0  0  0  0
  187.8680  174.4010  136.3740 C   0  0  1  0  0  3  0  0  0  0  0  0
  187.1630  173.1890  135.8390 C   0  0  2  0  0  0  0  0  0  0  0  0
  185.3710  173.0130  137.5900 C   0  0  0  0  0  2  0  0  0  0  0  0
  186.1600  172.2520  136.5400 C   0  0  1  0  0  3  0  0  0  0  0  0
  185.7470  173.6450  136.2600 C   0  0  2  0  0  3  0  0  0  0  0  0
  188.2160  173.1420  136.7970 O   0  0  0  0  0  0  0  0  0  0  0  0
  184.9290  179.8780  143.3890 O   0  0  0  0  0  0  0  0  0  0  0  0
  185.4970  179.2330  142.4730 C   0  0  0  0  0  0  0  0  0  0  0  0
  185.4570  179.7390  141.1710 O   0  0  0  0  0  0  0  0  0  0  0  0
  185.2770  178.6270  139.0650 C   0  0  0  0  0  1  0  0  0  0  0  0
  184.5280  179.2800  140.2000 C   0  0  0  0  0  3  0  0  0  0  0  0
  183.6050  178.2520  140.8320 C   0  0  0  0  0  1  0  0  0  0  0  0
  190.4010  177.4680  147.2810 C   0  0  0  0  0  2  0  0  0  0  0  0
  190.8500  176.1200  147.3390 O   0  0  0  0  0  0  0  0  0  0  0  0
  192.1960  175.8320  147.5350 C   0  0  0  0  0  3  0  0  0  0  0  0
  192.8250  176.3850  148.4700 O   0  0  0  0  0  0  0  0  0  0  0  0
  1  4  1  0  0  0  0
  3  4  1  0  0  0  0
  3 10  1  6  0  0  0
  4  6  1  1  0  0  0
  5 31  1  1  0  0  0
  5  9  1  0  0  0  0
  5  1  1  0  0  0  0
  6  7  1  0  0  0  0
  7  2  1  0  0  0  0
  8  7  2  0  0  0  0
  8 36  1  0  0  0  0
  9 12  1  6  0  0  0
  9  3  1  0  0  0  0
 10  8  1  0  0  0  0
 11 12  2  0  0  0  0
 13 11  1  0  0  0  0
 14 13  1  0  0  0  0
 15 14  1  0  0  0  0
 17 16  2  0  0  0  0
 17 15  1  0  0  0  0
 18 22  1  6  0  0  0
 18 17  1  0  0  0  0
 19 18  1  0  0  0  0
 20 21  1  0  0  0  0
 20 19  1  0  0  0  0
 23 22  1  0  0  0  0
 24 23  1  6  0  0  0
 24 29  1  0  0  0  0
 25 28  1  0  0  0  0
 25 24  1  0  0  0  0
 25 27  1  0  0  0  0
 25 29  1  1  0  0  0
 27 26  1  1  0  0  0
 28 27  1  0  0  0  0
 28 26  1  1  0  0  0
 31 30  2  0  0  0  0
 32 31  1  0  0  0  0
 33 34  1  0  0  0  0
 34 35  1  0  0  0  0
 34 32  1  0  0  0  0
 36 37  1  0  0  0  0
 37 38  1  0  0  0  0
 38 39  2  0  0  0  0
M  END
>  <MODEL>
7

>  <REMARK>
 VINA RESULT:      -7.1      2.810      9.912
  Name = 
  16 active torsions:
  status: ('A' for Active; 'I' for Inactive)
    1  A    between atoms: N_1  and  C_22
    2  A    between atoms: C_2  and  C_8
    3  A    between atoms: C_3  and  C_7
    4  A    between atoms: C_3  and  C_31
    5  A    between atoms: C_4  and  C_8
    6  A    between atoms: C_4  and  C_28
    7  A    between atoms: C_4  and  C_31
    8  A    between atoms: C_16  and  C_34
    9  A    between atoms: O_17  and  C_25
   10  A    between atoms: O_17  and  C_32
   11  A    between atoms: C_18  and  C_23
   12  A    between atoms: C_18  and  O_26
   13  A    between atoms: C_19  and  O_26
   14  A    between atoms: C_21  and  C_36
   15  A    between atoms: C_22  and  C_34
   16  A    between atoms: C_25  and  C_33
                            x       y       z     vdW  Elec       q    Type
                         _______ _______ _______ _____ _____    ______ ____

>  <TORSDO>
F 16

$$$$
=
 OpenBabel11062417403D

 39 43  0  0  1  0  0  0  0  0999 V2000
  189.3620  176.0220  143.4380 O   0  0  0  0  0  0  0  0  0  0  0  0
  190.9580  176.8450  138.8670 O   0  0  0  0  0  1  0  0  0  0  0  0
  188.8570  177.9910  142.3100 C   0  0  2  0  0  3  0  0  0  0  0  0
  189.1460  176.5350  142.1520 C   0  0  1  0  0  3  0  0  0  0  0  0
  188.5530  176.8050  144.2990 C   0  0  2  0  0  3  0  0  0  0  0  0
  190.3570  176.3930  141.2410 C   0  0  0  0  0  2  0  0  0  0  0  0
  190.1480  177.1650  139.9520 C   0  0  0  0  0  0  0  0  0  0  0  0
  189.2490  178.1740  139.8550 C   0  0  0  0  0  0  0  0  0  0  0  0
  187.9780  178.0020  143.5290 C   0  0  2  0  0  3  0  0  0  0  0  0
  188.3170  178.5440  140.9950 C   0  0  0  0  0  2  0  0  0  0  0  0
  185.5560  178.4510  143.7780 C   0  0  0  0  0  3  0  0  0  0  0  0
  186.5290  177.7640  143.1860 C   0  0  0  0  0  3  0  0  0  0  0  0
  184.1160  178.2450  143.4320 C   0  0  0  0  0  2  0  0  0  0  0  0
  183.5930  179.3260  142.4890 C   0  0  0  0  0  2  0  0  0  0  0  0
  182.9910  178.7310  141.3070 N   0  0  0  0  0  2  0  0  0  0  0  0
  184.4710  179.7350  139.8050 O   0  0  0  0  0  0  0  0  0  0  0  0
  183.4830  178.9690  139.9850 C   0  0  0  0  0  0  0  0  0  0  0  0
  182.8100  178.3100  138.8150 C   0  0  1  0  0  3  0  0  0  0  0  0
  182.1380  179.3100  137.8870 C   0  0  0  0  0  2  0  0  0  0  0  0
  181.0330  178.6300  137.1100 C   0  0  0  0  0  2  0  0  0  0  0  0
  181.3750  178.6490  135.6320 C   0  0  0  0  0  1  0  0  0  0  0  0
  183.7480  177.3610  138.0450 C   0  0  0  0  0  2  0  0  0  0  0  0
  183.4670  175.8660  138.2580 C   0  0  0  0  0  2  0  0  0  0  0  0
  184.3430  174.9900  137.3780 C   0  0  1  0  0  3  0  0  0  0  0  0
  183.9350  173.5540  137.5300 C   0  0  2  0  0  0  0  0  0  0  0  0
  185.8650  172.5010  136.3160 C   0  0  0  0  0  2  0  0  0  0  0  0
  184.4260  172.3110  136.7630 C   0  0  1  0  0  3  0  0  0  0  0  0
  185.3740  173.0060  137.6630 C   0  0  2  0  0  3  0  0  0  0  0  0
  183.5780  174.3720  136.4190 O   0  0  0  0  0  0  0  0  0  0  0  0
  190.1490  178.2780  145.2890 O   0  0  0  0  0  0  0  0  0  0  0  0
  189.3810  177.2970  145.4540 C   0  0  0  0  0  0  0  0  0  0  0  0
  189.2950  176.7190  146.7230 O   0  0  0  0  0  0  0  0  0  0  0  0
  189.1320  178.2620  148.5390 C   0  0  0  0  0  1  0  0  0  0  0  0
  188.4200  177.2070  147.7290 C   0  0  0  0  0  3  0  0  0  0  0  0
  187.2000  177.8330  147.0740 C   0  0  0  0  0  1  0  0  0  0  0  0
  189.0520  178.8840  138.5510 C   0  0  0  0  0  2  0  0  0  0  0  0
  187.7270  178.6850  138.0730 O   0  0  0  0  0  0  0  0  0  0  0  0
  187.4890  177.8730  136.9700 C   0  0  0  0  0  3  0  0  0  0  0  0
  187.4880  176.6240  137.1010 O   0  0  0  0  0  0  0  0  0  0  0  0
  1  5  1  0  0  0  0
  2  7  1  0  0  0  0
  3 10  1  6  0  0  0
  3  9  1  0  0  0  0
  4  6  1  6  0  0  0
  4  3  1  0  0  0  0
  4  1  1  0  0  0  0
  5 31  1  1  0  0  0
  7  6  1  0  0  0  0
  8  7  2  0  0  0  0
  8 10  1  0  0  0  0
  9 12  1  6  0  0  0
  9  5  1  0  0  0  0
 12 11  2  0  0  0  0
 13 11  1  0  0  0  0
 14 13  1  0  0  0  0
 15 14  1  0  0  0  0
 16 17  2  0  0  0  0
 17 15  1  0  0  0  0
 18 19  1  6  0  0  0
 18 17  1  0  0  0  0
 20 19  1  0  0  0  0
 21 20  1  0  0  0  0
 22 23  1  0  0  0  0
 22 18  1  0  0  0  0
 24 25  1  0  0  0  0
 24 23  1  1  0  0  0
 25 29  1  6  0  0  0
 25 28  1  0  0  0  0
 27 26  1  6  0  0  0
 27 25  1  0  0  0  0
 27 28  1  0  0  0  0
 28 26  1  6  0  0  0
 29 24  1  0  0  0  0
 30 31  2  0  0  0  0
 31 32  1  0  0  0  0
 32 34  1  0  0  0  0
 34 33  1  0  0  0  0
 35 34  1  0  0  0  0
 36  8  1  0  0  0  0
 37 36  1  0  0  0  0
 38 39  2  0  0  0  0
 38 37  1  0  0  0  0
M  END
>  <MODEL>
8

>  <REMARK>
 VINA RESULT:      -7.1      3.139      8.898
  Name = 
  16 active torsions:
  status: ('A' for Active; 'I' for Inactive)
    1  A    between atoms: N_1  and  C_22
    2  A    between atoms: C_2  and  C_8
    3  A    between atoms: C_3  and  C_7
    4  A    between atoms: C_3  and  C_31
    5  A    between atoms: C_4  and  C_8
    6  A    between atoms: C_4  and  C_28
    7  A    between atoms: C_4  and  C_31
    8  A    between atoms: C_16  and  C_34
    9  A    between atoms: O_17  and  C_25
   10  A    between atoms: O_17  and  C_32
   11  A    between atoms: C_18  and  C_23
   12  A    between atoms: C_18  and  O_26
   13  A    between atoms: C_19  and  O_26
   14  A    between atoms: C_21  and  C_36
   15  A    between atoms: C_22  and  C_34
   16  A    between atoms: C_25  and  C_33
                            x       y       z     vdW  Elec       q    Type
                         _______ _______ _______ _____ _____    ______ ____

>  <TORSDO>
F 16

$$$$
=
 OpenBabel11062417403D

 39 43  0  0  1  0  0  0  0  0999 V2000
  190.9220  178.0120  141.5350 O   0  0  0  0  0  0  0  0  0  0  0  0
  191.6970  177.1240  146.3030 O   0  0  0  0  0  1  0  0  0  0  0  0
  189.3240  176.9540  142.8500 C   0  0  2  0  0  3  0  0  0  0  0  0
  190.4420  177.9430  142.8490 C   0  0  1  0  0  3  0  0  0  0  0  0
  189.8010  177.7520  140.7080 C   0  0  2  0  0  3  0  0  0  0  0  0
  191.4900  177.4670  143.8450 C   0  0  0  0  0  2  0  0  0  0  0  0
  190.8570  177.1920  145.1960 C   0  0  0  0  0  0  0  0  0  0  0  0
  189.5290  176.9610  145.3350 C   0  0  0  0  0  0  0  0  0  0  0  0
  188.6170  177.2840  141.5650 C   0  0  2  0  0  3  0  0  0  0  0  0
  188.5620  177.0540  144.1680 C   0  0  0  0  0  2  0  0  0  0  0  0
  186.3720  178.1530  142.1420 C   0  0  0  0  0  3  0  0  0  0  0  0
  187.6160  178.3980  141.7390 C   0  0  0  0  0  3  0  0  0  0  0  0
  185.3730  179.2480  142.3430 C   0  0  0  0  0  2  0  0  0  0  0  0
  184.0470  178.9480  141.6490 C   0  0  0  0  0  2  0  0  0  0  0  0
  184.2670  178.2280  140.4060 N   0  0  0  0  0  2  0  0  0  0  0  0
  184.5520  180.1520  139.1130 O   0  0  0  0  0  0  0  0  0  0  0  0
  184.5240  178.8900  139.1640 C   0  0  0  0  0  0  0  0  0  0  0  0
  184.7490  178.0740  137.9230 C   0  0  1  0  0  3  0  0  0  0  0  0
  186.1830  177.5870  137.7950 C   0  0  0  0  0  2  0  0  0  0  0  0
  187.0060  178.6010  137.0300 C   0  0  0  0  0  2  0  0  0  0  0  0
  187.0730  178.1930  135.5710 C   0  0  0  0  0  1  0  0  0  0  0  0
  183.7410  176.9180  137.7800 C   0  0  0  0  0  2  0  0  0  0  0  0
  183.9580  176.0230  136.5510 C   0  0  0  0  0  2  0  0  0  0  0  0
  183.4190  174.6180  136.7660 C   0  0  1  0  0  3  0  0  0  0  0  0
  184.5600  173.6460  136.8420 C   0  0  2  0  0  0  0  0  0  0  0  0
  183.2280  171.5200  136.7360 C   0  0  0  0  0  2  0  0  0  0  0  0
  184.5420  172.1410  137.1740 C   0  0  1  0  0  3  0  0  0  0  0  0
  183.9170  172.5930  135.9110 C   0  0  2  0  0  3  0  0  0  0  0  0
  183.8460  174.1300  137.9770 O   0  0  0  0  0  0  0  0  0  0  0  0
  191.2540  176.0880  139.8040 O   0  0  0  0  0  0  0  0  0  0  0  0
  190.1530  176.6850  139.7070 C   0  0  0  0  0  0  0  0  0  0  0  0
  189.2730  176.3100  138.6890 O   0  0  0  0  0  0  0  0  0  0  0  0
  188.5240  174.9400  136.8810 C   0  0  0  0  0  1  0  0  0  0  0  0
  189.7030  175.6370  137.5150 C   0  0  0  0  0  3  0  0  0  0  0  0
  190.2610  176.6490  136.5290 C   0  0  0  0  0  1  0  0  0  0  0  0
  188.9440  176.7300  146.6940 C   0  0  0  0  0  2  0  0  0  0  0  0
  188.1980  177.8660  147.1120 O   0  0  0  0  0  0  0  0  0  0  0  0
  188.4880  178.4970  148.3160 C   0  0  0  0  0  3  0  0  0  0  0  0
  189.5910  178.2930  148.8800 O   0  0  0  0  0  0  0  0  0  0  0  0
  1  4  1  0  0  0  0
  3 10  1  1  0  0  0
  4  3  1  0  0  0  0
  4  6  1  1  0  0  0
  5 31  1  6  0  0  0
  5  1  1  0  0  0  0
  5  9  1  0  0  0  0
  6  7  1  0  0  0  0
  7  8  2  0  0  0  0
  7  2  1  0  0  0  0
  8 36  1  0  0  0  0
  9 12  1  1  0  0  0
  9  3  1  0  0  0  0
 10  8  1  0  0  0  0
 11 13  1  0  0  0  0
 12 11  2  0  0  0  0
 14 13  1  0  0  0  0
 15 14  1  0  0  0  0
 16 17  2  0  0  0  0
 17 15  1  0  0  0  0
 18 22  1  1  0  0  0
 18 17  1  0  0  0  0
 19 18  1  0  0  0  0
 20 19  1  0  0  0  0
 21 20  1  0  0  0  0
 23 22  1  0  0  0  0
 24 23  1  1  0  0  0
 24 25  1  0  0  0  0
 24 29  1  0  0  0  0
 25 27  1  0  0  0  0
 25 29  1  1  0  0  0
 27 26  1  1  0  0  0
 28 26  1  1  0  0  0
 28 25  1  0  0  0  0
 28 27  1  0  0  0  0
 31 30  2  0  0  0  0
 32 31  1  0  0  0  0
 33 34  1  0  0  0  0
 34 32  1  0  0  0  0
 35 34  1  0  0  0  0
 36 37  1  0  0  0  0
 37 38  1  0  0  0  0
 38 39  2  0  0  0  0
M  END
>  <MODEL>
9

>  <REMARK>
 VINA RESULT:      -7.0      2.872      8.420
  Name = 
  16 active torsions:
  status: ('A' for Active; 'I' for Inactive)
    1  A    between atoms: N_1  and  C_22
    2  A    between atoms: C_2  and  C_8
    3  A    between atoms: C_3  and  C_7
    4  A    between atoms: C_3  and  C_31
    5  A    between atoms: C_4  and  C_8
    6  A    between atoms: C_4  and  C_28
    7  A    between atoms: C_4  and  C_31
    8  A    between atoms: C_16  and  C_34
    9  A    between atoms: O_17  and  C_25
   10  A    between atoms: O_17  and  C_32
   11  A    between atoms: C_18  and  C_23
   12  A    between atoms: C_18  and  O_26
   13  A    between atoms: C_19  and  O_26
   14  A    between atoms: C_21  and  C_36
   15  A    between atoms: C_22  and  C_34
   16  A    between atoms: C_25  and  C_33
                            x       y       z     vdW  Elec       q    Type
                         _______ _______ _______ _____ _____    ______ ____

>  <TORSDO>
F 16

$$$$
