=
 OpenBabel11062414373D

 38 42  0  0  1  0  0  0  0  0999 V2000
  190.6580  174.9100  136.3950 C   0  0  0  0  0  2  0  0  0  0  0  0
  189.7060  175.1190  137.5670 C   0  0  1  0  0  3  0  0  0  0  0  0
  190.0910  176.3810  138.3590 C   0  0  1  0  0  3  0  0  0  0  0  0
  188.3890  175.1930  137.1110 O   0  0  0  0  0  1  0  0  0  0  0  0
  192.3080  176.2550  137.7140 C   0  0  0  0  0  2  0  0  0  0  0  0
  191.4270  176.2910  138.8200 O   0  0  0  0  0  0  0  0  0  0  0  0
  192.1040  174.9830  136.8780 C   0  0  2  0  0  3  0  0  0  0  0  0
  194.3470  174.1000  135.9520 C   0  0  1  0  0  0  0  0  0  0  0  0
  197.7910  175.3190  137.8280 O   0  0  0  0  0  1  0  0  0  0  0  0
  194.7660  173.4520  134.6290 C   0  0  0  0  0  1  0  0  0  0  0  0
  196.7540  172.8840  136.9360 O   0  0  0  0  0  0  0  0  0  0  0  0
  196.9790  174.5360  136.5670 P   0  0  2  0  0  0  0  0  0  0  0  0
  193.5480  176.2850  135.2100 C   0  0  0  0  0  2  0  0  0  0  0  0
  195.0590  176.3520  135.4520 C   0  0  0  0  0  2  0  0  0  0  0  0
  193.0670  174.8900  135.6800 C   0  0  2  0  0  3  0  0  0  0  0  0
  197.7560  174.6800  135.2790 O   0  0  0  0  0  0  0  0  0  0  0  0
  194.2810  172.9920  137.0210 C   0  0  0  0  0  2  0  0  0  0  0  0
  195.2980  175.1950  136.3870 C   0  0  1  0  0  3  0  0  0  0  0  0
  195.6230  172.8070  137.7800 C   0  0  0  0  0  2  0  0  0  0  0  0
  189.8300  177.6890  137.6030 C   0  0  0  0  0  2  0  0  0  0  0  0
  188.9730  178.6330  138.4270 C   0  0  0  0  0  2  0  0  0  0  0  0
  188.2270  177.8540  139.4960 C   0  0  0  0  0  2  0  0  0  0  0  0
  188.1500  178.6560  140.7870 C   0  0  0  0  0  2  0  0  0  0  0  0
  187.7760  177.7400  141.9470 C   0  0  2  0  0  3  0  0  0  0  0  0
  185.7130  178.6920  146.7760 C   0  0  0  0  0  2  0  0  0  0  0  0
  189.0360  175.5490  142.9440 F   0  0  0  0  0  0  0  0  0  0  0  0
  186.3460  177.9960  142.5310 C   0  0  1  0  0  3  0  0  0  0  0  0
  186.5900  177.5130  146.3710 C   0  0  0  0  0  2  0  0  0  0  0  0
  187.1930  177.7270  144.9740 C   0  0  1  0  0  3  0  0  0  0  0  0
  184.6100  178.8280  145.7730 C   0  0  0  0  0  3  0  0  0  0  0  0
  188.7950  176.6670  143.7290 C   0  0  0  0  0  0  0  0  0  0  0  0
  187.5740  176.4880  144.4240 O   0  0  0  0  0  0  0  0  0  0  0  0
  184.8900  178.7440  144.4680 C   0  0  0  0  0  3  0  0  0  0  0  0
  188.7900  177.8360  142.9240 O   0  0  0  0  0  0  0  0  0  0  0  0
  189.8290  176.7680  144.6470 F   0  0  0  0  0  0  0  0  0  0  0  0
  186.3100  178.5480  143.9780 C   0  0  2  0  0  3  0  0  0  0  0  0
  184.4090  178.1910  141.1780 O   0  0  0  0  0  0  0  0  0  0  0  0
  185.4120  178.7350  141.6100 C   0  0  0  0  0  3  0  0  0  0  0  0
  1  2  1  0  0  0  0
  2  4  1  6  0  0  0
  2  3  1  0  0  0  0
  3 20  1  6  0  0  0
  3  6  1  0  0  0  0
  5  6  1  0  0  0  0
  7  1  1  6  0  0  0
  7  5  1  0  0  0  0
  8 10  1  6  0  0  0
  8 18  1  0  0  0  0
  8 17  1  0  0  0  0
 11 19  1  0  0  0  0
 12 16  2  6  0  0  0
 12 11  1  0  0  0  0
 12  9  1  0  0  0  0
 13 14  1  0  0  0  0
 15 13  1  1  0  0  0
 15  8  1  0  0  0  0
 15  7  1  0  0  0  0
 17 19  1  0  0  0  0
 18 14  1  6  0  0  0
 18 12  1  0  0  0  0
 20 21  1  0  0  0  0
 21 22  1  0  0  0  0
 22 23  1  0  0  0  0
 24 23  1  6  0  0  0
 24 27  1  0  0  0  0
 24 34  1  0  0  0  0
 26 31  1  0  0  0  0
 27 38  1  6  0  0  0
 27 36  1  0  0  0  0
 28 25  1  0  0  0  0
 29 28  1  1  0  0  0
 30 25  1  0  0  0  0
 31 32  1  0  0  0  0
 31 35  1  0  0  0  0
 32 29  1  0  0  0  0
 33 30  2  0  0  0  0
 34 31  1  0  0  0  0
 36 33  1  1  0  0  0
 36 29  1  0  0  0  0
 37 38  2  0  0  0  0
M  END
>  <MODEL>
1

>  <REMARK>
 VINA RESULT:      -8.8      0.000      0.000
  Name = 
  7 active torsions:
  status: ('A' for Active; 'I' for Inactive)
    1  A    between atoms: C_2  and  C_34
    2  A    between atoms: C_7  and  C_26
    3  A    between atoms: C_16  and  C_38
    4  A    between atoms: C_20  and  C_22
    5  A    between atoms: C_20  and  C_34
    6  A    between atoms: C_21  and  C_32
    7  A    between atoms: C_22  and  C_32
                            x       y       z     vdW  Elec       q    Type
                         _______ _______ _______ _____ _____    ______ ____

>  <TORSDO>
F 7

$$$$
=
 OpenBabel11062414373D

 38 42  0  0  1  0  0  0  0  0999 V2000
  185.2190  176.4110  137.4810 C   0  0  0  0  0  2  0  0  0  0  0  0
  186.4660  176.8670  136.7310 C   0  0  1  0  0  3  0  0  0  0  0  0
  187.2580  177.8860  137.5680 C   0  0  1  0  0  3  0  0  0  0  0  0
  187.2570  175.7660  136.3970 O   0  0  0  0  0  1  0  0  0  0  0  0
  185.3790  178.5800  138.7230 C   0  0  0  0  0  2  0  0  0  0  0  0
  186.4470  179.0000  137.8960 O   0  0  0  0  0  0  0  0  0  0  0  0
  184.4360  177.6250  137.9770 C   0  0  2  0  0  3  0  0  0  0  0  0
  181.9050  177.8040  138.4530 C   0  0  1  0  0  0  0  0  0  0  0  0
  180.4150  181.4970  139.4560 O   0  0  0  0  0  0  0  0  0  0  0  0
  180.8120  176.7800  138.7740 C   0  0  0  0  0  1  0  0  0  0  0  0
  179.6830  179.4550  137.6950 O   0  0  0  0  0  0  0  0  0  0  0  0
  180.2450  179.8240  139.2650 P   0  0  2  0  0  0  0  0  0  0  0  0
  183.4350  177.5100  140.3330 C   0  0  0  0  0  2  0  0  0  0  0  0
  182.3510  178.5230  140.7130 C   0  0  0  0  0  2  0  0  0  0  0  0
  183.2410  177.1680  138.8350 C   0  0  2  0  0  3  0  0  0  0  0  0
  179.2920  179.2750  140.3010 O   0  0  0  0  0  1  0  0  0  0  0  0
  181.7230  178.2440  136.9870 C   0  0  0  0  0  2  0  0  0  0  0  0
  181.8600  179.0050  139.3730 C   0  0  1  0  0  3  0  0  0  0  0  0
  180.8080  179.4900  136.8430 C   0  0  0  0  0  2  0  0  0  0  0  0
  187.9310  177.2810  138.8050 C   0  0  0  0  0  2  0  0  0  0  0  0
  188.8380  178.2930  139.4820 C   0  0  0  0  0  2  0  0  0  0  0  0
  190.0390  177.5890  140.0870 C   0  0  0  0  0  2  0  0  0  0  0  0
  189.6310  176.7920  141.3170 C   0  0  0  0  0  2  0  0  0  0  0  0
  188.8170  177.6710  142.2600 C   0  0  2  0  0  3  0  0  0  0  0  0
  187.6300  177.2630  147.4470 C   0  0  0  0  0  2  0  0  0  0  0  0
  186.4870  179.0090  141.8570 F   0  0  0  0  0  0  0  0  0  0  0  0
  189.5380  178.0010  143.6110 C   0  0  1  0  0  3  0  0  0  0  0  0
  186.8200  177.9830  146.3760 C   0  0  0  0  0  2  0  0  0  0  0  0
  187.3490  177.6580  144.9710 C   0  0  1  0  0  3  0  0  0  0  0  0
  189.0560  177.7050  147.3370 C   0  0  0  0  0  3  0  0  0  0  0  0
  186.6040  178.0360  142.8390 C   0  0  0  0  0  0  0  0  0  0  0  0
  186.9440  178.6590  144.0650 O   0  0  0  0  0  0  0  0  0  0  0  0
  189.6350  177.7790  146.1340 C   0  0  0  0  0  3  0  0  0  0  0  0
  187.5590  177.0610  142.4470 O   0  0  0  0  0  0  0  0  0  0  0  0
  185.3710  177.4190  142.9700 F   0  0  0  0  0  0  0  0  0  0  0  0
  188.8860  177.3890  144.8750 C   0  0  2  0  0  3  0  0  0  0  0  0
  191.7680  178.7770  143.3990 O   0  0  0  0  0  0  0  0  0  0  0  0
  191.0320  177.8210  143.5870 C   0  0  0  0  0  3  0  0  0  0  0  0
  2  4  1  1  0  0  0
  2  1  1  0  0  0  0
  2  3  1  0  0  0  0
  3  6  1  0  0  0  0
  3 20  1  1  0  0  0
  6  5  1  0  0  0  0
  7  1  1  1  0  0  0
  7  5  1  0  0  0  0
  7 15  1  0  0  0  0
  8 10  1  1  0  0  0
  8 15  1  0  0  0  0
  8 18  1  0  0  0  0
 11 12  1  0  0  0  0
 12 18  1  0  0  0  0
 12  9  2  1  0  0  0
 12 16  1  0  0  0  0
 13 14  1  0  0  0  0
 15 13  1  1  0  0  0
 17  8  1  0  0  0  0
 18 14  1  1  0  0  0
 19 17  1  0  0  0  0
 19 11  1  0  0  0  0
 20 21  1  0  0  0  0
 21 22  1  0  0  0  0
 22 23  1  0  0  0  0
 24 23  1  6  0  0  0
 24 34  1  0  0  0  0
 24 27  1  0  0  0  0
 26 31  1  0  0  0  0
 27 38  1  6  0  0  0
 27 36  1  0  0  0  0
 28 25  1  0  0  0  0
 29 28  1  1  0  0  0
 30 25  1  0  0  0  0
 31 35  1  0  0  0  0
 31 32  1  0  0  0  0
 32 29  1  0  0  0  0
 33 30  2  0  0  0  0
 34 31  1  0  0  0  0
 36 29  1  0  0  0  0
 36 33  1  1  0  0  0
 37 38  2  0  0  0  0
M  END
>  <MODEL>
2

>  <REMARK>
 VINA RESULT:      -8.7      5.580      9.361
  Name = 
  7 active torsions:
  status: ('A' for Active; 'I' for Inactive)
    1  A    between atoms: C_2  and  C_34
    2  A    between atoms: C_7  and  C_26
    3  A    between atoms: C_16  and  C_38
    4  A    between atoms: C_20  and  C_22
    5  A    between atoms: C_20  and  C_34
    6  A    between atoms: C_21  and  C_32
    7  A    between atoms: C_22  and  C_32
                            x       y       z     vdW  Elec       q    Type
                         _______ _______ _______ _____ _____    ______ ____

>  <TORSDO>
F 7

$$$$
=
 OpenBabel11062414373D

 38 42  0  0  1  0  0  0  0  0999 V2000
  185.7350  177.9670  144.9900 C   0  0  0  0  0  2  0  0  0  0  0  0
  184.7800  178.9330  145.6810 C   0  0  1  0  0  3  0  0  0  0  0  0
  183.7870  179.5290  144.6680 C   0  0  1  0  0  3  0  0  0  0  0  0
  184.1110  178.2870  146.7220 O   0  0  0  0  0  1  0  0  0  0  0  0
  185.2400  179.2430  142.8930 C   0  0  0  0  0  2  0  0  0  0  0  0
  184.4770  180.1860  143.6210 O   0  0  0  0  0  0  0  0  0  0  0  0
  186.3500  178.6320  143.7610 C   0  0  2  0  0  3  0  0  0  0  0  0
  188.4970  177.1980  143.7270 C   0  0  1  0  0  0  0  0  0  0  0  0
  192.0960  179.1550  144.0010 O   0  0  0  0  0  1  0  0  0  0  0  0
  188.8030  175.7590  143.3010 C   0  0  0  0  0  1  0  0  0  0  0  0
  190.9310  176.9300  145.2230 O   0  0  0  0  0  0  0  0  0  0  0  0
  191.1760  177.7580  143.7500 P   0  0  2  0  0  0  0  0  0  0  0  0
  187.7090  178.1820  141.6360 C   0  0  0  0  0  2  0  0  0  0  0  0
  189.2350  178.2980  141.7090 C   0  0  0  0  0  2  0  0  0  0  0  0
  187.2230  177.6210  142.9950 C   0  0  2  0  0  3  0  0  0  0  0  0
  191.8650  176.8530  142.7540 O   0  0  0  0  0  0  0  0  0  0  0  0
  188.4750  177.2400  145.2680 C   0  0  0  0  0  2  0  0  0  0  0  0
  189.5060  178.1880  143.1870 C   0  0  1  0  0  3  0  0  0  0  0  0
  189.8610  177.5780  145.8790 C   0  0  0  0  0  2  0  0  0  0  0  0
  182.7630  178.5190  144.1380 C   0  0  0  0  0  2  0  0  0  0  0  0
  181.6510  179.2190  143.3770 C   0  0  0  0  0  2  0  0  0  0  0  0
  180.3990  178.3600  143.3830 C   0  0  0  0  0  2  0  0  0  0  0  0
  179.8750  178.1650  141.9680 C   0  0  0  0  0  2  0  0  0  0  0  0
  181.0110  178.3300  140.9650 C   0  0  2  0  0  3  0  0  0  0  0  0
  181.1320  178.3980  135.6300 C   0  0  0  0  0  2  0  0  0  0  0  0
  183.5430  177.3440  140.9860 F   0  0  0  0  0  0  0  0  0  0  0  0
  180.7290  179.3870  139.8440 C   0  0  1  0  0  3  0  0  0  0  0  0
  182.2650  177.9980  136.5670 C   0  0  0  0  0  2  0  0  0  0  0  0
  181.7650  177.8620  138.0130 C   0  0  1  0  0  3  0  0  0  0  0  0
  180.5780  179.7100  136.0920 C   0  0  0  0  0  3  0  0  0  0  0  0
  182.6580  177.0490  139.9590 C   0  0  0  0  0  0  0  0  0  0  0  0
  182.8490  177.9770  138.9060 O   0  0  0  0  0  0  0  0  0  0  0  0
  180.3420  179.9070  137.3930 C   0  0  0  0  0  3  0  0  0  0  0  0
  181.3250  177.0560  140.4470 O   0  0  0  0  0  0  0  0  0  0  0  0
  182.9530  175.7750  139.5000 F   0  0  0  0  0  0  0  0  0  0  0  0
  180.5910  178.8140  138.4120 C   0  0  2  0  0  3  0  0  0  0  0  0
  179.8540  181.2820  140.9700 O   0  0  0  0  0  0  0  0  0  0  0  0
  179.6460  180.3800  140.1740 C   0  0  0  0  0  3  0  0  0  0  0  0
  1  2  1  0  0  0  0
  2  4  1  1  0  0  0
  3 20  1  6  0  0  0
  3  2  1  0  0  0  0
  5  6  1  0  0  0  0
  6  3  1  0  0  0  0
  7  5  1  6  0  0  0
  7  1  1  0  0  0  0
  8 10  1  6  0  0  0
  8 17  1  0  0  0  0
 11 19  1  0  0  0  0
 12 16  2  6  0  0  0
 12  9  1  0  0  0  0
 12 11  1  0  0  0  0
 13 14  1  0  0  0  0
 15 13  1  6  0  0  0
 15  8  1  0  0  0  0
 15  7  1  0  0  0  0
 17 19  1  0  0  0  0
 18 14  1  6  0  0  0
 18  8  1  0  0  0  0
 18 12  1  0  0  0  0
 21 22  1  0  0  0  0
 21 20  1  0  0  0  0
 23 22  1  0  0  0  0
 24 23  1  1  0  0  0
 25 30  1  0  0  0  0
 25 28  1  0  0  0  0
 27 38  1  1  0  0  0
 27 24  1  0  0  0  0
 29 28  1  6  0  0  0
 29 36  1  0  0  0  0
 29 32  1  0  0  0  0
 30 33  2  0  0  0  0
 31 34  1  0  0  0  0
 31 26  1  0  0  0  0
 32 31  1  0  0  0  0
 34 24  1  0  0  0  0
 35 31  1  0  0  0  0
 36 33  1  6  0  0  0
 36 27  1  0  0  0  0
 38 37  2  0  0  0  0
M  END
>  <MODEL>
3

>  <REMARK>
 VINA RESULT:      -8.7      5.916      9.213
  Name = 
  7 active torsions:
  status: ('A' for Active; 'I' for Inactive)
    1  A    between atoms: C_2  and  C_34
    2  A    between atoms: C_7  and  C_26
    3  A    between atoms: C_16  and  C_38
    4  A    between atoms: C_20  and  C_22
    5  A    between atoms: C_20  and  C_34
    6  A    between atoms: C_21  and  C_32
    7  A    between atoms: C_22  and  C_32
                            x       y       z     vdW  Elec       q    Type
                         _______ _______ _______ _____ _____    ______ ____

>  <TORSDO>
F 7

$$$$
=
 OpenBabel11062414373D

 38 42  0  0  1  0  0  0  0  0999 V2000
  185.7730  177.9450  144.9350 C   0  0  0  0  0  2  0  0  0  0  0  0
  184.8050  178.8960  145.6280 C   0  0  1  0  0  3  0  0  0  0  0  0
  183.7720  179.4420  144.6260 C   0  0  1  0  0  3  0  0  0  0  0  0
  184.1790  178.2530  146.6970 O   0  0  0  0  0  1  0  0  0  0  0  0
  185.1940  179.1610  142.8240 C   0  0  0  0  0  2  0  0  0  0  0  0
  184.4200  180.0970  143.5500 O   0  0  0  0  0  0  0  0  0  0  0  0
  186.3400  178.6010  143.6780 C   0  0  2  0  0  3  0  0  0  0  0  0
  188.4960  177.1790  143.6540 C   0  0  1  0  0  0  0  0  0  0  0  0
  192.0810  179.1540  143.9740 O   0  0  0  0  0  1  0  0  0  0  0  0
  188.8130  175.7450  143.2210 C   0  0  0  0  0  1  0  0  0  0  0  0
  190.9180  176.9140  145.1700 O   0  0  0  0  0  0  0  0  0  0  0  0
  191.1710  177.7530  143.7050 P   0  0  2  0  0  0  0  0  0  0  0  0
  187.7210  178.1740  141.5630 C   0  0  0  0  0  2  0  0  0  0  0  0
  189.2450  178.2980  141.6510 C   0  0  0  0  0  2  0  0  0  0  0  0
  187.2260  177.6000  142.9130 C   0  0  2  0  0  3  0  0  0  0  0  0
  191.8740  176.8600  142.7080 O   0  0  0  0  0  0  0  0  0  0  0  0
  188.4600  177.2100  145.1950 C   0  0  0  0  0  2  0  0  0  0  0  0
  189.5040  178.1790  143.1300 C   0  0  1  0  0  3  0  0  0  0  0  0
  189.8380  177.5520  145.8210 C   0  0  0  0  0  2  0  0  0  0  0  0
  182.7680  178.3910  144.1400 C   0  0  0  0  0  2  0  0  0  0  0  0
  181.3850  178.9970  143.9720 C   0  0  0  0  0  2  0  0  0  0  0  0
  181.1630  179.3840  142.5210 C   0  0  0  0  0  2  0  0  0  0  0  0
  180.8510  178.1560  141.6790 C   0  0  0  0  0  2  0  0  0  0  0  0
  181.4390  178.3180  140.2820 C   0  0  2  0  0  3  0  0  0  0  0  0
  184.5920  175.2040  137.3100 C   0  0  0  0  0  2  0  0  0  0  0  0
  182.4720  180.5050  139.0440 F   0  0  0  0  0  0  0  0  0  0  0  0
  181.2410  177.0710  139.3550 C   0  0  1  0  0  3  0  0  0  0  0  0
  184.4660  176.7200  137.2320 C   0  0  0  0  0  2  0  0  0  0  0  0
  183.6570  177.2700  138.4160 C   0  0  1  0  0  3  0  0  0  0  0  0
  183.2170  174.6130  137.2900 C   0  0  0  0  0  3  0  0  0  0  0  0
  183.2290  179.3600  139.2470 C   0  0  0  0  0  0  0  0  0  0  0  0
  183.1430  178.5410  138.0940 O   0  0  0  0  0  0  0  0  0  0  0  0
  182.2560  175.1490  138.0510 C   0  0  0  0  0  3  0  0  0  0  0  0
  182.7930  178.6880  140.4190 O   0  0  0  0  0  0  0  0  0  0  0  0
  184.5460  179.7520  139.4260 F   0  0  0  0  0  0  0  0  0  0  0  0
  182.5400  176.3230  138.9650 C   0  0  2  0  0  3  0  0  0  0  0  0
  179.0450  176.1840  139.2540 O   0  0  0  0  0  0  0  0  0  0  0  0
  180.1430  176.1350  139.7840 C   0  0  0  0  0  3  0  0  0  0  0  0
  1  2  1  0  0  0  0
  2  4  1  1  0  0  0
  3 20  1  6  0  0  0
  3  2  1  0  0  0  0
  5  6  1  0  0  0  0
  6  3  1  0  0  0  0
  7  5  1  6  0  0  0
  7  1  1  0  0  0  0
  8 10  1  6  0  0  0
  8 17  1  0  0  0  0
 11 19  1  0  0  0  0
 12 16  2  6  0  0  0
 12  9  1  0  0  0  0
 12 11  1  0  0  0  0
 13 14  1  0  0  0  0
 15 13  1  6  0  0  0
 15  8  1  0  0  0  0
 15  7  1  0  0  0  0
 17 19  1  0  0  0  0
 18 14  1  6  0  0  0
 18  8  1  0  0  0  0
 18 12  1  0  0  0  0
 21 20  1  0  0  0  0
 22 21  1  0  0  0  0
 23 22  1  0  0  0  0
 24 34  1  0  0  0  0
 24 23  1  1  0  0  0
 26 31  1  0  0  0  0
 27 38  1  1  0  0  0
 27 24  1  0  0  0  0
 28 25  1  0  0  0  0
 29 28  1  6  0  0  0
 29 36  1  0  0  0  0
 30 25  1  0  0  0  0
 30 33  2  0  0  0  0
 31 35  1  0  0  0  0
 31 34  1  0  0  0  0
 32 29  1  0  0  0  0
 32 31  1  0  0  0  0
 36 33  1  6  0  0  0
 36 27  1  0  0  0  0
 37 38  2  0  0  0  0
M  END
>  <MODEL>
4

>  <REMARK>
 VINA RESULT:      -8.5      5.915      8.994
  Name = 
  7 active torsions:
  status: ('A' for Active; 'I' for Inactive)
    1  A    between atoms: C_2  and  C_34
    2  A    between atoms: C_7  and  C_26
    3  A    between atoms: C_16  and  C_38
    4  A    between atoms: C_20  and  C_22
    5  A    between atoms: C_20  and  C_34
    6  A    between atoms: C_21  and  C_32
    7  A    between atoms: C_22  and  C_32
                            x       y       z     vdW  Elec       q    Type
                         _______ _______ _______ _____ _____    ______ ____

>  <TORSDO>
F 7

$$$$
=
 OpenBabel11062414373D

 38 42  0  0  1  0  0  0  0  0999 V2000
  185.1320  176.3740  137.4920 C   0  0  0  0  0  2  0  0  0  0  0  0
  186.4320  176.8260  136.8370 C   0  0  1  0  0  3  0  0  0  0  0  0
  187.1250  177.9000  137.6940 C   0  0  1  0  0  3  0  0  0  0  0  0
  187.2720  175.7310  136.6250 O   0  0  0  0  0  1  0  0  0  0  0  0
  185.1360  178.5980  138.6430 C   0  0  0  0  0  2  0  0  0  0  0  0
  186.2660  179.0070  137.8960 O   0  0  0  0  0  0  0  0  0  0  0  0
  184.2840  177.5890  137.8600 C   0  0  2  0  0  3  0  0  0  0  0  0
  181.7470  177.8860  138.2410 C   0  0  1  0  0  0  0  0  0  0  0  0
  180.4290  181.5740  139.4740 O   0  0  0  0  0  0  0  0  0  0  0  0
  180.5830  176.9090  138.4320 C   0  0  0  0  0  1  0  0  0  0  0  0
  179.6630  179.7250  137.5260 O   0  0  0  0  0  0  0  0  0  0  0  0
  180.1720  179.9350  139.1420 P   0  0  2  0  0  0  0  0  0  0  0  0
  183.1680  177.3530  140.1540 C   0  0  0  0  0  2  0  0  0  0  0  0
  182.1280  178.3980  140.5690 C   0  0  0  0  0  2  0  0  0  0  0  0
  183.0250  177.1410  138.6270 C   0  0  2  0  0  3  0  0  0  0  0  0
  179.1400  179.3670  140.0900 O   0  0  0  0  0  1  0  0  0  0  0  0
  181.6610  178.4490  136.8090 C   0  0  0  0  0  2  0  0  0  0  0  0
  181.7300  179.0130  139.2520 C   0  0  1  0  0  3  0  0  0  0  0  0
  180.8270  179.7560  136.7270 C   0  0  0  0  0  2  0  0  0  0  0  0
  187.6950  177.3660  139.0130 C   0  0  0  0  0  2  0  0  0  0  0  0
  189.1970  177.5820  139.0840 C   0  0  0  0  0  2  0  0  0  0  0  0
  189.5860  178.0560  140.4730 C   0  0  0  0  0  2  0  0  0  0  0  0
  188.3480  178.3990  141.2880 C   0  0  0  0  0  2  0  0  0  0  0  0
  188.3450  177.6050  142.5900 C   0  0  2  0  0  3  0  0  0  0  0  0
  186.5560  178.7220  147.4920 C   0  0  0  0  0  2  0  0  0  0  0  0
  190.2360  175.9850  143.6750 F   0  0  0  0  0  0  0  0  0  0  0  0
  186.9580  177.5750  143.3180 C   0  0  1  0  0  3  0  0  0  0  0  0
  187.6780  177.7580  147.1240 C   0  0  0  0  0  2  0  0  0  0  0  0
  188.0690  177.9040  145.6450 C   0  0  1  0  0  3  0  0  0  0  0  0
  185.3700  178.4190  146.6310 C   0  0  0  0  0  3  0  0  0  0  0  0
  189.7760  177.1110  144.3420 C   0  0  0  0  0  0  0  0  0  0  0  0
  188.7180  176.7340  145.2060 O   0  0  0  0  0  0  0  0  0  0  0  0
  185.5400  178.2110  145.3210 C   0  0  0  0  0  3  0  0  0  0  0  0
  189.3800  178.1040  143.4080 O   0  0  0  0  0  0  0  0  0  0  0  0
  190.8240  177.6100  145.0990 F   0  0  0  0  0  0  0  0  0  0  0  0
  186.9090  178.3120  144.6790 C   0  0  2  0  0  3  0  0  0  0  0  0
  185.3970  179.0560  142.3230 O   0  0  0  0  0  0  0  0  0  0  0  0
  185.7790  177.9020  142.4420 C   0  0  0  0  0  3  0  0  0  0  0  0
  2  4  1  1  0  0  0
  2  1  1  0  0  0  0
  2  3  1  0  0  0  0
  3  6  1  0  0  0  0
  3 20  1  1  0  0  0
  6  5  1  0  0  0  0
  7  1  1  1  0  0  0
  7 15  1  0  0  0  0
  7  5  1  0  0  0  0
  8 10  1  1  0  0  0
  8 15  1  0  0  0  0
  8 18  1  0  0  0  0
 11 12  1  0  0  0  0
 12 18  1  0  0  0  0
 12  9  2  1  0  0  0
 12 16  1  0  0  0  0
 13 14  1  0  0  0  0
 15 13  1  1  0  0  0
 17  8  1  0  0  0  0
 18 14  1  1  0  0  0
 19 17  1  0  0  0  0
 19 11  1  0  0  0  0
 20 21  1  0  0  0  0
 21 22  1  0  0  0  0
 22 23  1  0  0  0  0
 24 23  1  6  0  0  0
 24 27  1  0  0  0  0
 24 34  1  0  0  0  0
 26 31  1  0  0  0  0
 27 38  1  6  0  0  0
 27 36  1  0  0  0  0
 28 25  1  0  0  0  0
 29 28  1  1  0  0  0
 30 25  1  0  0  0  0
 31 35  1  0  0  0  0
 31 32  1  0  0  0  0
 32 29  1  0  0  0  0
 33 30  2  0  0  0  0
 34 31  1  0  0  0  0
 36 33  1  1  0  0  0
 36 29  1  0  0  0  0
 37 38  2  0  0  0  0
M  END
>  <MODEL>
5

>  <REMARK>
 VINA RESULT:      -8.4      5.505      9.127
  Name = 
  7 active torsions:
  status: ('A' for Active; 'I' for Inactive)
    1  A    between atoms: C_2  and  C_34
    2  A    between atoms: C_7  and  C_26
    3  A    between atoms: C_16  and  C_38
    4  A    between atoms: C_20  and  C_22
    5  A    between atoms: C_20  and  C_34
    6  A    between atoms: C_21  and  C_32
    7  A    between atoms: C_22  and  C_32
                            x       y       z     vdW  Elec       q    Type
                         _______ _______ _______ _____ _____    ______ ____

>  <TORSDO>
F 7

$$$$
=
 OpenBabel11062414373D

 38 42  0  0  1  0  0  0  0  0999 V2000
  180.9950  179.6980  139.3830 C   0  0  0  0  0  2  0  0  0  0  0  0
  180.0370  179.6460  140.5670 C   0  0  1  0  0  3  0  0  0  0  0  0
  180.5520  178.6670  141.6370 C   0  0  1  0  0  3  0  0  0  0  0  0
  179.8580  180.9240  141.0990 O   0  0  0  0  0  1  0  0  0  0  0  0
  181.7300  177.4120  140.0940 C   0  0  0  0  0  2  0  0  0  0  0  0
  180.7230  177.3730  141.0870 O   0  0  0  0  0  0  0  0  0  0  0  0
  181.3070  178.2820  138.9020 C   0  0  2  0  0  3  0  0  0  0  0  0
  182.4800  177.0380  136.9670 C   0  0  1  0  0  0  0  0  0  0  0  0
  184.4810  173.5690  137.8740 O   0  0  0  0  0  1  0  0  0  0  0  0
  182.9020  177.4400  135.5510 C   0  0  0  0  0  1  0  0  0  0  0  0
  182.6580  174.3730  135.9160 O   0  0  0  0  0  0  0  0  0  0  0  0
  184.0540  174.8050  136.8000 P   0  0  2  0  0  0  0  0  0  0  0  0
  183.7880  178.5780  138.3370 C   0  0  0  0  0  2  0  0  0  0  0  0
  184.6220  177.3270  138.0410 C   0  0  0  0  0  2  0  0  0  0  0  0
  182.3650  178.3250  137.7830 C   0  0  2  0  0  3  0  0  0  0  0  0
  185.1990  175.0940  135.8560 O   0  0  0  0  0  0  0  0  0  0  0  0
  181.2190  176.1570  136.8520 C   0  0  0  0  0  2  0  0  0  0  0  0
  183.5720  176.2980  137.7090 C   0  0  1  0  0  3  0  0  0  0  0  0
  181.5510  174.6440  136.7490 C   0  0  0  0  0  2  0  0  0  0  0  0
  181.8080  179.1530  142.3670 C   0  0  0  0  0  2  0  0  0  0  0  0
  181.7370  178.8290  143.8490 C   0  0  0  0  0  2  0  0  0  0  0  0
  183.1360  178.7950  144.4390 C   0  0  0  0  0  2  0  0  0  0  0  0
  184.1290  178.2340  143.4320 C   0  0  0  0  0  2  0  0  0  0  0  0
  185.5540  178.4580  143.9250 C   0  0  2  0  0  3  0  0  0  0  0  0
  190.1280  175.8550  143.0430 C   0  0  0  0  0  2  0  0  0  0  0  0
  186.4790  179.2090  146.3670 F   0  0  0  0  0  0  0  0  0  0  0  0
  186.6350  178.4320  142.7930 C   0  0  1  0  0  3  0  0  0  0  0  0
  189.7710  176.6910  144.2660 C   0  0  0  0  0  2  0  0  0  0  0  0
  188.2800  177.0610  144.2670 C   0  0  1  0  0  3  0  0  0  0  0  0
  189.8120  176.6530  141.8160 C   0  0  0  0  0  3  0  0  0  0  0  0
  186.8520  178.0040  145.7880 C   0  0  0  0  0  0  0  0  0  0  0  0
  188.0690  178.1880  145.0850 O   0  0  0  0  0  0  0  0  0  0  0  0
  188.6530  177.3160  141.7390 C   0  0  0  0  0  3  0  0  0  0  0  0
  185.8130  177.5230  144.9500 O   0  0  0  0  0  0  0  0  0  0  0  0
  187.0540  177.0910  146.8100 F   0  0  0  0  0  0  0  0  0  0  0  0
  187.6320  177.2480  142.8570 C   0  0  2  0  0  3  0  0  0  0  0  0
  185.6940  179.7620  141.0710 O   0  0  0  0  0  0  0  0  0  0  0  0
  186.1000  178.6610  141.4050 C   0  0  0  0  0  3  0  0  0  0  0  0
  1  2  1  0  0  0  0
  2  4  1  1  0  0  0
  2  3  1  0  0  0  0
  3 20  1  6  0  0  0
  5  6  1  0  0  0  0
  6  3  1  0  0  0  0
  7  1  1  1  0  0  0
  7  5  1  0  0  0  0
  8 10  1  6  0  0  0
  8 18  1  0  0  0  0
  8 15  1  0  0  0  0
 11 19  1  0  0  0  0
 11 12  1  0  0  0  0
 12 16  2  6  0  0  0
 12 18  1  0  0  0  0
 12  9  1  0  0  0  0
 14 13  1  0  0  0  0
 15 13  1  1  0  0  0
 15  7  1  0  0  0  0
 17  8  1  0  0  0  0
 18 14  1  6  0  0  0
 19 17  1  0  0  0  0
 20 21  1  0  0  0  0
 21 22  1  0  0  0  0
 23 22  1  0  0  0  0
 24 23  1  6  0  0  0
 24 34  1  0  0  0  0
 25 28  1  0  0  0  0
 27 38  1  6  0  0  0
 27 36  1  0  0  0  0
 27 24  1  0  0  0  0
 29 28  1  6  0  0  0
 29 32  1  0  0  0  0
 30 25  1  0  0  0  0
 31 26  1  0  0  0  0
 31 35  1  0  0  0  0
 32 31  1  0  0  0  0
 33 30  2  0  0  0  0
 34 31  1  0  0  0  0
 36 33  1  6  0  0  0
 36 29  1  0  0  0  0
 37 38  2  0  0  0  0
M  END
>  <MODEL>
6

>  <REMARK>
 VINA RESULT:      -8.4      6.090      9.191
  Name = 
  7 active torsions:
  status: ('A' for Active; 'I' for Inactive)
    1  A    between atoms: C_2  and  C_34
    2  A    between atoms: C_7  and  C_26
    3  A    between atoms: C_16  and  C_38
    4  A    between atoms: C_20  and  C_22
    5  A    between atoms: C_20  and  C_34
    6  A    between atoms: C_21  and  C_32
    7  A    between atoms: C_22  and  C_32
                            x       y       z     vdW  Elec       q    Type
                         _______ _______ _______ _____ _____    ______ ____

>  <TORSDO>
F 7

$$$$
=
 OpenBabel11062414373D

 38 42  0  0  1  0  0  0  0  0999 V2000
  191.3290  177.0610  140.0780 C   0  0  0  0  0  2  0  0  0  0  0  0
  191.1940  177.7500  141.4310 C   0  0  1  0  0  3  0  0  0  0  0  0
  189.7250  177.7550  141.8910 C   0  0  1  0  0  3  0  0  0  0  0  0
  192.0150  177.1280  142.3730 O   0  0  0  0  0  1  0  0  0  0  0  0
  188.9210  177.6510  139.7260 C   0  0  0  0  0  2  0  0  0  0  0  0
  188.9050  178.3930  140.9300 O   0  0  0  0  0  0  0  0  0  0  0  0
  190.3200  177.6450  139.0920 C   0  0  2  0  0  3  0  0  0  0  0  0
  189.2710  177.2380  136.7680 C   0  0  1  0  0  0  0  0  0  0  0  0
  185.3720  175.9570  136.6390 O   0  0  0  0  0  1  0  0  0  0  0  0
  189.8500  177.0470  135.3630 C   0  0  0  0  0  1  0  0  0  0  0  0
  186.8770  177.9170  135.3380 O   0  0  0  0  0  0  0  0  0  0  0  0
  186.8510  176.3030  135.8940 P   0  0  2  0  0  0  0  0  0  0  0  0
  190.2340  175.3430  137.9690 C   0  0  0  0  0  2  0  0  0  0  0  0
  188.9270  174.9090  137.2980 C   0  0  0  0  0  2  0  0  0  0  0  0
  190.3730  176.8710  137.7610 C   0  0  2  0  0  3  0  0  0  0  0  0
  187.0900  175.3520  134.7440 O   0  0  0  0  0  0  0  0  0  0  0  0
  188.6900  178.6640  136.8500 C   0  0  0  0  0  2  0  0  0  0  0  0
  188.2050  176.2160  137.0990 C   0  0  1  0  0  3  0  0  0  0  0  0
  187.1900  178.7250  136.4530 C   0  0  0  0  0  2  0  0  0  0  0  0
  189.1930  176.3700  142.2740 C   0  0  0  0  0  2  0  0  0  0  0  0
  188.8690  176.3010  143.7560 C   0  0  0  0  0  2  0  0  0  0  0  0
  188.3080  177.6310  144.2250 C   0  0  0  0  0  2  0  0  0  0  0  0
  186.8360  177.4950  144.5840 C   0  0  0  0  0  2  0  0  0  0  0  0
  186.0010  178.4400  143.7270 C   0  0  2  0  0  3  0  0  0  0  0  0
  180.8690  178.4020  142.2640 C   0  0  0  0  0  2  0  0  0  0  0  0
  186.6210  179.7530  141.4310 F   0  0  0  0  0  0  0  0  0  0  0  0
  184.6400  178.8620  144.3770 C   0  0  1  0  0  3  0  0  0  0  0  0
  182.0300  179.0460  141.5170 C   0  0  0  0  0  2  0  0  0  0  0  0
  183.3780  178.6230  142.1180 C   0  0  1  0  0  3  0  0  0  0  0  0
  180.9330  178.8300  143.6970 C   0  0  0  0  0  3  0  0  0  0  0  0
  185.5680  178.8520  141.4890 C   0  0  0  0  0  0  0  0  0  0  0  0
  184.3720  179.5580  141.7680 O   0  0  0  0  0  0  0  0  0  0  0  0
  182.1060  178.8180  144.3390 C   0  0  0  0  0  3  0  0  0  0  0  0
  185.8390  177.8480  142.4560 O   0  0  0  0  0  0  0  0  0  0  0  0
  185.4600  178.2490  140.2460 F   0  0  0  0  0  0  0  0  0  0  0  0
  183.3720  178.3430  143.6560 C   0  0  2  0  0  3  0  0  0  0  0  0
  185.2990  179.3210  146.6090 O   0  0  0  0  0  0  0  0  0  0  0  0
  184.5710  178.6770  145.8700 C   0  0  0  0  0  3  0  0  0  0  0  0
  1  2  1  0  0  0  0
  2  3  1  0  0  0  0
  2  4  1  1  0  0  0
  3 20  1  6  0  0  0
  5  6  1  0  0  0  0
  6  3  1  0  0  0  0
  7  5  1  1  0  0  0
  7  1  1  0  0  0  0
  8 10  1  6  0  0  0
  8 17  1  0  0  0  0
  8 18  1  0  0  0  0
  8 15  1  0  0  0  0
 11 12  1  0  0  0  0
 11 19  1  0  0  0  0
 12 16  2  6  0  0  0
 12  9  1  0  0  0  0
 12 18  1  0  0  0  0
 14 13  1  0  0  0  0
 15 13  1  1  0  0  0
 15  7  1  0  0  0  0
 18 14  1  6  0  0  0
 19 17  1  0  0  0  0
 20 21  1  0  0  0  0
 21 22  1  0  0  0  0
 22 23  1  0  0  0  0
 24 27  1  0  0  0  0
 24 23  1  1  0  0  0
 25 30  1  0  0  0  0
 26 31  1  0  0  0  0
 27 38  1  1  0  0  0
 28 25  1  0  0  0  0
 29 28  1  1  0  0  0
 29 36  1  0  0  0  0
 30 33  2  0  0  0  0
 31 32  1  0  0  0  0
 31 34  1  0  0  0  0
 32 29  1  0  0  0  0
 34 24  1  0  0  0  0
 35 31  1  0  0  0  0
 36 33  1  1  0  0  0
 36 27  1  0  0  0  0
 38 37  2  0  0  0  0
M  END
>  <MODEL>
7

>  <REMARK>
 VINA RESULT:      -8.3      4.122      6.198
  Name = 
  7 active torsions:
  status: ('A' for Active; 'I' for Inactive)
    1  A    between atoms: C_2  and  C_34
    2  A    between atoms: C_7  and  C_26
    3  A    between atoms: C_16  and  C_38
    4  A    between atoms: C_20  and  C_22
    5  A    between atoms: C_20  and  C_34
    6  A    between atoms: C_21  and  C_32
    7  A    between atoms: C_22  and  C_32
                            x       y       z     vdW  Elec       q    Type
                         _______ _______ _______ _____ _____    ______ ____

>  <TORSDO>
F 7

$$$$
=
 OpenBabel11062414373D

 38 42  0  0  1  0  0  0  0  0999 V2000
  184.0740  177.7050  139.8470 C   0  0  0  0  0  2  0  0  0  0  0  0
  184.2150  179.1150  140.4080 C   0  0  1  0  0  3  0  0  0  0  0  0
  183.2360  179.3330  141.5750 C   0  0  1  0  0  3  0  0  0  0  0  0
  185.5330  179.3460  140.8060 O   0  0  0  0  0  1  0  0  0  0  0  0
  181.7530  177.7450  140.7860 C   0  0  0  0  0  2  0  0  0  0  0  0
  181.9030  179.1020  141.1570 O   0  0  0  0  0  0  0  0  0  0  0  0
  182.6060  177.4040  139.5560 C   0  0  2  0  0  3  0  0  0  0  0  0
  182.3690  175.7510  137.5860 C   0  0  1  0  0  0  0  0  0  0  0  0
  179.1520  176.2280  135.0790 O   0  0  0  0  0  0  0  0  0  0  0  0
  182.9790  174.3820  137.2730 C   0  0  0  0  0  1  0  0  0  0  0  0
  181.8970  175.8270  134.7560 O   0  0  0  0  0  0  0  0  0  0  0  0
  180.5010  175.3640  135.6230 P   0  0  2  0  0  0  0  0  0  0  0  0
  181.1510  175.2970  139.6540 C   0  0  0  0  0  2  0  0  0  0  0  0
  180.2540  174.9750  138.4540 C   0  0  0  0  0  2  0  0  0  0  0  0
  182.4460  175.9410  139.1010 C   0  0  2  0  0  3  0  0  0  0  0  0
  180.2630  173.8790  135.4720 O   0  0  0  0  0  1  0  0  0  0  0  0
  183.0780  176.7970  136.7040 C   0  0  0  0  0  2  0  0  0  0  0  0
  180.8750  175.7870  137.3470 C   0  0  1  0  0  3  0  0  0  0  0  0
  182.3620  177.0240  135.3460 C   0  0  0  0  0  2  0  0  0  0  0  0
  183.5900  178.5380  142.8360 C   0  0  0  0  0  2  0  0  0  0  0  0
  184.7000  179.2200  143.6170 C   0  0  0  0  0  2  0  0  0  0  0  0
  184.8530  178.5660  144.9780 C   0  0  0  0  0  2  0  0  0  0  0  0
  185.9450  177.5070  144.9440 C   0  0  0  0  0  2  0  0  0  0  0  0
  187.1610  177.9870  145.7290 C   0  0  2  0  0  3  0  0  0  0  0  0
  191.9030  175.7640  146.7510 C   0  0  0  0  0  2  0  0  0  0  0  0
  187.3230  179.3520  148.0720 F   0  0  0  0  0  0  0  0  0  0  0  0
  188.5190  177.8290  144.9660 C   0  0  1  0  0  3  0  0  0  0  0  0
  191.1780  176.8050  147.5960 C   0  0  0  0  0  2  0  0  0  0  0  0
  189.7350  177.0030  147.1100 C   0  0  1  0  0  3  0  0  0  0  0  0
  191.9150  176.2330  145.3290 C   0  0  0  0  0  3  0  0  0  0  0  0
  187.8950  178.0980  147.9230 C   0  0  0  0  0  0  0  0  0  0  0  0
  189.2520  178.2520  147.5450 O   0  0  0  0  0  0  0  0  0  0  0  0
  190.7990  176.7340  144.7890 C   0  0  0  0  0  3  0  0  0  0  0  0
  187.1580  177.3340  146.9800 O   0  0  0  0  0  0  0  0  0  0  0  0
  187.8360  177.4590  149.1510 F   0  0  0  0  0  0  0  0  0  0  0  0
  189.5060  176.8030  145.5770 C   0  0  2  0  0  3  0  0  0  0  0  0
  188.6980  178.6100  142.7350 O   0  0  0  0  0  0  0  0  0  0  0  0
  188.3910  177.6880  143.4730 C   0  0  0  0  0  3  0  0  0  0  0  0
  1  2  1  0  0  0  0
  2  4  1  1  0  0  0
  2  3  1  0  0  0  0
  3 20  1  1  0  0  0
  5  6  1  0  0  0  0
  6  3  1  0  0  0  0
  7  1  1  1  0  0  0
  7  5  1  0  0  0  0
  8 10  1  6  0  0  0
  8 15  1  0  0  0  0
 11 19  1  0  0  0  0
 11 12  1  0  0  0  0
 12  9  2  6  0  0  0
 12 18  1  0  0  0  0
 14 13  1  0  0  0  0
 15  7  1  0  0  0  0
 15 13  1  1  0  0  0
 16 12  1  0  0  0  0
 17  8  1  0  0  0  0
 18  8  1  0  0  0  0
 18 14  1  1  0  0  0
 19 17  1  0  0  0  0
 20 21  1  0  0  0  0
 21 22  1  0  0  0  0
 23 22  1  0  0  0  0
 24 23  1  6  0  0  0
 24 34  1  0  0  0  0
 25 28  1  0  0  0  0
 27 38  1  6  0  0  0
 27 36  1  0  0  0  0
 27 24  1  0  0  0  0
 29 32  1  0  0  0  0
 29 28  1  6  0  0  0
 30 25  1  0  0  0  0
 31 26  1  0  0  0  0
 31 35  1  0  0  0  0
 32 31  1  0  0  0  0
 33 30  2  0  0  0  0
 34 31  1  0  0  0  0
 36 33  1  6  0  0  0
 36 29  1  0  0  0  0
 37 38  2  0  0  0  0
M  END
>  <MODEL>
8

>  <REMARK>
 VINA RESULT:      -8.1      7.179      9.808
  Name = 
  7 active torsions:
  status: ('A' for Active; 'I' for Inactive)
    1  A    between atoms: C_2  and  C_34
    2  A    between atoms: C_7  and  C_26
    3  A    between atoms: C_16  and  C_38
    4  A    between atoms: C_20  and  C_22
    5  A    between atoms: C_20  and  C_34
    6  A    between atoms: C_21  and  C_32
    7  A    between atoms: C_22  and  C_32
                            x       y       z     vdW  Elec       q    Type
                         _______ _______ _______ _____ _____    ______ ____

>  <TORSDO>
F 7

$$$$
=
 OpenBabel11062414373D

 38 42  0  0  1  0  0  0  0  0999 V2000
  181.6190  179.1360  141.6290 C   0  0  0  0  0  2  0  0  0  0  0  0
  181.5840  178.6360  143.0690 C   0  0  1  0  0  3  0  0  0  0  0  0
  183.0070  178.5620  143.6500 C   0  0  1  0  0  3  0  0  0  0  0  0
  180.7640  179.4570  143.8450 O   0  0  0  0  0  1  0  0  0  0  0  0
  183.9730  178.2860  141.5680 C   0  0  0  0  0  2  0  0  0  0  0  0
  183.8260  177.7220  142.8580 O   0  0  0  0  0  0  0  0  0  0  0  0
  182.6330  178.3300  140.8210 C   0  0  2  0  0  3  0  0  0  0  0  0
  182.4350  177.9190  138.2790 C   0  0  1  0  0  0  0  0  0  0  0  0
  184.8220  175.0130  136.6310 O   0  0  0  0  0  1  0  0  0  0  0  0
  181.8510  178.7290  137.1180 C   0  0  0  0  0  1  0  0  0  0  0  0
  182.1220  175.7110  136.4730 O   0  0  0  0  0  0  0  0  0  0  0  0
  183.7270  176.2950  136.4940 P   0  0  2  0  0  0  0  0  0  0  0  0
  184.1900  179.4080  139.0960 C   0  0  0  0  0  2  0  0  0  0  0  0
  184.7500  178.5300  137.9710 C   0  0  0  0  0  2  0  0  0  0  0  0
  182.7560  178.9090  139.3990 C   0  0  2  0  0  3  0  0  0  0  0  0
  184.0080  177.0890  135.2390 O   0  0  0  0  0  0  0  0  0  0  0  0
  181.4490  176.7790  138.6030 C   0  0  0  0  0  2  0  0  0  0  0  0
  183.8040  177.3570  137.9630 C   0  0  1  0  0  3  0  0  0  0  0  0
  181.7590  175.4760  137.8170 C   0  0  0  0  0  2  0  0  0  0  0  0
  183.6490  179.9330  143.8890 C   0  0  0  0  0  2  0  0  0  0  0  0
  184.9390  179.8010  144.6790 C   0  0  0  0  0  2  0  0  0  0  0  0
  184.8650  178.5880  145.5900 C   0  0  0  0  0  2  0  0  0  0  0  0
  186.0050  177.6250  145.2940 C   0  0  0  0  0  2  0  0  0  0  0  0
  187.2620  178.0620  146.0380 C   0  0  2  0  0  3  0  0  0  0  0  0
  191.9880  175.7110  146.8250 C   0  0  0  0  0  2  0  0  0  0  0  0
  187.5510  179.3780  148.3970 F   0  0  0  0  0  0  0  0  0  0  0  0
  188.5850  177.8880  145.2180 C   0  0  1  0  0  3  0  0  0  0  0  0
  191.3230  176.7520  147.7180 C   0  0  0  0  0  2  0  0  0  0  0  0
  189.8650  176.9920  147.2950 C   0  0  1  0  0  3  0  0  0  0  0  0
  191.9540  176.2080  145.4130 C   0  0  0  0  0  3  0  0  0  0  0  0
  188.0870  178.1130  148.2020 C   0  0  0  0  0  0  0  0  0  0  0  0
  189.4310  178.2440  147.7720 O   0  0  0  0  0  0  0  0  0  0  0  0
  190.8290  176.7440  144.9280 C   0  0  0  0  0  3  0  0  0  0  0  0
  187.2940  177.3860  147.2760 O   0  0  0  0  0  0  0  0  0  0  0  0
  188.0620  177.4520  149.4190 F   0  0  0  0  0  0  0  0  0  0  0  0
  189.5710  176.8280  145.7690 C   0  0  2  0  0  3  0  0  0  0  0  0
  188.3210  176.6840  143.1920 O   0  0  0  0  0  0  0  0  0  0  0  0
  188.3940  177.7780  143.7290 C   0  0  0  0  0  3  0  0  0  0  0  0
  1  2  1  0  0  0  0
  2  3  1  0  0  0  0
  2  4  1  1  0  0  0
  3 20  1  6  0  0  0
  5  6  1  0  0  0  0
  6  3  1  0  0  0  0
  7  5  1  1  0  0  0
  7  1  1  0  0  0  0
  8 10  1  6  0  0  0
  8 17  1  0  0  0  0
  8 15  1  0  0  0  0
 11 12  1  0  0  0  0
 11 19  1  0  0  0  0
 12 16  2  6  0  0  0
 12  9  1  0  0  0  0
 12 18  1  0  0  0  0
 14 13  1  0  0  0  0
 15 13  1  6  0  0  0
 15  7  1  0  0  0  0
 18 14  1  6  0  0  0
 18  8  1  0  0  0  0
 19 17  1  0  0  0  0
 20 21  1  0  0  0  0
 21 22  1  0  0  0  0
 23 22  1  0  0  0  0
 24 23  1  6  0  0  0
 24 34  1  0  0  0  0
 25 28  1  0  0  0  0
 27 38  1  6  0  0  0
 27 36  1  0  0  0  0
 27 24  1  0  0  0  0
 29 28  1  6  0  0  0
 29 32  1  0  0  0  0
 30 25  1  0  0  0  0
 31 26  1  0  0  0  0
 31 35  1  0  0  0  0
 32 31  1  0  0  0  0
 33 30  2  0  0  0  0
 34 31  1  0  0  0  0
 36 33  1  6  0  0  0
 36 29  1  0  0  0  0
 37 38  2  0  0  0  0
M  END
>  <MODEL>
9

>  <REMARK>
 VINA RESULT:      -8.1      6.908      9.394
  Name = 
  7 active torsions:
  status: ('A' for Active; 'I' for Inactive)
    1  A    between atoms: C_2  and  C_34
    2  A    between atoms: C_7  and  C_26
    3  A    between atoms: C_16  and  C_38
    4  A    between atoms: C_20  and  C_22
    5  A    between atoms: C_20  and  C_34
    6  A    between atoms: C_21  and  C_32
    7  A    between atoms: C_22  and  C_32
                            x       y       z     vdW  Elec       q    Type
                         _______ _______ _______ _____ _____    ______ ____

>  <TORSDO>
F 7

$$$$
