=
 OpenBabel11062415213D

 70 77  0  0  1  0  0  0  0  0999 V2000
  190.2170  177.4180  139.3770 C   0  0  0  0  0  2  0  0  0  0  0  0
  188.9530  178.2110  139.1580 C   0  0  1  0  0  0  0  0  0  0  0  0
  189.6770  176.2540  138.7870 O   0  0  0  0  0  0  0  0  0  0  0  0
  189.2150  179.3300  138.1450 C   0  0  0  0  0  1  0  0  0  0  0  0
  188.4360  176.8910  138.6140 C   0  0  2  0  0  3  0  0  0  0  0  0
  186.7630  178.2690  140.3550 C   0  0  0  0  0  2  0  0  0  0  0  0
  186.0030  178.9110  141.3300 O   0  0  0  0  0  0  0  0  0  0  0  0
  185.8140  177.9450  142.3190 C   0  0  1  0  0  3  0  0  0  0  0  0
  188.1990  177.5320  142.7540 N   0  0  0  0  0  0  0  0  0  0  0  0
  188.8900  178.2900  141.7460 C   0  0  0  0  0  0  0  0  0  0  0  0
  186.9420  178.0050  143.3330 C   0  0  0  0  0  2  0  0  0  0  0  0
  188.2260  178.7000  140.4360 C   0  0  1  0  0  3  0  0  0  0  0  0
  190.0840  178.6290  141.9530 O   0  0  0  0  0  0  0  0  0  0  0  0
  188.8660  176.3740  143.3480 C   0  0  0  0  0  2  0  0  0  0  0  0
  190.8470  176.5970  144.8930 C   0  0  0  0  0  0  0  0  0  0  0  0
  189.4360  176.7140  144.6480 N   0  0  0  0  0  0  0  0  0  0  0  0
  191.5780  175.9640  144.0870 O   0  0  0  0  0  0  0  0  0  0  0  0
  188.5500  177.2780  145.6550 C   0  0  0  0  0  1  0  0  0  0  0  0
  191.6000  177.3510  146.3410 S   0  0  0  0  0  0  0  0  0  0  0  0
  191.5380  175.8140  147.3190 C   0  0  1  0  0  3  0  0  0  0  0  0
  192.8050  175.6780  148.5930 P   0  0  0  0  0  0  0  0  0  0  0  0
  190.2020  175.1850  147.6570 C   0  0  0  0  0  1  0  0  0  0  0  0
  192.5070  174.9320  147.0370 O   0  0  0  0  0  0  0  0  0  0  0  0
  194.1000  176.4450  148.4710 O   0  0  0  0  0  0  0  0  0  0  0  0
  192.8250  174.4270  149.7260 O   0  0  0  0  0  0  0  0  0  0  0  0
  184.5100  178.1070  142.9660 N   0  0  0  0  0  2  0  0  0  0  0  0
  183.8690  179.3380  142.5190 C   0  0  0  0  0  2  0  0  0  0  0  0
  182.4010  179.3230  142.8930 C   0  0  2  0  0  3  0  0  0  0  0  0
  182.2080  178.5110  144.0140 O   0  0  0  0  0  1  0  0  0  0  0  0
  181.5920  178.7840  141.7270 C   0  0  0  0  0  2  0  0  0  0  0  0
  180.2720  179.4080  141.7060 N   0  0  0  0  0  0  0  0  0  0  0  0
  179.8790  179.6160  142.9890 O   0  0  0  0  0  1  0  0  0  0  0  0
  179.3490  178.5370  141.0780 N   0  0  0  0  0  2  0  0  0  0  0  0
  179.2610  176.2330  140.3030 C   0  0  0  0  0  1  0  0  0  0  0  0
  179.5870  177.1410  141.4670 C   0  0  0  0  0  2  0  0  0  0  0  0
  187.9380  176.8520  137.1620 C   0  0  0  0  0  2  0  0  0  0  0  0
  187.0600  178.0270  136.7500 C   0  0  0  0  0  2  0  0  0  0  0  0
  185.7050  177.7620  136.9950 O   0  0  0  0  0  0  0  0  0  0  0  0
  186.0130  176.9160  134.8190 O   0  0  0  0  0  1  0  0  0  0  0  0
  185.0900  177.2340  135.8260 C   0  0  1  0  0  3  0  0  0  0  0  0
  182.7730  176.4970  135.6450 C   0  0  1  0  0  3  0  0  0  0  0  0
  184.1280  176.1360  136.0620 N   0  0  0  0  0  0  0  0  0  0  0  0
  182.2990  175.6130  134.6550 O   0  0  0  0  0  0  0  0  0  0  0  0
  184.4870  174.9870  135.2600 C   0  0  2  0  0  3  0  0  0  0  0  0
  183.2070  174.5490  134.5960 C   0  0  0  0  0  2  0  0  0  0  0  0
  180.5180  179.1130  136.1700 C   0  0  1  0  0  3  0  0  0  0  0  0
  182.2560  177.4240  137.9960 C   0  0  0  0  0  0  0  0  0  0  0  0
  179.6310  180.3290  135.9150 C   0  0  0  0  0  2  0  0  0  0  0  0
  181.4330  179.6270  137.2000 C   0  0  0  0  0  0  0  0  0  0  0  0
  180.3920  176.6790  136.3900 N   0  0  0  0  0  0  0  0  0  0  0  0
  182.2070  178.9060  138.0220 C   0  0  0  0  0  0  0  0  0  0  0  0
  182.7630  176.8250  138.9800 O   0  0  0  0  0  0  0  0  0  0  0  0
  180.3550  181.5190  136.3940 N   0  0  2  0  0  0  0  0  0  0  0  0
  181.3000  181.0260  137.3030 N   0  0  0  0  0  2  0  0  0  0  0  0
  179.7240  177.9430  136.7210 C   0  0  0  0  0  2  0  0  0  0  0  0
  181.8010  176.5760  136.8250 C   0  0  1  0  0  3  0  0  0  0  0  0
  182.9590  179.5740  138.9880 O   0  0  0  0  0  1  0  0  0  0  0  0
  179.4140  182.3370  137.1410 C   0  0  2  0  0  3  0  0  0  0  0  0
  180.0660  183.6040  137.5350 C   0  0  0  0  0  2  0  0  0  0  0  0
  179.9060  182.5390  138.4440 O   0  0  0  0  0  0  0  0  0  0  0  0
  179.7050  175.6850  137.0050 O   0  0  0  0  0  0  0  0  0  0  0  0
  179.6210  174.6620  136.0510 C   0  0  0  0  0  2  0  0  0  0  0  0
  179.9200  173.4190  138.1620 C   0  0  0  0  0  2  0  0  0  0  0  0
  178.9310  172.6560  137.3100 C   0  0  0  0  0  2  0  0  0  0  0  0
  180.1030  173.3580  136.6590 C   0  0  0  0  0  3  0  0  0  0  0  0
  184.9300  173.8360  137.5040 C   0  0  0  0  0  3  0  0  0  0  0  0
  185.7560  172.8840  135.7140 O   0  0  0  0  0  0  0  0  0  0  0  0
  185.5880  172.7290  137.9010 N   0  0  0  0  0  0  0  0  0  0  0  0
  185.0470  173.9050  136.1330 C   0  0  0  0  0  0  0  0  0  0  0  0
  186.0800  172.1770  136.7690 C   0  0  0  0  0  3  0  0  0  0  0  0
  2  4  1  6  0  0  0
  2  1  1  0  0  0  0
  2 12  1  0  0  0  0
  3  1  1  0  0  0  0
  5 36  1  6  0  0  0
  5  3  1  0  0  0  0
  5  2  1  0  0  0  0
  6  7  1  0  0  0  0
  7  8  1  0  0  0  0
  8 26  1  1  0  0  0
  8 11  1  0  0  0  0
  9 11  1  0  0  0  0
  9 14  1  0  0  0  0
 10 13  2  0  0  0  0
 10  9  1  0  0  0  0
 12  6  1  1  0  0  0
 12 10  1  0  0  0  0
 14 16  1  0  0  0  0
 15 19  1  0  0  0  0
 16 15  1  0  0  0  0
 16 18  1  0  0  0  0
 17 15  2  0  0  0  0
 19 20  1  0  0  0  0
 20 22  1  6  0  0  0
 21 25  2  0  0  0  0
 23 20  1  0  0  0  0
 23 21  1  0  0  0  0
 24 21  2  0  0  0  0
 27 28  1  0  0  0  0
 27 26  1  0  0  0  0
 28 29  1  1  0  0  0
 30 28  1  0  0  0  0
 31 30  1  0  0  0  0
 31 32  1  0  0  0  0
 33 35  1  0  0  0  0
 33 31  1  0  0  0  0
 34 35  1  0  0  0  0
 37 38  1  0  0  0  0
 37 36  1  0  0  0  0
 40 39  1  6  0  0  0
 40 42  1  0  0  0  0
 40 38  1  0  0  0  0
 41 43  1  6  0  0  0
 41 42  1  0  0  0  0
 41 56  1  0  0  0  0
 44 42  1  0  0  0  0
 44 69  1  1  0  0  0
 45 43  1  0  0  0  0
 45 44  1  0  0  0  0
 46 48  1  1  0  0  0
 46 55  1  0  0  0  0
 46 49  1  0  0  0  0
 47 51  1  0  0  0  0
 47 52  2  0  0  0  0
 49 54  1  0  0  0  0
 49 51  2  0  0  0  0
 50 55  1  0  0  0  0
 50 56  1  0  0  0  0
 50 61  1  0  0  0  0
 51 57  1  0  0  0  0
 53 48  1  1  0  0  0
 53 58  1  0  0  0  0
 53 54  1  0  0  0  0
 56 47  1  6  0  0  0
 58 59  1  6  0  0  0
 58 60  1  0  0  0  0
 59 60  1  0  0  0  0
 62 65  1  0  0  0  0
 62 61  1  0  0  0  0
 64 63  1  0  0  0  0
 65 64  1  0  0  0  0
 65 63  1  0  0  0  0
 66 68  1  0  0  0  0
 67 69  1  0  0  0  0
 67 70  1  0  0  0  0
 69 66  2  0  0  0  0
 70 68  2  0  0  0  0
M  END
>  <MODEL>
1

>  <REMARK>
 VINA RESULT:      -4.3      0.000      0.000
  Name = 
  23 active torsions:
  status: ('A' for Active; 'I' for Inactive)
    1  A    between atoms: C_1  and  N_7
    2  A    between atoms: C_1  and  C_10
    3  A    between atoms: C_5  and  S_65
    4  A    between atoms: N_7  and  C_18
    5  A    between atoms: C_10  and  C_32
    6  A    between atoms: C_11  and  C_64
    7  A    between atoms: N_14  and  C_40
    8  A    between atoms: N_15  and  N_50
    9  A    between atoms: N_15  and  C_69
   10  A    between atoms: C_16  and  S_65
   11  A    between atoms: C_19  and  C_59
   12  A    between atoms: N_21  and  C_36
   13  A    between atoms: O_22  and  C_36
   14  A    between atoms: O_22  and  C_55
   15  A    between atoms: O_24  and  N_26
   16  A    between atoms: O_24  and  C_34
   17  A    between atoms: C_32  and  N_50
   18  A    between atoms: C_33  and  N_37
   19  A    between atoms: C_34  and  C_48
   20  A    between atoms: C_38  and  C_43
   21  A    between atoms: C_40  and  N_41
   22  A    between atoms: C_55  and  C_70
   23  A    between atoms: C_62  and  C_70
                            x       y       z     vdW  Elec       q    Type
                         _______ _______ _______ _____ _____    ______ ____

>  <TORSDO>
F 23

$$$$
=
 OpenBabel11062415213D

 70 77  0  0  1  0  0  0  0  0999 V2000
  184.7420  177.4030  137.0570 C   0  0  0  0  0  2  0  0  0  0  0  0
  184.0760  176.9150  135.7950 C   0  0  1  0  0  0  0  0  0  0  0  0
  185.4720  176.2050  137.2230 O   0  0  0  0  0  0  0  0  0  0  0  0
  184.5570  177.7500  134.6030 C   0  0  0  0  0  1  0  0  0  0  0  0
  184.8420  175.6400  136.1010 C   0  0  2  0  0  3  0  0  0  0  0  0
  182.2000  175.2720  135.9060 C   0  0  0  0  0  2  0  0  0  0  0  0
  180.8420  175.0630  135.6810 O   0  0  0  0  0  0  0  0  0  0  0  0
  180.3110  174.8160  136.9470 C   0  0  1  0  0  3  0  0  0  0  0  0
  181.0330  176.9370  137.9620 N   0  0  0  0  0  0  0  0  0  0  0  0
  181.8550  177.5600  136.9590 C   0  0  0  0  0  0  0  0  0  0  0  0
  179.8780  176.1180  137.5970 C   0  0  0  0  0  2  0  0  0  0  0  0
  182.5360  176.7620  135.8530 C   0  0  1  0  0  3  0  0  0  0  0  0
  182.0150  178.8070  136.9950 O   0  0  0  0  0  0  0  0  0  0  0  0
  181.2400  177.2920  139.3650 C   0  0  0  0  0  2  0  0  0  0  0  0
  181.2830  179.7280  140.0180 C   0  0  0  0  0  0  0  0  0  0  0  0
  180.5500  178.5360  139.6930 N   0  0  0  0  0  0  0  0  0  0  0  0
  182.5130  179.6630  140.2760 O   0  0  0  0  0  0  0  0  0  0  0  0
  179.1000  178.5620  139.5740 C   0  0  0  0  0  1  0  0  0  0  0  0
  180.4710  181.3320  140.0590 S   0  0  0  0  0  0  0  0  0  0  0  0
  181.2960  181.9210  138.5450 C   0  0  1  0  0  3  0  0  0  0  0  0
  180.4270  183.2380  137.6740 P   0  0  0  0  0  0  0  0  0  0  0  0
  182.8080  181.9840  138.4810 C   0  0  0  0  0  1  0  0  0  0  0  0
  180.7130  181.5320  137.4020 O   0  0  0  0  0  0  0  0  0  0  0  0
  178.9360  183.4120  137.8400 O   0  0  0  0  0  0  0  0  0  0  0  0
  181.0940  184.0510  136.3540 O   0  0  0  0  0  0  0  0  0  0  0  0
  179.2000  173.8650  136.8730 N   0  0  0  0  0  2  0  0  0  0  0  0
  179.1070  173.2940  135.5340 C   0  0  0  0  0  2  0  0  0  0  0  0
  179.9960  172.0700  135.4300 C   0  0  2  0  0  3  0  0  0  0  0  0
  179.2310  170.9160  135.6190 O   0  0  0  0  0  1  0  0  0  0  0  0
  181.0790  172.1450  136.4910 C   0  0  0  0  0  2  0  0  0  0  0  0
  182.3930  172.0030  135.8710 N   0  0  0  0  0  0  0  0  0  0  0  0
  182.2180  171.5760  134.5940 O   0  0  0  0  0  1  0  0  0  0  0  0
  183.1460  171.0360  136.5800 N   0  0  0  0  0  2  0  0  0  0  0  0
  185.4460  171.1560  135.8000 C   0  0  0  0  0  1  0  0  0  0  0  0
  184.1420  170.3970  135.7110 C   0  0  0  0  0  2  0  0  0  0  0  0
  185.8360  175.1240  135.0500 C   0  0  0  0  0  2  0  0  0  0  0  0
  187.2270  174.8070  135.5810 C   0  0  0  0  0  2  0  0  0  0  0  0
  188.2200  175.1550  134.6540 O   0  0  0  0  0  0  0  0  0  0  0  0
  188.2080  177.3450  135.5190 O   0  0  0  0  0  1  0  0  0  0  0  0
  188.9910  176.2430  135.1470 C   0  0  1  0  0  3  0  0  0  0  0  0
  189.5080  176.2270  137.5300 C   0  0  1  0  0  3  0  0  0  0  0  0
  189.9830  175.8920  136.1880 N   0  0  0  0  0  0  0  0  0  0  0  0
  189.4520  175.0780  138.3440 O   0  0  0  0  0  0  0  0  0  0  0  0
  190.1990  174.4620  136.1980 C   0  0  2  0  0  3  0  0  0  0  0  0
  190.1070  174.0570  137.6460 C   0  0  0  0  0  2  0  0  0  0  0  0
  190.2540  176.3660  140.9400 C   0  0  1  0  0  3  0  0  0  0  0  0
  189.5620  178.4470  138.8430 C   0  0  0  0  0  0  0  0  0  0  0  0
  190.4490  175.9450  142.3950 C   0  0  0  0  0  2  0  0  0  0  0  0
  189.2210  177.4060  141.0710 C   0  0  0  0  0  0  0  0  0  0  0  0
  191.5270  176.7910  138.8950 N   0  0  0  0  0  0  0  0  0  0  0  0
  188.8980  178.3390  140.1650 C   0  0  0  0  0  0  0  0  0  0  0  0
  189.4180  179.5120  138.1880 O   0  0  0  0  0  0  0  0  0  0  0  0
  189.2540  176.3650  143.1470 N   0  0  2  0  0  0  0  0  0  0  0  0
  188.6740  177.3760  142.3690 N   0  0  0  0  0  2  0  0  0  0  0  0
  191.5180  176.9630  140.3520 C   0  0  0  0  0  2  0  0  0  0  0  0
  190.3460  177.3280  138.1870 C   0  0  1  0  0  3  0  0  0  0  0  0
  187.9360  179.2900  140.5000 O   0  0  0  0  0  1  0  0  0  0  0  0
  189.7040  176.9720  144.3880 C   0  0  2  0  0  3  0  0  0  0  0  0
  188.7480  176.6510  145.4700 C   0  0  0  0  0  2  0  0  0  0  0  0
  188.7440  177.9040  144.8250 O   0  0  0  0  0  0  0  0  0  0  0  0
  192.6150  177.4440  138.4180 O   0  0  0  0  0  0  0  0  0  0  0  0
  193.7110  176.7670  138.9700 C   0  0  0  0  0  2  0  0  0  0  0  0
  195.5470  175.3980  138.0490 C   0  0  0  0  0  2  0  0  0  0  0  0
  194.7400  174.5240  138.9830 C   0  0  0  0  0  2  0  0  0  0  0  0
  194.0410  175.5540  138.1210 C   0  0  0  0  0  3  0  0  0  0  0  0
  192.2430  172.9680  135.8130 C   0  0  0  0  0  3  0  0  0  0  0  0
  192.2710  174.9540  134.8910 O   0  0  0  0  0  0  0  0  0  0  0  0
  193.4130  173.0930  135.1550 N   0  0  0  0  0  0  0  0  0  0  0  0
  191.5480  174.1430  135.6270 C   0  0  0  0  0  0  0  0  0  0  0  0
  193.3870  174.3280  134.6050 C   0  0  0  0  0  3  0  0  0  0  0  0
  1  3  1  0  0  0  0
  2  4  1  6  0  0  0
  2 12  1  0  0  0  0
  2  5  1  0  0  0  0
  2  1  1  0  0  0  0
  5 36  1  6  0  0  0
  5  3  1  0  0  0  0
  7  6  1  0  0  0  0
  7  8  1  0  0  0  0
  8 26  1  6  0  0  0
  8 11  1  0  0  0  0
  9 14  1  0  0  0  0
 10 13  2  0  0  0  0
 10  9  1  0  0  0  0
 11  9  1  0  0  0  0
 12  6  1  1  0  0  0
 12 10  1  0  0  0  0
 14 16  1  0  0  0  0
 15 19  1  0  0  0  0
 15 17  2  0  0  0  0
 16 15  1  0  0  0  0
 18 16  1  0  0  0  0
 20 22  1  6  0  0  0
 20 19  1  0  0  0  0
 21 24  2  0  0  0  0
 23 21  1  0  0  0  0
 23 20  1  0  0  0  0
 25 21  2  0  0  0  0
 27 26  1  0  0  0  0
 28 27  1  0  0  0  0
 28 29  1  1  0  0  0
 28 30  1  0  0  0  0
 31 30  1  0  0  0  0
 31 33  1  0  0  0  0
 32 31  1  0  0  0  0
 35 34  1  0  0  0  0
 35 33  1  0  0  0  0
 36 37  1  0  0  0  0
 38 40  1  0  0  0  0
 38 37  1  0  0  0  0
 40 39  1  1  0  0  0
 40 42  1  0  0  0  0
 41 56  1  0  0  0  0
 41 43  1  1  0  0  0
 42 44  1  0  0  0  0
 42 41  1  0  0  0  0
 44 69  1  1  0  0  0
 44 45  1  0  0  0  0
 45 43  1  0  0  0  0
 46 55  1  1  0  0  0
 46 49  1  0  0  0  0
 46 48  1  0  0  0  0
 47 51  1  0  0  0  0
 49 54  1  0  0  0  0
 50 55  1  0  0  0  0
 51 57  1  0  0  0  0
 51 49  2  0  0  0  0
 52 47  2  0  0  0  0
 53 48  1  6  0  0  0
 53 58  1  0  0  0  0
 54 53  1  0  0  0  0
 56 47  1  1  0  0  0
 56 50  1  0  0  0  0
 58 60  1  0  0  0  0
 58 59  1  1  0  0  0
 60 59  1  0  0  0  0
 61 50  1  0  0  0  0
 61 62  1  0  0  0  0
 63 65  1  0  0  0  0
 63 64  1  0  0  0  0
 65 62  1  0  0  0  0
 65 64  1  0  0  0  0
 67 69  1  0  0  0  0
 68 66  1  0  0  0  0
 69 66  2  0  0  0  0
 70 67  1  0  0  0  0
 70 68  2  0  0  0  0
M  END
>  <MODEL>
2

>  <REMARK>
 VINA RESULT:      -3.3      4.025     10.445
  Name = 
  23 active torsions:
  status: ('A' for Active; 'I' for Inactive)
    1  A    between atoms: C_1  and  N_7
    2  A    between atoms: C_1  and  C_10
    3  A    between atoms: C_5  and  S_65
    4  A    between atoms: N_7  and  C_18
    5  A    between atoms: C_10  and  C_32
    6  A    between atoms: C_11  and  C_64
    7  A    between atoms: N_14  and  C_40
    8  A    between atoms: N_15  and  N_50
    9  A    between atoms: N_15  and  C_69
   10  A    between atoms: C_16  and  S_65
   11  A    between atoms: C_19  and  C_59
   12  A    between atoms: N_21  and  C_36
   13  A    between atoms: O_22  and  C_36
   14  A    between atoms: O_22  and  C_55
   15  A    between atoms: O_24  and  N_26
   16  A    between atoms: O_24  and  C_34
   17  A    between atoms: C_32  and  N_50
   18  A    between atoms: C_33  and  N_37
   19  A    between atoms: C_34  and  C_48
   20  A    between atoms: C_38  and  C_43
   21  A    between atoms: C_40  and  N_41
   22  A    between atoms: C_55  and  C_70
   23  A    between atoms: C_62  and  C_70
                            x       y       z     vdW  Elec       q    Type
                         _______ _______ _______ _____ _____    ______ ____

>  <TORSDO>
F 23

$$$$
=
 OpenBabel11062415213D

 70 77  0  0  1  0  0  0  0  0999 V2000
  188.0350  178.5560  143.7430 C   0  0  0  0  0  2  0  0  0  0  0  0
  187.2870  177.5870  142.8610 C   0  0  1  0  0  0  0  0  0  0  0  0
  187.2710  179.6590  143.3050 O   0  0  0  0  0  0  0  0  0  0  0  0
  186.4870  176.6110  143.7300 C   0  0  0  0  0  1  0  0  0  0  0  0
  186.5740  178.8440  142.3950 C   0  0  2  0  0  3  0  0  0  0  0  0
  188.2350  177.8280  140.5640 C   0  0  0  0  0  2  0  0  0  0  0  0
  188.7290  177.1560  139.4490 O   0  0  0  0  0  0  0  0  0  0  0  0
  190.0670  177.5440  139.3700 C   0  0  1  0  0  3  0  0  0  0  0  0
  190.7090  176.7590  141.6110 N   0  0  0  0  0  0  0  0  0  0  0  0
  189.4730  176.3530  142.2230 C   0  0  0  0  0  0  0  0  0  0  0  0
  190.9370  176.5950  140.1750 C   0  0  0  0  0  2  0  0  0  0  0  0
  188.1210  176.8840  141.7600 C   0  0  1  0  0  3  0  0  0  0  0  0
  189.5080  175.5280  143.1730 O   0  0  0  0  0  0  0  0  0  0  0  0
  191.8250  177.1560  142.4690 C   0  0  0  0  0  2  0  0  0  0  0  0
  191.5710  176.7700  144.9480 C   0  0  0  0  0  0  0  0  0  0  0  0
  191.3460  177.5770  143.7820 N   0  0  0  0  0  0  0  0  0  0  0  0
  191.9540  175.5770  144.8280 O   0  0  0  0  0  0  0  0  0  0  0  0
  190.7280  178.8900  143.8920 C   0  0  0  0  0  1  0  0  0  0  0  0
  191.3180  177.4370  146.5990 S   0  0  0  0  0  0  0  0  0  0  0  0
  191.9350  175.9370  147.4290 C   0  0  1  0  0  3  0  0  0  0  0  0
  192.6850  176.2200  149.0430 P   0  0  0  0  0  0  0  0  0  0  0  0
  191.1920  174.6260  147.2760 C   0  0  0  0  0  1  0  0  0  0  0  0
  193.2700  175.8140  147.4430 O   0  0  0  0  0  0  0  0  0  0  0  0
  193.2640  177.5710  149.3920 O   0  0  0  0  0  0  0  0  0  0  0  0
  193.1600  174.9590  150.0590 O   0  0  0  0  0  0  0  0  0  0  0  0
  190.5110  177.6160  137.9770 N   0  0  0  0  0  2  0  0  0  0  0  0
  190.2620  176.3500  137.2980 C   0  0  0  0  0  2  0  0  0  0  0  0
  191.3630  176.0760  136.2930 C   0  0  2  0  0  3  0  0  0  0  0  0
  190.8900  175.2170  135.2980 O   0  0  0  0  0  1  0  0  0  0  0  0
  192.5420  175.4350  137.0030 C   0  0  0  0  0  2  0  0  0  0  0  0
  193.7480  176.2280  136.7810 N   0  0  0  0  0  0  0  0  0  0  0  0
  194.0100  176.2400  135.4490 O   0  0  0  0  0  1  0  0  0  0  0  0
  194.8370  175.6290  137.4580 N   0  0  0  0  0  2  0  0  0  0  0  0
  195.5240  173.7360  138.8210 C   0  0  0  0  0  1  0  0  0  0  0  0
  194.5640  174.2170  137.7570 C   0  0  0  0  0  2  0  0  0  0  0  0
  185.0500  178.9170  142.5690 C   0  0  0  0  0  2  0  0  0  0  0  0
  184.2620  177.8680  141.7950 C   0  0  0  0  0  2  0  0  0  0  0  0
  183.4440  178.4590  140.8210 O   0  0  0  0  0  0  0  0  0  0  0  0
  181.5570  178.4460  142.2310 O   0  0  0  0  0  1  0  0  0  0  0  0
  182.0950  178.0450  140.9990 C   0  0  1  0  0  3  0  0  0  0  0  0
  181.0370  177.2160  138.9640 C   0  0  1  0  0  3  0  0  0  0  0  0
  181.1870  178.3530  139.8720 N   0  0  0  0  0  0  0  0  0  0  0  0
  179.6900  176.8140  138.8810 O   0  0  0  0  0  0  0  0  0  0  0  0
  179.8580  178.6280  140.3720 C   0  0  2  0  0  3  0  0  0  0  0  0
  178.9320  177.8070  139.5120 C   0  0  0  0  0  2  0  0  0  0  0  0
  182.7230  174.8580  137.0150 C   0  0  1  0  0  3  0  0  0  0  0  0
  183.0960  177.8240  137.5330 C   0  0  0  0  0  0  0  0  0  0  0  0
  183.2260  173.5200  136.4800 C   0  0  0  0  0  2  0  0  0  0  0  0
  183.9820  175.5090  137.4080 C   0  0  0  0  0  0  0  0  0  0  0  0
  181.0680  176.5960  136.5410 N   0  0  0  0  0  0  0  0  0  0  0  0
  184.1770  176.8140  137.6380 C   0  0  0  0  0  0  0  0  0  0  0  0
  183.4170  179.0390  137.4660 O   0  0  0  0  0  0  0  0  0  0  0  0
  184.5740  173.2960  137.0280 N   0  0  2  0  0  0  0  0  0  0  0  0
  185.0320  174.5680  137.3940 N   0  0  0  0  0  2  0  0  0  0  0  0
  182.0340  175.6730  135.9360 C   0  0  0  0  0  2  0  0  0  0  0  0
  181.6160  177.4980  137.5750 C   0  0  1  0  0  3  0  0  0  0  0  0
  185.4650  177.2560  137.9320 O   0  0  0  0  0  1  0  0  0  0  0  0
  185.4190  172.8220  135.9440 C   0  0  2  0  0  3  0  0  0  0  0  0
  186.6200  172.1670  136.5040 C   0  0  0  0  0  2  0  0  0  0  0  0
  186.6610  173.4820  136.0000 O   0  0  0  0  0  0  0  0  0  0  0  0
  180.5740  177.3730  135.5460 O   0  0  0  0  0  0  0  0  0  0  0  0
  180.2820  178.5990  136.1590 C   0  0  0  0  0  2  0  0  0  0  0  0
  179.2990  180.7880  135.5790 C   0  0  0  0  0  2  0  0  0  0  0  0
  180.7940  180.9710  135.7110 C   0  0  0  0  0  2  0  0  0  0  0  0
  180.2400  179.6960  135.1110 C   0  0  0  0  0  3  0  0  0  0  0  0
  179.8270  180.8850  139.1610 C   0  0  0  0  0  3  0  0  0  0  0  0
  179.0210  180.8330  141.1960 O   0  0  0  0  0  0  0  0  0  0  0  0
  179.4260  182.1340  139.4700 N   0  0  0  0  0  0  0  0  0  0  0  0
  179.5580  180.0920  140.2550 C   0  0  0  0  0  0  0  0  0  0  0  0
  178.9390  182.0550  140.7290 C   0  0  0  0  0  3  0  0  0  0  0  0
  2  4  1  1  0  0  0
  2  1  1  0  0  0  0
  3  1  1  0  0  0  0
  5 36  1  1  0  0  0
  5  2  1  0  0  0  0
  5  3  1  0  0  0  0
  7  6  1  0  0  0  0
  8 26  1  6  0  0  0
  8  7  1  0  0  0  0
  8 11  1  0  0  0  0
  9 10  1  0  0  0  0
  9 14  1  0  0  0  0
 10 13  2  0  0  0  0
 11  9  1  0  0  0  0
 12  6  1  6  0  0  0
 12 10  1  0  0  0  0
 12  2  1  0  0  0  0
 14 16  1  0  0  0  0
 15 19  1  0  0  0  0
 16 18  1  0  0  0  0
 16 15  1  0  0  0  0
 17 15  2  0  0  0  0
 19 20  1  0  0  0  0
 20 22  1  6  0  0  0
 20 23  1  0  0  0  0
 21 24  2  0  0  0  0
 21 25  2  0  0  0  0
 23 21  1  0  0  0  0
 27 26  1  0  0  0  0
 28 29  1  6  0  0  0
 28 30  1  0  0  0  0
 28 27  1  0  0  0  0
 31 30  1  0  0  0  0
 31 33  1  0  0  0  0
 32 31  1  0  0  0  0
 33 35  1  0  0  0  0
 35 34  1  0  0  0  0
 37 36  1  0  0  0  0
 38 40  1  0  0  0  0
 38 37  1  0  0  0  0
 40 39  1  1  0  0  0
 41 43  1  6  0  0  0
 41 42  1  0  0  0  0
 42 44  1  0  0  0  0
 42 40  1  0  0  0  0
 43 45  1  0  0  0  0
 44 69  1  6  0  0  0
 45 44  1  0  0  0  0
 46 55  1  6  0  0  0
 46 49  1  0  0  0  0
 47 51  1  0  0  0  0
 48 46  1  0  0  0  0
 49 51  2  0  0  0  0
 50 56  1  0  0  0  0
 51 57  1  0  0  0  0
 52 47  2  0  0  0  0
 53 48  1  6  0  0  0
 53 54  1  0  0  0  0
 54 49  1  0  0  0  0
 55 50  1  0  0  0  0
 56 47  1  1  0  0  0
 56 41  1  0  0  0  0
 58 60  1  0  0  0  0
 58 59  1  1  0  0  0
 58 53  1  0  0  0  0
 60 59  1  0  0  0  0
 61 62  1  0  0  0  0
 61 50  1  0  0  0  0
 63 64  1  0  0  0  0
 65 63  1  0  0  0  0
 65 64  1  0  0  0  0
 65 62  1  0  0  0  0
 66 68  1  0  0  0  0
 66 69  2  0  0  0  0
 68 70  2  0  0  0  0
 69 67  1  0  0  0  0
 70 67  1  0  0  0  0
M  END
>  <MODEL>
3

>  <REMARK>
 VINA RESULT:      -2.9      2.677      7.607
  Name = 
  23 active torsions:
  status: ('A' for Active; 'I' for Inactive)
    1  A    between atoms: C_1  and  N_7
    2  A    between atoms: C_1  and  C_10
    3  A    between atoms: C_5  and  S_65
    4  A    between atoms: N_7  and  C_18
    5  A    between atoms: C_10  and  C_32
    6  A    between atoms: C_11  and  C_64
    7  A    between atoms: N_14  and  C_40
    8  A    between atoms: N_15  and  N_50
    9  A    between atoms: N_15  and  C_69
   10  A    between atoms: C_16  and  S_65
   11  A    between atoms: C_19  and  C_59
   12  A    between atoms: N_21  and  C_36
   13  A    between atoms: O_22  and  C_36
   14  A    between atoms: O_22  and  C_55
   15  A    between atoms: O_24  and  N_26
   16  A    between atoms: O_24  and  C_34
   17  A    between atoms: C_32  and  N_50
   18  A    between atoms: C_33  and  N_37
   19  A    between atoms: C_34  and  C_48
   20  A    between atoms: C_38  and  C_43
   21  A    between atoms: C_40  and  N_41
   22  A    between atoms: C_55  and  C_70
   23  A    between atoms: C_62  and  C_70
                            x       y       z     vdW  Elec       q    Type
                         _______ _______ _______ _____ _____    ______ ____

>  <TORSDO>
F 23

$$$$
=
 OpenBabel11062415213D

 70 77  0  0  1  0  0  0  0  0999 V2000
  189.6950  176.4030  141.4030 C   0  0  0  0  0  2  0  0  0  0  0  0
  189.4900  177.8530  141.0400 C   0  0  1  0  0  0  0  0  0  0  0  0
  189.3390  175.9520  140.1140 O   0  0  0  0  0  0  0  0  0  0  0  0
  190.8350  178.5870  141.0680 C   0  0  0  0  0  1  0  0  0  0  0  0
  189.0480  177.2680  139.7100 C   0  0  2  0  0  3  0  0  0  0  0  0
  187.0390  178.3210  141.1140 C   0  0  0  0  0  2  0  0  0  0  0  0
  186.0470  179.1760  141.5880 O   0  0  0  0  0  0  0  0  0  0  0  0
  185.2930  178.3880  142.4590 C   0  0  1  0  0  3  0  0  0  0  0  0
  187.1520  177.7820  143.9530 N   0  0  0  0  0  0  0  0  0  0  0  0
  188.3240  178.3080  143.3070 C   0  0  0  0  0  0  0  0  0  0  0  0
  185.8630  178.4690  143.8640 C   0  0  0  0  0  2  0  0  0  0  0  0
  188.3700  178.5970  141.8100 C   0  0  1  0  0  3  0  0  0  0  0  0
  189.3470  178.5400  144.0010 O   0  0  0  0  0  0  0  0  0  0  0  0
  187.2970  176.6550  144.8730 C   0  0  0  0  0  2  0  0  0  0  0  0
  189.4790  176.9570  146.1020 C   0  0  0  0  0  0  0  0  0  0  0  0
  188.0460  177.0510  146.0620 N   0  0  0  0  0  0  0  0  0  0  0  0
  190.0940  176.3020  145.2220 O   0  0  0  0  0  0  0  0  0  0  0  0
  187.3070  177.6430  147.1670 C   0  0  0  0  0  1  0  0  0  0  0  0
  190.4240  177.7720  147.3970 S   0  0  0  0  0  0  0  0  0  0  0  0
  191.3970  176.2830  147.7880 C   0  0  1  0  0  3  0  0  0  0  0  0
  192.6220  176.5010  149.0920 P   0  0  0  0  0  0  0  0  0  0  0  0
  190.7490  174.9150  147.7250 C   0  0  0  0  0  1  0  0  0  0  0  0
  192.6650  176.3110  147.3510 O   0  0  0  0  0  0  0  0  0  0  0  0
  193.1790  177.8710  149.3970 O   0  0  0  0  0  0  0  0  0  0  0  0
  193.5070  175.2150  149.7330 O   0  0  0  0  0  0  0  0  0  0  0  0
  183.8830  178.7830  142.4350 N   0  0  0  0  0  2  0  0  0  0  0  0
  183.5150  179.4290  143.6900 C   0  0  0  0  0  2  0  0  0  0  0  0
  182.0180  179.3280  143.9040 C   0  0  2  0  0  3  0  0  0  0  0  0
  181.7390  178.3010  144.8100 O   0  0  0  0  0  1  0  0  0  0  0  0
  181.3400  179.0380  142.5780 C   0  0  0  0  0  2  0  0  0  0  0  0
  179.9020  178.8730  142.7790 N   0  0  0  0  0  0  0  0  0  0  0  0
  179.5980  177.5600  142.6170 O   0  0  0  0  0  1  0  0  0  0  0  0
  179.2010  179.6300  141.8090 N   0  0  0  0  0  2  0  0  0  0  0  0
  179.3000  181.3820  140.1250 C   0  0  0  0  0  1  0  0  0  0  0  0
  180.0970  180.5670  141.1190 C   0  0  0  0  0  2  0  0  0  0  0  0
  189.8100  177.6900  138.4450 C   0  0  0  0  0  2  0  0  0  0  0  0
  189.0880  177.4070  137.1340 C   0  0  0  0  0  2  0  0  0  0  0  0
  187.9250  178.1830  137.0130 O   0  0  0  0  0  0  0  0  0  0  0  0
  185.9350  178.4640  138.2400 O   0  0  0  0  0  1  0  0  0  0  0  0
  186.8430  177.5510  137.6840 C   0  0  1  0  0  3  0  0  0  0  0  0
  185.0320  177.0110  136.1430 C   0  0  1  0  0  3  0  0  0  0  0  0
  186.1590  176.4880  136.9160 N   0  0  0  0  0  0  0  0  0  0  0  0
  185.2110  176.7680  134.7670 O   0  0  0  0  0  0  0  0  0  0  0  0
  187.0680  175.9230  135.9430 C   0  0  2  0  0  3  0  0  0  0  0  0
  186.2950  175.8910  134.6490 C   0  0  0  0  0  2  0  0  0  0  0  0
  181.9760  178.6580  135.7550 C   0  0  1  0  0  3  0  0  0  0  0  0
  183.2090  176.9900  137.9690 C   0  0  0  0  0  0  0  0  0  0  0  0
  180.9100  179.6220  135.2410 C   0  0  0  0  0  2  0  0  0  0  0  0
  182.0610  179.0410  137.1730 C   0  0  0  0  0  0  0  0  0  0  0  0
  182.7020  176.3320  135.5360 N   0  0  0  0  0  0  0  0  0  0  0  0
  182.5950  178.3240  138.1700 C   0  0  0  0  0  0  0  0  0  0  0  0
  183.4070  176.2640  138.9780 O   0  0  0  0  0  0  0  0  0  0  0  0
  180.8290  180.7470  136.1890 N   0  0  2  0  0  0  0  0  0  0  0  0
  181.3750  180.2550  137.3820 N   0  0  0  0  0  2  0  0  0  0  0  0
  181.5330  177.2120  135.6360 C   0  0  0  0  0  2  0  0  0  0  0  0
  183.6870  176.4630  136.6300 C   0  0  1  0  0  3  0  0  0  0  0  0
  182.5170  178.8250  139.4690 O   0  0  0  0  0  1  0  0  0  0  0  0
  179.4220  181.0190  136.4320 C   0  0  2  0  0  3  0  0  0  0  0  0
  178.9360  182.0160  135.4550 C   0  0  0  0  0  2  0  0  0  0  0  0
  179.2630  182.3750  136.7780 O   0  0  0  0  0  0  0  0  0  0  0  0
  182.2490  175.0540  135.5510 O   0  0  0  0  0  0  0  0  0  0  0  0
  180.8640  175.1670  135.7350 C   0  0  0  0  0  2  0  0  0  0  0  0
  180.2730  172.8400  135.1600 C   0  0  0  0  0  2  0  0  0  0  0  0
  181.3870  172.7970  136.1820 C   0  0  0  0  0  2  0  0  0  0  0  0
  180.3150  173.8610  136.2800 C   0  0  0  0  0  3  0  0  0  0  0  0
  187.9650  173.5590  135.5330 C   0  0  0  0  0  3  0  0  0  0  0  0
  187.4140  174.0760  137.5890 O   0  0  0  0  0  0  0  0  0  0  0  0
  188.1950  172.4750  136.3000 N   0  0  0  0  0  0  0  0  0  0  0  0
  187.4820  174.5460  136.3650 C   0  0  0  0  0  0  0  0  0  0  0  0
  187.8420  172.8380  137.5530 C   0  0  0  0  0  3  0  0  0  0  0  0
  2  4  1  6  0  0  0
  2  1  1  0  0  0  0
  2 12  1  0  0  0  0
  3  1  1  0  0  0  0
  5 36  1  6  0  0  0
  5  3  1  0  0  0  0
  5  2  1  0  0  0  0
  6  7  1  0  0  0  0
  7  8  1  0  0  0  0
  8 26  1  1  0  0  0
  8 11  1  0  0  0  0
  9 14  1  0  0  0  0
 10  9  1  0  0  0  0
 10 13  2  0  0  0  0
 11  9  1  0  0  0  0
 12  6  1  6  0  0  0
 12 10  1  0  0  0  0
 14 16  1  0  0  0  0
 15 19  1  0  0  0  0
 16 15  1  0  0  0  0
 16 18  1  0  0  0  0
 17 15  2  0  0  0  0
 19 20  1  0  0  0  0
 20 22  1  6  0  0  0
 21 24  2  0  0  0  0
 21 25  2  0  0  0  0
 23 20  1  0  0  0  0
 23 21  1  0  0  0  0
 26 27  1  0  0  0  0
 27 28  1  0  0  0  0
 28 29  1  1  0  0  0
 30 31  1  0  0  0  0
 30 28  1  0  0  0  0
 32 31  1  0  0  0  0
 33 31  1  0  0  0  0
 34 35  1  0  0  0  0
 35 33  1  0  0  0  0
 37 36  1  0  0  0  0
 38 37  1  0  0  0  0
 38 40  1  0  0  0  0
 40 39  1  6  0  0  0
 41 43  1  6  0  0  0
 41 56  1  0  0  0  0
 41 42  1  0  0  0  0
 42 40  1  0  0  0  0
 44 69  1  1  0  0  0
 44 42  1  0  0  0  0
 45 43  1  0  0  0  0
 45 44  1  0  0  0  0
 46 48  1  6  0  0  0
 46 49  1  0  0  0  0
 47 51  1  0  0  0  0
 47 52  2  0  0  0  0
 49 54  1  0  0  0  0
 49 51  2  0  0  0  0
 50 61  1  0  0  0  0
 50 55  1  0  0  0  0
 50 56  1  0  0  0  0
 51 57  1  0  0  0  0
 53 48  1  6  0  0  0
 53 58  1  0  0  0  0
 53 54  1  0  0  0  0
 55 46  1  0  0  0  0
 56 47  1  1  0  0  0
 58 59  1  6  0  0  0
 58 60  1  0  0  0  0
 59 60  1  0  0  0  0
 61 62  1  0  0  0  0
 62 65  1  0  0  0  0
 63 64  1  0  0  0  0
 63 65  1  0  0  0  0
 64 65  1  0  0  0  0
 66 68  1  0  0  0  0
 66 69  2  0  0  0  0
 68 70  2  0  0  0  0
 69 67  1  0  0  0  0
 70 67  1  0  0  0  0
M  END
>  <MODEL>
4

>  <REMARK>
 VINA RESULT:      -2.6      1.685      2.094
  Name = 
  23 active torsions:
  status: ('A' for Active; 'I' for Inactive)
    1  A    between atoms: C_1  and  N_7
    2  A    between atoms: C_1  and  C_10
    3  A    between atoms: C_5  and  S_65
    4  A    between atoms: N_7  and  C_18
    5  A    between atoms: C_10  and  C_32
    6  A    between atoms: C_11  and  C_64
    7  A    between atoms: N_14  and  C_40
    8  A    between atoms: N_15  and  N_50
    9  A    between atoms: N_15  and  C_69
   10  A    between atoms: C_16  and  S_65
   11  A    between atoms: C_19  and  C_59
   12  A    between atoms: N_21  and  C_36
   13  A    between atoms: O_22  and  C_36
   14  A    between atoms: O_22  and  C_55
   15  A    between atoms: O_24  and  N_26
   16  A    between atoms: O_24  and  C_34
   17  A    between atoms: C_32  and  N_50
   18  A    between atoms: C_33  and  N_37
   19  A    between atoms: C_34  and  C_48
   20  A    between atoms: C_38  and  C_43
   21  A    between atoms: C_40  and  N_41
   22  A    between atoms: C_55  and  C_70
   23  A    between atoms: C_62  and  C_70
                            x       y       z     vdW  Elec       q    Type
                         _______ _______ _______ _____ _____    ______ ____

>  <TORSDO>
F 23

$$$$
=
 OpenBabel11062415213D

 70 77  0  0  1  0  0  0  0  0999 V2000
  185.9950  178.6410  143.3500 C   0  0  0  0  0  2  0  0  0  0  0  0
  187.0960  177.8440  142.6960 C   0  0  1  0  0  0  0  0  0  0  0  0
  185.9140  179.5520  142.2740 O   0  0  0  0  0  0  0  0  0  0  0  0
  186.5790  176.4470  142.3390 C   0  0  0  0  0  1  0  0  0  0  0  0
  186.9890  178.9170  141.6270 C   0  0  2  0  0  3  0  0  0  0  0  0
  188.9010  176.3700  143.5890 C   0  0  0  0  0  2  0  0  0  0  0  0
  189.9640  176.2680  144.4840 O   0  0  0  0  0  0  0  0  0  0  0  0
  191.0890  176.1090  143.6740 C   0  0  1  0  0  3  0  0  0  0  0  0
  190.8040  178.1950  142.4020 N   0  0  0  0  0  0  0  0  0  0  0  0
  189.5320  178.7120  142.8310 C   0  0  0  0  0  0  0  0  0  0  0  0
  191.6770  177.4640  143.3210 C   0  0  0  0  0  2  0  0  0  0  0  0
  188.4550  177.8230  143.4410 C   0  0  1  0  0  3  0  0  0  0  0  0
  189.3020  179.9420  142.7000 O   0  0  0  0  0  0  0  0  0  0  0  0
  191.3160  178.5790  141.0870 C   0  0  0  0  0  2  0  0  0  0  0  0
  190.7080  176.6340  139.5990 C   0  0  0  0  0  0  0  0  0  0  0  0
  191.6930  177.3990  140.3130 N   0  0  0  0  0  0  0  0  0  0  0  0
  189.4840  176.8090  139.8290 O   0  0  0  0  0  0  0  0  0  0  0  0
  193.1090  177.0840  140.1980 C   0  0  0  0  0  1  0  0  0  0  0  0
  191.1960  175.4220  138.3640 S   0  0  0  0  0  0  0  0  0  0  0  0
  190.2750  176.2420  137.0230 C   0  0  1  0  0  3  0  0  0  0  0  0
  189.0370  175.2110  136.2160 P   0  0  0  0  0  0  0  0  0  0  0  0
  189.9300  177.7130  137.1290 C   0  0  0  0  0  1  0  0  0  0  0  0
  190.6120  175.8440  135.7880 O   0  0  0  0  0  0  0  0  0  0  0  0
  189.1600  173.7060  136.2390 O   0  0  0  0  0  0  0  0  0  0  0  0
  187.9520  175.8180  135.0730 O   0  0  0  0  0  0  0  0  0  0  0  0
  192.0850  175.2530  144.3220 N   0  0  0  0  0  2  0  0  0  0  0  0
  191.6560  174.9050  145.6720 C   0  0  0  0  0  2  0  0  0  0  0  0
  192.0570  176.0000  146.6400 C   0  0  2  0  0  3  0  0  0  0  0  0
  193.2100  175.6180  147.3320 O   0  0  0  0  0  1  0  0  0  0  0  0
  190.9260  176.2390  147.6240 C   0  0  0  0  0  2  0  0  0  0  0  0
  189.8720  177.0260  146.9890 N   0  0  0  0  0  0  0  0  0  0  0  0
  190.2440  178.3320  147.0120 O   0  0  0  0  0  1  0  0  0  0  0  0
  188.6690  176.8780  147.7200 N   0  0  0  0  0  2  0  0  0  0  0  0
  186.9090  178.5560  147.6770 C   0  0  0  0  0  1  0  0  0  0  0  0
  187.5190  177.3760  146.9550 C   0  0  0  0  0  2  0  0  0  0  0  0
  186.6530  178.4790  140.1940 C   0  0  0  0  0  2  0  0  0  0  0  0
  185.1690  178.4740  139.8530 C   0  0  0  0  0  2  0  0  0  0  0  0
  184.9350  179.0240  138.5830 O   0  0  0  0  0  0  0  0  0  0  0  0
  186.4530  177.3710  137.8680 O   0  0  0  0  0  1  0  0  0  0  0  0
  185.2830  178.0860  137.5730 C   0  0  1  0  0  3  0  0  0  0  0  0
  183.1520  177.9200  136.3980 C   0  0  1  0  0  3  0  0  0  0  0  0
  184.1860  177.1940  137.1360 N   0  0  0  0  0  0  0  0  0  0  0  0
  183.0050  177.4000  135.0970 O   0  0  0  0  0  0  0  0  0  0  0  0
  184.6960  176.2030  136.2140 C   0  0  2  0  0  3  0  0  0  0  0  0
  183.7350  176.2070  135.0530 C   0  0  0  0  0  2  0  0  0  0  0  0
  180.6200  180.2580  135.8270 C   0  0  1  0  0  3  0  0  0  0  0  0
  181.7220  178.9020  138.3070 C   0  0  0  0  0  0  0  0  0  0  0  0
  179.7760  181.3390  135.1560 C   0  0  0  0  0  2  0  0  0  0  0  0
  181.0400  180.9380  137.0620 C   0  0  0  0  0  0  0  0  0  0  0  0
  180.6590  177.8440  136.2200 N   0  0  0  0  0  0  0  0  0  0  0  0
  181.5250  180.3650  138.1720 C   0  0  0  0  0  0  0  0  0  0  0  0
  181.8880  178.4250  139.4610 O   0  0  0  0  0  0  0  0  0  0  0  0
  180.1550  182.6340  135.7450 N   0  0  2  0  0  0  0  0  0  0  0  0
  180.7440  182.3130  136.9760 N   0  0  0  0  0  2  0  0  0  0  0  0
  179.7970  179.0300  136.1670 C   0  0  0  0  0  2  0  0  0  0  0  0
  181.8120  177.9410  137.1390 C   0  0  1  0  0  3  0  0  0  0  0  0
  181.8020  181.1730  139.2740 O   0  0  0  0  0  1  0  0  0  0  0  0
  178.9320  183.3680  136.0240 C   0  0  2  0  0  3  0  0  0  0  0  0
  179.2040  184.8200  135.9720 C   0  0  0  0  0  2  0  0  0  0  0  0
  179.1020  184.1290  137.1960 O   0  0  0  0  0  0  0  0  0  0  0  0
  179.8930  176.8070  136.6410 O   0  0  0  0  0  0  0  0  0  0  0  0
  180.7640  175.9920  137.3770 C   0  0  0  0  0  2  0  0  0  0  0  0
  180.5920  175.1200  139.6800 C   0  0  0  0  0  2  0  0  0  0  0  0
  179.3510  175.9370  139.3990 C   0  0  0  0  0  2  0  0  0  0  0  0
  179.9630  175.0940  138.3010 C   0  0  0  0  0  3  0  0  0  0  0  0
  183.7890  174.3500  137.7330 C   0  0  0  0  0  3  0  0  0  0  0  0
  185.7190  173.9910  136.7620 O   0  0  0  0  0  0  0  0  0  0  0  0
  184.2200  173.1350  138.1250 N   0  0  0  0  0  0  0  0  0  0  0  0
  184.7430  174.8600  136.8790 C   0  0  0  0  0  0  0  0  0  0  0  0
  185.4080  172.9560  137.5050 C   0  0  0  0  0  3  0  0  0  0  0  0
  2  4  1  6  0  0  0
  2  1  1  0  0  0  0
  2 12  1  0  0  0  0
  3  1  1  0  0  0  0
  5 36  1  6  0  0  0
  5  3  1  0  0  0  0
  5  2  1  0  0  0  0
  6  7  1  0  0  0  0
  8 26  1  1  0  0  0
  8  7  1  0  0  0  0
  9 10  1  0  0  0  0
  9 11  1  0  0  0  0
 10 12  1  0  0  0  0
 11  8  1  0  0  0  0
 12  6  1  6  0  0  0
 13 10  2  0  0  0  0
 14  9  1  0  0  0  0
 15 17  2  0  0  0  0
 15 16  1  0  0  0  0
 16 14  1  0  0  0  0
 18 16  1  0  0  0  0
 19 15  1  0  0  0  0
 20 22  1  6  0  0  0
 20 19  1  0  0  0  0
 21 24  2  0  0  0  0
 23 21  1  0  0  0  0
 23 20  1  0  0  0  0
 25 21  2  0  0  0  0
 26 27  1  0  0  0  0
 27 28  1  0  0  0  0
 28 29  1  1  0  0  0
 28 30  1  0  0  0  0
 31 32  1  0  0  0  0
 31 30  1  0  0  0  0
 31 33  1  0  0  0  0
 35 34  1  0  0  0  0
 35 33  1  0  0  0  0
 37 36  1  0  0  0  0
 38 37  1  0  0  0  0
 40 39  1  1  0  0  0
 40 38  1  0  0  0  0
 41 43  1  6  0  0  0
 41 42  1  0  0  0  0
 41 56  1  0  0  0  0
 42 40  1  0  0  0  0
 44 69  1  1  0  0  0
 44 42  1  0  0  0  0
 45 43  1  0  0  0  0
 45 44  1  0  0  0  0
 46 48  1  6  0  0  0
 46 55  1  0  0  0  0
 46 49  1  0  0  0  0
 47 52  2  0  0  0  0
 49 51  2  0  0  0  0
 50 61  1  0  0  0  0
 50 56  1  0  0  0  0
 51 47  1  0  0  0  0
 51 57  1  0  0  0  0
 53 48  1  1  0  0  0
 53 58  1  0  0  0  0
 53 54  1  0  0  0  0
 54 49  1  0  0  0  0
 55 50  1  0  0  0  0
 56 47  1  6  0  0  0
 58 59  1  6  0  0  0
 58 60  1  0  0  0  0
 59 60  1  0  0  0  0
 61 62  1  0  0  0  0
 62 65  1  0  0  0  0
 64 63  1  0  0  0  0
 65 64  1  0  0  0  0
 65 63  1  0  0  0  0
 66 68  1  0  0  0  0
 67 69  1  0  0  0  0
 67 70  1  0  0  0  0
 69 66  2  0  0  0  0
 70 68  2  0  0  0  0
M  END
>  <MODEL>
5

>  <REMARK>
 VINA RESULT:      -2.5      2.808      6.213
  Name = 
  23 active torsions:
  status: ('A' for Active; 'I' for Inactive)
    1  A    between atoms: C_1  and  N_7
    2  A    between atoms: C_1  and  C_10
    3  A    between atoms: C_5  and  S_65
    4  A    between atoms: N_7  and  C_18
    5  A    between atoms: C_10  and  C_32
    6  A    between atoms: C_11  and  C_64
    7  A    between atoms: N_14  and  C_40
    8  A    between atoms: N_15  and  N_50
    9  A    between atoms: N_15  and  C_69
   10  A    between atoms: C_16  and  S_65
   11  A    between atoms: C_19  and  C_59
   12  A    between atoms: N_21  and  C_36
   13  A    between atoms: O_22  and  C_36
   14  A    between atoms: O_22  and  C_55
   15  A    between atoms: O_24  and  N_26
   16  A    between atoms: O_24  and  C_34
   17  A    between atoms: C_32  and  N_50
   18  A    between atoms: C_33  and  N_37
   19  A    between atoms: C_34  and  C_48
   20  A    between atoms: C_38  and  C_43
   21  A    between atoms: C_40  and  N_41
   22  A    between atoms: C_55  and  C_70
   23  A    between atoms: C_62  and  C_70
                            x       y       z     vdW  Elec       q    Type
                         _______ _______ _______ _____ _____    ______ ____

>  <TORSDO>
F 23

$$$$
=
 OpenBabel11062415213D

 70 77  0  0  1  0  0  0  0  0999 V2000
  190.9240  177.2990  139.8630 C   0  0  0  0  0  2  0  0  0  0  0  0
  189.6040  177.9330  139.5020 C   0  0  1  0  0  0  0  0  0  0  0  0
  190.4450  175.9910  139.6280 O   0  0  0  0  0  0  0  0  0  0  0  0
  189.7600  178.7540  138.2180 C   0  0  0  0  0  1  0  0  0  0  0  0
  189.1590  176.4880  139.3510 C   0  0  2  0  0  3  0  0  0  0  0  0
  187.3940  178.7620  140.3140 C   0  0  0  0  0  2  0  0  0  0  0  0
  186.7420  179.6700  141.1450 O   0  0  0  0  0  0  0  0  0  0  0  0
  186.0940  178.8770  142.0910 C   0  0  1  0  0  3  0  0  0  0  0  0
  188.1130  177.7430  142.9230 N   0  0  0  0  0  0  0  0  0  0  0  0
  189.1640  178.1790  142.0420 C   0  0  0  0  0  0  0  0  0  0  0  0
  187.0050  178.6290  143.2810 C   0  0  0  0  0  2  0  0  0  0  0  0
  188.8850  178.7030  140.6380 C   0  0  1  0  0  3  0  0  0  0  0  0
  190.3540  178.1270  142.4460 O   0  0  0  0  0  0  0  0  0  0  0  0
  188.2620  176.4690  143.6240 C   0  0  0  0  0  2  0  0  0  0  0  0
  187.3770  176.5620  145.9850 C   0  0  0  0  0  0  0  0  0  0  0  0
  188.4650  176.6850  145.0540 N   0  0  0  0  0  0  0  0  0  0  0  0
  186.1900  176.5200  145.5680 O   0  0  0  0  0  0  0  0  0  0  0  0
  189.8220  176.9220  145.5210 C   0  0  0  0  0  1  0  0  0  0  0  0
  187.6810  176.4610  147.7540 S   0  0  0  0  0  0  0  0  0  0  0  0
  188.0750  178.2340  147.9080 C   0  0  1  0  0  3  0  0  0  0  0  0
  186.6490  179.3060  148.1610 P   0  0  0  0  0  0  0  0  0  0  0  0
  189.3500  178.6700  148.6000 C   0  0  0  0  0  1  0  0  0  0  0  0
  187.7480  178.9740  146.8390 O   0  0  0  0  0  0  0  0  0  0  0  0
  185.2750  178.8730  147.7090 O   0  0  0  0  0  0  0  0  0  0  0  0
  186.7980  180.9520  148.5040 O   0  0  0  0  0  0  0  0  0  0  0  0
  184.8300  179.4860  142.5100 N   0  0  0  0  0  2  0  0  0  0  0  0
  184.7850  179.6160  143.9620 C   0  0  0  0  0  2  0  0  0  0  0  0
  183.3650  179.4180  144.4550 C   0  0  2  0  0  3  0  0  0  0  0  0
  183.3850  178.8760  145.7430 O   0  0  0  0  0  1  0  0  0  0  0  0
  182.6340  178.4770  143.5150 C   0  0  0  0  0  2  0  0  0  0  0  0
  181.6920  179.2290  142.6900 N   0  0  0  0  0  0  0  0  0  0  0  0
  180.6900  179.6770  143.4890 O   0  0  0  0  0  1  0  0  0  0  0  0
  181.1460  178.3750  141.7020 N   0  0  0  0  0  2  0  0  0  0  0  0
  179.1560  177.6650  140.4980 C   0  0  0  0  0  1  0  0  0  0  0  0
  179.7270  178.6730  141.4690 C   0  0  0  0  0  2  0  0  0  0  0  0
  188.6220  176.0370  137.9860 C   0  0  0  0  0  2  0  0  0  0  0  0
  188.5630  177.1270  136.9240 C   0  0  0  0  0  2  0  0  0  0  0  0
  187.2560  177.6070  136.7560 O   0  0  0  0  0  0  0  0  0  0  0  0
  187.4750  176.5630  134.6560 O   0  0  0  0  0  1  0  0  0  0  0  0
  186.6070  176.9040  135.7040 C   0  0  1  0  0  3  0  0  0  0  0  0
  184.3510  176.0080  135.9310 C   0  0  1  0  0  3  0  0  0  0  0  0
  185.7780  175.7560  136.1310 N   0  0  0  0  0  0  0  0  0  0  0  0
  183.7890  175.0510  135.0630 O   0  0  0  0  0  0  0  0  0  0  0  0
  186.0850  174.5990  135.3200 C   0  0  2  0  0  3  0  0  0  0  0  0
  184.7500  174.0480  134.8910 C   0  0  0  0  0  2  0  0  0  0  0  0
  181.5360  178.0050  136.4710 C   0  0  1  0  0  3  0  0  0  0  0  0
  183.9340  177.2330  138.1620 C   0  0  0  0  0  0  0  0  0  0  0  0
  180.3080  178.8730  136.2070 C   0  0  0  0  0  2  0  0  0  0  0  0
  182.4030  178.9380  137.2070 C   0  0  0  0  0  0  0  0  0  0  0  0
  182.1530  175.7210  137.0910 N   0  0  0  0  0  0  0  0  0  0  0  0
  183.4630  178.6260  137.9640 C   0  0  0  0  0  0  0  0  0  0  0  0
  184.7290  177.0010  139.1100 O   0  0  0  0  0  0  0  0  0  0  0  0
  180.7180  180.2810  136.3410 N   0  0  2  0  0  0  0  0  0  0  0  0
  181.8870  180.2460  137.1130 N   0  0  0  0  0  2  0  0  0  0  0  0
  181.2040  176.8100  137.3440 C   0  0  0  0  0  2  0  0  0  0  0  0
  183.5790  176.0740  137.2520 C   0  0  1  0  0  3  0  0  0  0  0  0
  184.1210  179.6480  138.6460 O   0  0  0  0  0  1  0  0  0  0  0  0
  179.7000  180.9660  137.1200 C   0  0  2  0  0  3  0  0  0  0  0  0
  180.0690  182.3880  137.2750 C   0  0  0  0  0  2  0  0  0  0  0  0
  180.2730  181.4530  138.3100 O   0  0  0  0  0  0  0  0  0  0  0  0
  181.8800  174.7320  137.9780 O   0  0  0  0  0  0  0  0  0  0  0  0
  181.6850  173.5880  137.1920 C   0  0  0  0  0  2  0  0  0  0  0  0
  179.5880  172.3820  136.7000 C   0  0  0  0  0  2  0  0  0  0  0  0
  180.6110  171.3660  137.1580 C   0  0  0  0  0  2  0  0  0  0  0  0
  180.5770  172.7410  137.7910 C   0  0  0  0  0  3  0  0  0  0  0  0
  186.8930  173.5260  137.5010 C   0  0  0  0  0  3  0  0  0  0  0  0
  187.6310  172.6610  135.6290 O   0  0  0  0  0  0  0  0  0  0  0  0
  187.7140  172.5060  137.8210 N   0  0  0  0  0  0  0  0  0  0  0  0
  186.8560  173.5970  136.1250 C   0  0  0  0  0  0  0  0  0  0  0  0
  188.1440  172.0050  136.6410 C   0  0  0  0  0  3  0  0  0  0  0  0
  2  4  1  6  0  0  0
  2  1  1  0  0  0  0
  2 12  1  0  0  0  0
  3  1  1  0  0  0  0
  5 36  1  6  0  0  0
  5  2  1  0  0  0  0
  5  3  1  0  0  0  0
  6  7  1  0  0  0  0
  7  8  1  0  0  0  0
  8 26  1  1  0  0  0
  8 11  1  0  0  0  0
  9 11  1  0  0  0  0
  9 14  1  0  0  0  0
 10 13  2  0  0  0  0
 10  9  1  0  0  0  0
 12  6  1  6  0  0  0
 12 10  1  0  0  0  0
 14 16  1  0  0  0  0
 15 19  1  0  0  0  0
 16 18  1  0  0  0  0
 16 15  1  0  0  0  0
 17 15  2  0  0  0  0
 19 20  1  0  0  0  0
 20 22  1  6  0  0  0
 21 25  2  0  0  0  0
 23 20  1  0  0  0  0
 23 21  1  0  0  0  0
 24 21  2  0  0  0  0
 26 27  1  0  0  0  0
 27 28  1  0  0  0  0
 28 29  1  1  0  0  0
 30 28  1  0  0  0  0
 31 32  1  0  0  0  0
 31 30  1  0  0  0  0
 33 31  1  0  0  0  0
 34 35  1  0  0  0  0
 35 33  1  0  0  0  0
 37 36  1  0  0  0  0
 38 37  1  0  0  0  0
 40 39  1  6  0  0  0
 40 42  1  0  0  0  0
 40 38  1  0  0  0  0
 41 43  1  6  0  0  0
 41 42  1  0  0  0  0
 41 56  1  0  0  0  0
 44 69  1  1  0  0  0
 44 42  1  0  0  0  0
 45 43  1  0  0  0  0
 45 44  1  0  0  0  0
 46 48  1  1  0  0  0
 46 49  1  0  0  0  0
 46 55  1  0  0  0  0
 47 52  2  0  0  0  0
 49 51  2  0  0  0  0
 50 56  1  0  0  0  0
 50 55  1  0  0  0  0
 50 61  1  0  0  0  0
 51 47  1  0  0  0  0
 51 57  1  0  0  0  0
 53 48  1  1  0  0  0
 53 54  1  0  0  0  0
 53 58  1  0  0  0  0
 54 49  1  0  0  0  0
 56 47  1  6  0  0  0
 58 59  1  6  0  0  0
 58 60  1  0  0  0  0
 59 60  1  0  0  0  0
 62 65  1  0  0  0  0
 62 61  1  0  0  0  0
 63 64  1  0  0  0  0
 63 65  1  0  0  0  0
 64 65  1  0  0  0  0
 66 68  1  0  0  0  0
 67 69  1  0  0  0  0
 67 70  1  0  0  0  0
 69 66  2  0  0  0  0
 70 68  2  0  0  0  0
M  END
>  <MODEL>
6

>  <REMARK>
 VINA RESULT:      -1.9      2.234      2.663
  Name = 
  23 active torsions:
  status: ('A' for Active; 'I' for Inactive)
    1  A    between atoms: C_1  and  N_7
    2  A    between atoms: C_1  and  C_10
    3  A    between atoms: C_5  and  S_65
    4  A    between atoms: N_7  and  C_18
    5  A    between atoms: C_10  and  C_32
    6  A    between atoms: C_11  and  C_64
    7  A    between atoms: N_14  and  C_40
    8  A    between atoms: N_15  and  N_50
    9  A    between atoms: N_15  and  C_69
   10  A    between atoms: C_16  and  S_65
   11  A    between atoms: C_19  and  C_59
   12  A    between atoms: N_21  and  C_36
   13  A    between atoms: O_22  and  C_36
   14  A    between atoms: O_22  and  C_55
   15  A    between atoms: O_24  and  N_26
   16  A    between atoms: O_24  and  C_34
   17  A    between atoms: C_32  and  N_50
   18  A    between atoms: C_33  and  N_37
   19  A    between atoms: C_34  and  C_48
   20  A    between atoms: C_38  and  C_43
   21  A    between atoms: C_40  and  N_41
   22  A    between atoms: C_55  and  C_70
   23  A    between atoms: C_62  and  C_70
                            x       y       z     vdW  Elec       q    Type
                         _______ _______ _______ _____ _____    ______ ____

>  <TORSDO>
F 23

$$$$
=
 OpenBabel11062415213D

 70 77  0  0  1  0  0  0  0  0999 V2000
  190.4060  177.8740  145.2430 C   0  0  0  0  0  2  0  0  0  0  0  0
  189.7710  177.5460  143.9140 C   0  0  1  0  0  0  0  0  0  0  0  0
  191.2990  176.7830  145.1690 O   0  0  0  0  0  0  0  0  0  0  0  0
  190.0910  178.6530  142.9040 C   0  0  0  0  0  1  0  0  0  0  0  0
  190.7150  176.3580  143.9620 C   0  0  2  0  0  3  0  0  0  0  0  0
  187.5330  178.1930  144.8110 C   0  0  0  0  0  2  0  0  0  0  0  0
  186.2440  177.7550  145.1090 O   0  0  0  0  0  0  0  0  0  0  0  0
  185.4200  178.4820  144.2480 C   0  0  1  0  0  3  0  0  0  0  0  0
  186.4780  177.7260  142.1590 N   0  0  0  0  0  0  0  0  0  0  0  0
  187.6250  176.9700  142.5840 C   0  0  0  0  0  0  0  0  0  0  0  0
  185.2400  177.7340  142.9390 C   0  0  0  0  0  2  0  0  0  0  0  0
  188.2690  177.1660  143.9520 C   0  0  1  0  0  3  0  0  0  0  0  0
  188.1120  176.1150  141.8010 O   0  0  0  0  0  0  0  0  0  0  0  0
  186.4850  178.3340  140.8290 C   0  0  0  0  0  2  0  0  0  0  0  0
  184.7010  179.2350  139.2900 C   0  0  0  0  0  0  0  0  0  0  0  0
  185.2660  179.1050  140.6050 N   0  0  0  0  0  0  0  0  0  0  0  0
  185.3730  178.9070  138.2780 O   0  0  0  0  0  0  0  0  0  0  0  0
  184.5800  179.6490  141.7670 C   0  0  0  0  0  1  0  0  0  0  0  0
  183.0300  179.8570  139.0580 S   0  0  0  0  0  0  0  0  0  0  0  0
  182.2880  178.1930  139.0160 C   0  0  1  0  0  3  0  0  0  0  0  0
  181.1540  177.9060  137.6460 P   0  0  0  0  0  0  0  0  0  0  0  0
  183.0980  176.9910  139.4550 C   0  0  0  0  0  1  0  0  0  0  0  0
  180.9970  178.1470  139.3730 O   0  0  0  0  0  0  0  0  0  0  0  0
  180.4530  179.0640  136.9770 O   0  0  0  0  0  0  0  0  0  0  0  0
  180.4940  176.3890  137.3140 O   0  0  0  0  0  0  0  0  0  0  0  0
  184.1290  178.7690  144.8770 N   0  0  0  0  0  2  0  0  0  0  0  0
  183.0490  178.1290  144.1340 C   0  0  0  0  0  2  0  0  0  0  0  0
  181.8380  179.0410  144.0940 C   0  0  2  0  0  3  0  0  0  0  0  0
  180.8270  178.5150  144.9020 O   0  0  0  0  0  1  0  0  0  0  0  0
  181.3430  179.1550  142.6640 C   0  0  0  0  0  2  0  0  0  0  0  0
  180.1050  179.9280  142.6260 N   0  0  0  0  0  0  0  0  0  0  0  0
  179.0900  179.0890  142.2940 O   0  0  0  0  0  1  0  0  0  0  0  0
  180.2090  180.9370  141.6380 N   0  0  0  0  0  2  0  0  0  0  0  0
  179.2170  181.2400  139.4390 C   0  0  0  0  0  1  0  0  0  0  0  0
  178.9410  181.1100  140.9200 C   0  0  0  0  0  2  0  0  0  0  0  0
  191.7350  176.1980  142.8250 C   0  0  0  0  0  2  0  0  0  0  0  0
  191.9820  177.4550  142.0010 C   0  0  0  0  0  2  0  0  0  0  0  0
  192.6210  177.1530  140.7890 O   0  0  0  0  0  0  0  0  0  0  0  0
  190.5540  177.1090  139.6610 O   0  0  0  0  0  1  0  0  0  0  0  0
  191.7430  176.4210  139.9420 C   0  0  1  0  0  3  0  0  0  0  0  0
  191.7100  176.3520  137.5050 C   0  0  1  0  0  3  0  0  0  0  0  0
  192.3640  175.8670  138.7200 N   0  0  0  0  0  0  0  0  0  0  0  0
  192.6250  177.0380  136.6820 O   0  0  0  0  0  0  0  0  0  0  0  0
  193.7380  176.3070  138.6230 C   0  0  2  0  0  3  0  0  0  0  0  0
  193.8990  176.7990  137.2080 C   0  0  0  0  0  2  0  0  0  0  0  0
  188.9120  176.8200  135.4670 C   0  0  1  0  0  3  0  0  0  0  0  0
  189.7770  174.6470  137.4000 C   0  0  0  0  0  0  0  0  0  0  0  0
  187.8520  177.4960  134.6010 C   0  0  0  0  0  2  0  0  0  0  0  0
  188.0910  176.2600  136.5530 C   0  0  0  0  0  0  0  0  0  0  0  0
  190.9580  175.4930  135.2800 N   0  0  0  0  0  0  0  0  0  0  0  0
  188.4450  175.3000  137.4160 C   0  0  0  0  0  0  0  0  0  0  0  0
  189.9210  173.5670  138.0300 O   0  0  0  0  0  0  0  0  0  0  0  0
  186.6590  177.7100  135.4380 N   0  0  2  0  0  0  0  0  0  0  0  0
  186.7890  176.7970  136.4930 N   0  0  0  0  0  2  0  0  0  0  0  0
  189.6170  175.7020  134.7230 C   0  0  0  0  0  2  0  0  0  0  0  0
  191.0060  175.2320  136.7340 C   0  0  1  0  0  3  0  0  0  0  0  0
  187.5000  174.8480  138.3360 O   0  0  0  0  0  1  0  0  0  0  0  0
  185.4970  177.3150  134.6600 C   0  0  2  0  0  3  0  0  0  0  0  0
  184.3020  177.2980  135.5300 C   0  0  0  0  0  2  0  0  0  0  0  0
  184.9770  176.1130  135.1770 O   0  0  0  0  0  0  0  0  0  0  0  0
  191.4900  174.4110  134.6580 O   0  0  0  0  0  0  0  0  0  0  0  0
  192.7390  174.2260  135.2650 C   0  0  0  0  0  2  0  0  0  0  0  0
  194.4230  172.4730  135.6950 C   0  0  0  0  0  2  0  0  0  0  0  0
  193.0720  171.8020  135.5850 C   0  0  0  0  0  2  0  0  0  0  0  0
  193.4020  172.9840  134.6990 C   0  0  0  0  0  3  0  0  0  0  0  0
  195.7310  175.1950  139.7870 C   0  0  0  0  0  3  0  0  0  0  0  0
  194.6110  173.9830  138.3480 O   0  0  0  0  0  0  0  0  0  0  0  0
  196.3160  173.9820  139.7370 N   0  0  0  0  0  0  0  0  0  0  0  0
  194.6660  175.1660  138.9130 C   0  0  0  0  0  0  0  0  0  0  0  0
  195.5950  173.2710  138.8410 C   0  0  0  0  0  3  0  0  0  0  0  0
  2  4  1  6  0  0  0
  2 12  1  0  0  0  0
  2  5  1  0  0  0  0
  2  1  1  0  0  0  0
  3  1  1  0  0  0  0
  5 36  1  6  0  0  0
  5  3  1  0  0  0  0
  6  7  1  0  0  0  0
  8 26  1  1  0  0  0
  8  7  1  0  0  0  0
  9 10  1  0  0  0  0
  9 11  1  0  0  0  0
 10 12  1  0  0  0  0
 11  8  1  0  0  0  0
 12  6  1  6  0  0  0
 13 10  2  0  0  0  0
 14  9  1  0  0  0  0
 15 16  1  0  0  0  0
 16 14  1  0  0  0  0
 16 18  1  0  0  0  0
 17 15  2  0  0  0  0
 19 15  1  0  0  0  0
 20 19  1  0  0  0  0
 20 23  1  0  0  0  0
 20 22  1  1  0  0  0
 21 23  1  0  0  0  0
 24 21  2  0  0  0  0
 25 21  2  0  0  0  0
 27 26  1  0  0  0  0
 28 27  1  0  0  0  0
 28 29  1  1  0  0  0
 30 28  1  0  0  0  0
 31 30  1  0  0  0  0
 32 31  1  0  0  0  0
 33 31  1  0  0  0  0
 34 35  1  0  0  0  0
 35 33  1  0  0  0  0
 37 36  1  0  0  0  0
 38 37  1  0  0  0  0
 40 39  1  6  0  0  0
 40 38  1  0  0  0  0
 41 43  1  6  0  0  0
 41 42  1  0  0  0  0
 42 40  1  0  0  0  0
 43 45  1  0  0  0  0
 44 42  1  0  0  0  0
 44 69  1  6  0  0  0
 45 44  1  0  0  0  0
 46 48  1  6  0  0  0
 46 49  1  0  0  0  0
 47 51  1  0  0  0  0
 47 52  2  0  0  0  0
 49 51  2  0  0  0  0
 50 56  1  0  0  0  0
 51 57  1  0  0  0  0
 53 48  1  6  0  0  0
 53 54  1  0  0  0  0
 54 49  1  0  0  0  0
 55 50  1  0  0  0  0
 55 46  1  0  0  0  0
 56 47  1  1  0  0  0
 56 41  1  0  0  0  0
 58 60  1  0  0  0  0
 58 53  1  0  0  0  0
 58 59  1  1  0  0  0
 60 59  1  0  0  0  0
 61 62  1  0  0  0  0
 61 50  1  0  0  0  0
 64 63  1  0  0  0  0
 65 62  1  0  0  0  0
 65 64  1  0  0  0  0
 65 63  1  0  0  0  0
 67 70  1  0  0  0  0
 67 69  1  0  0  0  0
 68 66  1  0  0  0  0
 69 66  2  0  0  0  0
 70 68  2  0  0  0  0
M  END
>  <MODEL>
7

>  <REMARK>
 VINA RESULT:      -1.7      4.129      8.723
  Name = 
  23 active torsions:
  status: ('A' for Active; 'I' for Inactive)
    1  A    between atoms: C_1  and  N_7
    2  A    between atoms: C_1  and  C_10
    3  A    between atoms: C_5  and  S_65
    4  A    between atoms: N_7  and  C_18
    5  A    between atoms: C_10  and  C_32
    6  A    between atoms: C_11  and  C_64
    7  A    between atoms: N_14  and  C_40
    8  A    between atoms: N_15  and  N_50
    9  A    between atoms: N_15  and  C_69
   10  A    between atoms: C_16  and  S_65
   11  A    between atoms: C_19  and  C_59
   12  A    between atoms: N_21  and  C_36
   13  A    between atoms: O_22  and  C_36
   14  A    between atoms: O_22  and  C_55
   15  A    between atoms: O_24  and  N_26
   16  A    between atoms: O_24  and  C_34
   17  A    between atoms: C_32  and  N_50
   18  A    between atoms: C_33  and  N_37
   19  A    between atoms: C_34  and  C_48
   20  A    between atoms: C_38  and  C_43
   21  A    between atoms: C_40  and  N_41
   22  A    between atoms: C_55  and  C_70
   23  A    between atoms: C_62  and  C_70
                            x       y       z     vdW  Elec       q    Type
                         _______ _______ _______ _____ _____    ______ ____

>  <TORSDO>
F 23

$$$$
=
 OpenBabel11062415213D

 70 77  0  0  1  0  0  0  0  0999 V2000
  186.0810  177.9280  143.1470 C   0  0  0  0  0  2  0  0  0  0  0  0
  187.3370  177.5940  142.3810 C   0  0  1  0  0  0  0  0  0  0  0  0
  185.8130  179.0670  142.3560 O   0  0  0  0  0  0  0  0  0  0  0  0
  187.1430  176.2770  141.6230 C   0  0  0  0  0  1  0  0  0  0  0  0
  187.0070  178.8770  141.6380 C   0  0  2  0  0  3  0  0  0  0  0  0
  189.1140  176.2170  143.4660 C   0  0  0  0  0  2  0  0  0  0  0  0
  190.1360  176.1980  144.4130 O   0  0  0  0  0  0  0  0  0  0  0  0
  191.2990  175.9930  143.6690 C   0  0  1  0  0  3  0  0  0  0  0  0
  191.0510  177.9710  142.2280 N   0  0  0  0  0  0  0  0  0  0  0  0
  189.7560  178.5030  142.5580 C   0  0  0  0  0  0  0  0  0  0  0  0
  191.8880  177.3250  143.2390 C   0  0  0  0  0  2  0  0  0  0  0  0
  188.6600  177.6480  143.1860 C   0  0  1  0  0  3  0  0  0  0  0  0
  189.5190  179.7150  142.3220 O   0  0  0  0  0  0  0  0  0  0  0  0
  191.6190  178.2600  140.9120 C   0  0  0  0  0  2  0  0  0  0  0  0
  192.4630  176.6870  139.1300 C   0  0  0  0  0  0  0  0  0  0  0  0
  191.4140  177.1370  140.0010 N   0  0  0  0  0  0  0  0  0  0  0  0
  193.4840  177.4000  138.9480 O   0  0  0  0  0  0  0  0  0  0  0  0
  190.1500  176.4190  140.0790 C   0  0  0  0  0  1  0  0  0  0  0  0
  192.3500  175.1020  138.2870 S   0  0  0  0  0  0  0  0  0  0  0  0
  193.8510  175.3900  137.2930 C   0  0  1  0  0  3  0  0  0  0  0  0
  194.7790  173.9020  136.8790 P   0  0  0  0  0  0  0  0  0  0  0  0
  193.8680  176.4830  136.2450 C   0  0  0  0  0  1  0  0  0  0  0  0
  195.0020  175.2560  137.9670 O   0  0  0  0  0  0  0  0  0  0  0  0
  194.6650  172.6640  137.7360 O   0  0  0  0  0  0  0  0  0  0  0  0
  196.0960  173.9160  135.8230 O   0  0  0  0  0  0  0  0  0  0  0  0
  192.2720  175.2030  144.4250 N   0  0  0  0  0  2  0  0  0  0  0  0
  191.7160  174.8110  145.7160 C   0  0  0  0  0  2  0  0  0  0  0  0
  191.8200  175.9630  146.6960 C   0  0  2  0  0  3  0  0  0  0  0  0
  192.9400  175.7870  147.5130 O   0  0  0  0  0  1  0  0  0  0  0  0
  190.5670  176.0100  147.5500 C   0  0  0  0  0  2  0  0  0  0  0  0
  189.8670  177.2740  147.3380 N   0  0  0  0  0  0  0  0  0  0  0  0
  190.1890  178.1130  148.3560 O   0  0  0  0  0  1  0  0  0  0  0  0
  188.4700  177.0480  147.3530 N   0  0  0  0  0  2  0  0  0  0  0  0
  186.2930  177.8200  146.5920 C   0  0  0  0  0  1  0  0  0  0  0  0
  187.7390  178.2010  146.8130 C   0  0  0  0  0  2  0  0  0  0  0  0
  186.7900  178.7970  140.1200 C   0  0  0  0  0  2  0  0  0  0  0  0
  185.4270  178.2700  139.6920 C   0  0  0  0  0  2  0  0  0  0  0  0
  185.0660  178.7550  138.4260 O   0  0  0  0  0  0  0  0  0  0  0  0
  186.6510  177.1590  137.7290 O   0  0  0  0  0  1  0  0  0  0  0  0
  185.4610  177.8330  137.4180 C   0  0  1  0  0  3  0  0  0  0  0  0
  183.3100  177.6100  136.2910 C   0  0  1  0  0  3  0  0  0  0  0  0
  184.4030  176.9060  136.9610 N   0  0  0  0  0  0  0  0  0  0  0  0
  183.1540  177.1520  134.9680 O   0  0  0  0  0  0  0  0  0  0  0  0
  184.9400  175.9950  135.9740 C   0  0  2  0  0  3  0  0  0  0  0  0
  183.9470  176.0060  134.8410 C   0  0  0  0  0  2  0  0  0  0  0  0
  180.8730  180.1120  136.3500 C   0  0  1  0  0  3  0  0  0  0  0  0
  181.9790  178.1920  138.4230 C   0  0  0  0  0  0  0  0  0  0  0  0
  180.0610  181.3470  135.9680 C   0  0  0  0  0  2  0  0  0  0  0  0
  181.3570  180.4800  137.6890 C   0  0  0  0  0  0  0  0  0  0  0  0
  180.8120  177.6710  136.1930 N   0  0  0  0  0  0  0  0  0  0  0  0
  181.8450  179.6550  138.6250 C   0  0  0  0  0  0  0  0  0  0  0  0
  182.1540  177.4630  139.4340 O   0  0  0  0  0  0  0  0  0  0  0  0
  180.5150  182.4610  136.8170 N   0  0  2  0  0  0  0  0  0  0  0  0
  181.1210  181.8510  137.9230 N   0  0  0  0  0  2  0  0  0  0  0  0
  180.0040  178.8710  136.4380 C   0  0  0  0  0  2  0  0  0  0  0  0
  181.9930  177.5150  137.0670 C   0  0  1  0  0  3  0  0  0  0  0  0
  182.1880  180.1840  139.8680 O   0  0  0  0  0  1  0  0  0  0  0  0
  179.3340  183.1600  137.2970 C   0  0  2  0  0  3  0  0  0  0  0  0
  179.3950  184.5780  136.8820 C   0  0  0  0  0  2  0  0  0  0  0  0
  179.7250  184.1750  138.1910 O   0  0  0  0  0  0  0  0  0  0  0  0
  180.0110  176.5960  136.4000 O   0  0  0  0  0  0  0  0  0  0  0  0
  180.8800  175.4970  136.4070 C   0  0  0  0  0  2  0  0  0  0  0  0
  181.0470  173.0520  136.1110 C   0  0  0  0  0  2  0  0  0  0  0  0
  180.3340  173.3140  137.4190 C   0  0  0  0  0  2  0  0  0  0  0  0
  180.0850  174.2170  136.2300 C   0  0  0  0  0  3  0  0  0  0  0  0
  184.1410  173.6170  136.4930 C   0  0  0  0  0  3  0  0  0  0  0  0
  186.1100  174.1980  137.2570 O   0  0  0  0  0  0  0  0  0  0  0  0
  184.6430  172.5620  137.1640 N   0  0  0  0  0  0  0  0  0  0  0  0
  185.0800  174.6230  136.5630 C   0  0  0  0  0  0  0  0  0  0  0  0
  185.8520  172.9640  137.6160 C   0  0  0  0  0  3  0  0  0  0  0  0
  2  4  1  6  0  0  0
  2  1  1  0  0  0  0
  2 12  1  0  0  0  0
  3  1  1  0  0  0  0
  5 36  1  6  0  0  0
  5  3  1  0  0  0  0
  5  2  1  0  0  0  0
  6  7  1  0  0  0  0
  8  7  1  0  0  0  0
  8 26  1  1  0  0  0
  9 10  1  0  0  0  0
  9 11  1  0  0  0  0
 10 12  1  0  0  0  0
 11  8  1  0  0  0  0
 12  6  1  6  0  0  0
 13 10  2  0  0  0  0
 14  9  1  0  0  0  0
 15 16  1  0  0  0  0
 16 18  1  0  0  0  0
 16 14  1  0  0  0  0
 17 15  2  0  0  0  0
 19 15  1  0  0  0  0
 20 22  1  1  0  0  0
 20 23  1  0  0  0  0
 20 19  1  0  0  0  0
 21 24  2  0  0  0  0
 21 23  1  0  0  0  0
 25 21  2  0  0  0  0
 26 27  1  0  0  0  0
 27 28  1  0  0  0  0
 28 29  1  1  0  0  0
 28 30  1  0  0  0  0
 31 33  1  0  0  0  0
 31 30  1  0  0  0  0
 31 32  1  0  0  0  0
 34 35  1  0  0  0  0
 35 33  1  0  0  0  0
 37 36  1  0  0  0  0
 38 37  1  0  0  0  0
 40 39  1  1  0  0  0
 40 38  1  0  0  0  0
 41 43  1  6  0  0  0
 41 42  1  0  0  0  0
 41 56  1  0  0  0  0
 42 40  1  0  0  0  0
 44 69  1  1  0  0  0
 44 42  1  0  0  0  0
 45 43  1  0  0  0  0
 45 44  1  0  0  0  0
 46 48  1  1  0  0  0
 46 55  1  0  0  0  0
 46 49  1  0  0  0  0
 47 51  1  0  0  0  0
 47 52  2  0  0  0  0
 49 54  1  0  0  0  0
 49 51  2  0  0  0  0
 50 61  1  0  0  0  0
 50 55  1  0  0  0  0
 50 56  1  0  0  0  0
 51 57  1  0  0  0  0
 53 48  1  6  0  0  0
 53 58  1  0  0  0  0
 53 54  1  0  0  0  0
 56 47  1  1  0  0  0
 58 59  1  6  0  0  0
 58 60  1  0  0  0  0
 59 60  1  0  0  0  0
 61 62  1  0  0  0  0
 63 65  1  0  0  0  0
 63 64  1  0  0  0  0
 65 62  1  0  0  0  0
 65 64  1  0  0  0  0
 66 69  2  0  0  0  0
 66 68  1  0  0  0  0
 67 70  1  0  0  0  0
 68 70  2  0  0  0  0
 69 67  1  0  0  0  0
M  END
>  <MODEL>
8

>  <REMARK>
 VINA RESULT:      -1.7      2.866      5.970
  Name = 
  23 active torsions:
  status: ('A' for Active; 'I' for Inactive)
    1  A    between atoms: C_1  and  N_7
    2  A    between atoms: C_1  and  C_10
    3  A    between atoms: C_5  and  S_65
    4  A    between atoms: N_7  and  C_18
    5  A    between atoms: C_10  and  C_32
    6  A    between atoms: C_11  and  C_64
    7  A    between atoms: N_14  and  C_40
    8  A    between atoms: N_15  and  N_50
    9  A    between atoms: N_15  and  C_69
   10  A    between atoms: C_16  and  S_65
   11  A    between atoms: C_19  and  C_59
   12  A    between atoms: N_21  and  C_36
   13  A    between atoms: O_22  and  C_36
   14  A    between atoms: O_22  and  C_55
   15  A    between atoms: O_24  and  N_26
   16  A    between atoms: O_24  and  C_34
   17  A    between atoms: C_32  and  N_50
   18  A    between atoms: C_33  and  N_37
   19  A    between atoms: C_34  and  C_48
   20  A    between atoms: C_38  and  C_43
   21  A    between atoms: C_40  and  N_41
   22  A    between atoms: C_55  and  C_70
   23  A    between atoms: C_62  and  C_70
                            x       y       z     vdW  Elec       q    Type
                         _______ _______ _______ _____ _____    ______ ____

>  <TORSDO>
F 23

$$$$
=
 OpenBabel11062415213D

 70 77  0  0  1  0  0  0  0  0999 V2000
  188.0590  178.6540  143.4160 C   0  0  0  0  0  2  0  0  0  0  0  0
  187.1700  177.8510  142.5000 C   0  0  1  0  0  0  0  0  0  0  0  0
  187.4140  179.8700  143.0980 O   0  0  0  0  0  0  0  0  0  0  0  0
  186.2950  176.9060  143.3290 C   0  0  0  0  0  1  0  0  0  0  0  0
  186.5920  179.2150  142.1630 C   0  0  2  0  0  3  0  0  0  0  0  0
  187.9540  178.1330  140.1460 C   0  0  0  0  0  2  0  0  0  0  0  0
  188.3210  177.4810  138.9720 O   0  0  0  0  0  0  0  0  0  0  0  0
  189.6690  177.7950  138.8030 C   0  0  1  0  0  3  0  0  0  0  0  0
  190.4320  176.8820  140.9560 N   0  0  0  0  0  0  0  0  0  0  0  0
  189.2230  176.5220  141.6470 C   0  0  0  0  0  0  0  0  0  0  0  0
  190.5390  176.7650  139.5020 C   0  0  0  0  0  2  0  0  0  0  0  0
  187.8740  177.1490  141.3110 C   0  0  1  0  0  3  0  0  0  0  0  0
  189.2800  175.6580  142.5600 O   0  0  0  0  0  0  0  0  0  0  0  0
  191.6310  177.1780  141.7380 C   0  0  0  0  0  2  0  0  0  0  0  0
  191.4580  177.1010  144.2530 C   0  0  0  0  0  0  0  0  0  0  0  0
  191.2800  177.8000  143.0110 N   0  0  0  0  0  0  0  0  0  0  0  0
  191.6750  175.8610  144.2550 O   0  0  0  0  0  0  0  0  0  0  0  0
  190.8460  179.1890  142.9930 C   0  0  0  0  0  1  0  0  0  0  0  0
  191.3810  177.9720  145.8240 S   0  0  0  0  0  0  0  0  0  0  0  0
  189.9050  177.0640  146.3900 C   0  0  1  0  0  3  0  0  0  0  0  0
  189.2030  177.6560  147.9400 P   0  0  0  0  0  0  0  0  0  0  0  0
  188.9070  176.5360  145.3810 C   0  0  0  0  0  1  0  0  0  0  0  0
  190.1150  176.2500  147.4340 O   0  0  0  0  0  0  0  0  0  0  0  0
  190.0610  178.4010  148.9350 O   0  0  0  0  0  0  0  0  0  0  0  0
  187.7400  177.0790  148.5550 O   0  0  0  0  0  0  0  0  0  0  0  0
  190.0100  177.9000  137.3830 N   0  0  0  0  0  2  0  0  0  0  0  0
  189.7090  176.6500  136.6940 C   0  0  0  0  0  2  0  0  0  0  0  0
  190.8340  175.6570  136.9090 C   0  0  2  0  0  3  0  0  0  0  0  0
  191.9850  176.0990  136.2510 O   0  0  0  0  0  1  0  0  0  0  0  0
  190.4200  174.3030  136.3620 C   0  0  0  0  0  2  0  0  0  0  0  0
  189.1500  174.4210  135.6500 N   0  0  0  0  0  0  0  0  0  0  0  0
  188.1510  174.4660  136.5680 O   0  0  0  0  0  1  0  0  0  0  0  0
  188.9660  173.2860  134.8240 N   0  0  0  0  0  2  0  0  0  0  0  0
  189.0570  170.9640  135.5420 C   0  0  0  0  0  1  0  0  0  0  0  0
  189.8700  172.1950  135.2120 C   0  0  0  0  0  2  0  0  0  0  0  0
  185.0950  179.4470  142.4130 C   0  0  0  0  0  2  0  0  0  0  0  0
  184.1910  178.2790  142.0380 C   0  0  0  0  0  2  0  0  0  0  0  0
  183.4130  178.5760  140.9100 O   0  0  0  0  0  0  0  0  0  0  0  0
  181.5170  178.1700  142.2460 O   0  0  0  0  0  1  0  0  0  0  0  0
  182.1430  177.9450  141.0110 C   0  0  1  0  0  3  0  0  0  0  0  0
  181.0420  176.9860  139.0580 C   0  0  1  0  0  3  0  0  0  0  0  0
  181.2270  178.1860  139.8740 N   0  0  0  0  0  0  0  0  0  0  0  0
  179.6860  176.6080  139.0210 O   0  0  0  0  0  0  0  0  0  0  0  0
  179.9110  178.5260  140.3670 C   0  0  2  0  0  3  0  0  0  0  0  0
  178.9570  177.6620  139.5830 C   0  0  0  0  0  2  0  0  0  0  0  0
  182.0980  174.3380  137.0390 C   0  0  1  0  0  3  0  0  0  0  0  0
  183.1200  177.1500  137.5380 C   0  0  0  0  0  0  0  0  0  0  0  0
  182.2780  172.9280  136.4830 C   0  0  0  0  0  2  0  0  0  0  0  0
  183.4830  174.7000  137.3760 C   0  0  0  0  0  0  0  0  0  0  0  0
  180.8360  176.3950  136.6360 N   0  0  0  0  0  0  0  0  0  0  0  0
  183.9630  175.9310  137.5970 C   0  0  0  0  0  0  0  0  0  0  0  0
  183.6930  178.2690  137.4570 O   0  0  0  0  0  0  0  0  0  0  0  0
  183.5680  172.4150  136.9730 N   0  0  2  0  0  0  0  0  0  0  0  0
  184.3050  173.5560  137.3170 N   0  0  0  0  0  2  0  0  0  0  0  0
  181.5550  175.2910  135.9910 C   0  0  0  0  0  2  0  0  0  0  0  0
  181.6090  177.1500  137.6440 C   0  0  1  0  0  3  0  0  0  0  0  0
  185.3280  176.0830  137.8340 O   0  0  0  0  0  1  0  0  0  0  0  0
  184.2450  171.7800  135.8540 C   0  0  2  0  0  3  0  0  0  0  0  0
  183.6720  170.4370  135.6270 C   0  0  0  0  0  2  0  0  0  0  0  0
  184.8950  170.6150  136.3020 O   0  0  0  0  0  0  0  0  0  0  0  0
  180.4780  177.2690  135.6630 O   0  0  0  0  0  0  0  0  0  0  0  0
  179.6870  178.2260  136.3120 C   0  0  0  0  0  2  0  0  0  0  0  0
  180.3150  180.5540  135.7830 C   0  0  0  0  0  2  0  0  0  0  0  0
  180.6940  179.6910  134.6000 C   0  0  0  0  0  2  0  0  0  0  0  0
  179.4290  179.3930  135.3770 C   0  0  0  0  0  3  0  0  0  0  0  0
  178.9750  180.5200  139.0610 C   0  0  0  0  0  3  0  0  0  0  0  0
  180.0230  180.9560  140.9340 O   0  0  0  0  0  0  0  0  0  0  0  0
  178.9640  181.8570  139.2300 N   0  0  0  0  0  0  0  0  0  0  0  0
  179.6380  179.9830  140.1420 C   0  0  0  0  0  0  0  0  0  0  0  0
  179.6190  182.0790  140.3910 C   0  0  0  0  0  3  0  0  0  0  0  0
  2  4  1  1  0  0  0
  2  1  1  0  0  0  0
  3  1  1  0  0  0  0
  5 36  1  1  0  0  0
  5  2  1  0  0  0  0
  5  3  1  0  0  0  0
  7  6  1  0  0  0  0
  8 26  1  6  0  0  0
  8  7  1  0  0  0  0
  8 11  1  0  0  0  0
  9 10  1  0  0  0  0
  9 14  1  0  0  0  0
 10 13  2  0  0  0  0
 11  9  1  0  0  0  0
 12  6  1  6  0  0  0
 12 10  1  0  0  0  0
 12  2  1  0  0  0  0
 14 16  1  0  0  0  0
 15 17  2  0  0  0  0
 15 19  1  0  0  0  0
 16 15  1  0  0  0  0
 18 16  1  0  0  0  0
 19 20  1  0  0  0  0
 20 22  1  6  0  0  0
 20 23  1  0  0  0  0
 21 25  2  0  0  0  0
 21 24  2  0  0  0  0
 23 21  1  0  0  0  0
 27 28  1  0  0  0  0
 27 26  1  0  0  0  0
 28 29  1  6  0  0  0
 30 28  1  0  0  0  0
 31 30  1  0  0  0  0
 31 32  1  0  0  0  0
 33 35  1  0  0  0  0
 33 31  1  0  0  0  0
 35 34  1  0  0  0  0
 37 36  1  0  0  0  0
 38 40  1  0  0  0  0
 38 37  1  0  0  0  0
 40 39  1  1  0  0  0
 41 43  1  6  0  0  0
 41 42  1  0  0  0  0
 42 44  1  0  0  0  0
 42 40  1  0  0  0  0
 43 45  1  0  0  0  0
 44 69  1  6  0  0  0
 45 44  1  0  0  0  0
 46 55  1  6  0  0  0
 46 49  1  0  0  0  0
 47 51  1  0  0  0  0
 48 46  1  0  0  0  0
 49 51  2  0  0  0  0
 50 56  1  0  0  0  0
 51 57  1  0  0  0  0
 52 47  2  0  0  0  0
 53 48  1  6  0  0  0
 53 54  1  0  0  0  0
 54 49  1  0  0  0  0
 55 50  1  0  0  0  0
 56 47  1  1  0  0  0
 56 41  1  0  0  0  0
 58 59  1  6  0  0  0
 58 60  1  0  0  0  0
 58 53  1  0  0  0  0
 59 60  1  0  0  0  0
 61 62  1  0  0  0  0
 61 50  1  0  0  0  0
 64 65  1  0  0  0  0
 64 63  1  0  0  0  0
 65 63  1  0  0  0  0
 65 62  1  0  0  0  0
 66 68  1  0  0  0  0
 66 69  2  0  0  0  0
 68 70  2  0  0  0  0
 69 67  1  0  0  0  0
 70 67  1  0  0  0  0
M  END
>  <MODEL>
9

>  <REMARK>
 VINA RESULT:      -1.6      2.485      7.192
  Name = 
  23 active torsions:
  status: ('A' for Active; 'I' for Inactive)
    1  A    between atoms: C_1  and  N_7
    2  A    between atoms: C_1  and  C_10
    3  A    between atoms: C_5  and  S_65
    4  A    between atoms: N_7  and  C_18
    5  A    between atoms: C_10  and  C_32
    6  A    between atoms: C_11  and  C_64
    7  A    between atoms: N_14  and  C_40
    8  A    between atoms: N_15  and  N_50
    9  A    between atoms: N_15  and  C_69
   10  A    between atoms: C_16  and  S_65
   11  A    between atoms: C_19  and  C_59
   12  A    between atoms: N_21  and  C_36
   13  A    between atoms: O_22  and  C_36
   14  A    between atoms: O_22  and  C_55
   15  A    between atoms: O_24  and  N_26
   16  A    between atoms: O_24  and  C_34
   17  A    between atoms: C_32  and  N_50
   18  A    between atoms: C_33  and  N_37
   19  A    between atoms: C_34  and  C_48
   20  A    between atoms: C_38  and  C_43
   21  A    between atoms: C_40  and  N_41
   22  A    between atoms: C_55  and  C_70
   23  A    between atoms: C_62  and  C_70
                            x       y       z     vdW  Elec       q    Type
                         _______ _______ _______ _____ _____    ______ ____

>  <TORSDO>
F 23

$$$$
