=
 OpenBabel11062417333D

 47 51  0  0  1  0  0  0  0  0999 V2000
  186.6720  179.2690  143.0040 C   0  0  0  0  0  2  0  0  0  0  0  0
  184.2950  178.6290  138.4410 C   0  0  0  0  0  3  0  0  0  0  0  0
  187.7470  178.3760  139.0750 N   0  0  0  0  0  0  0  0  0  0  0  0
  185.6720  178.5450  138.3570 C   0  0  0  0  0  0  0  0  0  0  0  0
  183.8270  178.5760  142.2150 C   0  0  0  0  0  3  0  0  0  0  0  0
  186.5120  178.4980  137.2710 C   0  0  0  0  0  3  0  0  0  0  0  0
  183.7060  178.6360  139.7170 C   0  0  0  0  0  0  0  0  0  0  0  0
  187.7360  178.3980  137.7690 O   0  0  0  0  0  0  0  0  0  0  0  0
  184.5240  178.5620  140.9000 C   0  0  0  0  0  0  0  0  0  0  0  0
  186.9100  178.2870  141.8770 C   0  0  0  0  0  2  0  0  0  0  0  0
  185.6730  178.6920  143.9890 C   0  0  1  0  0  3  0  0  0  0  0  0
  184.2690  178.6370  143.4790 C   0  0  0  0  0  3  0  0  0  0  0  0
  186.4620  178.4700  139.4530 C   0  0  0  0  0  0  0  0  0  0  0  0
  185.9460  178.4770  140.7510 C   0  0  0  0  0  0  0  0  0  0  0  0
  180.8830  176.8250  137.7650 C   0  0  1  0  0  3  0  0  0  0  0  0
  179.2410  179.9600  138.7570 O   0  0  0  0  0  0  0  0  0  0  0  0
  181.5640  179.5260  138.5450 C   0  0  1  0  0  3  0  0  0  0  0  0
  179.6910  177.8150  137.8720 C   0  0  1  0  0  3  0  0  0  0  0  0
  181.4970  177.5330  140.1140 N   0  0  0  0  0  2  0  0  0  0  0  0
  182.1990  178.7670  139.7230 C   0  0  1  0  0  3  0  0  0  0  0  0
  180.1020  179.1750  138.3920 C   0  0  0  0  0  0  0  0  0  0  0  0
  181.5820  176.4790  139.0960 C   0  0  0  0  0  2  0  0  0  0  0  0
  180.5500  175.5570  137.0450 C   0  0  0  0  0  0  0  0  0  0  0  0
  179.6110  174.8170  137.4440 O   0  0  0  0  0  1  0  0  0  0  0  0
  181.3120  175.1700  135.9460 O   0  0  0  0  0  0  0  0  0  0  0  0
  178.9330  177.9710  136.5450 C   0  0  0  0  0  2  0  0  0  0  0  0
  179.7430  178.7260  135.5010 C   0  0  0  0  0  1  0  0  0  0  0  0
  181.7360  180.9050  138.7160 O   0  0  0  0  0  0  0  0  0  0  0  0
  181.2340  182.9880  137.7000 C   0  0  0  0  0  1  0  0  0  0  0  0
  181.2400  181.4820  137.5460 C   0  0  0  0  0  2  0  0  0  0  0  0
  186.1070  177.3310  144.5260 C   0  0  0  0  0  2  0  0  0  0  0  0
  187.4390  177.4100  145.1130 N   0  0  0  0  0  0  0  0  0  0  0  0
  190.7670  177.3150  141.3780 C   0  0  0  0  0  0  0  0  0  0  0  0
  190.7940  176.0220  141.9890 N   0  0  0  0  0  2  0  0  0  0  0  0
  190.8920  178.9080  144.3250 C   0  0  0  0  0  1  0  0  0  0  0  0
  189.8100  178.3320  143.4320 C   0  0  1  0  0  3  0  0  0  0  0  0
  188.4540  176.5440  144.5740 C   0  0  0  0  0  3  0  0  0  0  0  0
  190.2260  178.4060  142.0680 O   0  0  0  0  0  0  0  0  0  0  0  0
  191.1660  177.4590  140.1920 O   0  0  0  0  0  0  0  0  0  0  0  0
  190.4590  175.8490  143.3950 C   0  0  0  0  0  2  0  0  0  0  0  0
  189.5070  176.9130  143.8360 C   0  0  0  0  0  0  0  0  0  0  0  0
  186.3870  178.6460  146.8010 O   0  0  0  0  0  1  0  0  0  0  0  0
  187.6240  178.1960  146.3340 C   0  0  1  0  0  3  0  0  0  0  0  0
  188.3080  177.3700  147.4170 C   0  0  0  0  0  2  0  0  0  0  0  0
  189.7750  177.7330  147.5180 C   0  0  0  0  0  2  0  0  0  0  0  0
  190.6320  176.4870  147.3680 C   0  0  0  0  0  2  0  0  0  0  0  0
  191.9950  176.7830  147.7770 N   0  0  0  0  0  1  0  0  0  0  0  0
  1 11  1  0  0  0  0
  2  7  2  0  0  0  0
  3 13  2  0  0  0  0
  4  2  1  0  0  0  0
  4 13  1  0  0  0  0
  5 12  2  0  0  0  0
  6  8  1  0  0  0  0
  6  4  2  0  0  0  0
  7  9  1  0  0  0  0
  8  3  1  0  0  0  0
  9  5  1  0  0  0  0
 10  1  1  0  0  0  0
 11 31  1  6  0  0  0
 12 11  1  0  0  0  0
 13 14  1  0  0  0  0
 14  9  2  0  0  0  0
 14 10  1  0  0  0  0
 15 23  1  1  0  0  0
 15 18  1  0  0  0  0
 15 22  1  0  0  0  0
 17 28  1  1  0  0  0
 17 20  1  0  0  0  0
 18 26  1  6  0  0  0
 18 21  1  0  0  0  0
 20  7  1  6  0  0  0
 20 19  1  0  0  0  0
 21 17  1  0  0  0  0
 21 16  2  0  0  0  0
 22 19  1  0  0  0  0
 23 24  1  0  0  0  0
 25 23  2  0  0  0  0
 27 26  1  0  0  0  0
 30 29  1  0  0  0  0
 30 28  1  0  0  0  0
 31 32  1  0  0  0  0
 32 43  1  0  0  0  0
 33 34  1  0  0  0  0
 33 38  1  0  0  0  0
 34 40  1  0  0  0  0
 36 41  1  0  0  0  0
 36 35  1  1  0  0  0
 37 32  1  0  0  0  0
 38 36  1  0  0  0  0
 39 33  2  0  0  0  0
 40 41  1  0  0  0  0
 41 37  2  0  0  0  0
 43 42  1  1  0  0  0
 43 44  1  0  0  0  0
 44 45  1  0  0  0  0
 46 45  1  0  0  0  0
 46 47  1  0  0  0  0
M  END
>  <MODEL>
1

>  <REMARK>
 VINA RESULT:      -7.0      0.000      0.000
  Name = 
  12 active torsions:
  status: ('A' for Active; 'I' for Inactive)
    1  A    between atoms: O_1  and  C_9
    2  A    between atoms: O_1  and  C_35
    3  A    between atoms: C_3  and  C_13
    4  A    between atoms: C_6  and  C_12
    5  A    between atoms: C_11  and  C_17
    6  A    between atoms: C_13  and  C_42
    7  A    between atoms: C_14  and  N_39
    8  A    between atoms: C_14  and  C_43
    9  A    between atoms: C_22  and  C_26
   10  A    between atoms: C_28  and  N_39
   11  A    between atoms: C_33  and  N_39
   12  A    between atoms: C_33  and  C_42
                            x       y       z     vdW  Elec       q    Type
                         _______ _______ _______ _____ _____    ______ ____

>  <TORSDO>
F 12

$$$$
=
 OpenBabel11062417333D

 47 51  0  0  1  0  0  0  0  0999 V2000
  183.2830  179.7770  139.7180 C   0  0  0  0  0  2  0  0  0  0  0  0
  185.8930  178.1240  143.8810 C   0  0  0  0  0  3  0  0  0  0  0  0
  182.5890  179.3340  143.8060 N   0  0  0  0  0  0  0  0  0  0  0  0
  184.6370  178.6150  144.1820 C   0  0  0  0  0  0  0  0  0  0  0  0
  185.6780  177.9550  140.0870 C   0  0  0  0  0  3  0  0  0  0  0  0
  184.0410  178.8990  145.3870 C   0  0  0  0  0  3  0  0  0  0  0  0
  186.2170  177.9110  142.5300 C   0  0  0  0  0  0  0  0  0  0  0  0
  182.8210  179.3230  145.0920 O   0  0  0  0  0  0  0  0  0  0  0  0
  185.2610  178.2050  141.4940 C   0  0  0  0  0  0  0  0  0  0  0  0
  182.8490  178.9610  140.9160 C   0  0  0  0  0  2  0  0  0  0  0  0
  183.7810  178.8580  138.6190 C   0  0  1  0  0  3  0  0  0  0  0  0
  185.1010  178.2180  138.9060 C   0  0  0  0  0  3  0  0  0  0  0  0
  183.7200  178.8940  143.2280 C   0  0  0  0  0  0  0  0  0  0  0  0
  183.9750  178.7120  141.8670 C   0  0  0  0  0  0  0  0  0  0  0  0
  189.3290  177.5220  144.8140 C   0  0  1  0  0  3  0  0  0  0  0  0
  190.8440  177.6460  141.4670 O   0  0  0  0  0  0  0  0  0  0  0  0
  188.7260  178.4700  142.1480 C   0  0  1  0  0  3  0  0  0  0  0  0
  190.5050  177.4730  143.8000 C   0  0  1  0  0  3  0  0  0  0  0  0
  187.9860  176.2380  143.1000 N   0  0  0  0  0  2  0  0  0  0  0  0
  187.6220  177.4070  142.2820 C   0  0  1  0  0  3  0  0  0  0  0  0
  190.0920  177.8750  142.4010 C   0  0  0  0  0  0  0  0  0  0  0  0
  188.1580  176.5630  144.5210 C   0  0  0  0  0  2  0  0  0  0  0  0
  189.7550  177.3530  146.2380 C   0  0  0  0  0  0  0  0  0  0  0  0
  189.2670  178.0760  147.1470 O   0  0  0  0  0  1  0  0  0  0  0  0
  190.7330  176.4150  146.5560 O   0  0  0  0  0  0  0  0  0  0  0  0
  191.7090  178.3160  144.2500 C   0  0  0  0  0  2  0  0  0  0  0  0
  191.4160  179.8080  144.2160 C   0  0  0  0  0  1  0  0  0  0  0  0
  188.6630  179.0680  140.8840 O   0  0  0  0  0  0  0  0  0  0  0  0
  189.0290  178.6000  138.5880 C   0  0  0  0  0  1  0  0  0  0  0  0
  188.8470  178.0240  139.9770 C   0  0  0  0  0  2  0  0  0  0  0  0
  182.7450  177.8090  138.2250 C   0  0  0  0  0  2  0  0  0  0  0  0
  182.7130  177.6350  136.7780 N   0  0  0  0  0  0  0  0  0  0  0  0
  185.6340  173.6070  137.3020 C   0  0  0  0  0  0  0  0  0  0  0  0
  186.2340  174.4230  136.2930 N   0  0  0  0  0  2  0  0  0  0  0  0
  182.5750  173.8800  135.9600 C   0  0  0  0  0  1  0  0  0  0  0  0
  183.4210  174.6730  136.9370 C   0  0  1  0  0  3  0  0  0  0  0  0
  183.8600  177.0270  136.1570 C   0  0  0  0  0  3  0  0  0  0  0  0
  184.2890  173.7880  137.6450 O   0  0  0  0  0  0  0  0  0  0  0  0
  186.3340  172.7710  137.9330 O   0  0  0  0  0  0  0  0  0  0  0  0
  185.4260  175.3060  135.4640 C   0  0  0  0  0  2  0  0  0  0  0  0
  184.2000  175.7340  136.2040 C   0  0  0  0  0  0  0  0  0  0  0  0
  180.8700  177.2820  135.3780 O   0  0  0  0  0  1  0  0  0  0  0  0
  181.6310  178.2630  136.0180 C   0  0  1  0  0  3  0  0  0  0  0  0
  180.7330  179.0910  136.9290 C   0  0  0  0  0  2  0  0  0  0  0  0
  180.8940  180.5690  136.6380 C   0  0  0  0  0  2  0  0  0  0  0  0
  180.5070  181.3860  137.8590 C   0  0  0  0  0  2  0  0  0  0  0  0
  181.1830  182.6720  137.8170 N   0  0  0  0  0  1  0  0  0  0  0  0
  1 10  1  0  0  0  0
  2  4  1  0  0  0  0
  3  8  1  0  0  0  0
  4  6  2  0  0  0  0
  5  9  1  0  0  0  0
  7  2  2  0  0  0  0
  8  6  1  0  0  0  0
  9 14  2  0  0  0  0
  9  7  1  0  0  0  0
 10 14  1  0  0  0  0
 11 31  1  1  0  0  0
 11 12  1  0  0  0  0
 11  1  1  0  0  0  0
 12  5  2  0  0  0  0
 13  3  2  0  0  0  0
 13  4  1  0  0  0  0
 14 13  1  0  0  0  0
 15 23  1  1  0  0  0
 16 21  2  0  0  0  0
 17 28  1  6  0  0  0
 17 20  1  0  0  0  0
 17 21  1  0  0  0  0
 18 26  1  1  0  0  0
 18 15  1  0  0  0  0
 19 22  1  0  0  0  0
 20  7  1  1  0  0  0
 20 19  1  0  0  0  0
 21 18  1  0  0  0  0
 22 15  1  0  0  0  0
 23 25  2  0  0  0  0
 23 24  1  0  0  0  0
 27 26  1  0  0  0  0
 29 30  1  0  0  0  0
 30 28  1  0  0  0  0
 32 31  1  0  0  0  0
 33 38  1  0  0  0  0
 33 39  2  0  0  0  0
 34 33  1  0  0  0  0
 36 35  1  6  0  0  0
 36 38  1  0  0  0  0
 37 41  2  0  0  0  0
 37 32  1  0  0  0  0
 40 41  1  0  0  0  0
 40 34  1  0  0  0  0
 41 36  1  0  0  0  0
 43 42  1  1  0  0  0
 43 32  1  0  0  0  0
 43 44  1  0  0  0  0
 45 44  1  0  0  0  0
 45 46  1  0  0  0  0
 47 46  1  0  0  0  0
M  END
>  <MODEL>
2

>  <REMARK>
 VINA RESULT:      -7.0      2.646      9.745
  Name = 
  12 active torsions:
  status: ('A' for Active; 'I' for Inactive)
    1  A    between atoms: O_1  and  C_9
    2  A    between atoms: O_1  and  C_35
    3  A    between atoms: C_3  and  C_13
    4  A    between atoms: C_6  and  C_12
    5  A    between atoms: C_11  and  C_17
    6  A    between atoms: C_13  and  C_42
    7  A    between atoms: C_14  and  N_39
    8  A    between atoms: C_14  and  C_43
    9  A    between atoms: C_22  and  C_26
   10  A    between atoms: C_28  and  N_39
   11  A    between atoms: C_33  and  N_39
   12  A    between atoms: C_33  and  C_42
                            x       y       z     vdW  Elec       q    Type
                         _______ _______ _______ _____ _____    ______ ____

>  <TORSDO>
F 12

$$$$
=
 OpenBabel11062417333D

 47 51  0  0  1  0  0  0  0  0999 V2000
  182.6820  179.7560  143.1810 C   0  0  0  0  0  2  0  0  0  0  0  0
  187.1860  177.7800  144.8200 C   0  0  0  0  0  3  0  0  0  0  0  0
  184.5590  178.9890  146.8250 N   0  0  0  0  0  0  0  0  0  0  0  0
  186.3870  178.2450  145.8470 C   0  0  0  0  0  0  0  0  0  0  0  0
  184.7310  177.9120  141.9180 C   0  0  0  0  0  3  0  0  0  0  0  0
  186.6460  178.4320  147.1830 C   0  0  0  0  0  3  0  0  0  0  0  0
  186.6250  177.6750  143.5360 C   0  0  0  0  0  0  0  0  0  0  0  0
  185.5140  178.8770  147.7080 O   0  0  0  0  0  0  0  0  0  0  0  0
  185.2540  178.0490  143.3050 C   0  0  0  0  0  0  0  0  0  0  0  0
  183.0150  178.8460  144.3430 C   0  0  0  0  0  2  0  0  0  0  0  0
  182.3780  178.9260  141.9470 C   0  0  1  0  0  3  0  0  0  0  0  0
  183.5750  178.2670  141.3410 C   0  0  0  0  0  3  0  0  0  0  0  0
  185.0950  178.5980  145.6560 C   0  0  0  0  0  0  0  0  0  0  0  0
  184.4740  178.5250  144.4080 C   0  0  0  0  0  0  0  0  0  0  0  0
  190.4250  176.8950  143.5210 C   0  0  1  0  0  3  0  0  0  0  0  0
  189.7530  177.5050  139.9590 O   0  0  0  0  0  0  0  0  0  0  0  0
  188.5040  178.2480  141.8340 C   0  0  1  0  0  3  0  0  0  0  0  0
  190.7960  176.9830  142.0150 C   0  0  1  0  0  3  0  0  0  0  0  0
  188.2210  175.9080  142.7730 N   0  0  0  0  0  2  0  0  0  0  0  0
  187.5750  177.1940  142.4610 C   0  0  1  0  0  3  0  0  0  0  0  0
  189.7000  177.6000  141.1750 C   0  0  0  0  0  0  0  0  0  0  0  0
  189.2070  176.0090  143.8550 C   0  0  0  0  0  2  0  0  0  0  0  0
  191.5700  176.5030  144.4000 C   0  0  0  0  0  0  0  0  0  0  0  0
  192.1200  175.3760  144.2790 O   0  0  0  0  0  0  0  0  0  0  0  0
  192.0050  177.3770  145.3930 O   0  0  0  0  0  1  0  0  0  0  0  0
  192.1190  177.7280  141.7760 C   0  0  0  0  0  2  0  0  0  0  0  0
  192.6790  177.4800  140.3830 C   0  0  0  0  0  1  0  0  0  0  0  0
  187.7890  179.0330  140.9220 O   0  0  0  0  0  0  0  0  0  0  0  0
  186.4270  178.6260  139.0240 C   0  0  0  0  0  1  0  0  0  0  0  0
  187.6920  178.2540  139.7690 C   0  0  0  0  0  2  0  0  0  0  0  0
  181.2650  177.9110  142.1900 C   0  0  0  0  0  2  0  0  0  0  0  0
  180.4380  177.7590  140.9990 N   0  0  0  0  0  0  0  0  0  0  0  0
  181.2960  181.9120  138.3430 C   0  0  0  0  0  0  0  0  0  0  0  0
  179.9690  182.0220  138.8640 N   0  0  0  0  0  2  0  0  0  0  0  0
  180.8230  178.7600  137.3060 C   0  0  0  0  0  1  0  0  0  0  0  0
  181.2550  179.4410  138.5900 C   0  0  1  0  0  3  0  0  0  0  0  0
  179.7340  178.9220  140.5280 C   0  0  0  0  0  3  0  0  0  0  0  0
  181.9260  180.6630  138.2800 O   0  0  0  0  0  0  0  0  0  0  0  0
  181.9270  182.9490  138.0050 O   0  0  0  0  0  0  0  0  0  0  0  0
  179.1720  180.8350  139.1430 C   0  0  0  0  0  2  0  0  0  0  0  0
  180.0600  179.6810  139.4750 C   0  0  0  0  0  0  0  0  0  0  0  0
  179.2780  176.4660  139.4290 O   0  0  0  0  0  1  0  0  0  0  0  0
  180.2040  176.4130  140.4730 C   0  0  1  0  0  3  0  0  0  0  0  0
  181.5010  175.7880  139.9730 C   0  0  0  0  0  2  0  0  0  0  0  0
  181.3390  175.2870  138.5520 C   0  0  0  0  0  2  0  0  0  0  0  0
  182.6700  175.3480  137.8230 C   0  0  0  0  0  2  0  0  0  0  0  0
  182.4400  175.3050  136.3890 N   0  0  0  0  0  1  0  0  0  0  0  0
  1 10  1  0  0  0  0
  2  4  1  0  0  0  0
  3  8  1  0  0  0  0
  4  6  2  0  0  0  0
  5  9  1  0  0  0  0
  6  8  1  0  0  0  0
  7  2  2  0  0  0  0
  9  7  1  0  0  0  0
  9 14  2  0  0  0  0
 10 14  1  0  0  0  0
 11 31  1  1  0  0  0
 11  1  1  0  0  0  0
 12  5  2  0  0  0  0
 12 11  1  0  0  0  0
 13  4  1  0  0  0  0
 13  3  2  0  0  0  0
 14 13  1  0  0  0  0
 15 22  1  0  0  0  0
 15 23  1  1  0  0  0
 16 21  2  0  0  0  0
 17 28  1  6  0  0  0
 17 20  1  0  0  0  0
 18 26  1  1  0  0  0
 18 15  1  0  0  0  0
 19 22  1  0  0  0  0
 20 19  1  0  0  0  0
 20  7  1  1  0  0  0
 21 17  1  0  0  0  0
 21 18  1  0  0  0  0
 23 25  1  0  0  0  0
 24 23  2  0  0  0  0
 27 26  1  0  0  0  0
 29 30  1  0  0  0  0
 30 28  1  0  0  0  0
 32 31  1  0  0  0  0
 33 34  1  0  0  0  0
 34 40  1  0  0  0  0
 36 35  1  6  0  0  0
 36 41  1  0  0  0  0
 37 32  1  0  0  0  0
 38 33  1  0  0  0  0
 38 36  1  0  0  0  0
 39 33  2  0  0  0  0
 40 41  1  0  0  0  0
 41 37  2  0  0  0  0
 43 42  1  6  0  0  0
 43 32  1  0  0  0  0
 44 43  1  0  0  0  0
 45 44  1  0  0  0  0
 46 45  1  0  0  0  0
 47 46  1  0  0  0  0
M  END
>  <MODEL>
3

>  <REMARK>
 VINA RESULT:      -7.0      2.151      9.721
  Name = 
  12 active torsions:
  status: ('A' for Active; 'I' for Inactive)
    1  A    between atoms: O_1  and  C_9
    2  A    between atoms: O_1  and  C_35
    3  A    between atoms: C_3  and  C_13
    4  A    between atoms: C_6  and  C_12
    5  A    between atoms: C_11  and  C_17
    6  A    between atoms: C_13  and  C_42
    7  A    between atoms: C_14  and  N_39
    8  A    between atoms: C_14  and  C_43
    9  A    between atoms: C_22  and  C_26
   10  A    between atoms: C_28  and  N_39
   11  A    between atoms: C_33  and  N_39
   12  A    between atoms: C_33  and  C_42
                            x       y       z     vdW  Elec       q    Type
                         _______ _______ _______ _____ _____    ______ ____

>  <TORSDO>
F 12

$$$$
=
 OpenBabel11062417333D

 47 51  0  0  1  0  0  0  0  0999 V2000
  187.6440  176.7440  143.1120 C   0  0  0  0  0  2  0  0  0  0  0  0
  183.1960  179.0190  141.7260 C   0  0  0  0  0  3  0  0  0  0  0  0
  184.4670  178.6850  144.9910 N   0  0  0  0  0  0  0  0  0  0  0  0
  183.3850  178.9740  143.0950 C   0  0  0  0  0  0  0  0  0  0  0  0
  186.6420  177.9540  140.5180 C   0  0  0  0  0  3  0  0  0  0  0  0
  182.5360  179.2620  144.1360 C   0  0  0  0  0  3  0  0  0  0  0  0
  184.2780  178.6830  140.8940 C   0  0  0  0  0  0  0  0  0  0  0  0
  183.2440  179.0690  145.2390 O   0  0  0  0  0  0  0  0  0  0  0  0
  185.5440  178.2970  141.4630 C   0  0  0  0  0  0  0  0  0  0  0  0
  186.9560  177.9940  143.6170 C   0  0  0  0  0  2  0  0  0  0  0  0
  188.5740  177.0940  141.9650 C   0  0  1  0  0  3  0  0  0  0  0  0
  187.8740  177.4570  140.6950 C   0  0  0  0  0  3  0  0  0  0  0  0
  184.5650  178.6200  143.6520 C   0  0  0  0  0  0  0  0  0  0  0  0
  185.6800  178.2680  142.8880 C   0  0  0  0  0  0  0  0  0  0  0  0
  181.5260  180.4340  138.7940 C   0  0  1  0  0  3  0  0  0  0  0  0
  182.5840  177.7150  136.5590 O   0  0  0  0  0  0  0  0  0  0  0  0
  182.8150  177.8470  138.9160 C   0  0  1  0  0  3  0  0  0  0  0  0
  181.5160  179.6140  137.4750 C   0  0  1  0  0  3  0  0  0  0  0  0
  184.0280  180.0740  138.8320 N   0  0  0  0  0  2  0  0  0  0  0  0
  183.9790  178.7210  139.4120 C   0  0  1  0  0  3  0  0  0  0  0  0
  182.3030  178.3260  137.5780 C   0  0  0  0  0  0  0  0  0  0  0  0
  182.9110  180.9230  139.2640 C   0  0  0  0  0  2  0  0  0  0  0  0
  180.5750  181.5880  138.7920 C   0  0  0  0  0  0  0  0  0  0  0  0
  180.7360  182.5540  137.9990 O   0  0  0  0  0  0  0  0  0  0  0  0
  179.5250  181.6160  139.7060 O   0  0  0  0  0  1  0  0  0  0  0  0
  180.0930  179.3180  136.9740 C   0  0  0  0  0  2  0  0  0  0  0  0
  179.3720  178.3030  137.8490 C   0  0  0  0  0  1  0  0  0  0  0  0
  183.2160  176.5070  138.8520 O   0  0  0  0  0  0  0  0  0  0  0  0
  181.2620  176.2880  140.1780 C   0  0  0  0  0  1  0  0  0  0  0  0
  182.0410  175.7680  138.9880 C   0  0  0  0  0  2  0  0  0  0  0  0
  189.5900  178.1660  142.3480 C   0  0  0  0  0  2  0  0  0  0  0  0
  190.8680  177.5610  142.7030 N   0  0  0  0  0  0  0  0  0  0  0  0
  192.7040  175.6750  138.4470 C   0  0  0  0  0  0  0  0  0  0  0  0
  193.6650  176.6170  138.9300 N   0  0  0  0  0  2  0  0  0  0  0  0
  190.1360  177.7740  138.9340 C   0  0  0  0  0  1  0  0  0  0  0  0
  190.8940  176.7550  139.7620 C   0  0  1  0  0  3  0  0  0  0  0  0
  191.9710  177.7650  141.8010 C   0  0  0  0  0  3  0  0  0  0  0  0
  191.3840  175.7170  138.9120 O   0  0  0  0  0  0  0  0  0  0  0  0
  193.0600  174.7620  137.6560 O   0  0  0  0  0  0  0  0  0  0  0  0
  193.2580  177.7540  139.7430 C   0  0  0  0  0  2  0  0  0  0  0  0
  192.0170  177.4280  140.5080 C   0  0  0  0  0  0  0  0  0  0  0  0
  191.9020  175.6610  143.6000 O   0  0  0  0  0  1  0  0  0  0  0  0
  190.9150  176.6230  143.8260 C   0  0  1  0  0  3  0  0  0  0  0  0
  191.2010  177.3500  145.1330 C   0  0  0  0  0  2  0  0  0  0  0  0
  190.0330  177.2110  146.0880 C   0  0  0  0  0  2  0  0  0  0  0  0
  190.5360  176.8690  147.4810 C   0  0  0  0  0  2  0  0  0  0  0  0
  191.9570  176.5730  147.4250 N   0  0  0  0  0  1  0  0  0  0  0  0
  1 10  1  0  0  0  0
  2  4  1  0  0  0  0
  3  8  1  0  0  0  0
  4 13  1  0  0  0  0
  4  6  2  0  0  0  0
  5 12  2  0  0  0  0
  5  9  1  0  0  0  0
  6  8  1  0  0  0  0
  7  9  1  0  0  0  0
  7  2  2  0  0  0  0
  9 14  2  0  0  0  0
 11 31  1  1  0  0  0
 11  1  1  0  0  0  0
 12 11  1  0  0  0  0
 13  3  2  0  0  0  0
 14 10  1  0  0  0  0
 14 13  1  0  0  0  0
 15 23  1  6  0  0  0
 15 22  1  0  0  0  0
 16 21  2  0  0  0  0
 17 28  1  6  0  0  0
 17 20  1  0  0  0  0
 18 26  1  1  0  0  0
 18 21  1  0  0  0  0
 18 15  1  0  0  0  0
 19 22  1  0  0  0  0
 19 20  1  0  0  0  0
 20  7  1  1  0  0  0
 21 17  1  0  0  0  0
 23 25  1  0  0  0  0
 24 23  2  0  0  0  0
 26 27  1  0  0  0  0
 28 30  1  0  0  0  0
 30 29  1  0  0  0  0
 31 32  1  0  0  0  0
 32 43  1  0  0  0  0
 33 38  1  0  0  0  0
 33 34  1  0  0  0  0
 34 40  1  0  0  0  0
 36 35  1  6  0  0  0
 36 41  1  0  0  0  0
 37 32  1  0  0  0  0
 38 36  1  0  0  0  0
 39 33  2  0  0  0  0
 40 41  1  0  0  0  0
 41 37  2  0  0  0  0
 43 42  1  6  0  0  0
 43 44  1  0  0  0  0
 44 45  1  0  0  0  0
 45 46  1  0  0  0  0
 47 46  1  0  0  0  0
M  END
>  <MODEL>
4

>  <REMARK>
 VINA RESULT:      -7.0      2.105      4.577
  Name = 
  12 active torsions:
  status: ('A' for Active; 'I' for Inactive)
    1  A    between atoms: O_1  and  C_9
    2  A    between atoms: O_1  and  C_35
    3  A    between atoms: C_3  and  C_13
    4  A    between atoms: C_6  and  C_12
    5  A    between atoms: C_11  and  C_17
    6  A    between atoms: C_13  and  C_42
    7  A    between atoms: C_14  and  N_39
    8  A    between atoms: C_14  and  C_43
    9  A    between atoms: C_22  and  C_26
   10  A    between atoms: C_28  and  N_39
   11  A    between atoms: C_33  and  N_39
   12  A    between atoms: C_33  and  C_42
                            x       y       z     vdW  Elec       q    Type
                         _______ _______ _______ _____ _____    ______ ____

>  <TORSDO>
F 12

$$$$
=
 OpenBabel11062417333D

 47 51  0  0  1  0  0  0  0  0999 V2000
  186.0420  179.4490  141.7510 C   0  0  0  0  0  2  0  0  0  0  0  0
  190.2440  176.9580  140.0140 C   0  0  0  0  0  3  0  0  0  0  0  0
  189.3570  177.5080  143.3740 N   0  0  0  0  0  0  0  0  0  0  0  0
  190.2110  177.0820  141.3900 C   0  0  0  0  0  0  0  0  0  0  0  0
  186.7150  178.0710  139.1350 C   0  0  0  0  0  3  0  0  0  0  0  0
  191.1640  176.8220  142.3450 C   0  0  0  0  0  3  0  0  0  0  0  0
  189.0850  177.2850  139.2890 C   0  0  0  0  0  0  0  0  0  0  0  0
  190.5890  177.0970  143.5070 O   0  0  0  0  0  0  0  0  0  0  0  0
  187.9020  177.7420  139.9710 C   0  0  0  0  0  0  0  0  0  0  0  0
  186.7490  178.2060  142.2470 C   0  0  0  0  0  2  0  0  0  0  0  0
  184.9810  179.0700  140.7360 C   0  0  1  0  0  3  0  0  0  0  0  0
  185.5240  178.6170  139.4190 C   0  0  0  0  0  3  0  0  0  0  0  0
  189.1110  177.5040  142.0540 C   0  0  0  0  0  0  0  0  0  0  0  0
  187.9270  177.8510  141.3990 C   0  0  0  0  0  0  0  0  0  0  0  0
  188.3090  174.4110  136.8000 C   0  0  1  0  0  3  0  0  0  0  0  0
  190.7310  176.4300  134.9110 O   0  0  0  0  0  0  0  0  0  0  0  0
  190.4100  176.3460  137.2600 C   0  0  1  0  0  3  0  0  0  0  0  0
  189.1680  174.7790  135.5600 C   0  0  1  0  0  3  0  0  0  0  0  0
  187.9380  176.8940  137.1020 N   0  0  0  0  0  2  0  0  0  0  0  0
  189.2140  177.1580  137.7870 C   0  0  1  0  0  3  0  0  0  0  0  0
  190.1710  175.8760  135.8440 C   0  0  0  0  0  0  0  0  0  0  0  0
  187.4200  175.5440  137.3540 C   0  0  0  0  0  2  0  0  0  0  0  0
  187.4750  173.1840  136.6120 C   0  0  0  0  0  0  0  0  0  0  0  0
  186.4620  173.2020  135.8620 O   0  0  0  0  0  0  0  0  0  0  0  0
  187.7970  172.0210  137.3050 O   0  0  0  0  0  1  0  0  0  0  0  0
  189.8850  173.5620  134.9550 C   0  0  0  0  0  2  0  0  0  0  0  0
  191.0600  173.1020  135.8050 C   0  0  0  0  0  1  0  0  0  0  0  0
  191.5810  177.1080  137.3480 O   0  0  0  0  0  0  0  0  0  0  0  0
  193.7200  176.3070  136.7090 C   0  0  0  0  0  1  0  0  0  0  0  0
  192.5810  176.2010  137.7010 C   0  0  0  0  0  2  0  0  0  0  0  0
  183.9850  178.0540  141.2890 C   0  0  0  0  0  2  0  0  0  0  0  0
  182.6800  178.6700  141.4950 N   0  0  0  0  0  0  0  0  0  0  0  0
  180.5840  176.3480  137.5900 C   0  0  0  0  0  0  0  0  0  0  0  0
  180.4350  177.7510  137.3640 N   0  0  0  0  0  2  0  0  0  0  0  0
  179.5450  176.5650  140.7690 C   0  0  0  0  0  1  0  0  0  0  0  0
  180.8620  176.7070  140.0320 C   0  0  1  0  0  3  0  0  0  0  0  0
  181.9020  178.9810  140.3250 C   0  0  0  0  0  3  0  0  0  0  0  0
  180.8560  175.8670  138.8760 O   0  0  0  0  0  0  0  0  0  0  0  0
  180.5410  175.5460  136.6190 O   0  0  0  0  0  0  0  0  0  0  0  0
  180.3550  178.6860  138.4780 C   0  0  0  0  0  2  0  0  0  0  0  0
  181.0940  178.1480  139.6600 C   0  0  0  0  0  0  0  0  0  0  0  0
  180.9850  178.8140  143.1040 O   0  0  0  0  0  1  0  0  0  0  0  0
  182.3210  179.1240  142.8390 C   0  0  1  0  0  3  0  0  0  0  0  0
  183.2120  178.4750  143.8910 C   0  0  0  0  0  2  0  0  0  0  0  0
  183.9250  179.5310  144.7110 C   0  0  0  0  0  2  0  0  0  0  0  0
  185.0990  178.9120  145.4520 C   0  0  0  0  0  2  0  0  0  0  0  0
  184.6730  178.5000  146.7780 N   0  0  0  0  0  1  0  0  0  0  0  0
  1 10  1  0  0  0  0
  2  4  1  0  0  0  0
  3  8  1  0  0  0  0
  4 13  1  0  0  0  0
  4  6  2  0  0  0  0
  5 12  2  0  0  0  0
  5  9  1  0  0  0  0
  6  8  1  0  0  0  0
  7  9  1  0  0  0  0
  7  2  2  0  0  0  0
  9 14  2  0  0  0  0
 11 31  1  1  0  0  0
 11  1  1  0  0  0  0
 12 11  1  0  0  0  0
 13  3  2  0  0  0  0
 14 13  1  0  0  0  0
 14 10  1  0  0  0  0
 15 23  1  6  0  0  0
 15 22  1  0  0  0  0
 16 21  2  0  0  0  0
 17 28  1  6  0  0  0
 17 20  1  0  0  0  0
 18 26  1  1  0  0  0
 18 21  1  0  0  0  0
 18 15  1  0  0  0  0
 19 22  1  0  0  0  0
 19 20  1  0  0  0  0
 20  7  1  1  0  0  0
 21 17  1  0  0  0  0
 23 25  1  0  0  0  0
 24 23  2  0  0  0  0
 26 27  1  0  0  0  0
 28 30  1  0  0  0  0
 29 30  1  0  0  0  0
 31 32  1  0  0  0  0
 32 43  1  0  0  0  0
 33 38  1  0  0  0  0
 34 33  1  0  0  0  0
 34 40  1  0  0  0  0
 36 35  1  6  0  0  0
 37 32  1  0  0  0  0
 38 36  1  0  0  0  0
 39 33  2  0  0  0  0
 40 41  1  0  0  0  0
 41 36  1  0  0  0  0
 41 37  2  0  0  0  0
 43 42  1  1  0  0  0
 43 44  1  0  0  0  0
 44 45  1  0  0  0  0
 45 46  1  0  0  0  0
 46 47  1  0  0  0  0
M  END
>  <MODEL>
5

>  <REMARK>
 VINA RESULT:      -6.9      3.219      8.313
  Name = 
  12 active torsions:
  status: ('A' for Active; 'I' for Inactive)
    1  A    between atoms: O_1  and  C_9
    2  A    between atoms: O_1  and  C_35
    3  A    between atoms: C_3  and  C_13
    4  A    between atoms: C_6  and  C_12
    5  A    between atoms: C_11  and  C_17
    6  A    between atoms: C_13  and  C_42
    7  A    between atoms: C_14  and  N_39
    8  A    between atoms: C_14  and  C_43
    9  A    between atoms: C_22  and  C_26
   10  A    between atoms: C_28  and  N_39
   11  A    between atoms: C_33  and  N_39
   12  A    between atoms: C_33  and  C_42
                            x       y       z     vdW  Elec       q    Type
                         _______ _______ _______ _____ _____    ______ ____

>  <TORSDO>
F 12

$$$$
=
 OpenBabel11062417333D

 47 51  0  0  1  0  0  0  0  0999 V2000
  186.9640  175.5530  136.0820 C   0  0  0  0  0  2  0  0  0  0  0  0
  182.1280  176.2520  137.8140 C   0  0  0  0  0  3  0  0  0  0  0  0
  183.5900  173.2130  136.8090 N   0  0  0  0  0  0  0  0  0  0  0  0
  182.3860  174.9530  137.4200 C   0  0  0  0  0  0  0  0  0  0  0  0
  185.6460  177.6980  137.7720 C   0  0  0  0  0  3  0  0  0  0  0  0
  181.5490  173.8770  137.2460 C   0  0  0  0  0  3  0  0  0  0  0  0
  183.2120  177.1400  137.9270 C   0  0  0  0  0  0  0  0  0  0  0  0
  182.3310  172.8720  136.8810 O   0  0  0  0  0  0  0  0  0  0  0  0
  184.5510  176.7000  137.6310 C   0  0  0  0  0  0  0  0  0  0  0  0
  186.0940  174.7150  136.9930 C   0  0  0  0  0  2  0  0  0  0  0  0
  187.7640  176.5470  136.9020 C   0  0  1  0  0  3  0  0  0  0  0  0
  186.9530  177.6640  137.4750 C   0  0  0  0  0  3  0  0  0  0  0  0
  183.6350  174.5140  137.1420 C   0  0  0  0  0  0  0  0  0  0  0  0
  184.7560  175.3410  137.2270 C   0  0  0  0  0  0  0  0  0  0  0  0
  180.9010  178.5890  140.6860 C   0  0  1  0  0  3  0  0  0  0  0  0
  181.0520  181.3610  138.2770 O   0  0  0  0  0  0  0  0  0  0  0  0
  181.4580  179.0570  137.8860 C   0  0  1  0  0  3  0  0  0  0  0  0
  180.5900  180.0200  140.1680 C   0  0  1  0  0  3  0  0  0  0  0  0
  183.2130  178.8930  139.7100 N   0  0  0  0  0  2  0  0  0  0  0  0
  182.8420  178.5520  138.3270 C   0  0  1  0  0  3  0  0  0  0  0  0
  181.0090  180.2280  138.7290 C   0  0  0  0  0  0  0  0  0  0  0  0
  182.3930  178.2000  140.7110 C   0  0  0  0  0  2  0  0  0  0  0  0
  180.2950  178.2870  142.0200 C   0  0  0  0  0  0  0  0  0  0  0  0
  179.3660  177.4410  142.1290 O   0  0  0  0  0  0  0  0  0  0  0  0
  180.7320  178.9780  143.1460 O   0  0  0  0  0  1  0  0  0  0  0  0
  179.1110  180.4020  140.3410 C   0  0  0  0  0  2  0  0  0  0  0  0
  178.9310  181.6310  141.2190 C   0  0  0  0  0  1  0  0  0  0  0  0
  181.4810  179.3940  136.5280 O   0  0  0  0  0  0  0  0  0  0  0  0
  180.6280  177.9500  134.8510 C   0  0  0  0  0  1  0  0  0  0  0  0
  180.2970  178.8760  136.0020 C   0  0  0  0  0  2  0  0  0  0  0  0
  188.5950  175.8690  137.9880 C   0  0  0  0  0  2  0  0  0  0  0  0
  189.5330  176.8130  138.5830 N   0  0  0  0  0  0  0  0  0  0  0  0
  187.6310  177.0800  143.2040 C   0  0  0  0  0  0  0  0  0  0  0  0
  187.4640  178.3700  142.6130 N   0  0  0  0  0  2  0  0  0  0  0  0
  190.8220  176.8390  142.2060 C   0  0  0  0  0  1  0  0  0  0  0  0
  189.4610  176.5240  141.6180 C   0  0  1  0  0  3  0  0  0  0  0  0
  189.0000  177.7930  139.4930 C   0  0  0  0  0  3  0  0  0  0  0  0
  188.5560  176.1760  142.6670 O   0  0  0  0  0  0  0  0  0  0  0  0
  186.8980  176.7270  144.1650 O   0  0  0  0  0  0  0  0  0  0  0  0
  188.3780  178.8510  141.5870 C   0  0  0  0  0  2  0  0  0  0  0  0
  188.9550  177.7010  140.8270 C   0  0  0  0  0  0  0  0  0  0  0  0
  191.7930  177.0840  139.1340 O   0  0  0  0  0  1  0  0  0  0  0  0
  190.9070  176.8520  138.0800 C   0  0  1  0  0  3  0  0  0  0  0  0
  191.2710  175.5450  137.3850 C   0  0  0  0  0  2  0  0  0  0  0  0
  192.6930  175.5970  136.8640 C   0  0  0  0  0  2  0  0  0  0  0  0
  193.5120  174.4700  137.4710 C   0  0  0  0  0  2  0  0  0  0  0  0
  194.6400  175.0280  138.1980 N   0  0  0  0  0  1  0  0  0  0  0  0
  1 11  1  0  0  0  0
  1 10  1  0  0  0  0
  2  7  2  0  0  0  0
  3  8  1  0  0  0  0
  3 13  2  0  0  0  0
  4  2  1  0  0  0  0
  6  4  2  0  0  0  0
  8  6  1  0  0  0  0
  9  5  1  0  0  0  0
  9  7  1  0  0  0  0
 10 14  1  0  0  0  0
 11 12  1  0  0  0  0
 11 31  1  1  0  0  0
 12  5  2  0  0  0  0
 13 14  1  0  0  0  0
 13  4  1  0  0  0  0
 14  9  2  0  0  0  0
 15 22  1  0  0  0  0
 15 23  1  1  0  0  0
 16 21  2  0  0  0  0
 17 28  1  6  0  0  0
 17 20  1  0  0  0  0
 17 21  1  0  0  0  0
 18 26  1  6  0  0  0
 18 15  1  0  0  0  0
 19 22  1  0  0  0  0
 20  7  1  1  0  0  0
 20 19  1  0  0  0  0
 21 18  1  0  0  0  0
 23 24  2  0  0  0  0
 23 25  1  0  0  0  0
 26 27  1  0  0  0  0
 29 30  1  0  0  0  0
 30 28  1  0  0  0  0
 31 32  1  0  0  0  0
 32 37  1  0  0  0  0
 33 39  2  0  0  0  0
 34 33  1  0  0  0  0
 36 35  1  1  0  0  0
 36 38  1  0  0  0  0
 37 41  2  0  0  0  0
 38 33  1  0  0  0  0
 40 34  1  0  0  0  0
 41 40  1  0  0  0  0
 41 36  1  0  0  0  0
 43 32  1  0  0  0  0
 43 42  1  1  0  0  0
 44 43  1  0  0  0  0
 45 44  1  0  0  0  0
 45 46  1  0  0  0  0
 46 47  1  0  0  0  0
M  END
>  <MODEL>
6

>  <REMARK>
 VINA RESULT:      -6.6      2.900      5.905
  Name = 
  12 active torsions:
  status: ('A' for Active; 'I' for Inactive)
    1  A    between atoms: O_1  and  C_9
    2  A    between atoms: O_1  and  C_35
    3  A    between atoms: C_3  and  C_13
    4  A    between atoms: C_6  and  C_12
    5  A    between atoms: C_11  and  C_17
    6  A    between atoms: C_13  and  C_42
    7  A    between atoms: C_14  and  N_39
    8  A    between atoms: C_14  and  C_43
    9  A    between atoms: C_22  and  C_26
   10  A    between atoms: C_28  and  N_39
   11  A    between atoms: C_33  and  N_39
   12  A    between atoms: C_33  and  C_42
                            x       y       z     vdW  Elec       q    Type
                         _______ _______ _______ _____ _____    ______ ____

>  <TORSDO>
F 12

$$$$
=
 OpenBabel11062417333D

 47 51  0  0  1  0  0  0  0  0999 V2000
  186.4890  179.3510  141.3670 C   0  0  0  0  0  2  0  0  0  0  0  0
  185.0090  177.7740  136.6550 C   0  0  0  0  0  3  0  0  0  0  0  0
  188.2760  178.5930  137.6760 N   0  0  0  0  0  0  0  0  0  0  0  0
  186.3510  178.0970  136.7280 C   0  0  0  0  0  0  0  0  0  0  0  0
  184.0910  177.8000  140.3460 C   0  0  0  0  0  3  0  0  0  0  0  0
  187.3020  178.2390  135.7470 C   0  0  0  0  0  3  0  0  0  0  0  0
  184.2820  177.6780  137.8550 C   0  0  0  0  0  0  0  0  0  0  0  0
  188.4270  178.5360  136.3800 O   0  0  0  0  0  0  0  0  0  0  0  0
  184.9260  177.9190  139.1200 C   0  0  0  0  0  0  0  0  0  0  0  0
  187.1430  178.4210  140.3690 C   0  0  0  0  0  2  0  0  0  0  0  0
  185.5790  178.5610  142.2890 C   0  0  1  0  0  3  0  0  0  0  0  0
  184.3290  178.0630  141.6390 C   0  0  0  0  0  3  0  0  0  0  0  0
  186.9790  178.3230  137.9040 C   0  0  0  0  0  0  0  0  0  0  0  0
  186.3190  178.2510  139.1330 C   0  0  0  0  0  0  0  0  0  0  0  0
  181.0500  179.2130  139.3530 C   0  0  1  0  0  3  0  0  0  0  0  0
  179.9260  175.8490  138.3880 O   0  0  0  0  0  0  0  0  0  0  0  0
  182.1380  176.5840  138.8330 C   0  0  1  0  0  3  0  0  0  0  0  0
  180.0060  178.0760  139.1770 C   0  0  1  0  0  3  0  0  0  0  0  0
  182.0210  178.4710  137.1400 N   0  0  0  0  0  2  0  0  0  0  0  0
  182.8140  177.3560  137.6870 C   0  0  1  0  0  3  0  0  0  0  0  0
  180.6370  176.7540  138.7960 C   0  0  0  0  0  0  0  0  0  0  0  0
  181.8570  179.5770  138.0900 C   0  0  0  0  0  2  0  0  0  0  0  0
  180.4820  180.4630  139.9470 C   0  0  0  0  0  0  0  0  0  0  0  0
  180.1040  181.4130  139.2100 O   0  0  0  0  0  0  0  0  0  0  0  0
  180.4110  180.5950  141.3310 O   0  0  0  0  0  1  0  0  0  0  0  0
  179.1180  177.8920  140.4170 C   0  0  0  0  0  2  0  0  0  0  0  0
  179.8430  177.1760  141.5470 C   0  0  0  0  0  1  0  0  0  0  0  0
  182.4930  175.2310  138.7720 O   0  0  0  0  0  0  0  0  0  0  0  0
  183.2490  173.5660  137.2630 C   0  0  0  0  0  1  0  0  0  0  0  0
  182.7010  174.9690  137.4180 C   0  0  0  0  0  2  0  0  0  0  0  0
  186.3130  177.4230  142.9940 C   0  0  0  0  0  2  0  0  0  0  0  0
  186.8550  177.8720  144.2700 N   0  0  0  0  0  0  0  0  0  0  0  0
  191.4090  175.8250  143.9400 C   0  0  0  0  0  0  0  0  0  0  0  0
  191.5980  177.1990  144.2840 N   0  0  0  0  0  2  0  0  0  0  0  0
  189.1990  176.5470  141.5250 C   0  0  0  0  0  1  0  0  0  0  0  0
  189.1510  176.3020  143.0210 C   0  0  1  0  0  3  0  0  0  0  0  0
  188.2380  178.2690  144.3010 C   0  0  0  0  0  3  0  0  0  0  0  0
  190.1940  175.3990  143.3910 O   0  0  0  0  0  0  0  0  0  0  0  0
  192.3100  174.9830  144.1960 O   0  0  0  0  0  0  0  0  0  0  0  0
  190.6290  178.2120  143.8890 C   0  0  0  0  0  2  0  0  0  0  0  0
  189.2690  177.6080  143.7620 C   0  0  0  0  0  0  0  0  0  0  0  0
  186.8680  177.4150  146.5670 O   0  0  0  0  0  1  0  0  0  0  0  0
  186.0440  177.7040  145.4770 C   0  0  1  0  0  3  0  0  0  0  0  0
  185.2340  178.9600  145.7700 C   0  0  0  0  0  2  0  0  0  0  0  0
  183.7490  178.6690  145.6900 C   0  0  0  0  0  2  0  0  0  0  0  0
  183.1190  179.4740  144.5660 C   0  0  0  0  0  2  0  0  0  0  0  0
  181.9250  178.7960  144.0930 N   0  0  0  0  0  1  0  0  0  0  0  0
  1 11  1  0  0  0  0
  2  4  1  0  0  0  0
  2  7  2  0  0  0  0
  3 13  2  0  0  0  0
  4 13  1  0  0  0  0
  5 12  2  0  0  0  0
  6  8  1  0  0  0  0
  6  4  2  0  0  0  0
  7  9  1  0  0  0  0
  8  3  1  0  0  0  0
  9 14  2  0  0  0  0
  9  5  1  0  0  0  0
 10  1  1  0  0  0  0
 11 31  1  6  0  0  0
 12 11  1  0  0  0  0
 13 14  1  0  0  0  0
 14 10  1  0  0  0  0
 15 23  1  6  0  0  0
 16 21  2  0  0  0  0
 17 28  1  6  0  0  0
 18 15  1  0  0  0  0
 18 26  1  1  0  0  0
 19 20  1  0  0  0  0
 19 22  1  0  0  0  0
 20  7  1  1  0  0  0
 20 17  1  0  0  0  0
 21 17  1  0  0  0  0
 21 18  1  0  0  0  0
 22 15  1  0  0  0  0
 23 25  1  0  0  0  0
 24 23  2  0  0  0  0
 26 27  1  0  0  0  0
 29 30  1  0  0  0  0
 30 28  1  0  0  0  0
 31 32  1  0  0  0  0
 32 37  1  0  0  0  0
 32 43  1  0  0  0  0
 33 39  2  0  0  0  0
 33 34  1  0  0  0  0
 36 35  1  6  0  0  0
 36 38  1  0  0  0  0
 36 41  1  0  0  0  0
 38 33  1  0  0  0  0
 40 34  1  0  0  0  0
 41 40  1  0  0  0  0
 41 37  2  0  0  0  0
 43 44  1  0  0  0  0
 43 42  1  1  0  0  0
 45 44  1  0  0  0  0
 46 45  1  0  0  0  0
 47 46  1  0  0  0  0
M  END
>  <MODEL>
7

>  <REMARK>
 VINA RESULT:      -6.3      2.031      4.167
  Name = 
  12 active torsions:
  status: ('A' for Active; 'I' for Inactive)
    1  A    between atoms: O_1  and  C_9
    2  A    between atoms: O_1  and  C_35
    3  A    between atoms: C_3  and  C_13
    4  A    between atoms: C_6  and  C_12
    5  A    between atoms: C_11  and  C_17
    6  A    between atoms: C_13  and  C_42
    7  A    between atoms: C_14  and  N_39
    8  A    between atoms: C_14  and  C_43
    9  A    between atoms: C_22  and  C_26
   10  A    between atoms: C_28  and  N_39
   11  A    between atoms: C_33  and  N_39
   12  A    between atoms: C_33  and  C_42
                            x       y       z     vdW  Elec       q    Type
                         _______ _______ _______ _____ _____    ______ ____

>  <TORSDO>
F 12

$$$$
=
 OpenBabel11062417333D

 47 51  0  0  1  0  0  0  0  0999 V2000
  182.6320  179.7550  143.4290 C   0  0  0  0  0  2  0  0  0  0  0  0
  187.2190  177.7870  144.8320 C   0  0  0  0  0  3  0  0  0  0  0  0
  184.7030  179.0030  146.9700 N   0  0  0  0  0  0  0  0  0  0  0  0
  186.4760  178.2560  145.8980 C   0  0  0  0  0  0  0  0  0  0  0  0
  184.6120  177.9070  142.0650 C   0  0  0  0  0  3  0  0  0  0  0  0
  186.8060  178.4480  147.2180 C   0  0  0  0  0  3  0  0  0  0  0  0
  186.5900  177.6770  143.5800 C   0  0  0  0  0  0  0  0  0  0  0  0
  185.7040  178.8950  147.8020 O   0  0  0  0  0  0  0  0  0  0  0  0
  185.2080  178.0500  143.4220 C   0  0  0  0  0  0  0  0  0  0  0  0
  183.0280  178.8500  144.5760 C   0  0  0  0  0  2  0  0  0  0  0  0
  182.2630  178.9210  142.2170 C   0  0  1  0  0  3  0  0  0  0  0  0
  183.4260  178.2590  141.5500 C   0  0  0  0  0  3  0  0  0  0  0  0
  185.1750  178.6080  145.7760 C   0  0  0  0  0  0  0  0  0  0  0  0
  184.4880  178.5290  144.5630 C   0  0  0  0  0  0  0  0  0  0  0  0
  190.3820  176.8860  143.3670 C   0  0  1  0  0  3  0  0  0  0  0  0
  189.5260  177.4940  139.8450 O   0  0  0  0  0  0  0  0  0  0  0  0
  188.3780  178.2430  141.7820 C   0  0  1  0  0  3  0  0  0  0  0  0
  190.6740  176.9720  141.8440 C   0  0  1  0  0  3  0  0  0  0  0  0
  188.1390  175.9040  142.7370 N   0  0  0  0  0  2  0  0  0  0  0  0
  187.4810  177.1920  142.4580 C   0  0  1  0  0  3  0  0  0  0  0  0
  189.5360  177.5910  141.0620 C   0  0  0  0  0  0  0  0  0  0  0  0
  189.1800  176.0040  143.7660 C   0  0  0  0  0  2  0  0  0  0  0  0
  191.5700  176.4920  144.1860 C   0  0  0  0  0  0  0  0  0  0  0  0
  192.0560  177.2830  145.0390 O   0  0  0  0  0  1  0  0  0  0  0  0
  192.1710  175.2540  143.9750 O   0  0  0  0  0  0  0  0  0  0  0  0
  191.9840  177.7130  141.5350 C   0  0  0  0  0  2  0  0  0  0  0  0
  192.6810  177.1640  140.2990 C   0  0  0  0  0  1  0  0  0  0  0  0
  187.6190  179.0280  140.9070 O   0  0  0  0  0  0  0  0  0  0  0  0
  186.0900  178.6290  139.1390 C   0  0  0  0  0  1  0  0  0  0  0  0
  187.3930  178.2190  139.7930 C   0  0  0  0  0  2  0  0  0  0  0  0
  181.1650  177.9060  142.5230 C   0  0  0  0  0  2  0  0  0  0  0  0
  180.1060  177.9760  141.5230 N   0  0  0  0  0  0  0  0  0  0  0  0
  180.1650  175.5920  137.1240 C   0  0  0  0  0  0  0  0  0  0  0  0
  179.3440  174.8180  138.0020 N   0  0  0  0  0  2  0  0  0  0  0  0
  182.5920  175.9410  139.4090 C   0  0  0  0  0  1  0  0  0  0  0  0
  181.3130  176.6690  139.0460 C   0  0  1  0  0  3  0  0  0  0  0  0
  179.6590  176.7370  140.9440 C   0  0  0  0  0  3  0  0  0  0  0  0
  181.0640  176.5290  137.6460 O   0  0  0  0  0  0  0  0  0  0  0  0
  180.0300  175.4810  135.8770 O   0  0  0  0  0  0  0  0  0  0  0  0
  179.5630  174.8320  139.4420 C   0  0  0  0  0  2  0  0  0  0  0  0
  180.1650  176.1340  139.8620 C   0  0  0  0  0  0  0  0  0  0  0  0
  179.5090  180.1700  142.0800 O   0  0  0  0  0  1  0  0  0  0  0  0
  179.7040  179.2880  141.0150 C   0  0  1  0  0  3  0  0  0  0  0  0
  180.7560  179.8550  140.0700 C   0  0  0  0  0  2  0  0  0  0  0  0
  180.2810  181.1600  139.4630 C   0  0  0  0  0  2  0  0  0  0  0  0
  181.3090  181.6770  138.4700 C   0  0  0  0  0  2  0  0  0  0  0  0
  182.5880  181.0350  138.7170 N   0  0  0  0  0  1  0  0  0  0  0  0
  1 10  1  0  0  0  0
  2  4  1  0  0  0  0
  3  8  1  0  0  0  0
  4  6  2  0  0  0  0
  5  9  1  0  0  0  0
  6  8  1  0  0  0  0
  7  2  2  0  0  0  0
  9  7  1  0  0  0  0
  9 14  2  0  0  0  0
 11 31  1  1  0  0  0
 11  1  1  0  0  0  0
 12  5  2  0  0  0  0
 12 11  1  0  0  0  0
 13  4  1  0  0  0  0
 13  3  2  0  0  0  0
 14 10  1  0  0  0  0
 14 13  1  0  0  0  0
 15 22  1  0  0  0  0
 15 23  1  1  0  0  0
 16 21  2  0  0  0  0
 17 28  1  6  0  0  0
 17 20  1  0  0  0  0
 18 26  1  1  0  0  0
 18 15  1  0  0  0  0
 19 22  1  0  0  0  0
 20 19  1  0  0  0  0
 20  7  1  1  0  0  0
 21 17  1  0  0  0  0
 21 18  1  0  0  0  0
 23 24  1  0  0  0  0
 25 23  2  0  0  0  0
 27 26  1  0  0  0  0
 29 30  1  0  0  0  0
 30 28  1  0  0  0  0
 32 31  1  0  0  0  0
 33 38  1  0  0  0  0
 33 34  1  0  0  0  0
 34 40  1  0  0  0  0
 36 35  1  1  0  0  0
 36 41  1  0  0  0  0
 37 32  1  0  0  0  0
 38 36  1  0  0  0  0
 39 33  2  0  0  0  0
 40 41  1  0  0  0  0
 41 37  2  0  0  0  0
 43 32  1  0  0  0  0
 43 42  1  1  0  0  0
 44 43  1  0  0  0  0
 45 44  1  0  0  0  0
 46 47  1  0  0  0  0
 46 45  1  0  0  0  0
M  END
>  <MODEL>
8

>  <REMARK>
 VINA RESULT:      -6.3      2.240      9.591
  Name = 
  12 active torsions:
  status: ('A' for Active; 'I' for Inactive)
    1  A    between atoms: O_1  and  C_9
    2  A    between atoms: O_1  and  C_35
    3  A    between atoms: C_3  and  C_13
    4  A    between atoms: C_6  and  C_12
    5  A    between atoms: C_11  and  C_17
    6  A    between atoms: C_13  and  C_42
    7  A    between atoms: C_14  and  N_39
    8  A    between atoms: C_14  and  C_43
    9  A    between atoms: C_22  and  C_26
   10  A    between atoms: C_28  and  N_39
   11  A    between atoms: C_33  and  N_39
   12  A    between atoms: C_33  and  C_42
                            x       y       z     vdW  Elec       q    Type
                         _______ _______ _______ _____ _____    ______ ____

>  <TORSDO>
F 12

$$$$
=
 OpenBabel11062417333D

 47 51  0  0  1  0  0  0  0  0999 V2000
  183.7430  177.5220  138.4370 C   0  0  0  0  0  2  0  0  0  0  0  0
  188.5140  177.8940  140.4320 C   0  0  0  0  0  3  0  0  0  0  0  0
  187.6750  177.1740  137.0910 N   0  0  0  0  0  0  0  0  0  0  0  0
  188.5050  177.5200  139.1010 C   0  0  0  0  0  0  0  0  0  0  0  0
  184.8730  178.8930  140.8940 C   0  0  0  0  0  3  0  0  0  0  0  0
  189.5100  177.0680  138.2810 C   0  0  0  0  0  3  0  0  0  0  0  0
  187.3120  178.3450  141.0040 C   0  0  0  0  0  0  0  0  0  0  0  0
  188.9470  176.8800  137.0960 O   0  0  0  0  0  0  0  0  0  0  0  0
  186.1070  178.4060  140.2180 C   0  0  0  0  0  0  0  0  0  0  0  0
  185.0190  178.1150  137.8820 C   0  0  0  0  0  2  0  0  0  0  0  0
  182.9730  178.5800  139.2040 C   0  0  1  0  0  3  0  0  0  0  0  0
  183.5920  178.9650  140.5090 C   0  0  0  0  0  3  0  0  0  0  0  0
  187.3870  177.5730  138.3410 C   0  0  0  0  0  0  0  0  0  0  0  0
  186.1580  178.0050  138.8440 C   0  0  0  0  0  0  0  0  0  0  0  0
  189.8620  177.4700  143.7930 C   0  0  1  0  0  3  0  0  0  0  0  0
  186.8580  178.3110  145.7370 O   0  0  0  0  0  0  0  0  0  0  0  0
  186.9900  177.6070  143.4750 C   0  0  1  0  0  3  0  0  0  0  0  0
  189.0510  177.7040  145.0970 C   0  0  1  0  0  3  0  0  0  0  0  0
  188.6150  179.4470  142.8310 N   0  0  0  0  0  2  0  0  0  0  0  0
  187.3980  178.7000  142.4720 C   0  0  1  0  0  3  0  0  0  0  0  0
  187.5700  177.8780  144.8440 C   0  0  0  0  0  0  0  0  0  0  0  0
  189.8290  178.6260  142.7730 C   0  0  0  0  0  2  0  0  0  0  0  0
  191.2840  177.0700  144.0330 C   0  0  0  0  0  0  0  0  0  0  0  0
  191.6780  175.9020  143.7680 O   0  0  0  0  0  0  0  0  0  0  0  0
  192.1700  177.9850  144.5930 O   0  0  0  0  0  1  0  0  0  0  0  0
  189.2760  176.5970  146.1390 C   0  0  0  0  0  2  0  0  0  0  0  0
  189.7570  177.1470  147.4730 C   0  0  0  0  0  1  0  0  0  0  0  0
  185.5960  177.5040  143.5290 O   0  0  0  0  0  0  0  0  0  0  0  0
  183.6880  178.6570  144.3360 C   0  0  0  0  0  1  0  0  0  0  0  0
  185.1540  178.7510  143.9710 C   0  0  0  0  0  2  0  0  0  0  0  0
  182.6830  179.8160  138.3570 C   0  0  0  0  0  2  0  0  0  0  0  0
  181.2560  179.9300  138.0830 N   0  0  0  0  0  0  0  0  0  0  0  0
  179.8750  178.8720  142.7750 C   0  0  0  0  0  0  0  0  0  0  0  0
  179.2670  177.8890  141.9340 N   0  0  0  0  0  2  0  0  0  0  0  0
  178.9510  181.4060  140.7850 C   0  0  0  0  0  1  0  0  0  0  0  0
  180.1190  180.4430  140.8660 C   0  0  1  0  0  3  0  0  0  0  0  0
  180.3720  179.0410  138.7900 C   0  0  0  0  0  3  0  0  0  0  0  0
  180.3400  180.0740  142.2280 O   0  0  0  0  0  0  0  0  0  0  0  0
  180.0560  178.6290  143.9980 O   0  0  0  0  0  0  0  0  0  0  0  0
  178.9320  178.1890  140.5490 C   0  0  0  0  0  2  0  0  0  0  0  0
  179.8530  179.2340  140.0080 C   0  0  0  0  0  0  0  0  0  0  0  0
  179.8520  180.1130  136.2180 O   0  0  0  0  0  1  0  0  0  0  0  0
  180.8180  180.7800  136.9750 C   0  0  1  0  0  3  0  0  0  0  0  0
  180.2450  182.0950  137.4890 C   0  0  0  0  0  2  0  0  0  0  0  0
  181.3340  183.1410  137.6110 C   0  0  0  0  0  2  0  0  0  0  0  0
  181.0840  184.2720  136.6260 C   0  0  0  0  0  2  0  0  0  0  0  0
  180.1690  185.2340  137.2160 N   0  0  0  0  0  1  0  0  0  0  0  0
  1 11  1  0  0  0  0
  2  7  2  0  0  0  0
  3  8  1  0  0  0  0
  3 13  2  0  0  0  0
  4  2  1  0  0  0  0
  6  4  2  0  0  0  0
  8  6  1  0  0  0  0
  9  5  1  0  0  0  0
  9  7  1  0  0  0  0
 10  1  1  0  0  0  0
 10 14  1  0  0  0  0
 11 31  1  6  0  0  0
 11 12  1  0  0  0  0
 12  5  2  0  0  0  0
 13 14  1  0  0  0  0
 13  4  1  0  0  0  0
 14  9  2  0  0  0  0
 15 23  1  1  0  0  0
 15 18  1  0  0  0  0
 17 28  1  1  0  0  0
 17 21  1  0  0  0  0
 18 26  1  1  0  0  0
 20  7  1  6  0  0  0
 20 19  1  0  0  0  0
 20 17  1  0  0  0  0
 21 18  1  0  0  0  0
 21 16  2  0  0  0  0
 22 19  1  0  0  0  0
 22 15  1  0  0  0  0
 23 25  1  0  0  0  0
 24 23  2  0  0  0  0
 26 27  1  0  0  0  0
 28 30  1  0  0  0  0
 30 29  1  0  0  0  0
 32 31  1  0  0  0  0
 32 37  1  0  0  0  0
 33 39  2  0  0  0  0
 34 33  1  0  0  0  0
 36 35  1  1  0  0  0
 36 38  1  0  0  0  0
 37 41  2  0  0  0  0
 38 33  1  0  0  0  0
 40 34  1  0  0  0  0
 41 40  1  0  0  0  0
 41 36  1  0  0  0  0
 43 42  1  1  0  0  0
 43 44  1  0  0  0  0
 43 32  1  0  0  0  0
 44 45  1  0  0  0  0
 46 47  1  0  0  0  0
 46 45  1  0  0  0  0
M  END
>  <MODEL>
9

>  <REMARK>
 VINA RESULT:      -6.2      2.485      9.908
  Name = 
  12 active torsions:
  status: ('A' for Active; 'I' for Inactive)
    1  A    between atoms: O_1  and  C_9
    2  A    between atoms: O_1  and  C_35
    3  A    between atoms: C_3  and  C_13
    4  A    between atoms: C_6  and  C_12
    5  A    between atoms: C_11  and  C_17
    6  A    between atoms: C_13  and  C_42
    7  A    between atoms: C_14  and  N_39
    8  A    between atoms: C_14  and  C_43
    9  A    between atoms: C_22  and  C_26
   10  A    between atoms: C_28  and  N_39
   11  A    between atoms: C_33  and  N_39
   12  A    between atoms: C_33  and  C_42
                            x       y       z     vdW  Elec       q    Type
                         _______ _______ _______ _____ _____    ______ ____

>  <TORSDO>
F 12

$$$$
