=
 OpenBabel11062416343D

 29 31  0  0  1  0  0  0  0  0999 V2000
  191.0920  177.8080  142.0510 C   0  0  2  0  0  3  0  0  0  0  0  0
  191.8230  177.4500  143.3340 C   0  0  0  0  0  2  0  0  0  0  0  0
  189.9680  176.8010  141.8130 C   0  0  1  0  0  3  0  0  0  0  0  0
  189.7820  175.7330  143.2670 S   0  0  0  0  0  0  0  0  0  0  0  0
  192.2260  177.7670  140.6770 Cl  0  0  0  0  0  0  0  0  0  0  0  0
  191.5270  176.0010  143.6510 C   0  0  2  0  0  3  0  0  0  0  0  0
  187.2090  178.5280  139.8960 N   0  0  0  0  0  0  0  0  0  0  0  0
  184.9700  179.2500  140.4720 N   0  0  0  0  0  0  0  0  0  0  0  0
  188.6680  177.4740  141.4780 C   0  0  0  0  0  0  0  0  0  0  0  0
  187.6510  177.5620  142.4370 C   0  0  0  0  0  3  0  0  0  0  0  0
  188.4220  177.9750  140.1810 C   0  0  0  0  0  0  0  0  0  0  0  0
  186.2170  178.6350  140.8210 C   0  0  0  0  0  0  0  0  0  0  0  0
  184.7910  179.6980  139.3230 O   0  0  0  0  0  0  0  0  0  0  0  0
  186.4270  178.1430  142.1140 C   0  0  0  0  0  3  0  0  0  0  0  0
  183.9770  179.3970  141.4160 O   0  0  0  0  0  0  0  0  0  0  0  0
  188.8000  178.1140  137.7370 C   0  0  0  0  0  2  0  0  0  0  0  0
  189.0970  176.6910  138.1550 C   0  0  0  0  0  2  0  0  0  0  0  0
  189.4470  177.8430  139.0870 C   0  0  0  0  0  3  0  0  0  0  0  0
  191.7820  175.7210  145.1220 C   0  0  0  0  0  2  0  0  0  0  0  0
  191.5490  176.9700  145.9640 C   0  0  0  0  0  2  0  0  0  0  0  0
  190.1010  176.0330  147.6070 O   0  0  0  0  0  0  0  0  0  0  0  0
  190.2400  176.8770  146.6810 C   0  0  0  0  0  0  0  0  0  0  0  0
  189.1710  177.7710  146.3480 N   0  0  0  0  0  0  0  0  0  0  0  0
  189.2380  178.5130  145.2140 O   0  0  0  0  0  1  0  0  0  0  0  0
  187.9650  177.8110  147.1690 C   0  0  0  0  0  2  0  0  0  0  0  0
  186.7070  177.7600  146.2980 C   0  0  0  0  0  2  0  0  0  0  0  0
  185.9920  179.6990  147.5060 O   0  0  0  0  0  1  0  0  0  0  0  0
  185.6690  178.7380  146.7610 C   0  0  0  0  0  0  0  0  0  0  0  0
  184.3460  178.5790  146.3610 O   0  0  0  0  0  0  0  0  0  0  0  0
  1  5  1  6  0  0  0
  1  2  1  0  0  0  0
  2  6  1  0  0  0  0
  3  9  1  1  0  0  0
  3  1  1  0  0  0  0
  3  4  1  0  0  0  0
  4  6  1  0  0  0  0
  6 19  1  1  0  0  0
  7 11  2  0  0  0  0
  7 12  1  0  0  0  0
  8 12  1  0  0  0  0
  8 15  2  0  0  0  0
  9 10  2  0  0  0  0
 11  9  1  0  0  0  0
 12 14  2  0  0  0  0
 13  8  2  0  0  0  0
 14 10  1  0  0  0  0
 16 17  1  0  0  0  0
 16 18  1  0  0  0  0
 17 18  1  0  0  0  0
 18 11  1  0  0  0  0
 19 20  1  0  0  0  0
 20 22  1  0  0  0  0
 22 21  2  0  0  0  0
 23 22  1  0  0  0  0
 23 25  1  0  0  0  0
 24 23  1  0  0  0  0
 26 28  1  0  0  0  0
 26 25  1  0  0  0  0
 28 27  1  0  0  0  0
 29 28  2  0  0  0  0
M  END
>  <MODEL>
1

>  <REMARK>
 VINA RESULT:      -8.1      0.000      0.000
  Name = 
  8 active torsions:
  status: ('A' for Active; 'I' for Inactive)
    1  A    between atoms: C_1  and  C_20
    2  A    between atoms: C_1  and  C_25
    3  A    between atoms: C_6  and  C_12
    4  A    between atoms: C_8  and  C_19
    5  A    between atoms: C_13  and  C_19
    6  A    between atoms: C_13  and  C_29
    7  A    between atoms: C_14  and  C_15
    8  A    between atoms: C_20  and  N_21
                            x       y       z     vdW  Elec       q    Type
                         _______ _______ _______ _____ _____    ______ ____

>  <TORSDO>
F 8

$$$$
=
 OpenBabel11062416343D

 29 31  0  0  1  0  0  0  0  0999 V2000
  191.6550  177.7670  141.4700 C   0  0  2  0  0  3  0  0  0  0  0  0
  191.8880  177.7910  142.9710 C   0  0  0  0  0  2  0  0  0  0  0  0
  190.6560  176.6620  141.1320 C   0  0  1  0  0  3  0  0  0  0  0  0
  189.9510  175.9830  142.6590 S   0  0  0  0  0  0  0  0  0  0  0  0
  193.1920  177.4570  140.6240 Cl  0  0  0  0  0  0  0  0  0  0  0  0
  191.4620  176.4510  143.5310 C   0  0  2  0  0  3  0  0  0  0  0  0
  188.5920  177.2830  138.0300 N   0  0  0  0  0  0  0  0  0  0  0  0
  186.4630  178.3670  137.6260 N   0  0  0  0  0  0  0  0  0  0  0  0
  189.5700  177.1430  140.2130 C   0  0  0  0  0  0  0  0  0  0  0  0
  188.4530  177.8100  140.7300 C   0  0  0  0  0  3  0  0  0  0  0  0
  189.6230  176.8820  138.8260 C   0  0  0  0  0  0  0  0  0  0  0  0
  187.5060  177.9470  138.5150 C   0  0  0  0  0  0  0  0  0  0  0  0
  186.5490  178.1370  136.4040 O   0  0  0  0  0  0  0  0  0  0  0  0
  187.4220  178.2150  139.8850 C   0  0  0  0  0  3  0  0  0  0  0  0
  185.3820  179.0740  138.1060 O   0  0  0  0  0  0  0  0  0  0  0  0
  190.6620  176.1390  136.7040 C   0  0  0  0  0  2  0  0  0  0  0  0
  190.2420  174.8950  137.4560 C   0  0  0  0  0  2  0  0  0  0  0  0
  190.7600  176.1050  138.2220 C   0  0  0  0  0  3  0  0  0  0  0  0
  191.1860  176.5660  145.0200 C   0  0  0  0  0  2  0  0  0  0  0  0
  190.3870  177.8260  145.3310 C   0  0  0  0  0  2  0  0  0  0  0  0
  189.1940  177.0220  147.2300 O   0  0  0  0  0  0  0  0  0  0  0  0
  189.1270  177.4770  146.0560 C   0  0  0  0  0  0  0  0  0  0  0  0
  187.8540  177.7010  145.4370 N   0  0  0  0  0  0  0  0  0  0  0  0
  187.7850  177.9680  144.1080 O   0  0  0  0  0  1  0  0  0  0  0  0
  186.6240  177.5410  146.2080 C   0  0  0  0  0  2  0  0  0  0  0  0
  185.9450  178.8930  146.4400 C   0  0  0  0  0  2  0  0  0  0  0  0
  183.6180  178.8030  145.8840 O   0  0  0  0  0  1  0  0  0  0  0  0
  184.7830  179.0980  145.5140 C   0  0  0  0  0  0  0  0  0  0  0  0
  185.0000  179.6180  144.2410 O   0  0  0  0  0  0  0  0  0  0  0  0
  1  5  1  6  0  0  0
  1  2  1  0  0  0  0
  2  6  1  0  0  0  0
  3  9  1  6  0  0  0
  3  1  1  0  0  0  0
  3  4  1  0  0  0  0
  4  6  1  0  0  0  0
  6 19  1  1  0  0  0
  7 12  2  0  0  0  0
  7 11  1  0  0  0  0
  8 15  2  0  0  0  0
  8 12  1  0  0  0  0
  9 10  1  0  0  0  0
 11  9  2  0  0  0  0
 12 14  1  0  0  0  0
 13  8  2  0  0  0  0
 14 10  2  0  0  0  0
 16 17  1  0  0  0  0
 16 18  1  0  0  0  0
 17 18  1  0  0  0  0
 18 11  1  0  0  0  0
 19 20  1  0  0  0  0
 20 22  1  0  0  0  0
 22 21  2  0  0  0  0
 23 22  1  0  0  0  0
 23 25  1  0  0  0  0
 24 23  1  0  0  0  0
 25 26  1  0  0  0  0
 28 27  1  0  0  0  0
 28 26  1  0  0  0  0
 29 28  2  0  0  0  0
M  END
>  <MODEL>
2

>  <REMARK>
 VINA RESULT:      -7.3      1.609      2.098
  Name = 
  8 active torsions:
  status: ('A' for Active; 'I' for Inactive)
    1  A    between atoms: C_1  and  C_20
    2  A    between atoms: C_1  and  C_25
    3  A    between atoms: C_6  and  C_12
    4  A    between atoms: C_8  and  C_19
    5  A    between atoms: C_13  and  C_19
    6  A    between atoms: C_13  and  C_29
    7  A    between atoms: C_14  and  C_15
    8  A    between atoms: C_20  and  N_21
                            x       y       z     vdW  Elec       q    Type
                         _______ _______ _______ _____ _____    ______ ____

>  <TORSDO>
F 8

$$$$
=
 OpenBabel11062416343D

 29 31  0  0  1  0  0  0  0  0999 V2000
  187.9440  176.6930  143.5940 C   0  0  2  0  0  3  0  0  0  0  0  0
  188.9950  176.1100  142.6640 C   0  0  0  0  0  2  0  0  0  0  0  0
  187.5450  178.0820  143.0960 C   0  0  1  0  0  3  0  0  0  0  0  0
  188.2840  178.3860  141.4680 S   0  0  0  0  0  0  0  0  0  0  0  0
  188.6020  176.8200  145.2450 Cl  0  0  0  0  0  0  0  0  0  0  0  0
  189.6230  177.2510  141.8950 C   0  0  2  0  0  3  0  0  0  0  0  0
  183.9400  178.4820  144.1490 N   0  0  0  0  0  0  0  0  0  0  0  0
  181.8790  178.8840  142.9420 N   0  0  0  0  0  0  0  0  0  0  0  0
  186.0550  178.2570  143.0460 C   0  0  0  0  0  0  0  0  0  0  0  0
  185.4120  178.4790  141.8210 C   0  0  0  0  0  3  0  0  0  0  0  0
  185.2830  178.2620  144.2280 C   0  0  0  0  0  0  0  0  0  0  0  0
  183.2980  178.6830  142.9660 C   0  0  0  0  0  0  0  0  0  0  0  0
  181.2240  178.8650  144.0020 O   0  0  0  0  0  0  0  0  0  0  0  0
  184.0360  178.6900  141.7770 C   0  0  0  0  0  3  0  0  0  0  0  0
  181.2190  179.0480  141.7430 O   0  0  0  0  0  0  0  0  0  0  0  0
  184.8820  178.2820  146.6730 C   0  0  0  0  0  2  0  0  0  0  0  0
  185.8510  179.4040  146.3690 C   0  0  0  0  0  2  0  0  0  0  0  0
  185.9260  178.1040  145.5790 C   0  0  0  0  0  3  0  0  0  0  0  0
  190.2850  176.7330  140.6300 C   0  0  0  0  0  2  0  0  0  0  0  0
  190.2890  177.7970  139.5400 C   0  0  0  0  0  2  0  0  0  0  0  0
  189.8160  176.0130  138.0350 O   0  0  0  0  0  0  0  0  0  0  0  0
  189.7180  177.2470  138.2720 C   0  0  0  0  0  0  0  0  0  0  0  0
  189.0260  178.1080  137.3590 N   0  0  0  0  0  0  0  0  0  0  0  0
  189.1190  179.4550  137.4980 O   0  0  0  0  0  1  0  0  0  0  0  0
  188.3070  177.5450  136.2210 C   0  0  0  0  0  2  0  0  0  0  0  0
  186.9060  178.1510  136.1060 C   0  0  0  0  0  2  0  0  0  0  0  0
  185.5730  176.6320  137.3910 O   0  0  0  0  0  0  0  0  0  0  0  0
  186.0470  177.7930  137.2810 C   0  0  0  0  0  0  0  0  0  0  0  0
  185.7770  178.7510  138.2550 O   0  0  0  0  0  1  0  0  0  0  0  0
  1  5  1  1  0  0  0
  2  1  1  0  0  0  0
  3  9  1  6  0  0  0
  3  1  1  0  0  0  0
  4  6  1  0  0  0  0
  4  3  1  0  0  0  0
  6 19  1  6  0  0  0
  6  2  1  0  0  0  0
  7 11  1  0  0  0  0
  8 12  1  0  0  0  0
  8 13  2  0  0  0  0
  9 11  2  0  0  0  0
 10  9  1  0  0  0  0
 11 18  1  0  0  0  0
 12  7  2  0  0  0  0
 14 10  2  0  0  0  0
 14 12  1  0  0  0  0
 15  8  2  0  0  0  0
 17 16  1  0  0  0  0
 18 17  1  0  0  0  0
 18 16  1  0  0  0  0
 20 19  1  0  0  0  0
 21 22  2  0  0  0  0
 22 20  1  0  0  0  0
 23 24  1  0  0  0  0
 23 22  1  0  0  0  0
 25 23  1  0  0  0  0
 26 25  1  0  0  0  0
 26 28  1  0  0  0  0
 28 27  2  0  0  0  0
 28 29  1  0  0  0  0
M  END
>  <MODEL>
3

>  <REMARK>
 VINA RESULT:      -7.2      3.722      6.795
  Name = 
  8 active torsions:
  status: ('A' for Active; 'I' for Inactive)
    1  A    between atoms: C_1  and  C_20
    2  A    between atoms: C_1  and  C_25
    3  A    between atoms: C_6  and  C_12
    4  A    between atoms: C_8  and  C_19
    5  A    between atoms: C_13  and  C_19
    6  A    between atoms: C_13  and  C_29
    7  A    between atoms: C_14  and  C_15
    8  A    between atoms: C_20  and  N_21
                            x       y       z     vdW  Elec       q    Type
                         _______ _______ _______ _____ _____    ______ ____

>  <TORSDO>
F 8

$$$$
=
 OpenBabel11062416343D

 29 31  0  0  1  0  0  0  0  0999 V2000
  187.1750  178.5810  142.0970 C   0  0  2  0  0  3  0  0  0  0  0  0
  187.9560  178.8460  140.8220 C   0  0  0  0  0  2  0  0  0  0  0  0
  187.6610  177.2760  142.7240 C   0  0  1  0  0  3  0  0  0  0  0  0
  189.1380  176.6870  141.8510 S   0  0  0  0  0  0  0  0  0  0  0  0
  185.4370  178.4500  141.7260 Cl  0  0  0  0  0  0  0  0  0  0  0  0
  188.5630  177.5380  140.3650 C   0  0  2  0  0  3  0  0  0  0  0  0
  189.4270  177.9280  145.9990 N   0  0  0  0  0  0  0  0  0  0  0  0
  188.7030  177.9750  148.3100 N   0  0  0  0  0  0  0  0  0  0  0  0
  187.9350  177.4220  144.1930 C   0  0  0  0  0  0  0  0  0  0  0  0
  186.8930  177.2980  145.1210 C   0  0  0  0  0  3  0  0  0  0  0  0
  189.2270  177.7460  144.6630 C   0  0  0  0  0  0  0  0  0  0  0  0
  188.4290  177.7960  146.9150 C   0  0  0  0  0  0  0  0  0  0  0  0
  189.8590  178.2420  148.6940 O   0  0  0  0  0  0  0  0  0  0  0  0
  187.1360  177.4820  146.4810 C   0  0  0  0  0  3  0  0  0  0  0  0
  187.7050  177.8020  149.2440 O   0  0  0  0  0  0  0  0  0  0  0  0
  191.6700  178.1210  144.4880 C   0  0  0  0  0  2  0  0  0  0  0  0
  190.9870  179.3430  143.9140 C   0  0  0  0  0  2  0  0  0  0  0  0
  190.3710  177.9660  143.7100 C   0  0  0  0  0  3  0  0  0  0  0  0
  189.7330  177.7970  139.4310 C   0  0  0  0  0  2  0  0  0  0  0  0
  190.9850  177.0770  139.9130 C   0  0  0  0  0  2  0  0  0  0  0  0
  190.7370  175.2820  138.3660 O   0  0  0  0  0  0  0  0  0  0  0  0
  191.5020  176.1610  138.8500 C   0  0  0  0  0  0  0  0  0  0  0  0
  192.8380  176.3120  138.3540 N   0  0  0  0  0  0  0  0  0  0  0  0
  193.7230  177.0920  139.0240 O   0  0  0  0  0  1  0  0  0  0  0  0
  193.2800  175.5490  137.1900 C   0  0  0  0  0  2  0  0  0  0  0  0
  193.7850  174.1650  137.6030 C   0  0  0  0  0  2  0  0  0  0  0  0
  196.0290  174.9990  137.5820 O   0  0  0  0  0  0  0  0  0  0  0  0
  195.1970  174.2150  138.1060 C   0  0  0  0  0  0  0  0  0  0  0  0
  195.5820  173.3910  139.1600 O   0  0  0  0  0  1  0  0  0  0  0  0
  1  5  1  6  0  0  0
  1  3  1  0  0  0  0
  2  1  1  0  0  0  0
  3  9  1  1  0  0  0
  4  3  1  0  0  0  0
  6 19  1  6  0  0  0
  6  2  1  0  0  0  0
  6  4  1  0  0  0  0
  7 12  1  0  0  0  0
  8 13  2  0  0  0  0
  8 15  2  0  0  0  0
  9 11  1  0  0  0  0
  9 10  2  0  0  0  0
 10 14  1  0  0  0  0
 11  7  2  0  0  0  0
 12  8  1  0  0  0  0
 14 12  2  0  0  0  0
 17 16  1  0  0  0  0
 18 17  1  0  0  0  0
 18 16  1  0  0  0  0
 18 11  1  0  0  0  0
 19 20  1  0  0  0  0
 21 22  2  0  0  0  0
 22 20  1  0  0  0  0
 23 22  1  0  0  0  0
 23 24  1  0  0  0  0
 25 26  1  0  0  0  0
 25 23  1  0  0  0  0
 26 28  1  0  0  0  0
 27 28  2  0  0  0  0
 28 29  1  0  0  0  0
M  END
>  <MODEL>
4

>  <REMARK>
 VINA RESULT:      -7.2      4.437      8.099
  Name = 
  8 active torsions:
  status: ('A' for Active; 'I' for Inactive)
    1  A    between atoms: C_1  and  C_20
    2  A    between atoms: C_1  and  C_25
    3  A    between atoms: C_6  and  C_12
    4  A    between atoms: C_8  and  C_19
    5  A    between atoms: C_13  and  C_19
    6  A    between atoms: C_13  and  C_29
    7  A    between atoms: C_14  and  C_15
    8  A    between atoms: C_20  and  N_21
                            x       y       z     vdW  Elec       q    Type
                         _______ _______ _______ _____ _____    ______ ____

>  <TORSDO>
F 8

$$$$
=
 OpenBabel11062416343D

 29 31  0  0  1  0  0  0  0  0999 V2000
  186.9580  177.0890  143.1450 C   0  0  2  0  0  3  0  0  0  0  0  0
  188.3180  176.4620  142.8900 C   0  0  0  0  0  2  0  0  0  0  0  0
  186.8650  178.4150  142.3930 C   0  0  1  0  0  3  0  0  0  0  0  0
  188.2990  178.6020  141.2980 S   0  0  0  0  0  0  0  0  0  0  0  0
  186.7440  177.3800  144.8900 Cl  0  0  0  0  0  0  0  0  0  0  0  0
  189.2540  177.5520  142.4150 C   0  0  2  0  0  3  0  0  0  0  0  0
  183.1970  178.7190  141.5470 N   0  0  0  0  0  0  0  0  0  0  0  0
  181.9750  179.0150  139.4760 N   0  0  0  0  0  0  0  0  0  0  0  0
  185.5850  178.5370  141.6190 C   0  0  0  0  0  0  0  0  0  0  0  0
  185.6140  178.7020  140.2280 C   0  0  0  0  0  3  0  0  0  0  0  0
  184.3350  178.5490  142.2770 C   0  0  0  0  0  0  0  0  0  0  0  0
  183.2070  178.8650  140.1940 C   0  0  0  0  0  0  0  0  0  0  0  0
  180.8880  179.0030  140.0850 O   0  0  0  0  0  0  0  0  0  0  0  0
  184.4290  178.8630  139.5130 C   0  0  0  0  0  3  0  0  0  0  0  0
  181.9780  179.1220  138.1020 O   0  0  0  0  0  0  0  0  0  0  0  0
  182.8600  178.8860  144.2380 C   0  0  0  0  0  2  0  0  0  0  0  0
  184.0340  179.8270  144.3940 C   0  0  0  0  0  2  0  0  0  0  0  0
  184.2430  178.4520  143.7750 C   0  0  0  0  0  3  0  0  0  0  0  0
  190.4340  176.9480  141.6750 C   0  0  0  0  0  2  0  0  0  0  0  0
  191.7520  177.4950  142.2090 C   0  0  0  0  0  2  0  0  0  0  0  0
  191.5600  179.0280  144.0230 O   0  0  0  0  0  0  0  0  0  0  0  0
  191.6290  177.8210  143.6630 C   0  0  0  0  0  0  0  0  0  0  0  0
  191.5450  176.7700  144.6340 N   0  0  0  0  0  0  0  0  0  0  0  0
  191.8470  175.4960  144.2780 O   0  0  0  0  0  1  0  0  0  0  0  0
  191.2350  177.0790  146.0260 C   0  0  0  0  0  2  0  0  0  0  0  0
  189.7950  177.5770  146.1690 C   0  0  0  0  0  2  0  0  0  0  0  0
  188.4820  176.4860  147.8480 O   0  0  0  0  0  0  0  0  0  0  0  0
  189.2860  177.4130  147.5700 C   0  0  0  0  0  0  0  0  0  0  0  0
  189.7090  178.2910  148.5640 O   0  0  0  0  0  1  0  0  0  0  0  0
  1  5  1  1  0  0  0
  2  1  1  0  0  0  0
  3  9  1  6  0  0  0
  3  1  1  0  0  0  0
  4  3  1  0  0  0  0
  4  6  1  0  0  0  0
  6 19  1  6  0  0  0
  6  2  1  0  0  0  0
  7 11  1  0  0  0  0
  8 13  2  0  0  0  0
  8 12  1  0  0  0  0
  9 11  2  0  0  0  0
 10  9  1  0  0  0  0
 11 18  1  0  0  0  0
 12  7  2  0  0  0  0
 14 12  1  0  0  0  0
 14 10  2  0  0  0  0
 15  8  2  0  0  0  0
 16 17  1  0  0  0  0
 18 16  1  0  0  0  0
 18 17  1  0  0  0  0
 19 20  1  0  0  0  0
 20 22  1  0  0  0  0
 22 21  2  0  0  0  0
 22 23  1  0  0  0  0
 23 25  1  0  0  0  0
 24 23  1  0  0  0  0
 25 26  1  0  0  0  0
 26 28  1  0  0  0  0
 28 27  2  0  0  0  0
 28 29  1  0  0  0  0
M  END
>  <MODEL>
5

>  <REMARK>
 VINA RESULT:      -7.1      2.900      4.629
  Name = 
  8 active torsions:
  status: ('A' for Active; 'I' for Inactive)
    1  A    between atoms: C_1  and  C_20
    2  A    between atoms: C_1  and  C_25
    3  A    between atoms: C_6  and  C_12
    4  A    between atoms: C_8  and  C_19
    5  A    between atoms: C_13  and  C_19
    6  A    between atoms: C_13  and  C_29
    7  A    between atoms: C_14  and  C_15
    8  A    between atoms: C_20  and  N_21
                            x       y       z     vdW  Elec       q    Type
                         _______ _______ _______ _____ _____    ______ ____

>  <TORSDO>
F 8

$$$$
=
 OpenBabel11062416343D

 29 31  0  0  1  0  0  0  0  0999 V2000
  187.2020  178.5530  142.1720 C   0  0  2  0  0  3  0  0  0  0  0  0
  187.8820  178.7800  140.8330 C   0  0  0  0  0  2  0  0  0  0  0  0
  187.7680  177.2900  142.8180 C   0  0  1  0  0  3  0  0  0  0  0  0
  189.1940  176.6990  141.8660 S   0  0  0  0  0  0  0  0  0  0  0  0
  185.4460  178.3630  141.9350 Cl  0  0  0  0  0  0  0  0  0  0  0  0
  188.4900  177.4680  140.3900 C   0  0  2  0  0  3  0  0  0  0  0  0
  187.5280  177.9240  146.5340 N   0  0  0  0  0  0  0  0  0  0  0  0
  189.1540  177.9960  148.3280 N   0  0  0  0  0  0  0  0  0  0  0  0
  188.1430  177.5090  144.2550 C   0  0  0  0  0  0  0  0  0  0  0  0
  189.4760  177.3810  144.6640 C   0  0  0  0  0  3  0  0  0  0  0  0
  187.1580  177.7880  145.2290 C   0  0  0  0  0  0  0  0  0  0  0  0
  188.8210  177.8180  146.9450 C   0  0  0  0  0  0  0  0  0  0  0  0
  188.2630  178.2590  149.1590 O   0  0  0  0  0  0  0  0  0  0  0  0
  189.8190  177.5370  146.0060 C   0  0  0  0  0  3  0  0  0  0  0  0
  190.4660  177.9300  148.7430 O   0  0  0  0  0  0  0  0  0  0  0  0
  185.1680  179.2610  145.1460 C   0  0  0  0  0  2  0  0  0  0  0  0
  184.8470  178.1280  146.0970 C   0  0  0  0  0  2  0  0  0  0  0  0
  185.7010  177.8640  144.8640 C   0  0  0  0  0  3  0  0  0  0  0  0
  189.5830  177.7130  139.3630 C   0  0  0  0  0  2  0  0  0  0  0  0
  190.9090  177.1240  139.8260 C   0  0  0  0  0  2  0  0  0  0  0  0
  190.6970  175.3360  138.2670 O   0  0  0  0  0  0  0  0  0  0  0  0
  191.4560  176.1960  138.7890 C   0  0  0  0  0  0  0  0  0  0  0  0
  192.8190  176.3140  138.3630 N   0  0  0  0  0  0  0  0  0  0  0  0
  193.6880  177.0730  139.0770 O   0  0  0  0  0  1  0  0  0  0  0  0
  193.3020  175.5410  137.2220 C   0  0  0  0  0  2  0  0  0  0  0  0
  193.7240  174.1350  137.6540 C   0  0  0  0  0  2  0  0  0  0  0  0
  195.9700  174.9610  137.7380 O   0  0  0  0  0  0  0  0  0  0  0  0
  195.1410  174.1070  138.1440 C   0  0  0  0  0  0  0  0  0  0  0  0
  195.5360  173.1300  139.0550 O   0  0  0  0  0  1  0  0  0  0  0  0
  1  5  1  6  0  0  0
  1  3  1  0  0  0  0
  2  1  1  0  0  0  0
  3  9  1  1  0  0  0
  4  3  1  0  0  0  0
  6 19  1  6  0  0  0
  6  2  1  0  0  0  0
  6  4  1  0  0  0  0
  7 12  1  0  0  0  0
  8 15  2  0  0  0  0
  8 13  2  0  0  0  0
  9 10  2  0  0  0  0
  9 11  1  0  0  0  0
 10 14  1  0  0  0  0
 11  7  2  0  0  0  0
 12  8  1  0  0  0  0
 14 12  2  0  0  0  0
 16 17  1  0  0  0  0
 18 16  1  0  0  0  0
 18 11  1  0  0  0  0
 18 17  1  0  0  0  0
 19 20  1  0  0  0  0
 21 22  2  0  0  0  0
 22 20  1  0  0  0  0
 23 22  1  0  0  0  0
 23 24  1  0  0  0  0
 25 26  1  0  0  0  0
 25 23  1  0  0  0  0
 26 28  1  0  0  0  0
 27 28  2  0  0  0  0
 28 29  1  0  0  0  0
M  END
>  <MODEL>
6

>  <REMARK>
 VINA RESULT:      -7.1      4.431      8.346
  Name = 
  8 active torsions:
  status: ('A' for Active; 'I' for Inactive)
    1  A    between atoms: C_1  and  C_20
    2  A    between atoms: C_1  and  C_25
    3  A    between atoms: C_6  and  C_12
    4  A    between atoms: C_8  and  C_19
    5  A    between atoms: C_13  and  C_19
    6  A    between atoms: C_13  and  C_29
    7  A    between atoms: C_14  and  C_15
    8  A    between atoms: C_20  and  N_21
                            x       y       z     vdW  Elec       q    Type
                         _______ _______ _______ _____ _____    ______ ____

>  <TORSDO>
F 8

$$$$
=
 OpenBabel11062416343D

 29 31  0  0  1  0  0  0  0  0999 V2000
  190.3400  176.3070  144.0310 C   0  0  2  0  0  3  0  0  0  0  0  0
  191.0500  176.0480  142.7130 C   0  0  0  0  0  2  0  0  0  0  0  0
  189.8870  177.7640  144.0830 C   0  0  1  0  0  3  0  0  0  0  0  0
  190.1440  178.5450  142.4660 S   0  0  0  0  0  0  0  0  0  0  0  0
  191.4470  175.9800  145.3890 Cl  0  0  0  0  0  0  0  0  0  0  0  0
  191.4890  177.3820  142.1500 C   0  0  2  0  0  3  0  0  0  0  0  0
  186.8100  178.1680  146.2370 N   0  0  0  0  0  0  0  0  0  0  0  0
  184.4480  178.4040  145.7530 N   0  0  0  0  0  0  0  0  0  0  0  0
  188.4550  177.8960  144.5160 C   0  0  0  0  0  0  0  0  0  0  0  0
  187.4350  177.9870  143.5600 C   0  0  0  0  0  3  0  0  0  0  0  0
  188.1150  177.9910  145.8830 C   0  0  0  0  0  0  0  0  0  0  0  0
  185.8060  178.2430  145.3210 C   0  0  0  0  0  0  0  0  0  0  0  0
  184.1790  178.4670  146.9690 O   0  0  0  0  0  0  0  0  0  0  0  0
  186.1110  178.1570  143.9590 C   0  0  0  0  0  3  0  0  0  0  0  0
  183.4240  178.4390  144.8330 O   0  0  0  0  0  0  0  0  0  0  0  0
  188.9980  176.7490  147.8350 C   0  0  0  0  0  2  0  0  0  0  0  0
  188.5460  178.1040  148.3350 C   0  0  0  0  0  2  0  0  0  0  0  0
  189.1730  177.9760  146.9520 C   0  0  0  0  0  3  0  0  0  0  0  0
  191.7340  177.2670  140.6550 C   0  0  0  0  0  2  0  0  0  0  0  0
  190.4940  176.7530  139.9370 C   0  0  0  0  0  2  0  0  0  0  0  0
  191.1170  177.0860  137.6620 O   0  0  0  0  0  0  0  0  0  0  0  0
  190.3490  177.4180  138.6060 C   0  0  0  0  0  0  0  0  0  0  0  0
  189.3200  178.3920  138.3940 N   0  0  0  0  0  0  0  0  0  0  0  0
  188.6530  178.9130  139.4550 O   0  0  0  0  0  1  0  0  0  0  0  0
  189.0550  178.9020  137.0520 C   0  0  0  0  0  2  0  0  0  0  0  0
  187.6080  178.6270  136.6380 C   0  0  0  0  0  2  0  0  0  0  0  0
  188.2040  176.4780  135.7670 O   0  0  0  0  0  0  0  0  0  0  0  0
  187.3640  177.1660  136.4020 C   0  0  0  0  0  0  0  0  0  0  0  0
  186.2040  176.5730  136.8930 O   0  0  0  0  0  1  0  0  0  0  0  0
  1  3  1  0  0  0  0
  1  5  1  1  0  0  0
  2  1  1  0  0  0  0
  3  9  1  6  0  0  0
  4  3  1  0  0  0  0
  6 19  1  6  0  0  0
  6  4  1  0  0  0  0
  6  2  1  0  0  0  0
  8 13  2  0  0  0  0
  9 11  2  0  0  0  0
 10 14  2  0  0  0  0
 10  9  1  0  0  0  0
 11  7  1  0  0  0  0
 11 18  1  0  0  0  0
 12  8  1  0  0  0  0
 12  7  2  0  0  0  0
 14 12  1  0  0  0  0
 15  8  2  0  0  0  0
 16 17  1  0  0  0  0
 18 16  1  0  0  0  0
 18 17  1  0  0  0  0
 20 19  1  0  0  0  0
 21 22  2  0  0  0  0
 22 20  1  0  0  0  0
 23 22  1  0  0  0  0
 23 24  1  0  0  0  0
 25 23  1  0  0  0  0
 26 25  1  0  0  0  0
 27 28  2  0  0  0  0
 28 26  1  0  0  0  0
 28 29  1  0  0  0  0
M  END
>  <MODEL>
7

>  <REMARK>
 VINA RESULT:      -7.0      2.842      7.005
  Name = 
  8 active torsions:
  status: ('A' for Active; 'I' for Inactive)
    1  A    between atoms: C_1  and  C_20
    2  A    between atoms: C_1  and  C_25
    3  A    between atoms: C_6  and  C_12
    4  A    between atoms: C_8  and  C_19
    5  A    between atoms: C_13  and  C_19
    6  A    between atoms: C_13  and  C_29
    7  A    between atoms: C_14  and  C_15
    8  A    between atoms: C_20  and  N_21
                            x       y       z     vdW  Elec       q    Type
                         _______ _______ _______ _____ _____    ______ ____

>  <TORSDO>
F 8

$$$$
=
 OpenBabel11062416343D

 29 31  0  0  1  0  0  0  0  0999 V2000
  189.9690  178.2500  143.4380 C   0  0  2  0  0  3  0  0  0  0  0  0
  189.2110  178.3130  144.7530 C   0  0  0  0  0  2  0  0  0  0  0  0
  189.3990  177.1200  142.5820 C   0  0  1  0  0  3  0  0  0  0  0  0
  187.8930  176.4670  143.3500 S   0  0  0  0  0  0  0  0  0  0  0  0
  191.6970  177.9450  143.7500 Cl  0  0  0  0  0  0  0  0  0  0  0  0
  188.5260  176.9810  144.9620 C   0  0  2  0  0  3  0  0  0  0  0  0
  189.7500  177.6620  138.8600 N   0  0  0  0  0  0  0  0  0  0  0  0
  188.3320  178.6710  137.1750 N   0  0  0  0  0  0  0  0  0  0  0  0
  189.1290  177.5610  141.1720 C   0  0  0  0  0  0  0  0  0  0  0  0
  187.9210  178.1920  140.8500 C   0  0  0  0  0  3  0  0  0  0  0  0
  190.0550  177.2980  140.1380 C   0  0  0  0  0  0  0  0  0  0  0  0
  188.5870  178.2890  138.5330 C   0  0  0  0  0  0  0  0  0  0  0  0
  189.1780  178.4410  136.2880 O   0  0  0  0  0  0  0  0  0  0  0  0
  187.6480  178.5590  139.5340 C   0  0  0  0  0  3  0  0  0  0  0  0
  187.1750  179.3430  136.8460 O   0  0  0  0  0  0  0  0  0  0  0  0
  192.5200  177.5020  140.2590 C   0  0  0  0  0  2  0  0  0  0  0  0
  192.2070  176.5100  139.1600 C   0  0  0  0  0  2  0  0  0  0  0  0
  191.3360  176.5580  140.4080 C   0  0  0  0  0  3  0  0  0  0  0  0
  187.3780  177.1270  145.9460 C   0  0  0  0  0  2  0  0  0  0  0  0
  186.8260  178.5470  145.9330 C   0  0  0  0  0  2  0  0  0  0  0  0
  184.7020  178.2580  146.9750 O   0  0  0  0  0  0  0  0  0  0  0  0
  185.3310  178.5230  145.9140 C   0  0  0  0  0  0  0  0  0  0  0  0
  184.6200  178.8430  144.7110 N   0  0  0  0  0  0  0  0  0  0  0  0
  185.2830  178.9010  143.5290 O   0  0  0  0  0  1  0  0  0  0  0  0
  183.1690  179.0060  144.7370 C   0  0  0  0  0  2  0  0  0  0  0  0
  182.5850  178.9280  143.3250 C   0  0  0  0  0  2  0  0  0  0  0  0
  180.3370  178.2300  143.7640 O   0  0  0  0  0  1  0  0  0  0  0  0
  181.0990  179.1300  143.3250 C   0  0  0  0  0  0  0  0  0  0  0  0
  180.5650  180.3210  142.8410 O   0  0  0  0  0  0  0  0  0  0  0  0
  1  5  1  1  0  0  0
  1  2  1  0  0  0  0
  2  6  1  0  0  0  0
  3  9  1  6  0  0  0
  3  4  1  0  0  0  0
  3  1  1  0  0  0  0
  4  6  1  0  0  0  0
  6 19  1  1  0  0  0
  7 11  1  0  0  0  0
  8 12  1  0  0  0  0
 10  9  1  0  0  0  0
 11 18  1  0  0  0  0
 11  9  2  0  0  0  0
 12  7  2  0  0  0  0
 12 14  1  0  0  0  0
 13  8  2  0  0  0  0
 14 10  2  0  0  0  0
 15  8  2  0  0  0  0
 16 18  1  0  0  0  0
 17 16  1  0  0  0  0
 17 18  1  0  0  0  0
 20 19  1  0  0  0  0
 22 20  1  0  0  0  0
 22 21  2  0  0  0  0
 23 25  1  0  0  0  0
 23 22  1  0  0  0  0
 24 23  1  0  0  0  0
 26 28  1  0  0  0  0
 26 25  1  0  0  0  0
 28 27  1  0  0  0  0
 29 28  2  0  0  0  0
M  END
>  <MODEL>
8

>  <REMARK>
 VINA RESULT:      -6.9      2.840      4.217
  Name = 
  8 active torsions:
  status: ('A' for Active; 'I' for Inactive)
    1  A    between atoms: C_1  and  C_20
    2  A    between atoms: C_1  and  C_25
    3  A    between atoms: C_6  and  C_12
    4  A    between atoms: C_8  and  C_19
    5  A    between atoms: C_13  and  C_19
    6  A    between atoms: C_13  and  C_29
    7  A    between atoms: C_14  and  C_15
    8  A    between atoms: C_20  and  N_21
                            x       y       z     vdW  Elec       q    Type
                         _______ _______ _______ _____ _____    ______ ____

>  <TORSDO>
F 8

$$$$
=
 OpenBabel11062416343D

 29 31  0  0  1  0  0  0  0  0999 V2000
  187.8380  178.7750  141.9250 C   0  0  2  0  0  3  0  0  0  0  0  0
  188.6040  178.7420  140.6130 C   0  0  0  0  0  2  0  0  0  0  0  0
  187.9880  177.4290  142.6310 C   0  0  1  0  0  3  0  0  0  0  0  0
  189.2140  176.4130  141.7630 S   0  0  0  0  0  0  0  0  0  0  0  0
  186.1130  179.0930  141.6100 Cl  0  0  0  0  0  0  0  0  0  0  0  0
  188.8200  177.2930  140.2350 C   0  0  2  0  0  3  0  0  0  0  0  0
  187.7300  177.8700  146.3730 N   0  0  0  0  0  0  0  0  0  0  0  0
  189.3540  177.9000  148.1710 N   0  0  0  0  0  0  0  0  0  0  0  0
  188.3560  177.5870  144.0780 C   0  0  0  0  0  0  0  0  0  0  0  0
  189.6930  177.4780  144.4810 C   0  0  0  0  0  3  0  0  0  0  0  0
  187.3640  177.7890  145.0630 C   0  0  0  0  0  0  0  0  0  0  0  0
  189.0250  177.7820  146.7800 C   0  0  0  0  0  0  0  0  0  0  0  0
  188.4560  178.0960  149.0130 O   0  0  0  0  0  0  0  0  0  0  0  0
  190.0310  177.5770  145.8290 C   0  0  0  0  0  3  0  0  0  0  0  0
  190.6670  177.8520  148.5830 O   0  0  0  0  0  0  0  0  0  0  0  0
  185.3390  179.2150  145.0220 C   0  0  0  0  0  2  0  0  0  0  0  0
  185.0460  178.0490  145.9410 C   0  0  0  0  0  2  0  0  0  0  0  0
  185.9050  177.8390  144.7000 C   0  0  0  0  0  3  0  0  0  0  0  0
  189.9740  177.1700  139.2550 C   0  0  0  0  0  2  0  0  0  0  0  0
  189.5730  177.6720  137.8740 C   0  0  0  0  0  2  0  0  0  0  0  0
  187.9640  175.9540  137.5040 O   0  0  0  0  0  0  0  0  0  0  0  0
  188.2000  177.1930  137.5250 C   0  0  0  0  0  0  0  0  0  0  0  0
  187.1530  178.1350  137.2600 N   0  0  0  0  0  0  0  0  0  0  0  0
  187.4550  179.4420  137.0580 O   0  0  0  0  0  1  0  0  0  0  0  0
  185.7750  177.6780  137.1080 C   0  0  0  0  0  2  0  0  0  0  0  0
  185.0300  177.7310  138.4430 C   0  0  0  0  0  2  0  0  0  0  0  0
  182.8690  178.7070  138.1070 O   0  0  0  0  0  0  0  0  0  0  0  0
  184.0560  178.8700  138.4920 C   0  0  0  0  0  0  0  0  0  0  0  0
  184.4690  180.1110  138.9690 O   0  0  0  0  0  1  0  0  0  0  0  0
  1  5  1  6  0  0  0
  1  3  1  0  0  0  0
  2  1  1  0  0  0  0
  3  9  1  1  0  0  0
  4  3  1  0  0  0  0
  6 19  1  6  0  0  0
  6  2  1  0  0  0  0
  6  4  1  0  0  0  0
  7 12  1  0  0  0  0
  8 15  2  0  0  0  0
  8 13  2  0  0  0  0
  9 10  2  0  0  0  0
  9 11  1  0  0  0  0
 10 14  1  0  0  0  0
 11  7  2  0  0  0  0
 12  8  1  0  0  0  0
 14 12  2  0  0  0  0
 16 17  1  0  0  0  0
 18 16  1  0  0  0  0
 18 11  1  0  0  0  0
 18 17  1  0  0  0  0
 20 19  1  0  0  0  0
 21 22  2  0  0  0  0
 22 20  1  0  0  0  0
 23 22  1  0  0  0  0
 24 23  1  0  0  0  0
 25 23  1  0  0  0  0
 25 26  1  0  0  0  0
 26 28  1  0  0  0  0
 27 28  2  0  0  0  0
 28 29  1  0  0  0  0
M  END
>  <MODEL>
9

>  <REMARK>
 VINA RESULT:      -6.8      2.495      7.407
  Name = 
  8 active torsions:
  status: ('A' for Active; 'I' for Inactive)
    1  A    between atoms: C_1  and  C_20
    2  A    between atoms: C_1  and  C_25
    3  A    between atoms: C_6  and  C_12
    4  A    between atoms: C_8  and  C_19
    5  A    between atoms: C_13  and  C_19
    6  A    between atoms: C_13  and  C_29
    7  A    between atoms: C_14  and  C_15
    8  A    between atoms: C_20  and  N_21
                            x       y       z     vdW  Elec       q    Type
                         _______ _______ _______ _____ _____    ______ ____

>  <TORSDO>
F 8

$$$$
