=
 OpenBabel11062413383D

 42 44  0  0  1  0  0  0  0  0999 V2000
  184.6920  178.1900  146.1940 C   0  0  0  0  0  2  0  0  0  0  0  0
  183.7290  179.1650  145.6720 N   0  0  0  0  0  0  0  0  0  0  0  0
  183.6580  179.4620  144.4060 C   0  0  0  0  0  3  0  0  0  0  0  0
  185.7140  178.2790  143.8920 C   0  0  0  0  0  3  0  0  0  0  0  0
  184.6190  178.8970  143.4360 C   0  0  0  0  0  0  0  0  0  0  0  0
  185.9920  178.2170  145.3710 C   0  0  2  0  0  3  0  0  0  0  0  0
  184.3640  178.9980  141.9890 C   0  0  0  0  0  0  0  0  0  0  0  0
  183.1300  178.5200  141.4450 N   0  0  0  0  0  2  0  0  0  0  0  0
  185.2330  179.5010  141.2240 O   0  0  0  0  0  0  0  0  0  0  0  0
  182.8820  178.5380  140.0660 N   0  0  0  0  0  2  0  0  0  0  0  0
  183.0160  177.1690  139.5860 C   0  0  0  0  0  2  0  0  0  0  0  0
  183.6700  177.1220  138.2090 C   0  0  1  0  0  3  0  0  0  0  0  0
  182.6500  177.1100  137.1100 C   0  0  0  0  0  0  0  0  0  0  0  0
  182.9970  176.8730  135.9660 O   0  0  0  0  0  0  0  0  0  0  0  0
  181.3380  177.3410  137.3820 F   0  0  0  0  0  0  0  0  0  0  0  0
  184.6710  178.2590  138.0390 C   0  0  0  0  0  2  0  0  0  0  0  0
  189.0040  175.5590  136.7980 S   0  0  0  0  0  0  0  0  0  0  0  0
  188.1440  177.6060  137.9300 C   0  0  0  0  0  0  0  0  0  0  0  0
  189.5170  177.7360  138.0990 C   0  0  0  0  0  3  0  0  0  0  0  0
  187.1370  178.3500  138.2880 O   0  0  0  0  0  0  0  0  0  0  0  0
  186.0520  177.7250  137.8530 C   0  0  0  0  0  0  0  0  0  0  0  0
  190.1420  176.6270  137.5060 C   0  0  0  0  0  0  0  0  0  0  0  0
  186.3510  176.5270  137.1790 C   0  0  0  0  0  3  0  0  0  0  0  0
  187.7210  176.5220  137.2700 C   0  0  0  0  0  0  0  0  0  0  0  0
  191.6160  176.4330  137.4470 C   0  0  0  0  0  2  0  0  0  0  0  0
  191.9400  174.9550  137.3640 C   0  0  0  0  0  1  0  0  0  0  0  0
  186.9140  177.2020  145.7220 O   0  0  0  0  0  0  0  0  0  0  0  0
  188.1120  177.7920  146.1800 C   0  0  1  0  0  3  0  0  0  0  0  0
  188.2930  178.5990  148.5360 O   0  0  0  0  0  1  0  0  0  0  0  0
  188.3660  176.3540  148.0810 O   0  0  0  0  0  0  0  0  0  0  0  0
  188.2670  177.5320  147.6470 C   0  0  0  0  0  0  0  0  0  0  0  0
  189.3280  177.2610  145.4040 C   0  0  1  0  0  3  0  0  0  0  0  0
  189.2730  177.6350  143.9270 C   0  0  0  0  0  2  0  0  0  0  0  0
  188.2800  175.6490  143.0580 O   0  0  0  0  0  0  0  0  0  0  0  0
  190.4270  176.0660  142.2790 N   0  0  0  0  0  2  0  0  0  0  0  0
  189.2840  176.4090  143.0680 C   0  0  0  0  0  0  0  0  0  0  0  0
  191.6650  176.8330  142.2830 C   0  0  0  0  0  2  0  0  0  0  0  0
  191.8520  177.5250  140.9470 C   0  0  0  0  0  1  0  0  0  0  0  0
  190.6190  177.8230  145.9850 C   0  0  0  0  0  2  0  0  0  0  0  0
  191.8920  175.8520  145.5530 O   0  0  0  0  0  0  0  0  0  0  0  0
  191.5430  176.7260  146.3900 C   0  0  0  0  0  0  0  0  0  0  0  0
  192.0200  176.6650  147.6920 O   0  0  0  0  0  1  0  0  0  0  0  0
  2  1  1  0  0  0  0
  3  2  2  0  0  0  0
  4  6  1  0  0  0  0
  5  4  2  0  0  0  0
  5  3  1  0  0  0  0
  6 27  1  6  0  0  0
  6  1  1  0  0  0  0
  7  5  1  0  0  0  0
  8  7  1  0  0  0  0
  9  7  2  0  0  0  0
 10  8  1  0  0  0  0
 11 10  1  0  0  0  0
 12 16  1  6  0  0  0
 12 11  1  0  0  0  0
 13 15  1  0  0  0  0
 13 12  1  0  0  0  0
 14 13  2  0  0  0  0
 17 24  1  0  0  0  0
 17 22  1  0  0  0  0
 18 19  1  0  0  0  0
 18 20  1  0  0  0  0
 21 16  1  0  0  0  0
 21 20  1  0  0  0  0
 22 19  2  0  0  0  0
 23 24  1  0  0  0  0
 23 21  2  0  0  0  0
 24 18  2  0  0  0  0
 25 22  1  0  0  0  0
 26 25  1  0  0  0  0
 28 27  1  6  0  0  0
 28 31  1  0  0  0  0
 31 30  2  0  0  0  0
 31 29  1  0  0  0  0
 32 33  1  6  0  0  0
 32 39  1  0  0  0  0
 32 28  1  0  0  0  0
 34 36  2  0  0  0  0
 35 37  1  0  0  0  0
 35 36  1  0  0  0  0
 36 33  1  0  0  0  0
 38 37  1  0  0  0  0
 39 41  1  0  0  0  0
 40 41  2  0  0  0  0
 41 42  1  0  0  0  0
M  END
>  <MODEL>
1

>  <REMARK>
 VINA RESULT:      -7.6      0.000      0.000
  Name = 
  17 active torsions:
  status: ('A' for Active; 'I' for Inactive)
    1  A    between atoms: C_4  and  C_26
    2  A    between atoms: C_6  and  C_15
    3  A    between atoms: C_6  and  C_21
    4  A    between atoms: C_7  and  C_15
    5  A    between atoms: C_7  and  O_38
    6  A    between atoms: C_7  and  C_41
    7  A    between atoms: C_13  and  C_37
    8  A    between atoms: C_14  and  N_28
    9  A    between atoms: C_15  and  C_39
   10  A    between atoms: C_16  and  C_29
   11  A    between atoms: C_22  and  C_36
   12  A    between atoms: N_24  and  N_25
   13  A    between atoms: N_25  and  C_27
   14  A    between atoms: C_27  and  C_37
   15  A    between atoms: C_33  and  O_38
   16  A    between atoms: C_36  and  C_37
   17  A    between atoms: C_39  and  C_42
                            x       y       z     vdW  Elec       q    Type
                         _______ _______ _______ _____ _____    ______ ____

>  <TORSDO>
F 17

$$$$
=
 OpenBabel11062413383D

 42 44  0  0  1  0  0  0  0  0999 V2000
  189.7010  175.8620  138.2570 C   0  0  0  0  0  2  0  0  0  0  0  0
  190.9370  176.1830  138.9760 N   0  0  0  0  0  0  0  0  0  0  0  0
  190.9460  176.9120  140.0540 C   0  0  0  0  0  3  0  0  0  0  0  0
  188.6250  177.5660  139.7710 C   0  0  0  0  0  3  0  0  0  0  0  0
  189.7060  177.5390  140.5580 C   0  0  0  0  0  0  0  0  0  0  0  0
  188.6920  177.0180  138.3690 C   0  0  2  0  0  3  0  0  0  0  0  0
  189.6590  178.1120  141.9140 C   0  0  0  0  0  0  0  0  0  0  0  0
  190.8610  178.2350  142.6800 N   0  0  0  0  0  2  0  0  0  0  0  0
  188.5600  178.4910  142.4070 O   0  0  0  0  0  0  0  0  0  0  0  0
  190.8440  178.7120  143.9980 N   0  0  0  0  0  2  0  0  0  0  0  0
  191.7560  177.8780  144.7700 C   0  0  0  0  0  2  0  0  0  0  0  0
  191.0660  176.6160  145.2760 C   0  0  1  0  0  3  0  0  0  0  0  0
  192.0020  175.4450  145.3030 C   0  0  0  0  0  0  0  0  0  0  0  0
  192.2530  174.8480  144.2700 O   0  0  0  0  0  0  0  0  0  0  0  0
  192.5900  175.0560  146.4660 F   0  0  0  0  0  0  0  0  0  0  0  0
  190.4180  176.8530  146.6350 C   0  0  0  0  0  2  0  0  0  0  0  0
  185.5940  178.8750  147.1240 S   0  0  0  0  0  0  0  0  0  0  0  0
  187.1470  177.6850  145.5820 C   0  0  0  0  0  0  0  0  0  0  0  0
  186.0100  177.8260  144.7960 C   0  0  0  0  0  3  0  0  0  0  0  0
  188.3140  177.1520  145.3560 O   0  0  0  0  0  0  0  0  0  0  0  0
  189.0060  177.3100  146.4760 C   0  0  0  0  0  0  0  0  0  0  0  0
  185.0290  178.4850  145.5540 C   0  0  0  0  0  0  0  0  0  0  0  0
  188.2740  177.9720  147.4770 C   0  0  0  0  0  3  0  0  0  0  0  0
  187.0850  178.1820  146.8220 C   0  0  0  0  0  0  0  0  0  0  0  0
  183.6830  178.8560  145.0370 C   0  0  0  0  0  2  0  0  0  0  0  0
  183.8140  179.5040  143.6730 C   0  0  0  0  0  1  0  0  0  0  0  0
  187.4180  176.7240  137.8250 O   0  0  0  0  0  0  0  0  0  0  0  0
  186.6620  177.9120  137.7290 C   0  0  1  0  0  3  0  0  0  0  0  0
  187.8350  179.9120  136.8030 O   0  0  0  0  0  1  0  0  0  0  0  0
  186.9590  178.3360  135.3890 O   0  0  0  0  0  0  0  0  0  0  0  0
  187.1530  178.7250  136.5710 C   0  0  0  0  0  0  0  0  0  0  0  0
  185.1620  177.6090  137.5810 C   0  0  1  0  0  3  0  0  0  0  0  0
  184.9090  176.1660  137.1560 C   0  0  0  0  0  2  0  0  0  0  0  0
  183.7530  177.1880  135.3380 O   0  0  0  0  0  0  0  0  0  0  0  0
  183.5480  174.8780  135.4250 N   0  0  0  0  0  2  0  0  0  0  0  0
  184.0550  176.1180  135.9280 C   0  0  0  0  0  0  0  0  0  0  0  0
  183.7710  173.5950  136.0780 C   0  0  0  0  0  2  0  0  0  0  0  0
  182.5560  173.2110  136.8990 C   0  0  0  0  0  1  0  0  0  0  0  0
  184.4360  177.8450  138.9000 C   0  0  0  0  0  2  0  0  0  0  0  0
  185.4180  179.3660  140.4540 O   0  0  0  0  0  1  0  0  0  0  0  0
  184.7140  179.2140  139.4210 C   0  0  0  0  0  0  0  0  0  0  0  0
  184.1950  180.3230  138.7690 O   0  0  0  0  0  0  0  0  0  0  0  0
  1  6  1  0  0  0  0
  1  2  1  0  0  0  0
  2  3  2  0  0  0  0
  3  5  1  0  0  0  0
  4  5  2  0  0  0  0
  5  7  1  0  0  0  0
  6 27  1  1  0  0  0
  6  4  1  0  0  0  0
  7  9  2  0  0  0  0
  7  8  1  0  0  0  0
  8 10  1  0  0  0  0
 10 11  1  0  0  0  0
 12 11  1  1  0  0  0
 12 13  1  0  0  0  0
 12 16  1  0  0  0  0
 13 15  1  0  0  0  0
 14 13  2  0  0  0  0
 18 24  2  0  0  0  0
 19 22  2  0  0  0  0
 19 18  1  0  0  0  0
 20 18  1  0  0  0  0
 20 21  1  0  0  0  0
 21 16  1  0  0  0  0
 21 23  2  0  0  0  0
 22 17  1  0  0  0  0
 24 17  1  0  0  0  0
 24 23  1  0  0  0  0
 25 22  1  0  0  0  0
 26 25  1  0  0  0  0
 28 31  1  6  0  0  0
 28 27  1  0  0  0  0
 30 31  2  0  0  0  0
 31 29  1  0  0  0  0
 32 33  1  1  0  0  0
 32 28  1  0  0  0  0
 32 39  1  0  0  0  0
 34 36  2  0  0  0  0
 35 36  1  0  0  0  0
 35 37  1  0  0  0  0
 36 33  1  0  0  0  0
 37 38  1  0  0  0  0
 39 41  1  0  0  0  0
 41 40  1  0  0  0  0
 42 41  2  0  0  0  0
M  END
>  <MODEL>
2

>  <REMARK>
 VINA RESULT:      -7.3      3.774      9.748
  Name = 
  17 active torsions:
  status: ('A' for Active; 'I' for Inactive)
    1  A    between atoms: C_4  and  C_26
    2  A    between atoms: C_6  and  C_15
    3  A    between atoms: C_6  and  C_21
    4  A    between atoms: C_7  and  C_15
    5  A    between atoms: C_7  and  O_38
    6  A    between atoms: C_7  and  C_41
    7  A    between atoms: C_13  and  C_37
    8  A    between atoms: C_14  and  N_28
    9  A    between atoms: C_15  and  C_39
   10  A    between atoms: C_16  and  C_29
   11  A    between atoms: C_22  and  C_36
   12  A    between atoms: N_24  and  N_25
   13  A    between atoms: N_25  and  C_27
   14  A    between atoms: C_27  and  C_37
   15  A    between atoms: C_33  and  O_38
   16  A    between atoms: C_36  and  C_37
   17  A    between atoms: C_39  and  C_42
                            x       y       z     vdW  Elec       q    Type
                         _______ _______ _______ _____ _____    ______ ____

>  <TORSDO>
F 17

$$$$
=
 OpenBabel11062413383D

 42 44  0  0  1  0  0  0  0  0999 V2000
  184.7300  178.2190  146.2230 C   0  0  0  0  0  2  0  0  0  0  0  0
  183.7090  179.1520  145.7370 N   0  0  0  0  0  0  0  0  0  0  0  0
  183.4840  179.3390  144.4680 C   0  0  0  0  0  3  0  0  0  0  0  0
  185.4650  178.0980  143.8140 C   0  0  0  0  0  3  0  0  0  0  0  0
  184.3210  178.6830  143.4420 C   0  0  0  0  0  0  0  0  0  0  0  0
  185.9210  178.1630  145.2490 C   0  0  2  0  0  3  0  0  0  0  0  0
  183.8920  178.6600  142.0340 C   0  0  0  0  0  0  0  0  0  0  0  0
  182.5010  178.7400  141.7090 N   0  0  0  0  0  2  0  0  0  0  0  0
  184.7470  178.5650  141.1100 O   0  0  0  0  0  0  0  0  0  0  0  0
  182.0530  178.6520  140.3840 N   0  0  0  0  0  2  0  0  0  0  0  0
  181.0910  177.5590  140.3250 C   0  0  0  0  0  2  0  0  0  0  0  0
  181.6210  176.3930  139.4970 C   0  0  1  0  0  3  0  0  0  0  0  0
  180.7210  175.1970  139.5830 C   0  0  0  0  0  0  0  0  0  0  0  0
  180.5290  174.5120  138.5930 O   0  0  0  0  0  0  0  0  0  0  0  0
  180.1320  174.8580  140.7610 F   0  0  0  0  0  0  0  0  0  0  0  0
  181.8660  176.8140  138.0520 C   0  0  0  0  0  2  0  0  0  0  0  0
  186.7920  175.5500  136.7370 S   0  0  0  0  0  0  0  0  0  0  0  0
  185.2770  177.4290  137.3560 C   0  0  0  0  0  0  0  0  0  0  0  0
  186.4860  178.0850  137.1590 C   0  0  0  0  0  3  0  0  0  0  0  0
  184.0900  177.8490  137.6910 O   0  0  0  0  0  0  0  0  0  0  0  0
  183.3210  176.7700  137.7270 C   0  0  0  0  0  0  0  0  0  0  0  0
  187.4530  177.1300  136.8060 C   0  0  0  0  0  0  0  0  0  0  0  0
  184.0210  175.5940  137.4010 C   0  0  0  0  0  3  0  0  0  0  0  0
  185.2760  176.1040  137.1740 C   0  0  0  0  0  0  0  0  0  0  0  0
  188.8660  177.4570  136.4730 C   0  0  0  0  0  2  0  0  0  0  0  0
  189.4840  178.2780  137.5880 C   0  0  0  0  0  1  0  0  0  0  0  0
  186.8810  177.1750  145.5730 O   0  0  0  0  0  0  0  0  0  0  0  0
  188.0690  177.7990  146.0120 C   0  0  1  0  0  3  0  0  0  0  0  0
  188.2270  178.5650  148.3830 O   0  0  0  0  0  1  0  0  0  0  0  0
  188.4690  176.3430  147.8750 O   0  0  0  0  0  0  0  0  0  0  0  0
  188.2690  177.5200  147.4700 C   0  0  0  0  0  0  0  0  0  0  0  0
  189.2830  177.3250  145.1970 C   0  0  1  0  0  3  0  0  0  0  0  0
  189.2090  177.7790  143.7430 C   0  0  0  0  0  2  0  0  0  0  0  0
  188.3900  175.6630  143.0130 O   0  0  0  0  0  0  0  0  0  0  0  0
  190.1330  176.5080  141.7340 N   0  0  0  0  0  2  0  0  0  0  0  0
  189.2050  176.6020  142.8190 C   0  0  0  0  0  0  0  0  0  0  0  0
  191.1670  177.4990  141.4730 C   0  0  0  0  0  2  0  0  0  0  0  0
  191.8890  177.1690  140.1810 C   0  0  0  0  0  1  0  0  0  0  0  0
  190.5740  177.8690  145.7970 C   0  0  0  0  0  2  0  0  0  0  0  0
  191.8860  176.0120  145.0760 O   0  0  0  0  0  0  0  0  0  0  0  0
  191.5580  176.7730  146.0240 C   0  0  0  0  0  0  0  0  0  0  0  0
  192.1150  176.5900  147.2820 O   0  0  0  0  0  1  0  0  0  0  0  0
  2  1  1  0  0  0  0
  3  2  2  0  0  0  0
  4  6  1  0  0  0  0
  5  4  2  0  0  0  0
  5  3  1  0  0  0  0
  6 27  1  1  0  0  0
  6  1  1  0  0  0  0
  7  5  1  0  0  0  0
  8  7  1  0  0  0  0
  9  7  2  0  0  0  0
 10  8  1  0  0  0  0
 11 10  1  0  0  0  0
 12 16  1  6  0  0  0
 12 13  1  0  0  0  0
 12 11  1  0  0  0  0
 13 15  1  0  0  0  0
 14 13  2  0  0  0  0
 17 22  1  0  0  0  0
 17 24  1  0  0  0  0
 18 20  1  0  0  0  0
 19 18  1  0  0  0  0
 20 21  1  0  0  0  0
 21 16  1  0  0  0  0
 22 19  2  0  0  0  0
 23 21  2  0  0  0  0
 24 18  2  0  0  0  0
 24 23  1  0  0  0  0
 25 22  1  0  0  0  0
 25 26  1  0  0  0  0
 28 27  1  6  0  0  0
 28 31  1  0  0  0  0
 31 30  2  0  0  0  0
 31 29  1  0  0  0  0
 32 33  1  6  0  0  0
 32 39  1  0  0  0  0
 32 28  1  0  0  0  0
 35 36  1  0  0  0  0
 36 34  2  0  0  0  0
 36 33  1  0  0  0  0
 37 35  1  0  0  0  0
 38 37  1  0  0  0  0
 39 41  1  0  0  0  0
 40 41  2  0  0  0  0
 41 42  1  0  0  0  0
M  END
>  <MODEL>
3

>  <REMARK>
 VINA RESULT:      -7.2      1.397      1.998
  Name = 
  17 active torsions:
  status: ('A' for Active; 'I' for Inactive)
    1  A    between atoms: C_4  and  C_26
    2  A    between atoms: C_6  and  C_15
    3  A    between atoms: C_6  and  C_21
    4  A    between atoms: C_7  and  C_15
    5  A    between atoms: C_7  and  O_38
    6  A    between atoms: C_7  and  C_41
    7  A    between atoms: C_13  and  C_37
    8  A    between atoms: C_14  and  N_28
    9  A    between atoms: C_15  and  C_39
   10  A    between atoms: C_16  and  C_29
   11  A    between atoms: C_22  and  C_36
   12  A    between atoms: N_24  and  N_25
   13  A    between atoms: N_25  and  C_27
   14  A    between atoms: C_27  and  C_37
   15  A    between atoms: C_33  and  O_38
   16  A    between atoms: C_36  and  C_37
   17  A    between atoms: C_39  and  C_42
                            x       y       z     vdW  Elec       q    Type
                         _______ _______ _______ _____ _____    ______ ____

>  <TORSDO>
F 17

$$$$
=
 OpenBabel11062413383D

 42 44  0  0  1  0  0  0  0  0999 V2000
  191.7230  176.5060  138.2340 C   0  0  0  0  0  2  0  0  0  0  0  0
  192.8760  177.0310  138.9710 N   0  0  0  0  0  0  0  0  0  0  0  0
  192.8250  177.3000  140.2440 C   0  0  0  0  0  3  0  0  0  0  0  0
  190.4120  177.0350  140.3210 C   0  0  0  0  0  3  0  0  0  0  0  0
  191.5590  177.1790  140.9960 C   0  0  0  0  0  0  0  0  0  0  0  0
  190.4100  177.0590  138.8150 C   0  0  2  0  0  3  0  0  0  0  0  0
  191.5620  177.2000  142.4690 C   0  0  0  0  0  0  0  0  0  0  0  0
  191.4340  178.4430  143.1660 N   0  0  0  0  0  2  0  0  0  0  0  0
  191.6820  176.1250  143.1200 O   0  0  0  0  0  0  0  0  0  0  0  0
  191.5010  178.5080  144.5650 N   0  0  0  0  0  2  0  0  0  0  0  0
  190.1360  178.4310  145.0660 C   0  0  0  0  0  2  0  0  0  0  0  0
  189.8820  177.1150  145.7940 C   0  0  1  0  0  3  0  0  0  0  0  0
  191.0800  176.6770  146.5820 C   0  0  0  0  0  0  0  0  0  0  0  0
  191.3090  177.1850  147.6670 O   0  0  0  0  0  0  0  0  0  0  0  0
  191.9030  175.7050  146.1070 F   0  0  0  0  0  0  0  0  0  0  0  0
  188.6330  177.2010  146.6640 C   0  0  0  0  0  2  0  0  0  0  0  0
  185.0030  178.0660  142.9660 S   0  0  0  0  0  0  0  0  0  0  0  0
  185.5690  178.3980  145.3700 C   0  0  0  0  0  0  0  0  0  0  0  0
  184.3130  178.9860  145.2840 C   0  0  0  0  0  3  0  0  0  0  0  0
  186.4010  178.2370  146.3590 O   0  0  0  0  0  0  0  0  0  0  0  0
  187.4480  177.6020  145.8520 C   0  0  0  0  0  0  0  0  0  0  0  0
  183.8660  178.8790  143.9570 C   0  0  0  0  0  0  0  0  0  0  0  0
  187.3030  177.3290  144.4790 C   0  0  0  0  0  3  0  0  0  0  0  0
  186.0640  177.8730  144.2440 C   0  0  0  0  0  0  0  0  0  0  0  0
  182.5390  179.3570  143.4820 C   0  0  0  0  0  2  0  0  0  0  0  0
  181.4320  178.6000  144.1900 C   0  0  0  0  0  1  0  0  0  0  0  0
  189.2460  176.4840  138.2510 O   0  0  0  0  0  0  0  0  0  0  0  0
  188.2860  177.4930  138.0210 C   0  0  1  0  0  3  0  0  0  0  0  0
  189.3440  178.0640  135.8330 O   0  0  0  0  0  0  0  0  0  0  0  0
  188.8370  179.7230  137.3310 O   0  0  0  0  0  1  0  0  0  0  0  0
  188.8370  178.4940  137.0520 C   0  0  0  0  0  0  0  0  0  0  0  0
  186.9670  176.9010  137.4990 C   0  0  1  0  0  3  0  0  0  0  0  0
  185.9520  177.9850  137.1510 C   0  0  0  0  0  2  0  0  0  0  0  0
  185.2700  178.8540  139.2640 O   0  0  0  0  0  0  0  0  0  0  0  0
  183.6790  177.5290  138.2150 N   0  0  0  0  0  2  0  0  0  0  0  0
  184.9620  178.1600  138.2600 C   0  0  0  0  0  0  0  0  0  0  0  0
  183.2560  176.6430  137.1400 C   0  0  0  0  0  2  0  0  0  0  0  0
  182.6130  175.3960  137.7150 C   0  0  0  0  0  1  0  0  0  0  0  0
  187.2140  176.0670  136.2490 C   0  0  0  0  0  2  0  0  0  0  0  0
  186.9300  173.8040  135.5480 O   0  0  0  0  0  0  0  0  0  0  0  0
  186.7050  174.6770  136.4270 C   0  0  0  0  0  0  0  0  0  0  0  0
  185.9820  174.3440  137.5640 O   0  0  0  0  0  1  0  0  0  0  0  0
  1  6  1  0  0  0  0
  1  2  1  0  0  0  0
  2  3  2  0  0  0  0
  3  5  1  0  0  0  0
  4  5  2  0  0  0  0
  5  7  1  0  0  0  0
  6 27  1  6  0  0  0
  6  4  1  0  0  0  0
  7  9  2  0  0  0  0
  7  8  1  0  0  0  0
  8 10  1  0  0  0  0
 10 11  1  0  0  0  0
 12 11  1  1  0  0  0
 12 13  1  0  0  0  0
 12 16  1  0  0  0  0
 13 14  2  0  0  0  0
 15 13  1  0  0  0  0
 17 22  1  0  0  0  0
 17 24  1  0  0  0  0
 18 20  1  0  0  0  0
 19 18  1  0  0  0  0
 21 20  1  0  0  0  0
 21 16  1  0  0  0  0
 22 19  2  0  0  0  0
 23 21  2  0  0  0  0
 24 23  1  0  0  0  0
 24 18  2  0  0  0  0
 25 22  1  0  0  0  0
 25 26  1  0  0  0  0
 28 31  1  6  0  0  0
 28 27  1  0  0  0  0
 29 31  2  0  0  0  0
 31 30  1  0  0  0  0
 32 39  1  6  0  0  0
 32 28  1  0  0  0  0
 33 32  1  0  0  0  0
 33 36  1  0  0  0  0
 35 36  1  0  0  0  0
 36 34  2  0  0  0  0
 37 38  1  0  0  0  0
 37 35  1  0  0  0  0
 39 41  1  0  0  0  0
 40 41  2  0  0  0  0
 41 42  1  0  0  0  0
M  END
>  <MODEL>
4

>  <REMARK>
 VINA RESULT:      -6.9      3.225      9.699
  Name = 
  17 active torsions:
  status: ('A' for Active; 'I' for Inactive)
    1  A    between atoms: C_4  and  C_26
    2  A    between atoms: C_6  and  C_15
    3  A    between atoms: C_6  and  C_21
    4  A    between atoms: C_7  and  C_15
    5  A    between atoms: C_7  and  O_38
    6  A    between atoms: C_7  and  C_41
    7  A    between atoms: C_13  and  C_37
    8  A    between atoms: C_14  and  N_28
    9  A    between atoms: C_15  and  C_39
   10  A    between atoms: C_16  and  C_29
   11  A    between atoms: C_22  and  C_36
   12  A    between atoms: N_24  and  N_25
   13  A    between atoms: N_25  and  C_27
   14  A    between atoms: C_27  and  C_37
   15  A    between atoms: C_33  and  O_38
   16  A    between atoms: C_36  and  C_37
   17  A    between atoms: C_39  and  C_42
                            x       y       z     vdW  Elec       q    Type
                         _______ _______ _______ _____ _____    ______ ____

>  <TORSDO>
F 17

$$$$
=
 OpenBabel11062413383D

 42 44  0  0  1  0  0  0  0  0999 V2000
  185.4520  178.2020  146.4190 C   0  0  0  0  0  2  0  0  0  0  0  0
  184.2980  179.0490  146.1020 N   0  0  0  0  0  0  0  0  0  0  0  0
  183.8130  179.1420  144.8970 C   0  0  0  0  0  3  0  0  0  0  0  0
  185.6980  177.9610  143.9220 C   0  0  0  0  0  3  0  0  0  0  0  0
  184.4680  178.4630  143.7590 C   0  0  0  0  0  0  0  0  0  0  0  0
  186.4250  178.1420  145.2290 C   0  0  2  0  0  3  0  0  0  0  0  0
  183.7700  178.3270  142.4700 C   0  0  0  0  0  0  0  0  0  0  0  0
  182.4110  178.7590  142.3440 N   0  0  0  0  0  2  0  0  0  0  0  0
  184.3620  177.8260  141.4750 O   0  0  0  0  0  0  0  0  0  0  0  0
  181.6940  178.5820  141.1530 N   0  0  0  0  0  2  0  0  0  0  0  0
  181.7250  179.8520  140.4390 C   0  0  0  0  0  2  0  0  0  0  0  0
  182.0040  179.6490  138.9530 C   0  0  1  0  0  3  0  0  0  0  0  0
  181.3840  180.7310  138.1200 C   0  0  0  0  0  0  0  0  0  0  0  0
  181.1190  180.5150  136.9500 O   0  0  0  0  0  0  0  0  0  0  0  0
  181.0940  181.9430  138.6640 F   0  0  0  0  0  0  0  0  0  0  0  0
  183.5000  179.5200  138.6890 C   0  0  0  0  0  2  0  0  0  0  0  0
  185.6970  175.1070  136.8730 S   0  0  0  0  0  0  0  0  0  0  0  0
  183.6800  176.0600  137.9820 C   0  0  0  0  0  0  0  0  0  0  0  0
  183.3570  174.7110  137.9040 C   0  0  0  0  0  3  0  0  0  0  0  0
  183.0460  177.0920  138.4620 O   0  0  0  0  0  0  0  0  0  0  0  0
  183.8440  178.1320  138.2620 C   0  0  0  0  0  0  0  0  0  0  0  0
  184.4210  174.0390  137.2810 C   0  0  0  0  0  0  0  0  0  0  0  0
  185.0500  177.7770  137.6320 C   0  0  0  0  0  3  0  0  0  0  0  0
  184.8680  176.4230  137.4860 C   0  0  0  0  0  0  0  0  0  0  0  0
  184.4610  172.5680  137.0570 C   0  0  0  0  0  2  0  0  0  0  0  0
  183.8900  172.2360  135.6930 C   0  0  0  0  0  1  0  0  0  0  0  0
  187.4900  177.2270  145.4040 O   0  0  0  0  0  0  0  0  0  0  0  0
  188.6200  177.9090  145.9050 C   0  0  1  0  0  3  0  0  0  0  0  0
  188.6290  176.3010  147.8160 O   0  0  0  0  0  0  0  0  0  0  0  0
  189.0590  178.5230  148.1810 O   0  0  0  0  0  1  0  0  0  0  0  0
  188.7800  177.6050  147.3640 C   0  0  0  0  0  0  0  0  0  0  0  0
  189.8920  177.5290  145.1290 C   0  0  1  0  0  3  0  0  0  0  0  0
  190.1250  178.4430  143.9310 C   0  0  0  0  0  2  0  0  0  0  0  0
  191.9300  177.5370  142.6630 O   0  0  0  0  0  0  0  0  0  0  0  0
  189.8270  177.1050  141.7790 N   0  0  0  0  0  2  0  0  0  0  0  0
  190.6830  177.6710  142.7760 C   0  0  0  0  0  0  0  0  0  0  0  0
  188.3810  177.2700  141.7740 C   0  0  0  0  0  2  0  0  0  0  0  0
  187.9990  178.4830  140.9490 C   0  0  0  0  0  1  0  0  0  0  0  0
  191.1150  177.6160  146.0330 C   0  0  0  0  0  2  0  0  0  0  0  0
  191.9930  175.5620  145.1950 O   0  0  0  0  0  0  0  0  0  0  0  0
  191.7470  176.2770  146.2030 C   0  0  0  0  0  0  0  0  0  0  0  0
  192.0660  175.8160  147.4720 O   0  0  0  0  0  1  0  0  0  0  0  0
  2  1  1  0  0  0  0
  3  2  2  0  0  0  0
  4  6  1  0  0  0  0
  5  4  2  0  0  0  0
  5  3  1  0  0  0  0
  6 27  1  1  0  0  0
  6  1  1  0  0  0  0
  7  5  1  0  0  0  0
  8  7  1  0  0  0  0
  9  7  2  0  0  0  0
 10  8  1  0  0  0  0
 11 10  1  0  0  0  0
 12 16  1  1  0  0  0
 12 11  1  0  0  0  0
 13 15  1  0  0  0  0
 13 12  1  0  0  0  0
 14 13  2  0  0  0  0
 17 22  1  0  0  0  0
 17 24  1  0  0  0  0
 18 20  1  0  0  0  0
 19 18  1  0  0  0  0
 21 20  1  0  0  0  0
 21 16  1  0  0  0  0
 22 19  2  0  0  0  0
 23 21  2  0  0  0  0
 24 23  1  0  0  0  0
 24 18  2  0  0  0  0
 25 22  1  0  0  0  0
 26 25  1  0  0  0  0
 28 27  1  6  0  0  0
 28 31  1  0  0  0  0
 31 29  2  0  0  0  0
 31 30  1  0  0  0  0
 32 33  1  6  0  0  0
 32 28  1  0  0  0  0
 32 39  1  0  0  0  0
 34 36  2  0  0  0  0
 35 36  1  0  0  0  0
 36 33  1  0  0  0  0
 37 35  1  0  0  0  0
 38 37  1  0  0  0  0
 39 41  1  0  0  0  0
 40 41  2  0  0  0  0
 41 42  1  0  0  0  0
M  END
>  <MODEL>
5

>  <REMARK>
 VINA RESULT:      -6.7      2.298      3.278
  Name = 
  17 active torsions:
  status: ('A' for Active; 'I' for Inactive)
    1  A    between atoms: C_4  and  C_26
    2  A    between atoms: C_6  and  C_15
    3  A    between atoms: C_6  and  C_21
    4  A    between atoms: C_7  and  C_15
    5  A    between atoms: C_7  and  O_38
    6  A    between atoms: C_7  and  C_41
    7  A    between atoms: C_13  and  C_37
    8  A    between atoms: C_14  and  N_28
    9  A    between atoms: C_15  and  C_39
   10  A    between atoms: C_16  and  C_29
   11  A    between atoms: C_22  and  C_36
   12  A    between atoms: N_24  and  N_25
   13  A    between atoms: N_25  and  C_27
   14  A    between atoms: C_27  and  C_37
   15  A    between atoms: C_33  and  O_38
   16  A    between atoms: C_36  and  C_37
   17  A    between atoms: C_39  and  C_42
                            x       y       z     vdW  Elec       q    Type
                         _______ _______ _______ _____ _____    ______ ____

>  <TORSDO>
F 17

$$$$
=
 OpenBabel11062413383D

 42 44  0  0  1  0  0  0  0  0999 V2000
  185.4680  177.9410  146.7200 C   0  0  0  0  0  2  0  0  0  0  0  0
  184.3900  178.7930  146.2110 N   0  0  0  0  0  0  0  0  0  0  0  0
  184.2900  179.1130  144.9530 C   0  0  0  0  0  3  0  0  0  0  0  0
  186.4900  178.2270  144.4330 C   0  0  0  0  0  3  0  0  0  0  0  0
  185.3260  178.7070  143.9800 C   0  0  0  0  0  0  0  0  0  0  0  0
  186.7600  178.1620  145.9130 C   0  0  2  0  0  3  0  0  0  0  0  0
  185.0720  178.8140  142.5340 C   0  0  0  0  0  0  0  0  0  0  0  0
  183.7280  178.8810  142.0470 N   0  0  0  0  0  2  0  0  0  0  0  0
  186.0360  178.8420  141.7190 O   0  0  0  0  0  0  0  0  0  0  0  0
  183.4480  178.9140  140.6740 N   0  0  0  0  0  2  0  0  0  0  0  0
  183.3780  177.5330  140.2140 C   0  0  0  0  0  2  0  0  0  0  0  0
  183.6930  177.4240  138.7260 C   0  0  1  0  0  3  0  0  0  0  0  0
  182.4460  177.4180  137.8940 C   0  0  0  0  0  0  0  0  0  0  0  0
  181.6780  176.4740  137.9630 O   0  0  0  0  0  0  0  0  0  0  0  0
  182.1520  178.4670  137.0800 F   0  0  0  0  0  0  0  0  0  0  0  0
  184.6600  178.5180  138.2890 C   0  0  0  0  0  2  0  0  0  0  0  0
  189.0030  175.8820  136.9530 S   0  0  0  0  0  0  0  0  0  0  0  0
  188.1150  177.7720  138.3120 C   0  0  0  0  0  0  0  0  0  0  0  0
  189.4760  177.8310  138.5880 C   0  0  0  0  0  3  0  0  0  0  0  0
  187.1040  178.4900  138.7090 O   0  0  0  0  0  0  0  0  0  0  0  0
  186.0370  177.9710  138.1170 C   0  0  0  0  0  0  0  0  0  0  0  0
  190.1140  176.7980  137.8820 C   0  0  0  0  0  0  0  0  0  0  0  0
  186.3530  176.8730  137.2970 C   0  0  0  0  0  3  0  0  0  0  0  0
  187.7130  176.8090  137.4760 C   0  0  0  0  0  0  0  0  0  0  0  0
  191.5840  176.5650  137.8910 C   0  0  0  0  0  2  0  0  0  0  0  0
  191.8810  175.1200  137.5430 C   0  0  0  0  0  1  0  0  0  0  0  0
  187.8060  177.2690  146.2490 O   0  0  0  0  0  0  0  0  0  0  0  0
  188.9170  178.0010  146.7220 C   0  0  1  0  0  3  0  0  0  0  0  0
  187.8740  177.3970  148.9080 O   0  0  0  0  0  1  0  0  0  0  0  0
  189.6750  178.8130  148.8460 O   0  0  0  0  0  0  0  0  0  0  0  0
  188.8490  178.1010  148.2150 C   0  0  0  0  0  0  0  0  0  0  0  0
  190.2410  177.3550  146.2810 C   0  0  1  0  0  3  0  0  0  0  0  0
  190.5560  176.0950  147.0790 C   0  0  0  0  0  2  0  0  0  0  0  0
  192.3690  175.0750  145.9150 O   0  0  0  0  0  0  0  0  0  0  0  0
  192.9580  176.0520  147.9370 N   0  0  0  0  0  2  0  0  0  0  0  0
  191.9970  175.7190  146.9300 C   0  0  0  0  0  0  0  0  0  0  0  0
  192.6170  176.7220  149.1830 C   0  0  0  0  0  2  0  0  0  0  0  0
  193.8740  177.0030  149.9840 C   0  0  0  0  0  1  0  0  0  0  0  0
  190.1860  176.9780  144.8060 C   0  0  0  0  0  2  0  0  0  0  0  0
  190.9270  179.1440  144.1370 O   0  0  0  0  0  1  0  0  0  0  0  0
  191.0280  177.8980  143.9900 C   0  0  0  0  0  0  0  0  0  0  0  0
  191.9250  177.3810  143.0650 O   0  0  0  0  0  0  0  0  0  0  0  0
  2  1  1  0  0  0  0
  3  2  2  0  0  0  0
  4  6  1  0  0  0  0
  5  4  2  0  0  0  0
  5  3  1  0  0  0  0
  6 27  1  6  0  0  0
  6  1  1  0  0  0  0
  7  5  1  0  0  0  0
  8  7  1  0  0  0  0
  9  7  2  0  0  0  0
 10  8  1  0  0  0  0
 11 10  1  0  0  0  0
 12 16  1  6  0  0  0
 12 11  1  0  0  0  0
 13 14  2  0  0  0  0
 13 12  1  0  0  0  0
 15 13  1  0  0  0  0
 17 24  1  0  0  0  0
 17 22  1  0  0  0  0
 18 19  1  0  0  0  0
 18 20  1  0  0  0  0
 21 16  1  0  0  0  0
 21 20  1  0  0  0  0
 22 25  1  0  0  0  0
 22 19  2  0  0  0  0
 23 24  1  0  0  0  0
 23 21  2  0  0  0  0
 24 18  2  0  0  0  0
 26 25  1  0  0  0  0
 28 27  1  1  0  0  0
 28 31  1  0  0  0  0
 31 30  2  0  0  0  0
 31 29  1  0  0  0  0
 32 39  1  6  0  0  0
 32 28  1  0  0  0  0
 32 33  1  0  0  0  0
 34 36  2  0  0  0  0
 35 37  1  0  0  0  0
 36 33  1  0  0  0  0
 36 35  1  0  0  0  0
 37 38  1  0  0  0  0
 41 40  1  0  0  0  0
 41 39  1  0  0  0  0
 42 41  2  0  0  0  0
M  END
>  <MODEL>
6

>  <REMARK>
 VINA RESULT:      -6.5      1.718      2.741
  Name = 
  17 active torsions:
  status: ('A' for Active; 'I' for Inactive)
    1  A    between atoms: C_4  and  C_26
    2  A    between atoms: C_6  and  C_15
    3  A    between atoms: C_6  and  C_21
    4  A    between atoms: C_7  and  C_15
    5  A    between atoms: C_7  and  O_38
    6  A    between atoms: C_7  and  C_41
    7  A    between atoms: C_13  and  C_37
    8  A    between atoms: C_14  and  N_28
    9  A    between atoms: C_15  and  C_39
   10  A    between atoms: C_16  and  C_29
   11  A    between atoms: C_22  and  C_36
   12  A    between atoms: N_24  and  N_25
   13  A    between atoms: N_25  and  C_27
   14  A    between atoms: C_27  and  C_37
   15  A    between atoms: C_33  and  O_38
   16  A    between atoms: C_36  and  C_37
   17  A    between atoms: C_39  and  C_42
                            x       y       z     vdW  Elec       q    Type
                         _______ _______ _______ _____ _____    ______ ____

>  <TORSDO>
F 17

$$$$
=
 OpenBabel11062413383D

 42 44  0  0  1  0  0  0  0  0999 V2000
  183.7080  179.2510  143.6130 C   0  0  0  0  0  2  0  0  0  0  0  0
  185.1240  178.8750  143.5670 N   0  0  0  0  0  0  0  0  0  0  0  0
  185.7520  178.6630  142.4460 C   0  0  0  0  0  3  0  0  0  0  0  0
  183.6970  178.7000  141.1530 C   0  0  0  0  0  3  0  0  0  0  0  0
  185.0350  178.6990  141.1540 C   0  0  0  0  0  0  0  0  0  0  0  0
  182.9360  178.6030  142.4510 C   0  0  2  0  0  3  0  0  0  0  0  0
  185.7830  178.7490  139.8870 C   0  0  0  0  0  0  0  0  0  0  0  0
  187.1960  178.5200  139.8820 N   0  0  0  0  0  2  0  0  0  0  0  0
  185.1850  179.0000  138.8040 O   0  0  0  0  0  0  0  0  0  0  0  0
  187.9500  178.6280  138.7060 N   0  0  0  0  0  2  0  0  0  0  0  0
  189.3550  178.5740  139.0890 C   0  0  0  0  0  2  0  0  0  0  0  0
  189.7790  177.1550  139.4540 C   0  0  1  0  0  3  0  0  0  0  0  0
  190.0200  176.3170  138.2340 C   0  0  0  0  0  0  0  0  0  0  0  0
  190.5450  175.2220  138.3460 O   0  0  0  0  0  0  0  0  0  0  0  0
  189.6400  176.7580  137.0050 F   0  0  0  0  0  0  0  0  0  0  0  0
  190.9890  177.1650  140.3810 C   0  0  0  0  0  2  0  0  0  0  0  0
  188.4390  177.1260  144.9730 S   0  0  0  0  0  0  0  0  0  0  0  0
  190.6870  177.2110  143.9030 C   0  0  0  0  0  0  0  0  0  0  0  0
  191.0090  177.2350  145.2540 C   0  0  0  0  0  3  0  0  0  0  0  0
  191.4150  177.2270  142.8230 O   0  0  0  0  0  0  0  0  0  0  0  0
  190.5610  177.1850  141.8100 C   0  0  0  0  0  0  0  0  0  0  0  0
  189.8140  177.2000  145.9920 C   0  0  0  0  0  0  0  0  0  0  0  0
  189.2210  177.1360  142.2330 C   0  0  0  0  0  3  0  0  0  0  0  0
  189.3870  177.1540  143.5960 C   0  0  0  0  0  0  0  0  0  0  0  0
  189.7530  177.1690  147.4790 C   0  0  0  0  0  2  0  0  0  0  0  0
  188.3090  177.2090  147.9380 C   0  0  0  0  0  1  0  0  0  0  0  0
  181.5930  179.0360  142.3410 O   0  0  0  0  0  0  0  0  0  0  0  0
  180.9380  178.2900  141.3380 C   0  0  1  0  0  3  0  0  0  0  0  0
  179.0850  178.2650  143.0110 O   0  0  0  0  0  1  0  0  0  0  0  0
  179.1700  176.6710  141.3670 O   0  0  0  0  0  0  0  0  0  0  0  0
  179.6860  177.6890  141.9000 C   0  0  0  0  0  0  0  0  0  0  0  0
  180.6180  179.1620  140.1120 C   0  0  1  0  0  3  0  0  0  0  0  0
  180.7060  178.3730  138.8100 C   0  0  0  0  0  2  0  0  0  0  0  0
  182.0220  180.2250  138.0900 O   0  0  0  0  0  0  0  0  0  0  0  0
  181.5640  178.6730  136.4270 N   0  0  0  0  0  2  0  0  0  0  0  0
  181.4710  179.1380  137.7770 C   0  0  0  0  0  0  0  0  0  0  0  0
  180.8970  177.4730  135.9430 C   0  0  0  0  0  2  0  0  0  0  0  0
  181.7930  176.7360  134.9670 C   0  0  0  0  0  1  0  0  0  0  0  0
  179.2130  179.7400  140.2200 C   0  0  0  0  0  2  0  0  0  0  0  0
  179.3110  181.5360  141.7870 O   0  0  0  0  0  1  0  0  0  0  0  0
  179.2590  181.1860  140.5780 C   0  0  0  0  0  0  0  0  0  0  0  0
  179.2450  182.1490  139.5790 O   0  0  0  0  0  0  0  0  0  0  0  0
  2  1  1  0  0  0  0
  3  2  2  0  0  0  0
  4  5  2  0  0  0  0
  4  6  1  0  0  0  0
  5  3  1  0  0  0  0
  6 27  1  6  0  0  0
  6  1  1  0  0  0  0
  7  5  1  0  0  0  0
  8  7  1  0  0  0  0
  9  7  2  0  0  0  0
 10 11  1  0  0  0  0
 10  8  1  0  0  0  0
 12 11  1  6  0  0  0
 12 16  1  0  0  0  0
 13 14  2  0  0  0  0
 13 12  1  0  0  0  0
 15 13  1  0  0  0  0
 16 21  1  0  0  0  0
 17 22  1  0  0  0  0
 18 19  1  0  0  0  0
 19 22  2  0  0  0  0
 20 18  1  0  0  0  0
 21 23  2  0  0  0  0
 21 20  1  0  0  0  0
 22 25  1  0  0  0  0
 23 24  1  0  0  0  0
 24 18  2  0  0  0  0
 24 17  1  0  0  0  0
 25 26  1  0  0  0  0
 28 31  1  1  0  0  0
 28 27  1  0  0  0  0
 30 31  2  0  0  0  0
 31 29  1  0  0  0  0
 32 33  1  6  0  0  0
 32 39  1  0  0  0  0
 32 28  1  0  0  0  0
 35 36  1  0  0  0  0
 36 34  2  0  0  0  0
 36 33  1  0  0  0  0
 37 35  1  0  0  0  0
 38 37  1  0  0  0  0
 39 41  1  0  0  0  0
 41 40  1  0  0  0  0
 42 41  2  0  0  0  0
M  END
>  <MODEL>
7

>  <REMARK>
 VINA RESULT:      -6.5      3.724      8.690
  Name = 
  17 active torsions:
  status: ('A' for Active; 'I' for Inactive)
    1  A    between atoms: C_4  and  C_26
    2  A    between atoms: C_6  and  C_15
    3  A    between atoms: C_6  and  C_21
    4  A    between atoms: C_7  and  C_15
    5  A    between atoms: C_7  and  O_38
    6  A    between atoms: C_7  and  C_41
    7  A    between atoms: C_13  and  C_37
    8  A    between atoms: C_14  and  N_28
    9  A    between atoms: C_15  and  C_39
   10  A    between atoms: C_16  and  C_29
   11  A    between atoms: C_22  and  C_36
   12  A    between atoms: N_24  and  N_25
   13  A    between atoms: N_25  and  C_27
   14  A    between atoms: C_27  and  C_37
   15  A    between atoms: C_33  and  O_38
   16  A    between atoms: C_36  and  C_37
   17  A    between atoms: C_39  and  C_42
                            x       y       z     vdW  Elec       q    Type
                         _______ _______ _______ _____ _____    ______ ____

>  <TORSDO>
F 17

$$$$
=
 OpenBabel11062413383D

 42 44  0  0  1  0  0  0  0  0999 V2000
  182.5550  176.5740  138.0960 C   0  0  0  0  0  2  0  0  0  0  0  0
  183.4780  176.8770  136.9980 N   0  0  0  0  0  0  0  0  0  0  0  0
  184.6090  177.4920  137.1900 C   0  0  0  0  0  3  0  0  0  0  0  0
  184.0450  178.0620  139.4820 C   0  0  0  0  0  3  0  0  0  0  0  0
  184.9790  178.0050  138.5260 C   0  0  0  0  0  0  0  0  0  0  0  0
  182.6230  177.6650  139.1790 C   0  0  2  0  0  3  0  0  0  0  0  0
  186.3610  178.4340  138.8040 C   0  0  0  0  0  0  0  0  0  0  0  0
  187.2780  178.6310  137.7240 N   0  0  0  0  0  2  0  0  0  0  0  0
  186.7420  178.6220  139.9920 O   0  0  0  0  0  0  0  0  0  0  0  0
  188.6180  178.9720  137.9550 N   0  0  0  0  0  2  0  0  0  0  0  0
  189.4390  177.9690  137.2870 C   0  0  0  0  0  2  0  0  0  0  0  0
  189.7360  176.7900  138.2070 C   0  0  1  0  0  3  0  0  0  0  0  0
  189.7460  175.4910  137.4570 C   0  0  0  0  0  0  0  0  0  0  0  0
  190.3840  174.5470  137.8920 O   0  0  0  0  0  0  0  0  0  0  0  0
  189.0350  175.3510  136.3070 F   0  0  0  0  0  0  0  0  0  0  0  0
  191.0320  177.0080  138.9780 C   0  0  0  0  0  2  0  0  0  0  0  0
  191.1810  177.8950  144.1540 S   0  0  0  0  0  0  0  0  0  0  0  0
  189.6910  177.3570  142.2310 C   0  0  0  0  0  0  0  0  0  0  0  0
  188.7900  177.4150  143.2870 C   0  0  0  0  0  3  0  0  0  0  0  0
  189.5430  177.1210  140.9580 O   0  0  0  0  0  0  0  0  0  0  0  0
  190.7580  177.1950  140.4320 C   0  0  0  0  0  0  0  0  0  0  0  0
  189.5050  177.7080  144.4600 C   0  0  0  0  0  0  0  0  0  0  0  0
  191.7450  177.4940  141.3890 C   0  0  0  0  0  3  0  0  0  0  0  0
  190.9760  177.5840  142.5240 C   0  0  0  0  0  0  0  0  0  0  0  0
  188.8760  177.8950  145.7950 C   0  0  0  0  0  2  0  0  0  0  0  0
  187.4140  177.4970  145.7390 C   0  0  0  0  0  1  0  0  0  0  0  0
  181.8700  177.3680  140.3400 O   0  0  0  0  0  0  0  0  0  0  0  0
  180.5700  177.9030  140.2060 C   0  0  1  0  0  3  0  0  0  0  0  0
  179.1060  176.2350  139.0620 O   0  0  0  0  0  0  0  0  0  0  0  0
  179.1430  176.3520  141.3510 O   0  0  0  0  0  1  0  0  0  0  0  0
  179.5670  176.7910  140.2480 C   0  0  0  0  0  0  0  0  0  0  0  0
  180.2760  178.9390  141.3030 C   0  0  1  0  0  3  0  0  0  0  0  0
  181.5380  179.3500  142.0550 C   0  0  0  0  0  2  0  0  0  0  0  0
  180.3600  178.5700  143.9750 O   0  0  0  0  0  0  0  0  0  0  0  0
  182.6250  178.9360  144.3250 N   0  0  0  0  0  2  0  0  0  0  0  0
  181.4650  178.9230  143.4870 C   0  0  0  0  0  0  0  0  0  0  0  0
  183.9310  179.4020  143.8820 C   0  0  0  0  0  2  0  0  0  0  0  0
  184.7150  178.2560  143.2740 C   0  0  0  0  0  1  0  0  0  0  0  0
  179.6560  180.1940  140.7010 C   0  0  0  0  0  2  0  0  0  0  0  0
  181.1860  181.1890  139.1650 O   0  0  0  0  0  1  0  0  0  0  0  0
  180.1860  180.4420  139.3300 C   0  0  0  0  0  0  0  0  0  0  0  0
  179.5750  179.8510  138.2330 O   0  0  0  0  0  0  0  0  0  0  0  0
  1  6  1  0  0  0  0
  2  3  2  0  0  0  0
  2  1  1  0  0  0  0
  3  5  1  0  0  0  0
  5  7  1  0  0  0  0
  5  4  2  0  0  0  0
  6  4  1  0  0  0  0
  6 27  1  1  0  0  0
  7  9  2  0  0  0  0
  8 10  1  0  0  0  0
  8  7  1  0  0  0  0
 11 10  1  0  0  0  0
 12 11  1  6  0  0  0
 12 16  1  0  0  0  0
 13 14  2  0  0  0  0
 13 12  1  0  0  0  0
 15 13  1  0  0  0  0
 16 21  1  0  0  0  0
 17 22  1  0  0  0  0
 18 24  2  0  0  0  0
 18 19  1  0  0  0  0
 19 22  2  0  0  0  0
 20 18  1  0  0  0  0
 21 20  1  0  0  0  0
 21 23  2  0  0  0  0
 22 25  1  0  0  0  0
 23 24  1  0  0  0  0
 24 17  1  0  0  0  0
 26 25  1  0  0  0  0
 28 31  1  1  0  0  0
 28 27  1  0  0  0  0
 28 32  1  0  0  0  0
 29 31  2  0  0  0  0
 31 30  1  0  0  0  0
 32 39  1  6  0  0  0
 32 33  1  0  0  0  0
 33 36  1  0  0  0  0
 36 34  2  0  0  0  0
 36 35  1  0  0  0  0
 37 35  1  0  0  0  0
 38 37  1  0  0  0  0
 40 41  1  0  0  0  0
 41 39  1  0  0  0  0
 42 41  2  0  0  0  0
M  END
>  <MODEL>
8

>  <REMARK>
 VINA RESULT:      -6.4      3.490      8.525
  Name = 
  17 active torsions:
  status: ('A' for Active; 'I' for Inactive)
    1  A    between atoms: C_4  and  C_26
    2  A    between atoms: C_6  and  C_15
    3  A    between atoms: C_6  and  C_21
    4  A    between atoms: C_7  and  C_15
    5  A    between atoms: C_7  and  O_38
    6  A    between atoms: C_7  and  C_41
    7  A    between atoms: C_13  and  C_37
    8  A    between atoms: C_14  and  N_28
    9  A    between atoms: C_15  and  C_39
   10  A    between atoms: C_16  and  C_29
   11  A    between atoms: C_22  and  C_36
   12  A    between atoms: N_24  and  N_25
   13  A    between atoms: N_25  and  C_27
   14  A    between atoms: C_27  and  C_37
   15  A    between atoms: C_33  and  O_38
   16  A    between atoms: C_36  and  C_37
   17  A    between atoms: C_39  and  C_42
                            x       y       z     vdW  Elec       q    Type
                         _______ _______ _______ _____ _____    ______ ____

>  <TORSDO>
F 17

$$$$
=
 OpenBabel11062413383D

 42 44  0  0  1  0  0  0  0  0999 V2000
  191.9330  176.5230  138.2310 C   0  0  0  0  0  2  0  0  0  0  0  0
  192.9750  177.1490  139.0500 N   0  0  0  0  0  0  0  0  0  0  0  0
  192.8170  177.3780  140.3220 C   0  0  0  0  0  3  0  0  0  0  0  0
  190.4470  176.8550  140.2400 C   0  0  0  0  0  3  0  0  0  0  0  0
  191.5270  177.1020  140.9890 C   0  0  0  0  0  0  0  0  0  0  0  0
  190.5350  176.9180  138.7370 C   0  0  2  0  0  3  0  0  0  0  0  0
  191.4380  177.0850  142.4590 C   0  0  0  0  0  0  0  0  0  0  0  0
  191.5180  178.3100  143.1940 N   0  0  0  0  0  2  0  0  0  0  0  0
  191.2950  175.9930  143.0750 O   0  0  0  0  0  0  0  0  0  0  0  0
  191.5060  178.3250  144.5960 N   0  0  0  0  0  2  0  0  0  0  0  0
  190.1130  178.4300  145.0130 C   0  0  0  0  0  2  0  0  0  0  0  0
  189.6990  177.2420  145.8750 C   0  0  1  0  0  3  0  0  0  0  0  0
  190.8270  176.7650  146.7410 C   0  0  0  0  0  0  0  0  0  0  0  0
  191.0060  177.2720  147.8350 O   0  0  0  0  0  0  0  0  0  0  0  0
  191.6390  175.7570  146.3250 F   0  0  0  0  0  0  0  0  0  0  0  0
  188.4560  177.5670  146.6950 C   0  0  0  0  0  2  0  0  0  0  0  0
  183.9190  179.0340  144.4900 S   0  0  0  0  0  0  0  0  0  0  0  0
  186.1240  177.9550  144.0660 C   0  0  0  0  0  0  0  0  0  0  0  0
  185.5380  177.9210  142.8070 C   0  0  0  0  0  3  0  0  0  0  0  0
  187.2800  177.5510  144.5120 O   0  0  0  0  0  0  0  0  0  0  0  0
  187.2920  177.8460  145.8040 C   0  0  0  0  0  0  0  0  0  0  0  0
  184.2620  178.5000  142.8980 C   0  0  0  0  0  0  0  0  0  0  0  0
  186.1050  178.4700  146.2290 C   0  0  0  0  0  3  0  0  0  0  0  0
  185.4040  178.5050  145.0490 C   0  0  0  0  0  0  0  0  0  0  0  0
  183.3440  178.6830  141.7420 C   0  0  0  0  0  2  0  0  0  0  0  0
  184.1450  178.8230  140.4620 C   0  0  0  0  0  1  0  0  0  0  0  0
  189.4760  176.2360  138.0890 O   0  0  0  0  0  0  0  0  0  0  0  0
  188.4170  177.1370  137.8440 C   0  0  1  0  0  3  0  0  0  0  0  0
  188.8510  179.5830  137.5990 O   0  0  0  0  0  1  0  0  0  0  0  0
  189.4330  178.1380  135.9180 O   0  0  0  0  0  0  0  0  0  0  0  0
  188.9280  178.3060  137.0600 C   0  0  0  0  0  0  0  0  0  0  0  0
  187.2600  176.4490  137.1010 C   0  0  1  0  0  3  0  0  0  0  0  0
  187.5520  174.9790  136.8220 C   0  0  0  0  0  2  0  0  0  0  0  0
  188.2680  175.4830  134.6040 O   0  0  0  0  0  0  0  0  0  0  0  0
  186.8760  173.6320  134.7640 N   0  0  0  0  0  2  0  0  0  0  0  0
  187.6000  174.7180  135.3490 C   0  0  0  0  0  0  0  0  0  0  0  0
  186.0120  172.7400  135.5240 C   0  0  0  0  0  2  0  0  0  0  0  0
  186.5410  171.3210  135.4580 C   0  0  0  0  0  1  0  0  0  0  0  0
  185.9780  176.5280  137.9210 C   0  0  0  0  0  2  0  0  0  0  0  0
  184.2700  177.9230  137.0110 O   0  0  0  0  0  1  0  0  0  0  0  0
  184.8000  176.7810  137.0430 C   0  0  0  0  0  0  0  0  0  0  0  0
  184.2850  175.7580  136.2600 O   0  0  0  0  0  0  0  0  0  0  0  0
  1  6  1  0  0  0  0
  1  2  1  0  0  0  0
  2  3  2  0  0  0  0
  3  5  1  0  0  0  0
  4  5  2  0  0  0  0
  5  7  1  0  0  0  0
  6 27  1  6  0  0  0
  6  4  1  0  0  0  0
  7  9  2  0  0  0  0
  7  8  1  0  0  0  0
  8 10  1  0  0  0  0
 10 11  1  0  0  0  0
 12 11  1  1  0  0  0
 12 16  1  0  0  0  0
 12 13  1  0  0  0  0
 13 14  2  0  0  0  0
 15 13  1  0  0  0  0
 17 24  1  0  0  0  0
 18 20  1  0  0  0  0
 18 24  2  0  0  0  0
 19 22  2  0  0  0  0
 19 18  1  0  0  0  0
 20 21  1  0  0  0  0
 21 23  2  0  0  0  0
 21 16  1  0  0  0  0
 22 17  1  0  0  0  0
 24 23  1  0  0  0  0
 25 22  1  0  0  0  0
 26 25  1  0  0  0  0
 28 31  1  6  0  0  0
 28 27  1  0  0  0  0
 30 31  2  0  0  0  0
 31 29  1  0  0  0  0
 32 33  1  1  0  0  0
 32 28  1  0  0  0  0
 32 39  1  0  0  0  0
 34 36  2  0  0  0  0
 35 36  1  0  0  0  0
 35 37  1  0  0  0  0
 36 33  1  0  0  0  0
 38 37  1  0  0  0  0
 40 41  1  0  0  0  0
 41 39  1  0  0  0  0
 42 41  2  0  0  0  0
M  END
>  <MODEL>
9

>  <REMARK>
 VINA RESULT:      -6.4      3.788      9.637
  Name = 
  17 active torsions:
  status: ('A' for Active; 'I' for Inactive)
    1  A    between atoms: C_4  and  C_26
    2  A    between atoms: C_6  and  C_15
    3  A    between atoms: C_6  and  C_21
    4  A    between atoms: C_7  and  C_15
    5  A    between atoms: C_7  and  O_38
    6  A    between atoms: C_7  and  C_41
    7  A    between atoms: C_13  and  C_37
    8  A    between atoms: C_14  and  N_28
    9  A    between atoms: C_15  and  C_39
   10  A    between atoms: C_16  and  C_29
   11  A    between atoms: C_22  and  C_36
   12  A    between atoms: N_24  and  N_25
   13  A    between atoms: N_25  and  C_27
   14  A    between atoms: C_27  and  C_37
   15  A    between atoms: C_33  and  O_38
   16  A    between atoms: C_36  and  C_37
   17  A    between atoms: C_39  and  C_42
                            x       y       z     vdW  Elec       q    Type
                         _______ _______ _______ _____ _____    ______ ____

>  <TORSDO>
F 17

$$$$
