=
 OpenBabel11062417093D

 36 41  0  0  1  0  0  0  0  0999 V2000
  186.5450  179.0090  141.3410 S   0  0  0  0  0  0  0  0  0  0  0  0
  183.0020  177.9700  141.0880 C   0  0  0  0  0  3  0  0  0  0  0  0
  186.2610  177.7690  144.6020 C   0  0  0  0  0  0  0  0  0  0  0  0
  184.1490  177.9820  141.7490 C   0  0  0  0  0  0  0  0  0  0  0  0
  188.0410  177.1130  143.0190 C   0  0  0  0  0  2  0  0  0  0  0  0
  185.9510  177.1390  145.6140 O   0  0  0  0  0  0  0  0  0  0  0  0
  188.0480  178.0370  141.7970 C   0  0  1  0  0  3  0  0  0  0  0  0
  185.2760  178.1820  142.3360 C   0  0  0  0  0  0  0  0  0  0  0  0
  185.1610  178.4180  143.8220 C   0  0  0  0  0  2  0  0  0  0  0  0
  187.7110  177.9640  144.2330 C   0  0  2  0  0  3  0  0  0  0  0  0
  180.6050  179.2380  141.0900 S   0  0  0  0  0  0  0  0  0  0  0  0
  182.3130  179.2020  140.8240 N   0  0  0  0  0  0  0  0  0  0  0  0
  180.1690  180.5950  141.5730 O   0  0  0  0  0  0  0  0  0  0  0  0
  181.7090  178.2770  137.4950 C   0  0  0  0  0  1  0  0  0  0  0  0
  180.1280  178.1480  142.0200 O   0  0  0  0  0  0  0  0  0  0  0  0
  182.5100  179.7950  139.5050 C   0  0  0  0  0  2  0  0  0  0  0  0
  180.1590  180.1680  138.4310 C   0  0  2  0  0  3  0  0  0  0  0  0
  181.3810  179.2770  138.5950 C   0  0  1  0  0  0  0  0  0  0  0  0
  179.4960  177.7840  139.0820 O   0  0  0  0  0  1  0  0  0  0  0  0
  180.1150  179.0050  139.4190 C   0  0  1  0  0  0  0  0  0  0  0  0
  179.4470  179.8490  137.2700 O   0  0  0  0  0  1  0  0  0  0  0  0
  191.0650  176.8990  139.5450 C   0  0  0  0  0  2  0  0  0  0  0  0
  189.0660  178.8180  136.7400 Cl  0  0  0  0  0  0  0  0  0  0  0  0
  188.7130  177.4020  140.5750 C   0  0  1  0  0  3  0  0  0  0  0  0
  189.2410  177.9070  138.2270 C   0  0  0  0  0  0  0  0  0  0  0  0
  188.5200  178.2300  139.3160 C   0  0  0  0  0  3  0  0  0  0  0  0
  190.2300  176.7730  138.2710 C   0  0  0  0  0  2  0  0  0  0  0  0
  190.1920  176.9900  140.8330 C   0  0  0  0  0  2  0  0  0  0  0  0
  188.7560  177.8770  145.3820 C   0  0  0  0  0  2  0  0  0  0  0  0
  191.0700  177.1910  145.6480 C   0  0  2  0  0  0  0  0  0  0  0  0
  191.7580  177.9810  144.5570 C   0  0  0  0  0  2  0  0  0  0  0  0
  190.7560  176.9030  144.2060 C   0  0  2  0  0  3  0  0  0  0  0  0
  189.7190  176.7590  145.2520 N   0  0  0  0  0  0  0  0  0  0  0  0
  191.9230  176.0370  146.1670 C   0  0  0  0  0  2  0  0  0  0  0  0
  192.1090  177.1200  148.2980 O   0  0  0  0  0  0  0  0  0  0  0  0
  192.1070  176.0590  147.6720 C   0  0  0  0  0  3  0  0  0  0  0  0
  1  7  1  0  0  0  0
  1  8  1  0  0  0  0
  2  4  2  0  0  0  0
  3  6  2  0  0  0  0
  4  8  2  0  0  0  0
  5 10  1  0  0  0  0
  7  5  1  1  0  0  0
  8  9  1  0  0  0  0
  9  3  1  0  0  0  0
 10  3  1  0  0  0  0
 10 29  1  1  0  0  0
 11 13  2  0  0  0  0
 11 15  2  0  0  0  0
 12  2  1  0  0  0  0
 12 11  1  0  0  0  0
 16 12  1  0  0  0  0
 17 21  1  6  0  0  0
 17 18  1  0  0  0  0
 17 20  1  0  0  0  0
 18 14  1  6  0  0  0
 18 20  1  0  0  0  0
 18 16  1  0  0  0  0
 20 19  1  6  0  0  0
 20 11  1  0  0  0  0
 22 28  1  0  0  0  0
 23 25  1  0  0  0  0
 24 26  1  6  0  0  0
 24 28  1  0  0  0  0
 24  7  1  0  0  0  0
 25 27  1  0  0  0  0
 25 26  2  0  0  0  0
 27 22  1  0  0  0  0
 30 34  1  1  0  0  0
 31 30  1  0  0  0  0
 32 31  1  6  0  0  0
 32 33  1  0  0  0  0
 32 30  1  0  0  0  0
 33 29  1  0  0  0  0
 33 30  1  0  0  0  0
 34 36  1  0  0  0  0
 36 35  2  0  0  0  0
M  END
>  <MODEL>
1

>  <REMARK>
 VINA RESULT:      -8.9      0.000      0.000
  Name = 
  6 active torsions:
  status: ('A' for Active; 'I' for Inactive)
    1  A    between atoms: N_6  and  C_9
    2  A    between atoms: C_7  and  C_23
    3  A    between atoms: C_8  and  C_12
    4  A    between atoms: C_12  and  C_25
    5  A    between atoms: C_21  and  C_34
    6  A    between atoms: C_21  and  N_36
                            x       y       z     vdW  Elec       q    Type
                         _______ _______ _______ _____ _____    ______ ____

>  <TORSDO>
F 6

$$$$
=
 OpenBabel11062417093D

 36 41  0  0  1  0  0  0  0  0999 V2000
  185.7020  179.3600  142.0090 S   0  0  0  0  0  0  0  0  0  0  0  0
  182.3890  178.4910  140.6110 C   0  0  0  0  0  3  0  0  0  0  0  0
  184.1880  178.5430  145.0560 C   0  0  0  0  0  0  0  0  0  0  0  0
  183.2290  178.5210  141.6320 C   0  0  0  0  0  0  0  0  0  0  0  0
  186.3380  177.6050  144.2810 C   0  0  0  0  0  2  0  0  0  0  0  0
  183.4880  178.0580  145.9470 O   0  0  0  0  0  0  0  0  0  0  0  0
  186.8550  178.3720  143.0600 C   0  0  1  0  0  3  0  0  0  0  0  0
  184.0950  178.7300  142.5600 C   0  0  0  0  0  0  0  0  0  0  0  0
  183.4930  179.1510  143.8790 C   0  0  0  0  0  2  0  0  0  0  0  0
  185.6860  178.6130  145.2110 C   0  0  2  0  0  3  0  0  0  0  0  0
  180.2490  179.9730  139.8470 S   0  0  0  0  0  0  0  0  0  0  0  0
  181.9520  179.7170  140.0020 N   0  0  0  0  0  0  0  0  0  0  0  0
  179.9140  181.4310  139.9960 O   0  0  0  0  0  0  0  0  0  0  0  0
  181.9600  178.2650  136.8100 C   0  0  0  0  0  1  0  0  0  0  0  0
  179.4340  179.1240  140.7940 O   0  0  0  0  0  0  0  0  0  0  0  0
  182.5110  180.0360  138.6920 C   0  0  0  0  0  2  0  0  0  0  0  0
  180.5250  180.4410  137.0470 C   0  0  2  0  0  3  0  0  0  0  0  0
  181.5450  179.4760  137.6320 C   0  0  1  0  0  0  0  0  0  0  0  0
  179.4090  178.2950  137.8830 O   0  0  0  0  0  1  0  0  0  0  0  0
  180.1050  179.4880  138.1640 C   0  0  1  0  0  0  0  0  0  0  0  0
  180.0430  179.9890  135.8140 O   0  0  0  0  0  1  0  0  0  0  0  0
  190.3800  176.9440  142.0550 C   0  0  0  0  0  2  0  0  0  0  0  0
  189.3890  178.3300  138.4990 Cl  0  0  0  0  0  0  0  0  0  0  0  0
  187.8410  177.5590  142.2210 C   0  0  1  0  0  3  0  0  0  0  0  0
  189.0750  177.6800  140.0970 C   0  0  0  0  0  0  0  0  0  0  0  0
  188.0670  178.1630  140.8450 C   0  0  0  0  0  3  0  0  0  0  0  0
  189.9690  176.5910  140.6260 C   0  0  0  0  0  2  0  0  0  0  0  0
  189.1580  177.2270  142.9820 C   0  0  0  0  0  2  0  0  0  0  0  0
  186.2530  178.6110  146.6600 C   0  0  0  0  0  2  0  0  0  0  0  0
  188.3800  177.4880  146.9960 C   0  0  2  0  0  0  0  0  0  0  0  0
  188.2910  177.0770  148.4490 C   0  0  0  0  0  2  0  0  0  0  0  0
  188.3370  178.5410  148.0690 C   0  0  2  0  0  3  0  0  0  0  0  0
  187.7230  178.7810  146.7440 N   0  0  0  0  0  0  0  0  0  0  0  0
  189.8070  177.4450  146.4580 C   0  0  0  0  0  2  0  0  0  0  0  0
  191.9460  176.6110  147.1500 O   0  0  0  0  0  0  0  0  0  0  0  0
  190.7220  176.5410  147.2620 C   0  0  0  0  0  3  0  0  0  0  0  0
  1  8  1  0  0  0  0
  1  7  1  0  0  0  0
  2  4  2  0  0  0  0
  3 10  1  0  0  0  0
  3  6  2  0  0  0  0
  4  8  2  0  0  0  0
  5 10  1  0  0  0  0
  7  5  1  6  0  0  0
  8  9  1  0  0  0  0
  9  3  1  0  0  0  0
 10 29  1  1  0  0  0
 11 13  2  0  0  0  0
 11 12  1  0  0  0  0
 11 15  2  0  0  0  0
 12  2  1  0  0  0  0
 16 12  1  0  0  0  0
 17 21  1  6  0  0  0
 17 18  1  0  0  0  0
 17 20  1  0  0  0  0
 18 14  1  6  0  0  0
 18 20  1  0  0  0  0
 18 16  1  0  0  0  0
 20 19  1  6  0  0  0
 20 11  1  0  0  0  0
 22 28  1  0  0  0  0
 23 25  1  0  0  0  0
 24 26  1  6  0  0  0
 24 28  1  0  0  0  0
 24  7  1  0  0  0  0
 25 27  1  0  0  0  0
 25 26  2  0  0  0  0
 27 22  1  0  0  0  0
 29 33  1  0  0  0  0
 30 34  1  6  0  0  0
 30 32  1  0  0  0  0
 30 31  1  0  0  0  0
 32 31  1  1  0  0  0
 33 30  1  0  0  0  0
 33 32  1  0  0  0  0
 34 36  1  0  0  0  0
 35 36  2  0  0  0  0
M  END
>  <MODEL>
2

>  <REMARK>
 VINA RESULT:      -8.0      1.581      2.203
  Name = 
  6 active torsions:
  status: ('A' for Active; 'I' for Inactive)
    1  A    between atoms: N_6  and  C_9
    2  A    between atoms: C_7  and  C_23
    3  A    between atoms: C_8  and  C_12
    4  A    between atoms: C_12  and  C_25
    5  A    between atoms: C_21  and  C_34
    6  A    between atoms: C_21  and  N_36
                            x       y       z     vdW  Elec       q    Type
                         _______ _______ _______ _____ _____    ______ ____

>  <TORSDO>
F 6

$$$$
=
 OpenBabel11062417093D

 36 41  0  0  1  0  0  0  0  0999 V2000
  186.5710  177.2280  142.1980 S   0  0  0  0  0  0  0  0  0  0  0  0
  184.0360  179.4910  140.7360 C   0  0  0  0  0  3  0  0  0  0  0  0
  188.5370  178.3540  139.5310 C   0  0  0  0  0  0  0  0  0  0  0  0
  185.2780  179.0370  140.7790 C   0  0  0  0  0  0  0  0  0  0  0  0
  189.2590  178.3810  141.8940 C   0  0  0  0  0  2  0  0  0  0  0  0
  189.0560  179.0120  138.6280 O   0  0  0  0  0  0  0  0  0  0  0  0
  188.2970  177.5670  142.7640 C   0  0  1  0  0  3  0  0  0  0  0  0
  186.4040  178.4190  140.8430 C   0  0  0  0  0  0  0  0  0  0  0  0
  187.0510  178.1800  139.5000 C   0  0  0  0  0  2  0  0  0  0  0  0
  189.3910  177.6610  140.5630 C   0  0  2  0  0  3  0  0  0  0  0  0
  181.5470  179.3010  139.6750 S   0  0  0  0  0  0  0  0  0  0  0  0
  182.9590  178.6060  140.3910 N   0  0  0  0  0  0  0  0  0  0  0  0
  180.9320  178.3540  138.6810 O   0  0  0  0  0  0  0  0  0  0  0  0
  181.4770  179.0020  143.5450 C   0  0  0  0  0  1  0  0  0  0  0  0
  181.8030  180.6540  139.0550 O   0  0  0  0  0  0  0  0  0  0  0  0
  182.4630  177.7300  141.4490 C   0  0  0  0  0  2  0  0  0  0  0  0
  179.8890  178.1070  141.6650 C   0  0  2  0  0  3  0  0  0  0  0  0
  181.2930  178.4570  142.1350 C   0  0  1  0  0  0  0  0  0  0  0  0
  180.2710  180.6380  141.6650 O   0  0  0  0  0  1  0  0  0  0  0  0
  180.5690  179.3670  141.1330 C   0  0  1  0  0  0  0  0  0  0  0  0
  178.9310  178.4410  142.6280 O   0  0  0  0  0  1  0  0  0  0  0  0
  189.0560  177.0580  146.5900 C   0  0  0  0  0  2  0  0  0  0  0  0
  185.3190  178.2530  146.9940 Cl  0  0  0  0  0  0  0  0  0  0  0  0
  188.3480  177.9660  144.2400 C   0  0  1  0  0  3  0  0  0  0  0  0
  186.8820  178.1570  146.2050 C   0  0  0  0  0  0  0  0  0  0  0  0
  186.9660  178.0420  144.8670 C   0  0  0  0  0  3  0  0  0  0  0  0
  188.1260  178.1790  147.0530 C   0  0  0  0  0  2  0  0  0  0  0  0
  189.3630  177.1200  145.0630 C   0  0  0  0  0  2  0  0  0  0  0  0
  190.8540  177.3160  140.1620 C   0  0  0  0  0  2  0  0  0  0  0  0
  191.7720  176.1530  138.2380 C   0  0  2  0  0  0  0  0  0  0  0  0
  190.9140  176.6860  137.1120 C   0  0  0  0  0  2  0  0  0  0  0  0
  190.3030  175.8350  138.2040 C   0  0  2  0  0  3  0  0  0  0  0  0
  191.0130  176.0050  139.4910 N   0  0  0  0  0  0  0  0  0  0  0  0
  192.5220  174.8800  137.8560 C   0  0  0  0  0  2  0  0  0  0  0  0
  194.6300  175.6280  138.7200 O   0  0  0  0  0  0  0  0  0  0  0  0
  194.0260  175.0650  137.8060 C   0  0  0  0  0  3  0  0  0  0  0  0
  1  7  1  0  0  0  0
  2  4  2  0  0  0  0
  3 10  1  0  0  0  0
  4  8  2  0  0  0  0
  6  3  2  0  0  0  0
  7  5  1  6  0  0  0
  7 24  1  0  0  0  0
  8  1  1  0  0  0  0
  9  3  1  0  0  0  0
  9  8  1  0  0  0  0
 10 29  1  6  0  0  0
 10  5  1  0  0  0  0
 11 12  1  0  0  0  0
 11 20  1  0  0  0  0
 12  2  1  0  0  0  0
 12 16  1  0  0  0  0
 13 11  2  0  0  0  0
 15 11  2  0  0  0  0
 16 18  1  0  0  0  0
 17 18  1  0  0  0  0
 17 21  1  1  0  0  0
 18 14  1  1  0  0  0
 20 19  1  1  0  0  0
 20 17  1  0  0  0  0
 20 18  1  0  0  0  0
 22 27  1  0  0  0  0
 24 26  1  1  0  0  0
 24 28  1  0  0  0  0
 25 23  1  0  0  0  0
 25 27  1  0  0  0  0
 26 25  2  0  0  0  0
 28 22  1  0  0  0  0
 30 34  1  6  0  0  0
 30 33  1  0  0  0  0
 31 30  1  0  0  0  0
 32 31  1  6  0  0  0
 32 30  1  0  0  0  0
 32 33  1  0  0  0  0
 33 29  1  0  0  0  0
 36 34  1  0  0  0  0
 36 35  2  0  0  0  0
M  END
>  <MODEL>
3

>  <REMARK>
 VINA RESULT:      -7.5      3.437      5.760
  Name = 
  6 active torsions:
  status: ('A' for Active; 'I' for Inactive)
    1  A    between atoms: N_6  and  C_9
    2  A    between atoms: C_7  and  C_23
    3  A    between atoms: C_8  and  C_12
    4  A    between atoms: C_12  and  C_25
    5  A    between atoms: C_21  and  C_34
    6  A    between atoms: C_21  and  N_36
                            x       y       z     vdW  Elec       q    Type
                         _______ _______ _______ _____ _____    ______ ____

>  <TORSDO>
F 6

$$$$
=
 OpenBabel11062417093D

 36 41  0  0  1  0  0  0  0  0999 V2000
  188.0890  178.7360  141.7200 S   0  0  0  0  0  0  0  0  0  0  0  0
  189.6780  176.3570  144.0670 C   0  0  0  0  0  3  0  0  0  0  0  0
  190.3010  177.3170  139.4090 C   0  0  0  0  0  0  0  0  0  0  0  0
  189.4950  176.8010  142.8340 C   0  0  0  0  0  0  0  0  0  0  0  0
  187.8670  177.5300  139.0470 C   0  0  0  0  0  2  0  0  0  0  0  0
  191.0430  176.5630  138.7790 O   0  0  0  0  0  0  0  0  0  0  0  0
  187.2380  178.4410  140.1070 C   0  0  1  0  0  3  0  0  0  0  0  0
  189.3260  177.4120  141.7140 C   0  0  0  0  0  0  0  0  0  0  0  0
  190.5730  177.5010  140.8690 C   0  0  0  0  0  2  0  0  0  0  0  0
  189.2280  178.1060  138.7000 C   0  0  2  0  0  3  0  0  0  0  0  0
  190.8360  176.4770  146.5170 S   0  0  0  0  0  0  0  0  0  0  0  0
  190.2690  177.2130  145.0580 N   0  0  0  0  0  0  0  0  0  0  0  0
  192.0560  177.1900  147.0340 O   0  0  0  0  0  0  0  0  0  0  0  0
  187.1690  177.7480  146.6070 C   0  0  0  0  0  1  0  0  0  0  0  0
  191.0880  174.9950  146.3730 O   0  0  0  0  0  0  0  0  0  0  0  0
  189.4820  178.3640  145.4870 C   0  0  0  0  0  2  0  0  0  0  0  0
  189.2650  178.2670  148.0870 C   0  0  2  0  0  3  0  0  0  0  0  0
  188.6750  177.9330  146.7250 C   0  0  1  0  0  0  0  0  0  0  0  0
  188.6180  175.7950  147.9290 O   0  0  0  0  0  1  0  0  0  0  0  0
  189.4420  176.8620  147.5140 C   0  0  1  0  0  0  0  0  0  0  0  0
  188.2830  178.2670  149.0830 O   0  0  0  0  0  1  0  0  0  0  0  0
  183.4060  179.1810  139.6250 C   0  0  0  0  0  2  0  0  0  0  0  0
  183.3410  178.8460  143.5530 Cl  0  0  0  0  0  0  0  0  0  0  0  0
  185.7390  178.1990  140.2860 C   0  0  1  0  0  3  0  0  0  0  0  0
  183.9490  178.5280  141.9390 C   0  0  0  0  0  0  0  0  0  0  0  0
  185.2720  178.4800  141.7050 C   0  0  0  0  0  3  0  0  0  0  0  0
  182.9630  178.3350  140.8180 C   0  0  0  0  0  2  0  0  0  0  0  0
  184.8760  178.8940  139.1940 C   0  0  0  0  0  2  0  0  0  0  0  0
  189.4380  178.3920  137.1860 C   0  0  0  0  0  2  0  0  0  0  0  0
  189.2000  176.3640  135.8720 C   0  0  2  0  0  0  0  0  0  0  0  0
  190.2140  176.5840  134.7710 C   0  0  0  0  0  2  0  0  0  0  0  0
  188.9990  177.4780  134.8830 C   0  0  2  0  0  3  0  0  0  0  0  0
  188.5510  177.6180  136.2860 N   0  0  0  0  0  0  0  0  0  0  0  0
  188.1930  175.2690  135.5350 C   0  0  0  0  0  2  0  0  0  0  0  0
  186.5670  174.7510  137.2190 O   0  0  0  0  0  0  0  0  0  0  0  0
  187.6860  174.5270  136.7560 C   0  0  0  0  0  3  0  0  0  0  0  0
  2 12  1  0  0  0  0
  3  9  1  0  0  0  0
  4  2  2  0  0  0  0
  6  3  2  0  0  0  0
  7  5  1  1  0  0  0
  7 24  1  0  0  0  0
  7  1  1  0  0  0  0
  8  1  1  0  0  0  0
  8  4  2  0  0  0  0
  9  8  1  0  0  0  0
 10 29  1  6  0  0  0
 10  5  1  0  0  0  0
 10  3  1  0  0  0  0
 11 13  2  0  0  0  0
 11 20  1  0  0  0  0
 12 16  1  0  0  0  0
 12 11  1  0  0  0  0
 15 11  2  0  0  0  0
 16 18  1  0  0  0  0
 17 21  1  1  0  0  0
 18 14  1  6  0  0  0
 18 20  1  0  0  0  0
 18 17  1  0  0  0  0
 20 19  1  1  0  0  0
 20 17  1  0  0  0  0
 22 27  1  0  0  0  0
 24 28  1  6  0  0  0
 24 26  1  0  0  0  0
 25 23  1  0  0  0  0
 26 25  2  0  0  0  0
 27 25  1  0  0  0  0
 28 22  1  0  0  0  0
 30 34  1  6  0  0  0
 30 33  1  0  0  0  0
 31 30  1  0  0  0  0
 32 31  1  1  0  0  0
 32 30  1  0  0  0  0
 32 33  1  0  0  0  0
 33 29  1  0  0  0  0
 34 36  1  0  0  0  0
 36 35  2  0  0  0  0
M  END
>  <MODEL>
4

>  <REMARK>
 VINA RESULT:      -7.5      4.145      9.268
  Name = 
  6 active torsions:
  status: ('A' for Active; 'I' for Inactive)
    1  A    between atoms: N_6  and  C_9
    2  A    between atoms: C_7  and  C_23
    3  A    between atoms: C_8  and  C_12
    4  A    between atoms: C_12  and  C_25
    5  A    between atoms: C_21  and  C_34
    6  A    between atoms: C_21  and  N_36
                            x       y       z     vdW  Elec       q    Type
                         _______ _______ _______ _____ _____    ______ ____

>  <TORSDO>
F 6

$$$$
=
 OpenBabel11062417093D

 36 41  0  0  1  0  0  0  0  0999 V2000
  186.0230  178.6140  139.5920 S   0  0  0  0  0  0  0  0  0  0  0  0
  187.0550  175.8610  137.3440 C   0  0  0  0  0  3  0  0  0  0  0  0
  182.9930  178.3590  137.8580 C   0  0  0  0  0  0  0  0  0  0  0  0
  186.1110  176.6490  137.8330 C   0  0  0  0  0  0  0  0  0  0  0  0
  183.1890  178.3200  140.3210 C   0  0  0  0  0  2  0  0  0  0  0  0
  182.0130  177.9660  137.2230 O   0  0  0  0  0  0  0  0  0  0  0  0
  184.5970  178.7350  140.7590 C   0  0  1  0  0  3  0  0  0  0  0  0
  185.3260  177.5580  138.2940 C   0  0  0  0  0  0  0  0  0  0  0  0
  184.3480  178.0980  137.2790 C   0  0  0  0  0  2  0  0  0  0  0  0
  182.8160  179.1690  139.1180 C   0  0  2  0  0  3  0  0  0  0  0  0
  189.2820  175.3330  135.8890 S   0  0  0  0  0  0  0  0  0  0  0  0
  188.1530  176.4260  136.6100 N   0  0  0  0  0  0  0  0  0  0  0  0
  189.8090  175.8880  134.5940 O   0  0  0  0  0  0  0  0  0  0  0  0
  190.1700  176.5170  139.4770 C   0  0  0  0  0  1  0  0  0  0  0  0
  188.7220  173.9430  135.7000 O   0  0  0  0  0  0  0  0  0  0  0  0
  188.9670  177.4190  137.3040 C   0  0  0  0  0  2  0  0  0  0  0  0
  191.4550  176.6350  137.1990 C   0  0  2  0  0  3  0  0  0  0  0  0
  190.1400  176.6710  137.9630 C   0  0  1  0  0  0  0  0  0  0  0  0
  190.7360  174.2910  137.9330 O   0  0  0  0  0  1  0  0  0  0  0  0
  190.5150  175.4330  137.1370 C   0  0  1  0  0  0  0  0  0  0  0  0
  192.5320  176.3660  138.0500 O   0  0  0  0  0  1  0  0  0  0  0  0
  185.0320  178.9950  144.6600 C   0  0  0  0  0  2  0  0  0  0  0  0
  188.6370  177.6100  143.8640 Cl  0  0  0  0  0  0  0  0  0  0  0  0
  184.9560  178.2320  142.1580 C   0  0  1  0  0  3  0  0  0  0  0  0
  186.9200  177.8330  143.5830 C   0  0  0  0  0  0  0  0  0  0  0  0
  186.4540  178.0490  142.3400 C   0  0  0  0  0  3  0  0  0  0  0  0
  185.9820  177.8030  144.7600 C   0  0  0  0  0  2  0  0  0  0  0  0
  184.2850  179.0590  143.2930 C   0  0  0  0  0  2  0  0  0  0  0  0
  181.4850  179.9580  139.2760 C   0  0  0  0  0  2  0  0  0  0  0  0
  180.7600  182.0190  138.2160 C   0  0  2  0  0  0  0  0  0  0  0  0
  179.4600  182.3010  138.9380 C   0  0  0  0  0  2  0  0  0  0  0  0
  179.5950  181.0810  138.0520 C   0  0  2  0  0  3  0  0  0  0  0  0
  180.9860  180.5770  138.0260 N   0  0  0  0  0  0  0  0  0  0  0  0
  180.8950  182.8070  136.9170 C   0  0  0  0  0  2  0  0  0  0  0  0
  182.3840  184.5270  137.6750 O   0  0  0  0  0  0  0  0  0  0  0  0
  181.3140  184.2480  137.1330 C   0  0  0  0  0  3  0  0  0  0  0  0
  1  7  1  0  0  0  0
  2  4  2  0  0  0  0
  3 10  1  0  0  0  0
  4  8  2  0  0  0  0
  6  3  2  0  0  0  0
  7  5  1  6  0  0  0
  7 24  1  0  0  0  0
  8  1  1  0  0  0  0
  9  3  1  0  0  0  0
  9  8  1  0  0  0  0
 10 29  1  1  0  0  0
 10  5  1  0  0  0  0
 11 12  1  0  0  0  0
 11 20  1  0  0  0  0
 12 16  1  0  0  0  0
 12  2  1  0  0  0  0
 13 11  2  0  0  0  0
 15 11  2  0  0  0  0
 16 18  1  0  0  0  0
 17 18  1  0  0  0  0
 17 21  1  1  0  0  0
 18 14  1  1  0  0  0
 20 17  1  0  0  0  0
 20 19  1  1  0  0  0
 20 18  1  0  0  0  0
 22 27  1  0  0  0  0
 24 26  1  1  0  0  0
 24 28  1  0  0  0  0
 25 23  1  0  0  0  0
 25 27  1  0  0  0  0
 26 25  2  0  0  0  0
 28 22  1  0  0  0  0
 30 34  1  6  0  0  0
 30 31  1  0  0  0  0
 32 30  1  0  0  0  0
 32 31  1  1  0  0  0
 33 32  1  0  0  0  0
 33 30  1  0  0  0  0
 33 29  1  0  0  0  0
 34 36  1  0  0  0  0
 36 35  2  0  0  0  0
M  END
>  <MODEL>
5

>  <REMARK>
 VINA RESULT:      -7.2      4.560      9.921
  Name = 
  6 active torsions:
  status: ('A' for Active; 'I' for Inactive)
    1  A    between atoms: N_6  and  C_9
    2  A    between atoms: C_7  and  C_23
    3  A    between atoms: C_8  and  C_12
    4  A    between atoms: C_12  and  C_25
    5  A    between atoms: C_21  and  C_34
    6  A    between atoms: C_21  and  N_36
                            x       y       z     vdW  Elec       q    Type
                         _______ _______ _______ _____ _____    ______ ____

>  <TORSDO>
F 6

$$$$
=
 OpenBabel11062417093D

 36 41  0  0  1  0  0  0  0  0999 V2000
  185.0290  177.5810  140.9980 S   0  0  0  0  0  0  0  0  0  0  0  0
  183.4910  179.6620  138.3540 C   0  0  0  0  0  3  0  0  0  0  0  0
  188.0130  178.4440  139.3860 C   0  0  0  0  0  0  0  0  0  0  0  0
  184.5670  179.2250  138.9870 C   0  0  0  0  0  0  0  0  0  0  0  0
  187.6170  178.7190  141.8090 C   0  0  0  0  0  2  0  0  0  0  0  0
  188.9030  179.0100  138.7490 O   0  0  0  0  0  0  0  0  0  0  0  0
  186.3380  177.9900  142.2350 C   0  0  1  0  0  3  0  0  0  0  0  0
  185.5250  178.6250  139.6020 C   0  0  0  0  0  0  0  0  0  0  0  0
  186.6890  178.2560  138.7150 C   0  0  0  0  0  2  0  0  0  0  0  0
  188.2960  177.8670  140.7510 C   0  0  2  0  0  3  0  0  0  0  0  0
  181.0610  179.2760  137.2120 S   0  0  0  0  0  0  0  0  0  0  0  0
  182.6440  178.7380  137.6530 N   0  0  0  0  0  0  0  0  0  0  0  0
  180.6340  178.6630  135.9060 O   0  0  0  0  0  0  0  0  0  0  0  0
  181.3180  177.5040  140.6560 C   0  0  0  0  0  1  0  0  0  0  0  0
  180.9360  180.7810  137.1760 O   0  0  0  0  0  0  0  0  0  0  0  0
  182.4480  177.4290  138.2690 C   0  0  0  0  0  2  0  0  0  0  0  0
  179.8800  177.0340  138.5200 C   0  0  2  0  0  3  0  0  0  0  0  0
  181.1820  177.5160  139.1400 C   0  0  1  0  0  0  0  0  0  0  0  0
  179.6280  179.3770  139.5170 O   0  0  0  0  0  1  0  0  0  0  0  0
  180.1940  178.5280  138.5440 C   0  0  1  0  0  0  0  0  0  0  0  0
  178.9330  176.7190  139.5000 O   0  0  0  0  0  1  0  0  0  0  0  0
  185.3530  177.9000  146.0420 C   0  0  0  0  0  2  0  0  0  0  0  0
  181.8250  178.9890  144.6560 Cl  0  0  0  0  0  0  0  0  0  0  0  0
  185.7470  178.5380  143.5350 C   0  0  1  0  0  3  0  0  0  0  0  0
  183.5750  178.8720  144.6370 C   0  0  0  0  0  0  0  0  0  0  0  0
  184.2310  178.6250  143.4890 C   0  0  0  0  0  3  0  0  0  0  0  0
  184.3260  179.0270  145.9330 C   0  0  0  0  0  2  0  0  0  0  0  0
  186.2950  177.8190  144.8020 C   0  0  0  0  0  2  0  0  0  0  0  0
  189.7710  177.4940  141.0750 C   0  0  0  0  0  2  0  0  0  0  0  0
  190.2240  177.4400  143.4600 C   0  0  2  0  0  0  0  0  0  0  0  0
  191.6700  177.8840  143.5130 C   0  0  0  0  0  2  0  0  0  0  0  0
  191.2940  176.5750  142.8540 C   0  0  2  0  0  3  0  0  0  0  0  0
  189.9380  176.6290  142.2650 N   0  0  0  0  0  0  0  0  0  0  0  0
  189.7680  176.7640  144.7480 C   0  0  0  0  0  2  0  0  0  0  0  0
  189.0830  177.4700  146.9350 O   0  0  0  0  0  0  0  0  0  0  0  0
  189.7890  177.6890  145.9490 C   0  0  0  0  0  3  0  0  0  0  0  0
  1  7  1  0  0  0  0
  2  4  2  0  0  0  0
  3 10  1  0  0  0  0
  4  8  2  0  0  0  0
  6  3  2  0  0  0  0
  7  5  1  6  0  0  0
  7 24  1  0  0  0  0
  8  1  1  0  0  0  0
  9  3  1  0  0  0  0
  9  8  1  0  0  0  0
 10 29  1  1  0  0  0
 10  5  1  0  0  0  0
 11 12  1  0  0  0  0
 11 20  1  0  0  0  0
 12 16  1  0  0  0  0
 12  2  1  0  0  0  0
 13 11  2  0  0  0  0
 15 11  2  0  0  0  0
 16 18  1  0  0  0  0
 17 20  1  0  0  0  0
 17 18  1  0  0  0  0
 17 21  1  1  0  0  0
 18 14  1  1  0  0  0
 20 18  1  0  0  0  0
 20 19  1  1  0  0  0
 24 26  1  6  0  0  0
 24 28  1  0  0  0  0
 25 23  1  0  0  0  0
 25 27  1  0  0  0  0
 26 25  2  0  0  0  0
 27 22  1  0  0  0  0
 28 22  1  0  0  0  0
 29 33  1  0  0  0  0
 30 31  1  0  0  0  0
 30 34  1  1  0  0  0
 32 30  1  0  0  0  0
 32 31  1  6  0  0  0
 33 32  1  0  0  0  0
 33 30  1  0  0  0  0
 34 36  1  0  0  0  0
 36 35  2  0  0  0  0
M  END
>  <MODEL>
6

>  <REMARK>
 VINA RESULT:      -7.2      2.850      4.803
  Name = 
  6 active torsions:
  status: ('A' for Active; 'I' for Inactive)
    1  A    between atoms: N_6  and  C_9
    2  A    between atoms: C_7  and  C_23
    3  A    between atoms: C_8  and  C_12
    4  A    between atoms: C_12  and  C_25
    5  A    between atoms: C_21  and  C_34
    6  A    between atoms: C_21  and  N_36
                            x       y       z     vdW  Elec       q    Type
                         _______ _______ _______ _____ _____    ______ ____

>  <TORSDO>
F 6

$$$$
=
 OpenBabel11062417093D

 36 41  0  0  1  0  0  0  0  0999 V2000
  190.4570  177.3880  138.5800 S   0  0  0  0  0  0  0  0  0  0  0  0
  191.4100  174.0810  137.2220 C   0  0  0  0  0  3  0  0  0  0  0  0
  187.3780  176.6750  137.0780 C   0  0  0  0  0  0  0  0  0  0  0  0
  190.4840  174.9910  137.4790 C   0  0  0  0  0  0  0  0  0  0  0  0
  187.6430  177.3620  139.4360 C   0  0  0  0  0  2  0  0  0  0  0  0
  186.3780  176.1260  136.6130 O   0  0  0  0  0  0  0  0  0  0  0  0
  189.0660  177.8700  139.6960 C   0  0  1  0  0  3  0  0  0  0  0  0
  189.7180  176.0060  137.6710 C   0  0  0  0  0  0  0  0  0  0  0  0
  188.7140  176.2350  136.5680 C   0  0  0  0  0  2  0  0  0  0  0  0
  187.2420  177.8240  138.0460 C   0  0  2  0  0  3  0  0  0  0  0  0
  193.6460  173.1430  136.0070 S   0  0  0  0  0  0  0  0  0  0  0  0
  192.4890  174.3880  136.3250 N   0  0  0  0  0  0  0  0  0  0  0  0
  194.1540  173.2360  134.5940 O   0  0  0  0  0  0  0  0  0  0  0  0
  194.5110  175.5050  138.9640 C   0  0  0  0  0  1  0  0  0  0  0  0
  193.1250  171.7590  136.3110 O   0  0  0  0  0  0  0  0  0  0  0  0
  193.2770  175.5790  136.6280 C   0  0  0  0  0  2  0  0  0  0  0  0
  195.7850  174.8690  136.7680 C   0  0  2  0  0  3  0  0  0  0  0  0
  194.4720  175.1310  137.4890 C   0  0  1  0  0  0  0  0  0  0  0  0
  195.1340  172.9000  138.2670 O   0  0  0  0  0  1  0  0  0  0  0  0
  194.8790  173.6950  137.1300 C   0  0  1  0  0  0  0  0  0  0  0  0
  196.8720  174.9350  137.6460 O   0  0  0  0  0  1  0  0  0  0  0  0
  190.5910  176.2110  142.9200 C   0  0  0  0  0  2  0  0  0  0  0  0
  187.1270  177.2400  144.4990 Cl  0  0  0  0  0  0  0  0  0  0  0  0
  189.4630  177.7970  141.1710 C   0  0  1  0  0  3  0  0  0  0  0  0
  188.4720  177.3840  143.3830 C   0  0  0  0  0  0  0  0  0  0  0  0
  188.2570  177.6840  142.0890 C   0  0  0  0  0  3  0  0  0  0  0  0
  189.8670  177.1410  143.8940 C   0  0  0  0  0  2  0  0  0  0  0  0
  190.5660  176.7370  141.4530 C   0  0  0  0  0  2  0  0  0  0  0  0
  185.9200  178.6430  137.9980 C   0  0  0  0  0  2  0  0  0  0  0  0
  183.6880  178.1560  138.8200 C   0  0  2  0  0  0  0  0  0  0  0  0
  182.9090  179.3610  138.3420 C   0  0  0  0  0  2  0  0  0  0  0  0
  184.0040  179.5170  139.3750 C   0  0  2  0  0  3  0  0  0  0  0  0
  185.0670  178.5020  139.2010 N   0  0  0  0  0  0  0  0  0  0  0  0
  182.9590  177.3780  139.9120 C   0  0  0  0  0  2  0  0  0  0  0  0
  183.0570  175.4210  138.5290 O   0  0  0  0  0  0  0  0  0  0  0  0
  182.5040  176.0030  139.4630 C   0  0  0  0  0  3  0  0  0  0  0  0
  1  7  1  0  0  0  0
  2  4  2  0  0  0  0
  3 10  1  0  0  0  0
  4  8  2  0  0  0  0
  6  3  2  0  0  0  0
  7  5  1  1  0  0  0
  7 24  1  0  0  0  0
  8  1  1  0  0  0  0
  9  3  1  0  0  0  0
  9  8  1  0  0  0  0
 10 29  1  1  0  0  0
 10  5  1  0  0  0  0
 11 15  2  0  0  0  0
 11 12  1  0  0  0  0
 11 20  1  0  0  0  0
 12 16  1  0  0  0  0
 12  2  1  0  0  0  0
 13 11  2  0  0  0  0
 16 18  1  0  0  0  0
 17 20  1  0  0  0  0
 17 18  1  0  0  0  0
 17 21  1  1  0  0  0
 18 14  1  1  0  0  0
 20 18  1  0  0  0  0
 20 19  1  1  0  0  0
 22 27  1  0  0  0  0
 24 28  1  6  0  0  0
 24 26  1  0  0  0  0
 25 27  1  0  0  0  0
 25 23  1  0  0  0  0
 26 25  2  0  0  0  0
 28 22  1  0  0  0  0
 29 33  1  0  0  0  0
 30 33  1  0  0  0  0
 30 32  1  0  0  0  0
 30 34  1  1  0  0  0
 31 30  1  0  0  0  0
 32 31  1  6  0  0  0
 33 32  1  0  0  0  0
 35 36  2  0  0  0  0
 36 34  1  0  0  0  0
M  END
>  <MODEL>
7

>  <REMARK>
 VINA RESULT:      -7.0      5.768     10.656
  Name = 
  6 active torsions:
  status: ('A' for Active; 'I' for Inactive)
    1  A    between atoms: N_6  and  C_9
    2  A    between atoms: C_7  and  C_23
    3  A    between atoms: C_8  and  C_12
    4  A    between atoms: C_12  and  C_25
    5  A    between atoms: C_21  and  C_34
    6  A    between atoms: C_21  and  N_36
                            x       y       z     vdW  Elec       q    Type
                         _______ _______ _______ _____ _____    ______ ____

>  <TORSDO>
F 6

$$$$
=
 OpenBabel11062417093D

 36 41  0  0  1  0  0  0  0  0999 V2000
  186.6580  178.6300  139.9120 S   0  0  0  0  0  0  0  0  0  0  0  0
  187.8240  176.0450  137.5350 C   0  0  0  0  0  3  0  0  0  0  0  0
  183.7020  178.4430  138.0470 C   0  0  0  0  0  0  0  0  0  0  0  0
  186.8480  176.7850  138.0350 C   0  0  0  0  0  0  0  0  0  0  0  0
  183.8030  178.2470  140.5070 C   0  0  0  0  0  2  0  0  0  0  0  0
  182.7550  178.0780  137.3490 O   0  0  0  0  0  0  0  0  0  0  0  0
  185.1860  178.6550  141.0270 C   0  0  1  0  0  3  0  0  0  0  0  0
  186.0300  177.6500  138.5220 C   0  0  0  0  0  0  0  0  0  0  0  0
  185.0830  178.2400  137.5060 C   0  0  0  0  0  2  0  0  0  0  0  0
  183.4630  179.1670  139.3480 C   0  0  2  0  0  3  0  0  0  0  0  0
  190.0590  175.6520  136.0490 S   0  0  0  0  0  0  0  0  0  0  0  0
  188.9400  176.6730  136.8820 N   0  0  0  0  0  0  0  0  0  0  0  0
  190.6100  176.3460  134.8340 O   0  0  0  0  0  0  0  0  0  0  0  0
  190.9250  176.3910  139.7600 C   0  0  0  0  0  1  0  0  0  0  0  0
  189.4790  174.3040  135.6930 O   0  0  0  0  0  0  0  0  0  0  0  0
  189.7620  177.5630  137.6960 C   0  0  0  0  0  2  0  0  0  0  0  0
  192.2380  176.7520  137.5240 C   0  0  2  0  0  3  0  0  0  0  0  0
  190.9150  176.7220  138.2740 C   0  0  1  0  0  0  0  0  0  0  0  0
  191.4710  174.3510  137.9710 O   0  0  0  0  0  1  0  0  0  0  0  0
  191.2790  175.5830  137.3120 C   0  0  1  0  0  0  0  0  0  0  0  0
  193.3000  176.3670  138.3480 O   0  0  0  0  0  1  0  0  0  0  0  0
  185.4310  178.6550  144.9530 C   0  0  0  0  0  2  0  0  0  0  0  0
  189.1190  177.4550  144.2390 Cl  0  0  0  0  0  0  0  0  0  0  0  0
  185.5000  178.0670  142.4040 C   0  0  1  0  0  3  0  0  0  0  0  0
  187.4100  177.6370  143.8910 C   0  0  0  0  0  0  0  0  0  0  0  0
  186.9930  177.9240  142.6450 C   0  0  0  0  0  3  0  0  0  0  0  0
  186.4200  177.4920  145.0170 C   0  0  0  0  0  2  0  0  0  0  0  0
  184.7450  178.7880  143.5590 C   0  0  0  0  0  2  0  0  0  0  0  0
  182.1130  179.9250  139.5030 C   0  0  0  0  0  2  0  0  0  0  0  0
  180.0110  178.7940  139.9500 C   0  0  2  0  0  0  0  0  0  0  0  0
  178.9990  179.8510  139.5630 C   0  0  0  0  0  2  0  0  0  0  0  0
  179.9260  180.0710  140.7390 C   0  0  2  0  0  3  0  0  0  0  0  0
  181.2200  179.3790  140.5520 N   0  0  0  0  0  0  0  0  0  0  0  0
  179.4070  177.6880  140.8090 C   0  0  0  0  0  2  0  0  0  0  0  0
  180.8580  176.1610  139.6630 O   0  0  0  0  0  0  0  0  0  0  0  0
  180.0420  176.3320  140.5690 C   0  0  0  0  0  3  0  0  0  0  0  0
  1  7  1  0  0  0  0
  2  4  2  0  0  0  0
  3 10  1  0  0  0  0
  4  8  2  0  0  0  0
  6  3  2  0  0  0  0
  7  5  1  6  0  0  0
  7 24  1  0  0  0  0
  8  1  1  0  0  0  0
  9  3  1  0  0  0  0
  9  8  1  0  0  0  0
 10 29  1  1  0  0  0
 10  5  1  0  0  0  0
 11 12  1  0  0  0  0
 11 20  1  0  0  0  0
 12  2  1  0  0  0  0
 12 16  1  0  0  0  0
 13 11  2  0  0  0  0
 15 11  2  0  0  0  0
 16 18  1  0  0  0  0
 17 18  1  0  0  0  0
 17 21  1  1  0  0  0
 18 14  1  1  0  0  0
 20 17  1  0  0  0  0
 20 19  1  1  0  0  0
 20 18  1  0  0  0  0
 22 27  1  0  0  0  0
 24 26  1  1  0  0  0
 24 28  1  0  0  0  0
 25 23  1  0  0  0  0
 25 27  1  0  0  0  0
 26 25  2  0  0  0  0
 28 22  1  0  0  0  0
 29 33  1  0  0  0  0
 30 33  1  0  0  0  0
 30 32  1  0  0  0  0
 30 34  1  1  0  0  0
 31 30  1  0  0  0  0
 32 31  1  6  0  0  0
 33 32  1  0  0  0  0
 35 36  2  0  0  0  0
 36 34  1  0  0  0  0
M  END
>  <MODEL>
8

>  <REMARK>
 VINA RESULT:      -7.0      4.485      9.563
  Name = 
  6 active torsions:
  status: ('A' for Active; 'I' for Inactive)
    1  A    between atoms: N_6  and  C_9
    2  A    between atoms: C_7  and  C_23
    3  A    between atoms: C_8  and  C_12
    4  A    between atoms: C_12  and  C_25
    5  A    between atoms: C_21  and  C_34
    6  A    between atoms: C_21  and  N_36
                            x       y       z     vdW  Elec       q    Type
                         _______ _______ _______ _____ _____    ______ ____

>  <TORSDO>
F 6

$$$$
=
 OpenBabel11062417093D

 36 41  0  0  1  0  0  0  0  0999 V2000
  185.4610  178.6460  138.4330 S   0  0  0  0  0  0  0  0  0  0  0  0
  186.0380  175.1980  137.2220 C   0  0  0  0  0  3  0  0  0  0  0  0
  182.1620  178.0120  137.4540 C   0  0  0  0  0  0  0  0  0  0  0  0
  185.2070  176.1770  137.5360 C   0  0  0  0  0  0  0  0  0  0  0  0
  182.8080  178.8510  139.6850 C   0  0  0  0  0  2  0  0  0  0  0  0
  181.0780  177.4920  137.1830 O   0  0  0  0  0  0  0  0  0  0  0  0
  184.2760  179.2890  139.6960 C   0  0  1  0  0  3  0  0  0  0  0  0
  184.5280  177.2480  137.7540 C   0  0  0  0  0  0  0  0  0  0  0  0
  183.3840  177.4570  136.7920 C   0  0  0  0  0  2  0  0  0  0  0  0
  182.2270  179.2340  138.3350 C   0  0  2  0  0  3  0  0  0  0  0  0
  188.2750  174.2270  136.0330 S   0  0  0  0  0  0  0  0  0  0  0  0
  186.9860  175.3740  136.1570 N   0  0  0  0  0  0  0  0  0  0  0  0
  188.6460  173.9960  134.5940 O   0  0  0  0  0  0  0  0  0  0  0  0
  189.0450  177.3750  138.1710 C   0  0  0  0  0  1  0  0  0  0  0  0
  187.9790  172.9250  136.7380 O   0  0  0  0  0  0  0  0  0  0  0  0
  187.6230  176.6830  136.0530 C   0  0  0  0  0  2  0  0  0  0  0  0
  190.2090  176.3230  136.0750 C   0  0  2  0  0  3  0  0  0  0  0  0
  188.9360  176.6190  136.8540 C   0  0  1  0  0  0  0  0  0  0  0  0
  189.9640  174.7660  138.0910 O   0  0  0  0  0  1  0  0  0  0  0  0
  189.5080  175.1950  136.8270 C   0  0  1  0  0  0  0  0  0  0  0  0
  191.3450  176.7440  136.7750 O   0  0  0  0  0  1  0  0  0  0  0  0
  186.4010  177.8840  142.6930 C   0  0  0  0  0  2  0  0  0  0  0  0
  183.1110  178.6220  144.7380 Cl  0  0  0  0  0  0  0  0  0  0  0  0
  184.8840  179.3000  141.0990 C   0  0  1  0  0  3  0  0  0  0  0  0
  184.2630  178.8600  143.4370 C   0  0  0  0  0  0  0  0  0  0  0  0
  183.8380  179.0990  142.1830 C   0  0  0  0  0  3  0  0  0  0  0  0
  185.7340  178.7690  143.7450 C   0  0  0  0  0  2  0  0  0  0  0  0
  186.1160  178.3600  141.2360 C   0  0  0  0  0  2  0  0  0  0  0  0
  180.9550  180.1260  138.4130 C   0  0  0  0  0  2  0  0  0  0  0  0
  180.5780  182.3090  137.4190 C   0  0  2  0  0  0  0  0  0  0  0  0
  179.2650  182.7170  138.0510 C   0  0  0  0  0  2  0  0  0  0  0  0
  179.3270  181.5340  137.1100 C   0  0  2  0  0  3  0  0  0  0  0  0
  180.6430  180.8600  137.1650 N   0  0  0  0  0  0  0  0  0  0  0  0
  180.9180  183.1340  136.1820 C   0  0  0  0  0  2  0  0  0  0  0  0
  181.9450  184.9450  137.3730 O   0  0  0  0  0  0  0  0  0  0  0  0
  181.1590  184.6000  136.4890 C   0  0  0  0  0  3  0  0  0  0  0  0
  1  7  1  0  0  0  0
  2  4  2  0  0  0  0
  3 10  1  0  0  0  0
  4  8  2  0  0  0  0
  6  3  2  0  0  0  0
  7  5  1  1  0  0  0
  7 24  1  0  0  0  0
  8  1  1  0  0  0  0
  9  3  1  0  0  0  0
  9  8  1  0  0  0  0
 10 29  1  1  0  0  0
 10  5  1  0  0  0  0
 11 12  1  0  0  0  0
 11 15  2  0  0  0  0
 11 20  1  0  0  0  0
 12  2  1  0  0  0  0
 13 11  2  0  0  0  0
 16 12  1  0  0  0  0
 16 18  1  0  0  0  0
 17 21  1  1  0  0  0
 17 20  1  0  0  0  0
 17 18  1  0  0  0  0
 18 14  1  1  0  0  0
 20 18  1  0  0  0  0
 20 19  1  1  0  0  0
 22 27  1  0  0  0  0
 24 28  1  6  0  0  0
 24 26  1  0  0  0  0
 25 27  1  0  0  0  0
 25 23  1  0  0  0  0
 26 25  2  0  0  0  0
 28 22  1  0  0  0  0
 30 34  1  6  0  0  0
 30 31  1  0  0  0  0
 32 33  1  0  0  0  0
 32 30  1  0  0  0  0
 32 31  1  1  0  0  0
 33 30  1  0  0  0  0
 33 29  1  0  0  0  0
 34 36  1  0  0  0  0
 36 35  2  0  0  0  0
M  END
>  <MODEL>
9

>  <REMARK>
 VINA RESULT:      -6.8      4.791     10.053
  Name = 
  6 active torsions:
  status: ('A' for Active; 'I' for Inactive)
    1  A    between atoms: N_6  and  C_9
    2  A    between atoms: C_7  and  C_23
    3  A    between atoms: C_8  and  C_12
    4  A    between atoms: C_12  and  C_25
    5  A    between atoms: C_21  and  C_34
    6  A    between atoms: C_21  and  N_36
                            x       y       z     vdW  Elec       q    Type
                         _______ _______ _______ _____ _____    ______ ____

>  <TORSDO>
F 6

$$$$
