=
 OpenBabel11062412413D

 32 35  0  0  1  0  0  0  0  0999 V2000
  183.4590  178.4530  140.9550 C   0  0  2  0  0  3  0  0  0  0  0  0
  187.8010  178.4760  141.9500 C   0  0  0  0  0  2  0  0  0  0  0  0
  183.1160  178.7760  142.3640 C   0  0  0  0  0  0  0  0  0  0  0  0
  187.0760  177.8100  144.2180 C   0  0  0  0  0  0  0  0  0  0  0  0
  189.0770  177.6530  142.1720 C   0  0  2  0  0  0  0  0  0  0  0  0
  188.5230  177.7520  144.5970 C   0  0  0  0  0  0  0  0  0  0  0  0
  188.8460  176.1980  141.7780 C   0  0  0  0  0  1  0  0  0  0  0  0
  184.9490  178.0950  141.0340 C   0  0  0  0  0  2  0  0  0  0  0  0
  186.0460  177.3330  145.2000 C   0  0  0  0  0  2  0  0  0  0  0  0
  189.4500  177.7030  143.6250 C   0  0  0  0  0  3  0  0  0  0  0  0
  185.0800  178.4160  145.5540 C   0  0  0  0  0  3  0  0  0  0  0  0
  184.2650  178.6100  143.2230 C   0  0  0  0  0  0  0  0  0  0  0  0
  185.3140  178.2330  142.4870 C   0  0  0  0  0  0  0  0  0  0  0  0
  181.9740  179.1370  142.7540 O   0  0  0  0  0  0  0  0  0  0  0  0
  184.2600  178.9560  144.6570 C   0  0  0  0  0  3  0  0  0  0  0  0
  186.7230  178.1370  142.9510 C   0  0  0  0  0  0  0  0  0  0  0  0
  188.1100  178.2480  147.0250 C   0  0  0  0  0  3  0  0  0  0  0  0
  190.2540  177.3440  146.3740 C   0  0  0  0  0  3  0  0  0  0  0  0
  188.9740  177.7920  146.0130 C   0  0  0  0  0  0  0  0  0  0  0  0
  189.8050  177.8270  148.7000 C   0  0  0  0  0  3  0  0  0  0  0  0
  190.6780  177.3630  147.7120 C   0  0  0  0  0  0  0  0  0  0  0  0
  188.5250  178.2680  148.3590 C   0  0  0  0  0  3  0  0  0  0  0  0
  191.9540  176.9300  148.0810 O   0  0  0  0  0  0  0  0  0  0  0  0
  192.4770  175.6660  147.6960 C   0  0  0  0  0  1  0  0  0  0  0  0
  184.3920  179.9470  139.4700 O   0  0  0  0  0  1  0  0  0  0  0  0
  183.2240  179.5900  140.0630 N   0  0  0  0  0  2  0  0  0  0  0  0
  190.1580  178.2000  141.4130 O   0  0  0  0  0  0  0  0  0  0  0  0
  191.6380  177.1450  139.9740 O   0  0  0  0  0  0  0  0  0  0  0  0
  190.5440  177.7500  140.1420 C   0  0  0  0  0  0  0  0  0  0  0  0
  189.1120  179.1060  138.8340 O   0  0  0  0  0  0  0  0  0  0  0  0
  189.6570  177.9820  139.0000 C   0  0  0  0  0  0  0  0  0  0  0  0
  189.4200  176.9860  138.1110 F   0  0  0  0  0  0  0  0  0  0  0  0
  1 26  1  6  0  0  0
  1  8  1  0  0  0  0
  1  3  1  0  0  0  0
  2  5  1  0  0  0  0
  2 16  1  0  0  0  0
  3 14  2  0  0  0  0
  3 12  1  0  0  0  0
  4  6  1  0  0  0  0
  4  9  1  0  0  0  0
  5  7  1  6  0  0  0
  5 10  1  0  0  0  0
  6 19  1  0  0  0  0
  8 13  1  0  0  0  0
  9 11  1  0  0  0  0
 10  6  2  0  0  0  0
 12 15  1  0  0  0  0
 13 16  1  0  0  0  0
 13 12  2  0  0  0  0
 15 11  2  0  0  0  0
 16  4  2  0  0  0  0
 17 22  1  0  0  0  0
 18 21  2  0  0  0  0
 19 18  1  0  0  0  0
 19 17  2  0  0  0  0
 21 23  1  0  0  0  0
 21 20  1  0  0  0  0
 22 20  2  0  0  0  0
 24 23  1  0  0  0  0
 25 26  1  0  0  0  0
 27  5  1  0  0  0  0
 28 29  2  0  0  0  0
 29 27  1  0  0  0  0
 30 31  2  0  0  0  0
 31 29  1  0  0  0  0
 32 31  1  0  0  0  0
M  END
>  <MODEL>
1

>  <REMARK>
 VINA RESULT:      -9.2      0.000      0.000
  Name = 
  6 active torsions:
  status: ('A' for Active; 'I' for Inactive)
    1  A    between atoms: O_1  and  C_21
    2  A    between atoms: C_3  and  N_27
    3  A    between atoms: C_10  and  C_29
    4  A    between atoms: C_11  and  O_32
    5  A    between atoms: C_12  and  C_15
    6  A    between atoms: C_29  and  O_32
                            x       y       z     vdW  Elec       q    Type
                         _______ _______ _______ _____ _____    ______ ____

>  <TORSDO>
F 6

$$$$
=
 OpenBabel11062412413D

 32 35  0  0  1  0  0  0  0  0999 V2000
  189.8220  177.6380  147.0880 C   0  0  2  0  0  3  0  0  0  0  0  0
  187.9700  177.2720  143.0540 C   0  0  0  0  0  2  0  0  0  0  0  0
  188.4810  177.6280  147.7250 C   0  0  0  0  0  0  0  0  0  0  0  0
  186.0340  178.4330  144.0620 C   0  0  0  0  0  0  0  0  0  0  0  0
  187.6250  177.9610  141.7260 C   0  0  2  0  0  0  0  0  0  0  0  0
  185.3810  178.3840  142.7160 C   0  0  0  0  0  0  0  0  0  0  0  0
  188.2860  179.3330  141.6530 C   0  0  0  0  0  1  0  0  0  0  0  0
  189.4990  177.8200  145.6000 C   0  0  0  0  0  2  0  0  0  0  0  0
  185.3720  179.2060  145.1650 C   0  0  0  0  0  2  0  0  0  0  0  0
  186.1380  178.1370  141.6340 C   0  0  0  0  0  3  0  0  0  0  0  0
  185.0560  178.3350  146.3360 C   0  0  0  0  0  3  0  0  0  0  0  0
  187.4420  177.8100  146.7380 C   0  0  0  0  0  0  0  0  0  0  0  0
  187.9990  177.9120  145.5280 C   0  0  0  0  0  0  0  0  0  0  0  0
  188.2800  177.4880  148.9610 O   0  0  0  0  0  0  0  0  0  0  0  0
  186.0030  177.7400  147.0550 C   0  0  0  0  0  3  0  0  0  0  0  0
  187.2780  177.9210  144.2280 C   0  0  0  0  0  0  0  0  0  0  0  0
  183.0940  178.8600  143.6380 C   0  0  0  0  0  3  0  0  0  0  0  0
  183.3260  178.4470  141.2700 C   0  0  0  0  0  3  0  0  0  0  0  0
  183.9150  178.5530  142.5390 C   0  0  0  0  0  0  0  0  0  0  0  0
  181.1470  178.9220  142.2020 C   0  0  0  0  0  3  0  0  0  0  0  0
  181.9450  178.6250  141.0940 C   0  0  0  0  0  0  0  0  0  0  0  0
  181.7190  179.0400  143.4710 C   0  0  0  0  0  3  0  0  0  0  0  0
  181.3460  178.5100  139.8370 O   0  0  0  0  0  0  0  0  0  0  0  0
  181.8850  179.1200  138.6720 C   0  0  0  0  0  1  0  0  0  0  0  0
  191.8520  176.6750  147.6010 O   0  0  0  0  0  1  0  0  0  0  0  0
  190.5510  176.3920  147.3330 N   0  0  0  0  0  2  0  0  0  0  0  0
  188.0510  177.1540  140.6250 O   0  0  0  0  0  0  0  0  0  0  0  0
  188.9670  178.2330  138.7900 O   0  0  0  0  0  0  0  0  0  0  0  0
  189.1250  177.4670  139.7790 C   0  0  0  0  0  0  0  0  0  0  0  0
  190.8760  175.9250  139.3820 O   0  0  0  0  0  0  0  0  0  0  0  0
  190.4450  176.8970  140.0580 C   0  0  0  0  0  0  0  0  0  0  0  0
  191.2140  177.4190  141.0450 F   0  0  0  0  0  0  0  0  0  0  0  0
  1 26  1  6  0  0  0
  1  3  1  0  0  0  0
  2 16  1  0  0  0  0
  3 14  2  0  0  0  0
  4 16  2  0  0  0  0
  4  9  1  0  0  0  0
  5  7  1  6  0  0  0
  5  2  1  0  0  0  0
  6  4  1  0  0  0  0
  8  1  1  0  0  0  0
  9 11  1  0  0  0  0
 10  5  1  0  0  0  0
 10  6  2  0  0  0  0
 11 15  2  0  0  0  0
 12 15  1  0  0  0  0
 12  3  1  0  0  0  0
 13  8  1  0  0  0  0
 13 12  2  0  0  0  0
 16 13  1  0  0  0  0
 18 19  1  0  0  0  0
 19  6  1  0  0  0  0
 19 17  2  0  0  0  0
 20 22  2  0  0  0  0
 21 18  2  0  0  0  0
 21 20  1  0  0  0  0
 22 17  1  0  0  0  0
 23 21  1  0  0  0  0
 24 23  1  0  0  0  0
 26 25  1  0  0  0  0
 27  5  1  0  0  0  0
 28 29  2  0  0  0  0
 29 31  1  0  0  0  0
 29 27  1  0  0  0  0
 30 31  2  0  0  0  0
 31 32  1  0  0  0  0
M  END
>  <MODEL>
2

>  <REMARK>
 VINA RESULT:      -9.1      2.499      6.865
  Name = 
  6 active torsions:
  status: ('A' for Active; 'I' for Inactive)
    1  A    between atoms: O_1  and  C_21
    2  A    between atoms: C_3  and  N_27
    3  A    between atoms: C_10  and  C_29
    4  A    between atoms: C_11  and  O_32
    5  A    between atoms: C_12  and  C_15
    6  A    between atoms: C_29  and  O_32
                            x       y       z     vdW  Elec       q    Type
                         _______ _______ _______ _____ _____    ______ ____

>  <TORSDO>
F 6

$$$$
=
 OpenBabel11062412413D

 32 35  0  0  1  0  0  0  0  0999 V2000
  189.6780  177.6540  147.0880 C   0  0  2  0  0  3  0  0  0  0  0  0
  187.9380  177.3110  143.0020 C   0  0  0  0  0  2  0  0  0  0  0  0
  188.3190  177.6390  147.6870 C   0  0  0  0  0  0  0  0  0  0  0  0
  185.9740  178.4650  143.9630 C   0  0  0  0  0  0  0  0  0  0  0  0
  187.6300  178.0070  141.6690 C   0  0  2  0  0  0  0  0  0  0  0  0
  185.3580  178.4230  142.5990 C   0  0  0  0  0  0  0  0  0  0  0  0
  188.2910  179.3810  141.6220 C   0  0  0  0  0  1  0  0  0  0  0  0
  189.3960  177.8440  145.5920 C   0  0  0  0  0  2  0  0  0  0  0  0
  185.2810  179.2310  145.0520 C   0  0  0  0  0  2  0  0  0  0  0  0
  186.1450  178.1830  141.5370 C   0  0  0  0  0  3  0  0  0  0  0  0
  184.9330  178.3520  146.2080 C   0  0  0  0  0  3  0  0  0  0  0  0
  187.3080  177.8260  146.6730 C   0  0  0  0  0  0  0  0  0  0  0  0
  187.8980  177.9360  145.4800 C   0  0  0  0  0  0  0  0  0  0  0  0
  188.0840  177.4910  148.9170 O   0  0  0  0  0  0  0  0  0  0  0  0
  185.8610  177.7540  146.9500 C   0  0  0  0  0  3  0  0  0  0  0  0
  187.2130  177.9530  144.1600 C   0  0  0  0  0  0  0  0  0  0  0  0
  183.3720  178.6660  141.0810 C   0  0  0  0  0  3  0  0  0  0  0  0
  183.0110  178.6470  143.4690 C   0  0  0  0  0  3  0  0  0  0  0  0
  183.8980  178.5930  142.3830 C   0  0  0  0  0  0  0  0  0  0  0  0
  181.1290  178.8670  141.9670 C   0  0  0  0  0  3  0  0  0  0  0  0
  181.6290  178.7890  143.2700 C   0  0  0  0  0  0  0  0  0  0  0  0
  181.9970  178.8050  140.8750 C   0  0  0  0  0  3  0  0  0  0  0  0
  180.7380  178.8560  144.3440 O   0  0  0  0  0  0  0  0  0  0  0  0
  179.3360  179.0060  144.1700 C   0  0  0  0  0  1  0  0  0  0  0  0
  191.6760  176.6920  147.7110 O   0  0  0  0  0  1  0  0  0  0  0  0
  190.4010  176.4070  147.3450 N   0  0  0  0  0  2  0  0  0  0  0  0
  188.0860  177.2080  140.5750 O   0  0  0  0  0  0  0  0  0  0  0  0
  189.0420  178.3060  138.7720 O   0  0  0  0  0  0  0  0  0  0  0  0
  189.1780  177.5300  139.7560 C   0  0  0  0  0  0  0  0  0  0  0  0
  190.9440  176.0000  139.3780 O   0  0  0  0  0  0  0  0  0  0  0  0
  190.4930  176.9590  140.0590 C   0  0  0  0  0  0  0  0  0  0  0  0
  191.2340  177.4650  141.0750 F   0  0  0  0  0  0  0  0  0  0  0  0
  1 26  1  6  0  0  0
  1  3  1  0  0  0  0
  2 16  1  0  0  0  0
  3 14  2  0  0  0  0
  4 16  2  0  0  0  0
  4  9  1  0  0  0  0
  5  7  1  6  0  0  0
  5  2  1  0  0  0  0
  6  4  1  0  0  0  0
  8  1  1  0  0  0  0
  9 11  1  0  0  0  0
 10  5  1  0  0  0  0
 10  6  2  0  0  0  0
 11 15  2  0  0  0  0
 12 15  1  0  0  0  0
 12  3  1  0  0  0  0
 13  8  1  0  0  0  0
 13 12  2  0  0  0  0
 16 13  1  0  0  0  0
 17 19  1  0  0  0  0
 19  6  1  0  0  0  0
 19 18  2  0  0  0  0
 20 21  2  0  0  0  0
 21 18  1  0  0  0  0
 21 23  1  0  0  0  0
 22 17  2  0  0  0  0
 22 20  1  0  0  0  0
 24 23  1  0  0  0  0
 26 25  1  0  0  0  0
 27  5  1  0  0  0  0
 28 29  2  0  0  0  0
 29 31  1  0  0  0  0
 29 27  1  0  0  0  0
 30 31  2  0  0  0  0
 31 32  1  0  0  0  0
M  END
>  <MODEL>
3

>  <REMARK>
 VINA RESULT:      -9.0      2.519      6.775
  Name = 
  6 active torsions:
  status: ('A' for Active; 'I' for Inactive)
    1  A    between atoms: O_1  and  C_21
    2  A    between atoms: C_3  and  N_27
    3  A    between atoms: C_10  and  C_29
    4  A    between atoms: C_11  and  O_32
    5  A    between atoms: C_12  and  C_15
    6  A    between atoms: C_29  and  O_32
                            x       y       z     vdW  Elec       q    Type
                         _______ _______ _______ _____ _____    ______ ____

>  <TORSDO>
F 6

$$$$
=
 OpenBabel11062412413D

 32 35  0  0  1  0  0  0  0  0999 V2000
  189.6490  177.6670  138.5210 C   0  0  2  0  0  3  0  0  0  0  0  0
  186.7890  177.4720  141.9300 C   0  0  0  0  0  2  0  0  0  0  0  0
  190.7670  177.2650  139.4130 C   0  0  0  0  0  0  0  0  0  0  0  0
  188.7470  178.0130  143.3390 C   0  0  0  0  0  0  0  0  0  0  0  0
  185.9200  178.2470  142.9300 C   0  0  2  0  0  0  0  0  0  0  0  0
  187.8240  178.0100  144.5170 C   0  0  0  0  0  0  0  0  0  0  0  0
  185.8920  179.7290  142.5720 C   0  0  0  0  0  1  0  0  0  0  0  0
  188.5160  177.9810  139.5060 C   0  0  0  0  0  2  0  0  0  0  0  0
  190.1700  178.4530  143.5290 C   0  0  0  0  0  2  0  0  0  0  0  0
  186.4990  178.0960  144.3070 C   0  0  0  0  0  3  0  0  0  0  0  0
  191.1340  177.3750  143.1560 C   0  0  0  0  0  3  0  0  0  0  0  0
  190.3730  177.3480  140.8000 C   0  0  0  0  0  0  0  0  0  0  0  0
  189.1000  177.7430  140.8720 C   0  0  0  0  0  0  0  0  0  0  0  0
  191.9070  176.9090  139.0100 O   0  0  0  0  0  0  0  0  0  0  0  0
  191.2370  176.9130  141.9130 C   0  0  0  0  0  3  0  0  0  0  0  0
  188.2580  177.7750  142.0970 C   0  0  0  0  0  0  0  0  0  0  0  0
  187.5220  178.2760  146.9960 C   0  0  0  0  0  3  0  0  0  0  0  0
  189.5710  177.2960  146.1760 C   0  0  0  0  0  3  0  0  0  0  0  0
  188.3180  177.8700  145.9120 C   0  0  0  0  0  0  0  0  0  0  0  0
  189.2300  177.5620  148.5550 C   0  0  0  0  0  3  0  0  0  0  0  0
  190.0360  177.1440  147.4920 C   0  0  0  0  0  0  0  0  0  0  0  0
  187.9760  178.1270  148.3090 C   0  0  0  0  0  3  0  0  0  0  0  0
  191.2860  176.5860  147.7670 O   0  0  0  0  0  0  0  0  0  0  0  0
  192.0750  175.9440  146.7740 C   0  0  0  0  0  1  0  0  0  0  0  0
  187.9690  176.2800  137.7720 O   0  0  0  0  0  1  0  0  0  0  0  0
  189.2780  176.5940  137.5960 N   0  0  0  0  0  2  0  0  0  0  0  0
  184.5910  177.7210  142.9430 O   0  0  0  0  0  0  0  0  0  0  0  0
  182.9200  178.9380  141.8930 O   0  0  0  0  0  0  0  0  0  0  0  0
  183.4260  178.5030  142.9630 C   0  0  0  0  0  0  0  0  0  0  0  0
  183.4880  179.1780  145.2310 O   0  0  0  0  0  0  0  0  0  0  0  0
  182.7920  178.8080  144.2480 C   0  0  0  0  0  0  0  0  0  0  0  0
  181.4480  178.6980  144.3830 F   0  0  0  0  0  0  0  0  0  0  0  0
  1 26  1  6  0  0  0
  1  3  1  0  0  0  0
  1  8  1  0  0  0  0
  2 16  1  0  0  0  0
  2  5  1  0  0  0  0
  3 12  1  0  0  0  0
  4  9  1  0  0  0  0
  4  6  1  0  0  0  0
  5  7  1  6  0  0  0
  5 27  1  0  0  0  0
  5 10  1  0  0  0  0
  6 19  1  0  0  0  0
  8 13  1  0  0  0  0
 10  6  2  0  0  0  0
 11  9  1  0  0  0  0
 12 13  2  0  0  0  0
 12 15  1  0  0  0  0
 13 16  1  0  0  0  0
 14  3  2  0  0  0  0
 15 11  2  0  0  0  0
 16  4  2  0  0  0  0
 17 22  1  0  0  0  0
 18 21  2  0  0  0  0
 19 18  1  0  0  0  0
 19 17  2  0  0  0  0
 21 23  1  0  0  0  0
 21 20  1  0  0  0  0
 22 20  2  0  0  0  0
 24 23  1  0  0  0  0
 26 25  1  0  0  0  0
 27 29  1  0  0  0  0
 28 29  2  0  0  0  0
 29 31  1  0  0  0  0
 31 32  1  0  0  0  0
 31 30  2  0  0  0  0
M  END
>  <MODEL>
4

>  <REMARK>
 VINA RESULT:      -8.8      2.623      5.590
  Name = 
  6 active torsions:
  status: ('A' for Active; 'I' for Inactive)
    1  A    between atoms: O_1  and  C_21
    2  A    between atoms: C_3  and  N_27
    3  A    between atoms: C_10  and  C_29
    4  A    between atoms: C_11  and  O_32
    5  A    between atoms: C_12  and  C_15
    6  A    between atoms: C_29  and  O_32
                            x       y       z     vdW  Elec       q    Type
                         _______ _______ _______ _____ _____    ______ ____

>  <TORSDO>
F 6

$$$$
=
 OpenBabel11062412413D

 32 35  0  0  1  0  0  0  0  0999 V2000
  184.5590  179.3780  145.0930 C   0  0  2  0  0  3  0  0  0  0  0  0
  188.4250  177.2860  144.3750 C   0  0  0  0  0  2  0  0  0  0  0  0
  184.1540  179.1530  143.6810 C   0  0  0  0  0  0  0  0  0  0  0  0
  188.1720  178.0520  142.0380 C   0  0  0  0  0  0  0  0  0  0  0  0
  189.9440  177.4100  144.1960 C   0  0  2  0  0  0  0  0  0  0  0  0
  189.4920  177.4090  141.7480 C   0  0  0  0  0  0  0  0  0  0  0  0
  190.4010  178.8310  144.5090 C   0  0  0  0  0  1  0  0  0  0  0  0
  186.0450  179.0020  145.0920 C   0  0  0  0  0  2  0  0  0  0  0  0
  187.5150  178.8810  140.9720 C   0  0  0  0  0  2  0  0  0  0  0  0
  190.3010  177.0930  142.7730 C   0  0  0  0  0  3  0  0  0  0  0  0
  186.1700  178.3440  140.6080 C   0  0  0  0  0  3  0  0  0  0  0  0
  185.2780  178.7100  142.8890 C   0  0  0  0  0  0  0  0  0  0  0  0
  186.3550  178.6100  143.6720 C   0  0  0  0  0  0  0  0  0  0  0  0
  182.9890  179.3330  143.2370 O   0  0  0  0  0  0  0  0  0  0  0  0
  185.1620  178.3070  141.4750 C   0  0  0  0  0  3  0  0  0  0  0  0
  187.6630  178.0140  143.2940 C   0  0  0  0  0  0  0  0  0  0  0  0
  188.9690  176.7710  139.3760 C   0  0  0  0  0  3  0  0  0  0  0  0
  191.2790  177.0700  140.0140 C   0  0  0  0  0  3  0  0  0  0  0  0
  189.9210  177.0670  140.3670 C   0  0  0  0  0  0  0  0  0  0  0  0
  190.7260  176.4660  137.7390 C   0  0  0  0  0  3  0  0  0  0  0  0
  191.6890  176.7650  138.7070 C   0  0  0  0  0  0  0  0  0  0  0  0
  189.3690  176.4690  138.0720 C   0  0  0  0  0  3  0  0  0  0  0  0
  193.0390  176.7530  138.3470 O   0  0  0  0  0  0  0  0  0  0  0  0
  193.5560  175.8940  137.3400 C   0  0  0  0  0  1  0  0  0  0  0  0
  184.5550  178.2530  147.1030 O   0  0  0  0  0  1  0  0  0  0  0  0
  183.7920  178.5420  146.0190 N   0  0  0  0  0  2  0  0  0  0  0  0
  190.6200  176.4800  145.0460 O   0  0  0  0  0  0  0  0  0  0  0  0
  192.1130  176.7440  146.8000 O   0  0  0  0  0  0  0  0  0  0  0  0
  190.9180  176.7100  146.3980 C   0  0  0  0  0  0  0  0  0  0  0  0
  189.7940  177.9480  148.0710 O   0  0  0  0  0  0  0  0  0  0  0  0
  189.8220  176.9180  147.3460 C   0  0  0  0  0  0  0  0  0  0  0  0
  188.8270  176.0030  147.4450 F   0  0  0  0  0  0  0  0  0  0  0  0
  1 26  1  1  0  0  0
  3  1  1  0  0  0  0
  4 16  2  0  0  0  0
  5  2  1  0  0  0  0
  5  7  1  1  0  0  0
  5 27  1  0  0  0  0
  6  4  1  0  0  0  0
  6 10  2  0  0  0  0
  8  1  1  0  0  0  0
  9  4  1  0  0  0  0
 10  5  1  0  0  0  0
 11  9  1  0  0  0  0
 11 15  2  0  0  0  0
 12 13  2  0  0  0  0
 12  3  1  0  0  0  0
 13  8  1  0  0  0  0
 14  3  2  0  0  0  0
 15 12  1  0  0  0  0
 16 13  1  0  0  0  0
 16  2  1  0  0  0  0
 17 19  1  0  0  0  0
 18 19  2  0  0  0  0
 19  6  1  0  0  0  0
 20 22  1  0  0  0  0
 20 21  2  0  0  0  0
 21 18  1  0  0  0  0
 22 17  2  0  0  0  0
 23 21  1  0  0  0  0
 24 23  1  0  0  0  0
 26 25  1  0  0  0  0
 27 29  1  0  0  0  0
 29 28  2  0  0  0  0
 29 31  1  0  0  0  0
 31 32  1  0  0  0  0
 31 30  2  0  0  0  0
M  END
>  <MODEL>
5

>  <REMARK>
 VINA RESULT:      -8.4      2.682      6.266
  Name = 
  6 active torsions:
  status: ('A' for Active; 'I' for Inactive)
    1  A    between atoms: O_1  and  C_21
    2  A    between atoms: C_3  and  N_27
    3  A    between atoms: C_10  and  C_29
    4  A    between atoms: C_11  and  O_32
    5  A    between atoms: C_12  and  C_15
    6  A    between atoms: C_29  and  O_32
                            x       y       z     vdW  Elec       q    Type
                         _______ _______ _______ _____ _____    ______ ____

>  <TORSDO>
F 6

$$$$
=
 OpenBabel11062412413D

 32 35  0  0  1  0  0  0  0  0999 V2000
  184.6910  179.3780  142.1060 C   0  0  2  0  0  3  0  0  0  0  0  0
  188.5190  177.2560  142.9330 C   0  0  0  0  0  2  0  0  0  0  0  0
  184.8060  179.0590  140.6600 C   0  0  0  0  0  0  0  0  0  0  0  0
  189.1220  177.8660  140.6150 C   0  0  0  0  0  0  0  0  0  0  0  0
  190.0060  177.3730  143.2950 C   0  0  2  0  0  0  0  0  0  0  0  0
  190.4460  177.2100  140.8510 C   0  0  0  0  0  0  0  0  0  0  0  0
  190.3510  178.8130  143.6600 C   0  0  0  0  0  1  0  0  0  0  0  0
  186.0740  179.0070  142.6540 C   0  0  0  0  0  2  0  0  0  0  0  0
  188.9000  178.6200  139.3360 C   0  0  0  0  0  2  0  0  0  0  0  0
  190.8350  176.9640  142.1130 C   0  0  0  0  0  3  0  0  0  0  0  0
  187.7590  178.0570  138.5550 C   0  0  0  0  0  3  0  0  0  0  0  0
  186.1270  178.5690  140.3460 C   0  0  0  0  0  0  0  0  0  0  0  0
  186.8570  178.5250  141.4630 C   0  0  0  0  0  0  0  0  0  0  0  0
  183.8760  179.2060  139.8220 O   0  0  0  0  0  0  0  0  0  0  0  0
  186.5090  178.0730  139.0100 C   0  0  0  0  0  3  0  0  0  0  0  0
  188.2020  177.9090  141.6090 C   0  0  0  0  0  0  0  0  0  0  0  0
  192.6770  177.1740  139.6970 C   0  0  0  0  0  3  0  0  0  0  0  0
  190.8450  175.9420  138.7170 C   0  0  0  0  0  3  0  0  0  0  0  0
  191.3280  176.7790  139.7350 C   0  0  0  0  0  0  0  0  0  0  0  0
  193.0130  175.9280  137.6490 C   0  0  0  0  0  3  0  0  0  0  0  0
  191.6780  175.5180  137.6710 C   0  0  0  0  0  0  0  0  0  0  0  0
  193.5120  176.7540  138.6590 C   0  0  0  0  0  3  0  0  0  0  0  0
  191.2040  174.6940  136.6470 O   0  0  0  0  0  0  0  0  0  0  0  0
  190.1570  173.7540  136.8400 C   0  0  0  0  0  1  0  0  0  0  0  0
  183.6940  178.7820  144.0960 O   0  0  0  0  0  1  0  0  0  0  0  0
  183.6300  178.6020  142.7520 N   0  0  0  0  0  2  0  0  0  0  0  0
  190.3190  176.5030  144.3860 O   0  0  0  0  0  0  0  0  0  0  0  0
  191.6810  177.1260  146.1550 O   0  0  0  0  0  0  0  0  0  0  0  0
  190.5190  176.9260  145.7080 C   0  0  0  0  0  0  0  0  0  0  0  0
  189.5100  177.3530  147.8060 O   0  0  0  0  0  0  0  0  0  0  0  0
  189.3570  177.1440  146.5730 C   0  0  0  0  0  0  0  0  0  0  0  0
  188.1080  177.1270  146.0470 F   0  0  0  0  0  0  0  0  0  0  0  0
  1  8  1  0  0  0  0
  1 26  1  1  0  0  0
  2  5  1  0  0  0  0
  3  1  1  0  0  0  0
  4  6  1  0  0  0  0
  4 16  2  0  0  0  0
  5  7  1  1  0  0  0
  5 27  1  0  0  0  0
  6 10  2  0  0  0  0
  9  4  1  0  0  0  0
 10  5  1  0  0  0  0
 11 15  2  0  0  0  0
 11  9  1  0  0  0  0
 12  3  1  0  0  0  0
 12 13  2  0  0  0  0
 13 16  1  0  0  0  0
 13  8  1  0  0  0  0
 14  3  2  0  0  0  0
 15 12  1  0  0  0  0
 16  2  1  0  0  0  0
 17 19  1  0  0  0  0
 18 19  2  0  0  0  0
 19  6  1  0  0  0  0
 20 21  2  0  0  0  0
 20 22  1  0  0  0  0
 21 18  1  0  0  0  0
 22 17  2  0  0  0  0
 23 24  1  0  0  0  0
 23 21  1  0  0  0  0
 26 25  1  0  0  0  0
 27 29  1  0  0  0  0
 29 28  2  0  0  0  0
 29 31  1  0  0  0  0
 31 30  2  0  0  0  0
 32 31  1  0  0  0  0
M  END
>  <MODEL>
6

>  <REMARK>
 VINA RESULT:      -8.4      2.644      6.543
  Name = 
  6 active torsions:
  status: ('A' for Active; 'I' for Inactive)
    1  A    between atoms: O_1  and  C_21
    2  A    between atoms: C_3  and  N_27
    3  A    between atoms: C_10  and  C_29
    4  A    between atoms: C_11  and  O_32
    5  A    between atoms: C_12  and  C_15
    6  A    between atoms: C_29  and  O_32
                            x       y       z     vdW  Elec       q    Type
                         _______ _______ _______ _____ _____    ______ ____

>  <TORSDO>
F 6

$$$$
=
 OpenBabel11062412413D

 32 35  0  0  1  0  0  0  0  0999 V2000
  183.5610  178.6300  140.7270 C   0  0  2  0  0  3  0  0  0  0  0  0
  188.0040  178.5060  141.0190 C   0  0  0  0  0  2  0  0  0  0  0  0
  183.4510  178.7830  142.2000 C   0  0  0  0  0  0  0  0  0  0  0  0
  187.6260  177.5760  143.2780 C   0  0  0  0  0  0  0  0  0  0  0  0
  189.2780  177.6540  140.9380 C   0  0  2  0  0  0  0  0  0  0  0  0
  189.1130  177.4640  143.4150 C   0  0  0  0  0  0  0  0  0  0  0  0
  188.9520  176.2590  140.4160 C   0  0  0  0  0  1  0  0  0  0  0  0
  185.0350  178.2560  140.5270 C   0  0  0  0  0  2  0  0  0  0  0  0
  186.7500  176.9910  144.3480 C   0  0  0  0  0  2  0  0  0  0  0  0
  189.8740  177.5270  142.3100 C   0  0  0  0  0  3  0  0  0  0  0  0
  185.8790  178.0290  144.9750 C   0  0  0  0  0  3  0  0  0  0  0  0
  184.7150  178.5070  142.8420 C   0  0  0  0  0  0  0  0  0  0  0  0
  185.6260  178.2160  141.9100 C   0  0  0  0  0  0  0  0  0  0  0  0
  182.3920  179.1010  142.8060 O   0  0  0  0  0  0  0  0  0  0  0  0
  184.9420  178.6790  144.2890 C   0  0  0  0  0  3  0  0  0  0  0  0
  187.0870  178.0550  142.1310 C   0  0  0  0  0  0  0  0  0  0  0  0
  191.0370  176.7100  144.8420 C   0  0  0  0  0  3  0  0  0  0  0  0
  189.1880  177.8520  145.8970 C   0  0  0  0  0  3  0  0  0  0  0  0
  189.7800  177.3310  144.7360 C   0  0  0  0  0  0  0  0  0  0  0  0
  191.0680  177.1180  147.2280 C   0  0  0  0  0  3  0  0  0  0  0  0
  189.8220  177.7450  147.1440 C   0  0  0  0  0  0  0  0  0  0  0  0
  191.6750  176.6020  146.0800 C   0  0  0  0  0  3  0  0  0  0  0  0
  189.2370  178.2500  148.3080 O   0  0  0  0  0  0  0  0  0  0  0  0
  187.9440  177.8580  148.7490 C   0  0  0  0  0  1  0  0  0  0  0  0
  184.1970  180.1650  139.1310 O   0  0  0  0  0  1  0  0  0  0  0  0
  183.2180  179.8680  140.0240 N   0  0  0  0  0  2  0  0  0  0  0  0
  190.2400  178.2820  140.0870 O   0  0  0  0  0  0  0  0  0  0  0  0
  191.4970  177.1270  138.5180 O   0  0  0  0  0  0  0  0  0  0  0  0
  190.5190  177.8830  138.7720 C   0  0  0  0  0  0  0  0  0  0  0  0
  188.9280  179.3650  137.8390 O   0  0  0  0  0  0  0  0  0  0  0  0
  189.6550  178.3480  137.6850 C   0  0  0  0  0  0  0  0  0  0  0  0
  189.6370  177.6860  136.5020 F   0  0  0  0  0  0  0  0  0  0  0  0
  1 26  1  6  0  0  0
  1  3  1  0  0  0  0
  2 16  1  0  0  0  0
  3 14  2  0  0  0  0
  3 12  1  0  0  0  0
  4  6  1  0  0  0  0
  4  9  1  0  0  0  0
  5  7  1  6  0  0  0
  5  2  1  0  0  0  0
  5 10  1  0  0  0  0
  6 19  1  0  0  0  0
  8  1  1  0  0  0  0
  8 13  1  0  0  0  0
  9 11  1  0  0  0  0
 10  6  2  0  0  0  0
 12 15  1  0  0  0  0
 13 16  1  0  0  0  0
 13 12  2  0  0  0  0
 15 11  2  0  0  0  0
 16  4  2  0  0  0  0
 17 22  1  0  0  0  0
 18 21  2  0  0  0  0
 19 17  2  0  0  0  0
 19 18  1  0  0  0  0
 21 20  1  0  0  0  0
 21 23  1  0  0  0  0
 22 20  2  0  0  0  0
 23 24  1  0  0  0  0
 25 26  1  0  0  0  0
 27  5  1  0  0  0  0
 28 29  2  0  0  0  0
 29 27  1  0  0  0  0
 31 30  2  0  0  0  0
 31 29  1  0  0  0  0
 32 31  1  0  0  0  0
M  END
>  <MODEL>
7

>  <REMARK>
 VINA RESULT:      -8.3      1.149      1.818
  Name = 
  6 active torsions:
  status: ('A' for Active; 'I' for Inactive)
    1  A    between atoms: O_1  and  C_21
    2  A    between atoms: C_3  and  N_27
    3  A    between atoms: C_10  and  C_29
    4  A    between atoms: C_11  and  O_32
    5  A    between atoms: C_12  and  C_15
    6  A    between atoms: C_29  and  O_32
                            x       y       z     vdW  Elec       q    Type
                         _______ _______ _______ _____ _____    ______ ____

>  <TORSDO>
F 6

$$$$
=
 OpenBabel11062412413D

 32 35  0  0  1  0  0  0  0  0999 V2000
  184.5040  179.3920  145.0980 C   0  0  2  0  0  3  0  0  0  0  0  0
  188.3710  177.3120  144.3470 C   0  0  0  0  0  2  0  0  0  0  0  0
  184.0960  179.1830  143.6860 C   0  0  0  0  0  0  0  0  0  0  0  0
  188.1110  178.1050  142.0190 C   0  0  0  0  0  0  0  0  0  0  0  0
  189.8890  177.4390  144.1650 C   0  0  2  0  0  0  0  0  0  0  0  0
  189.4310  177.4670  141.7190 C   0  0  0  0  0  0  0  0  0  0  0  0
  190.3460  178.8570  144.4940 C   0  0  0  0  0  1  0  0  0  0  0  0
  185.9910  179.0170  145.0890 C   0  0  0  0  0  2  0  0  0  0  0  0
  187.4500  178.9450  140.9650 C   0  0  0  0  0  2  0  0  0  0  0  0
  190.2430  177.1390  142.7380 C   0  0  0  0  0  3  0  0  0  0  0  0
  186.1050  178.4120  140.5980 C   0  0  0  0  0  3  0  0  0  0  0  0
  185.2180  178.7500  142.8860 C   0  0  0  0  0  0  0  0  0  0  0  0
  186.2980  178.6420  143.6640 C   0  0  0  0  0  0  0  0  0  0  0  0
  182.9300  179.3670  143.2460 O   0  0  0  0  0  0  0  0  0  0  0  0
  185.0990  178.3630  141.4670 C   0  0  0  0  0  3  0  0  0  0  0  0
  187.6050  178.0520  143.2760 C   0  0  0  0  0  0  0  0  0  0  0  0
  191.2210  177.1140  139.9920 C   0  0  0  0  0  3  0  0  0  0  0  0
  188.9120  176.8200  139.3460 C   0  0  0  0  0  3  0  0  0  0  0  0
  189.8570  177.1410  140.3320 C   0  0  0  0  0  0  0  0  0  0  0  0
  190.6710  176.4800  137.7220 C   0  0  0  0  0  3  0  0  0  0  0  0
  189.3100  176.4940  138.0400 C   0  0  0  0  0  0  0  0  0  0  0  0
  191.6240  176.7890  138.6950 C   0  0  0  0  0  3  0  0  0  0  0  0
  188.3780  176.1850  137.0470 O   0  0  0  0  0  0  0  0  0  0  0  0
  187.3830  175.1830  137.2140 C   0  0  0  0  0  1  0  0  0  0  0  0
  184.5040  178.2500  147.1000 O   0  0  0  0  0  1  0  0  0  0  0  0
  183.7400  178.5440  146.0170 N   0  0  0  0  0  2  0  0  0  0  0  0
  190.5680  176.5010  145.0030 O   0  0  0  0  0  0  0  0  0  0  0  0
  192.1700  176.7500  146.6610 O   0  0  0  0  0  0  0  0  0  0  0  0
  190.9530  176.7500  146.3290 C   0  0  0  0  0  0  0  0  0  0  0  0
  190.1330  177.8580  148.2530 O   0  0  0  0  0  0  0  0  0  0  0  0
  189.9220  177.0220  147.3330 C   0  0  0  0  0  0  0  0  0  0  0  0
  188.7310  176.3770  147.2750 F   0  0  0  0  0  0  0  0  0  0  0  0
  1 26  1  1  0  0  0
  3  1  1  0  0  0  0
  4 16  2  0  0  0  0
  5  2  1  0  0  0  0
  5  7  1  1  0  0  0
  5 27  1  0  0  0  0
  6  4  1  0  0  0  0
  6 10  2  0  0  0  0
  8  1  1  0  0  0  0
  9  4  1  0  0  0  0
 10  5  1  0  0  0  0
 11  9  1  0  0  0  0
 11 15  2  0  0  0  0
 12 13  2  0  0  0  0
 12  3  1  0  0  0  0
 13  8  1  0  0  0  0
 14  3  2  0  0  0  0
 15 12  1  0  0  0  0
 16 13  1  0  0  0  0
 16  2  1  0  0  0  0
 17 19  1  0  0  0  0
 18 19  2  0  0  0  0
 19  6  1  0  0  0  0
 20 21  2  0  0  0  0
 20 22  1  0  0  0  0
 21 18  1  0  0  0  0
 22 17  2  0  0  0  0
 23 24  1  0  0  0  0
 23 21  1  0  0  0  0
 26 25  1  0  0  0  0
 27 29  1  0  0  0  0
 29 28  2  0  0  0  0
 29 31  1  0  0  0  0
 31 30  2  0  0  0  0
 32 31  1  0  0  0  0
M  END
>  <MODEL>
8

>  <REMARK>
 VINA RESULT:      -8.2      2.695      6.464
  Name = 
  6 active torsions:
  status: ('A' for Active; 'I' for Inactive)
    1  A    between atoms: O_1  and  C_21
    2  A    between atoms: C_3  and  N_27
    3  A    between atoms: C_10  and  C_29
    4  A    between atoms: C_11  and  O_32
    5  A    between atoms: C_12  and  C_15
    6  A    between atoms: C_29  and  O_32
                            x       y       z     vdW  Elec       q    Type
                         _______ _______ _______ _____ _____    ______ ____

>  <TORSDO>
F 6

$$$$
=
 OpenBabel11062412413D

 32 35  0  0  1  0  0  0  0  0999 V2000
  189.5960  176.9970  147.8380 C   0  0  2  0  0  3  0  0  0  0  0  0
  187.4530  178.5170  144.2410 C   0  0  0  0  0  2  0  0  0  0  0  0
  190.8590  176.8930  147.0630 C   0  0  0  0  0  0  0  0  0  0  0  0
  189.1120  177.2120  142.9530 C   0  0  0  0  0  0  0  0  0  0  0  0
  186.4380  178.2270  143.1260 C   0  0  2  0  0  0  0  0  0  0  0  0
  188.4020  177.6510  141.7100 C   0  0  0  0  0  0  0  0  0  0  0  0
  185.7350  176.8980  143.3810 C   0  0  0  0  0  1  0  0  0  0  0  0
  188.5420  177.2370  146.7500 C   0  0  0  0  0  2  0  0  0  0  0  0
  190.2150  176.1990  142.8430 C   0  0  0  0  0  2  0  0  0  0  0  0
  187.1580  178.1470  141.8120 C   0  0  0  0  0  3  0  0  0  0  0  0
  191.5090  176.7360  143.3600 C   0  0  0  0  0  3  0  0  0  0  0  0
  190.6070  177.0290  145.6480 C   0  0  0  0  0  0  0  0  0  0  0  0
  189.3020  177.2330  145.4520 C   0  0  0  0  0  0  0  0  0  0  0  0
  191.9950  176.7030  147.5750 O   0  0  0  0  0  0  0  0  0  0  0  0
  191.6790  177.0720  144.6360 C   0  0  0  0  0  3  0  0  0  0  0  0
  188.6550  177.6060  144.1660 C   0  0  0  0  0  0  0  0  0  0  0  0
  190.1700  176.7870  140.1490 C   0  0  0  0  0  3  0  0  0  0  0  0
  188.5180  178.3270  139.2920 C   0  0  0  0  0  3  0  0  0  0  0  0
  189.0440  177.5980  140.3700 C   0  0  0  0  0  0  0  0  0  0  0  0
  190.2320  177.4590  137.8250 C   0  0  0  0  0  3  0  0  0  0  0  0
  189.1090  178.2670  138.0210 C   0  0  0  0  0  0  0  0  0  0  0  0
  190.7620  176.7210  138.8850 C   0  0  0  0  0  3  0  0  0  0  0  0
  188.6020  178.9980  136.9430 O   0  0  0  0  0  0  0  0  0  0  0  0
  187.3970  178.6460  136.2770 C   0  0  0  0  0  1  0  0  0  0  0  0
  188.3850  178.5920  148.9760 O   0  0  0  0  0  1  0  0  0  0  0  0
  189.6370  178.0980  148.8020 N   0  0  0  0  0  2  0  0  0  0  0  0
  185.4760  179.2820  143.0470 O   0  0  0  0  0  0  0  0  0  0  0  0
  183.4670  178.9450  141.9400 O   0  0  0  0  0  0  0  0  0  0  0  0
  184.0860  179.0910  143.0290 C   0  0  0  0  0  0  0  0  0  0  0  0
  183.9400  179.3140  145.3810 O   0  0  0  0  0  0  0  0  0  0  0  0
  183.3530  179.0530  144.2970 C   0  0  0  0  0  0  0  0  0  0  0  0
  182.0340  178.7400  144.3080 F   0  0  0  0  0  0  0  0  0  0  0  0
  1 26  1  1  0  0  0
  3 14  2  0  0  0  0
  3  1  1  0  0  0  0
  4 16  2  0  0  0  0
  5  7  1  1  0  0  0
  5  2  1  0  0  0  0
  6 10  2  0  0  0  0
  6  4  1  0  0  0  0
  8  1  1  0  0  0  0
  9  4  1  0  0  0  0
  9 11  1  0  0  0  0
 10  5  1  0  0  0  0
 11 15  2  0  0  0  0
 12  3  1  0  0  0  0
 13 12  2  0  0  0  0
 13  8  1  0  0  0  0
 15 12  1  0  0  0  0
 16  2  1  0  0  0  0
 16 13  1  0  0  0  0
 17 19  1  0  0  0  0
 18 19  2  0  0  0  0
 19  6  1  0  0  0  0
 20 21  2  0  0  0  0
 20 22  1  0  0  0  0
 21 18  1  0  0  0  0
 22 17  2  0  0  0  0
 23 21  1  0  0  0  0
 24 23  1  0  0  0  0
 26 25  1  0  0  0  0
 27  5  1  0  0  0  0
 28 29  2  0  0  0  0
 29 27  1  0  0  0  0
 29 31  1  0  0  0  0
 31 32  1  0  0  0  0
 31 30  2  0  0  0  0
M  END
>  <MODEL>
9

>  <REMARK>
 VINA RESULT:      -8.0      3.160      7.868
  Name = 
  6 active torsions:
  status: ('A' for Active; 'I' for Inactive)
    1  A    between atoms: O_1  and  C_21
    2  A    between atoms: C_3  and  N_27
    3  A    between atoms: C_10  and  C_29
    4  A    between atoms: C_11  and  O_32
    5  A    between atoms: C_12  and  C_15
    6  A    between atoms: C_29  and  O_32
                            x       y       z     vdW  Elec       q    Type
                         _______ _______ _______ _____ _____    ______ ____

>  <TORSDO>
F 6

$$$$
