=
 OpenBabel11062414323D

 31 34  0  0  1  0  0  0  0  0999 V2000
  190.8100  176.4750  141.9500 C   0  0  2  0  0  3  0  0  0  0  0  0
  188.6240  178.7670  141.8920 O   0  0  0  0  0  0  0  0  0  0  0  0
  188.5650  177.6310  142.7110 C   0  0  1  0  0  3  0  0  0  0  0  0
  190.1440  176.4550  140.5810 C   0  0  0  0  0  2  0  0  0  0  0  0
  188.9570  179.1300  138.6350 N   0  0  0  0  0  1  0  0  0  0  0  0
  190.1930  177.7440  140.0390 O   0  0  0  0  0  0  0  0  0  0  0  0
  187.9390  178.4000  140.7260 C   0  0  0  0  0  2  0  0  0  0  0  0
  188.8970  178.0330  139.5830 C   0  0  1  0  0  3  0  0  0  0  0  0
  190.0560  175.7180  142.8730 O   0  0  0  0  0  0  0  0  0  0  0  0
  189.9800  177.1210  143.0150 C   0  0  1  0  0  0  0  0  0  0  0  0
  190.7230  177.6600  144.2520 C   0  0  1  0  0  3  0  0  0  0  0  0
  190.7590  179.1870  144.3550 C   0  0  0  0  0  1  0  0  0  0  0  0
  190.3430  176.9400  145.5570 C   0  0  1  0  0  3  0  0  0  0  0  0
  191.9820  176.8600  147.4400 O   0  0  0  0  0  1  0  0  0  0  0  0
  191.5560  176.3560  146.2150 C   0  0  0  0  0  0  0  0  0  0  0  0
  192.1800  175.4000  145.6810 O   0  0  0  0  0  0  0  0  0  0  0  0
  189.5450  177.8320  146.5150 C   0  0  0  0  0  2  0  0  0  0  0  0
  188.6280  177.0180  147.3750 C   0  0  0  0  0  3  0  0  0  0  0  0
  188.1770  177.4770  148.4130 O   0  0  0  0  0  0  0  0  0  0  0  0
  187.8550  177.9410  143.9480 N   0  0  0  0  0  2  0  0  0  0  0  0
  183.5520  178.4490  141.6800 C   0  0  0  0  0  0  0  0  0  0  0  0
  181.5640  178.9690  142.9770 C   0  0  0  0  0  3  0  0  0  0  0  0
  185.7010  178.1900  142.8350 C   0  0  0  0  0  3  0  0  0  0  0  0
  183.6880  178.6980  144.1040 C   0  0  0  0  0  0  0  0  0  0  0  0
  182.1790  178.7150  141.7470 C   0  0  0  0  0  3  0  0  0  0  0  0
  184.4380  178.6990  145.2830 C   0  0  0  0  0  3  0  0  0  0  0  0
  182.3170  178.9590  144.1530 C   0  0  0  0  0  3  0  0  0  0  0  0
  185.8120  178.4470  145.2400 C   0  0  0  0  0  3  0  0  0  0  0  0
  184.1620  178.1830  140.3450 C   0  0  0  0  0  1  0  0  0  0  0  0
  186.4480  178.1880  144.0170 C   0  0  0  0  0  0  0  0  0  0  0  0
  184.3190  178.4410  142.8620 C   0  0  0  0  0  0  0  0  0  0  0  0
  1  4  1  6  0  0  0
  1  9  1  0  0  0  0
  1 10  1  0  0  0  0
  2  3  1  0  0  0  0
  3 10  1  0  0  0  0
  3 20  1  1  0  0  0
  6  4  1  0  0  0  0
  7  2  1  0  0  0  0
  8  5  1  6  0  0  0
  8  6  1  0  0  0  0
  8  7  1  0  0  0  0
  9 10  1  0  0  0  0
 10 11  1  1  0  0  0
 11 12  1  1  0  0  0
 11 13  1  0  0  0  0
 13 15  1  0  0  0  0
 13 17  1  1  0  0  0
 15 14  1  0  0  0  0
 16 15  2  0  0  0  0
 17 18  1  0  0  0  0
 18 19  2  0  0  0  0
 20 30  1  0  0  0  0
 21 25  2  0  0  0  0
 21 31  1  0  0  0  0
 22 27  2  0  0  0  0
 23 31  2  0  0  0  0
 23 30  1  0  0  0  0
 24 27  1  0  0  0  0
 24 26  2  0  0  0  0
 25 22  1  0  0  0  0
 28 26  1  0  0  0  0
 29 21  1  0  0  0  0
 30 28  2  0  0  0  0
 31 24  1  0  0  0  0
M  END
>  <MODEL>
1

>  <REMARK>
 VINA RESULT:      -9.8      0.000      0.000
  Name = 
  7 active torsions:
  status: ('A' for Active; 'I' for Inactive)
    1  A    between atoms: C_3  and  C_20
    2  A    between atoms: C_3  and  C_26
    3  A    between atoms: C_8  and  N_11
    4  A    between atoms: N_11  and  C_25
    5  A    between atoms: C_18  and  C_26
    6  A    between atoms: C_26  and  C_29
    7  A    between atoms: C_28  and  C_29
                            x       y       z     vdW  Elec       q    Type
                         _______ _______ _______ _____ _____    ______ ____

>  <TORSDO>
F 7

$$$$
=
 OpenBabel11062414323D

 31 34  0  0  1  0  0  0  0  0999 V2000
  190.9970  176.5770  140.9500 C   0  0  2  0  0  3  0  0  0  0  0  0
  188.7540  178.7750  140.5350 O   0  0  0  0  0  0  0  0  0  0  0  0
  188.6480  177.6850  141.4100 C   0  0  1  0  0  3  0  0  0  0  0  0
  190.4770  176.4560  139.5240 C   0  0  0  0  0  2  0  0  0  0  0  0
  189.4090  178.9700  137.3120 N   0  0  0  0  0  1  0  0  0  0  0  0
  190.5390  177.7140  138.9140 O   0  0  0  0  0  0  0  0  0  0  0  0
  188.2050  178.3180  139.3290 C   0  0  0  0  0  2  0  0  0  0  0  0
  189.2880  177.9260  138.3130 C   0  0  1  0  0  3  0  0  0  0  0  0
  190.1770  175.8440  141.8350 O   0  0  0  0  0  0  0  0  0  0  0  0
  190.0410  177.2490  141.8840 C   0  0  1  0  0  0  0  0  0  0  0  0
  190.6330  177.8850  143.1570 C   0  0  1  0  0  3  0  0  0  0  0  0
  190.4820  179.4050  143.2350 C   0  0  0  0  0  1  0  0  0  0  0  0
  190.2580  177.1370  144.4470 C   0  0  1  0  0  3  0  0  0  0  0  0
  191.9260  176.8470  146.2840 O   0  0  0  0  0  1  0  0  0  0  0  0
  191.4560  176.4550  145.0340 C   0  0  0  0  0  0  0  0  0  0  0  0
  192.0280  175.5160  144.4180 O   0  0  0  0  0  0  0  0  0  0  0  0
  189.5530  178.0370  145.4690 C   0  0  0  0  0  2  0  0  0  0  0  0
  188.3550  177.3540  146.0540 C   0  0  0  0  0  3  0  0  0  0  0  0
  188.3440  177.0130  147.2270 O   0  0  0  0  0  0  0  0  0  0  0  0
  187.8040  178.0360  142.5470 N   0  0  0  0  0  2  0  0  0  0  0  0
  183.4990  178.7450  144.7560 C   0  0  0  0  0  0  0  0  0  0  0  0
  181.4860  178.9810  143.4160 C   0  0  0  0  0  3  0  0  0  0  0  0
  185.6510  178.3980  143.6310 C   0  0  0  0  0  3  0  0  0  0  0  0
  183.6170  178.6500  142.3200 C   0  0  0  0  0  0  0  0  0  0  0  0
  182.1150  178.9330  144.6640 C   0  0  0  0  0  3  0  0  0  0  0  0
  184.3620  178.5020  141.1470 C   0  0  0  0  0  3  0  0  0  0  0  0
  182.2360  178.8410  142.2470 C   0  0  0  0  0  3  0  0  0  0  0  0
  185.7420  178.3020  141.2140 C   0  0  0  0  0  3  0  0  0  0  0  0
  184.1250  178.7020  146.1100 C   0  0  0  0  0  1  0  0  0  0  0  0
  186.3940  178.2520  142.4550 C   0  0  0  0  0  0  0  0  0  0  0  0
  184.2620  178.5990  143.5800 C   0  0  0  0  0  0  0  0  0  0  0  0
  1  4  1  6  0  0  0
  1  9  1  0  0  0  0
  1 10  1  0  0  0  0
  2  3  1  0  0  0  0
  3 10  1  0  0  0  0
  3 20  1  1  0  0  0
  6  4  1  0  0  0  0
  7  2  1  0  0  0  0
  8  5  1  6  0  0  0
  8  6  1  0  0  0  0
  8  7  1  0  0  0  0
  9 10  1  0  0  0  0
 10 11  1  1  0  0  0
 11 12  1  1  0  0  0
 11 13  1  0  0  0  0
 13 15  1  0  0  0  0
 13 17  1  1  0  0  0
 15 14  1  0  0  0  0
 16 15  2  0  0  0  0
 17 18  1  0  0  0  0
 18 19  2  0  0  0  0
 21 29  1  0  0  0  0
 22 25  2  0  0  0  0
 24 31  1  0  0  0  0
 25 21  1  0  0  0  0
 26 28  2  0  0  0  0
 26 24  1  0  0  0  0
 27 24  2  0  0  0  0
 27 22  1  0  0  0  0
 28 30  1  0  0  0  0
 30 20  1  0  0  0  0
 30 23  2  0  0  0  0
 31 23  1  0  0  0  0
 31 21  2  0  0  0  0
M  END
>  <MODEL>
2

>  <REMARK>
 VINA RESULT:      -8.5      1.066      2.017
  Name = 
  7 active torsions:
  status: ('A' for Active; 'I' for Inactive)
    1  A    between atoms: C_3  and  C_20
    2  A    between atoms: C_3  and  C_26
    3  A    between atoms: C_8  and  N_11
    4  A    between atoms: N_11  and  C_25
    5  A    between atoms: C_18  and  C_26
    6  A    between atoms: C_26  and  C_29
    7  A    between atoms: C_28  and  C_29
                            x       y       z     vdW  Elec       q    Type
                         _______ _______ _______ _____ _____    ______ ____

>  <TORSDO>
F 7

$$$$
=
 OpenBabel11062414323D

 31 34  0  0  1  0  0  0  0  0999 V2000
  190.3420  175.6860  137.3470 C   0  0  2  0  0  3  0  0  0  0  0  0
  189.7040  178.2040  139.1580 O   0  0  0  0  0  0  0  0  0  0  0  0
  190.2820  177.0150  139.6230 C   0  0  1  0  0  3  0  0  0  0  0  0
  188.8310  175.8600  137.3930 C   0  0  0  0  0  2  0  0  0  0  0  0
  186.9230  178.8100  137.4980 N   0  0  0  0  0  1  0  0  0  0  0  0
  188.5190  177.1780  137.0410 O   0  0  0  0  0  0  0  0  0  0  0  0
  188.3250  178.0190  139.3300 C   0  0  0  0  0  2  0  0  0  0  0  0
  187.6240  177.6480  138.0140 C   0  0  1  0  0  3  0  0  0  0  0  0
  190.7850  174.9400  138.4610 O   0  0  0  0  0  0  0  0  0  0  0  0
  191.0590  176.3260  138.4930 C   0  0  1  0  0  0  0  0  0  0  0  0
  192.5470  176.6690  138.2880 C   0  0  1  0  0  3  0  0  0  0  0  0
  193.2540  177.1990  139.5370 C   0  0  0  0  0  1  0  0  0  0  0  0
  193.3260  175.5850  137.5240 C   0  0  1  0  0  3  0  0  0  0  0  0
  194.9530  176.8280  136.0950 O   0  0  0  0  0  1  0  0  0  0  0  0
  193.7750  176.0930  136.1890 C   0  0  0  0  0  0  0  0  0  0  0  0
  193.1090  175.8440  135.1480 O   0  0  0  0  0  0  0  0  0  0  0  0
  194.4890  175.0060  138.3380 C   0  0  0  0  0  2  0  0  0  0  0  0
  194.6710  173.5460  138.0590 C   0  0  0  0  0  3  0  0  0  0  0  0
  195.3030  172.8400  138.8290 O   0  0  0  0  0  0  0  0  0  0  0  0
  191.1610  177.2940  140.7550 N   0  0  0  0  0  2  0  0  0  0  0  0
  187.5640  177.6040  144.0520 C   0  0  0  0  0  0  0  0  0  0  0  0
  188.0820  177.4090  146.4180 C   0  0  0  0  0  3  0  0  0  0  0  0
  189.3790  177.4380  142.4110 C   0  0  0  0  0  3  0  0  0  0  0  0
  189.8610  177.2360  144.7880 C   0  0  0  0  0  0  0  0  0  0  0  0
  187.1520  177.5960  145.3900 C   0  0  0  0  0  3  0  0  0  0  0  0
  191.2160  177.0630  144.4930 C   0  0  0  0  0  3  0  0  0  0  0  0
  189.4330  177.2280  146.1170 C   0  0  0  0  0  3  0  0  0  0  0  0
  191.6520  177.0780  143.1650 C   0  0  0  0  0  3  0  0  0  0  0  0
  186.5340  177.8050  142.9910 C   0  0  0  0  0  1  0  0  0  0  0  0
  190.7350  177.2620  142.1190 C   0  0  0  0  0  0  0  0  0  0  0  0
  188.9260  177.4250  143.7410 C   0  0  0  0  0  0  0  0  0  0  0  0
  1  4  1  1  0  0  0
  1  9  1  0  0  0  0
  1 10  1  0  0  0  0
  2  7  1  0  0  0  0
  2  3  1  0  0  0  0
  3 20  1  1  0  0  0
  6  4  1  0  0  0  0
  6  8  1  0  0  0  0
  8  5  1  6  0  0  0
  8  7  1  0  0  0  0
  9 10  1  0  0  0  0
 10 11  1  6  0  0  0
 10  3  1  0  0  0  0
 11 12  1  1  0  0  0
 13 11  1  0  0  0  0
 13 17  1  1  0  0  0
 14 15  1  0  0  0  0
 15 13  1  0  0  0  0
 16 15  2  0  0  0  0
 18 17  1  0  0  0  0
 18 19  2  0  0  0  0
 20 30  1  0  0  0  0
 21 25  1  0  0  0  0
 23 31  1  0  0  0  0
 24 27  2  0  0  0  0
 25 22  2  0  0  0  0
 26 24  1  0  0  0  0
 27 22  1  0  0  0  0
 28 26  2  0  0  0  0
 29 21  1  0  0  0  0
 30 23  2  0  0  0  0
 30 28  1  0  0  0  0
 31 21  2  0  0  0  0
 31 24  1  0  0  0  0
M  END
>  <MODEL>
3

>  <REMARK>
 VINA RESULT:      -8.3      3.654      6.783
  Name = 
  7 active torsions:
  status: ('A' for Active; 'I' for Inactive)
    1  A    between atoms: C_3  and  C_20
    2  A    between atoms: C_3  and  C_26
    3  A    between atoms: C_8  and  N_11
    4  A    between atoms: N_11  and  C_25
    5  A    between atoms: C_18  and  C_26
    6  A    between atoms: C_26  and  C_29
    7  A    between atoms: C_28  and  C_29
                            x       y       z     vdW  Elec       q    Type
                         _______ _______ _______ _____ _____    ______ ____

>  <TORSDO>
F 7

$$$$
=
 OpenBabel11062414323D

 31 34  0  0  1  0  0  0  0  0999 V2000
  180.8930  176.3820  139.1900 C   0  0  2  0  0  3  0  0  0  0  0  0
  181.9520  179.2630  139.9720 O   0  0  0  0  0  0  0  0  0  0  0  0
  182.3580  178.0720  140.5880 C   0  0  1  0  0  3  0  0  0  0  0  0
  179.7260  177.1720  139.7660 C   0  0  0  0  0  2  0  0  0  0  0  0
  178.9800  180.5930  139.4710 N   0  0  0  0  0  1  0  0  0  0  0  0
  179.6290  178.3910  139.0860 O   0  0  0  0  0  0  0  0  0  0  0  0
  180.8650  179.7070  140.7370 C   0  0  0  0  0  2  0  0  0  0  0  0
  179.5190  179.3860  140.0700 C   0  0  1  0  0  3  0  0  0  0  0  0
  181.6370  175.7780  140.2270 O   0  0  0  0  0  0  0  0  0  0  0  0
  182.2340  176.8980  139.6070 C   0  0  1  0  0  0  0  0  0  0  0  0
  183.4340  176.5410  138.7070 C   0  0  1  0  0  3  0  0  0  0  0  0
  183.3900  175.1270  138.1250 C   0  0  0  0  0  1  0  0  0  0  0  0
  183.7860  177.6410  137.6920 C   0  0  1  0  0  3  0  0  0  0  0  0
  186.1550  177.1550  137.0690 O   0  0  0  0  0  0  0  0  0  0  0  0
  185.2470  177.9650  137.7440 C   0  0  0  0  0  0  0  0  0  0  0  0
  185.6600  178.9760  138.3740 O   0  0  0  0  0  1  0  0  0  0  0  0
  183.3250  177.3020  136.2690 C   0  0  0  0  0  2  0  0  0  0  0  0
  181.9760  177.8880  135.9840 C   0  0  0  0  0  3  0  0  0  0  0  0
  181.6040  178.9020  136.5550 O   0  0  0  0  0  0  0  0  0  0  0  0
  183.7310  178.1980  141.0670 N   0  0  0  0  0  2  0  0  0  0  0  0
  186.9840  177.6250  144.6730 C   0  0  0  0  0  0  0  0  0  0  0  0
  186.4050  178.3040  146.9330 C   0  0  0  0  0  3  0  0  0  0  0  0
  185.3430  177.9280  142.8750 C   0  0  0  0  0  3  0  0  0  0  0  0
  184.8000  178.6070  145.1470 C   0  0  0  0  0  0  0  0  0  0  0  0
  187.3160  177.7550  146.0260 C   0  0  0  0  0  3  0  0  0  0  0  0
  183.5400  179.0270  144.7150 C   0  0  0  0  0  3  0  0  0  0  0  0
  185.1500  178.7300  146.4940 C   0  0  0  0  0  3  0  0  0  0  0  0
  183.1810  178.8980  143.3710 C   0  0  0  0  0  3  0  0  0  0  0  0
  187.9910  177.0340  143.7440 C   0  0  0  0  0  1  0  0  0  0  0  0
  184.0820  178.3510  142.4450 C   0  0  0  0  0  0  0  0  0  0  0  0
  185.7180  178.0500  144.2220 C   0  0  0  0  0  0  0  0  0  0  0  0
  1 10  1  0  0  0  0
  1  4  1  1  0  0  0
  1  9  1  0  0  0  0
  2  3  1  0  0  0  0
  2  7  1  0  0  0  0
  3 20  1  6  0  0  0
  6  4  1  0  0  0  0
  6  8  1  0  0  0  0
  8  5  1  6  0  0  0
  8  7  1  0  0  0  0
 10 11  1  6  0  0  0
 10  9  1  0  0  0  0
 10  3  1  0  0  0  0
 11 12  1  6  0  0  0
 13 17  1  6  0  0  0
 13 15  1  0  0  0  0
 13 11  1  0  0  0  0
 14 15  2  0  0  0  0
 15 16  1  0  0  0  0
 18 17  1  0  0  0  0
 18 19  2  0  0  0  0
 20 30  1  0  0  0  0
 21 25  1  0  0  0  0
 23 31  1  0  0  0  0
 24 27  2  0  0  0  0
 25 22  2  0  0  0  0
 26 24  1  0  0  0  0
 27 22  1  0  0  0  0
 28 26  2  0  0  0  0
 29 21  1  0  0  0  0
 30 23  2  0  0  0  0
 30 28  1  0  0  0  0
 31 21  2  0  0  0  0
 31 24  1  0  0  0  0
M  END
>  <MODEL>
4

>  <REMARK>
 VINA RESULT:      -8.2      4.515      8.391
  Name = 
  7 active torsions:
  status: ('A' for Active; 'I' for Inactive)
    1  A    between atoms: C_3  and  C_20
    2  A    between atoms: C_3  and  C_26
    3  A    between atoms: C_8  and  N_11
    4  A    between atoms: N_11  and  C_25
    5  A    between atoms: C_18  and  C_26
    6  A    between atoms: C_26  and  C_29
    7  A    between atoms: C_28  and  C_29
                            x       y       z     vdW  Elec       q    Type
                         _______ _______ _______ _____ _____    ______ ____

>  <TORSDO>
F 7

$$$$
=
 OpenBabel11062414323D

 31 34  0  0  1  0  0  0  0  0999 V2000
  181.6560  176.9580  139.2920 C   0  0  2  0  0  3  0  0  0  0  0  0
  182.1390  179.2060  141.4710 O   0  0  0  0  0  0  0  0  0  0  0  0
  183.0140  178.1400  141.2190 C   0  0  1  0  0  3  0  0  0  0  0  0
  180.5800  176.8160  140.3600 C   0  0  0  0  0  2  0  0  0  0  0  0
  178.9310  179.3040  142.2150 N   0  0  0  0  0  1  0  0  0  0  0  0
  179.9580  178.0570  140.5400 O   0  0  0  0  0  0  0  0  0  0  0  0
  181.2870  178.7340  142.4790 C   0  0  0  0  0  2  0  0  0  0  0  0
  179.9260  178.2890  141.9240 C   0  0  1  0  0  3  0  0  0  0  0  0
  182.8250  176.2690  139.6790 O   0  0  0  0  0  0  0  0  0  0  0  0
  182.8800  177.6780  139.7620 C   0  0  1  0  0  0  0  0  0  0  0  0
  183.7690  178.3280  138.6830 C   0  0  1  0  0  3  0  0  0  0  0  0
  184.0230  179.8230  138.8890 C   0  0  0  0  0  1  0  0  0  0  0  0
  185.0240  177.5060  138.3460 C   0  0  1  0  0  3  0  0  0  0  0  0
  183.8860  177.0020  136.1810 O   0  0  0  0  0  0  0  0  0  0  0  0
  184.7710  176.6040  137.1780 C   0  0  0  0  0  0  0  0  0  0  0  0
  185.3690  175.4980  137.0780 O   0  0  0  0  0  1  0  0  0  0  0  0
  186.2660  178.3800  138.1370 C   0  0  0  0  0  2  0  0  0  0  0  0
  187.4220  177.8810  138.9490 C   0  0  0  0  0  3  0  0  0  0  0  0
  187.9110  178.5750  139.8270 O   0  0  0  0  0  0  0  0  0  0  0  0
  184.3870  178.5410  141.5070 N   0  0  0  0  0  2  0  0  0  0  0  0
  188.2100  177.2560  144.2710 C   0  0  0  0  0  0  0  0  0  0  0  0
  188.0940  177.5270  146.6830 C   0  0  0  0  0  3  0  0  0  0  0  0
  186.2870  177.9140  142.8990 C   0  0  0  0  0  3  0  0  0  0  0  0
  186.2090  178.1830  145.3170 C   0  0  0  0  0  0  0  0  0  0  0  0
  188.7930  177.1310  145.5380 C   0  0  0  0  0  3  0  0  0  0  0  0
  184.9150  178.7010  145.2120 C   0  0  0  0  0  3  0  0  0  0  0  0
  186.8060  178.0530  146.5720 C   0  0  0  0  0  3  0  0  0  0  0  0
  184.3100  178.8250  143.9590 C   0  0  0  0  0  3  0  0  0  0  0  0
  188.9960  176.8210  143.0800 C   0  0  0  0  0  1  0  0  0  0  0  0
  184.9930  178.4350  142.7980 C   0  0  0  0  0  0  0  0  0  0  0  0
  186.9090  177.7830  144.1510 C   0  0  0  0  0  0  0  0  0  0  0  0
  1  9  1  0  0  0  0
  1 10  1  0  0  0  0
  1  4  1  1  0  0  0
  2  7  1  0  0  0  0
  3  2  1  0  0  0  0
  3 20  1  6  0  0  0
  4  6  1  0  0  0  0
  6  8  1  0  0  0  0
  8  5  1  6  0  0  0
  8  7  1  0  0  0  0
  9 10  1  0  0  0  0
 10 11  1  6  0  0  0
 10  3  1  0  0  0  0
 11 12  1  1  0  0  0
 13 17  1  6  0  0  0
 13 11  1  0  0  0  0
 14 15  2  0  0  0  0
 15 13  1  0  0  0  0
 16 15  1  0  0  0  0
 17 18  1  0  0  0  0
 18 19  2  0  0  0  0
 20 30  1  0  0  0  0
 21 25  1  0  0  0  0
 23 31  1  0  0  0  0
 24 27  2  0  0  0  0
 25 22  2  0  0  0  0
 26 24  1  0  0  0  0
 27 22  1  0  0  0  0
 28 26  2  0  0  0  0
 29 21  1  0  0  0  0
 30 23  2  0  0  0  0
 30 28  1  0  0  0  0
 31 21  2  0  0  0  0
 31 24  1  0  0  0  0
M  END
>  <MODEL>
5

>  <REMARK>
 VINA RESULT:      -8.2      3.761      7.813
  Name = 
  7 active torsions:
  status: ('A' for Active; 'I' for Inactive)
    1  A    between atoms: C_3  and  C_20
    2  A    between atoms: C_3  and  C_26
    3  A    between atoms: C_8  and  N_11
    4  A    between atoms: N_11  and  C_25
    5  A    between atoms: C_18  and  C_26
    6  A    between atoms: C_26  and  C_29
    7  A    between atoms: C_28  and  C_29
                            x       y       z     vdW  Elec       q    Type
                         _______ _______ _______ _____ _____    ______ ____

>  <TORSDO>
F 7

$$$$
=
 OpenBabel11062414323D

 31 34  0  0  1  0  0  0  0  0999 V2000
  189.2810  176.4100  142.5530 C   0  0  2  0  0  3  0  0  0  0  0  0
  187.6410  178.9900  141.7220 O   0  0  0  0  0  0  0  0  0  0  0  0
  187.1400  177.9500  142.5180 C   0  0  1  0  0  3  0  0  0  0  0  0
  189.0780  176.3730  141.0450 C   0  0  0  0  0  2  0  0  0  0  0  0
  189.0210  179.0170  138.7300 N   0  0  0  0  0  1  0  0  0  0  0  0
  189.5090  177.5880  140.5020 O   0  0  0  0  0  0  0  0  0  0  0  0
  187.2970  178.6300  140.4110 C   0  0  0  0  0  2  0  0  0  0  0  0
  188.4860  178.0270  139.6480 C   0  0  1  0  0  3  0  0  0  0  0  0
  188.1630  175.8570  143.2130 O   0  0  0  0  0  0  0  0  0  0  0  0
  188.2850  177.2630  143.2740 C   0  0  1  0  0  0  0  0  0  0  0  0
  188.6890  177.7890  144.6650 C   0  0  1  0  0  3  0  0  0  0  0  0
  187.6690  177.5070  145.7700 C   0  0  0  0  0  1  0  0  0  0  0  0
  190.1450  177.4700  145.0420 C   0  0  1  0  0  3  0  0  0  0  0  0
  190.9230  179.7390  144.3440 O   0  0  0  0  0  1  0  0  0  0  0  0
  191.0940  178.3590  144.2980 C   0  0  0  0  0  0  0  0  0  0  0  0
  192.0580  177.8700  143.6490 O   0  0  0  0  0  0  0  0  0  0  0  0
  190.3880  177.5130  146.5550 C   0  0  0  0  0  2  0  0  0  0  0  0
  191.4760  176.5630  146.9550 C   0  0  0  0  0  3  0  0  0  0  0  0
  192.1250  176.7530  147.9720 O   0  0  0  0  0  0  0  0  0  0  0  0
  186.1460  178.4680  143.4520 N   0  0  0  0  0  2  0  0  0  0  0  0
  182.4710  177.9960  140.2610 C   0  0  0  0  0  0  0  0  0  0  0  0
  180.1970  178.4810  140.9660 C   0  0  0  0  0  3  0  0  0  0  0  0
  184.3010  178.2300  141.8770 C   0  0  0  0  0  3  0  0  0  0  0  0
  182.0110  178.6970  142.5530 C   0  0  0  0  0  0  0  0  0  0  0  0
  181.1030  178.0900  139.9760 C   0  0  0  0  0  3  0  0  0  0  0  0
  182.4600  179.0080  143.8390 C   0  0  0  0  0  3  0  0  0  0  0  0
  180.6500  178.7830  142.2520 C   0  0  0  0  0  3  0  0  0  0  0  0
  183.8210  178.9330  144.1440 C   0  0  0  0  0  3  0  0  0  0  0  0
  183.3980  177.5730  139.1720 C   0  0  0  0  0  1  0  0  0  0  0  0
  184.7470  178.5400  143.1660 C   0  0  0  0  0  0  0  0  0  0  0  0
  182.9360  178.3020  141.5550 C   0  0  0  0  0  0  0  0  0  0  0  0
  1  4  1  6  0  0  0
  1  9  1  0  0  0  0
  1 10  1  0  0  0  0
  2  3  1  0  0  0  0
  3 10  1  0  0  0  0
  3 20  1  1  0  0  0
  6  4  1  0  0  0  0
  7  2  1  0  0  0  0
  8  5  1  6  0  0  0
  8  7  1  0  0  0  0
  8  6  1  0  0  0  0
  9 10  1  0  0  0  0
 10 11  1  1  0  0  0
 11 13  1  0  0  0  0
 11 12  1  1  0  0  0
 13 17  1  1  0  0  0
 15 14  1  0  0  0  0
 15 13  1  0  0  0  0
 16 15  2  0  0  0  0
 17 18  1  0  0  0  0
 18 19  2  0  0  0  0
 21 31  1  0  0  0  0
 22 27  2  0  0  0  0
 23 30  1  0  0  0  0
 24 26  2  0  0  0  0
 25 21  2  0  0  0  0
 25 22  1  0  0  0  0
 26 28  1  0  0  0  0
 27 24  1  0  0  0  0
 29 21  1  0  0  0  0
 30 20  1  0  0  0  0
 30 28  2  0  0  0  0
 31 23  2  0  0  0  0
 31 24  1  0  0  0  0
M  END
>  <MODEL>
6

>  <REMARK>
 VINA RESULT:      -8.0      1.445      2.206
  Name = 
  7 active torsions:
  status: ('A' for Active; 'I' for Inactive)
    1  A    between atoms: C_3  and  C_20
    2  A    between atoms: C_3  and  C_26
    3  A    between atoms: C_8  and  N_11
    4  A    between atoms: N_11  and  C_25
    5  A    between atoms: C_18  and  C_26
    6  A    between atoms: C_26  and  C_29
    7  A    between atoms: C_28  and  C_29
                            x       y       z     vdW  Elec       q    Type
                         _______ _______ _______ _____ _____    ______ ____

>  <TORSDO>
F 7

$$$$
=
 OpenBabel11062414323D

 31 34  0  0  1  0  0  0  0  0999 V2000
  185.9770  176.3360  136.6630 C   0  0  2  0  0  3  0  0  0  0  0  0
  185.6830  178.9500  138.4280 O   0  0  0  0  0  0  0  0  0  0  0  0
  186.5270  177.8740  138.7340 C   0  0  1  0  0  3  0  0  0  0  0  0
  184.5620  176.3690  137.2220 C   0  0  0  0  0  2  0  0  0  0  0  0
  182.4510  179.1180  137.8060 N   0  0  0  0  0  1  0  0  0  0  0  0
  183.9870  177.6080  136.9210 O   0  0  0  0  0  0  0  0  0  0  0  0
  184.4770  178.6520  139.0790 C   0  0  0  0  0  2  0  0  0  0  0  0
  183.4240  178.0860  138.1150 C   0  0  1  0  0  3  0  0  0  0  0  0
  186.8610  175.7520  137.5970 O   0  0  0  0  0  0  0  0  0  0  0  0
  186.9540  177.1530  137.4480 C   0  0  1  0  0  0  0  0  0  0  0  0
  188.2300  177.6150  136.7170 C   0  0  1  0  0  3  0  0  0  0  0  0
  188.6430  179.0580  137.0130 C   0  0  0  0  0  1  0  0  0  0  0  0
  189.3780  176.5950  136.7850 C   0  0  1  0  0  3  0  0  0  0  0  0
  188.9000  175.3510  134.6730 O   0  0  0  0  0  0  0  0  0  0  0  0
  189.7720  176.1450  135.4110 C   0  0  0  0  0  0  0  0  0  0  0  0
  190.8750  176.4960  134.9110 O   0  0  0  0  0  1  0  0  0  0  0  0
  190.5810  177.1080  137.5860 C   0  0  0  0  0  2  0  0  0  0  0  0
  191.0140  176.1080  138.6130 C   0  0  0  0  0  3  0  0  0  0  0  0
  191.0520  174.9170  138.3440 O   0  0  0  0  0  0  0  0  0  0  0  0
  187.6950  178.3480  139.4700 N   0  0  0  0  0  2  0  0  0  0  0  0
  186.0530  178.1860  144.0730 C   0  0  0  0  0  0  0  0  0  0  0  0
  187.5510  177.5020  145.8600 C   0  0  0  0  0  3  0  0  0  0  0  0
  186.8910  178.2530  141.7690 C   0  0  0  0  0  3  0  0  0  0  0  0
  188.3610  177.5620  143.5810 C   0  0  0  0  0  0  0  0  0  0  0  0
  186.2930  177.9360  145.4290 C   0  0  0  0  0  3  0  0  0  0  0  0
  189.3990  177.3810  142.6620 C   0  0  0  0  0  3  0  0  0  0  0  0
  188.5820  177.3150  144.9370 C   0  0  0  0  0  3  0  0  0  0  0  0
  189.1860  177.6360  141.3050 C   0  0  0  0  0  3  0  0  0  0  0  0
  184.6940  178.6460  143.6630 C   0  0  0  0  0  1  0  0  0  0  0  0
  187.9310  178.0690  140.8520 C   0  0  0  0  0  0  0  0  0  0  0  0
  187.0900  178.0030  143.1360 C   0  0  0  0  0  0  0  0  0  0  0  0
  1  4  1  1  0  0  0
  1 10  1  0  0  0  0
  1  9  1  0  0  0  0
  2  3  1  0  0  0  0
  2  7  1  0  0  0  0
  3 20  1  6  0  0  0
  6  4  1  0  0  0  0
  6  8  1  0  0  0  0
  8  5  1  6  0  0  0
  8  7  1  0  0  0  0
 10 11  1  6  0  0  0
 10  9  1  0  0  0  0
 10  3  1  0  0  0  0
 11 13  1  0  0  0  0
 11 12  1  1  0  0  0
 13 17  1  6  0  0  0
 14 15  2  0  0  0  0
 15 13  1  0  0  0  0
 16 15  1  0  0  0  0
 17 18  1  0  0  0  0
 19 18  2  0  0  0  0
 20 30  1  0  0  0  0
 21 25  1  0  0  0  0
 23 31  1  0  0  0  0
 24 27  2  0  0  0  0
 25 22  2  0  0  0  0
 26 24  1  0  0  0  0
 27 22  1  0  0  0  0
 28 26  2  0  0  0  0
 29 21  1  0  0  0  0
 30 28  1  0  0  0  0
 30 23  2  0  0  0  0
 31 24  1  0  0  0  0
 31 21  2  0  0  0  0
M  END
>  <MODEL>
7

>  <REMARK>
 VINA RESULT:      -8.0      3.654      6.991
  Name = 
  7 active torsions:
  status: ('A' for Active; 'I' for Inactive)
    1  A    between atoms: C_3  and  C_20
    2  A    between atoms: C_3  and  C_26
    3  A    between atoms: C_8  and  N_11
    4  A    between atoms: N_11  and  C_25
    5  A    between atoms: C_18  and  C_26
    6  A    between atoms: C_26  and  C_29
    7  A    between atoms: C_28  and  C_29
                            x       y       z     vdW  Elec       q    Type
                         _______ _______ _______ _____ _____    ______ ____

>  <TORSDO>
F 7

$$$$
=
 OpenBabel11062414323D

 31 34  0  0  1  0  0  0  0  0999 V2000
  184.4150  177.0000  137.0390 C   0  0  2  0  0  3  0  0  0  0  0  0
  184.7920  179.6560  138.7240 O   0  0  0  0  0  0  0  0  0  0  0  0
  185.3730  178.4210  139.0440 C   0  0  1  0  0  3  0  0  0  0  0  0
  183.0640  177.3770  137.6310 C   0  0  0  0  0  2  0  0  0  0  0  0
  181.6710  180.5570  138.1760 N   0  0  0  0  0  1  0  0  0  0  0  0
  182.7850  178.7080  137.3040 O   0  0  0  0  0  0  0  0  0  0  0  0
  183.5720  179.6640  139.4140 C   0  0  0  0  0  2  0  0  0  0  0  0
  182.3860  179.3350  138.4950 C   0  0  1  0  0  3  0  0  0  0  0  0
  185.1670  176.2500  137.9680 O   0  0  0  0  0  0  0  0  0  0  0  0
  185.5800  177.5870  137.7720 C   0  0  1  0  0  0  0  0  0  0  0  0
  186.9040  177.7190  136.9950 C   0  0  1  0  0  3  0  0  0  0  0  0
  187.4090  179.1550  136.8440 C   0  0  0  0  0  1  0  0  0  0  0  0
  187.9750  176.7070  137.4340 C   0  0  1  0  0  3  0  0  0  0  0  0
  188.6780  175.8250  135.2050 O   0  0  0  0  0  0  0  0  0  0  0  0
  188.0880  175.5890  136.4430 C   0  0  0  0  0  0  0  0  0  0  0  0
  187.6740  174.4320  136.7290 O   0  0  0  0  0  1  0  0  0  0  0  0
  189.3320  177.3640  137.7130 C   0  0  0  0  0  2  0  0  0  0  0  0
  190.0260  176.7030  138.8640 C   0  0  0  0  0  3  0  0  0  0  0  0
  190.5870  175.6280  138.7190 O   0  0  0  0  0  0  0  0  0  0  0  0
  186.6410  178.6280  139.7350 N   0  0  0  0  0  2  0  0  0  0  0  0
  184.9370  178.6160  144.3180 C   0  0  0  0  0  0  0  0  0  0  0  0
  186.3720  177.8740  146.1320 C   0  0  0  0  0  3  0  0  0  0  0  0
  185.8050  178.6070  142.0240 C   0  0  0  0  0  3  0  0  0  0  0  0
  187.2120  177.8590  143.8630 C   0  0  0  0  0  0  0  0  0  0  0  0
  185.1460  178.3700  145.6800 C   0  0  0  0  0  3  0  0  0  0  0  0
  188.2500  177.6100  142.9610 C   0  0  0  0  0  3  0  0  0  0  0  0
  187.4020  177.6180  145.2250 C   0  0  0  0  0  3  0  0  0  0  0  0
  188.0680  177.8580  141.5980 C   0  0  0  0  0  3  0  0  0  0  0  0
  183.6100  179.1440  143.8850 C   0  0  0  0  0  1  0  0  0  0  0  0
  186.8450  178.3540  141.1240 C   0  0  0  0  0  0  0  0  0  0  0  0
  185.9730  178.3640  143.3970 C   0  0  0  0  0  0  0  0  0  0  0  0
  1  4  1  1  0  0  0
  1 10  1  0  0  0  0
  1  9  1  0  0  0  0
  2  3  1  0  0  0  0
  2  7  1  0  0  0  0
  3 20  1  6  0  0  0
  6  4  1  0  0  0  0
  6  8  1  0  0  0  0
  8  5  1  6  0  0  0
  8  7  1  0  0  0  0
 10 11  1  6  0  0  0
 10  9  1  0  0  0  0
 10  3  1  0  0  0  0
 11 12  1  1  0  0  0
 11 13  1  0  0  0  0
 13 17  1  6  0  0  0
 14 15  2  0  0  0  0
 15 16  1  0  0  0  0
 15 13  1  0  0  0  0
 17 18  1  0  0  0  0
 19 18  2  0  0  0  0
 20 30  1  0  0  0  0
 21 25  1  0  0  0  0
 23 31  1  0  0  0  0
 24 27  2  0  0  0  0
 25 22  2  0  0  0  0
 26 24  1  0  0  0  0
 27 22  1  0  0  0  0
 28 26  2  0  0  0  0
 29 21  1  0  0  0  0
 30 28  1  0  0  0  0
 30 23  2  0  0  0  0
 31 24  1  0  0  0  0
 31 21  2  0  0  0  0
M  END
>  <MODEL>
8

>  <REMARK>
 VINA RESULT:      -8.0      3.659      6.920
  Name = 
  7 active torsions:
  status: ('A' for Active; 'I' for Inactive)
    1  A    between atoms: C_3  and  C_20
    2  A    between atoms: C_3  and  C_26
    3  A    between atoms: C_8  and  N_11
    4  A    between atoms: N_11  and  C_25
    5  A    between atoms: C_18  and  C_26
    6  A    between atoms: C_26  and  C_29
    7  A    between atoms: C_28  and  C_29
                            x       y       z     vdW  Elec       q    Type
                         _______ _______ _______ _____ _____    ______ ____

>  <TORSDO>
F 7

$$$$
=
 OpenBabel11062414323D

 31 34  0  0  1  0  0  0  0  0999 V2000
  180.9730  178.5860  137.9620 C   0  0  2  0  0  3  0  0  0  0  0  0
  183.4510  177.3470  139.4980 O   0  0  0  0  0  0  0  0  0  0  0  0
  183.3040  178.7060  139.1900 C   0  0  1  0  0  3  0  0  0  0  0  0
  181.7120  177.6680  136.9980 C   0  0  0  0  0  2  0  0  0  0  0  0
  183.3710  174.6340  137.6280 N   0  0  0  0  0  1  0  0  0  0  0  0
  181.8730  176.4170  137.6030 O   0  0  0  0  0  0  0  0  0  0  0  0
  184.1500  176.8090  138.4080 C   0  0  0  0  0  2  0  0  0  0  0  0
  183.2220  176.0660  137.4360 C   0  0  1  0  0  3  0  0  0  0  0  0
  181.5580  179.8710  137.9630 O   0  0  0  0  0  0  0  0  0  0  0  0
  181.8160  179.0720  139.0990 C   0  0  1  0  0  0  0  0  0  0  0  0
  181.0790  179.5420  140.3680 C   0  0  1  0  0  3  0  0  0  0  0  0
  180.1010  180.6960  140.1420 C   0  0  0  0  0  1  0  0  0  0  0  0
  180.5210  178.3870  141.2160 C   0  0  1  0  0  3  0  0  0  0  0  0
  181.4040  179.7460  143.1160 O   0  0  0  0  0  0  0  0  0  0  0  0
  180.5660  178.7270  142.6740 C   0  0  0  0  0  0  0  0  0  0  0  0
  179.8380  178.1130  143.5010 O   0  0  0  0  0  1  0  0  0  0  0  0
  179.1190  177.9510  140.7730 C   0  0  0  0  0  2  0  0  0  0  0  0
  179.0860  176.4910  140.4420 C   0  0  0  0  0  3  0  0  0  0  0  0
  179.2660  175.6510  141.3110 O   0  0  0  0  0  0  0  0  0  0  0  0
  183.9730  179.5230  140.1980 N   0  0  0  0  0  2  0  0  0  0  0  0
  185.1640  178.3000  144.7800 C   0  0  0  0  0  0  0  0  0  0  0  0
  187.3920  177.4580  145.2580 C   0  0  0  0  0  3  0  0  0  0  0  0
  184.5810  178.9000  142.4740 C   0  0  0  0  0  3  0  0  0  0  0  0
  186.8000  178.0430  142.9870 C   0  0  0  0  0  0  0  0  0  0  0  0
  186.1140  177.8220  145.6910 C   0  0  0  0  0  3  0  0  0  0  0  0
  187.1490  178.1580  141.6390 C   0  0  0  0  0  3  0  0  0  0  0  0
  187.7340  177.5670  143.9090 C   0  0  0  0  0  3  0  0  0  0  0  0
  186.2220  178.6430  140.7130 C   0  0  0  0  0  3  0  0  0  0  0  0
  183.8130  178.6750  145.2900 C   0  0  0  0  0  1  0  0  0  0  0  0
  184.9330  179.0120  141.1260 C   0  0  0  0  0  0  0  0  0  0  0  0
  185.5020  178.4160  143.4170 C   0  0  0  0  0  0  0  0  0  0  0  0
  1  4  1  6  0  0  0
  1  9  1  0  0  0  0
  1 10  1  0  0  0  0
  3  2  1  0  0  0  0
  3 20  1  1  0  0  0
  4  6  1  0  0  0  0
  7  2  1  0  0  0  0
  8  6  1  0  0  0  0
  8  5  1  1  0  0  0
  8  7  1  0  0  0  0
  9 10  1  0  0  0  0
 10  3  1  0  0  0  0
 10 11  1  1  0  0  0
 11 12  1  6  0  0  0
 11 13  1  0  0  0  0
 13 17  1  6  0  0  0
 13 15  1  0  0  0  0
 15 14  2  0  0  0  0
 15 16  1  0  0  0  0
 18 17  1  0  0  0  0
 18 19  2  0  0  0  0
 20 30  1  0  0  0  0
 21 29  1  0  0  0  0
 21 25  1  0  0  0  0
 22 25  2  0  0  0  0
 23 31  1  0  0  0  0
 24 31  1  0  0  0  0
 24 27  2  0  0  0  0
 26 24  1  0  0  0  0
 27 22  1  0  0  0  0
 28 30  1  0  0  0  0
 28 26  2  0  0  0  0
 30 23  2  0  0  0  0
 31 21  2  0  0  0  0
M  END
>  <MODEL>
9

>  <REMARK>
 VINA RESULT:      -7.6      4.591      8.290
  Name = 
  7 active torsions:
  status: ('A' for Active; 'I' for Inactive)
    1  A    between atoms: C_3  and  C_20
    2  A    between atoms: C_3  and  C_26
    3  A    between atoms: C_8  and  N_11
    4  A    between atoms: N_11  and  C_25
    5  A    between atoms: C_18  and  C_26
    6  A    between atoms: C_26  and  C_29
    7  A    between atoms: C_28  and  C_29
                            x       y       z     vdW  Elec       q    Type
                         _______ _______ _______ _____ _____    ______ ____

>  <TORSDO>
F 7

$$$$
