=
 OpenBabel11062412423D

 32 35  0  0  1  0  0  0  0  0999 V2000
  185.3310  177.7360  144.1050 N   0  0  0  0  0  2  0  0  0  0  0  0
  182.9110  179.2000  141.8410 C   0  0  2  0  0  3  0  0  0  0  0  0
  184.2120  179.0590  139.7150 P   0  0  2  0  0  0  0  0  0  0  0  0
  183.1030  178.7580  144.1500 C   0  0  0  0  0  2  0  0  0  0  0  0
  184.3070  180.3930  139.0130 O   0  0  0  0  0  0  0  0  0  0  0  0
  182.1010  178.6820  142.9910 C   0  0  0  0  0  2  0  0  0  0  0  0
  182.5640  178.8330  140.4300 C   0  0  0  0  0  2  0  0  0  0  0  0
  185.0950  180.0500  143.7610 O   0  0  0  0  0  1  0  0  0  0  0  0
  184.2450  178.5690  142.0650 C   0  0  1  0  0  3  0  0  0  0  0  0
  185.1590  179.0790  141.1270 O   0  0  0  0  0  0  0  0  0  0  0  0
  184.5110  178.8020  143.5350 C   0  0  1  0  0  0  0  0  0  0  0  0
  184.6550  177.8000  138.6640 O   0  0  0  0  0  0  0  0  0  0  0  0
  187.4060  177.3740  137.6580 C   0  0  0  0  0  2  0  0  0  0  0  0
  186.1320  177.2850  136.8700 C   0  0  0  0  0  2  0  0  0  0  0  0
  185.6580  178.3290  137.8430 C   0  0  2  0  0  3  0  0  0  0  0  0
  186.8800  178.3380  138.5330 O   0  0  0  0  0  0  0  0  0  0  0  0
  188.3790  177.4470  146.2620 C   0  0  0  0  0  3  0  0  0  0  0  0
  187.5350  177.3510  145.1460 C   0  0  0  0  0  0  0  0  0  0  0  0
  187.9290  178.0320  147.4500 C   0  0  0  0  0  3  0  0  0  0  0  0
  186.2170  177.8560  145.2300 C   0  0  0  0  0  0  0  0  0  0  0  0
  185.7760  178.4370  146.4300 C   0  0  0  0  0  3  0  0  0  0  0  0
  186.6260  178.5270  147.5330 C   0  0  0  0  0  3  0  0  0  0  0  0
  189.1430  177.3210  143.1700 N   0  0  0  0  0  2  0  0  0  0  0  0
  187.5140  175.6910  143.4570 O   0  0  0  0  0  0  0  0  0  0  0  0
  188.0520  176.7380  143.9030 C   0  0  0  0  0  0  0  0  0  0  0  0
  189.9970  178.3780  143.6940 C   0  0  0  0  0  2  0  0  0  0  0  0
  191.4550  177.9400  143.6660 C   0  0  2  0  0  3  0  0  0  0  0  0
  191.6340  176.7220  144.5170 C   0  0  0  0  0  0  0  0  0  0  0  0
  191.7170  175.5800  143.9920 O   0  0  0  0  0  0  0  0  0  0  0  0
  191.7770  176.8640  145.9270 N   0  0  0  0  0  1  0  0  0  0  0  0
  192.2740  178.9790  144.1130 O   0  0  0  0  0  0  0  0  0  0  0  0
  191.4110  180.0540  144.3290 C   0  0  0  0  0  1  0  0  0  0  0  0
  1 20  1  0  0  0  0
  2  7  1  6  0  0  0
  2  9  1  0  0  0  0
  2  6  1  0  0  0  0
  3  5  2  6  0  0  0
  3  7  1  0  0  0  0
  3 10  1  0  0  0  0
  6  4  1  0  0  0  0
  9 10  1  6  0  0  0
  9 11  1  0  0  0  0
 11  8  1  1  0  0  0
 11  1  1  0  0  0  0
 11  4  1  0  0  0  0
 12  3  1  0  0  0  0
 13 16  1  0  0  0  0
 14 13  1  0  0  0  0
 14 15  1  0  0  0  0
 15 16  1  0  0  0  0
 15 12  1  1  0  0  0
 17 19  1  0  0  0  0
 18 20  1  0  0  0  0
 18 17  2  0  0  0  0
 19 22  2  0  0  0  0
 20 21  2  0  0  0  0
 21 22  1  0  0  0  0
 23 26  1  0  0  0  0
 23 25  1  0  0  0  0
 24 25  2  0  0  0  0
 25 18  1  0  0  0  0
 27 26  1  1  0  0  0
 27 31  1  0  0  0  0
 27 28  1  0  0  0  0
 28 30  1  0  0  0  0
 29 28  2  0  0  0  0
 31 32  1  0  0  0  0
M  END
>  <MODEL>
1

>  <REMARK>
 VINA RESULT:      -8.0      0.000      0.000
  Name = 
  9 active torsions:
  status: ('A' for Active; 'I' for Inactive)
    1  A    between atoms: N_1  and  C_16
    2  A    between atoms: N_1  and  C_29
    3  A    between atoms: O_3  and  C_13
    4  A    between atoms: C_7  and  C_31
    5  A    between atoms: C_8  and  C_13
    6  A    between atoms: P_10  and  O_23
    7  A    between atoms: C_13  and  C_26
    8  A    between atoms: N_15  and  C_26
    9  A    between atoms: O_23  and  C_28
                            x       y       z     vdW  Elec       q    Type
                         _______ _______ _______ _____ _____    ______ ____

>  <TORSDO>
F 9

$$$$
=
 OpenBabel11062412423D

 32 35  0  0  1  0  0  0  0  0999 V2000
  185.4760  177.7510  142.7980 N   0  0  0  0  0  2  0  0  0  0  0  0
  185.5840  178.8080  139.3340 C   0  0  2  0  0  3  0  0  0  0  0  0
  187.9210  178.1290  138.7790 P   0  0  2  0  0  0  0  0  0  0  0  0
  184.0660  178.8790  141.1380 C   0  0  0  0  0  2  0  0  0  0  0  0
  188.7240  179.2670  138.1940 O   0  0  0  0  0  0  0  0  0  0  0  0
  184.1290  178.6020  139.6310 C   0  0  0  0  0  2  0  0  0  0  0  0
  186.2250  178.1570  138.1460 C   0  0  0  0  0  2  0  0  0  0  0  0
  185.9910  179.9420  142.1140 O   0  0  0  0  0  1  0  0  0  0  0  0
  186.2540  178.1700  140.5050 C   0  0  1  0  0  3  0  0  0  0  0  0
  187.6370  178.4090  140.4310 O   0  0  0  0  0  0  0  0  0  0  0  0
  185.4890  178.7080  141.6940 C   0  0  1  0  0  0  0  0  0  0  0  0
  188.7040  176.6460  138.5050 O   0  0  0  0  0  0  0  0  0  0  0  0
  191.4010  175.5080  138.0690 C   0  0  0  0  0  2  0  0  0  0  0  0
  190.7070  176.5380  137.2250 C   0  0  0  0  0  2  0  0  0  0  0  0
  190.0740  176.9320  138.5310 C   0  0  2  0  0  3  0  0  0  0  0  0
  190.7540  175.9310  139.2410 O   0  0  0  0  0  0  0  0  0  0  0  0
  187.6630  177.5560  145.8320 C   0  0  0  0  0  3  0  0  0  0  0  0
  187.1910  177.3540  144.5270 C   0  0  0  0  0  0  0  0  0  0  0  0
  186.9550  178.3610  146.7300 C   0  0  0  0  0  3  0  0  0  0  0  0
  185.9880  177.9750  144.1210 C   0  0  0  0  0  0  0  0  0  0  0  0
  185.2840  178.7770  145.0350 C   0  0  0  0  0  3  0  0  0  0  0  0
  185.7650  178.9720  146.3310 C   0  0  0  0  0  3  0  0  0  0  0  0
  189.2210  176.9530  143.0410 N   0  0  0  0  0  2  0  0  0  0  0  0
  187.5350  175.3740  143.2730 O   0  0  0  0  0  0  0  0  0  0  0  0
  187.9750  176.5070  143.6010 C   0  0  0  0  0  0  0  0  0  0  0  0
  189.9500  178.1220  143.5150 C   0  0  0  0  0  2  0  0  0  0  0  0
  191.4220  177.7830  143.7080 C   0  0  2  0  0  3  0  0  0  0  0  0
  191.5550  176.6200  144.6410 C   0  0  0  0  0  0  0  0  0  0  0  0
  191.9690  175.5060  144.2210 O   0  0  0  0  0  0  0  0  0  0  0  0
  191.2740  176.7930  146.0260 N   0  0  0  0  0  1  0  0  0  0  0  0
  192.1070  178.8940  144.2040 O   0  0  0  0  0  0  0  0  0  0  0  0
  191.1790  179.9360  144.1710 C   0  0  0  0  0  1  0  0  0  0  0  0
  1 20  1  0  0  0  0
  2  7  1  6  0  0  0
  2  6  1  0  0  0  0
  2  9  1  0  0  0  0
  3  5  2  6  0  0  0
  3 10  1  0  0  0  0
  4 11  1  0  0  0  0
  6  4  1  0  0  0  0
  7  3  1  0  0  0  0
  9 10  1  1  0  0  0
  9 11  1  0  0  0  0
 11  8  1  1  0  0  0
 11  1  1  0  0  0  0
 12  3  1  0  0  0  0
 13 16  1  0  0  0  0
 14 13  1  0  0  0  0
 14 15  1  0  0  0  0
 15 12  1  6  0  0  0
 15 16  1  0  0  0  0
 17 19  1  0  0  0  0
 18 17  2  0  0  0  0
 20 18  1  0  0  0  0
 20 21  2  0  0  0  0
 21 22  1  0  0  0  0
 22 19  2  0  0  0  0
 23 26  1  0  0  0  0
 23 25  1  0  0  0  0
 24 25  2  0  0  0  0
 25 18  1  0  0  0  0
 27 26  1  1  0  0  0
 27 31  1  0  0  0  0
 27 28  1  0  0  0  0
 28 30  1  0  0  0  0
 29 28  2  0  0  0  0
 32 31  1  0  0  0  0
M  END
>  <MODEL>
2

>  <REMARK>
 VINA RESULT:      -7.9      1.911      2.684
  Name = 
  9 active torsions:
  status: ('A' for Active; 'I' for Inactive)
    1  A    between atoms: N_1  and  C_16
    2  A    between atoms: N_1  and  C_29
    3  A    between atoms: O_3  and  C_13
    4  A    between atoms: C_7  and  C_31
    5  A    between atoms: C_8  and  C_13
    6  A    between atoms: P_10  and  O_23
    7  A    between atoms: C_13  and  C_26
    8  A    between atoms: N_15  and  C_26
    9  A    between atoms: O_23  and  C_28
                            x       y       z     vdW  Elec       q    Type
                         _______ _______ _______ _____ _____    ______ ____

>  <TORSDO>
F 9

$$$$
=
 OpenBabel11062412423D

 32 35  0  0  1  0  0  0  0  0999 V2000
  187.3740  178.0110  143.2730 N   0  0  0  0  0  2  0  0  0  0  0  0
  190.7330  177.0680  142.2940 C   0  0  2  0  0  3  0  0  0  0  0  0
  190.4330  177.0270  139.8160 P   0  0  2  0  0  0  0  0  0  0  0  0
  189.5220  177.4080  144.2900 C   0  0  0  0  0  2  0  0  0  0  0  0
  190.8740  175.7150  139.2080 O   0  0  0  0  0  0  0  0  0  0  0  0
  190.8850  177.6940  143.6470 C   0  0  0  0  0  2  0  0  0  0  0  0
  191.5660  177.5280  141.1360 C   0  0  0  0  0  2  0  0  0  0  0  0
  188.1330  175.7870  143.1790 O   0  0  0  0  0  1  0  0  0  0  0  0
  189.3390  177.4410  141.9120 C   0  0  1  0  0  3  0  0  0  0  0  0
  189.0040  176.7990  140.7080 O   0  0  0  0  0  0  0  0  0  0  0  0
  188.5300  177.1260  143.1500 C   0  0  1  0  0  0  0  0  0  0  0  0
  190.2550  178.2110  138.6110 O   0  0  0  0  0  0  0  0  0  0  0  0
  188.1890  178.5860  136.5250 C   0  0  0  0  0  2  0  0  0  0  0  0
  188.4560  177.3400  137.3180 C   0  0  0  0  0  2  0  0  0  0  0  0
  188.8770  178.3150  138.3830 C   0  0  2  0  0  3  0  0  0  0  0  0
  188.6150  179.4250  137.5670 O   0  0  0  0  0  0  0  0  0  0  0  0
  184.4370  178.8680  145.4330 C   0  0  0  0  0  3  0  0  0  0  0  0
  185.2390  178.7130  144.2930 C   0  0  0  0  0  0  0  0  0  0  0  0
  184.9000  178.4740  146.6920 C   0  0  0  0  0  3  0  0  0  0  0  0
  186.5280  178.1480  144.4260 C   0  0  0  0  0  0  0  0  0  0  0  0
  186.9840  177.7590  145.6970 C   0  0  0  0  0  3  0  0  0  0  0  0
  186.1750  177.9190  146.8240 C   0  0  0  0  0  3  0  0  0  0  0  0
  183.3180  178.9860  142.6430 N   0  0  0  0  0  2  0  0  0  0  0  0
  185.4940  179.6010  142.1120 O   0  0  0  0  0  0  0  0  0  0  0  0
  184.7090  179.1290  142.9770 C   0  0  0  0  0  0  0  0  0  0  0  0
  182.2790  178.6840  143.6180 C   0  0  0  0  0  2  0  0  0  0  0  0
  180.9270  179.1730  143.1150 C   0  0  2  0  0  3  0  0  0  0  0  0
  179.8410  178.6640  144.0100 C   0  0  0  0  0  0  0  0  0  0  0  0
  179.7600  177.4370  144.2860 O   0  0  0  0  0  0  0  0  0  0  0  0
  178.9310  179.5840  144.6050 N   0  0  0  0  0  1  0  0  0  0  0  0
  180.7230  178.7460  141.8010 O   0  0  0  0  0  0  0  0  0  0  0  0
  180.0730  179.8080  141.1720 C   0  0  0  0  0  1  0  0  0  0  0  0
  1 20  1  0  0  0  0
  2  7  1  6  0  0  0
  2  6  1  0  0  0  0
  3  5  2  6  0  0  0
  3 10  1  0  0  0  0
  3  7  1  0  0  0  0
  6  4  1  0  0  0  0
  9 10  1  6  0  0  0
  9  2  1  0  0  0  0
  9 11  1  0  0  0  0
 11  8  1  1  0  0  0
 11  1  1  0  0  0  0
 11  4  1  0  0  0  0
 12  3  1  0  0  0  0
 13 14  1  0  0  0  0
 13 16  1  0  0  0  0
 14 15  1  0  0  0  0
 15 12  1  6  0  0  0
 16 15  1  0  0  0  0
 17 19  1  0  0  0  0
 18 20  1  0  0  0  0
 18 17  2  0  0  0  0
 19 22  2  0  0  0  0
 20 21  2  0  0  0  0
 21 22  1  0  0  0  0
 23 25  1  0  0  0  0
 23 26  1  0  0  0  0
 24 25  2  0  0  0  0
 25 18  1  0  0  0  0
 27 26  1  1  0  0  0
 27 28  1  0  0  0  0
 28 29  2  0  0  0  0
 28 30  1  0  0  0  0
 31 27  1  0  0  0  0
 32 31  1  0  0  0  0
M  END
>  <MODEL>
3

>  <REMARK>
 VINA RESULT:      -7.6      2.829      6.991
  Name = 
  9 active torsions:
  status: ('A' for Active; 'I' for Inactive)
    1  A    between atoms: N_1  and  C_16
    2  A    between atoms: N_1  and  C_29
    3  A    between atoms: O_3  and  C_13
    4  A    between atoms: C_7  and  C_31
    5  A    between atoms: C_8  and  C_13
    6  A    between atoms: P_10  and  O_23
    7  A    between atoms: C_13  and  C_26
    8  A    between atoms: N_15  and  C_26
    9  A    between atoms: O_23  and  C_28
                            x       y       z     vdW  Elec       q    Type
                         _______ _______ _______ _____ _____    ______ ____

>  <TORSDO>
F 9

$$$$
=
 OpenBabel11062412423D

 32 35  0  0  1  0  0  0  0  0999 V2000
  188.9290  178.6010  140.1850 N   0  0  0  0  0  2  0  0  0  0  0  0
  188.7640  176.4890  137.2450 C   0  0  2  0  0  3  0  0  0  0  0  0
  191.1550  175.7860  137.1200 P   0  0  2  0  0  0  0  0  0  0  0  0
  187.3140  177.8720  138.4910 C   0  0  0  0  0  2  0  0  0  0  0  0
  191.7610  176.0580  135.7630 O   0  0  0  0  0  0  0  0  0  0  0  0
  187.3660  176.5100  137.7870 C   0  0  0  0  0  2  0  0  0  0  0  0
  189.4530  175.1930  136.9480 C   0  0  0  0  0  2  0  0  0  0  0  0
  189.0920  179.4100  137.9830 O   0  0  0  0  0  1  0  0  0  0  0  0
  189.5600  177.0790  138.3620 C   0  0  1  0  0  3  0  0  0  0  0  0
  190.8890  177.2510  137.9390 O   0  0  0  0  0  0  0  0  0  0  0  0
  188.7640  178.3000  138.7650 C   0  0  1  0  0  0  0  0  0  0  0  0
  192.1390  174.7240  138.0090 O   0  0  0  0  0  0  0  0  0  0  0  0
  195.0390  174.5330  138.5730 C   0  0  0  0  0  2  0  0  0  0  0  0
  194.2150  173.5900  137.7450 C   0  0  0  0  0  2  0  0  0  0  0  0
  193.4150  174.8270  137.4410 C   0  0  2  0  0  3  0  0  0  0  0  0
  194.2300  175.6340  138.2500 O   0  0  0  0  0  0  0  0  0  0  0  0
  187.4680  177.0880  143.2850 C   0  0  0  0  0  3  0  0  0  0  0  0
  188.3940  177.4180  142.2840 C   0  0  0  0  0  0  0  0  0  0  0  0
  186.1670  177.5990  143.2500 C   0  0  0  0  0  3  0  0  0  0  0  0
  188.0020  178.2790  141.2340 C   0  0  0  0  0  0  0  0  0  0  0  0
  186.6900  178.7820  141.2080 C   0  0  0  0  0  3  0  0  0  0  0  0
  185.7780  178.4460  142.2100 C   0  0  0  0  0  3  0  0  0  0  0  0
  190.6960  177.3020  143.3700 N   0  0  0  0  0  2  0  0  0  0  0  0
  190.1430  176.0180  141.5160 O   0  0  0  0  0  0  0  0  0  0  0  0
  189.7660  176.8690  142.3630 C   0  0  0  0  0  0  0  0  0  0  0  0
  190.3190  178.0900  144.5350 C   0  0  0  0  0  2  0  0  0  0  0  0
  190.3380  177.2220  145.7870 C   0  0  2  0  0  3  0  0  0  0  0  0
  189.2850  177.6880  146.7420 C   0  0  0  0  0  0  0  0  0  0  0  0
  188.1210  177.9460  146.3360 O   0  0  0  0  0  0  0  0  0  0  0  0
  189.5860  177.7790  148.1310 N   0  0  0  0  0  1  0  0  0  0  0  0
  191.6010  177.2720  146.3820 O   0  0  0  0  0  0  0  0  0  0  0  0
  192.0200  175.9430  146.4550 C   0  0  0  0  0  1  0  0  0  0  0  0
  1 20  1  0  0  0  0
  2  7  1  1  0  0  0
  2  6  1  0  0  0  0
  2  9  1  0  0  0  0
  3  5  2  6  0  0  0
  3 10  1  0  0  0  0
  3 12  1  0  0  0  0
  4 11  1  0  0  0  0
  6  4  1  0  0  0  0
  7  3  1  0  0  0  0
  9 10  1  6  0  0  0
  9 11  1  0  0  0  0
 11  8  1  6  0  0  0
 11  1  1  0  0  0  0
 14 13  1  0  0  0  0
 15 14  1  0  0  0  0
 15 12  1  1  0  0  0
 15 16  1  0  0  0  0
 16 13  1  0  0  0  0
 18 25  1  0  0  0  0
 18 17  2  0  0  0  0
 19 17  1  0  0  0  0
 20 18  1  0  0  0  0
 21 20  2  0  0  0  0
 21 22  1  0  0  0  0
 22 19  2  0  0  0  0
 23 26  1  0  0  0  0
 24 25  2  0  0  0  0
 25 23  1  0  0  0  0
 27 26  1  6  0  0  0
 27 31  1  0  0  0  0
 27 28  1  0  0  0  0
 28 30  1  0  0  0  0
 29 28  2  0  0  0  0
 31 32  1  0  0  0  0
M  END
>  <MODEL>
4

>  <REMARK>
 VINA RESULT:      -7.5      3.851      6.051
  Name = 
  9 active torsions:
  status: ('A' for Active; 'I' for Inactive)
    1  A    between atoms: N_1  and  C_16
    2  A    between atoms: N_1  and  C_29
    3  A    between atoms: O_3  and  C_13
    4  A    between atoms: C_7  and  C_31
    5  A    between atoms: C_8  and  C_13
    6  A    between atoms: P_10  and  O_23
    7  A    between atoms: C_13  and  C_26
    8  A    between atoms: N_15  and  C_26
    9  A    between atoms: O_23  and  C_28
                            x       y       z     vdW  Elec       q    Type
                         _______ _______ _______ _____ _____    ______ ____

>  <TORSDO>
F 9

$$$$
=
 OpenBabel11062412423D

 32 35  0  0  1  0  0  0  0  0999 V2000
  186.9590  177.5240  141.8690 N   0  0  0  0  0  2  0  0  0  0  0  0
  190.5420  177.6020  141.3300 C   0  0  2  0  0  3  0  0  0  0  0  0
  191.3040  177.6760  143.7060 P   0  0  2  0  0  0  0  0  0  0  0  0
  188.5760  177.6000  140.0270 C   0  0  0  0  0  2  0  0  0  0  0  0
  192.2440  178.8300  143.9690 O   0  0  0  0  0  0  0  0  0  0  0  0
  189.9770  176.9790  140.0900 C   0  0  0  0  0  2  0  0  0  0  0  0
  191.6470  176.9340  142.0910 C   0  0  0  0  0  2  0  0  0  0  0  0
  188.1780  179.4930  141.4570 O   0  0  0  0  0  1  0  0  0  0  0  0
  189.3830  177.5750  142.2710 C   0  0  1  0  0  3  0  0  0  0  0  0
  189.7290  178.2610  143.4470 O   0  0  0  0  0  0  0  0  0  0  0  0
  188.2330  178.0980  141.4400 C   0  0  1  0  0  0  0  0  0  0  0  0
  191.3700  176.5530  144.9780 O   0  0  0  0  0  0  0  0  0  0  0  0
  189.6770  176.7550  147.3970 C   0  0  0  0  0  2  0  0  0  0  0  0
  191.1280  176.3750  147.3390 C   0  0  0  0  0  2  0  0  0  0  0  0
  191.1430  177.2900  146.1460 C   0  0  2  0  0  3  0  0  0  0  0  0
  189.7760  177.5790  146.2660 O   0  0  0  0  0  0  0  0  0  0  0  0
  184.1880  179.2500  143.7050 C   0  0  0  0  0  3  0  0  0  0  0  0
  184.9720  178.7610  142.6490 C   0  0  0  0  0  0  0  0  0  0  0  0
  184.5440  178.9980  145.0330 C   0  0  0  0  0  3  0  0  0  0  0  0
  186.1300  178.0040  142.9390 C   0  0  0  0  0  0  0  0  0  0  0  0
  186.4780  177.7620  144.2780 C   0  0  0  0  0  3  0  0  0  0  0  0
  185.6900  178.2540  145.3200 C   0  0  0  0  0  3  0  0  0  0  0  0
  183.3410  178.4950  140.7100 N   0  0  0  0  0  2  0  0  0  0  0  0
  185.2900  179.7430  140.5170 O   0  0  0  0  0  0  0  0  0  0  0  0
  184.5550  179.0360  141.2560 C   0  0  0  0  0  0  0  0  0  0  0  0
  182.2990  177.8700  141.5130 C   0  0  0  0  0  2  0  0  0  0  0  0
  181.0080  178.6710  141.4160 C   0  0  2  0  0  3  0  0  0  0  0  0
  180.6880  179.2800  142.7450 C   0  0  0  0  0  0  0  0  0  0  0  0
  180.4100  180.5050  142.8380 O   0  0  0  0  0  0  0  0  0  0  0  0
  180.6360  178.4530  143.9030 N   0  0  0  0  0  1  0  0  0  0  0  0
  179.9650  177.8450  140.9890 O   0  0  0  0  0  0  0  0  0  0  0  0
  179.6620  178.2810  139.6990 C   0  0  0  0  0  1  0  0  0  0  0  0
  1 20  1  0  0  0  0
  2  6  1  6  0  0  0
  2  7  1  0  0  0  0
  2  9  1  0  0  0  0
  3  5  2  1  0  0  0
  3 12  1  0  0  0  0
  4  6  1  0  0  0  0
  4 11  1  0  0  0  0
  7  3  1  0  0  0  0
  9 10  1  1  0  0  0
 10  3  1  0  0  0  0
 11  8  1  1  0  0  0
 11  1  1  0  0  0  0
 11  9  1  0  0  0  0
 14 13  1  0  0  0  0
 15 12  1  6  0  0  0
 15 16  1  0  0  0  0
 15 14  1  0  0  0  0
 16 13  1  0  0  0  0
 17 19  1  0  0  0  0
 18 20  1  0  0  0  0
 18 17  2  0  0  0  0
 19 22  2  0  0  0  0
 20 21  2  0  0  0  0
 21 22  1  0  0  0  0
 23 25  1  0  0  0  0
 23 26  1  0  0  0  0
 24 25  2  0  0  0  0
 25 18  1  0  0  0  0
 27 26  1  1  0  0  0
 27 28  1  0  0  0  0
 28 29  2  0  0  0  0
 28 30  1  0  0  0  0
 31 27  1  0  0  0  0
 32 31  1  0  0  0  0
M  END
>  <MODEL>
5

>  <REMARK>
 VINA RESULT:      -7.4      2.951      8.115
  Name = 
  9 active torsions:
  status: ('A' for Active; 'I' for Inactive)
    1  A    between atoms: N_1  and  C_16
    2  A    between atoms: N_1  and  C_29
    3  A    between atoms: O_3  and  C_13
    4  A    between atoms: C_7  and  C_31
    5  A    between atoms: C_8  and  C_13
    6  A    between atoms: P_10  and  O_23
    7  A    between atoms: C_13  and  C_26
    8  A    between atoms: N_15  and  C_26
    9  A    between atoms: O_23  and  C_28
                            x       y       z     vdW  Elec       q    Type
                         _______ _______ _______ _____ _____    ______ ____

>  <TORSDO>
F 9

$$$$
=
 OpenBabel11062412423D

 32 35  0  0  1  0  0  0  0  0999 V2000
  186.0460  177.8600  142.2730 N   0  0  0  0  0  2  0  0  0  0  0  0
  185.0570  178.5310  138.8520 C   0  0  2  0  0  3  0  0  0  0  0  0
  187.2640  178.2240  137.7270 P   0  0  2  0  0  0  0  0  0  0  0  0
  184.0640  178.5270  140.9920 C   0  0  0  0  0  2  0  0  0  0  0  0
  187.6460  179.4170  136.8820 O   0  0  0  0  0  0  0  0  0  0  0  0
  183.7980  178.1020  139.5420 C   0  0  0  0  0  2  0  0  0  0  0  0
  185.4930  177.8780  137.5750 C   0  0  0  0  0  2  0  0  0  0  0  0
  185.9190  180.0190  141.3470 O   0  0  0  0  0  1  0  0  0  0  0  0
  186.1170  178.1560  139.8340 C   0  0  1  0  0  3  0  0  0  0  0  0
  187.3580  178.6300  139.3750 O   0  0  0  0  0  0  0  0  0  0  0  0
  185.5860  178.6760  141.1520 C   0  0  1  0  0  0  0  0  0  0  0  0
  188.2350  176.8850  137.3410 O   0  0  0  0  0  0  0  0  0  0  0  0
  190.8580  175.8370  138.2260 C   0  0  0  0  0  2  0  0  0  0  0  0
  190.5340  176.4560  136.8970 C   0  0  0  0  0  2  0  0  0  0  0  0
  189.5390  177.2470  137.7010 C   0  0  2  0  0  3  0  0  0  0  0  0
  189.8950  176.6060  138.8970 O   0  0  0  0  0  0  0  0  0  0  0  0
  186.3270  177.7790  146.0070 C   0  0  0  0  0  3  0  0  0  0  0  0
  186.6300  177.5710  144.6530 C   0  0  0  0  0  0  0  0  0  0  0  0
  185.1820  178.4900  146.3810 C   0  0  0  0  0  3  0  0  0  0  0  0
  185.7660  178.0920  143.6620 C   0  0  0  0  0  0  0  0  0  0  0  0
  184.6170  178.8000  144.0520 C   0  0  0  0  0  3  0  0  0  0  0  0
  184.3270  179.0010  145.4030 C   0  0  0  0  0  3  0  0  0  0  0  0
  189.1500  177.2260  144.7790 N   0  0  0  0  0  2  0  0  0  0  0  0
  187.7770  175.8300  143.5310 O   0  0  0  0  0  0  0  0  0  0  0  0
  187.8570  176.8270  144.2960 C   0  0  0  0  0  0  0  0  0  0  0  0
  189.3520  178.1980  145.8450 C   0  0  0  0  0  2  0  0  0  0  0  0
  190.0030  177.5320  147.0500 C   0  0  2  0  0  3  0  0  0  0  0  0
  191.2290  176.7900  146.6160 C   0  0  0  0  0  0  0  0  0  0  0  0
  191.9300  177.2140  145.6600 O   0  0  0  0  0  0  0  0  0  0  0  0
  191.6390  175.6310  147.3350 N   0  0  0  0  0  1  0  0  0  0  0  0
  189.0950  176.6670  147.6660 O   0  0  0  0  0  0  0  0  0  0  0  0
  188.3010  177.4870  148.4680 C   0  0  0  0  0  1  0  0  0  0  0  0
  1 20  1  0  0  0  0
  2  7  1  6  0  0  0
  2  6  1  0  0  0  0
  2  9  1  0  0  0  0
  3  5  2  6  0  0  0
  3 10  1  0  0  0  0
  4 11  1  0  0  0  0
  6  4  1  0  0  0  0
  7  3  1  0  0  0  0
  9 10  1  6  0  0  0
  9 11  1  0  0  0  0
 11  8  1  1  0  0  0
 11  1  1  0  0  0  0
 12  3  1  0  0  0  0
 13 16  1  0  0  0  0
 14 15  1  0  0  0  0
 14 13  1  0  0  0  0
 15 12  1  6  0  0  0
 15 16  1  0  0  0  0
 17 19  1  0  0  0  0
 18 17  2  0  0  0  0
 20 21  2  0  0  0  0
 20 18  1  0  0  0  0
 21 22  1  0  0  0  0
 22 19  2  0  0  0  0
 23 26  1  0  0  0  0
 24 25  2  0  0  0  0
 25 18  1  0  0  0  0
 25 23  1  0  0  0  0
 27 26  1  6  0  0  0
 27 31  1  0  0  0  0
 28 27  1  0  0  0  0
 28 30  1  0  0  0  0
 29 28  2  0  0  0  0
 31 32  1  0  0  0  0
M  END
>  <MODEL>
6

>  <REMARK>
 VINA RESULT:      -7.3      2.066      3.220
  Name = 
  9 active torsions:
  status: ('A' for Active; 'I' for Inactive)
    1  A    between atoms: N_1  and  C_16
    2  A    between atoms: N_1  and  C_29
    3  A    between atoms: O_3  and  C_13
    4  A    between atoms: C_7  and  C_31
    5  A    between atoms: C_8  and  C_13
    6  A    between atoms: P_10  and  O_23
    7  A    between atoms: C_13  and  C_26
    8  A    between atoms: N_15  and  C_26
    9  A    between atoms: O_23  and  C_28
                            x       y       z     vdW  Elec       q    Type
                         _______ _______ _______ _____ _____    ______ ____

>  <TORSDO>
F 9

$$$$
=
 OpenBabel11062412423D

 32 35  0  0  1  0  0  0  0  0999 V2000
  186.9350  178.8260  137.9220 N   0  0  0  0  0  2  0  0  0  0  0  0
  190.0170  176.9290  137.7350 C   0  0  2  0  0  3  0  0  0  0  0  0
  190.7550  177.1250  140.1110 P   0  0  2  0  0  0  0  0  0  0  0  0
  188.3130  177.6500  136.2710 C   0  0  0  0  0  2  0  0  0  0  0  0
  192.1640  177.6560  140.2300 O   0  0  0  0  0  0  0  0  0  0  0  0
  189.1830  176.4290  136.5940 C   0  0  0  0  0  2  0  0  0  0  0  0
  190.6240  175.9760  138.7190 C   0  0  0  0  0  2  0  0  0  0  0  0
  188.9950  179.7400  137.2480 O   0  0  0  0  0  1  0  0  0  0  0  0
  189.0350  177.7110  138.5430 C   0  0  1  0  0  3  0  0  0  0  0  0
  189.7130  178.3620  139.5880 O   0  0  0  0  0  0  0  0  0  0  0  0
  188.3110  178.5520  137.5150 C   0  0  1  0  0  0  0  0  0  0  0  0
  190.2500  176.4420  141.5820 O   0  0  0  0  0  0  0  0  0  0  0  0
  190.4520  177.1140  144.4580 C   0  0  0  0  0  2  0  0  0  0  0  0
  191.2140  176.0500  143.7230 C   0  0  0  0  0  2  0  0  0  0  0  0
  191.0820  176.9970  142.5620 C   0  0  2  0  0  3  0  0  0  0  0  0
  190.3610  177.9320  143.3210 O   0  0  0  0  0  0  0  0  0  0  0  0
  183.6550  177.2040  138.7190 C   0  0  0  0  0  3  0  0  0  0  0  0
  184.6960  178.1440  138.7030 C   0  0  0  0  0  0  0  0  0  0  0  0
  183.7480  176.0220  137.9790 C   0  0  0  0  0  3  0  0  0  0  0  0
  185.8470  177.8880  137.9240 C   0  0  0  0  0  0  0  0  0  0  0  0
  185.9310  176.6940  137.1880 C   0  0  0  0  0  3  0  0  0  0  0  0
  184.8880  175.7670  137.2130 C   0  0  0  0  0  3  0  0  0  0  0  0
  184.8270  179.4280  140.8990 N   0  0  0  0  0  2  0  0  0  0  0  0
  184.1610  180.4410  138.9180 O   0  0  0  0  0  0  0  0  0  0  0  0
  184.5540  179.3890  139.4880 C   0  0  0  0  0  0  0  0  0  0  0  0
  185.5060  178.3610  141.6220 C   0  0  0  0  0  2  0  0  0  0  0  0
  185.4380  178.6150  143.1220 C   0  0  2  0  0  3  0  0  0  0  0  0
  186.5190  177.8450  143.8140 C   0  0  0  0  0  0  0  0  0  0  0  0
  187.1800  176.9700  143.1930 O   0  0  0  0  0  0  0  0  0  0  0  0
  186.8450  178.1510  145.1660 N   0  0  0  0  0  1  0  0  0  0  0  0
  184.1830  178.2500  143.6120 O   0  0  0  0  0  0  0  0  0  0  0  0
  183.7180  179.3770  144.2910 C   0  0  0  0  0  1  0  0  0  0  0  0
  1 20  1  0  0  0  0
  2  6  1  6  0  0  0
  2  9  1  0  0  0  0
  2  7  1  0  0  0  0
  3  5  2  1  0  0  0
  3 12  1  0  0  0  0
  4  6  1  0  0  0  0
  4 11  1  0  0  0  0
  7  3  1  0  0  0  0
  9 10  1  1  0  0  0
 10  3  1  0  0  0  0
 11  8  1  6  0  0  0
 11  1  1  0  0  0  0
 11  9  1  0  0  0  0
 14 13  1  0  0  0  0
 15 12  1  6  0  0  0
 15 16  1  0  0  0  0
 15 14  1  0  0  0  0
 16 13  1  0  0  0  0
 18 17  1  0  0  0  0
 18 25  1  0  0  0  0
 19 17  2  0  0  0  0
 20 18  2  0  0  0  0
 21 22  2  0  0  0  0
 21 20  1  0  0  0  0
 22 19  1  0  0  0  0
 23 26  1  0  0  0  0
 24 25  2  0  0  0  0
 25 23  1  0  0  0  0
 27 26  1  6  0  0  0
 27 31  1  0  0  0  0
 27 28  1  0  0  0  0
 28 30  1  0  0  0  0
 29 28  2  0  0  0  0
 31 32  1  0  0  0  0
M  END
>  <MODEL>
7

>  <REMARK>
 VINA RESULT:      -7.3      2.643      7.519
  Name = 
  9 active torsions:
  status: ('A' for Active; 'I' for Inactive)
    1  A    between atoms: N_1  and  C_16
    2  A    between atoms: N_1  and  C_29
    3  A    between atoms: O_3  and  C_13
    4  A    between atoms: C_7  and  C_31
    5  A    between atoms: C_8  and  C_13
    6  A    between atoms: P_10  and  O_23
    7  A    between atoms: C_13  and  C_26
    8  A    between atoms: N_15  and  C_26
    9  A    between atoms: O_23  and  C_28
                            x       y       z     vdW  Elec       q    Type
                         _______ _______ _______ _____ _____    ______ ____

>  <TORSDO>
F 9

$$$$
=
 OpenBabel11062412423D

 32 35  0  0  1  0  0  0  0  0999 V2000
  189.4110  176.6760  140.4770 N   0  0  0  0  0  2  0  0  0  0  0  0
  190.1700  176.1270  136.9770 C   0  0  2  0  0  3  0  0  0  0  0  0
  192.6120  175.6450  137.1650 P   0  0  2  0  0  0  0  0  0  0  0  0
  188.3070  176.7380  138.2890 C   0  0  0  0  0  2  0  0  0  0  0  0
  193.4400  176.5270  136.2600 O   0  0  0  0  0  0  0  0  0  0  0  0
  188.7030  175.8480  137.1040 C   0  0  0  0  0  2  0  0  0  0  0  0
  191.0880  175.1330  136.3330 C   0  0  0  0  0  2  0  0  0  0  0  0
  189.9090  178.4030  138.9600 O   0  0  0  0  0  1  0  0  0  0  0  0
  190.6220  176.1730  138.3990 C   0  0  1  0  0  3  0  0  0  0  0  0
  191.9700  176.5670  138.4410 O   0  0  0  0  0  0  0  0  0  0  0  0
  189.5900  177.0480  139.0760 C   0  0  1  0  0  0  0  0  0  0  0  0
  193.5340  174.3320  137.7240 O   0  0  0  0  0  0  0  0  0  0  0  0
  196.1510  174.1330  139.0930 C   0  0  0  0  0  2  0  0  0  0  0  0
  195.7930  173.5840  137.7420 C   0  0  0  0  0  2  0  0  0  0  0  0
  194.8650  174.7660  137.6970 C   0  0  2  0  0  3  0  0  0  0  0  0
  195.2470  175.2010  138.9750 O   0  0  0  0  0  0  0  0  0  0  0  0
  189.9310  178.7030  143.5830 C   0  0  0  0  0  3  0  0  0  0  0  0
  189.2890  178.0810  142.5020 C   0  0  0  0  0  0  0  0  0  0  0  0
  191.3070  178.5520  143.7800 C   0  0  0  0  0  3  0  0  0  0  0  0
  190.0480  177.2930  141.6070 C   0  0  0  0  0  0  0  0  0  0  0  0
  191.4310  177.1530  141.8130 C   0  0  0  0  0  3  0  0  0  0  0  0
  192.0570  177.7760  142.8940 C   0  0  0  0  0  3  0  0  0  0  0  0
  186.8880  177.5820  143.1890 N   0  0  0  0  0  2  0  0  0  0  0  0
  187.3930  178.9860  141.4100 O   0  0  0  0  0  0  0  0  0  0  0  0
  187.8300  178.2530  142.3360 C   0  0  0  0  0  0  0  0  0  0  0  0
  187.2540  176.9070  144.4260 C   0  0  0  0  0  2  0  0  0  0  0  0
  187.0950  177.8520  145.6090 C   0  0  2  0  0  3  0  0  0  0  0  0
  188.0980  177.5120  146.6670 C   0  0  0  0  0  0  0  0  0  0  0  0
  189.1150  176.8230  146.3870 O   0  0  0  0  0  0  0  0  0  0  0  0
  187.9330  178.0270  147.9850 N   0  0  0  0  0  1  0  0  0  0  0  0
  185.7970  177.7680  146.1160 O   0  0  0  0  0  0  0  0  0  0  0  0
  185.2170  179.0060  145.8360 C   0  0  0  0  0  1  0  0  0  0  0  0
  1 20  1  0  0  0  0
  2  7  1  6  0  0  0
  2  6  1  0  0  0  0
  2  9  1  0  0  0  0
  3  5  2  6  0  0  0
  3 12  1  0  0  0  0
  3 10  1  0  0  0  0
  4 11  1  0  0  0  0
  6  4  1  0  0  0  0
  7  3  1  0  0  0  0
  9 10  1  6  0  0  0
  9 11  1  0  0  0  0
 11  8  1  6  0  0  0
 11  1  1  0  0  0  0
 14 13  1  0  0  0  0
 15 12  1  1  0  0  0
 15 14  1  0  0  0  0
 15 16  1  0  0  0  0
 16 13  1  0  0  0  0
 17 19  1  0  0  0  0
 18 17  2  0  0  0  0
 20 21  2  0  0  0  0
 20 18  1  0  0  0  0
 21 22  1  0  0  0  0
 22 19  2  0  0  0  0
 23 26  1  0  0  0  0
 24 25  2  0  0  0  0
 25 18  1  0  0  0  0
 25 23  1  0  0  0  0
 27 26  1  6  0  0  0
 27 31  1  0  0  0  0
 27 28  1  0  0  0  0
 28 30  1  0  0  0  0
 29 28  2  0  0  0  0
 32 31  1  0  0  0  0
M  END
>  <MODEL>
8

>  <REMARK>
 VINA RESULT:      -7.2      4.269      7.139
  Name = 
  9 active torsions:
  status: ('A' for Active; 'I' for Inactive)
    1  A    between atoms: N_1  and  C_16
    2  A    between atoms: N_1  and  C_29
    3  A    between atoms: O_3  and  C_13
    4  A    between atoms: C_7  and  C_31
    5  A    between atoms: C_8  and  C_13
    6  A    between atoms: P_10  and  O_23
    7  A    between atoms: C_13  and  C_26
    8  A    between atoms: N_15  and  C_26
    9  A    between atoms: O_23  and  C_28
                            x       y       z     vdW  Elec       q    Type
                         _______ _______ _______ _____ _____    ______ ____

>  <TORSDO>
F 9

$$$$
=
 OpenBabel11062412423D

 32 35  0  0  1  0  0  0  0  0999 V2000
  185.2080  177.7370  143.7220 N   0  0  0  0  0  2  0  0  0  0  0  0
  182.3940  179.2730  142.0340 C   0  0  2  0  0  3  0  0  0  0  0  0
  183.2360  179.1850  139.6870 P   0  0  2  0  0  0  0  0  0  0  0  0
  183.0450  178.7670  144.2450 C   0  0  0  0  0  2  0  0  0  0  0  0
  183.1990  180.5380  139.0150 O   0  0  0  0  0  0  0  0  0  0  0  0
  181.8290  178.7260  143.3110 C   0  0  0  0  0  2  0  0  0  0  0  0
  181.7650  178.9460  140.7140 C   0  0  0  0  0  2  0  0  0  0  0  0
  184.9290  180.0610  143.4940 O   0  0  0  0  0  1  0  0  0  0  0  0
  183.7400  178.6300  141.9670 C   0  0  1  0  0  3  0  0  0  0  0  0
  184.4490  179.1630  140.8770 O   0  0  0  0  0  0  0  0  0  0  0  0
  184.3000  178.8220  143.3580 C   0  0  1  0  0  0  0  0  0  0  0  0
  183.4450  177.9540  138.5350 O   0  0  0  0  0  0  0  0  0  0  0  0
  182.3580  175.2520  138.0050 C   0  0  0  0  0  2  0  0  0  0  0  0
  182.6190  175.8750  139.3460 C   0  0  0  0  0  2  0  0  0  0  0  0
  182.3000  177.1540  138.6230 C   0  0  2  0  0  3  0  0  0  0  0  0
  182.0900  176.4920  137.4040 O   0  0  0  0  0  0  0  0  0  0  0  0
  188.6670  177.8750  145.1530 C   0  0  0  0  0  3  0  0  0  0  0  0
  187.6250  177.8310  144.2160 C   0  0  0  0  0  0  0  0  0  0  0  0
  188.3940  177.8990  146.5250 C   0  0  0  0  0  3  0  0  0  0  0  0
  186.2860  177.8140  144.6700 C   0  0  0  0  0  0  0  0  0  0  0  0
  186.0250  177.8340  146.0500 C   0  0  0  0  0  3  0  0  0  0  0  0
  187.0710  177.8790  146.9730 C   0  0  0  0  0  3  0  0  0  0  0  0
  189.0040  176.9940  142.2450 N   0  0  0  0  0  2  0  0  0  0  0  0
  187.3160  178.5680  141.9870 O   0  0  0  0  0  0  0  0  0  0  0  0
  187.9530  177.8200  142.7740 C   0  0  0  0  0  0  0  0  0  0  0  0
  189.6470  175.9240  142.9930 C   0  0  0  0  0  2  0  0  0  0  0  0
  191.1580  176.1110  142.9880 C   0  0  2  0  0  3  0  0  0  0  0  0
  191.7330  175.6210  144.2810 C   0  0  0  0  0  0  0  0  0  0  0  0
  192.3130  174.5040  144.3400 O   0  0  0  0  0  0  0  0  0  0  0  0
  191.6800  176.4530  145.4350 N   0  0  0  0  0  1  0  0  0  0  0  0
  191.4720  177.4580  142.7900 O   0  0  0  0  0  0  0  0  0  0  0  0
  192.0850  177.5060  141.5370 C   0  0  0  0  0  1  0  0  0  0  0  0
  1 20  1  0  0  0  0
  2  7  1  6  0  0  0
  2  6  1  0  0  0  0
  3  5  2  6  0  0  0
  3  7  1  0  0  0  0
  3 10  1  0  0  0  0
  6  4  1  0  0  0  0
  9 10  1  6  0  0  0
  9  2  1  0  0  0  0
  9 11  1  0  0  0  0
 11  8  1  1  0  0  0
 11  1  1  0  0  0  0
 11  4  1  0  0  0  0
 12  3  1  0  0  0  0
 13 14  1  0  0  0  0
 15 12  1  6  0  0  0
 15 14  1  0  0  0  0
 16 13  1  0  0  0  0
 16 15  1  0  0  0  0
 17 19  1  0  0  0  0
 18 20  1  0  0  0  0
 18 17  2  0  0  0  0
 19 22  2  0  0  0  0
 20 21  2  0  0  0  0
 21 22  1  0  0  0  0
 23 25  1  0  0  0  0
 23 26  1  0  0  0  0
 24 25  2  0  0  0  0
 25 18  1  0  0  0  0
 27 26  1  1  0  0  0
 27 28  1  0  0  0  0
 28 29  2  0  0  0  0
 28 30  1  0  0  0  0
 31 27  1  0  0  0  0
 32 31  1  0  0  0  0
M  END
>  <MODEL>
9

>  <REMARK>
 VINA RESULT:      -7.2      1.952      2.167
  Name = 
  9 active torsions:
  status: ('A' for Active; 'I' for Inactive)
    1  A    between atoms: N_1  and  C_16
    2  A    between atoms: N_1  and  C_29
    3  A    between atoms: O_3  and  C_13
    4  A    between atoms: C_7  and  C_31
    5  A    between atoms: C_8  and  C_13
    6  A    between atoms: P_10  and  O_23
    7  A    between atoms: C_13  and  C_26
    8  A    between atoms: N_15  and  C_26
    9  A    between atoms: O_23  and  C_28
                            x       y       z     vdW  Elec       q    Type
                         _______ _______ _______ _____ _____    ______ ____

>  <TORSDO>
F 9

$$$$
