=
 OpenBabel11062416453D

 28 31  0  0  1  0  0  0  0  0999 V2000
  189.2800  176.7940  142.0690 C   0  0  1  0  0  3  0  0  0  0  0  0
  190.5530  175.9730  142.3220 C   0  0  0  0  0  2  0  0  0  0  0  0
  190.3970  178.4600  143.6230 C   0  0  0  0  0  2  0  0  0  0  0  0
  191.1890  177.3540  144.3400 C   0  0  2  0  0  3  0  0  0  0  0  0
  189.0690  177.9380  143.0760 C   0  0  0  0  0  2  0  0  0  0  0  0
  192.0170  175.1250  144.0070 O   0  0  0  0  0  1  0  0  0  0  0  0
  190.9020  175.9400  143.8080 C   0  0  2  0  0  3  0  0  0  0  0  0
  189.2800  177.3100  140.6670 C   0  0  0  0  0  0  0  0  0  0  0  0
  188.7130  178.2740  138.9050 C   0  0  0  0  0  0  0  0  0  0  0  0
  188.3480  178.1680  140.1950 N   0  0  0  0  0  0  0  0  0  0  0  0
  189.7960  177.5330  138.6140 N   0  0  0  0  0  0  0  0  0  0  0  0
  188.0970  178.9830  138.0670 O   0  0  0  0  0  0  0  0  0  0  0  0
  190.1490  176.9000  139.7190 N   0  0  0  0  0  2  0  0  0  0  0  0
  189.0000  174.8690  137.2470 C   0  0  1  0  0  3  0  0  0  0  0  0
  191.2760  174.9080  137.6690 C   0  0  0  0  0  2  0  0  0  0  0  0
  188.4790  175.8600  136.2270 C   0  0  0  0  0  2  0  0  0  0  0  0
  191.6230  176.3670  137.3280 C   0  0  0  0  0  2  0  0  0  0  0  0
  189.2300  173.4100  136.9220 C   0  0  0  0  0  2  0  0  0  0  0  0
  190.4160  177.3460  137.2960 C   0  0  1  0  0  3  0  0  0  0  0  0
  190.3070  174.4260  136.6220 C   0  0  1  0  0  3  0  0  0  0  0  0
  189.3920  177.1150  136.1440 C   0  0  0  0  0  2  0  0  0  0  0  0
  191.8950  177.0550  146.6050 O   0  0  0  0  0  0  0  0  0  0  0  0
  190.9780  177.4160  145.8180 C   0  0  0  0  0  0  0  0  0  0  0  0
  188.7890  177.0940  146.7130 C   0  0  0  0  0  3  0  0  0  0  0  0
  189.7280  177.8940  146.3220 N   0  0  0  0  0  0  0  0  0  0  0  0
  187.4970  177.6290  147.2350 C   0  0  0  0  0  2  0  0  0  0  0  0
  185.2570  178.5390  146.6040 C   0  0  0  0  0  1  0  0  0  0  0  0
  186.4650  177.7550  146.1240 C   0  0  0  0  0  2  0  0  0  0  0  0
  1  8  1  6  0  0  0
  1  2  1  0  0  0  0
  1  5  1  0  0  0  0
  2  7  1  0  0  0  0
  3  4  1  0  0  0  0
  4 23  1  1  0  0  0
  5  3  1  0  0  0  0
  7  6  1  6  0  0  0
  7  4  1  0  0  0  0
  9 10  1  0  0  0  0
 10  8  2  0  0  0  0
 11  9  1  0  0  0  0
 11 13  1  0  0  0  0
 12  9  2  0  0  0  0
 13  8  1  0  0  0  0
 14 16  1  6  0  0  0
 17 15  1  0  0  0  0
 18 14  1  0  0  0  0
 19 21  1  6  0  0  0
 19 17  1  0  0  0  0
 19 11  1  0  0  0  0
 20 18  1  1  0  0  0
 20 14  1  0  0  0  0
 20 15  1  0  0  0  0
 21 16  1  0  0  0  0
 23 25  1  0  0  0  0
 23 22  2  0  0  0  0
 24 26  1  0  0  0  0
 25 24  2  0  0  0  0
 28 27  1  0  0  0  0
 28 26  1  0  0  0  0
M  END
>  <MODEL>
1

>  <REMARK>
 VINA RESULT:      -8.1      0.000      0.000
  Name = 
  6 active torsions:
  status: ('A' for Active; 'I' for Inactive)
    1  A    between atoms: C_4  and  C_6
    2  A    between atoms: C_7  and  C_16
    3  A    between atoms: C_7  and  C_21
    4  A    between atoms: N_11  and  C_14
    5  A    between atoms: C_18  and  N_22
    6  A    between atoms: C_18  and  C_23
                            x       y       z     vdW  Elec       q    Type
                         _______ _______ _______ _____ _____    ______ ____

>  <TORSDO>
F 6

$$$$
=
 OpenBabel11062416453D

 28 31  0  0  1  0  0  0  0  0999 V2000
  186.2920  177.3970  144.6910 C   0  0  1  0  0  3  0  0  0  0  0  0
  185.4670  178.6470  145.0280 C   0  0  0  0  0  2  0  0  0  0  0  0
  186.5250  178.5190  142.4270 C   0  0  0  0  0  2  0  0  0  0  0  0
  185.1970  179.2740  142.5960 C   0  0  2  0  0  3  0  0  0  0  0  0
  186.5180  177.1910  143.1840 C   0  0  0  0  0  2  0  0  0  0  0  0
  183.6900  180.0620  144.2910 O   0  0  0  0  0  1  0  0  0  0  0  0
  184.4710  178.9680  143.9170 C   0  0  2  0  0  3  0  0  0  0  0  0
  187.5930  177.4340  145.4260 C   0  0  0  0  0  0  0  0  0  0  0  0
  189.0220  177.7040  146.9230 C   0  0  0  0  0  0  0  0  0  0  0  0
  187.6880  177.7090  146.7460 N   0  0  0  0  0  0  0  0  0  0  0  0
  189.6900  177.4400  145.7870 N   0  0  0  0  0  0  0  0  0  0  0  0
  189.5740  177.9300  148.0310 O   0  0  0  0  0  0  0  0  0  0  0  0
  188.7940  177.2910  144.8280 N   0  0  0  0  0  2  0  0  0  0  0  0
  190.5410  177.8390  142.8340 C   0  0  1  0  0  3  0  0  0  0  0  0
  191.2190  175.7590  143.5930 C   0  0  0  0  0  2  0  0  0  0  0  0
  191.2030  179.0450  143.4700 C   0  0  0  0  0  2  0  0  0  0  0  0
  191.6780  176.0930  145.0220 C   0  0  0  0  0  2  0  0  0  0  0  0
  190.9400  177.3140  141.4730 C   0  0  0  0  0  2  0  0  0  0  0  0
  191.1460  177.4360  145.5940 C   0  0  1  0  0  3  0  0  0  0  0  0
  191.7010  176.8730  142.7020 C   0  0  1  0  0  3  0  0  0  0  0  0
  191.6950  178.7240  144.9090 C   0  0  0  0  0  2  0  0  0  0  0  0
  184.6180  179.4500  140.2820 O   0  0  0  0  0  0  0  0  0  0  0  0
  184.2940  179.0360  141.4300 C   0  0  0  0  0  0  0  0  0  0  0  0
  181.9270  178.7980  141.2380 C   0  0  0  0  0  3  0  0  0  0  0  0
  183.0670  178.3300  141.6320 N   0  0  0  0  0  0  0  0  0  0  0  0
  180.6660  178.0320  141.4660 C   0  0  0  0  0  2  0  0  0  0  0  0
  180.2100  178.4150  143.8920 C   0  0  0  0  0  1  0  0  0  0  0  0
  179.7700  178.7360  142.4760 C   0  0  0  0  0  2  0  0  0  0  0  0
  1  2  1  0  0  0  0
  1  8  1  1  0  0  0
  3  4  1  0  0  0  0
  3  5  1  0  0  0  0
  4 23  1  6  0  0  0
  4  7  1  0  0  0  0
  5  1  1  0  0  0  0
  7  6  1  1  0  0  0
  7  2  1  0  0  0  0
  8 10  2  0  0  0  0
  9 12  2  0  0  0  0
 10  9  1  0  0  0  0
 11  9  1  0  0  0  0
 13  8  1  0  0  0  0
 13 11  1  0  0  0  0
 14 18  1  6  0  0  0
 14 16  1  0  0  0  0
 15 17  1  0  0  0  0
 16 21  1  0  0  0  0
 17 19  1  0  0  0  0
 19 21  1  6  0  0  0
 19 11  1  0  0  0  0
 20 18  1  6  0  0  0
 20 14  1  0  0  0  0
 20 15  1  0  0  0  0
 22 23  2  0  0  0  0
 23 25  1  0  0  0  0
 24 26  1  0  0  0  0
 24 25  2  0  0  0  0
 26 28  1  0  0  0  0
 28 27  1  0  0  0  0
M  END
>  <MODEL>
2

>  <REMARK>
 VINA RESULT:      -7.8      3.788      7.349
  Name = 
  6 active torsions:
  status: ('A' for Active; 'I' for Inactive)
    1  A    between atoms: C_4  and  C_6
    2  A    between atoms: C_7  and  C_16
    3  A    between atoms: C_7  and  C_21
    4  A    between atoms: N_11  and  C_14
    5  A    between atoms: C_18  and  N_22
    6  A    between atoms: C_18  and  C_23
                            x       y       z     vdW  Elec       q    Type
                         _______ _______ _______ _____ _____    ______ ____

>  <TORSDO>
F 6

$$$$
=
 OpenBabel11062416453D

 28 31  0  0  1  0  0  0  0  0999 V2000
  185.3900  179.3100  142.4170 C   0  0  1  0  0  3  0  0  0  0  0  0
  184.3090  179.1570  143.4960 C   0  0  0  0  0  2  0  0  0  0  0  0
  186.5150  177.4260  143.6910 C   0  0  0  0  0  2  0  0  0  0  0  0
  185.8340  177.8290  145.0100 C   0  0  2  0  0  3  0  0  0  0  0  0
  186.7230  178.6300  142.7740 C   0  0  0  0  0  2  0  0  0  0  0  0
  183.9150  179.0030  145.8460 O   0  0  0  0  0  1  0  0  0  0  0  0
  184.9280  179.0650  144.8890 C   0  0  2  0  0  3  0  0  0  0  0  0
  184.8720  178.8150  141.1060 C   0  0  0  0  0  0  0  0  0  0  0  0
  184.6890  178.4130  139.0660 C   0  0  0  0  0  0  0  0  0  0  0  0
  185.5730  178.9030  139.9540 N   0  0  0  0  0  0  0  0  0  0  0  0
  183.5300  178.0490  139.6430 N   0  0  0  0  0  0  0  0  0  0  0  0
  184.9250  178.3190  137.8340 O   0  0  0  0  0  0  0  0  0  0  0  0
  183.6280  178.3220  140.9310 N   0  0  0  0  0  2  0  0  0  0  0  0
  181.2730  180.1650  139.4620 C   0  0  1  0  0  3  0  0  0  0  0  0
  180.5890  178.3660  140.7510 C   0  0  0  0  0  2  0  0  0  0  0  0
  181.5090  179.8980  137.9900 C   0  0  0  0  0  2  0  0  0  0  0  0
  181.1840  177.1860  139.9640 C   0  0  0  0  0  2  0  0  0  0  0  0
  180.0170  180.8290  139.9790 C   0  0  0  0  0  2  0  0  0  0  0  0
  182.3210  177.5560  138.9700 C   0  0  1  0  0  3  0  0  0  0  0  0
  180.0350  179.3370  139.7420 C   0  0  1  0  0  3  0  0  0  0  0  0
  181.8890  178.4120  137.7410 C   0  0  0  0  0  2  0  0  0  0  0  0
  186.4690  178.3280  147.2610 O   0  0  0  0  0  0  0  0  0  0  0  0
  186.8420  178.0170  146.0970 C   0  0  0  0  0  0  0  0  0  0  0  0
  189.0520  177.3060  146.6470 C   0  0  0  0  0  3  0  0  0  0  0  0
  188.2290  177.8320  145.7990 N   0  0  0  0  0  0  0  0  0  0  0  0
  190.4940  177.1280  146.3010 C   0  0  0  0  0  2  0  0  0  0  0  0
  192.2840  175.6280  147.1890 C   0  0  0  0  0  1  0  0  0  0  0  0
  191.3090  176.7410  147.5270 C   0  0  0  0  0  2  0  0  0  0  0  0
  1  8  1  6  0  0  0
  1  5  1  0  0  0  0
  1  2  1  0  0  0  0
  2  7  1  0  0  0  0
  3  4  1  0  0  0  0
  4 23  1  1  0  0  0
  5  3  1  0  0  0  0
  7  4  1  0  0  0  0
  7  6  1  1  0  0  0
  9 11  1  0  0  0  0
  9 10  1  0  0  0  0
 10  8  2  0  0  0  0
 11 13  1  0  0  0  0
 12  9  2  0  0  0  0
 13  8  1  0  0  0  0
 14 16  1  6  0  0  0
 14 20  1  0  0  0  0
 14 18  1  0  0  0  0
 17 15  1  0  0  0  0
 19 21  1  6  0  0  0
 19 11  1  0  0  0  0
 19 17  1  0  0  0  0
 20 18  1  1  0  0  0
 20 15  1  0  0  0  0
 21 16  1  0  0  0  0
 23 22  2  0  0  0  0
 25 23  1  0  0  0  0
 25 24  2  0  0  0  0
 26 24  1  0  0  0  0
 26 28  1  0  0  0  0
 27 28  1  0  0  0  0
M  END
>  <MODEL>
3

>  <REMARK>
 VINA RESULT:      -7.7      5.103      7.007
  Name = 
  6 active torsions:
  status: ('A' for Active; 'I' for Inactive)
    1  A    between atoms: C_4  and  C_6
    2  A    between atoms: C_7  and  C_16
    3  A    between atoms: C_7  and  C_21
    4  A    between atoms: N_11  and  C_14
    5  A    between atoms: C_18  and  N_22
    6  A    between atoms: C_18  and  C_23
                            x       y       z     vdW  Elec       q    Type
                         _______ _______ _______ _____ _____    ______ ____

>  <TORSDO>
F 6

$$$$
=
 OpenBabel11062416453D

 28 31  0  0  1  0  0  0  0  0999 V2000
  188.7150  178.2710  141.7570 C   0  0  1  0  0  3  0  0  0  0  0  0
  187.1810  178.2140  141.7680 C   0  0  0  0  0  2  0  0  0  0  0  0
  188.4990  176.5870  143.6430 C   0  0  0  0  0  2  0  0  0  0  0  0
  187.1150  177.1230  144.0450 C   0  0  2  0  0  3  0  0  0  0  0  0
  189.3660  177.6800  143.0190 C   0  0  0  0  0  2  0  0  0  0  0  0
  185.2400  178.3270  143.1540 O   0  0  0  0  0  1  0  0  0  0  0  0
  186.6340  178.3070  143.1900 C   0  0  2  0  0  3  0  0  0  0  0  0
  189.2390  177.6080  140.5250 C   0  0  0  0  0  0  0  0  0  0  0  0
  190.3820  176.4290  139.2370 C   0  0  0  0  0  0  0  0  0  0  0  0
  190.1960  176.6530  140.5500 N   0  0  0  0  0  0  0  0  0  0  0  0
  189.5900  177.1950  138.4670 N   0  0  0  0  0  0  0  0  0  0  0  0
  191.2150  175.6000  138.7870 O   0  0  0  0  0  0  0  0  0  0  0  0
  188.8790  177.9620  139.2740 N   0  0  0  0  0  2  0  0  0  0  0  0
  186.7430  177.2750  137.2470 C   0  0  1  0  0  3  0  0  0  0  0  0
  187.8580  175.3650  136.5620 C   0  0  0  0  0  2  0  0  0  0  0  0
  187.2860  178.5970  136.7460 C   0  0  0  0  0  2  0  0  0  0  0  0
  189.2760  175.9120  136.3210 C   0  0  0  0  0  2  0  0  0  0  0  0
  185.5280  176.6110  136.6380 C   0  0  0  0  0  2  0  0  0  0  0  0
  189.5860  177.2750  137.0000 C   0  0  1  0  0  3  0  0  0  0  0  0
  186.8920  176.3880  136.0270 C   0  0  1  0  0  3  0  0  0  0  0  0
  188.8060  178.5000  136.4370 C   0  0  0  0  0  2  0  0  0  0  0  0
  185.9780  177.4790  146.1190 O   0  0  0  0  0  0  0  0  0  0  0  0
  187.0770  177.4690  145.4980 C   0  0  0  0  0  0  0  0  0  0  0  0
  188.8370  176.9800  147.0320 C   0  0  0  0  0  3  0  0  0  0  0  0
  188.2990  177.7820  146.1710 N   0  0  0  0  0  0  0  0  0  0  0  0
  190.1160  177.3390  147.7150 C   0  0  0  0  0  2  0  0  0  0  0  0
  191.6320  176.6350  145.8580 C   0  0  0  0  0  1  0  0  0  0  0  0
  191.2400  176.3980  147.3050 C   0  0  0  0  0  2  0  0  0  0  0  0
  1  8  1  6  0  0  0
  1  2  1  0  0  0  0
  1  5  1  0  0  0  0
  2  7  1  0  0  0  0
  3  4  1  0  0  0  0
  4 23  1  1  0  0  0
  5  3  1  0  0  0  0
  7  6  1  6  0  0  0
  7  4  1  0  0  0  0
  8 10  2  0  0  0  0
  9 10  1  0  0  0  0
 11  9  1  0  0  0  0
 11 13  1  0  0  0  0
 12  9  2  0  0  0  0
 13  8  1  0  0  0  0
 14 18  1  6  0  0  0
 16 14  1  0  0  0  0
 17 15  1  0  0  0  0
 19 17  1  6  0  0  0
 19 11  1  0  0  0  0
 20 15  1  1  0  0  0
 20 18  1  0  0  0  0
 20 14  1  0  0  0  0
 21 16  1  0  0  0  0
 21 19  1  0  0  0  0
 23 22  2  0  0  0  0
 23 25  1  0  0  0  0
 24 26  1  0  0  0  0
 25 24  2  0  0  0  0
 27 28  1  0  0  0  0
 28 26  1  0  0  0  0
M  END
>  <MODEL>
4

>  <REMARK>
 VINA RESULT:      -7.7      2.382      3.662
  Name = 
  6 active torsions:
  status: ('A' for Active; 'I' for Inactive)
    1  A    between atoms: C_4  and  C_6
    2  A    between atoms: C_7  and  C_16
    3  A    between atoms: C_7  and  C_21
    4  A    between atoms: N_11  and  C_14
    5  A    between atoms: C_18  and  N_22
    6  A    between atoms: C_18  and  C_23
                            x       y       z     vdW  Elec       q    Type
                         _______ _______ _______ _____ _____    ______ ____

>  <TORSDO>
F 6

$$$$
=
 OpenBabel11062416453D

 28 31  0  0  1  0  0  0  0  0999 V2000
  185.8480  179.1340  141.5030 C   0  0  1  0  0  3  0  0  0  0  0  0
  184.6960  178.7470  142.4420 C   0  0  0  0  0  2  0  0  0  0  0  0
  187.1110  177.3520  142.7950 C   0  0  0  0  0  2  0  0  0  0  0  0
  186.2420  177.5570  144.0470 C   0  0  2  0  0  3  0  0  0  0  0  0
  187.2250  178.6350  141.9730 C   0  0  0  0  0  2  0  0  0  0  0  0
  184.0870  178.3720  144.7200 O   0  0  0  0  0  1  0  0  0  0  0  0
  185.1730  178.6500  143.8900 C   0  0  2  0  0  3  0  0  0  0  0  0
  185.5530  178.6600  140.1170 C   0  0  0  0  0  0  0  0  0  0  0  0
  184.6020  177.7920  138.4740 C   0  0  0  0  0  0  0  0  0  0  0  0
  184.3630  178.1300  139.7540 N   0  0  0  0  0  0  0  0  0  0  0  0
  185.8510  178.1010  138.0850 N   0  0  0  0  0  0  0  0  0  0  0  0
  183.7470  177.2420  137.7330 O   0  0  0  0  0  0  0  0  0  0  0  0
  186.4690  178.6290  139.1260 N   0  0  0  0  0  2  0  0  0  0  0  0
  188.6650  176.8270  138.3430 C   0  0  1  0  0  3  0  0  0  0  0  0
  188.8040  178.8810  137.2820 C   0  0  0  0  0  2  0  0  0  0  0  0
  187.9380  175.7250  137.6000 C   0  0  0  0  0  2  0  0  0  0  0  0
  187.5560  178.8440  136.3840 C   0  0  0  0  0  2  0  0  0  0  0  0
  190.1730  176.9140  138.3990 C   0  0  0  0  0  2  0  0  0  0  0  0
  186.4770  177.8020  136.7910 C   0  0  1  0  0  3  0  0  0  0  0  0
  189.4290  177.5120  137.2280 C   0  0  1  0  0  3  0  0  0  0  0  0
  186.8850  176.3080  136.6170 C   0  0  0  0  0  2  0  0  0  0  0  0
  186.6870  178.6000  146.1530 O   0  0  0  0  0  0  0  0  0  0  0  0
  187.0890  177.8150  145.2500 C   0  0  0  0  0  0  0  0  0  0  0  0
  189.4190  177.7720  145.7640 C   0  0  0  0  0  3  0  0  0  0  0  0
  188.3540  177.1560  145.3640 N   0  0  0  0  0  0  0  0  0  0  0  0
  190.7230  177.0530  145.8730 C   0  0  0  0  0  2  0  0  0  0  0  0
  192.1760  175.6400  147.3330 C   0  0  0  0  0  1  0  0  0  0  0  0
  190.9400  176.5180  147.2810 C   0  0  0  0  0  2  0  0  0  0  0  0
  1  8  1  6  0  0  0
  1  5  1  0  0  0  0
  1  2  1  0  0  0  0
  2  7  1  0  0  0  0
  3  4  1  0  0  0  0
  4 23  1  1  0  0  0
  5  3  1  0  0  0  0
  7  4  1  0  0  0  0
  7  6  1  1  0  0  0
  9 10  1  0  0  0  0
 10  8  2  0  0  0  0
 11  9  1  0  0  0  0
 11 13  1  0  0  0  0
 12  9  2  0  0  0  0
 13  8  1  0  0  0  0
 14 16  1  6  0  0  0
 14 18  1  0  0  0  0
 17 15  1  0  0  0  0
 19 17  1  1  0  0  0
 19 11  1  0  0  0  0
 20 15  1  1  0  0  0
 20 14  1  0  0  0  0
 20 18  1  0  0  0  0
 21 19  1  0  0  0  0
 21 16  1  0  0  0  0
 23 25  1  0  0  0  0
 23 22  2  0  0  0  0
 24 26  1  0  0  0  0
 25 24  2  0  0  0  0
 26 28  1  0  0  0  0
 28 27  1  0  0  0  0
M  END
>  <MODEL>
5

>  <REMARK>
 VINA RESULT:      -7.6      3.104      4.494
  Name = 
  6 active torsions:
  status: ('A' for Active; 'I' for Inactive)
    1  A    between atoms: C_4  and  C_6
    2  A    between atoms: C_7  and  C_16
    3  A    between atoms: C_7  and  C_21
    4  A    between atoms: N_11  and  C_14
    5  A    between atoms: C_18  and  N_22
    6  A    between atoms: C_18  and  C_23
                            x       y       z     vdW  Elec       q    Type
                         _______ _______ _______ _____ _____    ______ ____

>  <TORSDO>
F 6

$$$$
=
 OpenBabel11062416453D

 28 31  0  0  1  0  0  0  0  0999 V2000
  184.1750  179.4080  143.9450 C   0  0  1  0  0  3  0  0  0  0  0  0
  184.3070  178.8480  145.3680 C   0  0  0  0  0  2  0  0  0  0  0  0
  185.8500  177.5850  143.3860 C   0  0  0  0  0  2  0  0  0  0  0  0
  186.4300  177.5970  144.8100 C   0  0  2  0  0  3  0  0  0  0  0  0
  185.2950  178.9540  142.9930 C   0  0  0  0  0  2  0  0  0  0  0  0
  185.8560  178.1920  147.0630 O   0  0  0  0  0  1  0  0  0  0  0  0
  185.7720  178.6280  145.7410 C   0  0  2  0  0  3  0  0  0  0  0  0
  182.8300  179.0670  143.3890 C   0  0  0  0  0  0  0  0  0  0  0  0
  180.8640  178.3880  143.2200 C   0  0  0  0  0  0  0  0  0  0  0  0
  181.8040  178.6280  144.1520 N   0  0  0  0  0  0  0  0  0  0  0  0
  181.2900  178.6650  141.9760 N   0  0  0  0  0  0  0  0  0  0  0  0
  179.7180  177.9440  143.4920 O   0  0  0  0  0  0  0  0  0  0  0  0
  182.5430  179.0730  142.0700 N   0  0  0  0  0  2  0  0  0  0  0  0
  183.0620  177.4960  139.7180 C   0  0  1  0  0  3  0  0  0  0  0  0
  182.2840  179.5950  139.1260 C   0  0  0  0  0  2  0  0  0  0  0  0
  182.0270  176.3960  139.8440 C   0  0  0  0  0  2  0  0  0  0  0  0
  180.8420  179.5440  139.6570 C   0  0  0  0  0  2  0  0  0  0  0  0
  183.9530  177.6410  138.5050 C   0  0  0  0  0  2  0  0  0  0  0  0
  180.5630  178.4440  140.7190 C   0  0  1  0  0  3  0  0  0  0  0  0
  182.5730  178.2550  138.5020 C   0  0  1  0  0  3  0  0  0  0  0  0
  180.6300  176.9760  140.2000 C   0  0  0  0  0  2  0  0  0  0  0  0
  188.4790  178.2090  143.7380 O   0  0  0  0  0  0  0  0  0  0  0  0
  187.9120  177.7810  144.7820 C   0  0  0  0  0  0  0  0  0  0  0  0
  189.8990  177.0640  145.8910 C   0  0  0  0  0  3  0  0  0  0  0  0
  188.6740  177.4730  145.9530 N   0  0  0  0  0  0  0  0  0  0  0  0
  190.6640  176.7520  147.1350 C   0  0  0  0  0  2  0  0  0  0  0  0
  192.6800  175.6280  148.0930 C   0  0  0  0  0  1  0  0  0  0  0  0
  191.9500  176.0030  146.8160 C   0  0  0  0  0  2  0  0  0  0  0  0
  1  8  1  6  0  0  0
  1  2  1  0  0  0  0
  2  7  1  0  0  0  0
  3  4  1  0  0  0  0
  4 23  1  6  0  0  0
  4  7  1  0  0  0  0
  5  3  1  0  0  0  0
  5  1  1  0  0  0  0
  7  6  1  1  0  0  0
  8 10  2  0  0  0  0
  9 12  2  0  0  0  0
  9 10  1  0  0  0  0
 11 13  1  0  0  0  0
 11  9  1  0  0  0  0
 13  8  1  0  0  0  0
 14 18  1  6  0  0  0
 14 16  1  0  0  0  0
 15 17  1  0  0  0  0
 16 21  1  0  0  0  0
 19 17  1  6  0  0  0
 19 11  1  0  0  0  0
 20 18  1  6  0  0  0
 20 15  1  0  0  0  0
 20 14  1  0  0  0  0
 21 19  1  0  0  0  0
 22 23  2  0  0  0  0
 23 25  1  0  0  0  0
 24 25  2  0  0  0  0
 24 26  1  0  0  0  0
 28 26  1  0  0  0  0
 28 27  1  0  0  0  0
M  END
>  <MODEL>
6

>  <REMARK>
 VINA RESULT:      -7.6      5.306      7.335
  Name = 
  6 active torsions:
  status: ('A' for Active; 'I' for Inactive)
    1  A    between atoms: C_4  and  C_6
    2  A    between atoms: C_7  and  C_16
    3  A    between atoms: C_7  and  C_21
    4  A    between atoms: N_11  and  C_14
    5  A    between atoms: C_18  and  N_22
    6  A    between atoms: C_18  and  C_23
                            x       y       z     vdW  Elec       q    Type
                         _______ _______ _______ _____ _____    ______ ____

>  <TORSDO>
F 6

$$$$
=
 OpenBabel11062416453D

 28 31  0  0  1  0  0  0  0  0999 V2000
  185.8550  179.3790  142.2540 C   0  0  1  0  0  3  0  0  0  0  0  0
  184.7280  179.2110  143.2820 C   0  0  0  0  0  2  0  0  0  0  0  0
  186.7860  177.2970  143.3670 C   0  0  0  0  0  2  0  0  0  0  0  0
  186.0920  177.6260  144.7000 C   0  0  2  0  0  3  0  0  0  0  0  0
  187.1180  178.5640  142.5790 C   0  0  0  0  0  2  0  0  0  0  0  0
  184.2400  178.8640  145.5940 O   0  0  0  0  0  1  0  0  0  0  0  0
  185.2880  178.9360  144.6760 C   0  0  2  0  0  3  0  0  0  0  0  0
  185.3470  179.0540  140.8860 C   0  0  0  0  0  0  0  0  0  0  0  0
  185.2730  178.5490  138.8630 C   0  0  0  0  0  0  0  0  0  0  0  0
  186.1470  178.6300  139.8820 N   0  0  0  0  0  0  0  0  0  0  0  0
  184.0260  178.8980  139.2250 N   0  0  0  0  0  0  0  0  0  0  0  0
  185.5970  178.1940  137.7000 O   0  0  0  0  0  0  0  0  0  0  0  0
  184.0680  179.2430  140.4990 N   0  0  0  0  0  2  0  0  0  0  0  0
  181.7550  176.9310  139.9810 C   0  0  1  0  0  3  0  0  0  0  0  0
  182.5560  176.4570  137.8610 C   0  0  0  0  0  2  0  0  0  0  0  0
  181.0350  178.2520  140.1590 C   0  0  0  0  0  2  0  0  0  0  0  0
  182.7710  177.8720  137.2960 C   0  0  0  0  0  2  0  0  0  0  0  0
  181.0210  175.6160  139.8420 C   0  0  0  0  0  2  0  0  0  0  0  0
  182.8470  179.0060  138.3560 C   0  0  1  0  0  3  0  0  0  0  0  0
  181.2580  176.4780  138.6230 C   0  0  1  0  0  3  0  0  0  0  0  0
  181.5230  179.3020  139.1220 C   0  0  0  0  0  2  0  0  0  0  0  0
  186.7110  177.9890  146.9810 O   0  0  0  0  0  0  0  0  0  0  0  0
  187.0720  177.6280  145.8270 C   0  0  0  0  0  0  0  0  0  0  0  0
  189.4050  177.5830  146.3270 C   0  0  0  0  0  3  0  0  0  0  0  0
  188.4170  177.2090  145.5800 N   0  0  0  0  0  0  0  0  0  0  0  0
  190.7960  177.1260  146.0400 C   0  0  0  0  0  2  0  0  0  0  0  0
  191.5980  178.2980  143.9850 C   0  0  0  0  0  1  0  0  0  0  0  0
  191.0370  177.0030  144.5420 C   0  0  0  0  0  2  0  0  0  0  0  0
  1  8  1  6  0  0  0
  1  5  1  0  0  0  0
  1  2  1  0  0  0  0
  2  7  1  0  0  0  0
  3  4  1  0  0  0  0
  4 23  1  1  0  0  0
  5  3  1  0  0  0  0
  7  4  1  0  0  0  0
  7  6  1  1  0  0  0
  9 11  1  0  0  0  0
  9 10  1  0  0  0  0
 10  8  2  0  0  0  0
 11 13  1  0  0  0  0
 12  9  2  0  0  0  0
 13  8  1  0  0  0  0
 14 18  1  1  0  0  0
 14 16  1  0  0  0  0
 17 15  1  0  0  0  0
 19 17  1  1  0  0  0
 19 21  1  0  0  0  0
 19 11  1  0  0  0  0
 20 15  1  6  0  0  0
 20 18  1  0  0  0  0
 20 14  1  0  0  0  0
 21 16  1  0  0  0  0
 23 22  2  0  0  0  0
 25 23  1  0  0  0  0
 25 24  2  0  0  0  0
 26 24  1  0  0  0  0
 27 28  1  0  0  0  0
 28 26  1  0  0  0  0
M  END
>  <MODEL>
7

>  <REMARK>
 VINA RESULT:      -7.3      4.695      6.229
  Name = 
  6 active torsions:
  status: ('A' for Active; 'I' for Inactive)
    1  A    between atoms: C_4  and  C_6
    2  A    between atoms: C_7  and  C_16
    3  A    between atoms: C_7  and  C_21
    4  A    between atoms: N_11  and  C_14
    5  A    between atoms: C_18  and  N_22
    6  A    between atoms: C_18  and  C_23
                            x       y       z     vdW  Elec       q    Type
                         _______ _______ _______ _____ _____    ______ ____

>  <TORSDO>
F 6

$$$$
=
 OpenBabel11062416453D

 28 31  0  0  1  0  0  0  0  0999 V2000
  190.0080  177.7070  140.9470 C   0  0  1  0  0  3  0  0  0  0  0  0
  188.4790  177.6740  141.0780 C   0  0  0  0  0  2  0  0  0  0  0  0
  189.9190  176.1260  142.9310 C   0  0  0  0  0  2  0  0  0  0  0  0
  188.5760  176.7030  143.4080 C   0  0  2  0  0  3  0  0  0  0  0  0
  190.7480  177.1720  142.1860 C   0  0  0  0  0  2  0  0  0  0  0  0
  186.6520  177.8880  142.6000 O   0  0  0  0  0  1  0  0  0  0  0  0
  188.0440  177.8480  142.5310 C   0  0  2  0  0  3  0  0  0  0  0  0
  190.4290  176.9720  139.7160 C   0  0  0  0  0  0  0  0  0  0  0  0
  191.5820  176.2210  138.1470 C   0  0  0  0  0  0  0  0  0  0  0  0
  191.7140  176.8940  139.3050 N   0  0  0  0  0  0  0  0  0  0  0  0
  190.3030  175.9100  137.8760 N   0  0  0  0  0  0  0  0  0  0  0  0
  192.5540  175.9280  137.4030 O   0  0  0  0  0  0  0  0  0  0  0  0
  189.5620  176.4030  138.8520 N   0  0  0  0  0  2  0  0  0  0  0  0
  188.3460  177.6860  136.2590 C   0  0  1  0  0  3  0  0  0  0  0  0
  187.2590  175.7980  137.0430 C   0  0  0  0  0  2  0  0  0  0  0  0
  189.4290  177.4670  135.2220 C   0  0  0  0  0  2  0  0  0  0  0  0
  188.3380  174.7210  136.8400 C   0  0  0  0  0  2  0  0  0  0  0  0
  186.9560  178.1610  135.8980 C   0  0  0  0  0  2  0  0  0  0  0  0
  189.7860  175.2570  136.6660 C   0  0  1  0  0  3  0  0  0  0  0  0
  187.2890  176.6890  135.8300 C   0  0  1  0  0  3  0  0  0  0  0  0
  190.0570  176.0520  135.3540 C   0  0  0  0  0  2  0  0  0  0  0  0
  189.6210  176.7530  145.5590 O   0  0  0  0  0  0  0  0  0  0  0  0
  188.6530  177.1250  144.8390 C   0  0  0  0  0  0  0  0  0  0  0  0
  186.7110  177.5030  146.1720 C   0  0  0  0  0  3  0  0  0  0  0  0
  187.6220  177.9590  145.3750 N   0  0  0  0  0  0  0  0  0  0  0  0
  185.6500  178.4030  146.7130 C   0  0  0  0  0  2  0  0  0  0  0  0
  183.8380  178.9130  145.0700 C   0  0  0  0  0  1  0  0  0  0  0  0
  185.1610  179.3780  145.6510 C   0  0  0  0  0  2  0  0  0  0  0  0
  1  8  1  6  0  0  0
  1  2  1  0  0  0  0
  1  5  1  0  0  0  0
  2  7  1  0  0  0  0
  3  4  1  0  0  0  0
  4 23  1  1  0  0  0
  5  3  1  0  0  0  0
  7  6  1  6  0  0  0
  7  4  1  0  0  0  0
  9 10  1  0  0  0  0
 10  8  2  0  0  0  0
 11  9  1  0  0  0  0
 11 13  1  0  0  0  0
 12  9  2  0  0  0  0
 13  8  1  0  0  0  0
 14 16  1  6  0  0  0
 16 21  1  0  0  0  0
 17 15  1  0  0  0  0
 18 14  1  0  0  0  0
 19 21  1  6  0  0  0
 19 17  1  0  0  0  0
 19 11  1  0  0  0  0
 20 18  1  1  0  0  0
 20 14  1  0  0  0  0
 20 15  1  0  0  0  0
 23 25  1  0  0  0  0
 23 22  2  0  0  0  0
 24 26  1  0  0  0  0
 25 24  2  0  0  0  0
 27 28  1  0  0  0  0
 28 26  1  0  0  0  0
M  END
>  <MODEL>
8

>  <REMARK>
 VINA RESULT:      -7.2      1.987      3.147
  Name = 
  6 active torsions:
  status: ('A' for Active; 'I' for Inactive)
    1  A    between atoms: C_4  and  C_6
    2  A    between atoms: C_7  and  C_16
    3  A    between atoms: C_7  and  C_21
    4  A    between atoms: N_11  and  C_14
    5  A    between atoms: C_18  and  N_22
    6  A    between atoms: C_18  and  C_23
                            x       y       z     vdW  Elec       q    Type
                         _______ _______ _______ _____ _____    ______ ____

>  <TORSDO>
F 6

$$$$
=
 OpenBabel11062416453D

 28 31  0  0  1  0  0  0  0  0999 V2000
  189.9750  177.4480  139.6720 C   0  0  1  0  0  3  0  0  0  0  0  0
  188.5380  177.6670  140.1660 C   0  0  0  0  0  2  0  0  0  0  0  0
  190.3090  176.4620  141.9860 C   0  0  0  0  0  2  0  0  0  0  0  0
  189.1870  177.3260  142.5830 C   0  0  2  0  0  3  0  0  0  0  0  0
  190.9800  177.1520  140.7980 C   0  0  0  0  0  2  0  0  0  0  0  0
  187.2040  178.5230  141.9510 O   0  0  0  0  0  1  0  0  0  0  0  0
  188.5210  178.2700  141.5680 C   0  0  2  0  0  3  0  0  0  0  0  0
  189.9970  176.3690  138.6380 C   0  0  0  0  0  0  0  0  0  0  0  0
  190.6130  174.7620  137.4570 C   0  0  0  0  0  0  0  0  0  0  0  0
  190.9810  175.4450  138.5560 N   0  0  0  0  0  0  0  0  0  0  0  0
  189.4810  175.2380  136.9110 N   0  0  0  0  0  0  0  0  0  0  0  0
  191.2680  173.7930  136.9930 O   0  0  0  0  0  0  0  0  0  0  0  0
  189.0960  176.2710  137.6380 N   0  0  0  0  0  2  0  0  0  0  0  0
  186.6150  174.1360  137.3290 C   0  0  1  0  0  3  0  0  0  0  0  0
  188.0090  172.4700  136.5270 C   0  0  0  0  0  2  0  0  0  0  0  0
  186.3240  175.2910  136.3930 C   0  0  0  0  0  2  0  0  0  0  0  0
  188.8500  173.2470  135.5010 C   0  0  0  0  0  2  0  0  0  0  0  0
  185.6350  173.0070  137.5600 C   0  0  0  0  0  2  0  0  0  0  0  0
  188.8400  174.7920  135.6670 C   0  0  1  0  0  3  0  0  0  0  0  0
  186.5880  172.9480  136.3890 C   0  0  1  0  0  3  0  0  0  0  0  0
  187.4790  175.4920  135.3720 C   0  0  0  0  0  2  0  0  0  0  0  0
  190.5400  178.9950  143.6340 O   0  0  0  0  0  0  0  0  0  0  0  0
  189.6740  178.0880  143.7730 C   0  0  0  0  0  0  0  0  0  0  0  0
  187.8710  177.8220  145.3130 C   0  0  0  0  0  3  0  0  0  0  0  0
  189.1400  177.7790  145.0630 N   0  0  0  0  0  0  0  0  0  0  0  0
  187.3480  177.4920  146.6720 C   0  0  0  0  0  2  0  0  0  0  0  0
  188.8870  178.2600  148.4840 C   0  0  0  0  0  1  0  0  0  0  0  0
  188.4750  177.0880  147.6110 C   0  0  0  0  0  2  0  0  0  0  0  0
  1  8  1  6  0  0  0
  1  2  1  0  0  0  0
  1  5  1  0  0  0  0
  2  7  1  0  0  0  0
  3  4  1  0  0  0  0
  4 23  1  1  0  0  0
  5  3  1  0  0  0  0
  7  6  1  1  0  0  0
  7  4  1  0  0  0  0
  9 10  1  0  0  0  0
 10  8  2  0  0  0  0
 11  9  1  0  0  0  0
 11 13  1  0  0  0  0
 12  9  2  0  0  0  0
 13  8  1  0  0  0  0
 14 16  1  6  0  0  0
 14 18  1  0  0  0  0
 17 19  1  0  0  0  0
 17 15  1  0  0  0  0
 19 21  1  1  0  0  0
 19 11  1  0  0  0  0
 20 15  1  1  0  0  0
 20 14  1  0  0  0  0
 20 18  1  0  0  0  0
 21 16  1  0  0  0  0
 22 23  2  0  0  0  0
 23 25  1  0  0  0  0
 24 26  1  0  0  0  0
 25 24  2  0  0  0  0
 26 28  1  0  0  0  0
 28 27  1  0  0  0  0
M  END
>  <MODEL>
9

>  <REMARK>
 VINA RESULT:      -7.2      2.291      3.471
  Name = 
  6 active torsions:
  status: ('A' for Active; 'I' for Inactive)
    1  A    between atoms: C_4  and  C_6
    2  A    between atoms: C_7  and  C_16
    3  A    between atoms: C_7  and  C_21
    4  A    between atoms: N_11  and  C_14
    5  A    between atoms: C_18  and  N_22
    6  A    between atoms: C_18  and  C_23
                            x       y       z     vdW  Elec       q    Type
                         _______ _______ _______ _____ _____    ______ ____

>  <TORSDO>
F 6

$$$$
