=
 OpenBabel11062413533D

 25 26  0  0  1  0  0  0  0  0999 V2000
  190.3910  177.6660  140.4860 O   0  0  0  0  0  1  0  0  0  0  0  0
  189.0330  177.3430  140.5610 C   0  0  1  0  0  3  0  0  0  0  0  0
  186.8760  177.9180  144.5440 C   0  0  0  0  0  0  0  0  0  0  0  0
  190.1290  175.6800  142.4860 O   0  0  0  0  0  1  0  0  0  0  0  0
  185.0820  178.3780  142.9640 C   0  0  0  0  0  3  0  0  0  0  0  0
  186.3980  177.9630  143.2020 C   0  0  0  0  0  0  0  0  0  0  0  0
  184.2500  178.7730  144.0100 C   0  0  0  0  0  3  0  0  0  0  0  0
  188.9420  176.2880  142.8980 C   0  0  1  0  0  3  0  0  0  0  0  0
  187.1520  177.6290  142.0720 O   0  0  0  0  0  0  0  0  0  0  0  0
  189.1140  176.7640  144.2950 C   0  0  0  0  0  3  0  0  0  0  0  0
  184.7250  178.7590  145.3180 C   0  0  0  0  0  3  0  0  0  0  0  0
  188.2080  177.4550  144.9850 C   0  0  0  0  0  3  0  0  0  0  0  0
  186.0280  178.3330  145.5780 C   0  0  0  0  0  3  0  0  0  0  0  0
  188.5630  177.4800  142.0230 C   0  0  2  0  0  3  0  0  0  0  0  0
  188.2400  178.2540  139.6120 C   0  0  1  0  0  3  0  0  0  0  0  0
  189.0620  179.2260  139.0300 O   0  0  0  0  0  1  0  0  0  0  0  0
  187.4830  177.4570  138.5300 C   0  0  2  0  0  3  0  0  0  0  0  0
  188.1240  175.6530  136.8920 C   0  0  0  0  0  1  0  0  0  0  0  0
  188.0790  177.9330  136.2280 O   0  0  0  0  0  1  0  0  0  0  0  0
  189.7080  177.2100  137.6170 F   0  0  0  0  0  0  0  0  0  0  0  0
  188.3650  177.0920  137.3060 C   0  0  1  0  0  0  0  0  0  0  0  0
  185.0920  177.1760  137.7340 C   0  0  0  0  0  1  0  0  0  0  0  0
  186.1630  178.1670  138.1590 C   0  0  1  0  0  3  0  0  0  0  0  0
  185.6550  178.9320  139.2900 N   0  0  0  0  0  2  0  0  0  0  0  0
  184.2490  179.1900  139.0350 C   0  0  0  0  0  1  0  0  0  0  0  0
  2  1  1  1  0  0  0
  3 12  1  0  0  0  0
  3 13  1  0  0  0  0
  5  6  1  0  0  0  0
  5  7  2  0  0  0  0
  6  3  2  0  0  0  0
  7 11  1  0  0  0  0
  8  4  1  6  0  0  0
  8 10  1  0  0  0  0
  9  6  1  0  0  0  0
 10 12  2  0  0  0  0
 11 13  2  0  0  0  0
 14  2  1  6  0  0  0
 14  9  1  0  0  0  0
 14  8  1  0  0  0  0
 15 16  1  6  0  0  0
 15  2  1  0  0  0  0
 17 23  1  6  0  0  0
 17 15  1  0  0  0  0
 19 21  1  0  0  0  0
 21 18  1  6  0  0  0
 21 20  1  0  0  0  0
 21 17  1  0  0  0  0
 23 22  1  1  0  0  0
 23 24  1  0  0  0  0
 25 24  1  0  0  0  0
M  END
>  <MODEL>
1

>  <REMARK>
 VINA RESULT:      -7.7      0.000      0.000
  Name = 
  6 active torsions:
  status: ('A' for Active; 'I' for Inactive)
    1  A    between atoms: N_1  and  C_21
    2  A    between atoms: C_9  and  C_10
    3  A    between atoms: C_9  and  C_25
    4  A    between atoms: C_10  and  C_23
    5  A    between atoms: C_21  and  C_23
    6  A    between atoms: C_23  and  C_24
                            x       y       z     vdW  Elec       q    Type
                         _______ _______ _______ _____ _____    ______ ____

>  <TORSDO>
F 6

$$$$
=
 OpenBabel11062413533D

 25 26  0  0  1  0  0  0  0  0999 V2000
  188.1720  175.6950  143.2240 O   0  0  0  0  0  1  0  0  0  0  0  0
  188.1360  177.0880  143.3210 C   0  0  1  0  0  3  0  0  0  0  0  0
  184.0000  178.6870  142.2310 C   0  0  0  0  0  0  0  0  0  0  0  0
  188.2870  178.6340  141.0280 O   0  0  0  0  0  1  0  0  0  0  0  0
  183.8370  178.5680  144.6580 C   0  0  0  0  0  3  0  0  0  0  0  0
  184.6100  178.4460  143.4970 C   0  0  0  0  0  0  0  0  0  0  0  0
  182.4820  178.8890  144.5920 C   0  0  0  0  0  3  0  0  0  0  0  0
  187.0530  178.7320  141.6750 C   0  0  1  0  0  3  0  0  0  0  0  0
  185.9480  178.0800  143.6850 O   0  0  0  0  0  0  0  0  0  0  0  0
  185.9770  178.6690  140.6520 C   0  0  0  0  0  3  0  0  0  0  0  0
  181.8780  179.0950  143.3560 C   0  0  0  0  0  3  0  0  0  0  0  0
  184.6710  178.6610  140.9150 C   0  0  0  0  0  3  0  0  0  0  0  0
  182.6340  178.9950  142.1870 C   0  0  0  0  0  3  0  0  0  0  0  0
  186.8320  177.6040  142.6810 C   0  0  2  0  0  3  0  0  0  0  0  0
  188.2540  177.4980  144.7970 C   0  0  1  0  0  3  0  0  0  0  0  0
  187.1230  177.1170  145.5270 O   0  0  0  0  0  1  0  0  0  0  0  0
  189.5400  176.9540  145.4550 C   0  0  2  0  0  3  0  0  0  0  0  0
  190.9350  176.8910  147.5530 C   0  0  0  0  0  1  0  0  0  0  0  0
  189.0400  178.3150  147.3990 O   0  0  0  0  0  1  0  0  0  0  0  0
  188.7440  176.0810  147.5650 F   0  0  0  0  0  0  0  0  0  0  0  0
  189.5330  177.0690  147.0040 C   0  0  1  0  0  0  0  0  0  0  0  0
  191.5020  176.5600  143.9000 C   0  0  0  0  0  1  0  0  0  0  0  0
  190.7900  177.5670  144.7880 C   0  0  1  0  0  3  0  0  0  0  0  0
  190.4270  178.7200  143.9750 N   0  0  0  0  0  2  0  0  0  0  0  0
  191.5070  179.6830  144.0920 C   0  0  0  0  0  1  0  0  0  0  0  0
  2  1  1  1  0  0  0
  2 15  1  0  0  0  0
  3  6  1  0  0  0  0
  6  9  1  0  0  0  0
  6  5  2  0  0  0  0
  7  5  1  0  0  0  0
  8  4  1  6  0  0  0
  8 14  1  0  0  0  0
 10 12  2  0  0  0  0
 10  8  1  0  0  0  0
 11  7  2  0  0  0  0
 12  3  1  0  0  0  0
 13  3  2  0  0  0  0
 13 11  1  0  0  0  0
 14  2  1  1  0  0  0
 14  9  1  0  0  0  0
 15 17  1  0  0  0  0
 15 16  1  1  0  0  0
 17 23  1  6  0  0  0
 17 21  1  0  0  0  0
 21 19  1  0  0  0  0
 21 18  1  1  0  0  0
 21 20  1  0  0  0  0
 23 22  1  6  0  0  0
 24 25  1  0  0  0  0
 24 23  1  0  0  0  0
M  END
>  <MODEL>
2

>  <REMARK>
 VINA RESULT:      -7.0      3.430      6.389
  Name = 
  6 active torsions:
  status: ('A' for Active; 'I' for Inactive)
    1  A    between atoms: N_1  and  C_21
    2  A    between atoms: C_9  and  C_10
    3  A    between atoms: C_9  and  C_25
    4  A    between atoms: C_10  and  C_23
    5  A    between atoms: C_21  and  C_23
    6  A    between atoms: C_23  and  C_24
                            x       y       z     vdW  Elec       q    Type
                         _______ _______ _______ _____ _____    ______ ____

>  <TORSDO>
F 6

$$$$
=
 OpenBabel11062413533D

 25 26  0  0  1  0  0  0  0  0999 V2000
  189.0520  176.9680  141.2190 O   0  0  0  0  0  1  0  0  0  0  0  0
  188.5140  177.6220  142.3300 C   0  0  1  0  0  3  0  0  0  0  0  0
  184.0530  178.5960  142.4110 C   0  0  0  0  0  0  0  0  0  0  0  0
  187.7750  178.8940  139.9840 O   0  0  0  0  0  1  0  0  0  0  0  0
  184.6130  178.7440  144.7760 C   0  0  0  0  0  3  0  0  0  0  0  0
  185.0290  178.5770  143.4500 C   0  0  0  0  0  0  0  0  0  0  0  0
  183.2650  178.8980  145.0950 C   0  0  0  0  0  3  0  0  0  0  0  0
  186.7780  178.9250  140.9610 C   0  0  1  0  0  3  0  0  0  0  0  0
  186.4030  178.3920  143.2550 O   0  0  0  0  0  0  0  0  0  0  0  0
  185.4750  178.6190  140.3170 C   0  0  0  0  0  3  0  0  0  0  0  0
  182.3080  178.8860  144.0850 C   0  0  0  0  0  3  0  0  0  0  0  0
  184.3140  178.4920  140.9600 C   0  0  0  0  0  3  0  0  0  0  0  0
  182.7030  178.7370  142.7550 C   0  0  0  0  0  3  0  0  0  0  0  0
  187.0200  177.9050  142.0730 C   0  0  2  0  0  3  0  0  0  0  0  0
  188.7290  176.7580  143.5820 C   0  0  1  0  0  3  0  0  0  0  0  0
  189.2820  175.5140  143.2570 O   0  0  0  0  0  1  0  0  0  0  0  0
  189.5810  177.4740  144.6500 C   0  0  2  0  0  3  0  0  0  0  0  0
  191.7590  178.6840  144.2650 C   0  0  0  0  0  1  0  0  0  0  0  0
  191.7010  176.6510  145.4930 O   0  0  0  0  0  1  0  0  0  0  0  0
  191.3620  176.6120  143.2590 F   0  0  0  0  0  0  0  0  0  0  0  0
  191.1090  177.3220  144.4200 C   0  0  1  0  0  0  0  0  0  0  0  0
  189.5950  178.0710  147.1140 C   0  0  0  0  0  1  0  0  0  0  0  0
  189.1200  177.0760  146.0690 C   0  0  1  0  0  3  0  0  0  0  0  0
  187.6660  177.0010  146.1340 N   0  0  0  0  0  2  0  0  0  0  0  0
  187.2420  177.8820  147.2080 C   0  0  0  0  0  1  0  0  0  0  0  0
  2  1  1  6  0  0  0
  2 15  1  0  0  0  0
  3 13  2  0  0  0  0
  3  6  1  0  0  0  0
  5  7  1  0  0  0  0
  6  5  2  0  0  0  0
  8  4  1  6  0  0  0
  8 14  1  0  0  0  0
  9  6  1  0  0  0  0
 10 12  2  0  0  0  0
 10  8  1  0  0  0  0
 11  7  2  0  0  0  0
 12  3  1  0  0  0  0
 13 11  1  0  0  0  0
 14  2  1  1  0  0  0
 14  9  1  0  0  0  0
 15 16  1  6  0  0  0
 17 15  1  6  0  0  0
 17 23  1  0  0  0  0
 20 21  1  0  0  0  0
 21 18  1  6  0  0  0
 21 17  1  0  0  0  0
 21 19  1  0  0  0  0
 23 24  1  0  0  0  0
 23 22  1  1  0  0  0
 24 25  1  0  0  0  0
M  END
>  <MODEL>
3

>  <REMARK>
 VINA RESULT:      -7.0      2.894      5.788
  Name = 
  6 active torsions:
  status: ('A' for Active; 'I' for Inactive)
    1  A    between atoms: N_1  and  C_21
    2  A    between atoms: C_9  and  C_10
    3  A    between atoms: C_9  and  C_25
    4  A    between atoms: C_10  and  C_23
    5  A    between atoms: C_21  and  C_23
    6  A    between atoms: C_23  and  C_24
                            x       y       z     vdW  Elec       q    Type
                         _______ _______ _______ _____ _____    ______ ____

>  <TORSDO>
F 6

$$$$
=
 OpenBabel11062413533D

 25 26  0  0  1  0  0  0  0  0999 V2000
  190.9300  177.6110  141.0060 O   0  0  0  0  0  1  0  0  0  0  0  0
  189.6330  177.0920  140.9500 C   0  0  1  0  0  3  0  0  0  0  0  0
  186.8890  177.8700  144.5160 C   0  0  0  0  0  0  0  0  0  0  0  0
  190.4390  175.5710  143.1200 O   0  0  0  0  0  1  0  0  0  0  0  0
  185.3530  178.1980  142.6550 C   0  0  0  0  0  3  0  0  0  0  0  0
  186.6210  177.8240  143.1160 C   0  0  0  0  0  0  0  0  0  0  0  0
  184.3670  178.6410  143.5360 C   0  0  0  0  0  3  0  0  0  0  0  0
  189.1970  176.1810  143.3080 C   0  0  1  0  0  3  0  0  0  0  0  0
  187.5410  177.4350  142.1370 O   0  0  0  0  0  0  0  0  0  0  0  0
  189.1500  176.7440  144.6820 C   0  0  0  0  0  3  0  0  0  0  0  0
  184.6370  178.7150  144.8990 C   0  0  0  0  0  3  0  0  0  0  0  0
  188.1430  177.4600  145.1820 C   0  0  0  0  0  3  0  0  0  0  0  0
  185.8890  178.3310  145.3810 C   0  0  0  0  0  3  0  0  0  0  0  0
  188.9450  177.3100  142.3120 C   0  0  2  0  0  3  0  0  0  0  0  0
  188.8660  177.7650  139.8020 C   0  0  1  0  0  3  0  0  0  0  0  0
  188.5160  179.0820  140.1220 O   0  0  0  0  0  1  0  0  0  0  0  0
  189.6420  177.7140  138.4690 C   0  0  2  0  0  3  0  0  0  0  0  0
  187.4170  177.9240  137.3040 C   0  0  0  0  0  1  0  0  0  0  0  0
  188.9360  179.7490  137.3560 O   0  0  0  0  0  1  0  0  0  0  0  0
  189.4030  177.9490  136.0740 F   0  0  0  0  0  0  0  0  0  0  0  0
  188.8710  178.3560  137.2840 C   0  0  1  0  0  0  0  0  0  0  0  0
  189.1580  175.5050  137.3230 C   0  0  0  0  0  1  0  0  0  0  0  0
  190.1400  176.2790  138.1870 C   0  0  1  0  0  3  0  0  0  0  0  0
  191.4270  176.3060  137.5070 N   0  0  0  0  0  2  0  0  0  0  0  0
  191.3180  175.4350  136.3500 C   0  0  0  0  0  1  0  0  0  0  0  0
  2  1  1  1  0  0  0
  3 12  1  0  0  0  0
  3 13  1  0  0  0  0
  5  6  1  0  0  0  0
  5  7  2  0  0  0  0
  6  3  2  0  0  0  0
  7 11  1  0  0  0  0
  8  4  1  6  0  0  0
  8 10  1  0  0  0  0
  9 14  1  0  0  0  0
  9  6  1  0  0  0  0
 10 12  2  0  0  0  0
 11 13  2  0  0  0  0
 14  2  1  6  0  0  0
 14  8  1  0  0  0  0
 15 16  1  1  0  0  0
 15  2  1  0  0  0  0
 17 23  1  6  0  0  0
 17 15  1  0  0  0  0
 20 21  1  0  0  0  0
 21 18  1  1  0  0  0
 21 19  1  0  0  0  0
 21 17  1  0  0  0  0
 23 22  1  6  0  0  0
 24 23  1  0  0  0  0
 25 24  1  0  0  0  0
M  END
>  <MODEL>
4

>  <REMARK>
 VINA RESULT:      -6.8      1.843      2.682
  Name = 
  6 active torsions:
  status: ('A' for Active; 'I' for Inactive)
    1  A    between atoms: N_1  and  C_21
    2  A    between atoms: C_9  and  C_10
    3  A    between atoms: C_9  and  C_25
    4  A    between atoms: C_10  and  C_23
    5  A    between atoms: C_21  and  C_23
    6  A    between atoms: C_23  and  C_24
                            x       y       z     vdW  Elec       q    Type
                         _______ _______ _______ _____ _____    ______ ____

>  <TORSDO>
F 6

$$$$
=
 OpenBabel11062413533D

 25 26  0  0  1  0  0  0  0  0999 V2000
  189.0130  176.3980  140.8330 O   0  0  0  0  0  1  0  0  0  0  0  0
  188.9040  177.0990  142.0370 C   0  0  1  0  0  3  0  0  0  0  0  0
  184.7900  178.5870  143.3450 C   0  0  0  0  0  0  0  0  0  0  0  0
  187.8710  178.8320  140.1400 O   0  0  0  0  0  1  0  0  0  0  0  0
  185.8820  178.2620  145.4970 C   0  0  0  0  0  3  0  0  0  0  0  0
  185.9580  178.2720  144.0990 C   0  0  0  0  0  0  0  0  0  0  0  0
  184.6820  178.5250  146.1570 C   0  0  0  0  0  3  0  0  0  0  0  0
  187.1370  178.8180  141.3280 C   0  0  1  0  0  3  0  0  0  0  0  0
  187.2050  177.9550  143.5490 O   0  0  0  0  0  0  0  0  0  0  0  0
  185.6910  178.7900  140.9890 C   0  0  0  0  0  3  0  0  0  0  0  0
  183.5340  178.8030  145.4210 C   0  0  0  0  0  3  0  0  0  0  0  0
  184.6990  178.6990  141.8750 C   0  0  0  0  0  3  0  0  0  0  0  0
  183.5920  178.8330  144.0280 C   0  0  0  0  0  3  0  0  0  0  0  0
  187.4550  177.6040  142.1960 C   0  0  2  0  0  3  0  0  0  0  0  0
  189.3260  176.1840  143.1970 C   0  0  1  0  0  3  0  0  0  0  0  0
  189.6710  174.9060  142.7430 O   0  0  0  0  0  1  0  0  0  0  0  0
  190.4670  176.7930  144.0390 C   0  0  2  0  0  3  0  0  0  0  0  0
  191.0640  177.0240  146.4760 C   0  0  0  0  0  1  0  0  0  0  0  0
  189.7440  178.6720  145.3890 O   0  0  0  0  0  1  0  0  0  0  0  0
  188.8500  176.6450  145.8310 F   0  0  0  0  0  0  0  0  0  0  0  0
  190.0010  177.3000  145.4300 C   0  0  1  0  0  0  0  0  0  0  0  0
  191.8970  178.8850  144.1120 C   0  0  0  0  0  1  0  0  0  0  0  0
  191.2430  177.8450  143.2170 C   0  0  1  0  0  3  0  0  0  0  0  0
  192.2820  177.2090  142.4180 N   0  0  0  0  0  2  0  0  0  0  0  0
  192.1090  177.6660  141.0500 C   0  0  0  0  0  1  0  0  0  0  0  0
  2  1  1  6  0  0  0
  2 15  1  0  0  0  0
  3 13  2  0  0  0  0
  3  6  1  0  0  0  0
  5  7  1  0  0  0  0
  6  5  2  0  0  0  0
  8  4  1  6  0  0  0
  8 14  1  0  0  0  0
  9  6  1  0  0  0  0
 10  8  1  0  0  0  0
 10 12  2  0  0  0  0
 11  7  2  0  0  0  0
 12  3  1  0  0  0  0
 13 11  1  0  0  0  0
 14  2  1  1  0  0  0
 14  9  1  0  0  0  0
 15 16  1  6  0  0  0
 17 15  1  6  0  0  0
 17 21  1  0  0  0  0
 19 21  1  0  0  0  0
 21 20  1  0  0  0  0
 21 18  1  1  0  0  0
 23 17  1  0  0  0  0
 23 22  1  1  0  0  0
 24 23  1  0  0  0  0
 25 24  1  0  0  0  0
M  END
>  <MODEL>
5

>  <REMARK>
 VINA RESULT:      -6.7      3.193      5.677
  Name = 
  6 active torsions:
  status: ('A' for Active; 'I' for Inactive)
    1  A    between atoms: N_1  and  C_21
    2  A    between atoms: C_9  and  C_10
    3  A    between atoms: C_9  and  C_25
    4  A    between atoms: C_10  and  C_23
    5  A    between atoms: C_21  and  C_23
    6  A    between atoms: C_23  and  C_24
                            x       y       z     vdW  Elec       q    Type
                         _______ _______ _______ _____ _____    ______ ____

>  <TORSDO>
F 6

$$$$
=
 OpenBabel11062413533D

 25 26  0  0  1  0  0  0  0  0999 V2000
  190.5520  176.3700  140.4710 O   0  0  0  0  0  1  0  0  0  0  0  0
  189.7790  177.2340  141.2530 C   0  0  1  0  0  3  0  0  0  0  0  0
  185.6400  178.4620  139.7670 C   0  0  0  0  0  0  0  0  0  0  0  0
  189.9710  178.3710  138.7350 O   0  0  0  0  0  1  0  0  0  0  0  0
  185.3860  178.7520  142.1710 C   0  0  0  0  0  3  0  0  0  0  0  0
  186.2070  178.4640  141.0750 C   0  0  0  0  0  0  0  0  0  0  0  0
  184.0240  179.0050  142.0060 C   0  0  0  0  0  3  0  0  0  0  0  0
  188.7100  178.5290  139.3140 C   0  0  1  0  0  3  0  0  0  0  0  0
  187.5480  178.1880  141.3670 O   0  0  0  0  0  0  0  0  0  0  0  0
  187.6780  178.2520  138.2810 C   0  0  0  0  0  3  0  0  0  0  0  0
  183.4630  178.9730  140.7330 C   0  0  0  0  0  3  0  0  0  0  0  0
  186.3630  178.2380  138.4980 C   0  0  0  0  0  3  0  0  0  0  0  0
  184.2680  178.7040  139.6250 C   0  0  0  0  0  3  0  0  0  0  0  0
  188.4850  177.5820  140.4900 C   0  0  2  0  0  3  0  0  0  0  0  0
  189.4890  176.5710  142.6080 C   0  0  1  0  0  3  0  0  0  0  0  0
  190.1780  175.3610  142.7440 O   0  0  0  0  0  1  0  0  0  0  0  0
  189.7890  177.5090  143.7960 C   0  0  2  0  0  3  0  0  0  0  0  0
  191.6890  179.1100  144.2160 C   0  0  0  0  0  1  0  0  0  0  0  0
  191.6250  176.9950  145.2940 O   0  0  0  0  0  1  0  0  0  0  0  0
  192.0620  177.1020  143.0810 F   0  0  0  0  0  0  0  0  0  0  0  0
  191.3050  177.6470  144.1020 C   0  0  1  0  0  0  0  0  0  0  0  0
  188.8680  178.2440  146.0400 C   0  0  0  0  0  1  0  0  0  0  0  0
  188.9360  177.1180  145.0230 C   0  0  1  0  0  3  0  0  0  0  0  0
  187.5780  176.7810  144.6190 N   0  0  0  0  0  2  0  0  0  0  0  0
  186.6800  177.5710  145.4430 C   0  0  0  0  0  1  0  0  0  0  0  0
  2  1  1  6  0  0  0
  2 15  1  0  0  0  0
  3  6  1  0  0  0  0
  6  9  1  0  0  0  0
  6  5  2  0  0  0  0
  7  5  1  0  0  0  0
  8  4  1  6  0  0  0
  8 14  1  0  0  0  0
 10 12  2  0  0  0  0
 10  8  1  0  0  0  0
 11  7  2  0  0  0  0
 12  3  1  0  0  0  0
 13  3  2  0  0  0  0
 13 11  1  0  0  0  0
 14  2  1  1  0  0  0
 14  9  1  0  0  0  0
 15 16  1  1  0  0  0
 17 15  1  6  0  0  0
 17 21  1  0  0  0  0
 17 23  1  0  0  0  0
 20 21  1  0  0  0  0
 21 18  1  1  0  0  0
 21 19  1  0  0  0  0
 23 22  1  1  0  0  0
 24 23  1  0  0  0  0
 24 25  1  0  0  0  0
M  END
>  <MODEL>
6

>  <REMARK>
 VINA RESULT:      -6.6      2.277      5.640
  Name = 
  6 active torsions:
  status: ('A' for Active; 'I' for Inactive)
    1  A    between atoms: N_1  and  C_21
    2  A    between atoms: C_9  and  C_10
    3  A    between atoms: C_9  and  C_25
    4  A    between atoms: C_10  and  C_23
    5  A    between atoms: C_21  and  C_23
    6  A    between atoms: C_23  and  C_24
                            x       y       z     vdW  Elec       q    Type
                         _______ _______ _______ _____ _____    ______ ____

>  <TORSDO>
F 6

$$$$
=
 OpenBabel11062413533D

 25 26  0  0  1  0  0  0  0  0999 V2000
  191.5010  179.0010  143.2760 O   0  0  0  0  0  1  0  0  0  0  0  0
  191.2870  177.6980  143.7340 C   0  0  1  0  0  3  0  0  0  0  0  0
  187.9890  177.8720  146.8870 C   0  0  0  0  0  0  0  0  0  0  0  0
  192.0310  176.2440  145.9710 O   0  0  0  0  0  1  0  0  0  0  0  0
  186.6890  178.0180  144.8330 C   0  0  0  0  0  3  0  0  0  0  0  0
  187.9270  177.8380  145.4630 C   0  0  0  0  0  0  0  0  0  0  0  0
  185.5310  178.2580  145.5720 C   0  0  0  0  0  3  0  0  0  0  0  0
  190.6910  176.6340  145.9910 C   0  0  1  0  0  3  0  0  0  0  0  0
  189.0250  177.6450  144.6180 O   0  0  0  0  0  0  0  0  0  0  0  0
  190.3620  177.1270  147.3540 C   0  0  0  0  0  3  0  0  0  0  0  0
  185.5960  178.3210  146.9610 C   0  0  0  0  0  3  0  0  0  0  0  0
  189.1900  177.6470  147.7180 C   0  0  0  0  0  3  0  0  0  0  0  0
  186.8170  178.1280  147.6090 C   0  0  0  0  0  3  0  0  0  0  0  0
  190.3910  177.7460  144.9880 C   0  0  2  0  0  3  0  0  0  0  0  0
  190.6600  176.8600  142.6100 C   0  0  1  0  0  3  0  0  0  0  0  0
  189.6140  176.0630  143.0870 O   0  0  0  0  0  1  0  0  0  0  0  0
  190.1900  177.7290  141.4240 C   0  0  2  0  0  3  0  0  0  0  0  0
  188.0550  179.0350  141.7200 C   0  0  0  0  0  1  0  0  0  0  0  0
  188.3230  177.5470  139.8880 O   0  0  0  0  0  1  0  0  0  0  0  0
  188.0660  176.7120  141.9710 F   0  0  0  0  0  0  0  0  0  0  0  0
  188.6490  177.7270  141.2340 C   0  0  1  0  0  0  0  0  0  0  0  0
  192.4780  177.5020  140.3560 C   0  0  0  0  0  1  0  0  0  0  0  0
  190.9790  177.3720  140.1450 C   0  0  1  0  0  3  0  0  0  0  0  0
  190.6910  176.0050  139.7290 N   0  0  0  0  0  2  0  0  0  0  0  0
  191.0010  175.9160  138.3130 C   0  0  0  0  0  1  0  0  0  0  0  0
  2  1  1  6  0  0  0
  3 13  1  0  0  0  0
  3 12  1  0  0  0  0
  5  6  1  0  0  0  0
  5  7  2  0  0  0  0
  6  3  2  0  0  0  0
  7 11  1  0  0  0  0
  8  4  1  1  0  0  0
  8 10  1  0  0  0  0
  9 14  1  0  0  0  0
  9  6  1  0  0  0  0
 10 12  2  0  0  0  0
 11 13  2  0  0  0  0
 14  2  1  6  0  0  0
 14  8  1  0  0  0  0
 15 16  1  1  0  0  0
 15  2  1  0  0  0  0
 17 23  1  6  0  0  0
 17 15  1  0  0  0  0
 19 21  1  0  0  0  0
 21 17  1  0  0  0  0
 21 18  1  1  0  0  0
 21 20  1  0  0  0  0
 23 22  1  1  0  0  0
 24 23  1  0  0  0  0
 25 24  1  0  0  0  0
M  END
>  <MODEL>
7

>  <REMARK>
 VINA RESULT:      -6.5      2.847      4.269
  Name = 
  6 active torsions:
  status: ('A' for Active; 'I' for Inactive)
    1  A    between atoms: N_1  and  C_21
    2  A    between atoms: C_9  and  C_10
    3  A    between atoms: C_9  and  C_25
    4  A    between atoms: C_10  and  C_23
    5  A    between atoms: C_21  and  C_23
    6  A    between atoms: C_23  and  C_24
                            x       y       z     vdW  Elec       q    Type
                         _______ _______ _______ _____ _____    ______ ____

>  <TORSDO>
F 6

$$$$
=
 OpenBabel11062413533D

 25 26  0  0  1  0  0  0  0  0999 V2000
  188.1200  178.1860  140.9100 O   0  0  0  0  0  1  0  0  0  0  0  0
  187.2870  177.8880  141.9920 C   0  0  1  0  0  3  0  0  0  0  0  0
  189.1120  177.5420  146.1630 C   0  0  0  0  0  0  0  0  0  0  0  0
  189.3160  176.0030  141.9900 O   0  0  0  0  0  1  0  0  0  0  0  0
  186.8100  178.1270  146.7010 C   0  0  0  0  0  3  0  0  0  0  0  0
  187.7730  177.7900  145.7420 C   0  0  0  0  0  0  0  0  0  0  0  0
  187.1470  178.2520  148.0480 C   0  0  0  0  0  3  0  0  0  0  0  0
  188.9580  176.4220  143.2730 C   0  0  1  0  0  3  0  0  0  0  0  0
  187.3270  177.7320  144.4170 O   0  0  0  0  0  0  0  0  0  0  0  0
  190.1980  176.6490  144.0600 C   0  0  0  0  0  3  0  0  0  0  0  0
  188.4600  178.0400  148.4570 C   0  0  0  0  0  3  0  0  0  0  0  0
  190.2390  177.1230  145.3040 C   0  0  0  0  0  3  0  0  0  0  0  0
  189.4310  177.6880  147.5190 C   0  0  0  0  0  3  0  0  0  0  0  0
  188.1490  177.7170  143.2590 C   0  0  2  0  0  3  0  0  0  0  0  0
  186.2430  179.0030  142.1520 C   0  0  1  0  0  3  0  0  0  0  0  0
  186.5490  180.1100  141.3530 O   0  0  0  0  0  1  0  0  0  0  0  0
  184.8080  178.5070  141.8740 C   0  0  2  0  0  3  0  0  0  0  0  0
  183.4170  177.4310  140.0700 C   0  0  0  0  0  1  0  0  0  0  0  0
  183.9130  179.7520  139.9960 O   0  0  0  0  0  1  0  0  0  0  0  0
  185.5510  178.2510  139.5870 F   0  0  0  0  0  0  0  0  0  0  0  0
  184.4380  178.5120  140.3670 C   0  0  1  0  0  0  0  0  0  0  0  0
  182.6180  178.3660  143.1440 C   0  0  0  0  0  1  0  0  0  0  0  0
  183.7950  179.2530  142.7700 C   0  0  1  0  0  3  0  0  0  0  0  0
  184.4320  179.7110  143.9970 N   0  0  0  0  0  2  0  0  0  0  0  0
  183.8010  179.0020  145.0960 C   0  0  0  0  0  1  0  0  0  0  0  0
  2  1  1  6  0  0  0
  2 15  1  0  0  0  0
  3 13  1  0  0  0  0
  5  7  2  0  0  0  0
  6  3  2  0  0  0  0
  6  5  1  0  0  0  0
  7 11  1  0  0  0  0
  8  4  1  6  0  0  0
  8 10  1  0  0  0  0
  9  6  1  0  0  0  0
 10 12  2  0  0  0  0
 12  3  1  0  0  0  0
 13 11  2  0  0  0  0
 14  2  1  6  0  0  0
 14  8  1  0  0  0  0
 14  9  1  0  0  0  0
 15 16  1  6  0  0  0
 17 15  1  6  0  0  0
 17 23  1  0  0  0  0
 19 21  1  0  0  0  0
 20 21  1  0  0  0  0
 21 18  1  6  0  0  0
 21 17  1  0  0  0  0
 23 22  1  1  0  0  0
 23 24  1  0  0  0  0
 24 25  1  0  0  0  0
M  END
>  <MODEL>
8

>  <REMARK>
 VINA RESULT:      -6.4      2.797      4.058
  Name = 
  6 active torsions:
  status: ('A' for Active; 'I' for Inactive)
    1  A    between atoms: N_1  and  C_21
    2  A    between atoms: C_9  and  C_10
    3  A    between atoms: C_9  and  C_25
    4  A    between atoms: C_10  and  C_23
    5  A    between atoms: C_21  and  C_23
    6  A    between atoms: C_23  and  C_24
                            x       y       z     vdW  Elec       q    Type
                         _______ _______ _______ _____ _____    ______ ____

>  <TORSDO>
F 6

$$$$
=
 OpenBabel11062413533D

 25 26  0  0  1  0  0  0  0  0999 V2000
  190.2570  175.1210  142.8800 O   0  0  0  0  0  1  0  0  0  0  0  0
  190.1050  176.4780  142.5850 C   0  0  1  0  0  3  0  0  0  0  0  0
  189.3980  177.3600  138.1610 C   0  0  0  0  0  0  0  0  0  0  0  0
  192.4920  177.1610  141.3580 O   0  0  0  0  0  1  0  0  0  0  0  0
  187.2760  178.0610  139.1280 C   0  0  0  0  0  3  0  0  0  0  0  0
  188.5860  177.6000  139.3080 C   0  0  0  0  0  0  0  0  0  0  0  0
  186.7500  178.2590  137.8520 C   0  0  0  0  0  3  0  0  0  0  0  0
  191.3750  177.3970  140.5540 C   0  0  1  0  0  3  0  0  0  0  0  0
  188.9920  177.4000  140.6320 O   0  0  0  0  0  0  0  0  0  0  0  0
  191.6750  176.9270  139.1770 C   0  0  0  0  0  3  0  0  0  0  0  0
  187.5310  177.9960  136.7310 C   0  0  0  0  0  3  0  0  0  0  0  0
  190.8110  176.9290  138.1620 C   0  0  0  0  0  3  0  0  0  0  0  0
  188.8440  177.5510  136.8890 C   0  0  0  0  0  3  0  0  0  0  0  0
  190.1310  176.6660  141.0550 C   0  0  2  0  0  3  0  0  0  0  0  0
  188.7960  176.9900  143.2060 C   0  0  1  0  0  3  0  0  0  0  0  0
  187.7090  176.1860  142.8450 O   0  0  0  0  0  1  0  0  0  0  0  0
  188.8900  177.1280  144.7400 C   0  0  2  0  0  3  0  0  0  0  0  0
  187.7330  177.7640  146.8870 C   0  0  0  0  0  1  0  0  0  0  0  0
  186.9720  178.6100  144.8010 O   0  0  0  0  0  1  0  0  0  0  0  0
  186.6440  176.4320  145.3050 F   0  0  0  0  0  0  0  0  0  0  0  0
  187.5350  177.4850  145.4090 C   0  0  1  0  0  0  0  0  0  0  0  0
  191.2980  177.2980  145.5140 C   0  0  0  0  0  1  0  0  0  0  0  0
  190.0480  178.0720  145.1290 C   0  0  1  0  0  3  0  0  0  0  0  0
  190.3810  178.9600  144.0230 N   0  0  0  0  0  2  0  0  0  0  0  0
  191.8030  179.2410  144.1150 C   0  0  0  0  0  1  0  0  0  0  0  0
  2  1  1  6  0  0  0
  2 15  1  0  0  0  0
  3 12  1  0  0  0  0
  3  6  1  0  0  0  0
  5  6  2  0  0  0  0
  6  9  1  0  0  0  0
  7  5  1  0  0  0  0
  8 14  1  0  0  0  0
  8  4  1  1  0  0  0
  9 14  1  0  0  0  0
 10  8  1  0  0  0  0
 11 13  1  0  0  0  0
 11  7  2  0  0  0  0
 12 10  2  0  0  0  0
 13  3  2  0  0  0  0
 14  2  1  1  0  0  0
 15 16  1  1  0  0  0
 17 15  1  6  0  0  0
 17 23  1  0  0  0  0
 17 21  1  0  0  0  0
 19 21  1  0  0  0  0
 20 21  1  0  0  0  0
 21 18  1  1  0  0  0
 23 22  1  6  0  0  0
 24 25  1  0  0  0  0
 24 23  1  0  0  0  0
M  END
>  <MODEL>
9

>  <REMARK>
 VINA RESULT:      -6.4      2.949      6.695
  Name = 
  6 active torsions:
  status: ('A' for Active; 'I' for Inactive)
    1  A    between atoms: N_1  and  C_21
    2  A    between atoms: C_9  and  C_10
    3  A    between atoms: C_9  and  C_25
    4  A    between atoms: C_10  and  C_23
    5  A    between atoms: C_21  and  C_23
    6  A    between atoms: C_23  and  C_24
                            x       y       z     vdW  Elec       q    Type
                         _______ _______ _______ _____ _____    ______ ____

>  <TORSDO>
F 6

$$$$
