=
 OpenBabel11062412333D

 33 36  0  0  1  0  0  0  0  0999 V2000
  184.2380  177.8870  138.5480 C   0  0  0  0  0  2  0  0  0  0  0  0
  185.5320  178.1180  139.2660 C   0  0  2  0  0  3  0  0  0  0  0  0
  185.3480  179.3440  140.0110 N   0  0  0  0  0  0  0  0  0  0  0  0
  183.3480  178.9310  139.0200 N   0  0  0  0  0  2  0  0  0  0  0  0
  183.9570  179.4910  140.1600 N   0  0  0  0  0  2  0  0  0  0  0  0
  186.5960  179.0430  137.3630 O   0  0  0  0  0  0  0  0  0  0  0  0
  186.6920  178.2220  138.3140 C   0  0  0  0  0  0  0  0  0  0  0  0
  188.8240  177.6770  139.4900 C   0  0  0  0  0  3  0  0  0  0  0  0
  188.2190  176.3720  137.5580 C   0  0  0  0  0  3  0  0  0  0  0  0
  189.3880  175.6300  137.7190 C   0  0  0  0  0  3  0  0  0  0  0  0
  190.2410  175.9160  138.7390 N   0  0  0  0  0  0  0  0  0  0  0  0
  187.9260  177.4090  138.4500 C   0  0  0  0  0  0  0  0  0  0  0  0
  189.9960  176.9230  139.6250 C   0  0  0  0  0  0  0  0  0  0  0  0
  189.4630  176.3810  142.4740 O   0  0  0  0  0  1  0  0  0  0  0  0
  190.7030  176.7620  142.0800 N   0  0  0  0  0  0  0  0  0  0  0  0
  190.9580  177.1700  140.7220 C   0  0  0  0  0  0  0  0  0  0  0  0
  192.0400  177.7570  140.4490 O   0  0  0  0  0  0  0  0  0  0  0  0
  191.7170  175.6810  144.0220 C   0  0  0  0  0  1  0  0  0  0  0  0
  191.6150  178.1580  143.8650 C   0  0  0  0  0  1  0  0  0  0  0  0
  191.7610  176.8690  143.0800 C   0  0  0  0  0  3  0  0  0  0  0  0
  185.9010  179.1270  141.3380 C   0  0  0  0  0  2  0  0  0  0  0  0
  185.0200  178.1530  142.1020 C   0  0  0  0  0  2  0  0  0  0  0  0
  184.6680  178.7170  143.4690 C   0  0  2  0  0  3  0  0  0  0  0  0
  185.0080  180.0710  143.5190 O   0  0  0  0  0  1  0  0  0  0  0  0
  188.8180  177.1580  145.8060 C   0  0  0  0  0  3  0  0  0  0  0  0
  185.3680  177.9440  144.5870 C   0  0  1  0  0  3  0  0  0  0  0  0
  186.8510  177.6820  144.2850 C   0  0  0  0  0  2  0  0  0  0  0  0
  187.3250  178.2250  147.9350 C   0  0  0  0  0  3  0  0  0  0  0  0
  185.2020  178.8150  146.1920 S   0  0  0  0  0  0  0  0  0  0  0  0
  188.6080  177.7100  148.1650 C   0  0  0  0  0  3  0  0  0  0  0  0
  187.5360  177.6720  145.5950 C   0  0  0  0  0  0  0  0  0  0  0  0
  189.3550  177.1800  147.1010 C   0  0  0  0  0  3  0  0  0  0  0  0
  186.8100  178.2080  146.6370 C   0  0  0  0  0  0  0  0  0  0  0  0
  1  4  1  0  0  0  0
  1  2  1  0  0  0  0
  2  7  1  6  0  0  0
  2  3  1  0  0  0  0
  3  5  1  0  0  0  0
  3 21  1  0  0  0  0
  4  5  1  0  0  0  0
  6  7  2  0  0  0  0
  7 12  1  0  0  0  0
  8 13  1  0  0  0  0
  9 10  2  0  0  0  0
  9 12  1  0  0  0  0
 10 11  1  0  0  0  0
 11 13  2  0  0  0  0
 12  8  2  0  0  0  0
 13 16  1  0  0  0  0
 15 14  1  0  0  0  0
 15 20  1  0  0  0  0
 16 15  1  0  0  0  0
 17 16  2  0  0  0  0
 20 19  1  0  0  0  0
 20 18  1  0  0  0  0
 21 22  1  0  0  0  0
 22 23  1  0  0  0  0
 23 24  1  6  0  0  0
 25 32  1  0  0  0  0
 26 23  1  6  0  0  0
 26 29  1  0  0  0  0
 27 26  1  0  0  0  0
 27 31  1  0  0  0  0
 28 30  1  0  0  0  0
 29 33  1  0  0  0  0
 31 25  2  0  0  0  0
 31 33  1  0  0  0  0
 32 30  2  0  0  0  0
 33 28  2  0  0  0  0
M  END
>  <MODEL>
1

>  <REMARK>
 VINA RESULT:      -9.3      0.000      0.000
  Name = 
  8 active torsions:
  status: ('A' for Active; 'I' for Inactive)
    1  A    between atoms: N_4  and  C_23
    2  A    between atoms: C_7  and  C_8
    3  A    between atoms: C_8  and  C_11
    4  A    between atoms: C_10  and  C_29
    5  A    between atoms: C_11  and  C_17
    6  A    between atoms: C_17  and  N_24
    7  A    between atoms: C_22  and  C_33
    8  A    between atoms: C_27  and  C_33
                            x       y       z     vdW  Elec       q    Type
                         _______ _______ _______ _____ _____    ______ ____

>  <TORSDO>
F 8

$$$$
=
 OpenBabel11062412333D

 33 36  0  0  1  0  0  0  0  0999 V2000
  191.4050  176.9950  144.1690 C   0  0  0  0  0  2  0  0  0  0  0  0
  189.9750  177.4330  144.1060 C   0  0  2  0  0  3  0  0  0  0  0  0
  189.3950  177.0490  145.3750 N   0  0  0  0  0  0  0  0  0  0  0  0
  191.5920  176.4930  145.5180 N   0  0  0  0  0  2  0  0  0  0  0  0
  190.4790  176.9280  146.2630 N   0  0  0  0  0  2  0  0  0  0  0  0
  188.3900  175.9140  143.2190 O   0  0  0  0  0  0  0  0  0  0  0  0
  189.2440  176.8010  142.9530 C   0  0  0  0  0  0  0  0  0  0  0  0
  190.6040  176.6710  140.8650 C   0  0  0  0  0  3  0  0  0  0  0  0
  188.6150  178.0310  140.8510 C   0  0  0  0  0  3  0  0  0  0  0  0
  188.8750  178.3600  139.5210 C   0  0  0  0  0  3  0  0  0  0  0  0
  189.9710  177.8530  138.8960 N   0  0  0  0  0  0  0  0  0  0  0  0
  189.4850  177.1770  141.5380 C   0  0  0  0  0  0  0  0  0  0  0  0
  190.8470  177.0240  139.5310 C   0  0  0  0  0  0  0  0  0  0  0  0
  190.8080  174.5850  137.8760 O   0  0  0  0  0  1  0  0  0  0  0  0
  191.9070  175.3780  137.8830 N   0  0  0  0  0  0  0  0  0  0  0  0
  192.0110  176.4950  138.7870 C   0  0  0  0  0  0  0  0  0  0  0  0
  193.1310  177.0500  138.9530 O   0  0  0  0  0  0  0  0  0  0  0  0
  193.0320  175.8300  135.7630 C   0  0  0  0  0  1  0  0  0  0  0  0
  193.0120  173.5370  136.7170 C   0  0  0  0  0  1  0  0  0  0  0  0
  193.0460  175.0170  137.0430 C   0  0  0  0  0  3  0  0  0  0  0  0
  188.5870  178.1670  145.8340 C   0  0  0  0  0  2  0  0  0  0  0  0
  187.2010  177.6720  146.2090 C   0  0  0  0  0  2  0  0  0  0  0  0
  186.1550  178.7230  145.8730 C   0  0  2  0  0  3  0  0  0  0  0  0
  185.5650  179.1900  147.0490 O   0  0  0  0  0  1  0  0  0  0  0  0
  181.7610  179.0880  143.4880 C   0  0  0  0  0  3  0  0  0  0  0  0
  185.0930  178.1660  144.9220 C   0  0  1  0  0  3  0  0  0  0  0  0
  183.7390  178.8740  145.0700 C   0  0  0  0  0  2  0  0  0  0  0  0
  183.5070  178.4380  141.3830 C   0  0  0  0  0  3  0  0  0  0  0  0
  185.6590  178.2570  143.1800 S   0  0  0  0  0  0  0  0  0  0  0  0
  182.1510  178.6750  141.1230 C   0  0  0  0  0  3  0  0  0  0  0  0
  183.1160  178.8430  143.7290 C   0  0  0  0  0  0  0  0  0  0  0  0
  181.2800  179.0040  142.1740 C   0  0  0  0  0  3  0  0  0  0  0  0
  183.9740  178.5380  142.6950 C   0  0  0  0  0  0  0  0  0  0  0  0
  1  4  1  0  0  0  0
  2  7  1  6  0  0  0
  2  1  1  0  0  0  0
  2  3  1  0  0  0  0
  3 21  1  0  0  0  0
  3  5  1  0  0  0  0
  4  5  1  0  0  0  0
  7  6  2  0  0  0  0
  8 12  1  0  0  0  0
  9 12  2  0  0  0  0
 10  9  1  0  0  0  0
 11 10  2  0  0  0  0
 11 13  1  0  0  0  0
 12  7  1  0  0  0  0
 13  8  2  0  0  0  0
 14 15  1  0  0  0  0
 15 16  1  0  0  0  0
 16 17  2  0  0  0  0
 16 13  1  0  0  0  0
 18 20  1  0  0  0  0
 19 20  1  0  0  0  0
 20 15  1  0  0  0  0
 21 22  1  0  0  0  0
 23 22  1  0  0  0  0
 23 24  1  1  0  0  0
 25 31  1  0  0  0  0
 26 27  1  0  0  0  0
 26 23  1  1  0  0  0
 28 33  1  0  0  0  0
 29 26  1  0  0  0  0
 30 28  2  0  0  0  0
 30 32  1  0  0  0  0
 31 27  1  0  0  0  0
 32 25  2  0  0  0  0
 33 29  1  0  0  0  0
 33 31  2  0  0  0  0
M  END
>  <MODEL>
2

>  <REMARK>
 VINA RESULT:      -8.6      2.852      6.005
  Name = 
  8 active torsions:
  status: ('A' for Active; 'I' for Inactive)
    1  A    between atoms: N_4  and  C_23
    2  A    between atoms: C_7  and  C_8
    3  A    between atoms: C_8  and  C_11
    4  A    between atoms: C_10  and  C_29
    5  A    between atoms: C_11  and  C_17
    6  A    between atoms: C_17  and  N_24
    7  A    between atoms: C_22  and  C_33
    8  A    between atoms: C_27  and  C_33
                            x       y       z     vdW  Elec       q    Type
                         _______ _______ _______ _____ _____    ______ ____

>  <TORSDO>
F 8

$$$$
=
 OpenBabel11062412333D

 33 36  0  0  1  0  0  0  0  0999 V2000
  191.6160  177.1320  145.3310 C   0  0  0  0  0  2  0  0  0  0  0  0
  190.1780  177.5150  145.1560 C   0  0  2  0  0  3  0  0  0  0  0  0
  189.5110  177.0790  146.3640 N   0  0  0  0  0  0  0  0  0  0  0  0
  191.7100  176.6070  146.6810 N   0  0  0  0  0  2  0  0  0  0  0  0
  190.5210  176.9800  147.3390 N   0  0  0  0  0  2  0  0  0  0  0  0
  188.5650  176.1430  144.0970 O   0  0  0  0  0  0  0  0  0  0  0  0
  189.5730  176.8810  143.9340 C   0  0  0  0  0  0  0  0  0  0  0  0
  189.2570  176.9580  141.4600 C   0  0  0  0  0  3  0  0  0  0  0  0
  191.4490  177.4190  142.3480 C   0  0  0  0  0  3  0  0  0  0  0  0
  191.9130  177.6080  141.0460 C   0  0  0  0  0  3  0  0  0  0  0  0
  191.0620  177.4710  139.9940 N   0  0  0  0  0  0  0  0  0  0  0  0
  190.1060  177.0900  142.5660 C   0  0  0  0  0  0  0  0  0  0  0  0
  189.7500  177.1450  140.1630 C   0  0  0  0  0  0  0  0  0  0  0  0
  187.1980  178.5790  139.8140 O   0  0  0  0  0  1  0  0  0  0  0  0
  187.7080  177.8520  138.7900 N   0  0  0  0  0  0  0  0  0  0  0  0
  188.8750  177.0270  138.9750 C   0  0  0  0  0  0  0  0  0  0  0  0
  189.1720  176.1750  138.0940 O   0  0  0  0  0  0  0  0  0  0  0  0
  187.5530  178.8590  136.5700 C   0  0  0  0  0  1  0  0  0  0  0  0
  185.5120  178.0660  137.7430 C   0  0  0  0  0  1  0  0  0  0  0  0
  186.9910  177.8180  137.5190 C   0  0  0  0  0  3  0  0  0  0  0  0
  188.6220  178.1530  146.7760 C   0  0  0  0  0  2  0  0  0  0  0  0
  187.1820  177.6770  146.7030 C   0  0  0  0  0  2  0  0  0  0  0  0
  186.2970  178.7570  146.1030 C   0  0  2  0  0  3  0  0  0  0  0  0
  185.6470  179.4510  147.1250 O   0  0  0  0  0  1  0  0  0  0  0  0
  181.9960  179.0040  143.5410 C   0  0  0  0  0  3  0  0  0  0  0  0
  185.2820  178.1640  145.1240 C   0  0  1  0  0  3  0  0  0  0  0  0
  183.9120  178.8550  145.2040 C   0  0  0  0  0  2  0  0  0  0  0  0
  183.8320  178.3340  141.5210 C   0  0  0  0  0  3  0  0  0  0  0  0
  185.9140  178.2260  143.4040 S   0  0  0  0  0  0  0  0  0  0  0  0
  182.4830  178.5460  141.2030 C   0  0  0  0  0  3  0  0  0  0  0  0
  183.3430  178.7850  143.8410 C   0  0  0  0  0  0  0  0  0  0  0  0
  181.5680  178.8840  142.2110 C   0  0  0  0  0  3  0  0  0  0  0  0
  184.2460  178.4700  142.8470 C   0  0  0  0  0  0  0  0  0  0  0  0
  1  4  1  0  0  0  0
  2  7  1  6  0  0  0
  2  1  1  0  0  0  0
  2  3  1  0  0  0  0
  3 21  1  0  0  0  0
  3  5  1  0  0  0  0
  4  5  1  0  0  0  0
  7  6  2  0  0  0  0
  8 12  1  0  0  0  0
  9 12  2  0  0  0  0
 10  9  1  0  0  0  0
 11 13  1  0  0  0  0
 11 10  2  0  0  0  0
 12  7  1  0  0  0  0
 13  8  2  0  0  0  0
 15 16  1  0  0  0  0
 15 14  1  0  0  0  0
 16 13  1  0  0  0  0
 17 16  2  0  0  0  0
 18 20  1  0  0  0  0
 20 19  1  0  0  0  0
 20 15  1  0  0  0  0
 22 21  1  0  0  0  0
 23 22  1  0  0  0  0
 23 24  1  1  0  0  0
 25 31  1  0  0  0  0
 26 27  1  0  0  0  0
 26 23  1  1  0  0  0
 28 33  1  0  0  0  0
 29 26  1  0  0  0  0
 30 28  2  0  0  0  0
 30 32  1  0  0  0  0
 31 27  1  0  0  0  0
 32 25  2  0  0  0  0
 33 29  1  0  0  0  0
 33 31  2  0  0  0  0
M  END
>  <MODEL>
3

>  <REMARK>
 VINA RESULT:      -8.6      2.429      6.393
  Name = 
  8 active torsions:
  status: ('A' for Active; 'I' for Inactive)
    1  A    between atoms: N_4  and  C_23
    2  A    between atoms: C_7  and  C_8
    3  A    between atoms: C_8  and  C_11
    4  A    between atoms: C_10  and  C_29
    5  A    between atoms: C_11  and  C_17
    6  A    between atoms: C_17  and  N_24
    7  A    between atoms: C_22  and  C_33
    8  A    between atoms: C_27  and  C_33
                            x       y       z     vdW  Elec       q    Type
                         _______ _______ _______ _____ _____    ______ ____

>  <TORSDO>
F 8

$$$$
=
 OpenBabel11062412333D

 33 36  0  0  1  0  0  0  0  0999 V2000
  183.7880  175.5930  137.7590 C   0  0  0  0  0  2  0  0  0  0  0  0
  184.2540  177.0000  137.9750 C   0  0  2  0  0  3  0  0  0  0  0  0
  183.0710  177.8240  137.8500 N   0  0  0  0  0  0  0  0  0  0  0  0
  182.3440  175.6830  137.6430 N   0  0  0  0  0  2  0  0  0  0  0  0
  181.9850  176.9660  138.1000 N   0  0  0  0  0  2  0  0  0  0  0  0
  185.0440  177.2640  135.7580 O   0  0  0  0  0  0  0  0  0  0  0  0
  185.3100  177.4000  136.9820 C   0  0  0  0  0  0  0  0  0  0  0  0
  187.0820  177.7810  138.6980 C   0  0  0  0  0  3  0  0  0  0  0  0
  187.4510  178.6180  136.4680 C   0  0  0  0  0  3  0  0  0  0  0  0
  188.6870  179.1130  136.8810 C   0  0  0  0  0  3  0  0  0  0  0  0
  189.0940  178.9400  138.1670 N   0  0  0  0  0  0  0  0  0  0  0  0
  186.6330  177.9430  137.3810 C   0  0  0  0  0  0  0  0  0  0  0  0
  188.3250  178.2950  139.0890 C   0  0  0  0  0  0  0  0  0  0  0  0
  190.2160  176.1950  139.9300 O   0  0  0  0  0  1  0  0  0  0  0  0
  189.8620  177.1720  140.8010 N   0  0  0  0  0  0  0  0  0  0  0  0
  188.8360  178.1270  140.4670 C   0  0  0  0  0  0  0  0  0  0  0  0
  188.3520  178.8530  141.3780 O   0  0  0  0  0  0  0  0  0  0  0  0
  191.9550  177.3660  142.0460 C   0  0  0  0  0  1  0  0  0  0  0  0
  190.1340  175.8840  142.8580 C   0  0  0  0  0  1  0  0  0  0  0  0
  190.4520  177.1790  142.1360 C   0  0  0  0  0  3  0  0  0  0  0  0
  183.1080  178.7960  138.9310 C   0  0  0  0  0  2  0  0  0  0  0  0
  183.3680  178.0820  140.2460 C   0  0  0  0  0  2  0  0  0  0  0  0
  183.9890  179.0370  141.2530 C   0  0  2  0  0  3  0  0  0  0  0  0
  185.1650  179.5750  140.7240 O   0  0  0  0  0  1  0  0  0  0  0  0
  187.1400  177.4720  144.8230 C   0  0  0  0  0  3  0  0  0  0  0  0
  184.2680  178.3370  142.5840 C   0  0  1  0  0  3  0  0  0  0  0  0
  185.7470  177.9590  142.7540 C   0  0  0  0  0  2  0  0  0  0  0  0
  185.1930  178.8310  146.3280 C   0  0  0  0  0  3  0  0  0  0  0  0
  183.7210  179.3710  143.9970 S   0  0  0  0  0  0  0  0  0  0  0  0
  186.3060  178.2650  146.9650 C   0  0  0  0  0  3  0  0  0  0  0  0
  186.0220  178.0380  144.2050 C   0  0  0  0  0  0  0  0  0  0  0  0
  187.2800  177.5900  146.2130 C   0  0  0  0  0  3  0  0  0  0  0  0
  185.0750  178.7160  144.9420 C   0  0  0  0  0  0  0  0  0  0  0  0
  1  2  1  0  0  0  0
  2  7  1  6  0  0  0
  3  2  1  0  0  0  0
  3  5  1  0  0  0  0
  3 21  1  0  0  0  0
  4  1  1  0  0  0  0
  4  5  1  0  0  0  0
  6  7  2  0  0  0  0
  7 12  1  0  0  0  0
  8 13  1  0  0  0  0
  9 10  2  0  0  0  0
  9 12  1  0  0  0  0
 10 11  1  0  0  0  0
 11 13  2  0  0  0  0
 12  8  2  0  0  0  0
 13 16  1  0  0  0  0
 14 15  1  0  0  0  0
 15 20  1  0  0  0  0
 16 15  1  0  0  0  0
 16 17  2  0  0  0  0
 18 20  1  0  0  0  0
 20 19  1  0  0  0  0
 21 22  1  0  0  0  0
 22 23  1  0  0  0  0
 23 24  1  6  0  0  0
 25 32  1  0  0  0  0
 26 23  1  6  0  0  0
 26 27  1  0  0  0  0
 26 29  1  0  0  0  0
 27 31  1  0  0  0  0
 28 30  1  0  0  0  0
 29 33  1  0  0  0  0
 31 25  2  0  0  0  0
 31 33  1  0  0  0  0
 32 30  2  0  0  0  0
 33 28  2  0  0  0  0
M  END
>  <MODEL>
4

>  <REMARK>
 VINA RESULT:      -8.6      1.965      2.688
  Name = 
  8 active torsions:
  status: ('A' for Active; 'I' for Inactive)
    1  A    between atoms: N_4  and  C_23
    2  A    between atoms: C_7  and  C_8
    3  A    between atoms: C_8  and  C_11
    4  A    between atoms: C_10  and  C_29
    5  A    between atoms: C_11  and  C_17
    6  A    between atoms: C_17  and  N_24
    7  A    between atoms: C_22  and  C_33
    8  A    between atoms: C_27  and  C_33
                            x       y       z     vdW  Elec       q    Type
                         _______ _______ _______ _____ _____    ______ ____

>  <TORSDO>
F 8

$$$$
=
 OpenBabel11062412333D

 33 36  0  0  1  0  0  0  0  0999 V2000
  184.6030  177.8110  138.5580 C   0  0  0  0  0  2  0  0  0  0  0  0
  185.7330  178.1610  139.4760 C   0  0  2  0  0  3  0  0  0  0  0  0
  185.3710  179.4290  140.0710 N   0  0  0  0  0  0  0  0  0  0  0  0
  183.6040  178.8420  138.7720 N   0  0  0  0  0  2  0  0  0  0  0  0
  183.9720  179.5160  139.9530 N   0  0  0  0  0  2  0  0  0  0  0  0
  187.0610  178.8740  137.6510 O   0  0  0  0  0  0  0  0  0  0  0  0
  187.0440  178.2500  138.7450 C   0  0  0  0  0  0  0  0  0  0  0  0
  189.1220  176.9160  138.3860 C   0  0  0  0  0  3  0  0  0  0  0  0
  188.6840  177.7790  140.5930 C   0  0  0  0  0  3  0  0  0  0  0  0
  189.8710  177.1950  141.0330 C   0  0  0  0  0  3  0  0  0  0  0  0
  190.6480  176.4940  140.1650 N   0  0  0  0  0  0  0  0  0  0  0  0
  188.2980  177.6430  139.2540 C   0  0  0  0  0  0  0  0  0  0  0  0
  190.3050  176.3320  138.8560 C   0  0  0  0  0  0  0  0  0  0  0  0
  193.0690  177.1180  138.1970 O   0  0  0  0  0  1  0  0  0  0  0  0
  192.5900  175.9210  137.7780 N   0  0  0  0  0  0  0  0  0  0  0  0
  191.2040  175.5710  137.9610 C   0  0  0  0  0  0  0  0  0  0  0  0
  190.7340  174.5780  137.3420 O   0  0  0  0  0  0  0  0  0  0  0  0
  194.3800  174.2710  137.9750 C   0  0  0  0  0  1  0  0  0  0  0  0
  194.2990  175.8210  136.0360 C   0  0  0  0  0  1  0  0  0  0  0  0
  193.4700  175.0300  137.0290 C   0  0  0  0  0  3  0  0  0  0  0  0
  185.6770  179.3410  141.4900 C   0  0  0  0  0  2  0  0  0  0  0  0
  184.7880  178.2920  142.1370 C   0  0  0  0  0  2  0  0  0  0  0  0
  184.4820  178.6720  143.5760 C   0  0  2  0  0  3  0  0  0  0  0  0
  184.6840  180.0430  143.7520 O   0  0  0  0  0  1  0  0  0  0  0  0
  188.9390  177.2350  145.3640 C   0  0  0  0  0  3  0  0  0  0  0  0
  185.3400  177.8710  144.5580 C   0  0  1  0  0  3  0  0  0  0  0  0
  186.7960  177.7310  144.0910 C   0  0  0  0  0  2  0  0  0  0  0  0
  187.6130  178.0480  147.7060 C   0  0  0  0  0  3  0  0  0  0  0  0
  185.2890  178.6150  146.2330 S   0  0  0  0  0  0  0  0  0  0  0  0
  188.9410  177.6050  147.7680 C   0  0  0  0  0  3  0  0  0  0  0  0
  187.6130  177.6750  145.3220 C   0  0  0  0  0  0  0  0  0  0  0  0
  189.6040  177.2030  146.5980 C   0  0  0  0  0  3  0  0  0  0  0  0
  186.9680  178.0870  146.4690 C   0  0  0  0  0  0  0  0  0  0  0  0
  1  4  1  0  0  0  0
  1  2  1  0  0  0  0
  2  7  1  6  0  0  0
  2  3  1  0  0  0  0
  3 21  1  0  0  0  0
  4  5  1  0  0  0  0
  5  3  1  0  0  0  0
  6  7  2  0  0  0  0
  7 12  1  0  0  0  0
  8 13  2  0  0  0  0
  8 12  1  0  0  0  0
  9 10  1  0  0  0  0
 11 10  2  0  0  0  0
 12  9  2  0  0  0  0
 13 11  1  0  0  0  0
 15 16  1  0  0  0  0
 15 14  1  0  0  0  0
 16 13  1  0  0  0  0
 17 16  2  0  0  0  0
 19 20  1  0  0  0  0
 20 15  1  0  0  0  0
 20 18  1  0  0  0  0
 21 22  1  0  0  0  0
 22 23  1  0  0  0  0
 23 24  1  6  0  0  0
 25 32  1  0  0  0  0
 26 23  1  6  0  0  0
 26 29  1  0  0  0  0
 27 26  1  0  0  0  0
 27 31  1  0  0  0  0
 28 30  1  0  0  0  0
 29 33  1  0  0  0  0
 31 25  2  0  0  0  0
 31 33  1  0  0  0  0
 32 30  2  0  0  0  0
 33 28  2  0  0  0  0
M  END
>  <MODEL>
5

>  <REMARK>
 VINA RESULT:      -8.2      1.906      2.928
  Name = 
  8 active torsions:
  status: ('A' for Active; 'I' for Inactive)
    1  A    between atoms: N_4  and  C_23
    2  A    between atoms: C_7  and  C_8
    3  A    between atoms: C_8  and  C_11
    4  A    between atoms: C_10  and  C_29
    5  A    between atoms: C_11  and  C_17
    6  A    between atoms: C_17  and  N_24
    7  A    between atoms: C_22  and  C_33
    8  A    between atoms: C_27  and  C_33
                            x       y       z     vdW  Elec       q    Type
                         _______ _______ _______ _____ _____    ______ ____

>  <TORSDO>
F 8

$$$$
=
 OpenBabel11062412333D

 33 36  0  0  1  0  0  0  0  0999 V2000
  183.7040  178.0210  141.0320 C   0  0  0  0  0  2  0  0  0  0  0  0
  184.6450  178.2450  142.1750 C   0  0  2  0  0  3  0  0  0  0  0  0
  183.8840  178.9710  143.1680 N   0  0  0  0  0  0  0  0  0  0  0  0
  182.4220  178.5290  141.4870 N   0  0  0  0  0  2  0  0  0  0  0  0
  182.5330  178.7010  142.8800 N   0  0  0  0  0  2  0  0  0  0  0  0
  185.9320  180.2290  142.0610 O   0  0  0  0  0  0  0  0  0  0  0  0
  185.8700  179.0090  141.7530 C   0  0  0  0  0  0  0  0  0  0  0  0
  186.9440  178.3360  139.6030 C   0  0  0  0  0  3  0  0  0  0  0  0
  188.1040  177.8570  141.6610 C   0  0  0  0  0  3  0  0  0  0  0  0
  189.1380  177.2850  140.9200 C   0  0  0  0  0  3  0  0  0  0  0  0
  189.0620  177.2460  139.5630 N   0  0  0  0  0  0  0  0  0  0  0  0
  186.9910  178.3910  141.0020 C   0  0  0  0  0  0  0  0  0  0  0  0
  187.9920  177.7480  138.8840 C   0  0  0  0  0  0  0  0  0  0  0  0
  187.0820  175.4280  137.3080 O   0  0  0  0  0  1  0  0  0  0  0  0
  187.4000  176.5870  136.6810 N   0  0  0  0  0  0  0  0  0  0  0  0
  187.9810  177.6880  137.4050 C   0  0  0  0  0  0  0  0  0  0  0  0
  188.4980  178.6420  136.7630 O   0  0  0  0  0  0  0  0  0  0  0  0
  185.9360  177.3210  134.8680 C   0  0  0  0  0  1  0  0  0  0  0  0
  187.3360  175.2850  134.6140 C   0  0  0  0  0  1  0  0  0  0  0  0
  187.2560  176.6680  135.2300 C   0  0  0  0  0  3  0  0  0  0  0  0
  184.1770  178.3700  144.4580 C   0  0  0  0  0  2  0  0  0  0  0  0
  185.2550  179.1760  145.1620 C   0  0  0  0  0  2  0  0  0  0  0  0
  185.5630  178.5730  146.5230 C   0  0  2  0  0  3  0  0  0  0  0  0
  185.8190  179.5940  147.4400 O   0  0  0  0  0  1  0  0  0  0  0  0
  190.0480  177.2420  144.7250 C   0  0  0  0  0  3  0  0  0  0  0  0
  186.7460  177.6070  146.4480 C   0  0  1  0  0  3  0  0  0  0  0  0
  187.6290  177.8480  145.2160 C   0  0  0  0  0  2  0  0  0  0  0  0
  190.4370  176.9770  147.4960 C   0  0  0  0  0  3  0  0  0  0  0  0
  187.7620  177.6940  147.9730 S   0  0  0  0  0  0  0  0  0  0  0  0
  191.4960  176.7340  146.6110 C   0  0  0  0  0  3  0  0  0  0  0  0
  189.0020  177.4770  145.6210 C   0  0  0  0  0  0  0  0  0  0  0  0
  191.3030  176.8700  145.2280 C   0  0  0  0  0  3  0  0  0  0  0  0
  189.1970  177.3600  146.9810 C   0  0  0  0  0  0  0  0  0  0  0  0
  1  4  1  0  0  0  0
  1  2  1  0  0  0  0
  2  7  1  6  0  0  0
  2  3  1  0  0  0  0
  3 21  1  0  0  0  0
  4  5  1  0  0  0  0
  5  3  1  0  0  0  0
  7  6  2  0  0  0  0
  8 12  1  0  0  0  0
 10  9  1  0  0  0  0
 11 10  2  0  0  0  0
 12  9  2  0  0  0  0
 12  7  1  0  0  0  0
 13 11  1  0  0  0  0
 13  8  2  0  0  0  0
 15 14  1  0  0  0  0
 15 16  1  0  0  0  0
 16 13  1  0  0  0  0
 17 16  2  0  0  0  0
 18 20  1  0  0  0  0
 19 20  1  0  0  0  0
 20 15  1  0  0  0  0
 21 22  1  0  0  0  0
 22 23  1  0  0  0  0
 23 24  1  1  0  0  0
 25 32  2  0  0  0  0
 25 31  1  0  0  0  0
 26 23  1  1  0  0  0
 26 29  1  0  0  0  0
 27 31  1  0  0  0  0
 27 26  1  0  0  0  0
 30 28  2  0  0  0  0
 31 33  2  0  0  0  0
 32 30  1  0  0  0  0
 33 28  1  0  0  0  0
 33 29  1  0  0  0  0
M  END
>  <MODEL>
6

>  <REMARK>
 VINA RESULT:      -8.2      2.180      4.540
  Name = 
  8 active torsions:
  status: ('A' for Active; 'I' for Inactive)
    1  A    between atoms: N_4  and  C_23
    2  A    between atoms: C_7  and  C_8
    3  A    between atoms: C_8  and  C_11
    4  A    between atoms: C_10  and  C_29
    5  A    between atoms: C_11  and  C_17
    6  A    between atoms: C_17  and  N_24
    7  A    between atoms: C_22  and  C_33
    8  A    between atoms: C_27  and  C_33
                            x       y       z     vdW  Elec       q    Type
                         _______ _______ _______ _____ _____    ______ ____

>  <TORSDO>
F 8

$$$$
=
 OpenBabel11062412333D

 33 36  0  0  1  0  0  0  0  0999 V2000
  186.4510  176.1860  135.8690 C   0  0  0  0  0  2  0  0  0  0  0  0
  186.1820  176.8340  137.1920 C   0  0  2  0  0  3  0  0  0  0  0  0
  184.9280  177.5390  137.0300 N   0  0  0  0  0  0  0  0  0  0  0  0
  185.2760  176.4590  135.0630 N   0  0  0  0  0  2  0  0  0  0  0  0
  184.2800  176.9120  135.9500 N   0  0  0  0  0  2  0  0  0  0  0  0
  187.2240  178.9600  137.1940 O   0  0  0  0  0  0  0  0  0  0  0  0
  187.2890  177.7680  137.5960 C   0  0  0  0  0  0  0  0  0  0  0  0
  188.4770  177.7140  139.7910 C   0  0  0  0  0  3  0  0  0  0  0  0
  189.4870  176.5880  137.9150 C   0  0  0  0  0  3  0  0  0  0  0  0
  190.5470  176.2110  138.7390 C   0  0  0  0  0  3  0  0  0  0  0  0
  190.5570  176.5830  140.0470 N   0  0  0  0  0  0  0  0  0  0  0  0
  188.4350  177.3480  138.4390 C   0  0  0  0  0  0  0  0  0  0  0  0
  189.5570  177.3290  140.5950 C   0  0  0  0  0  0  0  0  0  0  0  0
  190.2080  175.4400  142.7620 O   0  0  0  0  0  1  0  0  0  0  0  0
  190.0790  176.7610  143.0350 N   0  0  0  0  0  0  0  0  0  0  0  0
  189.6230  177.6860  142.0290 C   0  0  0  0  0  0  0  0  0  0  0  0
  189.2690  178.8460  142.3750 O   0  0  0  0  0  0  0  0  0  0  0  0
  191.4740  176.5020  145.0240 C   0  0  0  0  0  1  0  0  0  0  0  0
  189.0490  176.9990  145.2380 C   0  0  0  0  0  1  0  0  0  0  0  0
  190.2940  177.2260  144.4030 C   0  0  0  0  0  3  0  0  0  0  0  0
  184.1320  177.2770  138.2180 C   0  0  0  0  0  2  0  0  0  0  0  0
  183.0790  178.3600  138.3740 C   0  0  0  0  0  2  0  0  0  0  0  0
  183.4560  179.3060  139.5030 C   0  0  2  0  0  3  0  0  0  0  0  0
  184.6230  179.9950  139.1680 O   0  0  0  0  0  1  0  0  0  0  0  0
  185.8760  178.5110  143.8200 C   0  0  0  0  0  3  0  0  0  0  0  0
  183.6340  178.5530  140.8230 C   0  0  1  0  0  3  0  0  0  0  0  0
  185.0260  178.7620  141.4380 C   0  0  0  0  0  2  0  0  0  0  0  0
  183.2090  178.7140  144.6840 C   0  0  0  0  0  3  0  0  0  0  0  0
  182.3390  179.0280  142.0310 S   0  0  0  0  0  0  0  0  0  0  0  0
  184.2380  178.5290  145.6170 C   0  0  0  0  0  3  0  0  0  0  0  0
  184.8370  178.6900  142.9030 C   0  0  0  0  0  0  0  0  0  0  0  0
  185.5700  178.4320  145.1860 C   0  0  0  0  0  3  0  0  0  0  0  0
  183.5300  178.8040  143.3280 C   0  0  0  0  0  0  0  0  0  0  0  0
  1  2  1  0  0  0  0
  2  7  1  6  0  0  0
  3  2  1  0  0  0  0
  3 21  1  0  0  0  0
  4  1  1  0  0  0  0
  4  5  1  0  0  0  0
  5  3  1  0  0  0  0
  6  7  2  0  0  0  0
  7 12  1  0  0  0  0
  8 13  1  0  0  0  0
  9 12  1  0  0  0  0
  9 10  2  0  0  0  0
 10 11  1  0  0  0  0
 11 13  2  0  0  0  0
 12  8  2  0  0  0  0
 13 16  1  0  0  0  0
 14 15  1  0  0  0  0
 15 20  1  0  0  0  0
 16 17  2  0  0  0  0
 16 15  1  0  0  0  0
 20 18  1  0  0  0  0
 20 19  1  0  0  0  0
 21 22  1  0  0  0  0
 22 23  1  0  0  0  0
 23 24  1  6  0  0  0
 25 32  1  0  0  0  0
 26 23  1  6  0  0  0
 26 27  1  0  0  0  0
 26 29  1  0  0  0  0
 27 31  1  0  0  0  0
 28 30  1  0  0  0  0
 29 33  1  0  0  0  0
 31 33  1  0  0  0  0
 31 25  2  0  0  0  0
 32 30  2  0  0  0  0
 33 28  2  0  0  0  0
M  END
>  <MODEL>
7

>  <REMARK>
 VINA RESULT:      -8.2      2.157      3.395
  Name = 
  8 active torsions:
  status: ('A' for Active; 'I' for Inactive)
    1  A    between atoms: N_4  and  C_23
    2  A    between atoms: C_7  and  C_8
    3  A    between atoms: C_8  and  C_11
    4  A    between atoms: C_10  and  C_29
    5  A    between atoms: C_11  and  C_17
    6  A    between atoms: C_17  and  N_24
    7  A    between atoms: C_22  and  C_33
    8  A    between atoms: C_27  and  C_33
                            x       y       z     vdW  Elec       q    Type
                         _______ _______ _______ _____ _____    ______ ____

>  <TORSDO>
F 8

$$$$
=
 OpenBabel11062412333D

 33 36  0  0  1  0  0  0  0  0999 V2000
  190.4300  177.1290  145.5560 C   0  0  0  0  0  2  0  0  0  0  0  0
  189.1100  177.5270  144.9720 C   0  0  2  0  0  3  0  0  0  0  0  0
  188.1210  177.1570  145.9620 N   0  0  0  0  0  0  0  0  0  0  0  0
  190.1300  176.6630  146.8970 N   0  0  0  0  0  2  0  0  0  0  0  0
  188.8170  177.0860  147.1820 N   0  0  0  0  0  2  0  0  0  0  0  0
  187.9140  176.0060  143.6060 O   0  0  0  0  0  0  0  0  0  0  0  0
  188.8500  176.8490  143.6550 C   0  0  0  0  0  0  0  0  0  0  0  0
  188.9790  177.3720  141.2180 C   0  0  0  0  0  3  0  0  0  0  0  0
  191.0370  177.1610  142.4540 C   0  0  0  0  0  3  0  0  0  0  0  0
  191.7430  177.4300  141.2820 C   0  0  0  0  0  3  0  0  0  0  0  0
  191.0730  177.6590  140.1210 N   0  0  0  0  0  0  0  0  0  0  0  0
  189.6390  177.1300  142.4300 C   0  0  0  0  0  0  0  0  0  0  0  0
  189.7120  177.6310  140.0540 C   0  0  0  0  0  0  0  0  0  0  0  0
  189.4080  175.6670  137.8750 O   0  0  0  0  0  1  0  0  0  0  0  0
  188.8010  176.8760  137.7840 N   0  0  0  0  0  0  0  0  0  0  0  0
  189.0460  177.9060  138.7610 C   0  0  0  0  0  0  0  0  0  0  0  0
  188.6790  179.0870  138.5160 O   0  0  0  0  0  0  0  0  0  0  0  0
  186.8940  176.1240  136.4560 C   0  0  0  0  0  1  0  0  0  0  0  0
  188.8420  177.2120  135.3650 C   0  0  0  0  0  1  0  0  0  0  0  0
  187.9810  177.1700  136.6120 C   0  0  0  0  0  3  0  0  0  0  0  0
  187.1840  178.2640  146.0660 C   0  0  0  0  0  2  0  0  0  0  0  0
  185.9010  177.9160  145.3310 C   0  0  0  0  0  2  0  0  0  0  0  0
  184.9560  179.1050  145.3230 C   0  0  2  0  0  3  0  0  0  0  0  0
  183.8260  178.8110  146.0890 O   0  0  0  0  0  1  0  0  0  0  0  0
  185.5970  178.8610  140.3580 C   0  0  0  0  0  3  0  0  0  0  0  0
  184.5540  179.4880  143.8970 C   0  0  1  0  0  3  0  0  0  0  0  0
  185.6650  179.2040  142.8750 C   0  0  0  0  0  2  0  0  0  0  0  0
  182.8600  178.2770  140.6140 C   0  0  0  0  0  3  0  0  0  0  0  0
  183.0110  178.6320  143.3970 S   0  0  0  0  0  0  0  0  0  0  0  0
  183.4660  178.2660  139.3510 C   0  0  0  0  0  3  0  0  0  0  0  0
  184.9760  178.8710  141.6090 C   0  0  0  0  0  0  0  0  0  0  0  0
  184.8330  178.5540  139.2230 C   0  0  0  0  0  3  0  0  0  0  0  0
  183.6370  178.5710  141.7360 C   0  0  0  0  0  0  0  0  0  0  0  0
  1  4  1  0  0  0  0
  2  7  1  6  0  0  0
  2  1  1  0  0  0  0
  2  3  1  0  0  0  0
  3 21  1  0  0  0  0
  3  5  1  0  0  0  0
  4  5  1  0  0  0  0
  6  7  2  0  0  0  0
  8 12  1  0  0  0  0
 10  9  1  0  0  0  0
 11 10  2  0  0  0  0
 12  9  2  0  0  0  0
 12  7  1  0  0  0  0
 13 11  1  0  0  0  0
 13  8  2  0  0  0  0
 15 14  1  0  0  0  0
 15 16  1  0  0  0  0
 16 13  1  0  0  0  0
 17 16  2  0  0  0  0
 18 20  1  0  0  0  0
 19 20  1  0  0  0  0
 20 15  1  0  0  0  0
 22 21  1  0  0  0  0
 23 22  1  0  0  0  0
 23 24  1  1  0  0  0
 25 31  1  0  0  0  0
 26 23  1  1  0  0  0
 27 26  1  0  0  0  0
 28 33  1  0  0  0  0
 29 26  1  0  0  0  0
 30 28  2  0  0  0  0
 31 33  2  0  0  0  0
 31 27  1  0  0  0  0
 32 30  1  0  0  0  0
 32 25  2  0  0  0  0
 33 29  1  0  0  0  0
M  END
>  <MODEL>
8

>  <REMARK>
 VINA RESULT:      -8.1      2.461      6.184
  Name = 
  8 active torsions:
  status: ('A' for Active; 'I' for Inactive)
    1  A    between atoms: N_4  and  C_23
    2  A    between atoms: C_7  and  C_8
    3  A    between atoms: C_8  and  C_11
    4  A    between atoms: C_10  and  C_29
    5  A    between atoms: C_11  and  C_17
    6  A    between atoms: C_17  and  N_24
    7  A    between atoms: C_22  and  C_33
    8  A    between atoms: C_27  and  C_33
                            x       y       z     vdW  Elec       q    Type
                         _______ _______ _______ _____ _____    ______ ____

>  <TORSDO>
F 8

$$$$
=
 OpenBabel11062412333D

 33 36  0  0  1  0  0  0  0  0999 V2000
  188.0480  176.0760  137.8350 C   0  0  0  0  0  2  0  0  0  0  0  0
  187.6410  177.4700  138.1970 C   0  0  2  0  0  3  0  0  0  0  0  0
  187.1660  178.0680  136.9680 N   0  0  0  0  0  0  0  0  0  0  0  0
  187.6700  175.9170  136.4430 N   0  0  0  0  0  2  0  0  0  0  0  0
  186.8090  176.9890  136.1380 N   0  0  0  0  0  2  0  0  0  0  0  0
  189.0530  179.3700  138.2650 O   0  0  0  0  0  0  0  0  0  0  0  0
  188.7830  178.2540  138.7840 C   0  0  0  0  0  0  0  0  0  0  0  0
  188.9700  177.5370  141.1670 C   0  0  0  0  0  3  0  0  0  0  0  0
  190.9650  177.5470  139.8150 C   0  0  0  0  0  3  0  0  0  0  0  0
  191.6890  177.0940  140.9180 C   0  0  0  0  0  3  0  0  0  0  0  0
  191.0580  176.8750  142.1030 N   0  0  0  0  0  0  0  0  0  0  0  0
  189.5890  177.7730  139.9330 C   0  0  0  0  0  0  0  0  0  0  0  0
  189.7220  177.0900  142.2610 C   0  0  0  0  0  0  0  0  0  0  0  0
  191.0380  177.5130  144.8660 O   0  0  0  0  0  1  0  0  0  0  0  0
  189.7270  177.1670  144.8200 N   0  0  0  0  0  0  0  0  0  0  0  0
  189.0960  176.8160  143.5730 C   0  0  0  0  0  0  0  0  0  0  0  0
  187.9660  176.2570  143.5930 O   0  0  0  0  0  0  0  0  0  0  0  0
  188.0270  178.2020  146.2350 C   0  0  0  0  0  1  0  0  0  0  0  0
  189.9400  176.9830  147.2460 C   0  0  0  0  0  1  0  0  0  0  0  0
  188.9850  177.0380  146.0700 C   0  0  0  0  0  3  0  0  0  0  0  0
  185.9430  178.7880  137.2860 C   0  0  0  0  0  2  0  0  0  0  0  0
  185.0380  177.9050  138.1280 C   0  0  0  0  0  2  0  0  0  0  0  0
  184.0930  178.7570  138.9600 C   0  0  2  0  0  3  0  0  0  0  0  0
  184.5270  180.0840  138.9500 O   0  0  0  0  0  1  0  0  0  0  0  0
  185.3960  178.9010  143.7980 C   0  0  0  0  0  3  0  0  0  0  0  0
  183.9900  178.2340  140.3940 C   0  0  1  0  0  3  0  0  0  0  0  0
  185.1600  178.6950  141.2760 C   0  0  0  0  0  2  0  0  0  0  0  0
  182.5900  178.9140  143.9560 C   0  0  0  0  0  3  0  0  0  0  0  0
  182.3980  178.7260  141.1600 S   0  0  0  0  0  0  0  0  0  0  0  0
  183.3600  178.9920  145.1240 C   0  0  0  0  0  3  0  0  0  0  0  0
  184.6130  178.8190  142.6440 C   0  0  0  0  0  0  0  0  0  0  0  0
  184.7610  178.9900  145.0450 C   0  0  0  0  0  3  0  0  0  0  0  0
  183.2360  178.8390  142.7210 C   0  0  0  0  0  0  0  0  0  0  0  0
  1  2  1  0  0  0  0
  2  7  1  6  0  0  0
  3 21  1  0  0  0  0
  3  2  1  0  0  0  0
  4  1  1  0  0  0  0
  5  4  1  0  0  0  0
  5  3  1  0  0  0  0
  6  7  2  0  0  0  0
  7 12  1  0  0  0  0
  8 13  1  0  0  0  0
  9 12  1  0  0  0  0
  9 10  2  0  0  0  0
 10 11  1  0  0  0  0
 11 13  2  0  0  0  0
 12  8  2  0  0  0  0
 13 16  1  0  0  0  0
 15 14  1  0  0  0  0
 15 20  1  0  0  0  0
 16 17  2  0  0  0  0
 16 15  1  0  0  0  0
 20 18  1  0  0  0  0
 20 19  1  0  0  0  0
 21 22  1  0  0  0  0
 22 23  1  0  0  0  0
 23 24  1  1  0  0  0
 25 32  1  0  0  0  0
 26 23  1  6  0  0  0
 26 29  1  0  0  0  0
 26 27  1  0  0  0  0
 27 31  1  0  0  0  0
 28 30  1  0  0  0  0
 29 33  1  0  0  0  0
 31 33  1  0  0  0  0
 31 25  2  0  0  0  0
 32 30  2  0  0  0  0
 33 28  2  0  0  0  0
M  END
>  <MODEL>
9

>  <REMARK>
 VINA RESULT:      -8.1      2.435      4.271
  Name = 
  8 active torsions:
  status: ('A' for Active; 'I' for Inactive)
    1  A    between atoms: N_4  and  C_23
    2  A    between atoms: C_7  and  C_8
    3  A    between atoms: C_8  and  C_11
    4  A    between atoms: C_10  and  C_29
    5  A    between atoms: C_11  and  C_17
    6  A    between atoms: C_17  and  N_24
    7  A    between atoms: C_22  and  C_33
    8  A    between atoms: C_27  and  C_33
                            x       y       z     vdW  Elec       q    Type
                         _______ _______ _______ _____ _____    ______ ____

>  <TORSDO>
F 8

$$$$
