=
 OpenBabel11062414103D

 32 38  0  0  1  0  0  0  0  0999 V2000
  179.3680  178.9510  144.7770 F   0  0  0  0  0  0  0  0  0  0  0  0
  184.2260  178.2250  140.7330 C   0  0  0  0  0  3  0  0  0  0  0  0
  186.6160  178.0020  144.4910 C   0  0  0  0  0  0  0  0  0  0  0  0
  182.5010  178.6410  142.8860 C   0  0  0  0  0  0  0  0  0  0  0  0
  180.0710  177.9090  140.1610 O   0  0  0  0  0  1  0  0  0  0  0  0
  179.7210  178.4360  142.4800 C   0  0  0  0  0  3  0  0  0  0  0  0
  184.7750  178.5410  141.9880 C   0  0  0  0  0  0  0  0  0  0  0  0
  182.8550  178.1060  140.5440 C   0  0  0  0  0  3  0  0  0  0  0  0
  186.9760  178.7300  140.7390 C   0  0  0  0  0  3  0  0  0  0  0  0
  188.8960  176.8900  144.3400 S   0  0  0  0  0  0  0  0  0  0  0  0
  186.2590  178.8150  142.0810 C   0  0  0  0  0  0  0  0  0  0  0  0
  187.6070  177.5270  146.6320 N   0  0  0  0  0  0  0  0  0  0  0  0
  181.9810  178.3230  141.6070 C   0  0  0  0  0  0  0  0  0  0  0  0
  188.1960  177.4160  142.9000 C   0  0  0  0  0  0  0  0  0  0  0  0
  184.3620  178.9330  144.4950 C   0  0  0  0  0  3  0  0  0  0  0  0
  185.4990  178.5880  145.1110 C   0  0  0  0  0  0  0  0  0  0  0  0
  181.5980  178.8460  143.9460 C   0  0  0  0  0  3  0  0  0  0  0  0
  188.7980  177.4300  141.7140 C   0  0  0  0  0  3  0  0  0  0  0  0
  180.2200  178.7470  143.7430 C   0  0  0  0  0  0  0  0  0  0  0  0
  180.5940  178.2220  141.4110 C   0  0  0  0  0  0  0  0  0  0  0  0
  186.5690  178.1460  147.2580 C   0  0  0  0  0  3  0  0  0  0  0  0
  186.9470  177.9950  143.1330 C   0  0  0  0  0  0  0  0  0  0  0  0
  187.6210  177.4490  145.2800 C   0  0  0  0  0  0  0  0  0  0  0  0
  188.1430  178.0850  140.5600 C   0  0  0  0  0  0  0  0  0  0  0  0
  183.9040  178.7240  143.0930 C   0  0  2  0  0  3  0  0  0  0  0  0
  185.5060  178.6800  146.5120 C   0  0  0  0  0  3  0  0  0  0  0  0
  188.7490  178.0600  139.2530 N   0  0  0  0  0  0  0  0  0  0  0  0
  190.2770  176.1540  139.5020 N   0  0  0  0  0  1  0  0  0  0  0  0
  188.4510  178.9070  138.2830 N   0  0  0  0  0  0  0  0  0  0  0  0
  190.0080  177.5060  137.4960 N   0  0  0  0  0  0  0  0  0  0  0  0
  189.2150  178.5670  137.2220 C   0  0  0  0  0  3  0  0  0  0  0  0
  189.6850  177.2220  138.7700 C   0  0  0  0  0  0  0  0  0  0  0  0
  2  7  1  0  0  0  0
  3 16  1  0  0  0  0
  3 23  1  0  0  0  0
  4 25  1  0  0  0  0
  4 17  1  0  0  0  0
  5 20  1  0  0  0  0
  6 19  1  0  0  0  0
  7 11  2  0  0  0  0
  7 25  1  0  0  0  0
  8  2  2  0  0  0  0
  8 13  1  0  0  0  0
  9 11  1  0  0  0  0
 10 23  1  0  0  0  0
 11 22  1  0  0  0  0
 12 21  1  0  0  0  0
 13  4  2  0  0  0  0
 14 22  1  0  0  0  0
 14 10  1  0  0  0  0
 15 16  2  0  0  0  0
 16 26  1  0  0  0  0
 18 14  2  0  0  0  0
 19 17  2  0  0  0  0
 19  1  1  0  0  0  0
 20 13  1  0  0  0  0
 20  6  2  0  0  0  0
 22  3  2  0  0  0  0
 23 12  2  0  0  0  0
 24  9  2  0  0  0  0
 24 18  1  0  0  0  0
 25 15  1  1  0  0  0
 26 21  2  0  0  0  0
 27 24  1  0  0  0  0
 29 27  1  0  0  0  0
 30 32  2  0  0  0  0
 31 30  1  0  0  0  0
 31 29  2  0  0  0  0
 32 27  1  0  0  0  0
 32 28  1  0  0  0  0
M  END
>  <MODEL>
1

>  <REMARK>
 VINA RESULT:     -12.3      0.000      0.000
  Name = 
  1 active torsions:
  status: ('A' for Active; 'I' for Inactive)
    1  A    between atoms: N_4  and  C_30
                            x       y       z     vdW  Elec       q    Type
                         _______ _______ _______ _____ _____    ______ ____

>  <TORSDO>
F 1

$$$$
=
 OpenBabel11062414103D

 32 38  0  0  1  0  0  0  0  0999 V2000
  179.6830  179.3910  144.5890 F   0  0  0  0  0  0  0  0  0  0  0  0
  184.5400  178.1610  140.6670 C   0  0  0  0  0  3  0  0  0  0  0  0
  186.8540  177.9500  144.4730 C   0  0  0  0  0  0  0  0  0  0  0  0
  182.8150  178.7880  142.7700 C   0  0  0  0  0  0  0  0  0  0  0  0
  180.3820  178.0980  140.0370 O   0  0  0  0  0  1  0  0  0  0  0  0
  180.0340  178.7500  142.3230 C   0  0  0  0  0  3  0  0  0  0  0  0
  185.0900  178.4970  141.9160 C   0  0  0  0  0  0  0  0  0  0  0  0
  183.1670  178.1260  140.4600 C   0  0  0  0  0  3  0  0  0  0  0  0
  187.3170  178.4830  140.7000 C   0  0  0  0  0  3  0  0  0  0  0  0
  189.0560  176.6820  144.4110 S   0  0  0  0  0  0  0  0  0  0  0  0
  186.5880  178.6750  142.0240 C   0  0  0  0  0  0  0  0  0  0  0  0
  187.7800  177.5070  146.6500 N   0  0  0  0  0  0  0  0  0  0  0  0
  182.2940  178.4480  141.4960 C   0  0  0  0  0  0  0  0  0  0  0  0
  188.4140  177.1890  142.9370 C   0  0  0  0  0  0  0  0  0  0  0  0
  184.6690  179.0280  144.3970 C   0  0  0  0  0  3  0  0  0  0  0  0
  185.7700  178.6360  145.0470 C   0  0  0  0  0  0  0  0  0  0  0  0
  181.9130  179.1000  143.8030 C   0  0  0  0  0  3  0  0  0  0  0  0
  189.0330  177.1090  141.7630 C   0  0  0  0  0  3  0  0  0  0  0  0
  180.5350  179.0840  143.5810 C   0  0  0  0  0  0  0  0  0  0  0  0
  180.9060  178.4310  141.2810 C   0  0  0  0  0  0  0  0  0  0  0  0
  186.7770  178.2210  147.2300 C   0  0  0  0  0  3  0  0  0  0  0  0
  187.2040  177.8600  143.1230 C   0  0  0  0  0  0  0  0  0  0  0  0
  187.8080  177.3680  145.3030 C   0  0  0  0  0  0  0  0  0  0  0  0
  188.4410  177.7540  140.5690 C   0  0  0  0  0  0  0  0  0  0  0  0
  184.2180  178.7870  142.9970 C   0  0  2  0  0  3  0  0  0  0  0  0
  185.7630  178.7910  146.4420 C   0  0  0  0  0  3  0  0  0  0  0  0
  189.0620  177.6300  139.2760 N   0  0  0  0  0  0  0  0  0  0  0  0
  187.2730  178.4900  137.8310 N   0  0  0  0  0  1  0  0  0  0  0  0
  190.2820  177.1600  139.0830 N   0  0  0  0  0  0  0  0  0  0  0  0
  189.4450  177.6910  137.0780 N   0  0  0  0  0  0  0  0  0  0  0  0
  190.5090  177.2000  137.7530 C   0  0  0  0  0  3  0  0  0  0  0  0
  188.5680  177.9470  138.0650 C   0  0  0  0  0  0  0  0  0  0  0  0
  2  7  1  0  0  0  0
  3 16  1  0  0  0  0
  3 23  1  0  0  0  0
  4 25  1  0  0  0  0
  4 17  1  0  0  0  0
  5 20  1  0  0  0  0
  6 19  1  0  0  0  0
  7 11  2  0  0  0  0
  7 25  1  0  0  0  0
  8  2  2  0  0  0  0
  8 13  1  0  0  0  0
  9 11  1  0  0  0  0
 10 23  1  0  0  0  0
 11 22  1  0  0  0  0
 12 21  1  0  0  0  0
 13  4  2  0  0  0  0
 14 22  1  0  0  0  0
 14 10  1  0  0  0  0
 15 16  2  0  0  0  0
 16 26  1  0  0  0  0
 18 14  2  0  0  0  0
 19 17  2  0  0  0  0
 19  1  1  0  0  0  0
 20 13  1  0  0  0  0
 20  6  2  0  0  0  0
 22  3  2  0  0  0  0
 23 12  2  0  0  0  0
 24  9  2  0  0  0  0
 24 18  1  0  0  0  0
 25 15  1  1  0  0  0
 26 21  2  0  0  0  0
 27 24  1  0  0  0  0
 28 32  1  0  0  0  0
 29 27  1  0  0  0  0
 30 31  1  0  0  0  0
 30 32  2  0  0  0  0
 31 29  2  0  0  0  0
 32 27  1  0  0  0  0
M  END
>  <MODEL>
2

>  <REMARK>
 VINA RESULT:     -11.4      0.569      1.040
  Name = 
  1 active torsions:
  status: ('A' for Active; 'I' for Inactive)
    1  A    between atoms: N_4  and  C_30
                            x       y       z     vdW  Elec       q    Type
                         _______ _______ _______ _____ _____    ______ ____

>  <TORSDO>
F 1

$$$$
=
 OpenBabel11062414103D

 32 38  0  0  1  0  0  0  0  0999 V2000
  192.4320  176.5530  147.0430 F   0  0  0  0  0  0  0  0  0  0  0  0
  187.2430  177.8780  143.6070 C   0  0  0  0  0  3  0  0  0  0  0  0
  190.0400  177.3390  140.1750 C   0  0  0  0  0  0  0  0  0  0  0  0
  189.7940  177.3930  144.6310 C   0  0  0  0  0  0  0  0  0  0  0  0
  187.6910  176.7810  147.6430 O   0  0  0  0  0  1  0  0  0  0  0  0
  190.0730  176.6700  147.3390 C   0  0  0  0  0  3  0  0  0  0  0  0
  188.3520  178.0130  142.7530 C   0  0  0  0  0  0  0  0  0  0  0  0
  187.3870  177.5020  144.9370 C   0  0  0  0  0  3  0  0  0  0  0  0
  186.6870  178.9700  141.0940 C   0  0  0  0  0  3  0  0  0  0  0  0
  188.9990  176.8300  137.9130 S   0  0  0  0  0  0  0  0  0  0  0  0
  188.1350  178.5830  141.3690 C   0  0  0  0  0  0  0  0  0  0  0  0
  191.6280  176.6210  138.5170 N   0  0  0  0  0  0  0  0  0  0  0  0
  188.6540  177.2690  145.4640 C   0  0  0  0  0  0  0  0  0  0  0  0
  187.9980  177.5030  139.0900 C   0  0  2  0  0  3  0  0  0  0  0  0
  190.8860  177.7170  142.4300 C   0  0  0  0  0  3  0  0  0  0  0  0
  191.0650  177.5030  141.1220 C   0  0  0  0  0  0  0  0  0  0  0  0
  191.0620  177.1420  145.1860 C   0  0  0  0  0  3  0  0  0  0  0  0
  186.7520  177.9220  138.8900 C   0  0  0  0  0  3  0  0  0  0  0  0
  191.2000  176.7870  146.5280 C   0  0  0  0  0  0  0  0  0  0  0  0
  188.8010  176.9070  146.8140 C   0  0  0  0  0  0  0  0  0  0  0  0
  192.6490  176.8310  139.3920 C   0  0  0  0  0  3  0  0  0  0  0  0
  188.6980  177.7190  140.2780 C   0  0  0  0  0  0  0  0  0  0  0  0
  190.3530  176.8600  138.9070 C   0  0  0  0  0  0  0  0  0  0  0  0
  186.0390  178.6610  139.9560 C   0  0  0  0  0  0  0  0  0  0  0  0
  189.6490  177.7380  143.2600 C   0  0  0  0  0  0  0  0  0  0  0  0
  192.3840  177.2710  140.6990 C   0  0  0  0  0  3  0  0  0  0  0  0
  184.6700  179.0720  139.7830 N   0  0  0  0  0  0  0  0  0  0  0  0
  183.5340  177.5030  141.2930 N   0  0  0  0  0  1  0  0  0  0  0  0
  184.2870  180.0550  138.9870 N   0  0  0  0  0  0  0  0  0  0  0  0
  182.4490  179.2210  139.9530 N   0  0  0  0  0  0  0  0  0  0  0  0
  182.9430  180.1410  139.0930 C   0  0  0  0  0  3  0  0  0  0  0  0
  183.5580  178.5780  140.3590 C   0  0  0  0  0  0  0  0  0  0  0  0
  2  8  1  0  0  0  0
  3 22  2  0  0  0  0
  3 16  1  0  0  0  0
  4 17  1  0  0  0  0
  4 13  1  0  0  0  0
  7 25  1  0  0  0  0
  7  2  2  0  0  0  0
  8 13  2  0  0  0  0
  9 11  2  0  0  0  0
 10 23  1  0  0  0  0
 10 14  1  0  0  0  0
 11  7  1  0  0  0  0
 12 23  2  0  0  0  0
 12 21  1  0  0  0  0
 13 20  1  0  0  0  0
 14 18  1  6  0  0  0
 14 22  1  0  0  0  0
 15 25  1  0  0  0  0
 16 15  2  0  0  0  0
 17 19  2  0  0  0  0
 18 24  2  0  0  0  0
 19  1  1  0  0  0  0
 19  6  1  0  0  0  0
 20  6  2  0  0  0  0
 20  5  1  0  0  0  0
 21 26  2  0  0  0  0
 22 11  1  0  0  0  0
 23  3  1  0  0  0  0
 24  9  1  0  0  0  0
 25  4  2  0  0  0  0
 26 16  1  0  0  0  0
 27 24  1  0  0  0  0
 27 32  1  0  0  0  0
 29 31  2  0  0  0  0
 29 27  1  0  0  0  0
 30 32  2  0  0  0  0
 31 30  1  0  0  0  0
 32 28  1  0  0  0  0
M  END
>  <MODEL>
3

>  <REMARK>
 VINA RESULT:     -11.3      4.152      7.397
  Name = 
  1 active torsions:
  status: ('A' for Active; 'I' for Inactive)
    1  A    between atoms: N_4  and  C_30
                            x       y       z     vdW  Elec       q    Type
                         _______ _______ _______ _____ _____    ______ ____

>  <TORSDO>
F 1

$$$$
=
 OpenBabel11062414103D

 32 38  0  0  1  0  0  0  0  0999 V2000
  192.4960  176.8890  140.4260 F   0  0  0  0  0  0  0  0  0  0  0  0
  186.3660  178.4540  141.0950 C   0  0  0  0  0  3  0  0  0  0  0  0
  187.2520  177.8790  145.4280 C   0  0  0  0  0  0  0  0  0  0  0  0
  189.0090  177.5920  141.3360 C   0  0  0  0  0  0  0  0  0  0  0  0
  188.9970  178.8810  137.8420 O   0  0  0  0  0  1  0  0  0  0  0  0
  190.7520  177.8780  139.1410 C   0  0  0  0  0  3  0  0  0  0  0  0
  186.7830  177.8800  142.3090 C   0  0  0  0  0  0  0  0  0  0  0  0
  187.2370  178.6090  140.0240 C   0  0  0  0  0  3  0  0  0  0  0  0
  184.3260  177.9590  142.9440 C   0  0  0  0  0  3  0  0  0  0  0  0
  185.6800  178.9990  147.0820 S   0  0  0  0  0  0  0  0  0  0  0  0
  185.7430  177.5930  143.3700 C   0  0  2  0  0  3  0  0  0  0  0  0
  188.0730  177.8920  147.6900 N   0  0  0  0  0  0  0  0  0  0  0  0
  188.5550  178.1730  140.1260 C   0  0  0  0  0  0  0  0  0  0  0  0
  185.1210  178.7880  145.5060 C   0  0  0  0  0  0  0  0  0  0  0  0
  188.7310  176.9670  143.7180 C   0  0  0  0  0  3  0  0  0  0  0  0
  188.3880  177.1750  144.9940 C   0  0  0  0  0  0  0  0  0  0  0  0
  190.3480  177.1680  141.4160 C   0  0  0  0  0  3  0  0  0  0  0  0
  183.8790  179.0250  145.0940 C   0  0  0  0  0  3  0  0  0  0  0  0
  191.2110  177.3070  140.3280 C   0  0  0  0  0  0  0  0  0  0  0  0
  189.4300  178.3120  139.0350 C   0  0  0  0  0  0  0  0  0  0  0  0
  189.1530  177.1550  147.3110 C   0  0  0  0  0  3  0  0  0  0  0  0
  186.0890  178.1720  144.7100 C   0  0  0  0  0  0  0  0  0  0  0  0
  187.1520  178.2530  146.7650 C   0  0  0  0  0  0  0  0  0  0  0  0
  183.4640  178.6280  143.7300 C   0  0  0  0  0  0  0  0  0  0  0  0
  188.1330  177.4670  142.4480 C   0  0  0  0  0  0  0  0  0  0  0  0
  189.3260  176.7890  145.9660 C   0  0  0  0  0  3  0  0  0  0  0  0
  182.1420  178.9280  143.2420 N   0  0  0  0  0  0  0  0  0  0  0  0
  182.5610  179.0030  140.8240 N   0  0  0  0  0  1  0  0  0  0  0  0
  181.0850  179.0890  144.0190 N   0  0  0  0  0  0  0  0  0  0  0  0
  180.4110  179.3660  141.9040 N   0  0  0  0  0  0  0  0  0  0  0  0
  180.0410  179.3530  143.2050 C   0  0  0  0  0  3  0  0  0  0  0  0
  181.7260  179.0960  141.9730 C   0  0  0  0  0  0  0  0  0  0  0  0
  2  7  1  0  0  0  0
  3 23  1  0  0  0  0
  4 17  1  0  0  0  0
  4 25  1  0  0  0  0
  5 20  1  0  0  0  0
  6 19  1  0  0  0  0
  7 25  2  0  0  0  0
  7 11  1  0  0  0  0
  8 13  1  0  0  0  0
  8  2  2  0  0  0  0
  9 24  2  0  0  0  0
 11  9  1  6  0  0  0
 11 22  1  0  0  0  0
 13  4  2  0  0  0  0
 14 10  1  0  0  0  0
 15 16  2  0  0  0  0
 16  3  1  0  0  0  0
 16 26  1  0  0  0  0
 18 14  2  0  0  0  0
 19  1  1  0  0  0  0
 19 17  2  0  0  0  0
 20  6  2  0  0  0  0
 20 13  1  0  0  0  0
 21 12  1  0  0  0  0
 22  3  2  0  0  0  0
 22 14  1  0  0  0  0
 23 10  1  0  0  0  0
 23 12  2  0  0  0  0
 24 18  1  0  0  0  0
 25 15  1  0  0  0  0
 26 21  2  0  0  0  0
 27 24  1  0  0  0  0
 27 29  1  0  0  0  0
 28 32  1  0  0  0  0
 30 32  2  0  0  0  0
 30 31  1  0  0  0  0
 31 29  2  0  0  0  0
 32 27  1  0  0  0  0
M  END
>  <MODEL>
4

>  <REMARK>
 VINA RESULT:     -11.0      4.179      7.037
  Name = 
  1 active torsions:
  status: ('A' for Active; 'I' for Inactive)
    1  A    between atoms: N_4  and  C_30
                            x       y       z     vdW  Elec       q    Type
                         _______ _______ _______ _____ _____    ______ ____

>  <TORSDO>
F 1

$$$$
=
 OpenBabel11062414103D

 32 38  0  0  1  0  0  0  0  0999 V2000
  187.1850  177.8820  149.4060 F   0  0  0  0  0  0  0  0  0  0  0  0
  190.4450  177.1040  143.9980 C   0  0  0  0  0  3  0  0  0  0  0  0
  186.5620  178.2490  142.1270 C   0  0  0  0  0  0  0  0  0  0  0  0
  188.5640  177.4360  146.0320 C   0  0  0  0  0  0  0  0  0  0  0  0
  191.7360  177.5030  147.9810 O   0  0  0  0  0  1  0  0  0  0  0  0
  189.4490  177.6910  148.6950 C   0  0  0  0  0  3  0  0  0  0  0  0
  189.0810  177.1290  143.6600 C   0  0  0  0  0  0  0  0  0  0  0  0
  190.8750  177.2500  145.3110 C   0  0  0  0  0  3  0  0  0  0  0  0
  189.8620  176.4490  141.3430 C   0  0  0  0  0  3  0  0  0  0  0  0
  186.6490  179.1240  139.7430 S   0  0  0  0  0  0  0  0  0  0  0  0
  188.6810  176.8000  142.2390 C   0  0  0  0  0  0  0  0  0  0  0  0
  184.5060  179.2560  141.3890 N   0  0  0  0  0  0  0  0  0  0  0  0
  189.9470  177.4040  146.3380 C   0  0  0  0  0  0  0  0  0  0  0  0
  187.9810  178.2500  140.2940 C   0  0  2  0  0  3  0  0  0  0  0  0
  186.6610  177.5020  144.4460 C   0  0  0  0  0  3  0  0  0  0  0  0
  185.9920  177.9380  143.3730 C   0  0  0  0  0  0  0  0  0  0  0  0
  187.6470  177.6020  147.0870 C   0  0  0  0  0  3  0  0  0  0  0  0
  189.0050  177.8580  139.5420 C   0  0  0  0  0  3  0  0  0  0  0  0
  188.0860  177.7250  148.4060 C   0  0  0  0  0  0  0  0  0  0  0  0
  190.3810  177.5320  147.6680 C   0  0  0  0  0  0  0  0  0  0  0  0
  183.9070  178.9110  142.5610 C   0  0  0  0  0  3  0  0  0  0  0  0
  187.7990  177.8430  141.6170 C   0  0  0  0  0  0  0  0  0  0  0  0
  185.8070  178.9400  141.1850 C   0  0  0  0  0  0  0  0  0  0  0  0
  190.0240  176.9400  140.1010 C   0  0  0  0  0  0  0  0  0  0  0  0
  188.1210  177.3270  144.6860 C   0  0  0  0  0  0  0  0  0  0  0  0
  184.6370  178.2530  143.5650 C   0  0  0  0  0  3  0  0  0  0  0  0
  191.1730  176.5500  139.3250 N   0  0  0  0  0  0  0  0  0  0  0  0
  190.1740  174.8440  137.8670 N   0  0  0  0  0  1  0  0  0  0  0  0
  192.3790  177.0690  139.4760 N   0  0  0  0  0  0  0  0  0  0  0  0
  192.5060  175.5430  137.8450 N   0  0  0  0  0  0  0  0  0  0  0  0
  193.1810  176.4570  138.5790 C   0  0  0  0  0  3  0  0  0  0  0  0
  191.2600  175.6340  138.3420 C   0  0  0  0  0  0  0  0  0  0  0  0
  2  8  1  0  0  0  0
  3 16  1  0  0  0  0
  4 13  1  0  0  0  0
  4 17  1  0  0  0  0
  7  2  2  0  0  0  0
  7 25  1  0  0  0  0
  8 13  2  0  0  0  0
  9 11  2  0  0  0  0
 10 14  1  0  0  0  0
 10 23  1  0  0  0  0
 11  7  1  0  0  0  0
 12 21  1  0  0  0  0
 13 20  1  0  0  0  0
 14 18  1  6  0  0  0
 14 22  1  0  0  0  0
 15 25  1  0  0  0  0
 16 26  1  0  0  0  0
 16 15  2  0  0  0  0
 17 19  2  0  0  0  0
 18 24  2  0  0  0  0
 19  6  1  0  0  0  0
 19  1  1  0  0  0  0
 20  5  1  0  0  0  0
 20  6  2  0  0  0  0
 21 26  2  0  0  0  0
 22  3  2  0  0  0  0
 22 11  1  0  0  0  0
 23 12  2  0  0  0  0
 23  3  1  0  0  0  0
 24  9  1  0  0  0  0
 25  4  2  0  0  0  0
 27 29  1  0  0  0  0
 27 24  1  0  0  0  0
 28 32  1  0  0  0  0
 30 32  2  0  0  0  0
 30 31  1  0  0  0  0
 31 29  2  0  0  0  0
 32 27  1  0  0  0  0
M  END
>  <MODEL>
5

>  <REMARK>
 VINA RESULT:     -10.9      3.859      6.290
  Name = 
  1 active torsions:
  status: ('A' for Active; 'I' for Inactive)
    1  A    between atoms: N_4  and  C_30
                            x       y       z     vdW  Elec       q    Type
                         _______ _______ _______ _____ _____    ______ ____

>  <TORSDO>
F 1

$$$$
=
 OpenBabel11062414103D

 32 38  0  0  1  0  0  0  0  0999 V2000
  187.9710  178.1000  136.4390 F   0  0  0  0  0  0  0  0  0  0  0  0
  190.6270  176.7270  142.0550 C   0  0  0  0  0  3  0  0  0  0  0  0
  186.7090  178.1460  143.6440 C   0  0  0  0  0  0  0  0  0  0  0  0
  189.0830  177.6080  139.9030 C   0  0  0  0  0  0  0  0  0  0  0  0
  191.7130  175.6500  138.1370 O   0  0  0  0  0  1  0  0  0  0  0  0
  189.8340  176.8840  137.2860 C   0  0  0  0  0  3  0  0  0  0  0  0
  189.5010  177.5290  142.3130 C   0  0  0  0  0  0  0  0  0  0  0  0
  190.9800  176.3590  140.7630 C   0  0  0  0  0  3  0  0  0  0  0  0
  190.3570  177.5880  144.7020 C   0  0  0  0  0  3  0  0  0  0  0  0
  186.0730  177.3840  145.9830 S   0  0  0  0  0  0  0  0  0  0  0  0
  189.2730  178.0250  143.7240 C   0  0  2  0  0  3  0  0  0  0  0  0
  184.4110  178.5790  144.2130 N   0  0  0  0  0  0  0  0  0  0  0  0
  190.2260  176.8000  139.6790 C   0  0  0  0  0  0  0  0  0  0  0  0
  187.6990  177.2810  145.5520 C   0  0  0  0  0  0  0  0  0  0  0  0
  187.4100  178.6940  141.3740 C   0  0  0  0  0  3  0  0  0  0  0  0
  186.5350  178.7450  142.3840 C   0  0  0  0  0  0  0  0  0  0  0  0
  188.3330  178.0330  138.7920 C   0  0  0  0  0  3  0  0  0  0  0  0
  188.6940  176.9730  146.3790 C   0  0  0  0  0  3  0  0  0  0  0  0
  188.7070  177.6770  137.4950 C   0  0  0  0  0  0  0  0  0  0  0  0
  190.5940  176.4430  138.3710 C   0  0  0  0  0  0  0  0  0  0  0  0
  184.2300  179.2210  143.0270 C   0  0  0  0  0  3  0  0  0  0  0  0
  187.8980  177.7220  144.2430 C   0  0  0  0  0  0  0  0  0  0  0  0
  185.6210  178.0460  144.5060 C   0  0  0  0  0  0  0  0  0  0  0  0
  190.0970  177.0930  145.9250 C   0  0  0  0  0  0  0  0  0  0  0  0
  188.6950  177.9540  141.2260 C   0  0  0  0  0  0  0  0  0  0  0  0
  185.2820  179.3120  142.1000 C   0  0  0  0  0  3  0  0  0  0  0  0
  191.1880  176.7080  146.7830 N   0  0  0  0  0  0  0  0  0  0  0  0
  192.1980  174.9110  145.4490 N   0  0  0  0  0  1  0  0  0  0  0  0
  191.4460  177.2710  147.9510 N   0  0  0  0  0  0  0  0  0  0  0  0
  192.9860  175.6830  147.6180 N   0  0  0  0  0  0  0  0  0  0  0  0
  192.5350  176.6480  148.4510 C   0  0  0  0  0  3  0  0  0  0  0  0
  192.1200  175.7540  146.5930 C   0  0  0  0  0  0  0  0  0  0  0  0
  1 19  1  0  0  0  0
  2  7  1  0  0  0  0
  3 22  2  0  0  0  0
  3 23  1  0  0  0  0
  4 25  1  0  0  0  0
  5 20  1  0  0  0  0
  6 19  2  0  0  0  0
  6 20  1  0  0  0  0
  7 11  1  0  0  0  0
  8  2  2  0  0  0  0
  9 24  2  0  0  0  0
 11 22  1  0  0  0  0
 11  9  1  1  0  0  0
 12 23  2  0  0  0  0
 13  4  1  0  0  0  0
 13  8  1  0  0  0  0
 14 10  1  0  0  0  0
 14 18  2  0  0  0  0
 15 16  2  0  0  0  0
 16  3  1  0  0  0  0
 17  4  2  0  0  0  0
 19 17  1  0  0  0  0
 20 13  2  0  0  0  0
 21 12  1  0  0  0  0
 22 14  1  0  0  0  0
 23 10  1  0  0  0  0
 24 18  1  0  0  0  0
 24 27  1  0  0  0  0
 25 15  1  0  0  0  0
 25  7  2  0  0  0  0
 26 16  1  0  0  0  0
 26 21  2  0  0  0  0
 27 29  1  0  0  0  0
 28 32  1  0  0  0  0
 29 31  2  0  0  0  0
 30 31  1  0  0  0  0
 32 27  1  0  0  0  0
 32 30  2  0  0  0  0
M  END
>  <MODEL>
6

>  <REMARK>
 VINA RESULT:     -10.5      4.447      7.409
  Name = 
  1 active torsions:
  status: ('A' for Active; 'I' for Inactive)
    1  A    between atoms: N_4  and  C_30
                            x       y       z     vdW  Elec       q    Type
                         _______ _______ _______ _____ _____    ______ ____

>  <TORSDO>
F 1

$$$$
=
 OpenBabel11062414103D

 32 38  0  0  1  0  0  0  0  0999 V2000
  192.0070  177.2950  144.0760 F   0  0  0  0  0  0  0  0  0  0  0  0
  185.6880  177.9970  144.3290 C   0  0  0  0  0  3  0  0  0  0  0  0
  186.0800  178.2310  139.8920 C   0  0  0  0  0  0  0  0  0  0  0  0
  188.4010  177.8710  143.6870 C   0  0  0  0  0  0  0  0  0  0  0  0
  188.4470  176.6610  147.2090 O   0  0  0  0  0  1  0  0  0  0  0  0
  190.2340  176.9830  145.6340 C   0  0  0  0  0  3  0  0  0  0  0  0
  186.0980  178.3890  143.0430 C   0  0  0  0  0  0  0  0  0  0  0  0
  186.5960  177.5420  145.2770 C   0  0  0  0  0  3  0  0  0  0  0  0
  183.7050  179.1830  142.7550 C   0  0  0  0  0  3  0  0  0  0  0  0
  183.9930  177.7410  138.5270 S   0  0  0  0  0  0  0  0  0  0  0  0
  185.0820  179.0270  142.1210 C   0  0  0  0  0  0  0  0  0  0  0  0
  186.5060  177.9340  137.5430 N   0  0  0  0  0  0  0  0  0  0  0  0
  187.9530  177.4850  144.9750 C   0  0  0  0  0  0  0  0  0  0  0  0
  183.7780  178.1330  140.1520 C   0  0  2  0  0  3  0  0  0  0  0  0
  188.0160  178.5580  141.3380 C   0  0  0  0  0  3  0  0  0  0  0  0
  187.4400  178.4870  140.1320 C   0  0  0  0  0  0  0  0  0  0  0  0
  189.7770  177.7950  143.4040 C   0  0  0  0  0  3  0  0  0  0  0  0
  182.6060  178.3490  140.7410 C   0  0  0  0  0  3  0  0  0  0  0  0
  190.6850  177.3580  144.3690 C   0  0  0  0  0  0  0  0  0  0  0  0
  188.8730  177.0430  145.9410 C   0  0  0  0  0  0  0  0  0  0  0  0
  187.8180  178.2410  137.7340 C   0  0  0  0  0  3  0  0  0  0  0  0
  185.0050  178.3650  140.7760 C   0  0  0  0  0  0  0  0  0  0  0  0
  185.6620  177.9190  138.6020 C   0  0  0  0  0  0  0  0  0  0  0  0
  182.5580  178.8640  142.1280 C   0  0  0  0  0  0  0  0  0  0  0  0
  187.4720  178.2980  142.7010 C   0  0  0  0  0  0  0  0  0  0  0  0
  188.3010  178.5190  139.0230 C   0  0  0  0  0  3  0  0  0  0  0  0
  181.3010  179.0480  142.8060 N   0  0  0  0  0  0  0  0  0  0  0  0
  180.1850  180.6070  141.2710 N   0  0  0  0  0  1  0  0  0  0  0  0
  180.9820  178.4610  143.9460 N   0  0  0  0  0  0  0  0  0  0  0  0
  179.2420  179.7280  143.3350 N   0  0  0  0  0  0  0  0  0  0  0  0
  179.7360  178.8740  144.2610 C   0  0  0  0  0  3  0  0  0  0  0  0
  180.2480  179.8070  142.4470 C   0  0  0  0  0  0  0  0  0  0  0  0
  1 19  1  0  0  0  0
  2  8  1  0  0  0  0
  3 16  1  0  0  0  0
  3 22  2  0  0  0  0
  4 13  1  0  0  0  0
  6 20  2  0  0  0  0
  7  2  2  0  0  0  0
 10 23  1  0  0  0  0
 10 14  1  0  0  0  0
 11  9  2  0  0  0  0
 11  7  1  0  0  0  0
 12 21  1  0  0  0  0
 12 23  2  0  0  0  0
 13  8  2  0  0  0  0
 13 20  1  0  0  0  0
 14 18  1  6  0  0  0
 14 22  1  0  0  0  0
 15 25  1  0  0  0  0
 16 15  2  0  0  0  0
 17  4  1  0  0  0  0
 17 19  2  0  0  0  0
 18 24  2  0  0  0  0
 19  6  1  0  0  0  0
 20  5  1  0  0  0  0
 21 26  2  0  0  0  0
 22 11  1  0  0  0  0
 23  3  1  0  0  0  0
 24  9  1  0  0  0  0
 24 27  1  0  0  0  0
 25  7  1  0  0  0  0
 25  4  2  0  0  0  0
 26 16  1  0  0  0  0
 27 29  1  0  0  0  0
 28 32  1  0  0  0  0
 29 31  2  0  0  0  0
 30 31  1  0  0  0  0
 32 27  1  0  0  0  0
 32 30  2  0  0  0  0
M  END
>  <MODEL>
7

>  <REMARK>
 VINA RESULT:     -10.4      4.568      8.030
  Name = 
  1 active torsions:
  status: ('A' for Active; 'I' for Inactive)
    1  A    between atoms: N_4  and  C_30
                            x       y       z     vdW  Elec       q    Type
                         _______ _______ _______ _____ _____    ______ ____

>  <TORSDO>
F 1

$$$$
=
 OpenBabel11062414103D

 32 38  0  0  1  0  0  0  0  0999 V2000
  180.4830  179.3580  144.2550 F   0  0  0  0  0  0  0  0  0  0  0  0
  185.9230  177.9750  141.2600 C   0  0  0  0  0  3  0  0  0  0  0  0
  187.5460  177.8480  145.4120 C   0  0  0  0  0  0  0  0  0  0  0  0
  183.8720  178.6760  143.0170 C   0  0  0  0  0  0  0  0  0  0  0  0
  181.9350  177.9320  139.9250 O   0  0  0  0  0  1  0  0  0  0  0  0
  181.2080  178.6510  142.1000 C   0  0  0  0  0  3  0  0  0  0  0  0
  186.2550  178.3400  142.5760 C   0  0  0  0  0  0  0  0  0  0  0  0
  184.6060  177.9470  140.8210 C   0  0  0  0  0  3  0  0  0  0  0  0
  188.6580  178.2720  141.7620 C   0  0  0  0  0  3  0  0  0  0  0  0
  189.7080  176.5600  145.7620 S   0  0  0  0  0  0  0  0  0  0  0  0
  187.7150  178.5080  142.9350 C   0  0  0  0  0  0  0  0  0  0  0  0
  188.0780  177.4580  147.7260 N   0  0  0  0  0  0  0  0  0  0  0  0
  183.5730  178.3060  141.6830 C   0  0  0  0  0  0  0  0  0  0  0  0
  189.3360  177.0310  144.1880 C   0  0  0  0  0  0  0  0  0  0  0  0
  185.4210  178.9450  144.9330 C   0  0  0  0  0  3  0  0  0  0  0  0
  186.3890  178.5600  145.7720 C   0  0  0  0  0  0  0  0  0  0  0  0
  182.8100  179.0250  143.8710 C   0  0  0  0  0  3  0  0  0  0  0  0
  190.1460  176.9130  143.1400 C   0  0  0  0  0  3  0  0  0  0  0  0
  181.4900  179.0150  143.4160 C   0  0  0  0  0  0  0  0  0  0  0  0
  182.2420  178.2950  141.2320 C   0  0  0  0  0  0  0  0  0  0  0  0
  187.0000  178.1970  148.1060 C   0  0  0  0  0  3  0  0  0  0  0  0
  188.1220  177.7180  144.1450 C   0  0  0  0  0  0  0  0  0  0  0  0
  188.3350  177.2810  146.4080 C   0  0  0  0  0  0  0  0  0  0  0  0
  189.7770  177.5300  141.8460 C   0  0  0  0  0  0  0  0  0  0  0  0
  185.2140  178.6690  143.4830 C   0  0  2  0  0  3  0  0  0  0  0  0
  186.1440  178.7540  147.1420 C   0  0  0  0  0  3  0  0  0  0  0  0
  190.6100  177.3640  140.6830 N   0  0  0  0  0  0  0  0  0  0  0  0
  188.9350  176.6750  139.0240 N   0  0  0  0  0  1  0  0  0  0  0  0
  191.9150  177.5690  140.6720 N   0  0  0  0  0  0  0  0  0  0  0  0
  191.3180  176.9460  138.6080 N   0  0  0  0  0  0  0  0  0  0  0  0
  192.3390  177.3160  139.4140 C   0  0  0  0  0  3  0  0  0  0  0  0
  190.2610  176.9900  139.4370 C   0  0  0  0  0  0  0  0  0  0  0  0
  2  7  1  0  0  0  0
  3 16  1  0  0  0  0
  3 23  1  0  0  0  0
  4 25  1  0  0  0  0
  4 17  1  0  0  0  0
  5 20  1  0  0  0  0
  6 19  1  0  0  0  0
  7 11  2  0  0  0  0
  7 25  1  0  0  0  0
  8  2  2  0  0  0  0
  8 13  1  0  0  0  0
  9 24  2  0  0  0  0
  9 11  1  0  0  0  0
 10 23  1  0  0  0  0
 11 22  1  0  0  0  0
 12 21  1  0  0  0  0
 13  4  2  0  0  0  0
 14 10  1  0  0  0  0
 15 16  2  0  0  0  0
 16 26  1  0  0  0  0
 18 14  2  0  0  0  0
 19 17  2  0  0  0  0
 19  1  1  0  0  0  0
 20 13  1  0  0  0  0
 20  6  2  0  0  0  0
 22 14  1  0  0  0  0
 22  3  2  0  0  0  0
 23 12  2  0  0  0  0
 24 18  1  0  0  0  0
 25 15  1  1  0  0  0
 26 21  2  0  0  0  0
 27 24  1  0  0  0  0
 28 32  1  0  0  0  0
 29 27  1  0  0  0  0
 30 31  1  0  0  0  0
 30 32  2  0  0  0  0
 31 29  2  0  0  0  0
 32 27  1  0  0  0  0
M  END
>  <MODEL>
8

>  <REMARK>
 VINA RESULT:     -10.2      1.318      1.857
  Name = 
  1 active torsions:
  status: ('A' for Active; 'I' for Inactive)
    1  A    between atoms: N_4  and  C_30
                            x       y       z     vdW  Elec       q    Type
                         _______ _______ _______ _____ _____    ______ ____

>  <TORSDO>
F 1

$$$$
=
 OpenBabel11062414103D

 32 38  0  0  1  0  0  0  0  0999 V2000
  193.3280  176.1940  138.7010 F   0  0  0  0  0  0  0  0  0  0  0  0
  187.6930  178.0350  141.0110 C   0  0  0  0  0  3  0  0  0  0  0  0
  189.6130  177.1270  144.9330 C   0  0  0  0  0  0  0  0  0  0  0  0
  190.2440  177.0190  140.5160 C   0  0  0  0  0  0  0  0  0  0  0  0
  189.4300  178.5380  137.2150 O   0  0  0  0  0  1  0  0  0  0  0  0
  191.3860  177.3580  137.9630 C   0  0  0  0  0  3  0  0  0  0  0  0
  188.3650  177.3600  142.0450 C   0  0  0  0  0  0  0  0  0  0  0  0
  188.2700  178.2150  139.7610 C   0  0  0  0  0  3  0  0  0  0  0  0
  186.1630  177.5280  143.2970 C   0  0  0  0  0  3  0  0  0  0  0  0
  188.5950  178.2160  146.9910 S   0  0  0  0  0  0  0  0  0  0  0  0
  187.6130  177.0590  143.3230 C   0  0  2  0  0  3  0  0  0  0  0  0
  190.9820  176.9450  146.9030 N   0  0  0  0  0  0  0  0  0  0  0  0
  189.5370  177.7030  139.4960 C   0  0  0  0  0  0  0  0  0  0  0  0
  187.6400  178.1410  145.6050 C   0  0  0  0  0  0  0  0  0  0  0  0
  190.5400  176.2530  142.8540 C   0  0  0  0  0  3  0  0  0  0  0  0
  190.5500  176.3940  144.1840 C   0  0  0  0  0  0  0  0  0  0  0  0
  191.5270  176.5200  140.2250 C   0  0  0  0  0  3  0  0  0  0  0  0
  186.3530  178.4700  145.5400 C   0  0  0  0  0  3  0  0  0  0  0  0
  192.0920  176.6860  138.9600 C   0  0  0  0  0  0  0  0  0  0  0  0
  190.1130  177.8680  138.2250 C   0  0  0  0  0  0  0  0  0  0  0  0
  191.8760  176.1790  146.2210 C   0  0  0  0  0  3  0  0  0  0  0  0
  188.3280  177.5280  144.5560 C   0  0  0  0  0  0  0  0  0  0  0  0
  189.8830  177.4160  146.2670 C   0  0  0  0  0  0  0  0  0  0  0  0
  185.5770  178.1880  144.3120 C   0  0  0  0  0  0  0  0  0  0  0  0
  189.6750  176.8680  141.8090 C   0  0  0  0  0  0  0  0  0  0  0  0
  191.6750  175.8950  144.8600 C   0  0  0  0  0  3  0  0  0  0  0  0
  184.1990  178.5900  144.1990 N   0  0  0  0  0  0  0  0  0  0  0  0
  183.8290  178.2570  141.7940 N   0  0  0  0  0  1  0  0  0  0  0  0
  183.4620  179.0030  145.2150 N   0  0  0  0  0  0  0  0  0  0  0  0
  182.1740  179.0600  143.3870 N   0  0  0  0  0  0  0  0  0  0  0  0
  182.2380  179.2850  144.7190 C   0  0  0  0  0  3  0  0  0  0  0  0
  183.4150  178.6280  143.1050 C   0  0  0  0  0  0  0  0  0  0  0  0
  1 19  1  0  0  0  0
  2  7  1  0  0  0  0
  3 23  1  0  0  0  0
  4 25  1  0  0  0  0
  5 20  1  0  0  0  0
  6 20  2  0  0  0  0
  6 19  1  0  0  0  0
  7 11  1  0  0  0  0
  8  2  2  0  0  0  0
  9 24  2  0  0  0  0
 11  9  1  6  0  0  0
 11 22  1  0  0  0  0
 13  8  1  0  0  0  0
 13  4  2  0  0  0  0
 14 10  1  0  0  0  0
 15 16  2  0  0  0  0
 16 26  1  0  0  0  0
 16  3  1  0  0  0  0
 17  4  1  0  0  0  0
 18 14  2  0  0  0  0
 19 17  2  0  0  0  0
 20 13  1  0  0  0  0
 21 12  1  0  0  0  0
 22  3  2  0  0  0  0
 22 14  1  0  0  0  0
 23 12  2  0  0  0  0
 23 10  1  0  0  0  0
 24 18  1  0  0  0  0
 25  7  2  0  0  0  0
 25 15  1  0  0  0  0
 26 21  2  0  0  0  0
 27 24  1  0  0  0  0
 27 29  1  0  0  0  0
 28 32  1  0  0  0  0
 30 31  1  0  0  0  0
 31 29  2  0  0  0  0
 32 30  2  0  0  0  0
 32 27  1  0  0  0  0
M  END
>  <MODEL>
9

>  <REMARK>
 VINA RESULT:     -10.2      4.333      7.513
  Name = 
  1 active torsions:
  status: ('A' for Active; 'I' for Inactive)
    1  A    between atoms: N_4  and  C_30
                            x       y       z     vdW  Elec       q    Type
                         _______ _______ _______ _____ _____    ______ ____

>  <TORSDO>
F 1

$$$$
