=
 OpenBabel11062412043D

 48 53  0  0  1  0  0  0  0  0999 V2000
  182.6150  179.0310  143.8700 C   0  0  0  0  0  3  0  0  0  0  0  0
  184.8340  178.3890  144.6040 C   0  0  0  0  0  0  0  0  0  0  0  0
  183.5320  178.8110  144.9000 C   0  0  0  0  0  3  0  0  0  0  0  0
  184.2930  178.4080  142.2400 C   0  0  0  0  0  3  0  0  0  0  0  0
  182.9930  178.8330  142.5330 C   0  0  0  0  0  0  0  0  0  0  0  0
  185.2110  178.1870  143.2720 C   0  0  0  0  0  3  0  0  0  0  0  0
  186.7820  177.1700  145.9440 C   0  0  0  0  0  2  0  0  0  0  0  0
  186.1240  178.8400  146.9230 C   0  0  0  0  0  0  0  0  0  0  0  0
  187.1620  177.7930  147.1800 C   0  0  2  0  0  3  0  0  0  0  0  0
  185.7170  179.8620  147.5320 O   0  0  0  0  0  0  0  0  0  0  0  0
  185.7690  178.1660  145.6580 N   0  0  0  0  0  0  0  0  0  0  0  0
  189.0500  178.7850  148.3320 F   0  0  0  0  0  0  0  0  0  0  0  0
  188.5840  178.3530  147.0980 C   0  0  1  0  0  3  0  0  0  0  0  0
  189.4620  177.3690  146.5670 O   0  0  0  0  0  0  0  0  0  0  0  0
  190.3020  177.6050  145.4730 C   0  0  0  0  0  0  0  0  0  0  0  0
  190.3310  178.7600  144.9700 O   0  0  0  0  0  0  0  0  0  0  0  0
  191.7370  176.9790  143.5310 C   0  0  0  0  0  2  0  0  0  0  0  0
  190.9400  174.7330  143.1500 F   0  0  0  0  0  0  0  0  0  0  0  0
  191.1180  176.5050  144.8430 C   0  0  2  0  0  3  0  0  0  0  0  0
  190.5750  176.0190  143.4990 C   0  0  1  0  0  0  0  0  0  0  0  0
  189.2940  176.6110  142.9120 C   0  0  0  0  0  2  0  0  0  0  0  0
  189.5300  177.5960  139.4440 C   0  0  0  0  0  2  0  0  0  0  0  0
  189.5940  177.5500  141.7530 C   0  0  2  0  0  3  0  0  0  0  0  0
  188.3560  178.3430  141.4050 C   0  0  0  0  0  2  0  0  0  0  0  0
  188.3290  178.3980  139.8970 C   0  0  0  0  0  2  0  0  0  0  0  0
  189.9780  176.7940  140.5700 N   0  0  0  0  0  2  0  0  0  0  0  0
  182.0700  179.0560  141.4610 N   0  0  0  0  0  2  0  0  0  0  0  0
  181.7400  178.0460  140.4650 C   0  0  0  0  0  2  0  0  0  0  0  0
  181.9940  178.5900  139.0690 C   0  0  0  0  0  2  0  0  0  0  0  0
  184.4230  179.0680  138.6440 C   0  0  0  0  0  0  0  0  0  0  0  0
  185.5670  178.6840  138.2810 O   0  0  0  0  0  0  0  0  0  0  0  0
  183.3040  178.1690  138.5970 N   0  0  0  0  0  0  0  0  0  0  0  0
  184.2580  180.3700  139.1000 O   0  0  0  0  0  1  0  0  0  0  0  0
  183.4880  176.7700  138.2380 C   0  0  0  0  0  2  0  0  0  0  0  0
  183.9560  173.4910  137.6050 O   0  0  0  0  0  1  0  0  0  0  0  0
  184.0210  176.4100  135.2560 C   0  0  1  0  0  3  0  0  0  0  0  0
  185.6090  174.0680  135.9780 C   0  0  0  0  0  2  0  0  0  0  0  0
  183.4650  175.3810  136.2000 C   0  0  2  0  0  3  0  0  0  0  0  0
  186.2260  175.1900  135.1170 C   0  0  1  0  0  3  0  0  0  0  0  0
  183.4130  177.4020  136.0490 O   0  0  0  0  0  0  0  0  0  0  0  0
  185.5430  176.5470  135.3380 C   0  0  0  0  0  2  0  0  0  0  0  0
  182.8750  176.5040  136.9330 N   0  0  0  0  0  0  0  0  0  0  0  0
  184.5460  174.5710  136.9520 C   0  0  1  0  0  3  0  0  0  0  0  0
  187.7270  175.3010  135.3730 C   0  0  2  0  0  3  0  0  0  0  0  0
  188.1840  174.1600  136.0390 O   0  0  0  0  0  1  0  0  0  0  0  0
  188.0140  176.4740  136.1830 N   0  0  0  0  0  2  0  0  0  0  0  0
  189.1320  177.1630  135.5640 C   0  0  0  0  0  2  0  0  0  0  0  0
  190.4310  176.5590  136.0470 C   0  0  0  0  0  1  0  0  0  0  0  0
  1  3  1  0  0  0  0
  2  3  2  0  0  0  0
  2 11  1  0  0  0  0
  4  5  1  0  0  0  0
  4  6  2  0  0  0  0
  5  1  2  0  0  0  0
  6  2  1  0  0  0  0
  7  9  1  0  0  0  0
  8  9  1  0  0  0  0
  8 10  2  0  0  0  0
  9 13  1  6  0  0  0
 11  7  1  0  0  0  0
 11  8  1  0  0  0  0
 13 12  1  1  0  0  0
 14 13  1  0  0  0  0
 15 14  1  0  0  0  0
 16 15  2  0  0  0  0
 17 19  1  0  0  0  0
 19 15  1  6  0  0  0
 20 18  1  6  0  0  0
 20 17  1  0  0  0  0
 20 19  1  0  0  0  0
 21 20  1  0  0  0  0
 22 25  1  0  0  0  0
 22 26  1  0  0  0  0
 23 21  1  1  0  0  0
 24 23  1  0  0  0  0
 25 24  1  0  0  0  0
 26 23  1  0  0  0  0
 27  5  1  0  0  0  0
 28 27  1  0  0  0  0
 29 28  1  0  0  0  0
 30 33  1  0  0  0  0
 31 30  2  0  0  0  0
 32 30  1  0  0  0  0
 32 29  1  0  0  0  0
 34 32  1  0  0  0  0
 36 41  1  1  0  0  0
 36 40  1  0  0  0  0
 36 38  1  0  0  0  0
 37 43  1  0  0  0  0
 38 42  1  1  0  0  0
 38 43  1  0  0  0  0
 39 41  1  0  0  0  0
 39 44  1  1  0  0  0
 39 37  1  0  0  0  0
 40 42  1  0  0  0  0
 42 34  1  0  0  0  0
 43 35  1  6  0  0  0
 44 45  1  1  0  0  0
 44 46  1  0  0  0  0
 47 48  1  0  0  0  0
 47 46  1  0  0  0  0
M  END
>  <MODEL>
1

>  <REMARK>
 VINA RESULT:      -8.2      0.000      0.000
  Name = 
  16 active torsions:
  status: ('A' for Active; 'I' for Inactive)
    1  A    between atoms: C_1  and  N_15
    2  A    between atoms: C_3  and  N_28
    3  A    between atoms: C_3  and  C_44
    4  A    between atoms: C_4  and  N_15
    5  A    between atoms: C_4  and  C_19
    6  A    between atoms: C_10  and  N_41
    7  A    between atoms: C_16  and  O_35
    8  A    between atoms: C_16  and  C_36
    9  A    between atoms: N_18  and  C_30
   10  A    between atoms: N_18  and  C_44
   11  A    between atoms: C_20  and  C_22
   12  A    between atoms: C_20  and  C_42
   13  A    between atoms: C_25  and  C_40
   14  A    between atoms: N_28  and  C_48
   15  A    between atoms: O_35  and  C_40
   16  A    between atoms: N_39  and  C_48
                            x       y       z     vdW  Elec       q    Type
                         _______ _______ _______ _____ _____    ______ ____

>  <TORSDO>
F 16

$$$$
=
 OpenBabel11062412043D

 48 53  0  0  1  0  0  0  0  0999 V2000
  184.2730  178.3860  142.3270 C   0  0  0  0  0  3  0  0  0  0  0  0
  184.7910  178.3950  144.6940 C   0  0  0  0  0  0  0  0  0  0  0  0
  185.1770  178.1650  143.3690 C   0  0  0  0  0  3  0  0  0  0  0  0
  182.5910  179.0680  143.9270 C   0  0  0  0  0  3  0  0  0  0  0  0
  182.9730  178.8360  142.6020 C   0  0  0  0  0  0  0  0  0  0  0  0
  183.4970  178.8490  144.9700 C   0  0  0  0  0  3  0  0  0  0  0  0
  186.6780  177.1360  146.0840 C   0  0  0  0  0  2  0  0  0  0  0  0
  186.1030  178.8740  146.9950 C   0  0  0  0  0  0  0  0  0  0  0  0
  187.0890  177.7880  147.2940 C   0  0  2  0  0  3  0  0  0  0  0  0
  185.7480  179.9380  147.5630 O   0  0  0  0  0  0  0  0  0  0  0  0
  185.7150  178.1680  145.7570 N   0  0  0  0  0  0  0  0  0  0  0  0
  189.1300  178.4220  148.4390 F   0  0  0  0  0  0  0  0  0  0  0  0
  188.5370  178.2730  147.1930 C   0  0  1  0  0  3  0  0  0  0  0  0
  189.2960  177.3690  146.4000 O   0  0  0  0  0  0  0  0  0  0  0  0
  190.1970  177.7890  145.4140 C   0  0  0  0  0  0  0  0  0  0  0  0
  189.9590  178.8580  144.7930 O   0  0  0  0  0  0  0  0  0  0  0  0
  191.9700  177.4320  143.6960 C   0  0  0  0  0  2  0  0  0  0  0  0
  192.0220  175.0190  143.6680 F   0  0  0  0  0  0  0  0  0  0  0  0
  191.4010  176.9650  145.0330 C   0  0  2  0  0  3  0  0  0  0  0  0
  191.2100  176.1320  143.7650 C   0  0  1  0  0  0  0  0  0  0  0  0
  189.8790  176.1470  143.0120 C   0  0  0  0  0  2  0  0  0  0  0  0
  189.5440  177.1570  139.5600 C   0  0  0  0  0  2  0  0  0  0  0  0
  189.9130  177.1160  141.8400 C   0  0  2  0  0  3  0  0  0  0  0  0
  188.5570  177.7580  141.6680 C   0  0  0  0  0  2  0  0  0  0  0  0
  188.3270  177.8100  140.1780 C   0  0  0  0  0  2  0  0  0  0  0  0
  190.2260  176.4120  140.6050 N   0  0  0  0  0  2  0  0  0  0  0  0
  182.0300  179.0650  141.5500 N   0  0  0  0  0  2  0  0  0  0  0  0
  181.8510  178.1600  140.4230 C   0  0  0  0  0  2  0  0  0  0  0  0
  182.1080  178.8980  139.1180 C   0  0  0  0  0  2  0  0  0  0  0  0
  184.5600  178.7790  138.5920 C   0  0  0  0  0  0  0  0  0  0  0  0
  185.5300  178.2190  138.0140 O   0  0  0  0  0  0  0  0  0  0  0  0
  183.2230  178.2900  138.4090 N   0  0  0  0  0  0  0  0  0  0  0  0
  184.8020  179.8720  139.4160 O   0  0  0  0  0  1  0  0  0  0  0  0
  182.9720  177.0740  137.6480 C   0  0  0  0  0  2  0  0  0  0  0  0
  180.5440  175.1500  138.9800 O   0  0  0  0  0  1  0  0  0  0  0  0
  181.3210  175.8670  135.3850 C   0  0  1  0  0  3  0  0  0  0  0  0
  180.8050  173.6140  137.1670 C   0  0  0  0  0  2  0  0  0  0  0  0
  180.8680  176.1100  136.7970 C   0  0  2  0  0  3  0  0  0  0  0  0
  181.3950  173.3740  135.7630 C   0  0  1  0  0  3  0  0  0  0  0  0
  182.1740  176.9810  135.5140 O   0  0  0  0  0  0  0  0  0  0  0  0
  182.1550  174.5950  135.2250 C   0  0  0  0  0  2  0  0  0  0  0  0
  181.7880  177.2500  136.8020 N   0  0  0  0  0  0  0  0  0  0  0  0
  181.2090  174.9570  137.7700 C   0  0  1  0  0  3  0  0  0  0  0  0
  182.2980  172.1420  135.7620 C   0  0  2  0  0  3  0  0  0  0  0  0
  182.0040  171.3330  136.8630 O   0  0  0  0  0  1  0  0  0  0  0  0
  183.6950  172.5430  135.8230 N   0  0  0  0  0  2  0  0  0  0  0  0
  184.2010  172.1460  137.1250 C   0  0  0  0  0  2  0  0  0  0  0  0
  184.9920  173.2840  137.7310 C   0  0  0  0  0  1  0  0  0  0  0  0
  1  5  2  0  0  0  0
  1  3  1  0  0  0  0
  2  6  1  0  0  0  0
  2 11  1  0  0  0  0
  3  2  2  0  0  0  0
  4  6  2  0  0  0  0
  5  4  1  0  0  0  0
  7  9  1  0  0  0  0
  8  9  1  0  0  0  0
  8 10  2  0  0  0  0
  9 13  1  6  0  0  0
 11  7  1  0  0  0  0
 11  8  1  0  0  0  0
 13 12  1  1  0  0  0
 14 13  1  0  0  0  0
 15 14  1  0  0  0  0
 16 15  2  0  0  0  0
 17 20  1  0  0  0  0
 17 19  1  0  0  0  0
 19 15  1  6  0  0  0
 20 18  1  6  0  0  0
 20 19  1  0  0  0  0
 21 20  1  0  0  0  0
 22 25  1  0  0  0  0
 22 26  1  0  0  0  0
 23 21  1  1  0  0  0
 24 23  1  0  0  0  0
 25 24  1  0  0  0  0
 26 23  1  0  0  0  0
 27  5  1  0  0  0  0
 28 27  1  0  0  0  0
 29 28  1  0  0  0  0
 30 33  1  0  0  0  0
 31 30  2  0  0  0  0
 32 30  1  0  0  0  0
 32 29  1  0  0  0  0
 34 32  1  0  0  0  0
 36 41  1  1  0  0  0
 36 40  1  0  0  0  0
 36 38  1  0  0  0  0
 37 43  1  0  0  0  0
 38 42  1  1  0  0  0
 38 43  1  0  0  0  0
 39 44  1  1  0  0  0
 39 37  1  0  0  0  0
 40 42  1  0  0  0  0
 41 39  1  0  0  0  0
 42 34  1  0  0  0  0
 43 35  1  1  0  0  0
 44 46  1  0  0  0  0
 44 45  1  1  0  0  0
 46 47  1  0  0  0  0
 47 48  1  0  0  0  0
M  END
>  <MODEL>
2

>  <REMARK>
 VINA RESULT:      -8.1      1.823      2.742
  Name = 
  16 active torsions:
  status: ('A' for Active; 'I' for Inactive)
    1  A    between atoms: C_1  and  N_15
    2  A    between atoms: C_3  and  N_28
    3  A    between atoms: C_3  and  C_44
    4  A    between atoms: C_4  and  N_15
    5  A    between atoms: C_4  and  C_19
    6  A    between atoms: C_10  and  N_41
    7  A    between atoms: C_16  and  O_35
    8  A    between atoms: C_16  and  C_36
    9  A    between atoms: N_18  and  C_30
   10  A    between atoms: N_18  and  C_44
   11  A    between atoms: C_20  and  C_22
   12  A    between atoms: C_20  and  C_42
   13  A    between atoms: C_25  and  C_40
   14  A    between atoms: N_28  and  C_48
   15  A    between atoms: O_35  and  C_40
   16  A    between atoms: N_39  and  C_48
                            x       y       z     vdW  Elec       q    Type
                         _______ _______ _______ _____ _____    ______ ____

>  <TORSDO>
F 16

$$$$
=
 OpenBabel11062412043D

 48 53  0  0  1  0  0  0  0  0999 V2000
  185.1670  178.4900  143.7790 C   0  0  0  0  0  3  0  0  0  0  0  0
  183.5870  178.5260  141.9420 C   0  0  0  0  0  0  0  0  0  0  0  0
  184.8920  178.3490  142.4170 C   0  0  0  0  0  3  0  0  0  0  0  0
  182.8360  178.9830  144.2020 C   0  0  0  0  0  3  0  0  0  0  0  0
  184.1400  178.8110  144.6790 C   0  0  0  0  0  0  0  0  0  0  0  0
  182.5600  178.8410  142.8390 C   0  0  0  0  0  3  0  0  0  0  0  0
  182.6140  177.4090  139.7320 C   0  0  0  0  0  2  0  0  0  0  0  0
  183.6000  179.1530  139.3240 C   0  0  0  0  0  0  0  0  0  0  0  0
  182.8710  178.1260  138.5160 C   0  0  2  0  0  3  0  0  0  0  0  0
  184.2120  180.2210  139.0680 O   0  0  0  0  0  0  0  0  0  0  0  0
  183.3080  178.3830  140.5500 N   0  0  0  0  0  0  0  0  0  0  0  0
  181.8070  179.6800  136.9890 F   0  0  0  0  0  0  0  0  0  0  0  0
  181.5740  178.6730  137.9160 C   0  0  1  0  0  3  0  0  0  0  0  0
  180.8390  177.6180  137.3090 O   0  0  0  0  0  0  0  0  0  0  0  0
  181.3390  176.8480  136.2520 C   0  0  0  0  0  0  0  0  0  0  0  0
  182.2230  177.3460  135.5050 O   0  0  0  0  0  0  0  0  0  0  0  0
  180.2650  174.8110  137.2120 C   0  0  0  0  0  2  0  0  0  0  0  0
  181.4810  173.1110  136.0040 F   0  0  0  0  0  0  0  0  0  0  0  0
  180.8040  175.4720  135.9460 C   0  0  2  0  0  3  0  0  0  0  0  0
  181.5730  174.3390  136.6280 C   0  0  1  0  0  0  0  0  0  0  0  0
  182.7900  174.6360  137.5050 C   0  0  0  0  0  2  0  0  0  0  0  0
  186.3700  174.3920  137.0910 C   0  0  0  0  0  2  0  0  0  0  0  0
  184.0830  174.2090  136.8260 C   0  0  2  0  0  3  0  0  0  0  0  0
  184.5280  172.8720  137.3680 C   0  0  0  0  0  2  0  0  0  0  0  0
  186.0250  172.9810  137.5160 C   0  0  0  0  0  2  0  0  0  0  0  0
  185.1420  175.1690  137.0990 N   0  0  0  0  0  2  0  0  0  0  0  0
  184.4010  178.9630  146.0780 N   0  0  0  0  0  2  0  0  0  0  0  0
  185.7310  179.1950  146.6260 C   0  0  0  0  0  2  0  0  0  0  0  0
  186.4220  177.8680  146.8910 C   0  0  0  0  0  2  0  0  0  0  0  0
  188.7010  177.9730  147.9420 C   0  0  0  0  0  0  0  0  0  0  0  0
  189.9540  178.0560  147.8320 O   0  0  0  0  0  0  0  0  0  0  0  0
  187.8640  178.0200  146.7760 N   0  0  0  0  0  0  0  0  0  0  0  0
  188.1390  177.8260  149.2040 O   0  0  0  0  0  1  0  0  0  0  0  0
  188.4470  178.0500  145.4410 C   0  0  0  0  0  2  0  0  0  0  0  0
  191.5290  178.3170  144.0990 O   0  0  0  0  0  1  0  0  0  0  0  0
  188.6730  176.1040  143.1030 C   0  0  1  0  0  3  0  0  0  0  0  0
  190.5840  177.9730  141.9300 C   0  0  0  0  0  2  0  0  0  0  0  0
  189.8030  176.6490  143.9310 C   0  0  2  0  0  3  0  0  0  0  0  0
  189.3500  177.5160  141.1250 C   0  0  1  0  0  3  0  0  0  0  0  0
  187.8480  176.2070  144.2400 O   0  0  0  0  0  0  0  0  0  0  0  0
  188.1880  177.0760  142.0260 C   0  0  0  0  0  2  0  0  0  0  0  0
  188.8470  176.6980  145.0410 N   0  0  0  0  0  0  0  0  0  0  0  0
  190.3410  178.0120  143.4370 C   0  0  1  0  0  3  0  0  0  0  0  0
  188.8960  178.6160  140.1680 C   0  0  2  0  0  3  0  0  0  0  0  0
  187.5000  178.6320  140.0850 O   0  0  0  0  0  1  0  0  0  0  0  0
  189.4500  178.3900  138.8430 N   0  0  0  0  0  2  0  0  0  0  0  0
  188.8440  177.1760  138.3230 C   0  0  0  0  0  2  0  0  0  0  0  0
  189.8650  176.4050  137.5170 C   0  0  0  0  0  1  0  0  0  0  0  0
  1  5  1  0  0  0  0
  2  3  1  0  0  0  0
  2  6  2  0  0  0  0
  3  1  2  0  0  0  0
  4  5  2  0  0  0  0
  5 27  1  0  0  0  0
  6  4  1  0  0  0  0
  7 11  1  0  0  0  0
  8 11  1  0  0  0  0
  9 13  1  1  0  0  0
  9  8  1  0  0  0  0
  9  7  1  0  0  0  0
 10  8  2  0  0  0  0
 11  2  1  0  0  0  0
 13 12  1  6  0  0  0
 14 13  1  0  0  0  0
 15 14  1  0  0  0  0
 16 15  2  0  0  0  0
 19 15  1  1  0  0  0
 19 20  1  0  0  0  0
 19 17  1  0  0  0  0
 20 18  1  6  0  0  0
 20 17  1  0  0  0  0
 20 21  1  0  0  0  0
 22 26  1  0  0  0  0
 22 25  1  0  0  0  0
 23 26  1  0  0  0  0
 23 24  1  0  0  0  0
 23 21  1  1  0  0  0
 24 25  1  0  0  0  0
 27 28  1  0  0  0  0
 28 29  1  0  0  0  0
 30 33  1  0  0  0  0
 31 30  2  0  0  0  0
 32 29  1  0  0  0  0
 32 30  1  0  0  0  0
 34 32  1  0  0  0  0
 36 41  1  6  0  0  0
 36 38  1  0  0  0  0
 36 40  1  0  0  0  0
 37 43  1  0  0  0  0
 38 42  1  1  0  0  0
 39 44  1  1  0  0  0
 39 37  1  0  0  0  0
 39 41  1  0  0  0  0
 40 42  1  0  0  0  0
 42 34  1  0  0  0  0
 43 38  1  0  0  0  0
 43 35  1  1  0  0  0
 44 45  1  6  0  0  0
 46 44  1  0  0  0  0
 47 46  1  0  0  0  0
 48 47  1  0  0  0  0
M  END
>  <MODEL>
3

>  <REMARK>
 VINA RESULT:      -7.9      3.249      8.701
  Name = 
  16 active torsions:
  status: ('A' for Active; 'I' for Inactive)
    1  A    between atoms: C_1  and  N_15
    2  A    between atoms: C_3  and  N_28
    3  A    between atoms: C_3  and  C_44
    4  A    between atoms: C_4  and  N_15
    5  A    between atoms: C_4  and  C_19
    6  A    between atoms: C_10  and  N_41
    7  A    between atoms: C_16  and  O_35
    8  A    between atoms: C_16  and  C_36
    9  A    between atoms: N_18  and  C_30
   10  A    between atoms: N_18  and  C_44
   11  A    between atoms: C_20  and  C_22
   12  A    between atoms: C_20  and  C_42
   13  A    between atoms: C_25  and  C_40
   14  A    between atoms: N_28  and  C_48
   15  A    between atoms: O_35  and  C_40
   16  A    between atoms: N_39  and  C_48
                            x       y       z     vdW  Elec       q    Type
                         _______ _______ _______ _____ _____    ______ ____

>  <TORSDO>
F 16

$$$$
=
 OpenBabel11062412043D

 48 53  0  0  1  0  0  0  0  0999 V2000
  188.2990  178.0920  139.1210 C   0  0  0  0  0  3  0  0  0  0  0  0
  189.9160  177.3040  140.7450 C   0  0  0  0  0  0  0  0  0  0  0  0
  188.6970  177.9260  140.4490 C   0  0  0  0  0  3  0  0  0  0  0  0
  190.3330  177.0140  138.3740 C   0  0  0  0  0  3  0  0  0  0  0  0
  189.1180  177.6390  138.0750 C   0  0  0  0  0  0  0  0  0  0  0  0
  190.7310  176.8470  139.7040 C   0  0  0  0  0  3  0  0  0  0  0  0
  191.5100  177.4490  142.8700 C   0  0  0  0  0  2  0  0  0  0  0  0
  189.7210  176.5710  143.3280 C   0  0  0  0  0  0  0  0  0  0  0  0
  190.9660  176.9140  144.0850 C   0  0  2  0  0  3  0  0  0  0  0  0
  188.6250  176.0240  143.6120 O   0  0  0  0  0  0  0  0  0  0  0  0
  190.3210  177.1360  142.1030 N   0  0  0  0  0  0  0  0  0  0  0  0
  189.4920  178.6260  144.9650 F   0  0  0  0  0  0  0  0  0  0  0  0
  190.7320  178.0200  145.1160 C   0  0  1  0  0  3  0  0  0  0  0  0
  190.8540  177.4910  146.4300 O   0  0  0  0  0  0  0  0  0  0  0  0
  189.7520  177.1300  147.2130 C   0  0  0  0  0  0  0  0  0  0  0  0
  189.3350  175.9430  147.1620 O   0  0  0  0  0  0  0  0  0  0  0  0
  187.8750  177.4620  148.8220 C   0  0  0  0  0  2  0  0  0  0  0  0
  187.0210  179.5700  148.0120 F   0  0  0  0  0  0  0  0  0  0  0  0
  189.0150  178.1350  148.0620 C   0  0  2  0  0  3  0  0  0  0  0  0
  187.5590  178.3510  147.6470 C   0  0  1  0  0  0  0  0  0  0  0  0
  186.9690  177.6110  146.4460 C   0  0  0  0  0  2  0  0  0  0  0  0
  184.8670  178.5020  143.6460 C   0  0  0  0  0  2  0  0  0  0  0  0
  186.1890  178.5520  145.5400 C   0  0  2  0  0  3  0  0  0  0  0  0
  184.7700  178.6850  146.0410 C   0  0  0  0  0  2  0  0  0  0  0  0
  183.9080  178.6790  144.8030 C   0  0  0  0  0  2  0  0  0  0  0  0
  186.1290  178.0220  144.1850 N   0  0  0  0  0  2  0  0  0  0  0  0
  188.7300  177.8010  136.7070 N   0  0  0  0  0  2  0  0  0  0  0  0
  187.5040  178.4720  136.2950 C   0  0  0  0  0  2  0  0  0  0  0  0
  186.6440  177.5240  135.4740 C   0  0  0  0  0  2  0  0  0  0  0  0
  185.8300  175.4880  136.6970 C   0  0  0  0  0  0  0  0  0  0  0  0
  185.0080  174.9350  137.4770 O   0  0  0  0  0  1  0  0  0  0  0  0
  185.6680  176.8660  136.3280 N   0  0  0  0  0  0  0  0  0  0  0  0
  186.9000  174.7500  136.2070 O   0  0  0  0  0  0  0  0  0  0  0  0
  184.6220  177.6810  136.9310 C   0  0  0  0  0  2  0  0  0  0  0  0
  182.0170  176.1900  138.4680 O   0  0  0  0  0  1  0  0  0  0  0  0
  183.9250  179.2640  139.4430 C   0  0  1  0  0  3  0  0  0  0  0  0
  181.1780  178.3440  139.0760 C   0  0  0  0  0  2  0  0  0  0  0  0
  183.6430  177.8100  139.1900 C   0  0  2  0  0  3  0  0  0  0  0  0
  181.4820  179.8510  139.2030 C   0  0  1  0  0  3  0  0  0  0  0  0
  185.0650  179.1400  138.6260 O   0  0  0  0  0  0  0  0  0  0  0  0
  182.9150  180.2020  138.7770 C   0  0  0  0  0  2  0  0  0  0  0  0
  184.8580  177.8090  138.3720 N   0  0  0  0  0  0  0  0  0  0  0  0
  182.3160  177.5500  138.4390 C   0  0  1  0  0  3  0  0  0  0  0  0
  180.4730  180.6720  138.4030 C   0  0  2  0  0  3  0  0  0  0  0  0
  179.7160  179.8310  137.5820 O   0  0  0  0  0  1  0  0  0  0  0  0
  181.1620  181.6510  137.5790 N   0  0  0  0  0  2  0  0  0  0  0  0
  180.5580  182.9440  137.8480 C   0  0  0  0  0  2  0  0  0  0  0  0
  181.2590  184.0110  137.0370 C   0  0  0  0  0  1  0  0  0  0  0  0
  1  3  1  0  0  0  0
  2 11  1  0  0  0  0
  3  2  2  0  0  0  0
  4  6  2  0  0  0  0
  5  4  1  0  0  0  0
  5  1  2  0  0  0  0
  6  2  1  0  0  0  0
  7  9  1  0  0  0  0
  8 10  2  0  0  0  0
  8  9  1  0  0  0  0
  9 13  1  1  0  0  0
 11  7  1  0  0  0  0
 11  8  1  0  0  0  0
 13 12  1  1  0  0  0
 13 14  1  0  0  0  0
 14 15  1  0  0  0  0
 16 15  2  0  0  0  0
 19 15  1  6  0  0  0
 19 17  1  0  0  0  0
 20 18  1  1  0  0  0
 20 19  1  0  0  0  0
 20 17  1  0  0  0  0
 21 20  1  0  0  0  0
 22 26  1  0  0  0  0
 22 25  1  0  0  0  0
 23 24  1  0  0  0  0
 23 21  1  1  0  0  0
 25 24  1  0  0  0  0
 26 23  1  0  0  0  0
 27  5  1  0  0  0  0
 28 27  1  0  0  0  0
 29 28  1  0  0  0  0
 29 32  1  0  0  0  0
 30 31  1  0  0  0  0
 32 30  1  0  0  0  0
 32 34  1  0  0  0  0
 33 30  2  0  0  0  0
 34 42  1  0  0  0  0
 36 41  1  6  0  0  0
 37 39  1  0  0  0  0
 38 42  1  6  0  0  0
 38 36  1  0  0  0  0
 39 44  1  6  0  0  0
 40 36  1  0  0  0  0
 41 39  1  0  0  0  0
 42 40  1  0  0  0  0
 43 35  1  1  0  0  0
 43 37  1  0  0  0  0
 43 38  1  0  0  0  0
 44 45  1  6  0  0  0
 46 47  1  0  0  0  0
 46 44  1  0  0  0  0
 48 47  1  0  0  0  0
M  END
>  <MODEL>
4

>  <REMARK>
 VINA RESULT:      -7.8      2.114      6.220
  Name = 
  16 active torsions:
  status: ('A' for Active; 'I' for Inactive)
    1  A    between atoms: C_1  and  N_15
    2  A    between atoms: C_3  and  N_28
    3  A    between atoms: C_3  and  C_44
    4  A    between atoms: C_4  and  N_15
    5  A    between atoms: C_4  and  C_19
    6  A    between atoms: C_10  and  N_41
    7  A    between atoms: C_16  and  O_35
    8  A    between atoms: C_16  and  C_36
    9  A    between atoms: N_18  and  C_30
   10  A    between atoms: N_18  and  C_44
   11  A    between atoms: C_20  and  C_22
   12  A    between atoms: C_20  and  C_42
   13  A    between atoms: C_25  and  C_40
   14  A    between atoms: N_28  and  C_48
   15  A    between atoms: O_35  and  C_40
   16  A    between atoms: N_39  and  C_48
                            x       y       z     vdW  Elec       q    Type
                         _______ _______ _______ _____ _____    ______ ____

>  <TORSDO>
F 16

$$$$
=
 OpenBabel11062412043D

 48 53  0  0  1  0  0  0  0  0999 V2000
  182.5180  178.9990  144.0190 C   0  0  0  0  0  3  0  0  0  0  0  0
  184.7760  178.4050  144.6680 C   0  0  0  0  0  0  0  0  0  0  0  0
  183.4690  178.7690  145.0150 C   0  0  0  0  0  3  0  0  0  0  0  0
  184.1700  178.5020  142.3220 C   0  0  0  0  0  3  0  0  0  0  0  0
  182.8650  178.8690  142.6660 C   0  0  0  0  0  0  0  0  0  0  0  0
  185.1220  178.2710  143.3190 C   0  0  0  0  0  3  0  0  0  0  0  0
  186.7800  177.1830  145.9200 C   0  0  0  0  0  2  0  0  0  0  0  0
  186.1330  178.8230  146.9540 C   0  0  0  0  0  0  0  0  0  0  0  0
  187.1910  177.7840  147.1550 C   0  0  2  0  0  3  0  0  0  0  0  0
  185.7340  179.8280  147.5970 O   0  0  0  0  0  0  0  0  0  0  0  0
  185.7470  178.1710  145.6870 N   0  0  0  0  0  0  0  0  0  0  0  0
  189.1040  178.7730  148.2690 F   0  0  0  0  0  0  0  0  0  0  0  0
  188.6030  178.3630  147.0410 C   0  0  1  0  0  3  0  0  0  0  0  0
  189.4750  177.4020  146.4600 O   0  0  0  0  0  0  0  0  0  0  0  0
  190.2920  177.6790  145.3590 C   0  0  0  0  0  0  0  0  0  0  0  0
  190.2680  178.8360  144.8620 O   0  0  0  0  0  0  0  0  0  0  0  0
  191.6780  177.1010  143.3660 C   0  0  0  0  0  2  0  0  0  0  0  0
  191.0050  174.8020  143.0630 F   0  0  0  0  0  0  0  0  0  0  0  0
  191.1470  176.6170  144.7130 C   0  0  2  0  0  3  0  0  0  0  0  0
  190.5780  176.0710  143.4040 C   0  0  1  0  0  0  0  0  0  0  0  0
  189.2380  176.5700  142.8630 C   0  0  0  0  0  2  0  0  0  0  0  0
  189.1130  177.4320  139.3570 C   0  0  0  0  0  2  0  0  0  0  0  0
  189.4260  177.4630  141.6460 C   0  0  2  0  0  3  0  0  0  0  0  0
  188.1720  178.2690  141.4050 C   0  0  0  0  0  2  0  0  0  0  0  0
  187.9810  178.2730  139.9080 C   0  0  0  0  0  2  0  0  0  0  0  0
  189.6660  176.6590  140.4560 N   0  0  0  0  0  2  0  0  0  0  0  0
  181.9060  179.1030  141.6290 N   0  0  0  0  0  2  0  0  0  0  0  0
  181.3700  178.0480  140.7790 C   0  0  0  0  0  2  0  0  0  0  0  0
  180.3560  178.6290  139.8070 C   0  0  0  0  0  2  0  0  0  0  0  0
  180.8020  180.7830  138.5960 C   0  0  0  0  0  0  0  0  0  0  0  0
  181.4300  181.4360  137.7190 O   0  0  0  0  0  0  0  0  0  0  0  0
  181.0350  179.3750  138.7590 N   0  0  0  0  0  0  0  0  0  0  0  0
  179.8880  181.4420  139.4080 O   0  0  0  0  0  1  0  0  0  0  0  0
  182.0770  178.7000  137.9980 C   0  0  0  0  0  2  0  0  0  0  0  0
  182.7310  175.5700  139.0700 O   0  0  0  0  0  1  0  0  0  0  0  0
  182.6100  176.9220  135.5780 C   0  0  1  0  0  3  0  0  0  0  0  0
  184.3360  175.3340  137.3150 C   0  0  0  0  0  2  0  0  0  0  0  0
  182.1210  176.4790  136.9280 C   0  0  2  0  0  3  0  0  0  0  0  0
  184.8810  175.9020  135.9880 C   0  0  1  0  0  3  0  0  0  0  0  0
  181.9500  178.1480  135.7900 O   0  0  0  0  0  0  0  0  0  0  0  0
  184.1220  177.1540  135.5270 C   0  0  0  0  0  2  0  0  0  0  0  0
  181.4710  177.7890  137.0230 N   0  0  0  0  0  0  0  0  0  0  0  0
  183.2530  176.2060  137.9450 C   0  0  1  0  0  3  0  0  0  0  0  0
  186.3750  176.1970  136.1030 C   0  0  2  0  0  3  0  0  0  0  0  0
  186.9500  175.3820  137.0820 O   0  0  0  0  0  1  0  0  0  0  0  0
  186.5860  177.5910  136.4570 N   0  0  0  0  0  2  0  0  0  0  0  0
  187.8740  177.9850  135.9110 C   0  0  0  0  0  2  0  0  0  0  0  0
  188.1070  177.2710  134.5980 C   0  0  0  0  0  1  0  0  0  0  0  0
  1  3  1  0  0  0  0
  2  3  2  0  0  0  0
  2 11  1  0  0  0  0
  4  5  1  0  0  0  0
  4  6  2  0  0  0  0
  5  1  2  0  0  0  0
  6  2  1  0  0  0  0
  7  9  1  0  0  0  0
  8  9  1  0  0  0  0
  8 10  2  0  0  0  0
  9 13  1  6  0  0  0
 11  7  1  0  0  0  0
 11  8  1  0  0  0  0
 13 12  1  1  0  0  0
 14 13  1  0  0  0  0
 15 14  1  0  0  0  0
 16 15  2  0  0  0  0
 17 20  1  0  0  0  0
 17 19  1  0  0  0  0
 19 15  1  6  0  0  0
 20 18  1  6  0  0  0
 20 19  1  0  0  0  0
 21 20  1  0  0  0  0
 22 25  1  0  0  0  0
 22 26  1  0  0  0  0
 23 21  1  1  0  0  0
 24 23  1  0  0  0  0
 25 24  1  0  0  0  0
 26 23  1  0  0  0  0
 27  5  1  0  0  0  0
 28 27  1  0  0  0  0
 29 28  1  0  0  0  0
 30 32  1  0  0  0  0
 30 33  1  0  0  0  0
 31 30  2  0  0  0  0
 32 29  1  0  0  0  0
 34 32  1  0  0  0  0
 36 41  1  1  0  0  0
 36 40  1  0  0  0  0
 36 38  1  0  0  0  0
 37 43  1  0  0  0  0
 38 42  1  1  0  0  0
 38 43  1  0  0  0  0
 39 44  1  1  0  0  0
 39 37  1  0  0  0  0
 40 42  1  0  0  0  0
 41 39  1  0  0  0  0
 42 34  1  0  0  0  0
 43 35  1  1  0  0  0
 44 46  1  0  0  0  0
 44 45  1  1  0  0  0
 47 46  1  0  0  0  0
 48 47  1  0  0  0  0
M  END
>  <MODEL>
5

>  <REMARK>
 VINA RESULT:      -7.8      1.340      1.679
  Name = 
  16 active torsions:
  status: ('A' for Active; 'I' for Inactive)
    1  A    between atoms: C_1  and  N_15
    2  A    between atoms: C_3  and  N_28
    3  A    between atoms: C_3  and  C_44
    4  A    between atoms: C_4  and  N_15
    5  A    between atoms: C_4  and  C_19
    6  A    between atoms: C_10  and  N_41
    7  A    between atoms: C_16  and  O_35
    8  A    between atoms: C_16  and  C_36
    9  A    between atoms: N_18  and  C_30
   10  A    between atoms: N_18  and  C_44
   11  A    between atoms: C_20  and  C_22
   12  A    between atoms: C_20  and  C_42
   13  A    between atoms: C_25  and  C_40
   14  A    between atoms: N_28  and  C_48
   15  A    between atoms: O_35  and  C_40
   16  A    between atoms: N_39  and  C_48
                            x       y       z     vdW  Elec       q    Type
                         _______ _______ _______ _____ _____    ______ ____

>  <TORSDO>
F 16

$$$$
=
 OpenBabel11062412043D

 48 53  0  0  1  0  0  0  0  0999 V2000
  187.2530  178.0580  139.2360 C   0  0  0  0  0  3  0  0  0  0  0  0
  189.2090  177.7320  140.6290 C   0  0  0  0  0  0  0  0  0  0  0  0
  187.9150  178.2360  140.4530 C   0  0  0  0  0  3  0  0  0  0  0  0
  189.1720  176.8700  138.3620 C   0  0  0  0  0  3  0  0  0  0  0  0
  187.8810  177.3770  138.1820 C   0  0  0  0  0  0  0  0  0  0  0  0
  189.8350  177.0470  139.5810 C   0  0  0  0  0  3  0  0  0  0  0  0
  189.5860  178.5930  143.1180 C   0  0  0  0  0  2  0  0  0  0  0  0
  191.1810  177.5040  142.4470 C   0  0  0  0  0  0  0  0  0  0  0  0
  190.8330  178.2140  143.7180 C   0  0  2  0  0  3  0  0  0  0  0  0
  192.1670  176.8410  142.0350 O   0  0  0  0  0  0  0  0  0  0  0  0
  189.8840  177.9150  141.8720 N   0  0  0  0  0  0  0  0  0  0  0  0
  191.7090  176.4250  145.0990 F   0  0  0  0  0  0  0  0  0  0  0  0
  190.6110  177.2460  144.8810 C   0  0  1  0  0  3  0  0  0  0  0  0
  190.3090  177.9730  146.0650 O   0  0  0  0  0  0  0  0  0  0  0  0
  189.6690  177.4010  147.1710 C   0  0  0  0  0  0  0  0  0  0  0  0
  189.7970  176.1640  147.3720 O   0  0  0  0  0  0  0  0  0  0  0  0
  187.7110  177.3230  148.7140 C   0  0  0  0  0  2  0  0  0  0  0  0
  186.6250  179.3860  148.0900 F   0  0  0  0  0  0  0  0  0  0  0  0
  188.7810  178.2090  148.0840 C   0  0  2  0  0  3  0  0  0  0  0  0
  187.3250  178.2900  147.6250 C   0  0  1  0  0  0  0  0  0  0  0  0
  186.8750  177.6200  146.3270 C   0  0  0  0  0  2  0  0  0  0  0  0
  184.7840  178.5710  143.5380 C   0  0  0  0  0  2  0  0  0  0  0  0
  186.0720  178.5750  145.4560 C   0  0  2  0  0  3  0  0  0  0  0  0
  184.6410  178.6250  145.9380 C   0  0  0  0  0  2  0  0  0  0  0  0
  183.8000  178.6500  144.6850 C   0  0  0  0  0  2  0  0  0  0  0  0
  186.0550  178.1150  144.0750 N   0  0  0  0  0  2  0  0  0  0  0  0
  187.2220  177.1860  136.9260 N   0  0  0  0  0  2  0  0  0  0  0  0
  185.7750  177.2450  136.7620 C   0  0  0  0  0  2  0  0  0  0  0  0
  185.2880  176.0230  136.0000 C   0  0  0  0  0  2  0  0  0  0  0  0
  185.7660  173.8780  137.2140 C   0  0  0  0  0  0  0  0  0  0  0  0
  185.4370  173.0000  138.0570 O   0  0  0  0  0  1  0  0  0  0  0  0
  184.8880  174.9780  136.9300 N   0  0  0  0  0  0  0  0  0  0  0  0
  186.9910  173.7720  136.5690 O   0  0  0  0  0  0  0  0  0  0  0  0
  183.6590  175.1650  137.6870 C   0  0  0  0  0  2  0  0  0  0  0  0
  182.5010  178.3310  137.6000 O   0  0  0  0  0  1  0  0  0  0  0  0
  180.6140  175.0950  137.5170 C   0  0  1  0  0  3  0  0  0  0  0  0
  180.6280  177.6540  138.9220 C   0  0  0  0  0  2  0  0  0  0  0  0
  181.5140  176.2060  137.0550 C   0  0  2  0  0  3  0  0  0  0  0  0
  179.8060  176.4690  139.4720 C   0  0  1  0  0  3  0  0  0  0  0  0
  181.6520  174.1890  137.2200 O   0  0  0  0  0  0  0  0  0  0  0  0
  180.3590  175.1090  139.0260 C   0  0  0  0  0  2  0  0  0  0  0  0
  182.5080  175.1650  136.7790 N   0  0  0  0  0  0  0  0  0  0  0  0
  181.8800  177.2180  138.1640 C   0  0  1  0  0  3  0  0  0  0  0  0
  179.7210  176.5360  140.9950 C   0  0  2  0  0  3  0  0  0  0  0  0
  178.9750  175.4580  141.4810 O   0  0  0  0  0  1  0  0  0  0  0  0
  179.0890  177.7790  141.4100 N   0  0  0  0  0  2  0  0  0  0  0  0
  179.6930  178.1700  142.6710 C   0  0  0  0  0  2  0  0  0  0  0  0
  180.8630  179.0920  142.4080 C   0  0  0  0  0  1  0  0  0  0  0  0
  1  3  1  0  0  0  0
  2 11  1  0  0  0  0
  3  2  2  0  0  0  0
  4  6  2  0  0  0  0
  5  4  1  0  0  0  0
  5  1  2  0  0  0  0
  6  2  1  0  0  0  0
  7  9  1  0  0  0  0
  8  9  1  0  0  0  0
  9 13  1  1  0  0  0
 10  8  2  0  0  0  0
 11  8  1  0  0  0  0
 11  7  1  0  0  0  0
 13 12  1  1  0  0  0
 13 14  1  0  0  0  0
 14 15  1  0  0  0  0
 15 16  2  0  0  0  0
 19 15  1  6  0  0  0
 19 17  1  0  0  0  0
 20 19  1  0  0  0  0
 20 18  1  1  0  0  0
 20 17  1  0  0  0  0
 21 20  1  0  0  0  0
 22 26  1  0  0  0  0
 22 25  1  0  0  0  0
 23 24  1  0  0  0  0
 23 21  1  1  0  0  0
 25 24  1  0  0  0  0
 26 23  1  0  0  0  0
 27  5  1  0  0  0  0
 28 27  1  0  0  0  0
 29 28  1  0  0  0  0
 29 32  1  0  0  0  0
 30 31  1  0  0  0  0
 32 30  1  0  0  0  0
 32 34  1  0  0  0  0
 33 30  2  0  0  0  0
 36 41  1  1  0  0  0
 37 39  1  0  0  0  0
 38 42  1  1  0  0  0
 38 36  1  0  0  0  0
 38 43  1  0  0  0  0
 39 44  1  1  0  0  0
 40 36  1  0  0  0  0
 41 39  1  0  0  0  0
 42 40  1  0  0  0  0
 42 34  1  0  0  0  0
 43 35  1  6  0  0  0
 43 37  1  0  0  0  0
 44 46  1  0  0  0  0
 44 45  1  6  0  0  0
 46 47  1  0  0  0  0
 48 47  1  0  0  0  0
M  END
>  <MODEL>
6

>  <REMARK>
 VINA RESULT:      -7.7      2.110      6.338
  Name = 
  16 active torsions:
  status: ('A' for Active; 'I' for Inactive)
    1  A    between atoms: C_1  and  N_15
    2  A    between atoms: C_3  and  N_28
    3  A    between atoms: C_3  and  C_44
    4  A    between atoms: C_4  and  N_15
    5  A    between atoms: C_4  and  C_19
    6  A    between atoms: C_10  and  N_41
    7  A    between atoms: C_16  and  O_35
    8  A    between atoms: C_16  and  C_36
    9  A    between atoms: N_18  and  C_30
   10  A    between atoms: N_18  and  C_44
   11  A    between atoms: C_20  and  C_22
   12  A    between atoms: C_20  and  C_42
   13  A    between atoms: C_25  and  C_40
   14  A    between atoms: N_28  and  C_48
   15  A    between atoms: O_35  and  C_40
   16  A    between atoms: N_39  and  C_48
                            x       y       z     vdW  Elec       q    Type
                         _______ _______ _______ _____ _____    ______ ____

>  <TORSDO>
F 16

$$$$
=
 OpenBabel11062412043D

 48 53  0  0  1  0  0  0  0  0999 V2000
  188.1250  177.1830  138.1250 C   0  0  0  0  0  3  0  0  0  0  0  0
  189.5810  177.1730  140.0630 C   0  0  0  0  0  0  0  0  0  0  0  0
  188.3830  177.5540  139.4470 C   0  0  0  0  0  3  0  0  0  0  0  0
  190.2590  176.0460  138.0250 C   0  0  0  0  0  3  0  0  0  0  0  0
  189.0650  176.4290  137.4060 C   0  0  0  0  0  0  0  0  0  0  0  0
  190.5170  176.4160  139.3490 C   0  0  0  0  0  3  0  0  0  0  0  0
  189.0470  178.0480  142.5180 C   0  0  0  0  0  2  0  0  0  0  0  0
  191.0330  177.6200  142.2850 C   0  0  0  0  0  0  0  0  0  0  0  0
  190.1740  178.1250  143.4020 C   0  0  2  0  0  3  0  0  0  0  0  0
  192.2560  177.3640  142.1430 O   0  0  0  0  0  0  0  0  0  0  0  0
  189.8430  177.5540  141.4120 N   0  0  0  0  0  0  0  0  0  0  0  0
  190.9320  176.0500  144.4000 F   0  0  0  0  0  0  0  0  0  0  0  0
  190.0490  177.1120  144.5420 C   0  0  1  0  0  3  0  0  0  0  0  0
  190.2660  177.7580  145.7890 O   0  0  0  0  0  0  0  0  0  0  0  0
  189.6880  177.3200  146.9870 C   0  0  0  0  0  0  0  0  0  0  0  0
  189.7620  176.0980  147.2840 O   0  0  0  0  0  0  0  0  0  0  0  0
  187.9320  177.4780  148.7520 C   0  0  0  0  0  2  0  0  0  0  0  0
  186.7970  179.4750  148.0110 F   0  0  0  0  0  0  0  0  0  0  0  0
  188.9260  178.2550  147.8920 C   0  0  2  0  0  3  0  0  0  0  0  0
  187.4260  178.3140  147.6050 C   0  0  1  0  0  0  0  0  0  0  0  0
  186.8140  177.5010  146.4640 C   0  0  0  0  0  2  0  0  0  0  0  0
  184.9010  178.2580  143.4940 C   0  0  0  0  0  2  0  0  0  0  0  0
  186.1490  178.4010  145.4330 C   0  0  2  0  0  3  0  0  0  0  0  0
  184.7270  178.6940  145.8520 C   0  0  0  0  0  2  0  0  0  0  0  0
  183.9160  178.6280  144.5820 C   0  0  0  0  0  2  0  0  0  0  0  0
  186.0970  177.7400  144.1370 N   0  0  0  0  0  2  0  0  0  0  0  0
  188.8220  176.0410  136.0500 N   0  0  0  0  0  2  0  0  0  0  0  0
  187.5240  176.1630  135.4010 C   0  0  0  0  0  2  0  0  0  0  0  0
  186.9720  174.7840  135.0780 C   0  0  0  0  0  2  0  0  0  0  0  0
  186.8780  173.0820  136.9210 C   0  0  0  0  0  0  0  0  0  0  0  0
  186.3350  172.6250  137.9630 O   0  0  0  0  0  1  0  0  0  0  0  0
  186.3170  174.2180  136.2470 N   0  0  0  0  0  0  0  0  0  0  0  0
  188.0330  172.4780  136.4380 O   0  0  0  0  0  0  0  0  0  0  0  0
  185.1800  174.9330  136.8110 C   0  0  0  0  0  2  0  0  0  0  0  0
  183.8210  177.4140  134.9760 O   0  0  0  0  0  1  0  0  0  0  0  0
  182.1480  174.8420  137.1270 C   0  0  1  0  0  3  0  0  0  0  0  0
  182.1670  177.7260  136.6730 C   0  0  0  0  0  2  0  0  0  0  0  0
  182.9140  175.4200  135.9700 C   0  0  2  0  0  3  0  0  0  0  0  0
  181.4940  177.1420  137.9320 C   0  0  1  0  0  3  0  0  0  0  0  0
  183.1980  173.9210  137.3050 O   0  0  0  0  0  0  0  0  0  0  0  0
  182.0750  175.7790  138.3340 C   0  0  0  0  0  2  0  0  0  0  0  0
  183.9320  174.4050  136.2530 N   0  0  0  0  0  0  0  0  0  0  0  0
  183.3450  176.8910  136.1760 C   0  0  1  0  0  3  0  0  0  0  0  0
  181.5870  178.1250  139.0970 C   0  0  2  0  0  3  0  0  0  0  0  0
  181.6800  179.4330  138.6130 O   0  0  0  0  0  1  0  0  0  0  0  0
  182.7570  177.8320  139.9100 N   0  0  0  0  0  2  0  0  0  0  0  0
  183.6030  179.0120  139.8890 C   0  0  0  0  0  2  0  0  0  0  0  0
  184.9380  178.6670  139.2680 C   0  0  0  0  0  1  0  0  0  0  0  0
  1  3  1  0  0  0  0
  2 11  1  0  0  0  0
  3  2  2  0  0  0  0
  4  6  2  0  0  0  0
  5  4  1  0  0  0  0
  5  1  2  0  0  0  0
  6  2  1  0  0  0  0
  7  9  1  0  0  0  0
  8  9  1  0  0  0  0
  9 13  1  1  0  0  0
 10  8  2  0  0  0  0
 11  8  1  0  0  0  0
 11  7  1  0  0  0  0
 13 12  1  6  0  0  0
 13 14  1  0  0  0  0
 14 15  1  0  0  0  0
 15 16  2  0  0  0  0
 19 15  1  6  0  0  0
 19 17  1  0  0  0  0
 20 19  1  0  0  0  0
 20 18  1  1  0  0  0
 20 17  1  0  0  0  0
 21 20  1  0  0  0  0
 22 26  1  0  0  0  0
 22 25  1  0  0  0  0
 23 24  1  0  0  0  0
 23 21  1  1  0  0  0
 25 24  1  0  0  0  0
 26 23  1  0  0  0  0
 27  5  1  0  0  0  0
 28 27  1  0  0  0  0
 29 28  1  0  0  0  0
 29 32  1  0  0  0  0
 30 31  1  0  0  0  0
 32 34  1  0  0  0  0
 32 30  1  0  0  0  0
 33 30  2  0  0  0  0
 36 40  1  0  0  0  0
 36 41  1  1  0  0  0
 37 39  1  0  0  0  0
 38 43  1  0  0  0  0
 38 42  1  1  0  0  0
 38 36  1  0  0  0  0
 39 41  1  0  0  0  0
 39 44  1  1  0  0  0
 42 34  1  0  0  0  0
 42 40  1  0  0  0  0
 43 35  1  6  0  0  0
 43 37  1  0  0  0  0
 44 45  1  6  0  0  0
 44 46  1  0  0  0  0
 47 46  1  0  0  0  0
 48 47  1  0  0  0  0
M  END
>  <MODEL>
7

>  <REMARK>
 VINA RESULT:      -7.6      1.697      6.058
  Name = 
  16 active torsions:
  status: ('A' for Active; 'I' for Inactive)
    1  A    between atoms: C_1  and  N_15
    2  A    between atoms: C_3  and  N_28
    3  A    between atoms: C_3  and  C_44
    4  A    between atoms: C_4  and  N_15
    5  A    between atoms: C_4  and  C_19
    6  A    between atoms: C_10  and  N_41
    7  A    between atoms: C_16  and  O_35
    8  A    between atoms: C_16  and  C_36
    9  A    between atoms: N_18  and  C_30
   10  A    between atoms: N_18  and  C_44
   11  A    between atoms: C_20  and  C_22
   12  A    between atoms: C_20  and  C_42
   13  A    between atoms: C_25  and  C_40
   14  A    between atoms: N_28  and  C_48
   15  A    between atoms: O_35  and  C_40
   16  A    between atoms: N_39  and  C_48
                            x       y       z     vdW  Elec       q    Type
                         _______ _______ _______ _____ _____    ______ ____

>  <TORSDO>
F 16

$$$$
=
 OpenBabel11062412043D

 48 53  0  0  1  0  0  0  0  0999 V2000
  181.7710  178.3730  140.5660 C   0  0  0  0  0  3  0  0  0  0  0  0
  183.8640  178.6910  141.7450 C   0  0  0  0  0  0  0  0  0  0  0  0
  182.4700  178.5610  141.7600 C   0  0  0  0  0  3  0  0  0  0  0  0
  183.8510  178.4440  139.3320 C   0  0  0  0  0  3  0  0  0  0  0  0
  182.4580  178.3170  139.3440 C   0  0  0  0  0  0  0  0  0  0  0  0
  184.5520  178.6310  140.5280 C   0  0  0  0  0  3  0  0  0  0  0  0
  184.5400  179.8560  144.0390 C   0  0  0  0  0  2  0  0  0  0  0  0
  185.6670  178.1880  143.6790 C   0  0  0  0  0  0  0  0  0  0  0  0
  185.5940  179.2120  144.7690 C   0  0  2  0  0  3  0  0  0  0  0  0
  186.3660  177.1670  143.4580 O   0  0  0  0  0  0  0  0  0  0  0  0
  184.5770  178.8840  142.9650 N   0  0  0  0  0  0  0  0  0  0  0  0
  183.9050  177.8960  145.9060 F   0  0  0  0  0  0  0  0  0  0  0  0
  185.0730  178.6250  146.0830 C   0  0  1  0  0  3  0  0  0  0  0  0
  186.0710  177.8040  146.6750 O   0  0  0  0  0  0  0  0  0  0  0  0
  186.9880  178.2770  147.6200 C   0  0  0  0  0  0  0  0  0  0  0  0
  186.9240  179.4840  147.9740 O   0  0  0  0  0  0  0  0  0  0  0  0
  189.3710  178.2050  148.3560 C   0  0  0  0  0  2  0  0  0  0  0  0
  190.0110  176.0680  147.4350 F   0  0  0  0  0  0  0  0  0  0  0  0
  188.0850  177.4030  148.1740 C   0  0  2  0  0  3  0  0  0  0  0  0
  189.2690  177.2140  147.2250 C   0  0  1  0  0  0  0  0  0  0  0  0
  189.2690  177.8520  145.8360 C   0  0  0  0  0  2  0  0  0  0  0  0
  190.6400  176.4980  142.7800 C   0  0  0  0  0  2  0  0  0  0  0  0
  190.3440  177.2480  144.9450 C   0  0  2  0  0  3  0  0  0  0  0  0
  191.1040  178.3490  144.2440 C   0  0  0  0  0  2  0  0  0  0  0  0
  191.3220  177.8480  142.8370 C   0  0  0  0  0  2  0  0  0  0  0  0
  189.7430  176.4070  143.9200 N   0  0  0  0  0  2  0  0  0  0  0  0
  181.7610  178.1290  138.1090 N   0  0  0  0  0  2  0  0  0  0  0  0
  181.8580  176.9150  137.3090 C   0  0  0  0  0  2  0  0  0  0  0  0
  182.2510  175.7420  138.1920 C   0  0  0  0  0  2  0  0  0  0  0  0
  182.9540  173.6690  136.9620 C   0  0  0  0  0  0  0  0  0  0  0  0
  183.8350  173.0020  136.3530 O   0  0  0  0  0  0  0  0  0  0  0  0
  183.2770  174.9430  137.5400 N   0  0  0  0  0  0  0  0  0  0  0  0
  181.6650  173.1600  137.0580 O   0  0  0  0  0  1  0  0  0  0  0  0
  184.5890  175.5410  137.3390 C   0  0  0  0  0  2  0  0  0  0  0  0
  187.4600  173.9810  136.5060 O   0  0  0  0  0  1  0  0  0  0  0  0
  186.0920  177.2600  135.3160 C   0  0  1  0  0  3  0  0  0  0  0  0
  188.5490  176.1060  136.3890 C   0  0  0  0  0  2  0  0  0  0  0  0
  186.2120  175.7730  135.4970 C   0  0  2  0  0  3  0  0  0  0  0  0
  188.3720  177.6370  136.3270 C   0  0  1  0  0  3  0  0  0  0  0  0
  184.7520  177.1590  135.7410 O   0  0  0  0  0  0  0  0  0  0  0  0
  186.8970  178.0620  136.3400 C   0  0  0  0  0  2  0  0  0  0  0  0
  184.8070  175.8000  135.9130 N   0  0  0  0  0  0  0  0  0  0  0  0
  187.2340  175.3540  136.5790 C   0  0  1  0  0  3  0  0  0  0  0  0
  189.1320  178.3130  137.4670 C   0  0  2  0  0  3  0  0  0  0  0  0
  190.1890  177.5000  137.8850 O   0  0  0  0  0  1  0  0  0  0  0  0
  188.2410  178.5530  138.5910 N   0  0  0  0  0  2  0  0  0  0  0  0
  188.9260  178.1000  139.7890 C   0  0  0  0  0  2  0  0  0  0  0  0
  188.2210  178.6430  141.0120 C   0  0  0  0  0  1  0  0  0  0  0  0
  1  3  1  0  0  0  0
  2  3  2  0  0  0  0
  2 11  1  0  0  0  0
  4  5  1  0  0  0  0
  4  6  2  0  0  0  0
  5  1  2  0  0  0  0
  6  2  1  0  0  0  0
  7  9  1  0  0  0  0
  8  9  1  0  0  0  0
  9 13  1  1  0  0  0
 10  8  2  0  0  0  0
 11  8  1  0  0  0  0
 11  7  1  0  0  0  0
 13 12  1  6  0  0  0
 13 14  1  0  0  0  0
 14 15  1  0  0  0  0
 15 16  2  0  0  0  0
 19 15  1  6  0  0  0
 19 17  1  0  0  0  0
 20 18  1  1  0  0  0
 20 19  1  0  0  0  0
 20 17  1  0  0  0  0
 21 20  1  0  0  0  0
 22 25  1  0  0  0  0
 22 26  1  0  0  0  0
 23 21  1  1  0  0  0
 24 23  1  0  0  0  0
 25 24  1  0  0  0  0
 26 23  1  0  0  0  0
 27  5  1  0  0  0  0
 28 27  1  0  0  0  0
 28 29  1  0  0  0  0
 30 33  1  0  0  0  0
 30 32  1  0  0  0  0
 31 30  2  0  0  0  0
 32 29  1  0  0  0  0
 34 32  1  0  0  0  0
 36 38  1  0  0  0  0
 36 40  1  0  0  0  0
 36 41  1  1  0  0  0
 37 43  1  0  0  0  0
 38 42  1  1  0  0  0
 38 43  1  0  0  0  0
 39 41  1  0  0  0  0
 39 37  1  0  0  0  0
 39 44  1  1  0  0  0
 40 42  1  0  0  0  0
 42 34  1  0  0  0  0
 43 35  1  6  0  0  0
 44 45  1  1  0  0  0
 44 46  1  0  0  0  0
 46 47  1  0  0  0  0
 47 48  1  0  0  0  0
M  END
>  <MODEL>
8

>  <REMARK>
 VINA RESULT:      -7.5      2.025      3.947
  Name = 
  16 active torsions:
  status: ('A' for Active; 'I' for Inactive)
    1  A    between atoms: C_1  and  N_15
    2  A    between atoms: C_3  and  N_28
    3  A    between atoms: C_3  and  C_44
    4  A    between atoms: C_4  and  N_15
    5  A    between atoms: C_4  and  C_19
    6  A    between atoms: C_10  and  N_41
    7  A    between atoms: C_16  and  O_35
    8  A    between atoms: C_16  and  C_36
    9  A    between atoms: N_18  and  C_30
   10  A    between atoms: N_18  and  C_44
   11  A    between atoms: C_20  and  C_22
   12  A    between atoms: C_20  and  C_42
   13  A    between atoms: C_25  and  C_40
   14  A    between atoms: N_28  and  C_48
   15  A    between atoms: O_35  and  C_40
   16  A    between atoms: N_39  and  C_48
                            x       y       z     vdW  Elec       q    Type
                         _______ _______ _______ _____ _____    ______ ____

>  <TORSDO>
F 16

$$$$
=
 OpenBabel11062412043D

 48 53  0  0  1  0  0  0  0  0999 V2000
  184.7120  178.5410  142.0870 C   0  0  0  0  0  3  0  0  0  0  0  0
  185.0510  178.3460  144.4780 C   0  0  0  0  0  0  0  0  0  0  0  0
  185.5540  178.2930  143.1730 C   0  0  0  0  0  3  0  0  0  0  0  0
  182.8590  178.8980  143.6010 C   0  0  0  0  0  3  0  0  0  0  0  0
  183.3580  178.8420  142.2960 C   0  0  0  0  0  0  0  0  0  0  0  0
  183.7020  178.6510  144.6890 C   0  0  0  0  0  3  0  0  0  0  0  0
  186.7760  177.0020  145.9930 C   0  0  0  0  0  2  0  0  0  0  0  0
  186.3070  178.8150  146.8130 C   0  0  0  0  0  0  0  0  0  0  0  0
  187.1900  177.6690  147.1940 C   0  0  2  0  0  3  0  0  0  0  0  0
  186.0160  179.9270  147.3240 O   0  0  0  0  0  0  0  0  0  0  0  0
  185.9120  178.0920  145.5870 N   0  0  0  0  0  0  0  0  0  0  0  0
  189.2470  178.1150  148.3970 F   0  0  0  0  0  0  0  0  0  0  0  0
  188.6750  178.0350  147.1350 C   0  0  1  0  0  3  0  0  0  0  0  0
  189.3770  177.0830  146.3450 O   0  0  0  0  0  0  0  0  0  0  0  0
  190.7620  177.1280  146.1480 C   0  0  0  0  0  0  0  0  0  0  0  0
  191.4990  176.4020  146.8670 O   0  0  0  0  0  0  0  0  0  0  0  0
  190.3370  178.6600  144.2260 C   0  0  0  0  0  2  0  0  0  0  0  0
  192.2320  178.1000  142.8400 F   0  0  0  0  0  0  0  0  0  0  0  0
  191.3950  178.0640  145.1500 C   0  0  2  0  0  3  0  0  0  0  0  0
  191.2700  177.6020  143.6970 C   0  0  1  0  0  0  0  0  0  0  0  0
  190.5830  176.2800  143.3520 C   0  0  0  0  0  2  0  0  0  0  0  0
  188.4430  177.7640  140.8480 C   0  0  0  0  0  2  0  0  0  0  0  0
  189.8590  176.3620  142.0160 C   0  0  2  0  0  3  0  0  0  0  0  0
  190.7360  177.0570  141.0020 C   0  0  0  0  0  2  0  0  0  0  0  0
  189.8070  177.9520  140.2200 C   0  0  0  0  0  2  0  0  0  0  0  0
  188.6360  177.1400  142.1460 N   0  0  0  0  0  2  0  0  0  0  0  0
  182.4770  179.0960  141.1960 N   0  0  0  0  0  2  0  0  0  0  0  0
  182.7200  178.6090  139.8450 C   0  0  0  0  0  2  0  0  0  0  0  0
  182.8040  177.0910  139.8460 C   0  0  0  0  0  2  0  0  0  0  0  0
  181.7440  176.4920  137.6500 C   0  0  0  0  0  0  0  0  0  0  0  0
  181.8460  176.1060  136.4540 O   0  0  0  0  0  0  0  0  0  0  0  0
  182.9090  176.5930  138.4840 N   0  0  0  0  0  0  0  0  0  0  0  0
  180.4920  176.8270  138.1500 O   0  0  0  0  0  1  0  0  0  0  0  0
  184.2390  176.3620  137.9370 C   0  0  0  0  0  2  0  0  0  0  0  0
  184.9010  175.4430  134.7600 O   0  0  0  0  0  1  0  0  0  0  0  0
  186.6980  177.8830  136.9650 C   0  0  1  0  0  3  0  0  0  0  0  0
  187.2390  175.5970  135.2320 C   0  0  0  0  0  2  0  0  0  0  0  0
  185.6030  177.3060  136.1120 C   0  0  2  0  0  3  0  0  0  0  0  0
  188.3210  176.1080  136.2060 C   0  0  1  0  0  3  0  0  0  0  0  0
  185.7430  178.0740  137.9830 O   0  0  0  0  0  0  0  0  0  0  0  0
  187.7280  176.8450  137.4140 C   0  0  0  0  0  2  0  0  0  0  0  0
  184.7080  177.5650  137.2430 N   0  0  0  0  0  0  0  0  0  0  0  0
  185.8170  175.8200  135.7410 C   0  0  1  0  0  3  0  0  0  0  0  0
  189.2130  174.9580  136.6680 C   0  0  2  0  0  3  0  0  0  0  0  0
  188.4680  173.7790  136.7580 O   0  0  0  0  0  1  0  0  0  0  0  0
  189.7880  175.2590  137.9700 N   0  0  0  0  0  2  0  0  0  0  0  0
  191.2280  175.1200  137.8490 C   0  0  0  0  0  2  0  0  0  0  0  0
  191.8090  176.3740  137.2340 C   0  0  0  0  0  1  0  0  0  0  0  0
  1  5  2  0  0  0  0
  1  3  1  0  0  0  0
  2  6  1  0  0  0  0
  2 11  1  0  0  0  0
  3  2  2  0  0  0  0
  4  6  2  0  0  0  0
  5  4  1  0  0  0  0
  7  9  1  0  0  0  0
  8  9  1  0  0  0  0
  8 10  2  0  0  0  0
  9 13  1  6  0  0  0
 11  7  1  0  0  0  0
 11  8  1  0  0  0  0
 13 12  1  1  0  0  0
 14 13  1  0  0  0  0
 15 14  1  0  0  0  0
 15 16  2  0  0  0  0
 17 19  1  0  0  0  0
 19 15  1  1  0  0  0
 20 18  1  6  0  0  0
 20 17  1  0  0  0  0
 20 19  1  0  0  0  0
 21 20  1  0  0  0  0
 22 26  1  0  0  0  0
 23 26  1  0  0  0  0
 23 21  1  1  0  0  0
 24 23  1  0  0  0  0
 25 22  1  0  0  0  0
 25 24  1  0  0  0  0
 27  5  1  0  0  0  0
 28 29  1  0  0  0  0
 28 27  1  0  0  0  0
 30 33  1  0  0  0  0
 30 32  1  0  0  0  0
 31 30  2  0  0  0  0
 32 29  1  0  0  0  0
 34 32  1  0  0  0  0
 36 41  1  1  0  0  0
 36 40  1  0  0  0  0
 37 43  1  0  0  0  0
 37 39  1  0  0  0  0
 38 36  1  0  0  0  0
 38 42  1  1  0  0  0
 39 44  1  1  0  0  0
 39 41  1  0  0  0  0
 42 34  1  0  0  0  0
 42 40  1  0  0  0  0
 43 35  1  6  0  0  0
 43 38  1  0  0  0  0
 44 45  1  1  0  0  0
 44 46  1  0  0  0  0
 47 46  1  0  0  0  0
 48 47  1  0  0  0  0
M  END
>  <MODEL>
9

>  <REMARK>
 VINA RESULT:      -7.2      1.532      2.326
  Name = 
  16 active torsions:
  status: ('A' for Active; 'I' for Inactive)
    1  A    between atoms: C_1  and  N_15
    2  A    between atoms: C_3  and  N_28
    3  A    between atoms: C_3  and  C_44
    4  A    between atoms: C_4  and  N_15
    5  A    between atoms: C_4  and  C_19
    6  A    between atoms: C_10  and  N_41
    7  A    between atoms: C_16  and  O_35
    8  A    between atoms: C_16  and  C_36
    9  A    between atoms: N_18  and  C_30
   10  A    between atoms: N_18  and  C_44
   11  A    between atoms: C_20  and  C_22
   12  A    between atoms: C_20  and  C_42
   13  A    between atoms: C_25  and  C_40
   14  A    between atoms: N_28  and  C_48
   15  A    between atoms: O_35  and  C_40
   16  A    between atoms: N_39  and  C_48
                            x       y       z     vdW  Elec       q    Type
                         _______ _______ _______ _____ _____    ______ ____

>  <TORSDO>
F 16

$$$$
