=
 OpenBabel11062416283D

 46 49  0  0  1  0  0  0  0  0999 V2000
  191.1650  177.7690  143.2890 N   0  0  0  0  0  2  0  0  0  0  0  0
  191.1500  176.7860  145.3390 N   0  0  0  0  0  2  0  0  0  0  0  0
  191.7290  176.7310  144.0590 N   0  0  0  0  0  2  0  0  0  0  0  0
  189.8050  177.2730  145.1350 C   0  0  2  0  0  3  0  0  0  0  0  0
  189.8700  178.0650  143.8720 C   0  0  2  0  0  3  0  0  0  0  0  0
  189.3850  178.1640  146.2910 C   0  0  0  0  0  1  0  0  0  0  0  0
  188.2540  177.4060  147.2300 C   0  0  0  0  0  1  0  0  0  0  0  0
  187.9730  177.8380  146.7750 O   0  0  0  0  0  0  0  0  0  0  0  0
  186.8080  177.5060  146.6710 C   0  0  0  0  0  2  0  0  0  0  0  0
  185.8380  178.6390  146.6920 C   0  0  0  0  0  2  0  0  0  0  0  0
  185.4860  179.0220  145.3320 N   0  0  0  0  0  2  0  0  0  0  0  0
  185.8390  178.2630  144.1710 C   0  0  0  0  0  3  0  0  0  0  0  0
  185.1090  178.1790  143.0500 C   0  0  0  0  0  3  0  0  0  0  0  0
  183.7420  178.6920  142.8180 C   0  0  0  0  0  0  0  0  0  0  0  0
  183.1210  178.4460  141.6610 C   0  0  0  0  0  3  0  0  0  0  0  0
  184.2310  178.4340  138.1100 O   0  0  0  0  0  0  0  0  0  0  0  0
  184.8730  179.7810  139.8510 O   0  0  0  0  0  0  0  0  0  0  0  0
  183.4150  177.3810  137.6040 C   0  0  0  0  0  2  0  0  0  0  0  0
  183.3880  176.2510  138.5370 N   0  0  0  0  0  2  0  0  0  0  0  0
  184.2820  178.7350  139.4730 C   0  0  0  0  0  0  0  0  0  0  0  0
  183.7560  177.7550  140.4840 C   0  0  2  0  0  3  0  0  0  0  0  0
  182.8480  176.6900  139.8290 C   0  0  1  0  0  3  0  0  0  0  0  0
  181.3920  177.0560  139.7310 C   0  0  0  0  0  0  0  0  0  0  0  0
  180.9950  178.3860  139.6490 O   0  0  0  0  0  0  0  0  0  0  0  0
  180.5240  176.1460  139.7090 O   0  0  0  0  0  1  0  0  0  0  0  0
  181.4800  178.8430  143.8690 C   0  0  0  0  0  1  0  0  0  0  0  0
  182.9390  179.2670  143.9470 C   0  0  0  0  0  2  0  0  0  0  0  0
  188.8430  177.6480  143.0040 O   0  0  0  0  0  0  0  0  0  0  0  0
  188.0800  178.6290  140.9530 N   0  0  0  0  0  2  0  0  0  0  0  0
  189.1440  176.7380  140.7140 C   0  0  1  0  0  3  0  0  0  0  0  0
  189.1670  177.9420  141.6510 C   0  0  2  0  0  3  0  0  0  0  0  0
  188.0210  177.5130  140.0080 C   0  0  2  0  0  3  0  0  0  0  0  0
  189.1660  178.9920  136.8320 C   0  0  0  0  0  3  0  0  0  0  0  0
  189.1850  178.9840  138.2210 C   0  0  0  0  0  3  0  0  0  0  0  0
  188.3350  178.0330  136.3800 N   0  0  0  0  0  0  0  0  0  0  0  0
  187.8170  177.4030  137.4550 C   0  0  0  0  0  0  0  0  0  0  0  0
  188.0940  177.7610  134.9720 C   0  0  0  0  0  1  0  0  0  0  0  0
  188.3140  177.9740  138.6030 C   0  0  0  0  0  0  0  0  0  0  0  0
  187.2930  174.9970  137.0990 C   0  0  0  0  0  1  0  0  0  0  0  0
  186.9240  176.3240  137.4400 O   0  0  0  0  0  0  0  0  0  0  0  0
  192.6920  177.1660  139.3800 C   0  0  0  0  0  2  0  0  0  0  0  0
  191.4420  177.3570  140.1180 N   0  0  0  0  0  0  0  0  0  0  0  0
  190.4170  176.5760  139.9210 C   0  0  0  0  0  0  0  0  0  0  0  0
  190.4650  175.5820  138.8840 N   0  0  0  0  0  0  0  0  0  0  0  0
  192.4040  176.7150  137.9480 C   0  0  0  0  0  2  0  0  0  0  0  0
  191.3960  175.6030  137.9750 C   0  0  0  0  0  3  0  0  0  0  0  0
  1  5  1  0  0  0  0
  1  3  1  0  0  0  0
  3  2  1  0  0  0  0
  4  2  1  0  0  0  0
  4  6  1  1  0  0  0
  5 28  1  6  0  0  0
  5  4  1  0  0  0  0
  8  7  1  0  0  0  0
  9 10  1  0  0  0  0
  9  8  1  0  0  0  0
 11 10  1  0  0  0  0
 12 11  1  0  0  0  0
 13 12  2  0  0  0  0
 14 13  1  0  0  0  0
 14 27  1  0  0  0  0
 15 14  2  0  0  0  0
 16 20  1  0  0  0  0
 18 16  1  0  0  0  0
 18 19  1  0  0  0  0
 19 22  1  0  0  0  0
 20 17  2  0  0  0  0
 20 21  1  0  0  0  0
 21 15  1  1  0  0  0
 22 23  1  6  0  0  0
 22 21  1  0  0  0  0
 24 23  2  0  0  0  0
 25 23  1  0  0  0  0
 26 27  1  0  0  0  0
 29 31  1  0  0  0  0
 30 43  1  6  0  0  0
 30 31  1  0  0  0  0
 31 28  1  1  0  0  0
 32 38  1  6  0  0  0
 32 30  1  0  0  0  0
 32 29  1  0  0  0  0
 33 34  2  0  0  0  0
 34 38  1  0  0  0  0
 35 33  1  0  0  0  0
 35 36  1  0  0  0  0
 36 38  2  0  0  0  0
 37 35  1  0  0  0  0
 39 40  1  0  0  0  0
 40 36  1  0  0  0  0
 41 42  1  0  0  0  0
 43 42  2  0  0  0  0
 44 43  1  0  0  0  0
 45 46  1  0  0  0  0
 45 41  1  0  0  0  0
 46 44  2  0  0  0  0
M  END
>  <MODEL>
1

>  <REMARK>
 VINA RESULT:      -8.3      0.000      0.000
  Name = 
  15 active torsions:
  status: ('A' for Active; 'I' for Inactive)
    1  A    between atoms: C_1  and  CA_43
    2  A    between atoms: C_4  and  C_31
    3  A    between atoms: N_5  and  C_17
    4  A    between atoms: N_5  and  C_18
    5  A    between atoms: C_8  and  C_34
    6  A    between atoms: C_8  and  C_35
    7  A    between atoms: C_15  and  C_27
    8  A    between atoms: C_17  and  C_45
    9  A    between atoms: C_20  and  O_29
   10  A    between atoms: C_27  and  C_41
   11  A    between atoms: C_32  and  C_42
   12  A    between atoms: C_33  and  C_39
   13  A    between atoms: C_34  and  C_45
   14  A    between atoms: C_36  and  O_40
   15  A    between atoms: C_37  and  O_40
                            x       y       z     vdW  Elec       q    Type
                         _______ _______ _______ _____ _____    ______ ____

>  <TORSDO>
F 15

$$$$
=
 OpenBabel11062416283D

 46 50  0  0  1  0  0  0  0  0999 V2000
  187.4510  175.2800  135.3590 N   0  0  0  0  0  2  0  0  0  0  0  0
  189.3120  175.3820  136.6620 N   0  0  0  0  0  2  0  0  0  0  0  0
  188.7220  174.7080  135.5770 N   0  0  0  0  0  2  0  0  0  0  0  0
  188.2170  175.7620  137.5240 C   0  0  2  0  0  3  0  0  0  0  0  0
  187.0330  175.8620  136.6210 C   0  0  2  0  0  3  0  0  0  0  0  0
  188.4960  177.1070  138.1710 C   0  0  0  0  0  2  0  0  0  0  0  0
  190.0210  177.1400  138.8090 C   0  0  0  0  0  2  0  0  0  0  0  0
  189.9900  177.5760  139.3400 O   0  0  0  0  0  0  0  0  0  0  0  0
  190.0640  176.8930  140.3430 C   0  0  0  0  0  2  0  0  0  0  0  0
  190.9950  177.4170  141.3830 C   0  0  0  0  0  2  0  0  0  0  0  0
  190.6190  176.9060  142.6940 N   0  0  0  0  0  2  0  0  0  0  0  0
  189.6070  175.9170  142.9070 C   0  0  0  0  0  3  0  0  0  0  0  0
  188.4630  176.1110  143.5780 C   0  0  0  0  0  3  0  0  0  0  0  0
  188.0670  177.2960  144.3700 C   0  0  0  0  0  0  0  0  0  0  0  0
  187.0280  178.0430  143.9860 C   0  0  0  0  0  3  0  0  0  0  0  0
  185.8230  179.2690  140.6870 O   0  0  0  0  0  0  0  0  0  0  0  0
  187.9620  178.9750  141.4600 O   0  0  0  0  0  0  0  0  0  0  0  0
  184.4170  179.2250  140.9110 C   0  0  0  0  0  2  0  0  0  0  0  0
  184.0380  177.9870  141.5980 N   0  0  0  0  0  2  0  0  0  0  0  0
  186.7320  178.7560  141.6150 C   0  0  0  0  0  0  0  0  0  0  0  0
  186.2590  177.8380  142.7080 C   0  0  2  0  0  3  0  0  0  0  0  0
  184.7260  177.9100  142.8910 C   0  0  1  0  0  3  0  0  0  0  0  0
  184.2400  178.9650  143.8470 C   0  0  0  0  0  0  0  0  0  0  0  0
  183.2330  178.6850  144.7660 O   0  0  0  0  0  1  0  0  0  0  0  0
  184.7600  180.1100  143.8250 O   0  0  0  0  0  0  0  0  0  0  0  0
  187.5900  178.0110  146.7160 C   0  0  0  0  0  1  0  0  0  0  0  0
  188.6470  177.5320  145.7330 C   0  0  0  0  0  2  0  0  0  0  0  0
  185.9650  175.1220  137.1620 O   0  0  0  0  0  0  0  0  0  0  0  0
  184.7580  177.1290  136.6470 N   0  0  0  0  0  2  0  0  0  0  0  0
  183.6600  175.6990  137.8790 C   0  0  1  0  0  3  0  0  0  0  0  0
  184.7120  175.6720  136.7750 C   0  0  2  0  0  3  0  0  0  0  0  0
  183.7340  177.2220  137.6890 C   0  0  2  0  0  3  0  0  0  0  0  0
  180.8420  178.6060  135.8710 C   0  0  0  0  0  3  0  0  0  0  0  0
  182.0720  177.9610  135.8440 C   0  0  0  0  0  3  0  0  0  0  0  0
  180.5100  178.9060  137.1410 N   0  0  0  0  0  0  0  0  0  0  0  0
  181.5040  178.4630  137.9370 C   0  0  0  0  0  0  0  0  0  0  0  0
  179.2760  179.5720  137.5250 C   0  0  0  0  0  1  0  0  0  0  0  0
  182.4860  177.8870  137.1660 C   0  0  0  0  0  0  0  0  0  0  0  0
  180.6580  177.8710  140.2010 C   0  0  0  0  0  1  0  0  0  0  0  0
  181.5550  178.5480  139.3350 O   0  0  0  0  0  0  0  0  0  0  0  0
  180.0860  174.3660  137.9090 C   0  0  0  0  0  2  0  0  0  0  0  0
  181.3670  174.9450  138.3180 N   0  0  0  0  0  0  0  0  0  0  0  0
  182.3550  175.0580  137.4750 C   0  0  0  0  0  0  0  0  0  0  0  0
  182.2350  174.5040  136.1550 N   0  0  0  0  0  0  0  0  0  0  0  0
  180.3080  173.2280  136.9130 C   0  0  0  0  0  2  0  0  0  0  0  0
  181.2750  173.6790  135.8570 C   0  0  0  0  0  3  0  0  0  0  0  0
  1  3  1  0  0  0  0
  1  5  1  0  0  0  0
  2  4  1  0  0  0  0
  3  2  1  0  0  0  0
  4  6  1  6  0  0  0
  5 28  1  1  0  0  0
  5  4  1  0  0  0  0
  6  7  1  0  0  0  0
  7  8  1  0  0  0  0
  8  9  1  0  0  0  0
  9 10  1  0  0  0  0
 10 11  1  0  0  0  0
 11 12  1  0  0  0  0
 12 13  2  0  0  0  0
 13 14  1  0  0  0  0
 14 27  1  0  0  0  0
 15 14  2  0  0  0  0
 16 18  1  0  0  0  0
 16 20  1  0  0  0  0
 17 20  2  0  0  0  0
 18 19  1  0  0  0  0
 19 22  1  0  0  0  0
 20 21  1  0  0  0  0
 21 22  1  0  0  0  0
 21 15  1  1  0  0  0
 22 23  1  1  0  0  0
 23 24  1  0  0  0  0
 25 23  2  0  0  0  0
 27 26  1  0  0  0  0
 29 31  1  0  0  0  0
 29 32  1  0  0  0  0
 30 43  1  6  0  0  0
 31 28  1  1  0  0  0
 31 30  1  0  0  0  0
 32 38  1  6  0  0  0
 32 30  1  0  0  0  0
 33 35  1  0  0  0  0
 34 33  2  0  0  0  0
 34 38  1  0  0  0  0
 35 37  1  0  0  0  0
 35 36  1  0  0  0  0
 36 40  1  0  0  0  0
 38 36  2  0  0  0  0
 40 39  1  0  0  0  0
 41 42  1  0  0  0  0
 43 42  2  0  0  0  0
 44 43  1  0  0  0  0
 45 41  1  0  0  0  0
 46 44  2  0  0  0  0
 46 45  1  0  0  0  0
M  END
>  <MODEL>
2

>  <REMARK>
 VINA RESULT:      -7.2      2.547      7.272
  Name = 
  15 active torsions:
  status: ('A' for Active; 'I' for Inactive)
    1  A    between atoms: C_1  and  CA_43
    2  A    between atoms: C_4  and  C_31
    3  A    between atoms: N_5  and  C_17
    4  A    between atoms: N_5  and  C_18
    5  A    between atoms: C_8  and  C_34
    6  A    between atoms: C_8  and  C_35
    7  A    between atoms: C_15  and  C_27
    8  A    between atoms: C_17  and  C_45
    9  A    between atoms: C_20  and  O_29
   10  A    between atoms: C_27  and  C_41
   11  A    between atoms: C_32  and  C_42
   12  A    between atoms: C_33  and  C_39
   13  A    between atoms: C_34  and  C_45
   14  A    between atoms: C_36  and  O_40
   15  A    between atoms: C_37  and  O_40
                            x       y       z     vdW  Elec       q    Type
                         _______ _______ _______ _____ _____    ______ ____

>  <TORSDO>
F 15

$$$$
=
 OpenBabel11062416283D

 46 50  0  0  1  0  0  0  0  0999 V2000
  186.7960  178.8340  137.2210 N   0  0  0  0  0  2  0  0  0  0  0  0
  189.0280  178.7160  137.6370 N   0  0  0  0  0  2  0  0  0  0  0  0
  188.0390  179.4430  136.9510 N   0  0  0  0  0  2  0  0  0  0  0  0
  188.5600  177.3500  137.6590 C   0  0  2  0  0  3  0  0  0  0  0  0
  187.0740  177.4510  137.5610 C   0  0  2  0  0  3  0  0  0  0  0  0
  188.9530  176.6780  138.9630 C   0  0  0  0  0  2  0  0  0  0  0  0
  190.5970  176.6780  139.1450 C   0  0  0  0  0  2  0  0  0  0  0  0
  191.2310  176.8210  139.3690 O   0  0  0  0  0  0  0  0  0  0  0  0
  191.0900  177.4760  140.3830 C   0  0  0  0  0  2  0  0  0  0  0  0
  191.9700  177.0630  141.5140 C   0  0  0  0  0  2  0  0  0  0  0  0
  191.1920  176.9600  142.7410 N   0  0  0  0  0  2  0  0  0  0  0  0
  190.1350  176.0160  142.9400 C   0  0  0  0  0  3  0  0  0  0  0  0
  188.9990  176.2570  143.6090 C   0  0  0  0  0  3  0  0  0  0  0  0
  188.6550  177.4500  144.4120 C   0  0  0  0  0  0  0  0  0  0  0  0
  187.5390  178.1370  144.1490 C   0  0  0  0  0  3  0  0  0  0  0  0
  185.9630  179.1330  140.9300 O   0  0  0  0  0  0  0  0  0  0  0  0
  188.1750  178.8470  141.4630 O   0  0  0  0  0  0  0  0  0  0  0  0
  184.5930  179.1420  141.3220 C   0  0  0  0  0  2  0  0  0  0  0  0
  184.2810  177.9710  142.1470 N   0  0  0  0  0  2  0  0  0  0  0  0
  186.9690  178.6710  141.7810 C   0  0  0  0  0  0  0  0  0  0  0  0
  186.6170  177.8530  142.9920 C   0  0  2  0  0  3  0  0  0  0  0  0
  185.1200  177.9770  143.3500 C   0  0  1  0  0  3  0  0  0  0  0  0
  184.7690  179.1150  144.2700 C   0  0  0  0  0  0  0  0  0  0  0  0
  184.4710  178.8840  145.6090 O   0  0  0  0  0  1  0  0  0  0  0  0
  184.7590  180.2910  143.8260 O   0  0  0  0  0  0  0  0  0  0  0  0
  188.7430  177.1100  146.8860 C   0  0  0  0  0  1  0  0  0  0  0  0
  189.3980  177.7610  145.6760 C   0  0  0  0  0  2  0  0  0  0  0  0
  186.6120  176.6010  136.5380 O   0  0  0  0  0  0  0  0  0  0  0  0
  185.0600  174.8330  136.0750 N   0  0  0  0  0  2  0  0  0  0  0  0
  184.1400  176.7850  136.4090 C   0  0  1  0  0  3  0  0  0  0  0  0
  185.3660  176.0120  136.8860 C   0  0  2  0  0  3  0  0  0  0  0  0
  183.8570  175.5140  135.5940 C   0  0  2  0  0  3  0  0  0  0  0  0
  180.5270  174.0260  136.1310 C   0  0  0  0  0  3  0  0  0  0  0  0
  181.3080  175.0510  135.6110 C   0  0  0  0  0  3  0  0  0  0  0  0
  181.3090  173.1330  136.7670 N   0  0  0  0  0  0  0  0  0  0  0  0
  182.5840  173.5630  136.6660 C   0  0  0  0  0  0  0  0  0  0  0  0
  180.8120  171.9300  137.4140 C   0  0  0  0  0  1  0  0  0  0  0  0
  182.6130  174.7480  135.9690 C   0  0  0  0  0  0  0  0  0  0  0  0
  184.1240  171.6130  136.7900 C   0  0  0  0  0  1  0  0  0  0  0  0
  183.7230  172.9210  137.1670 O   0  0  0  0  0  0  0  0  0  0  0  0
  182.1980  176.6840  139.6910 C   0  0  0  0  0  2  0  0  0  0  0  0
  183.1230  176.3640  138.6020 N   0  0  0  0  0  0  0  0  0  0  0  0
  183.1550  177.0800  137.5120 C   0  0  0  0  0  0  0  0  0  0  0  0
  182.1930  178.1300  137.3190 N   0  0  0  0  0  0  0  0  0  0  0  0
  180.8690  177.1910  139.1310 C   0  0  0  0  0  2  0  0  0  0  0  0
  181.1400  178.2250  138.0780 C   0  0  0  0  0  3  0  0  0  0  0  0
  1  5  1  0  0  0  0
  2  4  1  0  0  0  0
  3  1  1  0  0  0  0
  3  2  1  0  0  0  0
  4  6  1  1  0  0  0
  5 28  1  6  0  0  0
  5  4  1  0  0  0  0
  6  7  1  0  0  0  0
  7  8  1  0  0  0  0
  8  9  1  0  0  0  0
  9 10  1  0  0  0  0
 10 11  1  0  0  0  0
 11 12  1  0  0  0  0
 12 13  2  0  0  0  0
 13 14  1  0  0  0  0
 14 27  1  0  0  0  0
 15 14  2  0  0  0  0
 16 18  1  0  0  0  0
 16 20  1  0  0  0  0
 17 20  2  0  0  0  0
 18 19  1  0  0  0  0
 19 22  1  0  0  0  0
 20 21  1  0  0  0  0
 21 22  1  0  0  0  0
 21 15  1  1  0  0  0
 22 23  1  6  0  0  0
 23 24  1  0  0  0  0
 25 23  2  0  0  0  0
 27 26  1  0  0  0  0
 29 31  1  0  0  0  0
 30 31  1  0  0  0  0
 30 43  1  1  0  0  0
 31 28  1  6  0  0  0
 32 38  1  1  0  0  0
 32 29  1  0  0  0  0
 32 30  1  0  0  0  0
 33 35  1  0  0  0  0
 34 38  1  0  0  0  0
 34 33  2  0  0  0  0
 35 37  1  0  0  0  0
 36 35  1  0  0  0  0
 36 40  1  0  0  0  0
 38 36  2  0  0  0  0
 39 40  1  0  0  0  0
 42 41  1  0  0  0  0
 43 42  2  0  0  0  0
 44 43  1  0  0  0  0
 44 46  2  0  0  0  0
 45 41  1  0  0  0  0
 46 45  1  0  0  0  0
M  END
>  <MODEL>
3

>  <REMARK>
 VINA RESULT:      -7.1      2.599      7.208
  Name = 
  15 active torsions:
  status: ('A' for Active; 'I' for Inactive)
    1  A    between atoms: C_1  and  CA_43
    2  A    between atoms: C_4  and  C_31
    3  A    between atoms: N_5  and  C_17
    4  A    between atoms: N_5  and  C_18
    5  A    between atoms: C_8  and  C_34
    6  A    between atoms: C_8  and  C_35
    7  A    between atoms: C_15  and  C_27
    8  A    between atoms: C_17  and  C_45
    9  A    between atoms: C_20  and  O_29
   10  A    between atoms: C_27  and  C_41
   11  A    between atoms: C_32  and  C_42
   12  A    between atoms: C_33  and  C_39
   13  A    between atoms: C_34  and  C_45
   14  A    between atoms: C_36  and  O_40
   15  A    between atoms: C_37  and  O_40
                            x       y       z     vdW  Elec       q    Type
                         _______ _______ _______ _____ _____    ______ ____

>  <TORSDO>
F 15

$$$$
=
 OpenBabel11062416283D

 46 50  0  0  1  0  0  0  0  0999 V2000
  182.2460  176.4020  136.8620 N   0  0  0  0  0  2  0  0  0  0  0  0
  180.4950  177.2860  138.0130 N   0  0  0  0  0  2  0  0  0  0  0  0
  180.9160  176.8550  136.7420 N   0  0  0  0  0  2  0  0  0  0  0  0
  181.6810  177.8020  138.6580 C   0  0  2  0  0  3  0  0  0  0  0  0
  182.8160  177.0810  138.0110 C   0  0  2  0  0  3  0  0  0  0  0  0
  181.6470  177.4970  140.1450 C   0  0  0  0  0  2  0  0  0  0  0  0
  181.5130  178.8910  141.0230 C   0  0  0  0  0  2  0  0  0  0  0  0
  181.7300  178.4620  141.5140 O   0  0  0  0  0  0  0  0  0  0  0  0
  182.6070  179.0520  142.1150 C   0  0  0  0  0  2  0  0  0  0  0  0
  182.5160  178.9520  143.6000 C   0  0  0  0  0  2  0  0  0  0  0  0
  183.8150  178.6000  144.1580 N   0  0  0  0  0  2  0  0  0  0  0  0
  185.0600  179.0970  143.6590 C   0  0  0  0  0  3  0  0  0  0  0  0
  186.2710  178.7560  144.1220 C   0  0  0  0  0  3  0  0  0  0  0  0
  186.5890  177.9500  145.3200 C   0  0  0  0  0  0  0  0  0  0  0  0
  187.8070  177.4210  145.4690 C   0  0  0  0  0  3  0  0  0  0  0  0
  190.1220  175.7640  143.0740 O   0  0  0  0  0  0  0  0  0  0  0  0
  187.8300  175.7680  143.1470 O   0  0  0  0  0  0  0  0  0  0  0  0
  191.3720  176.1520  143.6360 C   0  0  0  0  0  2  0  0  0  0  0  0
  191.3500  177.5640  144.0280 N   0  0  0  0  0  2  0  0  0  0  0  0
  188.9110  176.2710  143.5520 C   0  0  0  0  0  0  0  0  0  0  0  0
  188.8970  177.4890  144.4320 C   0  0  2  0  0  3  0  0  0  0  0  0
  190.2940  177.7840  145.0220 C   0  0  1  0  0  3  0  0  0  0  0  0
  190.6010  177.0990  146.3260 C   0  0  0  0  0  0  0  0  0  0  0  0
  191.8940  177.0880  146.8380 O   0  0  0  0  0  0  0  0  0  0  0  0
  189.6740  176.5410  146.9660 O   0  0  0  0  0  1  0  0  0  0  0  0
  186.1040  178.8730  147.5910 C   0  0  0  0  0  1  0  0  0  0  0  0
  185.6540  177.9210  146.4920 C   0  0  0  0  0  2  0  0  0  0  0  0
  183.7840  178.0130  137.5890 O   0  0  0  0  0  0  0  0  0  0  0  0
  186.0220  178.4580  138.3260 N   0  0  0  0  0  2  0  0  0  0  0  0
  185.8870  177.3720  136.4370 C   0  0  1  0  0  3  0  0  0  0  0  0
  185.0970  177.4890  137.7370 C   0  0  2  0  0  3  0  0  0  0  0  0
  186.8340  178.3750  137.1110 C   0  0  2  0  0  3  0  0  0  0  0  0
  190.3530  177.2920  137.2840 C   0  0  0  0  0  3  0  0  0  0  0  0
  189.2670  177.7070  136.5230 C   0  0  0  0  0  3  0  0  0  0  0  0
  190.0010  177.2170  138.5810 N   0  0  0  0  0  0  0  0  0  0  0  0
  188.7050  177.5780  138.6730 C   0  0  0  0  0  0  0  0  0  0  0  0
  190.9070  176.8270  139.6500 C   0  0  0  0  0  1  0  0  0  0  0  0
  188.2220  177.8740  137.4200 C   0  0  0  0  0  0  0  0  0  0  0  0
  188.1680  178.6210  140.8670 C   0  0  0  0  0  1  0  0  0  0  0  0
  187.9430  177.6620  139.8460 O   0  0  0  0  0  0  0  0  0  0  0  0
  187.5620  174.3330  134.8520 C   0  0  0  0  0  2  0  0  0  0  0  0
  186.9660  175.6540  135.0560 N   0  0  0  0  0  0  0  0  0  0  0  0
  186.4580  175.9940  136.2080 C   0  0  0  0  0  0  0  0  0  0  0  0
  186.3730  175.0250  137.2650 N   0  0  0  0  0  0  0  0  0  0  0  0
  186.7870  173.2710  135.6310 C   0  0  0  0  0  2  0  0  0  0  0  0
  186.5550  173.7580  137.0320 C   0  0  0  0  0  3  0  0  0  0  0  0
  1  5  1  0  0  0  0
  2  4  1  0  0  0  0
  3  1  1  0  0  0  0
  3  2  1  0  0  0  0
  4  6  1  1  0  0  0
  5 28  1  6  0  0  0
  5  4  1  0  0  0  0
  6  7  1  0  0  0  0
  7  8  1  0  0  0  0
  8  9  1  0  0  0  0
  9 10  1  0  0  0  0
 10 11  1  0  0  0  0
 12 13  2  0  0  0  0
 12 11  1  0  0  0  0
 13 14  1  0  0  0  0
 14 15  2  0  0  0  0
 14 27  1  0  0  0  0
 16 20  1  0  0  0  0
 16 18  1  0  0  0  0
 17 20  2  0  0  0  0
 18 19  1  0  0  0  0
 19 22  1  0  0  0  0
 20 21  1  0  0  0  0
 21 22  1  0  0  0  0
 21 15  1  1  0  0  0
 22 23  1  1  0  0  0
 23 24  2  0  0  0  0
 23 25  1  0  0  0  0
 27 26  1  0  0  0  0
 30 43  1  1  0  0  0
 30 32  1  0  0  0  0
 30 31  1  0  0  0  0
 31 28  1  6  0  0  0
 31 29  1  0  0  0  0
 32 38  1  1  0  0  0
 32 29  1  0  0  0  0
 33 35  1  0  0  0  0
 34 33  2  0  0  0  0
 34 38  1  0  0  0  0
 35 36  1  0  0  0  0
 35 37  1  0  0  0  0
 36 40  1  0  0  0  0
 38 36  2  0  0  0  0
 40 39  1  0  0  0  0
 41 42  1  0  0  0  0
 41 45  1  0  0  0  0
 42 43  2  0  0  0  0
 43 44  1  0  0  0  0
 45 46  1  0  0  0  0
 46 44  2  0  0  0  0
M  END
>  <MODEL>
4

>  <REMARK>
 VINA RESULT:      -7.1      1.918      7.283
  Name = 
  15 active torsions:
  status: ('A' for Active; 'I' for Inactive)
    1  A    between atoms: C_1  and  CA_43
    2  A    between atoms: C_4  and  C_31
    3  A    between atoms: N_5  and  C_17
    4  A    between atoms: N_5  and  C_18
    5  A    between atoms: C_8  and  C_34
    6  A    between atoms: C_8  and  C_35
    7  A    between atoms: C_15  and  C_27
    8  A    between atoms: C_17  and  C_45
    9  A    between atoms: C_20  and  O_29
   10  A    between atoms: C_27  and  C_41
   11  A    between atoms: C_32  and  C_42
   12  A    between atoms: C_33  and  C_39
   13  A    between atoms: C_34  and  C_45
   14  A    between atoms: C_36  and  O_40
   15  A    between atoms: C_37  and  O_40
                            x       y       z     vdW  Elec       q    Type
                         _______ _______ _______ _____ _____    ______ ____

>  <TORSDO>
F 15

$$$$
=
 OpenBabel11062416283D

 46 50  0  0  1  0  0  0  0  0999 V2000
  189.3490  176.1950  134.9040 N   0  0  0  0  0  2  0  0  0  0  0  0
  189.9030  174.1970  135.8380 N   0  0  0  0  0  2  0  0  0  0  0  0
  189.2760  174.7970  134.7310 N   0  0  0  0  0  2  0  0  0  0  0  0
  189.6620  175.0880  136.9490 C   0  0  2  0  0  3  0  0  0  0  0  0
  189.4740  176.4330  136.3310 C   0  0  2  0  0  3  0  0  0  0  0  0
  190.8610  175.1040  137.8810 C   0  0  0  0  0  2  0  0  0  0  0  0
  191.1390  176.6330  138.4470 C   0  0  0  0  0  2  0  0  0  0  0  0
  191.1890  177.1770  138.8630 O   0  0  0  0  0  0  0  0  0  0  0  0
  190.6200  176.8700  139.8920 C   0  0  0  0  0  2  0  0  0  0  0  0
  191.3550  177.2310  141.1380 C   0  0  0  0  0  2  0  0  0  0  0  0
  190.4480  177.2130  142.2780 N   0  0  0  0  0  0  0  0  0  0  0  0
  189.5800  176.1190  142.5910 C   0  0  0  0  0  3  0  0  0  0  0  0
  188.5000  176.1900  143.3810 C   0  0  0  0  0  2  0  0  0  0  0  0
  188.0620  177.3280  144.2180 C   0  0  0  0  0  0  0  0  0  0  0  0
  186.9860  178.0410  143.8720 C   0  0  0  0  0  3  0  0  0  0  0  0
  185.7620  179.2930  140.5890 O   0  0  0  0  0  0  0  0  0  0  0  0
  187.9060  178.9970  141.3490 O   0  0  0  0  0  0  0  0  0  0  0  0
  184.3570  179.2440  140.8190 C   0  0  0  0  0  2  0  0  0  0  0  0
  183.9850  178.0000  141.4980 N   0  0  0  0  0  2  0  0  0  0  0  0
  186.6770  178.7740  141.5080 C   0  0  0  0  0  0  0  0  0  0  0  0
  186.2110  177.8460  142.5950 C   0  0  2  0  0  3  0  0  0  0  0  0
  184.6800  177.9120  142.7870 C   0  0  1  0  0  3  0  0  0  0  0  0
  184.1950  178.9580  143.7550 C   0  0  0  0  0  0  0  0  0  0  0  0
  183.1840  178.6730  144.6650 O   0  0  0  0  0  1  0  0  0  0  0  0
  184.7230  180.1000  143.7490 O   0  0  0  0  0  0  0  0  0  0  0  0
  187.5660  177.6440  146.6470 C   0  0  0  0  0  1  0  0  0  0  0  0
  188.6480  177.5440  145.5820 C   0  0  0  0  0  2  0  0  0  0  0  0
  188.2930  177.0170  136.8260 O   0  0  0  0  0  0  0  0  0  0  0  0
  186.1300  177.3660  135.8520 N   0  0  0  0  0  2  0  0  0  0  0  0
  186.2240  175.7240  137.2870 C   0  0  1  0  0  3  0  0  0  0  0  0
  187.1420  176.3950  136.2690 C   0  0  2  0  0  3  0  0  0  0  0  0
  185.1950  176.7530  136.7970 C   0  0  2  0  0  3  0  0  0  0  0  0
  182.6320  175.2830  134.5940 C   0  0  0  0  0  3  0  0  0  0  0  0
  183.9230  175.7660  134.7670 C   0  0  0  0  0  3  0  0  0  0  0  0
  181.9400  175.4000  135.7430 N   0  0  0  0  0  0  0  0  0  0  0  0
  182.7640  175.9510  136.6590 C   0  0  0  0  0  0  0  0  0  0  0  0
  180.5600  174.9750  135.9110 C   0  0  0  0  0  1  0  0  0  0  0  0
  183.9880  176.1980  136.0840 C   0  0  0  0  0  0  0  0  0  0  0  0
  181.6270  177.3000  138.4130 C   0  0  0  0  0  1  0  0  0  0  0  0
  182.4570  176.2270  137.9970 O   0  0  0  0  0  0  0  0  0  0  0  0
  186.1460  172.3060  135.5950 C   0  0  0  0  0  2  0  0  0  0  0  0
  186.4110  173.7150  135.8910 N   0  0  0  0  0  0  0  0  0  0  0  0
  185.9140  174.2860  136.9520 C   0  0  0  0  0  0  0  0  0  0  0  0
  184.9960  173.5630  137.7890 N   0  0  0  0  0  0  0  0  0  0  0  0
  184.7210  171.9330  136.0040 C   0  0  0  0  0  2  0  0  0  0  0  0
  184.4550  172.4510  137.3870 C   0  0  0  0  0  3  0  0  0  0  0  0
  1  5  1  0  0  0  0
  2  4  1  0  0  0  0
  3  1  1  0  0  0  0
  3  2  1  0  0  0  0
  4  6  1  1  0  0  0
  5 28  1  1  0  0  0
  5  4  1  0  0  0  0
  6  7  1  0  0  0  0
  7  8  1  0  0  0  0
  8  9  1  0  0  0  0
  9 10  1  0  0  0  0
 10 11  1  0  0  0  0
 11 12  2  0  0  0  0
 12 13  1  0  0  0  0
 13 14  1  0  0  0  0
 14 27  1  0  0  0  0
 15 14  2  0  0  0  0
 16 18  1  0  0  0  0
 16 20  1  0  0  0  0
 17 20  2  0  0  0  0
 18 19  1  0  0  0  0
 19 22  1  0  0  0  0
 20 21  1  0  0  0  0
 21 22  1  0  0  0  0
 21 15  1  1  0  0  0
 22 23  1  1  0  0  0
 23 24  1  0  0  0  0
 25 23  2  0  0  0  0
 27 26  1  0  0  0  0
 29 31  1  0  0  0  0
 29 32  1  0  0  0  0
 30 43  1  6  0  0  0
 31 28  1  1  0  0  0
 31 30  1  0  0  0  0
 32 38  1  6  0  0  0
 32 30  1  0  0  0  0
 33 34  2  0  0  0  0
 33 35  1  0  0  0  0
 34 38  1  0  0  0  0
 35 37  1  0  0  0  0
 35 36  1  0  0  0  0
 36 40  1  0  0  0  0
 38 36  2  0  0  0  0
 40 39  1  0  0  0  0
 41 42  1  0  0  0  0
 41 45  1  0  0  0  0
 42 43  2  0  0  0  0
 43 44  1  0  0  0  0
 45 46  1  0  0  0  0
 46 44  2  0  0  0  0
M  END
>  <MODEL>
5

>  <REMARK>
 VINA RESULT:      -6.9      2.643      6.588
  Name = 
  15 active torsions:
  status: ('A' for Active; 'I' for Inactive)
    1  A    between atoms: C_1  and  CA_43
    2  A    between atoms: C_4  and  C_31
    3  A    between atoms: N_5  and  C_17
    4  A    between atoms: N_5  and  C_18
    5  A    between atoms: C_8  and  C_34
    6  A    between atoms: C_8  and  C_35
    7  A    between atoms: C_15  and  C_27
    8  A    between atoms: C_17  and  C_45
    9  A    between atoms: C_20  and  O_29
   10  A    between atoms: C_27  and  C_41
   11  A    between atoms: C_32  and  C_42
   12  A    between atoms: C_33  and  C_39
   13  A    between atoms: C_34  and  C_45
   14  A    between atoms: C_36  and  O_40
   15  A    between atoms: C_37  and  O_40
                            x       y       z     vdW  Elec       q    Type
                         _______ _______ _______ _____ _____    ______ ____

>  <TORSDO>
F 15

$$$$
=
 OpenBabel11062416283D

 46 50  0  0  1  0  0  0  0  0999 V2000
  184.4410  178.7000  146.1950 N   0  0  0  0  0  2  0  0  0  0  0  0
  186.5930  178.7900  146.9270 N   0  0  0  0  0  2  0  0  0  0  0  0
  185.3040  179.3170  147.1260 N   0  0  0  0  0  2  0  0  0  0  0  0
  186.6780  178.4980  145.5140 C   0  0  2  0  0  3  0  0  0  0  0  0
  185.2680  178.2680  145.0830 C   0  0  2  0  0  3  0  0  0  0  0  0
  187.5070  177.2470  145.2830 C   0  0  0  0  0  2  0  0  0  0  0  0
  188.7330  177.1490  146.3870 C   0  0  0  0  0  2  0  0  0  0  0  0
  189.1010  176.7530  145.9630 O   0  0  0  0  0  0  0  0  0  0  0  0
  190.1470  177.3420  145.7720 C   0  0  0  0  0  2  0  0  0  0  0  0
  191.3640  176.4850  145.8550 C   0  0  0  0  0  2  0  0  0  0  0  0
  191.6630  175.9120  144.5490 N   0  0  0  0  0  2  0  0  0  0  0  0
  190.6640  175.5110  143.6050 C   0  0  0  0  0  3  0  0  0  0  0  0
  190.4390  176.0980  142.4220 C   0  0  0  0  0  3  0  0  0  0  0  0
  191.0290  177.3520  141.9040 C   0  0  0  0  0  0  0  0  0  0  0  0
  191.0350  177.5980  140.5910 C   0  0  0  0  0  3  0  0  0  0  0  0
  190.9620  176.4110  137.0660 O   0  0  0  0  0  0  0  0  0  0  0  0
  192.7320  176.6580  138.5030 O   0  0  0  0  0  0  0  0  0  0  0  0
  189.5700  176.5420  136.7940 C   0  0  0  0  0  2  0  0  0  0  0  0
  188.7720  176.0500  137.9210 N   0  0  0  0  0  2  0  0  0  0  0  0
  191.4840  176.6090  138.3470 C   0  0  0  0  0  0  0  0  0  0  0  0
  190.5700  176.6250  139.5400 C   0  0  2  0  0  3  0  0  0  0  0  0
  189.0940  176.8200  139.1280 C   0  0  1  0  0  3  0  0  0  0  0  0
  188.6390  178.2500  139.0170 C   0  0  0  0  0  0  0  0  0  0  0  0
  189.3890  179.1840  138.3120 O   0  0  0  0  0  0  0  0  0  0  0  0
  187.5580  178.6000  139.5570 O   0  0  0  0  0  1  0  0  0  0  0  0
  190.1630  179.2280  143.3100 C   0  0  0  0  0  1  0  0  0  0  0  0
  191.3940  178.4670  142.8380 C   0  0  0  0  0  2  0  0  0  0  0  0
  184.9910  179.0490  143.9450 O   0  0  0  0  0  0  0  0  0  0  0  0
  184.2910  177.9960  141.9080 N   0  0  0  0  0  2  0  0  0  0  0  0
  182.9560  179.5670  142.6230 C   0  0  1  0  0  3  0  0  0  0  0  0
  183.8920  178.5190  143.2150 C   0  0  2  0  0  3  0  0  0  0  0  0
  183.3940  178.9660  141.2790 C   0  0  2  0  0  3  0  0  0  0  0  0
  180.8730  176.7950  139.6920 C   0  0  0  0  0  3  0  0  0  0  0  0
  181.9370  176.9430  140.5730 C   0  0  0  0  0  3  0  0  0  0  0  0
  180.6060  177.9710  139.0940 N   0  0  0  0  0  0  0  0  0  0  0  0
  181.4800  178.8800  139.5750 C   0  0  0  0  0  0  0  0  0  0  0  0
  179.5420  178.1690  138.1240 C   0  0  0  0  0  1  0  0  0  0  0  0
  182.3200  178.2730  140.4800 C   0  0  0  0  0  0  0  0  0  0  0  0
  180.4920  181.1620  139.4870 C   0  0  0  0  0  1  0  0  0  0  0  0
  181.5410  180.2380  139.2390 O   0  0  0  0  0  0  0  0  0  0  0  0
  179.1860  179.9980  143.0200 C   0  0  0  0  0  2  0  0  0  0  0  0
  180.5960  180.2350  142.7050 N   0  0  0  0  0  0  0  0  0  0  0  0
  181.5080  179.3480  142.9900 C   0  0  0  0  0  0  0  0  0  0  0  0
  181.1520  178.1680  143.7280 N   0  0  0  0  0  0  0  0  0  0  0  0
  179.0530  179.2360  144.3380 C   0  0  0  0  0  2  0  0  0  0  0  0
  180.0050  178.0760  144.3350 C   0  0  0  0  0  3  0  0  0  0  0  0
  1  3  1  0  0  0  0
  2  3  1  0  0  0  0
  4  6  1  1  0  0  0
  4  2  1  0  0  0  0
  5 28  1  6  0  0  0
  5  4  1  0  0  0  0
  5  1  1  0  0  0  0
  6  7  1  0  0  0  0
  8  7  1  0  0  0  0
  9 10  1  0  0  0  0
  9  8  1  0  0  0  0
 11 10  1  0  0  0  0
 12 11  1  0  0  0  0
 13 12  2  0  0  0  0
 14 13  1  0  0  0  0
 14 27  1  0  0  0  0
 15 14  2  0  0  0  0
 16 20  1  0  0  0  0
 18 16  1  0  0  0  0
 18 19  1  0  0  0  0
 19 22  1  0  0  0  0
 20 17  2  0  0  0  0
 20 21  1  0  0  0  0
 21 15  1  1  0  0  0
 22 23  1  6  0  0  0
 22 21  1  0  0  0  0
 23 25  1  0  0  0  0
 24 23  2  0  0  0  0
 27 26  1  0  0  0  0
 29 31  1  0  0  0  0
 30 43  1  1  0  0  0
 30 31  1  0  0  0  0
 31 28  1  6  0  0  0
 32 38  1  1  0  0  0
 32 29  1  0  0  0  0
 32 30  1  0  0  0  0
 33 34  2  0  0  0  0
 35 36  1  0  0  0  0
 35 33  1  0  0  0  0
 36 38  2  0  0  0  0
 37 35  1  0  0  0  0
 38 34  1  0  0  0  0
 40 39  1  0  0  0  0
 40 36  1  0  0  0  0
 41 45  1  0  0  0  0
 42 43  2  0  0  0  0
 42 41  1  0  0  0  0
 43 44  1  0  0  0  0
 44 46  2  0  0  0  0
 46 45  1  0  0  0  0
M  END
>  <MODEL>
6

>  <REMARK>
 VINA RESULT:      -6.9      2.492      7.722
  Name = 
  15 active torsions:
  status: ('A' for Active; 'I' for Inactive)
    1  A    between atoms: C_1  and  CA_43
    2  A    between atoms: C_4  and  C_31
    3  A    between atoms: N_5  and  C_17
    4  A    between atoms: N_5  and  C_18
    5  A    between atoms: C_8  and  C_34
    6  A    between atoms: C_8  and  C_35
    7  A    between atoms: C_15  and  C_27
    8  A    between atoms: C_17  and  C_45
    9  A    between atoms: C_20  and  O_29
   10  A    between atoms: C_27  and  C_41
   11  A    between atoms: C_32  and  C_42
   12  A    between atoms: C_33  and  C_39
   13  A    between atoms: C_34  and  C_45
   14  A    between atoms: C_36  and  O_40
   15  A    between atoms: C_37  and  O_40
                            x       y       z     vdW  Elec       q    Type
                         _______ _______ _______ _____ _____    ______ ____

>  <TORSDO>
F 15

$$$$
=
 OpenBabel11062416283D

 46 49  0  0  1  0  0  0  0  0999 V2000
  184.4450  178.6510  146.2960 N   0  0  0  0  0  2  0  0  0  0  0  0
  186.6380  178.6250  146.8990 N   0  0  0  0  0  2  0  0  0  0  0  0
  185.3870  179.1990  147.1920 N   0  0  0  0  0  2  0  0  0  0  0  0
  186.6270  178.3770  145.4760 C   0  0  2  0  0  3  0  0  0  0  0  0
  185.1850  178.2220  145.1230 C   0  0  2  0  0  3  0  0  0  0  0  0
  187.3840  177.1010  145.1570 C   0  0  0  0  0  1  0  0  0  0  0  0
  188.9280  177.1770  145.7420 C   0  0  0  0  0  1  0  0  0  0  0  0
  188.9750  176.9210  145.1060 O   0  0  0  0  0  0  0  0  0  0  0  0
  190.0080  177.3610  144.6400 C   0  0  0  0  0  2  0  0  0  0  0  0
  190.8430  176.3540  143.9250 C   0  0  0  0  0  2  0  0  0  0  0  0
  190.5280  176.3610  142.5030 N   0  0  0  0  0  2  0  0  0  0  0  0
  189.4030  177.0400  141.9370 C   0  0  0  0  0  3  0  0  0  0  0  0
  189.1310  177.1280  140.6270 C   0  0  0  0  0  3  0  0  0  0  0  0
  189.9830  176.7080  139.4940 C   0  0  0  0  0  0  0  0  0  0  0  0
  189.4330  176.4390  138.3060 C   0  0  0  0  0  3  0  0  0  0  0  0
  186.5300  175.5490  136.1570 O   0  0  0  0  0  0  0  0  0  0  0  0
  188.1010  174.2020  137.1450 O   0  0  0  0  0  0  0  0  0  0  0  0
  186.0230  176.8520  135.8820 C   0  0  0  0  0  2  0  0  0  0  0  0
  186.0200  177.6750  137.0950 N   0  0  0  0  0  2  0  0  0  0  0  0
  187.5680  175.3410  137.0670 C   0  0  0  0  0  0  0  0  0  0  0  0
  187.9520  176.4230  138.0370 C   0  0  2  0  0  3  0  0  0  0  0  0
  187.3870  177.7970  137.6120 C   0  0  1  0  0  3  0  0  0  0  0  0
  188.2640  178.5980  136.6880 C   0  0  0  0  0  0  0  0  0  0  0  0
  189.0920  179.6000  137.1820 O   0  0  0  0  0  1  0  0  0  0  0  0
  188.2590  178.3470  135.4560 O   0  0  0  0  0  0  0  0  0  0  0  0
  192.1210  176.7460  138.2010 C   0  0  0  0  0  1  0  0  0  0  0  0
  191.4760  176.8190  139.5770 C   0  0  0  0  0  2  0  0  0  0  0  0
  184.8770  179.0530  144.0290 O   0  0  0  0  0  0  0  0  0  0  0  0
  184.1920  177.9960  141.9880 N   0  0  0  0  0  2  0  0  0  0  0  0
  182.8710  179.5930  142.6720 C   0  0  1  0  0  3  0  0  0  0  0  0
  183.7820  178.5340  143.2850 C   0  0  2  0  0  3  0  0  0  0  0  0
  183.3200  178.9760  141.3390 C   0  0  2  0  0  3  0  0  0  0  0  0
  180.8400  176.8110  139.6800 C   0  0  0  0  0  3  0  0  0  0  0  0
  181.9300  176.9440  140.5310 C   0  0  0  0  0  3  0  0  0  0  0  0
  180.4970  178.0150  139.1850 N   0  0  0  0  0  0  0  0  0  0  0  0
  181.3460  178.9260  139.7030 C   0  0  0  0  0  0  0  0  0  0  0  0
  179.3860  178.2340  138.2720 C   0  0  0  0  0  1  0  0  0  0  0  0
  182.2480  178.2940  140.5270 C   0  0  0  0  0  0  0  0  0  0  0  0
  182.0440  180.9410  138.4210 C   0  0  0  0  0  1  0  0  0  0  0  0
  181.3310  180.3080  139.4720 O   0  0  0  0  0  0  0  0  0  0  0  0
  179.1020  180.0840  143.0070 C   0  0  0  0  0  2  0  0  0  0  0  0
  180.5200  180.2970  142.7120 N   0  0  0  0  0  0  0  0  0  0  0  0
  181.4150  179.3990  143.0180 C   0  0  0  0  0  0  0  0  0  0  0  0
  181.0290  178.2300  143.7580 N   0  0  0  0  0  0  0  0  0  0  0  0
  178.9380  179.3340  144.3280 C   0  0  0  0  0  2  0  0  0  0  0  0
  179.8710  178.1590  144.3480 C   0  0  0  0  0  3  0  0  0  0  0  0
  1  3  1  0  0  0  0
  2  3  1  0  0  0  0
  4  6  1  1  0  0  0
  4  2  1  0  0  0  0
  5 28  1  6  0  0  0
  5  4  1  0  0  0  0
  5  1  1  0  0  0  0
  8  7  1  0  0  0  0
  9  8  1  0  0  0  0
 10  9  1  0  0  0  0
 11 10  1  0  0  0  0
 12 11  1  0  0  0  0
 13 12  2  0  0  0  0
 14 27  1  0  0  0  0
 14 13  1  0  0  0  0
 15 14  2  0  0  0  0
 16 20  1  0  0  0  0
 18 16  1  0  0  0  0
 18 19  1  0  0  0  0
 19 22  1  0  0  0  0
 20 17  2  0  0  0  0
 20 21  1  0  0  0  0
 21 15  1  6  0  0  0
 22 23  1  6  0  0  0
 22 21  1  0  0  0  0
 23 24  1  0  0  0  0
 25 23  2  0  0  0  0
 26 27  1  0  0  0  0
 29 31  1  0  0  0  0
 30 43  1  1  0  0  0
 30 31  1  0  0  0  0
 31 28  1  6  0  0  0
 32 38  1  1  0  0  0
 32 29  1  0  0  0  0
 32 30  1  0  0  0  0
 33 34  2  0  0  0  0
 35 33  1  0  0  0  0
 35 36  1  0  0  0  0
 36 38  2  0  0  0  0
 37 35  1  0  0  0  0
 38 34  1  0  0  0  0
 39 40  1  0  0  0  0
 40 36  1  0  0  0  0
 41 45  1  0  0  0  0
 42 41  1  0  0  0  0
 42 43  2  0  0  0  0
 43 44  1  0  0  0  0
 44 46  2  0  0  0  0
 45 46  1  0  0  0  0
M  END
>  <MODEL>
7

>  <REMARK>
 VINA RESULT:      -6.9      2.255      7.632
  Name = 
  15 active torsions:
  status: ('A' for Active; 'I' for Inactive)
    1  A    between atoms: C_1  and  CA_43
    2  A    between atoms: C_4  and  C_31
    3  A    between atoms: N_5  and  C_17
    4  A    between atoms: N_5  and  C_18
    5  A    between atoms: C_8  and  C_34
    6  A    between atoms: C_8  and  C_35
    7  A    between atoms: C_15  and  C_27
    8  A    between atoms: C_17  and  C_45
    9  A    between atoms: C_20  and  O_29
   10  A    between atoms: C_27  and  C_41
   11  A    between atoms: C_32  and  C_42
   12  A    between atoms: C_33  and  C_39
   13  A    between atoms: C_34  and  C_45
   14  A    between atoms: C_36  and  O_40
   15  A    between atoms: C_37  and  O_40
                            x       y       z     vdW  Elec       q    Type
                         _______ _______ _______ _____ _____    ______ ____

>  <TORSDO>
F 15

$$$$
=
 OpenBabel11062416283D

 46 50  0  0  1  0  0  0  0  0999 V2000
  190.2770  178.7190  143.9080 N   0  0  0  0  0  2  0  0  0  0  0  0
  189.0200  177.3040  145.1700 N   0  0  0  0  0  2  0  0  0  0  0  0
  190.1180  178.1840  145.2040 N   0  0  0  0  0  2  0  0  0  0  0  0
  189.0160  176.7410  143.8400 C   0  0  2  0  0  3  0  0  0  0  0  0
  189.6910  177.7620  142.9870 C   0  0  2  0  0  3  0  0  0  0  0  0
  187.5900  176.5220  143.3650 C   0  0  0  0  0  2  0  0  0  0  0  0
  186.7570  177.9490  143.3450 C   0  0  0  0  0  2  0  0  0  0  0  0
  186.4310  178.3090  142.8590 O   0  0  0  0  0  0  0  0  0  0  0  0
  185.3190  177.8270  142.7700 C   0  0  0  0  0  2  0  0  0  0  0  0
  184.2130  178.8260  142.7050 C   0  0  0  0  0  2  0  0  0  0  0  0
  183.6370  178.8480  141.3670 N   0  0  0  0  0  2  0  0  0  0  0  0
  184.4090  178.9560  140.1670 C   0  0  0  0  0  3  0  0  0  0  0  0
  183.9590  178.6940  138.9320 C   0  0  0  0  0  3  0  0  0  0  0  0
  182.6630  178.0930  138.5470 C   0  0  0  0  0  0  0  0  0  0  0  0
  181.5750  178.8610  138.4340 C   0  0  0  0  0  3  0  0  0  0  0  0
  179.7510  181.8380  139.7170 O   0  0  0  0  0  0  0  0  0  0  0  0
  180.2460  179.8530  140.7520 O   0  0  0  0  0  0  0  0  0  0  0  0
  179.7870  182.6640  138.5570 C   0  0  0  0  0  2  0  0  0  0  0  0
  181.1130  182.6260  137.9330 N   0  0  0  0  0  2  0  0  0  0  0  0
  180.4490  180.6300  139.7830 C   0  0  0  0  0  0  0  0  0  0  0  0
  181.5270  180.3250  138.7810 C   0  0  2  0  0  3  0  0  0  0  0  0
  181.4380  181.2500  137.5460 C   0  0  1  0  0  3  0  0  0  0  0  0
  180.5510  180.7570  136.4350 C   0  0  0  0  0  0  0  0  0  0  0  0
  179.2910  180.2350  136.7060 O   0  0  0  0  0  1  0  0  0  0  0  0
  180.9490  180.8330  135.2440 O   0  0  0  0  0  0  0  0  0  0  0  0
  182.5050  175.6790  139.1740 C   0  0  0  0  0  1  0  0  0  0  0  0
  182.5950  176.6850  138.0360 C   0  0  0  0  0  2  0  0  0  0  0  0
  190.7020  177.1450  142.2260 O   0  0  0  0  0  0  0  0  0  0  0  0
  189.3860  178.2790  140.5720 N   0  0  0  0  0  2  0  0  0  0  0  0
  190.0680  176.2900  139.9840 C   0  0  1  0  0  3  0  0  0  0  0  0
  190.5610  177.4490  140.8440 C   0  0  2  0  0  3  0  0  0  0  0  0
  188.8680  177.2100  139.7170 C   0  0  2  0  0  3  0  0  0  0  0  0
  188.8680  178.8000  136.3910 C   0  0  0  0  0  3  0  0  0  0  0  0
  189.2490  178.8250  137.7270 C   0  0  0  0  0  3  0  0  0  0  0  0
  188.1310  177.7000  136.1460 N   0  0  0  0  0  0  0  0  0  0  0  0
  188.0300  177.0110  137.3010 C   0  0  0  0  0  0  0  0  0  0  0  0
  187.5840  177.3590  134.8420 C   0  0  0  0  0  1  0  0  0  0  0  0
  188.6990  177.6860  138.2960 C   0  0  0  0  0  0  0  0  0  0  0  0
  187.7450  174.5800  136.8540 C   0  0  0  0  0  1  0  0  0  0  0  0
  187.3690  175.7910  137.4910 O   0  0  0  0  0  0  0  0  0  0  0  0
  191.7220  174.6310  136.9740 C   0  0  0  0  0  2  0  0  0  0  0  0
  190.8980  174.8770  138.1580 N   0  0  0  0  0  0  0  0  0  0  0  0
  190.9520  176.0140  138.7930 C   0  0  0  0  0  0  0  0  0  0  0  0
  191.9150  177.0060  138.4010 N   0  0  0  0  0  0  0  0  0  0  0  0
  193.0890  175.2990  137.1260 C   0  0  0  0  0  2  0  0  0  0  0  0
  192.8970  176.7090  137.6010 C   0  0  0  0  0  3  0  0  0  0  0  0
  1  3  1  0  0  0  0
  2  3  1  0  0  0  0
  4  6  1  6  0  0  0
  4  2  1  0  0  0  0
  5 28  1  1  0  0  0
  5  4  1  0  0  0  0
  5  1  1  0  0  0  0
  7  6  1  0  0  0  0
  8  7  1  0  0  0  0
  9  8  1  0  0  0  0
 10  9  1  0  0  0  0
 11 10  1  0  0  0  0
 12 11  1  0  0  0  0
 13 12  2  0  0  0  0
 14 13  1  0  0  0  0
 15 14  2  0  0  0  0
 16 20  1  0  0  0  0
 18 16  1  0  0  0  0
 19 18  1  0  0  0  0
 20 17  2  0  0  0  0
 21 15  1  6  0  0  0
 21 20  1  0  0  0  0
 22 23  1  6  0  0  0
 22 19  1  0  0  0  0
 22 21  1  0  0  0  0
 23 24  1  0  0  0  0
 25 23  2  0  0  0  0
 27 14  1  0  0  0  0
 27 26  1  0  0  0  0
 29 31  1  0  0  0  0
 30 43  1  6  0  0  0
 30 31  1  0  0  0  0
 31 28  1  1  0  0  0
 32 38  1  6  0  0  0
 32 30  1  0  0  0  0
 32 29  1  0  0  0  0
 33 34  2  0  0  0  0
 34 38  1  0  0  0  0
 35 33  1  0  0  0  0
 35 36  1  0  0  0  0
 36 40  1  0  0  0  0
 36 38  2  0  0  0  0
 37 35  1  0  0  0  0
 39 40  1  0  0  0  0
 41 45  1  0  0  0  0
 41 42  1  0  0  0  0
 42 43  2  0  0  0  0
 44 43  1  0  0  0  0
 45 46  1  0  0  0  0
 46 44  2  0  0  0  0
M  END
>  <MODEL>
8

>  <REMARK>
 VINA RESULT:      -6.7      2.463      3.627
  Name = 
  15 active torsions:
  status: ('A' for Active; 'I' for Inactive)
    1  A    between atoms: C_1  and  CA_43
    2  A    between atoms: C_4  and  C_31
    3  A    between atoms: N_5  and  C_17
    4  A    between atoms: N_5  and  C_18
    5  A    between atoms: C_8  and  C_34
    6  A    between atoms: C_8  and  C_35
    7  A    between atoms: C_15  and  C_27
    8  A    between atoms: C_17  and  C_45
    9  A    between atoms: C_20  and  O_29
   10  A    between atoms: C_27  and  C_41
   11  A    between atoms: C_32  and  C_42
   12  A    between atoms: C_33  and  C_39
   13  A    between atoms: C_34  and  C_45
   14  A    between atoms: C_36  and  O_40
   15  A    between atoms: C_37  and  O_40
                            x       y       z     vdW  Elec       q    Type
                         _______ _______ _______ _____ _____    ______ ____

>  <TORSDO>
F 15

$$$$
=
 OpenBabel11062416283D

 46 49  0  0  1  0  0  0  0  0999 V2000
  186.8910  178.6010  145.7080 N   0  0  0  0  0  2  0  0  0  0  0  0
  184.7590  178.4910  146.4900 N   0  0  0  0  0  2  0  0  0  0  0  0
  186.0930  178.1520  146.7800 N   0  0  0  0  0  2  0  0  0  0  0  0
  184.6450  178.4210  145.0510 C   0  0  2  0  0  3  0  0  0  0  0  0
  186.0260  178.6700  144.5440 C   0  0  2  0  0  3  0  0  0  0  0  0
  183.7000  179.4950  144.5440 C   0  0  0  0  0  1  0  0  0  0  0  0
  182.9030  178.9780  143.1910 C   0  0  0  0  0  1  0  0  0  0  0  0
  182.4320  179.0110  143.6900 O   0  0  0  0  0  0  0  0  0  0  0  0
  181.4010  179.3730  143.1580 C   0  0  0  0  0  2  0  0  0  0  0  0
  180.1890  178.6090  143.5720 C   0  0  0  0  0  2  0  0  0  0  0  0
  179.3790  178.2860  142.4060 N   0  0  0  0  0  2  0  0  0  0  0  0
  179.7190  177.2740  141.4520 C   0  0  0  0  0  3  0  0  0  0  0  0
  180.3330  177.4910  140.2810 C   0  0  0  0  0  3  0  0  0  0  0  0
  180.6420  178.7900  139.6450 C   0  0  0  0  0  0  0  0  0  0  0  0
  181.8230  178.9820  139.0510 C   0  0  0  0  0  3  0  0  0  0  0  0
  185.2680  177.9670  138.0810 O   0  0  0  0  0  0  0  0  0  0  0  0
  184.5520  179.7580  139.3230 O   0  0  0  0  0  0  0  0  0  0  0  0
  184.9720  176.8100  137.3060 C   0  0  0  0  0  2  0  0  0  0  0  0
  183.9490  175.9910  137.9650 N   0  0  0  0  0  2  0  0  0  0  0  0
  184.2810  178.6440  138.8000 C   0  0  0  0  0  0  0  0  0  0  0  0
  182.9540  177.9880  139.0630 C   0  0  2  0  0  3  0  0  0  0  0  0
  182.7220  176.7760  138.1340 C   0  0  1  0  0  3  0  0  0  0  0  0
  182.0730  177.0910  136.8130 C   0  0  0  0  0  0  0  0  0  0  0  0
  182.7120  177.9010  135.8800 O   0  0  0  0  0  0  0  0  0  0  0  0
  180.9450  176.6040  136.5450 O   0  0  0  0  0  1  0  0  0  0  0  0
  180.0190  181.2010  139.8560 C   0  0  0  0  0  1  0  0  0  0  0  0
  179.5650  179.8120  139.4320 C   0  0  0  0  0  2  0  0  0  0  0  0
  186.3770  177.6650  143.6230 O   0  0  0  0  0  0  0  0  0  0  0  0
  187.8750  178.1820  141.8230 N   0  0  0  0  0  2  0  0  0  0  0  0
  188.4640  176.4600  143.0290 C   0  0  1  0  0  3  0  0  0  0  0  0
  187.7370  177.7870  143.2250 C   0  0  2  0  0  3  0  0  0  0  0  0
  188.5980  176.9340  141.5740 C   0  0  2  0  0  3  0  0  0  0  0  0
  192.1220  177.8210  140.9540 C   0  0  0  0  0  3  0  0  0  0  0  0
  191.0000  177.8870  141.7700 C   0  0  0  0  0  3  0  0  0  0  0  0
  191.8340  177.1300  139.8350 N   0  0  0  0  0  0  0  0  0  0  0  0
  190.5440  176.7450  139.9140 C   0  0  0  0  0  0  0  0  0  0  0  0
  192.7910  176.8620  138.7730 C   0  0  0  0  0  1  0  0  0  0  0  0
  190.0000  177.2070  141.0900 C   0  0  0  0  0  0  0  0  0  0  0  0
  188.8240  176.5060  138.1310 C   0  0  0  0  0  1  0  0  0  0  0  0
  189.8400  175.9830  138.9730 O   0  0  0  0  0  0  0  0  0  0  0  0
  191.8760  175.3390  144.3150 C   0  0  0  0  0  2  0  0  0  0  0  0
  190.6020  175.3980  143.5970 N   0  0  0  0  0  0  0  0  0  0  0  0
  189.7560  176.3690  143.8020 C   0  0  0  0  0  0  0  0  0  0  0  0
  190.0180  177.3380  144.8300 N   0  0  0  0  0  0  0  0  0  0  0  0
  191.7060  175.8460  145.7470 C   0  0  0  0  0  2  0  0  0  0  0  0
  190.9410  177.1370  145.7250 C   0  0  0  0  0  3  0  0  0  0  0  0
  1  3  1  0  0  0  0
  2  3  1  0  0  0  0
  4  6  1  6  0  0  0
  4  2  1  0  0  0  0
  5 28  1  6  0  0  0
  5  4  1  0  0  0  0
  5  1  1  0  0  0  0
  7  8  1  0  0  0  0
  9 10  1  0  0  0  0
  9  8  1  0  0  0  0
 11 10  1  0  0  0  0
 12 11  1  0  0  0  0
 13 12  2  0  0  0  0
 14 13  1  0  0  0  0
 15 14  2  0  0  0  0
 16 20  1  0  0  0  0
 18 19  1  0  0  0  0
 18 16  1  0  0  0  0
 19 22  1  0  0  0  0
 20 21  1  0  0  0  0
 20 17  2  0  0  0  0
 21 15  1  6  0  0  0
 22 23  1  6  0  0  0
 22 21  1  0  0  0  0
 24 23  2  0  0  0  0
 25 23  1  0  0  0  0
 27 14  1  0  0  0  0
 27 26  1  0  0  0  0
 29 31  1  0  0  0  0
 30 31  1  0  0  0  0
 30 43  1  1  0  0  0
 31 28  1  6  0  0  0
 32 38  1  1  0  0  0
 32 29  1  0  0  0  0
 32 30  1  0  0  0  0
 33 34  2  0  0  0  0
 35 36  1  0  0  0  0
 35 33  1  0  0  0  0
 36 38  2  0  0  0  0
 37 35  1  0  0  0  0
 38 34  1  0  0  0  0
 39 40  1  0  0  0  0
 40 36  1  0  0  0  0
 41 45  1  0  0  0  0
 42 43  2  0  0  0  0
 42 41  1  0  0  0  0
 43 44  1  0  0  0  0
 44 46  2  0  0  0  0
 46 45  1  0  0  0  0
M  END
>  <MODEL>
9

>  <REMARK>
 VINA RESULT:      -6.7      2.121      4.697
  Name = 
  15 active torsions:
  status: ('A' for Active; 'I' for Inactive)
    1  A    between atoms: C_1  and  CA_43
    2  A    between atoms: C_4  and  C_31
    3  A    between atoms: N_5  and  C_17
    4  A    between atoms: N_5  and  C_18
    5  A    between atoms: C_8  and  C_34
    6  A    between atoms: C_8  and  C_35
    7  A    between atoms: C_15  and  C_27
    8  A    between atoms: C_17  and  C_45
    9  A    between atoms: C_20  and  O_29
   10  A    between atoms: C_27  and  C_41
   11  A    between atoms: C_32  and  C_42
   12  A    between atoms: C_33  and  C_39
   13  A    between atoms: C_34  and  C_45
   14  A    between atoms: C_36  and  O_40
   15  A    between atoms: C_37  and  O_40
                            x       y       z     vdW  Elec       q    Type
                         _______ _______ _______ _____ _____    ______ ____

>  <TORSDO>
F 15

$$$$
