=
 OpenBabel11062412003D

 64 75  0  0  1  0  0  0  0  0999 V2000
  188.8880  179.4890  138.6370 O   0  0  0  0  0  1  0  0  0  0  0  0
  188.0150  177.6360  139.9100 C   0  0  1  0  0  0  0  0  0  0  0  0
  185.6610  178.4060  141.4820 C   0  0  2  0  0  3  0  0  0  0  0  0
  189.4240  177.3070  139.4550 C   0  0  0  0  0  2  0  0  0  0  0  0
  187.7400  177.1700  141.2110 O   0  0  0  0  0  0  0  0  0  0  0  0
  189.0600  178.7440  139.8040 C   0  0  1  0  0  3  0  0  0  0  0  0
  185.7240  178.4540  138.9250 C   0  0  0  0  0  2  0  0  0  0  0  0
  186.8830  177.4430  138.8780 C   0  0  1  0  0  3  0  0  0  0  0  0
  187.1120  178.2080  141.9230 C   0  0  0  0  0  2  0  0  0  0  0  0
  185.6250  179.2760  140.2170 C   0  0  0  0  0  2  0  0  0  0  0  0
  187.7330  175.5070  137.4320 C   0  0  0  0  0  2  0  0  0  0  0  0
  192.5180  174.4500  136.5740 C   0  0  0  0  0  2  0  0  0  0  0  0
  188.3600  177.8790  136.8720 C   0  0  0  0  0  2  0  0  0  0  0  0
  188.0420  173.6190  135.7410 C   0  0  0  0  0  2  0  0  0  0  0  0
  193.3200  171.0140  135.5660 O   0  0  0  0  0  0  0  0  0  0  0  0
  191.3440  172.1420  135.3030 O   0  0  0  0  0  0  0  0  0  0  0  0
  190.4950  175.8760  135.8090 C   0  0  2  0  0  3  0  0  0  0  0  0
  192.7000  172.1090  135.6520 C   0  0  0  0  0  0  0  0  0  0  0  0
  191.2010  174.5210  135.8180 C   0  0  2  0  0  0  0  0  0  0  0  0
  193.4570  173.3850  135.9710 C   0  0  2  0  0  0  0  0  0  0  0  0
  190.4630  173.1820  135.7120 C   0  0  1  0  0  3  0  0  0  0  0  0
  187.9890  175.1300  135.9780 C   0  0  2  0  0  3  0  0  0  0  0  0
  189.0520  176.0160  135.2990 C   0  0  1  0  0  3  0  0  0  0  0  0
  191.2950  175.3940  134.5940 C   0  0  0  0  0  2  0  0  0  0  0  0
  189.2040  173.1810  134.8690 C   0  0  0  0  0  2  0  0  0  0  0  0
  194.5430  173.0700  136.9960 C   0  0  0  0  0  1  0  0  0  0  0  0
  188.6200  177.4840  135.4120 C   0  0  0  0  0  2  0  0  0  0  0  0
  187.2880  176.9710  137.4750 C   0  0  2  0  0  3  0  0  0  0  0  0
  194.0580  173.8660  134.7180 N   0  0  0  0  0  2  0  0  0  0  0  0
  196.9520  175.6340  134.7540 C   0  0  1  0  0  3  0  0  0  0  0  0
  197.2900  175.5710  136.1600 C   0  0  2  0  0  0  0  0  0  0  0  0
  195.8910  175.0670  135.7100 C   0  0  2  0  0  0  0  0  0  0  0  0
  197.6840  176.6620  135.3750 O   0  0  0  0  0  0  0  0  0  0  0  0
  195.9210  173.6960  136.0900 O   0  0  0  0  0  0  0  0  0  0  0  0
  195.5150  173.9410  134.7960 C   0  0  1  0  0  3  0  0  0  0  0  0
  198.4320  174.5570  136.2910 C   0  0  0  0  0  2  0  0  0  0  0  0
  198.2640  175.3680  138.5470 O   0  0  0  0  0  1  0  0  0  0  0  0
  198.9750  174.4940  137.7170 C   0  0  1  0  0  3  0  0  0  0  0  0
  198.8980  173.0740  138.2560 C   0  0  0  0  0  2  0  0  0  0  0  0
  198.5030  172.1100  137.1500 C   0  0  0  0  0  1  0  0  0  0  0  0
  184.8740  179.0490  142.6290 C   0  0  2  0  0  3  0  0  0  0  0  0
  182.9680  179.1550  143.8130 C   0  0  1  0  0  3  0  0  0  0  0  0
  184.7830  179.9840  144.8810 C   0  0  0  0  0  2  0  0  0  0  0  0
  185.7170  179.2860  143.8900 C   0  0  1  0  0  3  0  0  0  0  0  0
  183.6060  179.2320  145.0680 O   0  0  0  0  0  0  0  0  0  0  0  0
  183.7040  178.3300  142.9400 O   0  0  0  0  0  0  0  0  0  0  0  0
  186.1380  178.0610  144.4160 O   0  0  0  0  0  0  0  0  0  0  0  0
  186.7170  178.3530  145.6530 C   0  0  0  0  0  2  0  0  0  0  0  0
  187.7090  177.2580  146.0380 C   0  0  0  0  0  2  0  0  0  0  0  0
  189.1550  177.7180  145.8740 C   0  0  0  0  0  2  0  0  0  0  0  0
  191.9060  177.1950  145.6740 F   0  0  0  0  0  0  0  0  0  0  0  0
  190.6640  178.3400  144.1180 O   0  0  0  0  0  0  0  0  0  0  0  0
  191.6690  176.3790  143.4510 O   0  0  0  0  0  1  0  0  0  0  0  0
  191.1390  177.0850  144.5300 C   0  0  1  0  0  0  0  0  0  0  0  0
  189.6910  177.3810  144.4920 C   0  0  1  0  0  3  0  0  0  0  0  0
  181.5420  178.6340  143.9590 C   0  0  0  0  0  2  0  0  0  0  0  0
  180.5700  179.2720  142.9660 C   0  0  0  0  0  2  0  0  0  0  0  0
  179.9500  178.2430  142.1260 N   0  0  0  0  0  2  0  0  0  0  0  0
  181.4590  179.2790  140.4470 C   0  0  0  0  0  2  0  0  0  0  0  0
  180.0220  176.1710  139.3820 C   0  0  0  0  0  1  0  0  0  0  0  0
  180.2060  178.4980  138.5290 C   0  0  0  0  0  2  0  0  0  0  0  0
  181.4850  179.2150  138.9340 C   0  0  0  0  0  2  0  0  0  0  0  0
  180.6910  178.0400  140.8730 C   0  0  2  0  0  3  0  0  0  0  0  0
  179.7930  177.6330  139.7100 C   0  0  2  0  0  3  0  0  0  0  0  0
  2  4  1  6  0  0  0
  2  5  1  0  0  0  0
  3 10  1  6  0  0  0
  3  9  1  0  0  0  0
  3 41  1  0  0  0  0
  4  6  1  0  0  0  0
  5  9  1  0  0  0  0
  6  1  1  6  0  0  0
  6  2  1  0  0  0  0
  7 10  1  0  0  0  0
  8  7  1  6  0  0  0
  8  2  1  0  0  0  0
 11 28  1  0  0  0  0
 15 18  2  0  0  0  0
 16 18  1  0  0  0  0
 16 21  1  0  0  0  0
 17 24  1  6  0  0  0
 17 19  1  0  0  0  0
 18 20  1  0  0  0  0
 19 24  1  6  0  0  0
 19 12  1  0  0  0  0
 20 12  1  0  0  0  0
 20 26  1  1  0  0  0
 21 25  1  6  0  0  0
 21 19  1  0  0  0  0
 22 14  1  1  0  0  0
 22 11  1  0  0  0  0
 23 27  1  1  0  0  0
 23 17  1  0  0  0  0
 23 22  1  0  0  0  0
 25 14  1  0  0  0  0
 27 13  1  0  0  0  0
 28 13  1  1  0  0  0
 28  8  1  0  0  0  0
 29 20  1  0  0  0  0
 30 33  1  1  0  0  0
 30 32  1  0  0  0  0
 30 31  1  0  0  0  0
 31 36  1  1  0  0  0
 32 34  1  6  0  0  0
 32 31  1  0  0  0  0
 33 31  1  0  0  0  0
 35 29  1  1  0  0  0
 35 32  1  0  0  0  0
 35 34  1  0  0  0  0
 36 38  1  0  0  0  0
 38 39  1  0  0  0  0
 38 37  1  1  0  0  0
 40 39  1  0  0  0  0
 41 46  1  1  0  0  0
 41 44  1  0  0  0  0
 42 56  1  1  0  0  0
 42 45  1  0  0  0  0
 43 45  1  0  0  0  0
 44 47  1  1  0  0  0
 44 43  1  0  0  0  0
 46 42  1  0  0  0  0
 47 48  1  0  0  0  0
 48 49  1  0  0  0  0
 50 49  1  0  0  0  0
 52 55  1  0  0  0  0
 52 54  1  0  0  0  0
 54 53  1  6  0  0  0
 54 51  1  0  0  0  0
 55 54  1  0  0  0  0
 55 50  1  1  0  0  0
 57 56  1  0  0  0  0
 58 57  1  0  0  0  0
 59 63  1  0  0  0  0
 61 62  1  0  0  0  0
 61 64  1  0  0  0  0
 62 59  1  0  0  0  0
 63 58  1  1  0  0  0
 64 60  1  6  0  0  0
 64 63  1  0  0  0  0
M  END
>  <MODEL>
1

>  <REMARK>
 VINA RESULT:      -6.9      0.000      0.000
  Name = 
  16 active torsions:
  status: ('A' for Active; 'I' for Inactive)
    1  A    between atoms: C_2  and  C_24
    2  A    between atoms: N_5  and  C_40
    3  A    between atoms: N_5  and  C_51
    4  A    between atoms: N_13  and  C_29
    5  A    between atoms: N_13  and  C_45
    6  A    between atoms: C_17  and  C_56
    7  A    between atoms: O_20  and  C_26
    8  A    between atoms: O_20  and  C_48
    9  A    between atoms: C_22  and  C_26
   10  A    between atoms: C_22  and  C_31
   11  A    between atoms: C_23  and  C_61
   12  A    between atoms: C_29  and  C_61
   13  A    between atoms: C_31  and  C_54
   14  A    between atoms: C_44  and  C_64
   15  A    between atoms: C_50  and  C_63
   16  A    between atoms: C_56  and  C_64
                            x       y       z     vdW  Elec       q    Type
                         _______ _______ _______ _____ _____    ______ ____

>  <TORSDO>
F 16

$$$$
=
 OpenBabel11062412003D

 64 75  0  0  1  0  0  0  0  0999 V2000
  185.8540  180.5160  144.3790 O   0  0  0  0  0  1  0  0  0  0  0  0
  184.4070  178.5870  144.3690 C   0  0  1  0  0  0  0  0  0  0  0  0
  182.5360  178.6420  142.1100 C   0  0  2  0  0  3  0  0  0  0  0  0
  185.0520  178.7180  145.7350 C   0  0  0  0  0  2  0  0  0  0  0  0
  183.0660  178.1630  144.4370 O   0  0  0  0  0  0  0  0  0  0  0  0
  184.7010  179.9710  144.9430 C   0  0  1  0  0  3  0  0  0  0  0  0
  185.0750  178.5000  141.8320 C   0  0  0  0  0  2  0  0  0  0  0  0
  185.2570  177.9400  143.2530 C   0  0  1  0  0  3  0  0  0  0  0  0
  182.3050  178.9820  143.5830 C   0  0  0  0  0  2  0  0  0  0  0  0
  183.8100  179.3430  141.6170 C   0  0  0  0  0  2  0  0  0  0  0  0
  187.7610  178.3650  142.9270 C   0  0  0  0  0  2  0  0  0  0  0  0
  190.5920  176.2820  139.4060 C   0  0  0  0  0  2  0  0  0  0  0  0
  186.9140  176.0330  143.3500 C   0  0  0  0  0  2  0  0  0  0  0  0
  190.2360  178.9430  143.1760 C   0  0  0  0  0  2  0  0  0  0  0  0
  193.6860  178.0310  138.4920 O   0  0  0  0  0  0  0  0  0  0  0  0
  192.5370  178.1270  140.4710 O   0  0  0  0  0  0  0  0  0  0  0  0
  189.6050  175.9800  141.7820 C   0  0  2  0  0  3  0  0  0  0  0  0
  192.7500  177.5720  139.2020 C   0  0  0  0  0  0  0  0  0  0  0  0
  190.6610  176.6260  140.8850 C   0  0  2  0  0  0  0  0  0  0  0  0
  191.9860  176.3430  138.7470 C   0  0  2  0  0  0  0  0  0  0  0  0
  191.3160  177.9770  141.1880 C   0  0  1  0  0  3  0  0  0  0  0  0
  189.1220  177.9340  143.4610 C   0  0  2  0  0  3  0  0  0  0  0  0
  189.4150  176.4360  143.2380 C   0  0  1  0  0  3  0  0  0  0  0  0
  191.0360  175.4350  141.7280 C   0  0  0  0  0  2  0  0  0  0  0  0
  191.5120  178.3090  142.6530 C   0  0  0  0  0  2  0  0  0  0  0  0
  191.7980  176.4110  137.2350 C   0  0  0  0  0  1  0  0  0  0  0  0
  188.2920  175.6100  143.8790 C   0  0  0  0  0  2  0  0  0  0  0  0
  186.6880  177.5210  143.6180 C   0  0  2  0  0  3  0  0  0  0  0  0
  192.7890  175.1650  139.1120 N   0  0  0  0  0  2  0  0  0  0  0  0
  195.1300  175.2850  136.6610 C   0  0  1  0  0  3  0  0  0  0  0  0
  196.1210  174.3730  137.1890 C   0  0  2  0  0  0  0  0  0  0  0  0
  194.9440  174.8010  138.1080 C   0  0  2  0  0  0  0  0  0  0  0  0
  196.4940  175.4360  136.3580 O   0  0  0  0  0  0  0  0  0  0  0  0
  194.2960  173.5630  138.3760 O   0  0  0  0  0  0  0  0  0  0  0  0
  193.4690  174.5820  137.9580 C   0  0  1  0  0  3  0  0  0  0  0  0
  195.9930  173.0740  136.3840 C   0  0  0  0  0  2  0  0  0  0  0  0
  197.9730  172.6200  137.6680 O   0  0  0  0  0  1  0  0  0  0  0  0
  197.0390  172.0420  136.8010 C   0  0  1  0  0  3  0  0  0  0  0  0
  196.3740  170.8440  137.4600 C   0  0  0  0  0  2  0  0  0  0  0  0
  195.1200  170.4510  136.6990 C   0  0  0  0  0  1  0  0  0  0  0  0
  181.3080  179.0720  141.3000 C   0  0  2  0  0  3  0  0  0  0  0  0
  180.4840  179.9570  139.4060 C   0  0  1  0  0  3  0  0  0  0  0  0
  179.0030  178.7140  140.5840 C   0  0  0  0  0  2  0  0  0  0  0  0
  180.1380  178.0830  141.3940 C   0  0  1  0  0  3  0  0  0  0  0  0
  179.4370  179.0220  139.2790 O   0  0  0  0  0  0  0  0  0  0  0  0
  181.6260  179.3400  139.9550 O   0  0  0  0  0  0  0  0  0  0  0  0
  180.5030  176.8600  140.8250 O   0  0  0  0  0  0  0  0  0  0  0  0
  179.5350  175.9410  141.2360 C   0  0  0  0  0  2  0  0  0  0  0  0
  179.5140  174.7430  140.2890 C   0  0  0  0  0  2  0  0  0  0  0  0
  180.4310  174.9550  139.0860 C   0  0  0  0  0  2  0  0  0  0  0  0
  182.7330  174.2400  137.6490 F   0  0  0  0  0  0  0  0  0  0  0  0
  180.6080  174.3130  136.7830 O   0  0  0  0  0  0  0  0  0  0  0  0
  181.6890  172.2800  136.7950 O   0  0  0  0  0  1  0  0  0  0  0  0
  181.5760  173.5210  137.4210 C   0  0  1  0  0  0  0  0  0  0  0  0
  180.2870  173.8280  138.0750 C   0  0  1  0  0  3  0  0  0  0  0  0
  180.8170  180.5890  138.0590 C   0  0  0  0  0  2  0  0  0  0  0  0
  181.8720  179.8050  137.2770 C   0  0  0  0  0  2  0  0  0  0  0  0
  181.2760  178.6100  136.6740 N   0  0  0  0  0  2  0  0  0  0  0  0
  183.2880  177.5990  137.7230 C   0  0  0  0  0  2  0  0  0  0  0  0
  182.3790  176.1030  134.5940 C   0  0  0  0  0  1  0  0  0  0  0  0
  184.3980  177.1190  135.6260 C   0  0  0  0  0  2  0  0  0  0  0  0
  184.5020  176.9150  137.1290 C   0  0  0  0  0  2  0  0  0  0  0  0
  182.2180  177.4810  136.6520 C   0  0  2  0  0  3  0  0  0  0  0  0
  182.9240  177.3220  135.3110 C   0  0  2  0  0  3  0  0  0  0  0  0
  2  5  1  0  0  0  0
  2  6  1  0  0  0  0
  2  4  1  1  0  0  0
  3 10  1  6  0  0  0
  3  9  1  0  0  0  0
  6  1  1  6  0  0  0
  6  4  1  0  0  0  0
  8  7  1  6  0  0  0
  8 28  1  0  0  0  0
  8  2  1  0  0  0  0
  9  5  1  0  0  0  0
 10  7  1  0  0  0  0
 13 28  1  0  0  0  0
 13 27  1  0  0  0  0
 14 22  1  0  0  0  0
 15 18  2  0  0  0  0
 16 21  1  0  0  0  0
 17 24  1  1  0  0  0
 17 23  1  0  0  0  0
 18 16  1  0  0  0  0
 19 12  1  6  0  0  0
 19 21  1  0  0  0  0
 19 24  1  0  0  0  0
 19 17  1  0  0  0  0
 20 26  1  6  0  0  0
 20 29  1  0  0  0  0
 20 18  1  0  0  0  0
 20 12  1  0  0  0  0
 21 25  1  1  0  0  0
 22 11  1  6  0  0  0
 23 22  1  0  0  0  0
 23 27  1  6  0  0  0
 25 14  1  0  0  0  0
 28 11  1  6  0  0  0
 30 33  1  1  0  0  0
 30 31  1  0  0  0  0
 30 32  1  0  0  0  0
 31 36  1  6  0  0  0
 31 32  1  0  0  0  0
 32 34  1  6  0  0  0
 33 31  1  0  0  0  0
 35 32  1  0  0  0  0
 35 34  1  0  0  0  0
 35 29  1  1  0  0  0
 36 38  1  0  0  0  0
 38 39  1  0  0  0  0
 38 37  1  1  0  0  0
 40 39  1  0  0  0  0
 41 46  1  6  0  0  0
 41 44  1  0  0  0  0
 41  3  1  0  0  0  0
 42 56  1  6  0  0  0
 42 46  1  0  0  0  0
 43 44  1  0  0  0  0
 44 47  1  6  0  0  0
 45 42  1  0  0  0  0
 45 43  1  0  0  0  0
 47 48  1  0  0  0  0
 49 48  1  0  0  0  0
 50 49  1  0  0  0  0
 52 54  1  0  0  0  0
 52 55  1  0  0  0  0
 54 53  1  6  0  0  0
 54 51  1  0  0  0  0
 54 55  1  0  0  0  0
 55 50  1  1  0  0  0
 57 56  1  0  0  0  0
 58 57  1  0  0  0  0
 61 62  1  0  0  0  0
 62 59  1  0  0  0  0
 63 58  1  6  0  0  0
 63 59  1  0  0  0  0
 64 60  1  1  0  0  0
 64 61  1  0  0  0  0
 64 63  1  0  0  0  0
M  END
>  <MODEL>
2

>  <REMARK>
 VINA RESULT:      -4.9      3.379      6.724
  Name = 
  16 active torsions:
  status: ('A' for Active; 'I' for Inactive)
    1  A    between atoms: C_2  and  C_24
    2  A    between atoms: N_5  and  C_40
    3  A    between atoms: N_5  and  C_51
    4  A    between atoms: N_13  and  C_29
    5  A    between atoms: N_13  and  C_45
    6  A    between atoms: C_17  and  C_56
    7  A    between atoms: O_20  and  C_26
    8  A    between atoms: O_20  and  C_48
    9  A    between atoms: C_22  and  C_26
   10  A    between atoms: C_22  and  C_31
   11  A    between atoms: C_23  and  C_61
   12  A    between atoms: C_29  and  C_61
   13  A    between atoms: C_31  and  C_54
   14  A    between atoms: C_44  and  C_64
   15  A    between atoms: C_50  and  C_63
   16  A    between atoms: C_56  and  C_64
                            x       y       z     vdW  Elec       q    Type
                         _______ _______ _______ _____ _____    ______ ____

>  <TORSDO>
F 16

$$$$
=
 OpenBabel11062412003D

 64 75  0  0  1  0  0  0  0  0999 V2000
  185.6360  180.7660  144.0610 O   0  0  0  0  0  1  0  0  0  0  0  0
  184.2970  178.7610  144.1080 C   0  0  1  0  0  0  0  0  0  0  0  0
  182.4570  178.6280  141.8270 C   0  0  2  0  0  3  0  0  0  0  0  0
  184.9150  178.9790  145.4750 C   0  0  0  0  0  2  0  0  0  0  0  0
  182.9800  178.2670  144.1770 O   0  0  0  0  0  0  0  0  0  0  0  0
  184.5070  180.1790  144.6330 C   0  0  1  0  0  3  0  0  0  0  0  0
  185.0030  178.6160  141.5840 C   0  0  0  0  0  2  0  0  0  0  0  0
  185.1960  178.1210  143.0270 C   0  0  1  0  0  3  0  0  0  0  0  0
  182.1870  179.0100  143.2840 C   0  0  0  0  0  2  0  0  0  0  0  0
  183.6970  179.3790  141.3230 C   0  0  0  0  0  2  0  0  0  0  0  0
  187.6830  178.5800  142.6210 C   0  0  0  0  0  2  0  0  0  0  0  0
  190.5520  176.1660  139.3520 C   0  0  0  0  0  2  0  0  0  0  0  0
  186.9150  176.2930  143.3390 C   0  0  0  0  0  2  0  0  0  0  0  0
  190.1390  179.2620  142.7670 C   0  0  0  0  0  2  0  0  0  0  0  0
  193.5790  177.8840  138.1910 O   0  0  0  0  0  0  0  0  0  0  0  0
  192.4440  178.1880  140.1570 O   0  0  0  0  0  0  0  0  0  0  0  0
  189.5940  176.1310  141.7580 C   0  0  2  0  0  3  0  0  0  0  0  0
  192.6640  177.4880  138.9640 C   0  0  0  0  0  0  0  0  0  0  0  0
  190.6210  176.6930  140.7760 C   0  0  2  0  0  0  0  0  0  0  0  0
  191.9370  176.1880  138.6740 C   0  0  2  0  0  0  0  0  0  0  0  0
  191.2340  178.0910  140.9010 C   0  0  1  0  0  3  0  0  0  0  0  0
  189.0610  178.2610  143.1880 C   0  0  2  0  0  3  0  0  0  0  0  0
  189.4000  176.7580  143.1490 C   0  0  1  0  0  3  0  0  0  0  0  0
  191.0410  175.6280  141.7550 C   0  0  0  0  0  2  0  0  0  0  0  0
  191.4310  178.6080  142.3120 C   0  0  0  0  0  2  0  0  0  0  0  0
  191.7350  176.0630  137.1670 C   0  0  0  0  0  1  0  0  0  0  0  0
  188.3100  175.9830  143.9000 C   0  0  0  0  0  2  0  0  0  0  0  0
  186.6430  177.7950  143.4240 C   0  0  2  0  0  3  0  0  0  0  0  0
  192.7810  175.0910  139.1720 N   0  0  0  0  0  2  0  0  0  0  0  0
  195.4620  175.0130  137.0960 C   0  0  1  0  0  3  0  0  0  0  0  0
  196.2600  173.9820  137.7240 C   0  0  2  0  0  0  0  0  0  0  0  0
  195.0110  174.5140  138.4780 C   0  0  2  0  0  0  0  0  0  0  0  0
  196.8650  175.0180  137.0020 O   0  0  0  0  0  0  0  0  0  0  0  0
  194.2020  173.3500  138.5960 O   0  0  0  0  0  0  0  0  0  0  0  0
  193.5600  174.4660  138.1060 C   0  0  1  0  0  3  0  0  0  0  0  0
  196.1160  172.7270  136.8530 C   0  0  0  0  0  2  0  0  0  0  0  0
  196.2000  170.5900  137.9490 O   0  0  0  0  0  1  0  0  0  0  0  0
  196.9910  171.5820  137.3590 C   0  0  1  0  0  3  0  0  0  0  0  0
  197.8150  170.9970  136.2230 C   0  0  0  0  0  2  0  0  0  0  0  0
  196.9040  170.4160  135.1550 C   0  0  0  0  0  1  0  0  0  0  0  0
  181.2180  178.9590  140.9870 C   0  0  2  0  0  3  0  0  0  0  0  0
  180.3720  179.6850  139.0370 C   0  0  1  0  0  3  0  0  0  0  0  0
  178.9310  178.4730  140.2910 C   0  0  0  0  0  2  0  0  0  0  0  0
  180.0830  177.9380  141.1440 C   0  0  1  0  0  3  0  0  0  0  0  0
  179.3590  178.7080  138.9700 O   0  0  0  0  0  0  0  0  0  0  0  0
  181.5330  179.1480  139.6280 O   0  0  0  0  0  0  0  0  0  0  0  0
  180.4940  176.6930  140.6600 O   0  0  0  0  0  0  0  0  0  0  0  0
  179.4290  175.8190  140.8940 C   0  0  0  0  0  2  0  0  0  0  0  0
  179.3310  174.7990  139.7630 C   0  0  0  0  0  2  0  0  0  0  0  0
  180.5600  174.8350  138.8570 C   0  0  0  0  0  2  0  0  0  0  0  0
  182.4140  173.7780  137.0330 F   0  0  0  0  0  0  0  0  0  0  0  0
  181.1040  175.6270  136.6610 O   0  0  0  0  0  0  0  0  0  0  0  0
  180.8180  173.8160  135.2680 O   0  0  0  0  0  1  0  0  0  0  0  0
  181.2050  174.2320  136.5420 C   0  0  1  0  0  0  0  0  0  0  0  0
  180.1660  174.8550  137.3880 C   0  0  1  0  0  3  0  0  0  0  0  0
  180.6890  180.2380  137.6510 C   0  0  0  0  0  2  0  0  0  0  0  0
  179.6500  181.2460  137.1590 C   0  0  0  0  0  2  0  0  0  0  0  0
  179.8890  182.5610  137.7600 N   0  0  0  0  0  2  0  0  0  0  0  0
  179.2720  183.2970  135.4690 C   0  0  0  0  0  2  0  0  0  0  0  0
  179.2690  185.9410  137.8910 C   0  0  0  0  0  1  0  0  0  0  0  0
  180.2890  185.4830  135.6710 C   0  0  0  0  0  2  0  0  0  0  0  0
  179.4340  184.6220  134.7550 C   0  0  0  0  0  2  0  0  0  0  0  0
  179.3230  183.6450  136.9460 C   0  0  2  0  0  3  0  0  0  0  0  0
  180.0900  184.9550  137.0840 C   0  0  2  0  0  3  0  0  0  0  0  0
  2  5  1  0  0  0  0
  2  6  1  0  0  0  0
  2  4  1  1  0  0  0
  3 10  1  6  0  0  0
  3  9  1  0  0  0  0
  6  1  1  6  0  0  0
  6  4  1  0  0  0  0
  8  7  1  6  0  0  0
  8 28  1  0  0  0  0
  8  2  1  0  0  0  0
  9  5  1  0  0  0  0
 10  7  1  0  0  0  0
 13 28  1  0  0  0  0
 13 27  1  0  0  0  0
 14 22  1  0  0  0  0
 15 18  2  0  0  0  0
 16 21  1  0  0  0  0
 17 24  1  1  0  0  0
 17 23  1  0  0  0  0
 18 16  1  0  0  0  0
 19 12  1  6  0  0  0
 19 21  1  0  0  0  0
 19 24  1  0  0  0  0
 19 17  1  0  0  0  0
 20 26  1  6  0  0  0
 20 18  1  0  0  0  0
 20 29  1  0  0  0  0
 20 12  1  0  0  0  0
 21 25  1  1  0  0  0
 22 11  1  6  0  0  0
 23 22  1  0  0  0  0
 23 27  1  6  0  0  0
 25 14  1  0  0  0  0
 28 11  1  6  0  0  0
 30 33  1  1  0  0  0
 30 31  1  0  0  0  0
 30 32  1  0  0  0  0
 31 36  1  6  0  0  0
 31 32  1  0  0  0  0
 32 34  1  6  0  0  0
 33 31  1  0  0  0  0
 35 32  1  0  0  0  0
 35 34  1  0  0  0  0
 35 29  1  1  0  0  0
 36 38  1  0  0  0  0
 38 37  1  6  0  0  0
 39 38  1  0  0  0  0
 40 39  1  0  0  0  0
 41 46  1  6  0  0  0
 41 44  1  0  0  0  0
 41  3  1  0  0  0  0
 42 56  1  6  0  0  0
 42 46  1  0  0  0  0
 43 44  1  0  0  0  0
 44 47  1  6  0  0  0
 45 42  1  0  0  0  0
 45 43  1  0  0  0  0
 47 48  1  0  0  0  0
 49 48  1  0  0  0  0
 50 49  1  0  0  0  0
 52 55  1  0  0  0  0
 54 53  1  6  0  0  0
 54 52  1  0  0  0  0
 54 51  1  0  0  0  0
 54 55  1  0  0  0  0
 55 50  1  1  0  0  0
 57 56  1  0  0  0  0
 57 58  1  0  0  0  0
 59 63  1  0  0  0  0
 61 64  1  0  0  0  0
 62 59  1  0  0  0  0
 62 61  1  0  0  0  0
 63 64  1  0  0  0  0
 63 58  1  1  0  0  0
 64 60  1  1  0  0  0
M  END
>  <MODEL>
3

>  <REMARK>
 VINA RESULT:      -4.7      3.847      7.081
  Name = 
  16 active torsions:
  status: ('A' for Active; 'I' for Inactive)
    1  A    between atoms: C_2  and  C_24
    2  A    between atoms: N_5  and  C_40
    3  A    between atoms: N_5  and  C_51
    4  A    between atoms: N_13  and  C_29
    5  A    between atoms: N_13  and  C_45
    6  A    between atoms: C_17  and  C_56
    7  A    between atoms: O_20  and  C_26
    8  A    between atoms: O_20  and  C_48
    9  A    between atoms: C_22  and  C_26
   10  A    between atoms: C_22  and  C_31
   11  A    between atoms: C_23  and  C_61
   12  A    between atoms: C_29  and  C_61
   13  A    between atoms: C_31  and  C_54
   14  A    between atoms: C_44  and  C_64
   15  A    between atoms: C_50  and  C_63
   16  A    between atoms: C_56  and  C_64
                            x       y       z     vdW  Elec       q    Type
                         _______ _______ _______ _____ _____    ______ ____

>  <TORSDO>
F 16

$$$$
=
 OpenBabel11062412003D

 64 75  0  0  1  0  0  0  0  0999 V2000
  190.2710  175.7430  142.5510 O   0  0  0  0  0  1  0  0  0  0  0  0
  191.4870  177.3970  141.2860 C   0  0  1  0  0  0  0  0  0  0  0  0
  192.2630  176.3920  138.6410 C   0  0  2  0  0  3  0  0  0  0  0  0
  191.4690  177.8030  142.7470 C   0  0  0  0  0  2  0  0  0  0  0  0
  192.7140  177.6810  140.6560 O   0  0  0  0  0  0  0  0  0  0  0  0
  191.5250  176.3270  142.3740 C   0  0  1  0  0  3  0  0  0  0  0  0
  189.8310  176.6880  139.3770 C   0  0  0  0  0  2  0  0  0  0  0  0
  190.2220  177.7110  140.4570 C   0  0  1  0  0  3  0  0  0  0  0  0
  193.0970  176.5490  139.9140 C   0  0  0  0  0  2  0  0  0  0  0  0
  190.9370  175.6980  138.9820 C   0  0  0  0  0  2  0  0  0  0  0  0
  187.8540  177.4360  141.3940 C   0  0  0  0  0  2  0  0  0  0  0  0
  183.6520  178.2950  138.8730 C   0  0  0  0  0  2  0  0  0  0  0  0
  188.6150  179.6620  140.4990 C   0  0  0  0  0  2  0  0  0  0  0  0
  185.7670  177.2340  142.8500 C   0  0  0  0  0  2  0  0  0  0  0  0
  180.6090  176.6350  140.0750 O   0  0  0  0  0  0  0  0  0  0  0  0
  182.4860  177.1840  141.2660 O   0  0  0  0  0  0  0  0  0  0  0  0
  185.5190  179.3760  140.3070 C   0  0  2  0  0  3  0  0  0  0  0  0
  181.7170  177.2360  140.0960 C   0  0  0  0  0  0  0  0  0  0  0  0
  184.2380  178.5440  140.2530 C   0  0  2  0  0  0  0  0  0  0  0  0
  182.1200  178.1230  138.9330 C   0  0  2  0  0  0  0  0  0  0  0  0
  183.8790  177.4760  141.2910 C   0  0  1  0  0  3  0  0  0  0  0  0
  186.8150  178.1650  142.2360 C   0  0  2  0  0  3  0  0  0  0  0  0
  186.3390  179.4880  141.6030 C   0  0  1  0  0  3  0  0  0  0  0  0
  184.1600  179.9950  140.6500 C   0  0  0  0  0  2  0  0  0  0  0  0
  184.3440  177.7430  142.7090 C   0  0  0  0  0  2  0  0  0  0  0  0
  181.6600  177.4710  137.6330 C   0  0  0  0  0  1  0  0  0  0  0  0
  187.5580  180.3830  141.3490 C   0  0  0  0  0  2  0  0  0  0  0  0
  189.0490  178.3720  141.1940 C   0  0  2  0  0  3  0  0  0  0  0  0
  181.4550  179.4220  139.1190 N   0  0  0  0  0  2  0  0  0  0  0  0
  179.9460  181.0040  136.5260 C   0  0  1  0  0  3  0  0  0  0  0  0
  180.0120  182.3790  136.9730 C   0  0  2  0  0  0  0  0  0  0  0  0
  180.4010  181.2560  137.9720 C   0  0  2  0  0  0  0  0  0  0  0  0
  178.9740  181.9440  136.1390 O   0  0  0  0  0  0  0  0  0  0  0  0
  181.7620  181.5550  138.2590 O   0  0  0  0  0  0  0  0  0  0  0  0
  181.5060  180.2460  137.9130 C   0  0  1  0  0  3  0  0  0  0  0  0
  181.1190  183.0530  136.1530 C   0  0  0  0  0  2  0  0  0  0  0  0
  179.8880  185.0450  135.6180 O   0  0  0  0  0  1  0  0  0  0  0  0
  181.0470  184.5750  136.2450 C   0  0  1  0  0  3  0  0  0  0  0  0
  181.0840  185.0260  137.6970 C   0  0  0  0  0  2  0  0  0  0  0  0
  179.7060  185.4850  138.1420 C   0  0  0  0  0  1  0  0  0  0  0  0
  193.0690  175.5910  137.6130 C   0  0  2  0  0  3  0  0  0  0  0  0
  194.1780  173.7040  137.1060 C   0  0  1  0  0  3  0  0  0  0  0  0
  193.4770  174.8910  135.3110 C   0  0  0  0  0  2  0  0  0  0  0  0
  192.5110  175.6920  136.1860 C   0  0  1  0  0  3  0  0  0  0  0  0
  193.6320  173.5840  135.8120 O   0  0  0  0  0  0  0  0  0  0  0  0
  193.2250  174.2440  137.9920 O   0  0  0  0  0  0  0  0  0  0  0  0
  191.2370  175.1210  136.1330 O   0  0  0  0  0  0  0  0  0  0  0  0
  190.5300  175.8460  135.1720 C   0  0  0  0  0  2  0  0  0  0  0  0
  189.8500  177.0500  135.8200 C   0  0  0  0  0  2  0  0  0  0  0  0
  188.4030  177.2040  135.3560 C   0  0  0  0  0  2  0  0  0  0  0  0
  186.4840  177.6110  137.3630 F   0  0  0  0  0  0  0  0  0  0  0  0
  187.7660  175.7200  137.1280 O   0  0  0  0  0  0  0  0  0  0  0  0
  185.4820  175.4930  136.9450 O   0  0  0  0  0  1  0  0  0  0  0  0
  186.5640  176.3590  136.7850 C   0  0  1  0  0  0  0  0  0  0  0  0
  187.5620  176.0020  135.7550 C   0  0  1  0  0  3  0  0  0  0  0  0
  194.6730  172.3550  137.6170 C   0  0  0  0  0  2  0  0  0  0  0  0
  195.6390  171.6690  136.6500 C   0  0  0  0  0  2  0  0  0  0  0  0
  196.9430  171.4670  137.2890 N   0  0  0  0  0  2  0  0  0  0  0  0
  197.8130  173.7500  137.7370 C   0  0  0  0  0  2  0  0  0  0  0  0
  198.9310  172.3580  134.6280 C   0  0  0  0  0  1  0  0  0  0  0  0
  197.8130  174.4330  135.4160 C   0  0  0  0  0  2  0  0  0  0  0  0
  198.2250  174.8750  136.8110 C   0  0  0  0  0  2  0  0  0  0  0  0
  197.9140  172.4950  136.8890 C   0  0  2  0  0  3  0  0  0  0  0  0
  197.7700  172.9120  135.4300 C   0  0  2  0  0  3  0  0  0  0  0  0
  2  6  1  0  0  0  0
  2  4  1  1  0  0  0
  3 10  1  1  0  0  0
  3  9  1  0  0  0  0
  5  2  1  0  0  0  0
  6  1  1  6  0  0  0
  6  4  1  0  0  0  0
  8  7  1  1  0  0  0
  8 28  1  0  0  0  0
  8  2  1  0  0  0  0
  9  5  1  0  0  0  0
 10  7  1  0  0  0  0
 12 20  1  0  0  0  0
 13 27  1  0  0  0  0
 15 18  2  0  0  0  0
 16 21  1  0  0  0  0
 17 24  1  1  0  0  0
 17 23  1  0  0  0  0
 18 16  1  0  0  0  0
 19 12  1  6  0  0  0
 19 17  1  0  0  0  0
 19 24  1  0  0  0  0
 19 21  1  0  0  0  0
 20 26  1  6  0  0  0
 20 29  1  0  0  0  0
 20 18  1  0  0  0  0
 21 25  1  1  0  0  0
 22 11  1  6  0  0  0
 22 14  1  0  0  0  0
 23 27  1  6  0  0  0
 23 22  1  0  0  0  0
 25 14  1  0  0  0  0
 28 13  1  6  0  0  0
 28 11  1  0  0  0  0
 30 33  1  1  0  0  0
 30 31  1  0  0  0  0
 30 32  1  0  0  0  0
 31 36  1  6  0  0  0
 31 32  1  0  0  0  0
 32 34  1  6  0  0  0
 33 31  1  0  0  0  0
 35 32  1  0  0  0  0
 35 34  1  0  0  0  0
 35 29  1  1  0  0  0
 36 38  1  0  0  0  0
 38 37  1  1  0  0  0
 38 39  1  0  0  0  0
 39 40  1  0  0  0  0
 41 46  1  1  0  0  0
 41  3  1  0  0  0  0
 42 56  1  1  0  0  0
 42 46  1  0  0  0  0
 43 45  1  0  0  0  0
 43 44  1  0  0  0  0
 44 47  1  1  0  0  0
 44 41  1  0  0  0  0
 45 42  1  0  0  0  0
 48 49  1  0  0  0  0
 48 47  1  0  0  0  0
 50 49  1  0  0  0  0
 54 53  1  1  0  0  0
 54 52  1  0  0  0  0
 54 51  1  0  0  0  0
 55 50  1  1  0  0  0
 55 54  1  0  0  0  0
 55 52  1  0  0  0  0
 57 58  1  0  0  0  0
 57 56  1  0  0  0  0
 61 64  1  0  0  0  0
 61 62  1  0  0  0  0
 62 59  1  0  0  0  0
 63 58  1  1  0  0  0
 63 59  1  0  0  0  0
 64 60  1  6  0  0  0
 64 63  1  0  0  0  0
M  END
>  <MODEL>
4

>  <REMARK>
 VINA RESULT:      -4.6      3.450     13.146
  Name = 
  16 active torsions:
  status: ('A' for Active; 'I' for Inactive)
    1  A    between atoms: C_2  and  C_24
    2  A    between atoms: N_5  and  C_40
    3  A    between atoms: N_5  and  C_51
    4  A    between atoms: N_13  and  C_29
    5  A    between atoms: N_13  and  C_45
    6  A    between atoms: C_17  and  C_56
    7  A    between atoms: O_20  and  C_26
    8  A    between atoms: O_20  and  C_48
    9  A    between atoms: C_22  and  C_26
   10  A    between atoms: C_22  and  C_31
   11  A    between atoms: C_23  and  C_61
   12  A    between atoms: C_29  and  C_61
   13  A    between atoms: C_31  and  C_54
   14  A    between atoms: C_44  and  C_64
   15  A    between atoms: C_50  and  C_63
   16  A    between atoms: C_56  and  C_64
                            x       y       z     vdW  Elec       q    Type
                         _______ _______ _______ _____ _____    ______ ____

>  <TORSDO>
F 16

$$$$
=
 OpenBabel11062412003D

 64 75  0  0  1  0  0  0  0  0999 V2000
  188.4980  176.6180  140.7220 O   0  0  0  0  0  1  0  0  0  0  0  0
  189.4380  177.6660  138.7650 C   0  0  1  0  0  0  0  0  0  0  0  0
  189.8590  175.7390  136.5930 C   0  0  2  0  0  3  0  0  0  0  0  0
  189.6190  178.5860  139.9570 C   0  0  0  0  0  2  0  0  0  0  0  0
  190.5450  177.6790  137.8940 O   0  0  0  0  0  0  0  0  0  0  0  0
  189.6850  177.0770  140.1520 C   0  0  1  0  0  3  0  0  0  0  0  0
  187.5510  176.3210  137.5320 C   0  0  0  0  0  2  0  0  0  0  0  0
  188.0520  177.6670  138.0840 C   0  0  1  0  0  3  0  0  0  0  0  0
  190.8640  176.3460  137.5730 C   0  0  0  0  0  2  0  0  0  0  0  0
  188.6290  175.2410  137.3650 C   0  0  0  0  0  2  0  0  0  0  0  0
  186.0350  177.8320  139.6530 C   0  0  0  0  0  2  0  0  0  0  0  0
  181.2970  177.1000  138.3240 C   0  0  0  0  0  2  0  0  0  0  0  0
  186.1760  179.2950  137.6100 C   0  0  0  0  0  2  0  0  0  0  0  0
  184.3880  178.3390  141.5370 C   0  0  0  0  0  2  0  0  0  0  0  0
  178.9330  176.1950  140.9810 O   0  0  0  0  0  0  0  0  0  0  0  0
  180.9000  177.3520  141.1700 O   0  0  0  0  0  0  0  0  0  0  0  0
  183.2140  178.8360  138.4560 C   0  0  2  0  0  3  0  0  0  0  0  0
  179.8960  176.7600  140.3940 C   0  0  0  0  0  0  0  0  0  0  0  0
  182.1190  178.0510  139.1780 C   0  0  2  0  0  0  0  0  0  0  0  0
  179.8700  176.9280  138.8860 C   0  0  2  0  0  0  0  0  0  0  0  0
  182.1910  177.6660  140.6590 C   0  0  1  0  0  3  0  0  0  0  0  0
  185.0950  178.8540  140.2820 C   0  0  2  0  0  3  0  0  0  0  0  0
  184.2660  179.6360  139.2420 C   0  0  1  0  0  3  0  0  0  0  0  0
  181.8770  179.4930  138.8160 C   0  0  0  0  0  2  0  0  0  0  0  0
  182.9030  178.6470  141.5680 C   0  0  0  0  0  2  0  0  0  0  0  0
  179.2570  175.6780  138.2610 C   0  0  0  0  0  1  0  0  0  0  0  0
  185.2230  180.3130  138.2530 C   0  0  0  0  0  2  0  0  0  0  0  0
  186.9720  178.5710  138.6950 C   0  0  2  0  0  3  0  0  0  0  0  0
  179.0450  178.1080  138.5880 N   0  0  0  0  0  2  0  0  0  0  0  0
  180.0240  179.6980  135.7570 C   0  0  1  0  0  3  0  0  0  0  0  0
  179.2240  180.9020  135.8310 C   0  0  2  0  0  0  0  0  0  0  0  0
  178.9320  179.7540  136.8360 C   0  0  2  0  0  0  0  0  0  0  0  0
  179.6100  180.3720  134.5940 O   0  0  0  0  0  0  0  0  0  0  0  0
  179.1900  180.3700  138.0920 O   0  0  0  0  0  0  0  0  0  0  0  0
  179.8010  179.1500  137.8980 C   0  0  1  0  0  3  0  0  0  0  0  0
  180.1710  182.0310  136.2560 C   0  0  0  0  0  2  0  0  0  0  0  0
  179.0700  183.4810  134.6890 O   0  0  0  0  0  1  0  0  0  0  0  0
  180.3260  183.0840  135.1620 C   0  0  1  0  0  3  0  0  0  0  0  0
  181.1000  184.2850  135.6810 C   0  0  0  0  0  2  0  0  0  0  0  0
  180.1430  185.3610  136.1660 C   0  0  0  0  0  1  0  0  0  0  0  0
  190.5380  174.6030  135.8220 C   0  0  2  0  0  3  0  0  0  0  0  0
  192.3800  173.3610  135.4800 C   0  0  1  0  0  3  0  0  0  0  0  0
  190.4560  172.4030  134.7690 C   0  0  0  0  0  2  0  0  0  0  0  0
  189.6290  173.3850  135.6010 C   0  0  1  0  0  3  0  0  0  0  0  0
  191.6880  172.1360  135.3980 O   0  0  0  0  0  0  0  0  0  0  0  0
  191.7560  174.2130  136.4130 O   0  0  0  0  0  0  0  0  0  0  0  0
  189.3020  172.8080  136.8310 O   0  0  0  0  0  0  0  0  0  0  0  0
  188.3200  171.8520  136.5570 C   0  0  0  0  0  2  0  0  0  0  0  0
  187.1350  172.5060  135.8510 C   0  0  0  0  0  2  0  0  0  0  0  0
  185.8010  172.0410  136.4320 C   0  0  0  0  0  2  0  0  0  0  0  0
  183.1390  172.7090  135.8470 F   0  0  0  0  0  0  0  0  0  0  0  0
  184.7700  174.2050  136.4620 O   0  0  0  0  0  0  0  0  0  0  0  0
  182.9390  173.9910  137.8420 O   0  0  0  0  0  1  0  0  0  0  0  0
  183.7510  173.3480  136.9080 C   0  0  1  0  0  0  0  0  0  0  0  0
  185.1610  173.1230  137.2870 C   0  0  1  0  0  3  0  0  0  0  0  0
  193.8400  173.1400  135.8570 C   0  0  0  0  0  2  0  0  0  0  0  0
  194.3740  174.1970  136.8240 C   0  0  0  0  0  2  0  0  0  0  0  0
  195.3590  175.0510  136.1550 N   0  0  0  0  0  2  0  0  0  0  0  0
  197.0480  173.5170  135.1720 C   0  0  0  0  0  2  0  0  0  0  0  0
  197.8840  174.6780  138.4600 C   0  0  0  0  0  1  0  0  0  0  0  0
  197.6610  172.5020  137.2820 C   0  0  0  0  0  2  0  0  0  0  0  0
  198.0240  172.5470  135.8060 C   0  0  0  0  0  2  0  0  0  0  0  0
  196.7210  174.5100  136.2730 C   0  0  2  0  0  3  0  0  0  0  0  0
  196.9720  173.8190  137.6080 C   0  0  2  0  0  3  0  0  0  0  0  0
  2  4  1  1  0  0  0
  2  6  1  0  0  0  0
  3 10  1  1  0  0  0
  3  9  1  0  0  0  0
  4  6  1  0  0  0  0
  5  2  1  0  0  0  0
  6  1  1  1  0  0  0
  8  7  1  1  0  0  0
  8 28  1  0  0  0  0
  8  2  1  0  0  0  0
  9  5  1  0  0  0  0
 10  7  1  0  0  0  0
 12 20  1  0  0  0  0
 13 27  1  0  0  0  0
 14 25  1  0  0  0  0
 17 24  1  6  0  0  0
 17 19  1  0  0  0  0
 17 23  1  0  0  0  0
 18 15  2  0  0  0  0
 18 16  1  0  0  0  0
 19 12  1  6  0  0  0
 19 21  1  0  0  0  0
 20 26  1  6  0  0  0
 20 18  1  0  0  0  0
 21 16  1  0  0  0  0
 21 25  1  1  0  0  0
 22 11  1  6  0  0  0
 22 14  1  0  0  0  0
 23 27  1  6  0  0  0
 23 22  1  0  0  0  0
 24 19  1  0  0  0  0
 28 13  1  6  0  0  0
 28 11  1  0  0  0  0
 29 20  1  0  0  0  0
 30 33  1  6  0  0  0
 30 31  1  0  0  0  0
 30 32  1  0  0  0  0
 31 36  1  1  0  0  0
 31 32  1  0  0  0  0
 32 35  1  0  0  0  0
 32 34  1  1  0  0  0
 33 31  1  0  0  0  0
 35 34  1  0  0  0  0
 35 29  1  1  0  0  0
 38 37  1  1  0  0  0
 38 39  1  0  0  0  0
 38 36  1  0  0  0  0
 39 40  1  0  0  0  0
 41 46  1  1  0  0  0
 41  3  1  0  0  0  0
 42 56  1  1  0  0  0
 42 46  1  0  0  0  0
 43 45  1  0  0  0  0
 43 44  1  0  0  0  0
 44 41  1  0  0  0  0
 44 47  1  1  0  0  0
 45 42  1  0  0  0  0
 48 47  1  0  0  0  0
 49 50  1  0  0  0  0
 49 48  1  0  0  0  0
 52 54  1  0  0  0  0
 52 55  1  0  0  0  0
 54 51  1  6  0  0  0
 54 55  1  0  0  0  0
 54 53  1  0  0  0  0
 55 50  1  6  0  0  0
 56 57  1  0  0  0  0
 58 57  1  0  0  0  0
 59 62  1  0  0  0  0
 59 63  1  0  0  0  0
 61 64  1  0  0  0  0
 62 61  1  0  0  0  0
 63 58  1  1  0  0  0
 63 64  1  0  0  0  0
 64 60  1  1  0  0  0
M  END
>  <MODEL>
5

>  <REMARK>
 VINA RESULT:      -4.6      3.712     13.277
  Name = 
  16 active torsions:
  status: ('A' for Active; 'I' for Inactive)
    1  A    between atoms: C_2  and  C_24
    2  A    between atoms: N_5  and  C_40
    3  A    between atoms: N_5  and  C_51
    4  A    between atoms: N_13  and  C_29
    5  A    between atoms: N_13  and  C_45
    6  A    between atoms: C_17  and  C_56
    7  A    between atoms: O_20  and  C_26
    8  A    between atoms: O_20  and  C_48
    9  A    between atoms: C_22  and  C_26
   10  A    between atoms: C_22  and  C_31
   11  A    between atoms: C_23  and  C_61
   12  A    between atoms: C_29  and  C_61
   13  A    between atoms: C_31  and  C_54
   14  A    between atoms: C_44  and  C_64
   15  A    between atoms: C_50  and  C_63
   16  A    between atoms: C_56  and  C_64
                            x       y       z     vdW  Elec       q    Type
                         _______ _______ _______ _____ _____    ______ ____

>  <TORSDO>
F 16

$$$$
=
 OpenBabel11062412003D

 64 75  0  0  1  0  0  0  0  0999 V2000
  189.9670  178.9030  141.2370 O   0  0  0  0  0  1  0  0  0  0  0  0
  188.6360  176.9310  141.6310 C   0  0  1  0  0  0  0  0  0  0  0  0
  186.3550  177.4890  143.3900 C   0  0  2  0  0  3  0  0  0  0  0  0
  189.9840  176.5180  141.0740 C   0  0  0  0  0  2  0  0  0  0  0  0
  188.1620  176.0500  142.6220 O   0  0  0  0  0  0  0  0  0  0  0  0
  189.8860  177.7310  141.9890 C   0  0  1  0  0  3  0  0  0  0  0  0
  186.6480  178.5550  141.0820 C   0  0  0  0  0  2  0  0  0  0  0  0
  187.5820  177.4250  140.6160 C   0  0  1  0  0  3  0  0  0  0  0  0
  187.6940  176.8190  143.7030 C   0  0  0  0  0  2  0  0  0  0  0  0
  186.6030  178.7820  142.6000 C   0  0  0  0  0  2  0  0  0  0  0  0
  187.9450  176.1300  138.4360 C   0  0  0  0  0  2  0  0  0  0  0  0
  192.1890  173.9110  137.0890 C   0  0  0  0  0  2  0  0  0  0  0  0
  189.3890  178.1170  138.9880 C   0  0  0  0  0  2  0  0  0  0  0  0
  187.8550  175.1730  136.0710 C   0  0  0  0  0  2  0  0  0  0  0  0
  191.9530  171.2000  134.6270 O   0  0  0  0  0  0  0  0  0  0  0  0
  190.5160  172.9550  134.9430 O   0  0  0  0  0  0  0  0  0  0  0  0
  190.8760  176.1440  137.0920 C   0  0  2  0  0  3  0  0  0  0  0  0
  191.7220  172.2940  135.2100 C   0  0  0  0  0  0  0  0  0  0  0  0
  191.0890  174.7620  136.4750 C   0  0  2  0  0  0  0  0  0  0  0  0
  192.8020  172.9470  136.0510 C   0  0  2  0  0  0  0  0  0  0  0  0
  189.9760  173.9590  135.7950 C   0  0  1  0  0  3  0  0  0  0  0  0
  188.2670  176.3460  136.9620 C   0  0  2  0  0  3  0  0  0  0  0  0
  189.6470  176.9930  136.7300 C   0  0  1  0  0  3  0  0  0  0  0  0
  191.6370  175.9770  135.7720 C   0  0  0  0  0  2  0  0  0  0  0  0
  188.9200  174.7660  135.0690 C   0  0  0  0  0  2  0  0  0  0  0  0
  193.5680  171.8610  136.8010 C   0  0  0  0  0  1  0  0  0  0  0  0
  189.7090  178.3180  137.5000 C   0  0  0  0  0  2  0  0  0  0  0  0
  188.0040  177.4870  139.1420 C   0  0  2  0  0  3  0  0  0  0  0  0
  193.6990  173.6680  135.1350 N   0  0  0  0  0  2  0  0  0  0  0  0
  196.9980  174.2840  134.6460 C   0  0  1  0  0  3  0  0  0  0  0  0
  197.3030  175.0740  135.8190 C   0  0  2  0  0  0  0  0  0  0  0  0
  195.8160  174.7480  135.5110 C   0  0  2  0  0  0  0  0  0  0  0  0
  198.0130  175.2570  134.6260 O   0  0  0  0  0  0  0  0  0  0  0  0
  195.4210  173.9990  136.6540 O   0  0  0  0  0  0  0  0  0  0  0  0
  195.1080  173.4290  135.4390 C   0  0  1  0  0  3  0  0  0  0  0  0
  198.0770  174.1570  136.7750 C   0  0  0  0  0  2  0  0  0  0  0  0
  198.6650  175.7620  138.4640 O   0  0  0  0  0  1  0  0  0  0  0  0
  197.9260  174.5970  138.2290 C   0  0  1  0  0  3  0  0  0  0  0  0
  196.4610  174.8220  138.5700 C   0  0  0  0  0  2  0  0  0  0  0  0
  196.2870  174.9840  140.0710 C   0  0  0  0  0  1  0  0  0  0  0  0
  185.6160  177.7660  144.7030 C   0  0  2  0  0  3  0  0  0  0  0  0
  185.6800  178.5850  146.7950 C   0  0  1  0  0  3  0  0  0  0  0  0
  183.6030  178.4330  145.9090 C   0  0  0  0  0  2  0  0  0  0  0  0
  184.1850  178.2840  144.5020 C   0  0  1  0  0  3  0  0  0  0  0  0
  184.4360  179.2410  146.7080 O   0  0  0  0  0  0  0  0  0  0  0  0
  186.3420  178.6240  145.5510 O   0  0  0  0  0  0  0  0  0  0  0  0
  184.2170  179.5290  143.8670 O   0  0  0  0  0  0  0  0  0  0  0  0
  182.8950  179.8130  143.5150 C   0  0  0  0  0  2  0  0  0  0  0  0
  182.4670  178.9400  142.3380 C   0  0  0  0  0  2  0  0  0  0  0  0
  181.1380  178.2380  142.6050 C   0  0  0  0  0  2  0  0  0  0  0  0
  181.6240  176.7050  140.3050 F   0  0  0  0  0  0  0  0  0  0  0  0
  180.8830  178.8790  140.3100 O   0  0  0  0  0  0  0  0  0  0  0  0
  179.5100  177.2830  139.3770 O   0  0  0  0  0  1  0  0  0  0  0  0
  180.5120  177.5250  140.3160 C   0  0  1  0  0  0  0  0  0  0  0  0
  180.1720  178.4170  141.4440 C   0  0  1  0  0  3  0  0  0  0  0  0
  186.5520  179.2080  147.8800 C   0  0  0  0  0  2  0  0  0  0  0  0
  187.8170  178.4000  148.1670 C   0  0  0  0  0  2  0  0  0  0  0  0
  188.6980  178.3980  146.9950 N   0  0  0  0  0  2  0  0  0  0  0  0
  190.5590  177.3910  148.2980 C   0  0  0  0  0  2  0  0  0  0  0  0
  190.2550  176.0970  144.9680 C   0  0  0  0  0  1  0  0  0  0  0  0
  192.0220  177.1110  146.3900 C   0  0  0  0  0  2  0  0  0  0  0  0
  191.8880  176.8010  147.8730 C   0  0  0  0  0  2  0  0  0  0  0  0
  189.6870  177.3120  147.0570 C   0  0  2  0  0  3  0  0  0  0  0  0
  190.6110  177.2800  145.8460 C   0  0  2  0  0  3  0  0  0  0  0  0
  2  4  1  6  0  0  0
  2  6  1  0  0  0  0
  2  5  1  0  0  0  0
  3 10  1  1  0  0  0
  3  9  1  0  0  0  0
  3 41  1  0  0  0  0
  4  6  1  0  0  0  0
  5  9  1  0  0  0  0
  6  1  1  6  0  0  0
  7 10  1  0  0  0  0
  8  7  1  1  0  0  0
  8  2  1  0  0  0  0
 13 28  1  0  0  0  0
 15 18  2  0  0  0  0
 16 18  1  0  0  0  0
 16 21  1  0  0  0  0
 17 24  1  6  0  0  0
 18 20  1  0  0  0  0
 19 24  1  6  0  0  0
 19 12  1  0  0  0  0
 19 17  1  0  0  0  0
 20 26  1  1  0  0  0
 20 12  1  0  0  0  0
 21 25  1  6  0  0  0
 21 19  1  0  0  0  0
 22 14  1  6  0  0  0
 22 11  1  0  0  0  0
 23 22  1  0  0  0  0
 23 17  1  0  0  0  0
 23 27  1  1  0  0  0
 25 14  1  0  0  0  0
 27 13  1  0  0  0  0
 28 11  1  1  0  0  0
 28  8  1  0  0  0  0
 29 20  1  0  0  0  0
 30 33  1  6  0  0  0
 30 32  1  0  0  0  0
 30 31  1  0  0  0  0
 31 36  1  1  0  0  0
 32 31  1  0  0  0  0
 32 34  1  1  0  0  0
 33 31  1  0  0  0  0
 35 29  1  1  0  0  0
 35 32  1  0  0  0  0
 35 34  1  0  0  0  0
 36 38  1  0  0  0  0
 38 37  1  6  0  0  0
 38 39  1  0  0  0  0
 39 40  1  0  0  0  0
 41 46  1  6  0  0  0
 42 56  1  1  0  0  0
 43 45  1  0  0  0  0
 44 47  1  1  0  0  0
 44 41  1  0  0  0  0
 44 43  1  0  0  0  0
 45 42  1  0  0  0  0
 46 42  1  0  0  0  0
 48 47  1  0  0  0  0
 49 50  1  0  0  0  0
 49 48  1  0  0  0  0
 51 54  1  0  0  0  0
 52 54  1  0  0  0  0
 52 55  1  0  0  0  0
 54 53  1  6  0  0  0
 54 55  1  0  0  0  0
 55 50  1  1  0  0  0
 56 57  1  0  0  0  0
 58 57  1  0  0  0  0
 61 62  1  0  0  0  0
 62 59  1  0  0  0  0
 63 58  1  6  0  0  0
 63 59  1  0  0  0  0
 64 60  1  6  0  0  0
 64 61  1  0  0  0  0
 64 63  1  0  0  0  0
M  END
>  <MODEL>
6

>  <REMARK>
 VINA RESULT:      -4.5      2.612      5.795
  Name = 
  16 active torsions:
  status: ('A' for Active; 'I' for Inactive)
    1  A    between atoms: C_2  and  C_24
    2  A    between atoms: N_5  and  C_40
    3  A    between atoms: N_5  and  C_51
    4  A    between atoms: N_13  and  C_29
    5  A    between atoms: N_13  and  C_45
    6  A    between atoms: C_17  and  C_56
    7  A    between atoms: O_20  and  C_26
    8  A    between atoms: O_20  and  C_48
    9  A    between atoms: C_22  and  C_26
   10  A    between atoms: C_22  and  C_31
   11  A    between atoms: C_23  and  C_61
   12  A    between atoms: C_29  and  C_61
   13  A    between atoms: C_31  and  C_54
   14  A    between atoms: C_44  and  C_64
   15  A    between atoms: C_50  and  C_63
   16  A    between atoms: C_56  and  C_64
                            x       y       z     vdW  Elec       q    Type
                         _______ _______ _______ _____ _____    ______ ____

>  <TORSDO>
F 16

$$$$
=
 OpenBabel11062412003D

 64 75  0  0  1  0  0  0  0  0999 V2000
  190.9480  177.6210  134.5940 O   0  0  0  0  0  1  0  0  0  0  0  0
  190.5660  175.6710  135.9600 C   0  0  1  0  0  0  0  0  0  0  0  0
  192.7930  175.1810  137.8060 C   0  0  2  0  0  3  0  0  0  0  0  0
  189.6150  175.6450  134.7800 C   0  0  0  0  0  2  0  0  0  0  0  0
  191.0560  174.3930  136.2930 O   0  0  0  0  0  0  0  0  0  0  0  0
  191.0110  176.2270  134.6100 C   0  0  1  0  0  3  0  0  0  0  0  0
  191.3250  177.2740  137.8950 C   0  0  0  0  0  2  0  0  0  0  0  0
  190.1750  176.5690  137.1540 C   0  0  1  0  0  3  0  0  0  0  0  0
  192.4470  174.4950  136.4830 C   0  0  0  0  0  2  0  0  0  0  0  0
  192.7250  176.7040  137.6250 C   0  0  0  0  0  2  0  0  0  0  0  0
  187.8050  176.9730  138.0350 C   0  0  0  0  0  2  0  0  0  0  0  0
  183.7080  174.6620  136.4140 C   0  0  0  0  0  2  0  0  0  0  0  0
  188.3310  177.3260  135.5990 C   0  0  0  0  0  2  0  0  0  0  0  0
  185.6670  177.9000  139.0780 C   0  0  0  0  0  2  0  0  0  0  0  0
  180.8280  174.5670  138.6870 O   0  0  0  0  0  0  0  0  0  0  0  0
  182.5350  176.0940  138.6260 O   0  0  0  0  0  0  0  0  0  0  0  0
  185.3180  176.6490  136.0070 C   0  0  2  0  0  3  0  0  0  0  0  0
  181.8460  175.0020  138.0820 C   0  0  0  0  0  0  0  0  0  0  0  0
  184.1620  176.0570  136.8120 C   0  0  2  0  0  0  0  0  0  0  0  0
  182.2100  174.4490  136.7170 C   0  0  2  0  0  0  0  0  0  0  0  0
  183.8730  176.4220  138.2710 C   0  0  1  0  0  3  0  0  0  0  0  0
  186.6250  177.9270  137.8860 C   0  0  2  0  0  3  0  0  0  0  0  0
  186.0270  177.9350  136.4640 C   0  0  1  0  0  3  0  0  0  0  0  0
  183.8710  177.0760  135.7400 C   0  0  0  0  0  2  0  0  0  0  0  0
  184.2030  177.8430  138.6800 C   0  0  0  0  0  2  0  0  0  0  0  0
  181.9270  172.9500  136.7000 C   0  0  0  0  0  1  0  0  0  0  0  0
  187.1360  178.2800  135.4620 C   0  0  0  0  0  2  0  0  0  0  0  0
  188.8800  177.3810  137.0250 C   0  0  2  0  0  3  0  0  0  0  0  0
  181.3720  175.1400  135.7240 N   0  0  0  0  0  2  0  0  0  0  0  0
  181.1470  178.1060  137.3530 C   0  0  1  0  0  3  0  0  0  0  0  0
  180.7690  178.9840  136.2660 C   0  0  2  0  0  0  0  0  0  0  0  0
  181.2040  177.5310  135.9290 C   0  0  2  0  0  0  0  0  0  0  0  0
  181.5050  179.4660  137.3560 O   0  0  0  0  0  0  0  0  0  0  0  0
  180.0360  176.9930  135.3210 O   0  0  0  0  0  0  0  0  0  0  0  0
  180.5900  176.2210  136.3190 C   0  0  1  0  0  3  0  0  0  0  0  0
  179.2760  179.2840  136.4450 C   0  0  0  0  0  2  0  0  0  0  0  0
  179.0590  181.5640  137.1740 O   0  0  0  0  0  1  0  0  0  0  0  0
  178.9370  180.7230  136.0620 C   0  0  1  0  0  3  0  0  0  0  0  0
  179.8370  181.2030  134.9340 C   0  0  0  0  0  2  0  0  0  0  0  0
  180.1410  182.6820  135.0940 C   0  0  0  0  0  1  0  0  0  0  0  0
  194.1880  174.7300  138.2520 C   0  0  2  0  0  3  0  0  0  0  0  0
  196.3550  174.4340  137.7360 C   0  0  1  0  0  3  0  0  0  0  0  0
  195.9290  174.5780  139.9540 C   0  0  0  0  0  2  0  0  0  0  0  0
  194.5480  175.1740  139.6770 C   0  0  1  0  0  3  0  0  0  0  0  0
  196.8430  174.9560  138.9510 O   0  0  0  0  0  0  0  0  0  0  0  0
  195.1890  175.1200  137.3420 O   0  0  0  0  0  0  0  0  0  0  0  0
  194.6110  176.5680  139.7380 O   0  0  0  0  0  0  0  0  0  0  0  0
  194.0050  176.9280  140.9440 C   0  0  0  0  0  2  0  0  0  0  0  0
  192.7610  177.7710  140.6740 C   0  0  0  0  0  2  0  0  0  0  0  0
  191.8380  177.8270  141.8900 C   0  0  0  0  0  2  0  0  0  0  0  0
  190.3620  176.0700  143.5050 F   0  0  0  0  0  0  0  0  0  0  0  0
  190.1980  176.2130  141.2190 O   0  0  0  0  0  0  0  0  0  0  0  0
  188.3190  176.6980  142.4580 O   0  0  0  0  0  1  0  0  0  0  0  0
  189.7130  176.6820  142.4500 C   0  0  1  0  0  0  0  0  0  0  0  0
  190.3890  177.5880  141.4970 C   0  0  1  0  0  3  0  0  0  0  0  0
  197.4140  174.5150  136.6420 C   0  0  0  0  0  2  0  0  0  0  0  0
  197.3200  173.3700  135.6340 C   0  0  0  0  0  2  0  0  0  0  0  0
  195.9400  172.8850  135.5390 N   0  0  0  0  0  2  0  0  0  0  0  0
  194.5210  170.8710  135.2240 C   0  0  0  0  0  2  0  0  0  0  0  0
  197.4810  170.2690  137.1550 C   0  0  0  0  0  1  0  0  0  0  0  0
  195.0320  169.9140  137.3870 C   0  0  0  0  0  2  0  0  0  0  0  0
  194.3130  169.6360  136.0770 C   0  0  0  0  0  2  0  0  0  0  0  0
  195.8650  171.4220  135.6640 C   0  0  2  0  0  3  0  0  0  0  0  0
  196.1200  170.9330  137.0850 C   0  0  2  0  0  3  0  0  0  0  0  0
  2  4  1  6  0  0  0
  2  5  1  0  0  0  0
  2  8  1  0  0  0  0
  3  9  1  6  0  0  0
  3 41  1  0  0  0  0
  5  9  1  0  0  0  0
  6  1  1  1  0  0  0
  6  4  1  0  0  0  0
  6  2  1  0  0  0  0
  8  7  1  6  0  0  0
 10  3  1  0  0  0  0
 10  7  1  0  0  0  0
 12 20  1  0  0  0  0
 12 19  1  0  0  0  0
 17 24  1  6  0  0  0
 17 23  1  0  0  0  0
 17 19  1  0  0  0  0
 18 16  1  0  0  0  0
 18 15  2  0  0  0  0
 19 24  1  6  0  0  0
 19 21  1  0  0  0  0
 20 26  1  6  0  0  0
 20 18  1  0  0  0  0
 21 16  1  0  0  0  0
 21 25  1  6  0  0  0
 22 11  1  6  0  0  0
 22 14  1  0  0  0  0
 23 27  1  6  0  0  0
 23 22  1  0  0  0  0
 25 14  1  0  0  0  0
 27 13  1  0  0  0  0
 28 13  1  6  0  0  0
 28  8  1  0  0  0  0
 28 11  1  0  0  0  0
 29 20  1  0  0  0  0
 30 33  1  6  0  0  0
 31 36  1  6  0  0  0
 31 30  1  0  0  0  0
 31 33  1  0  0  0  0
 32 34  1  1  0  0  0
 32 31  1  0  0  0  0
 32 35  1  0  0  0  0
 32 30  1  0  0  0  0
 34 35  1  0  0  0  0
 35 29  1  6  0  0  0
 38 36  1  0  0  0  0
 38 37  1  1  0  0  0
 39 40  1  0  0  0  0
 39 38  1  0  0  0  0
 41 46  1  6  0  0  0
 41 44  1  0  0  0  0
 42 56  1  6  0  0  0
 42 45  1  0  0  0  0
 44 47  1  6  0  0  0
 44 43  1  0  0  0  0
 45 43  1  0  0  0  0
 46 42  1  0  0  0  0
 47 48  1  0  0  0  0
 49 48  1  0  0  0  0
 49 50  1  0  0  0  0
 52 55  1  0  0  0  0
 52 54  1  0  0  0  0
 54 53  1  1  0  0  0
 54 51  1  0  0  0  0
 55 50  1  1  0  0  0
 55 54  1  0  0  0  0
 57 56  1  0  0  0  0
 58 57  1  0  0  0  0
 59 63  1  0  0  0  0
 59 62  1  0  0  0  0
 62 61  1  0  0  0  0
 63 58  1  1  0  0  0
 63 64  1  0  0  0  0
 64 60  1  6  0  0  0
 64 61  1  0  0  0  0
M  END
>  <MODEL>
7

>  <REMARK>
 VINA RESULT:      -4.1      3.368     12.205
  Name = 
  16 active torsions:
  status: ('A' for Active; 'I' for Inactive)
    1  A    between atoms: C_2  and  C_24
    2  A    between atoms: N_5  and  C_40
    3  A    between atoms: N_5  and  C_51
    4  A    between atoms: N_13  and  C_29
    5  A    between atoms: N_13  and  C_45
    6  A    between atoms: C_17  and  C_56
    7  A    between atoms: O_20  and  C_26
    8  A    between atoms: O_20  and  C_48
    9  A    between atoms: C_22  and  C_26
   10  A    between atoms: C_22  and  C_31
   11  A    between atoms: C_23  and  C_61
   12  A    between atoms: C_29  and  C_61
   13  A    between atoms: C_31  and  C_54
   14  A    between atoms: C_44  and  C_64
   15  A    between atoms: C_50  and  C_63
   16  A    between atoms: C_56  and  C_64
                            x       y       z     vdW  Elec       q    Type
                         _______ _______ _______ _____ _____    ______ ____

>  <TORSDO>
F 16

$$$$
