=
 OpenBabel11062417553D

 39 44  0  0  1  0  0  0  0  0999 V2000
  186.9080  178.9550  147.5230 N   0  0  0  0  0  0  0  0  0  0  0  0
  185.9410  177.6230  145.6900 C   0  0  1  0  0  3  0  0  0  0  0  0
  187.3590  177.3140  145.2920 C   0  0  0  0  0  0  0  0  0  0  0  0
  185.8550  178.4750  146.9290 C   0  0  0  0  0  3  0  0  0  0  0  0
  188.4940  177.9380  146.0110 C   0  0  0  0  0  0  0  0  0  0  0  0
  188.2450  178.7110  147.0690 C   0  0  0  0  0  3  0  0  0  0  0  0
  187.5650  176.5150  144.3420 O   0  0  0  0  0  0  0  0  0  0  0  0
  183.9710  178.8950  144.7290 C   0  0  0  0  0  0  0  0  0  0  0  0
  185.2530  178.2770  144.5850 N   0  0  0  0  0  2  0  0  0  0  0  0
  183.4030  178.9290  145.8540 O   0  0  0  0  0  0  0  0  0  0  0  0
  182.3020  178.5640  142.8990 C   0  0  2  0  0  0  0  0  0  0  0  0
  181.2380  179.4400  143.0950 C   0  0  1  0  0  3  0  0  0  0  0  0
  183.7060  178.8240  142.3230 C   0  0  0  0  0  2  0  0  0  0  0  0
  183.3220  179.5350  143.5430 C   0  0  2  0  0  3  0  0  0  0  0  0
  181.4670  179.0200  141.7160 N   0  0  0  0  0  0  0  0  0  0  0  0
  179.8100  178.5410  143.7630 S   0  0  0  0  0  1  0  0  0  0  0  0
  181.6960  179.9100  139.4500 C   0  0  0  0  0  3  0  0  0  0  0  0
  179.8050  178.0710  138.5180 C   0  0  0  0  0  3  0  0  0  0  0  0
  180.0250  178.9770  136.2930 O   0  0  0  0  0  1  0  0  0  0  0  0
  180.3890  178.9820  137.6330 C   0  0  0  0  0  0  0  0  0  0  0  0
  181.3330  179.9030  138.1000 C   0  0  0  0  0  3  0  0  0  0  0  0
  181.1120  178.9990  140.3350 C   0  0  0  0  0  0  0  0  0  0  0  0
  180.1660  178.0800  139.8700 C   0  0  0  0  0  3  0  0  0  0  0  0
  189.9310  177.7360  145.6200 C   0  0  2  0  0  3  0  0  0  0  0  0
  190.1820  175.9370  142.5950 C   0  0  0  0  0  2  0  0  0  0  0  0
  190.5140  179.4510  144.0370 O   0  0  0  0  0  0  0  0  0  0  0  0
  190.5000  176.9590  141.7240 C   0  0  2  0  0  3  0  0  0  0  0  0
  190.2840  178.2310  144.2470 C   0  0  0  0  0  0  0  0  0  0  0  0
  190.3240  177.3090  143.1640 N   0  0  0  0  0  0  0  0  0  0  0  0
  189.2720  177.4070  140.9580 C   0  0  0  0  0  2  0  0  0  0  0  0
  187.3620  178.5360  139.0960 O   0  0  0  0  0  1  0  0  0  0  0  0
  189.6800  178.0760  139.7320 N   0  0  0  0  0  2  0  0  0  0  0  0
  189.1190  179.2100  137.7820 O   0  0  0  0  0  0  0  0  0  0  0  0
  188.7250  178.6330  138.8300 C   0  0  0  0  0  0  0  0  0  0  0  0
  191.3300  175.3120  147.8740 N   0  0  0  0  0  2  0  0  0  0  0  0
  192.0110  176.2760  145.8100 C   0  0  0  0  0  2  0  0  0  0  0  0
  190.2570  176.0970  147.4120 N   0  0  0  0  0  2  0  0  0  0  0  0
  192.5040  175.7170  147.1160 C   0  0  0  0  0  2  0  0  0  0  0  0
  190.5180  176.3720  146.0070 C   0  0  1  0  0  3  0  0  0  0  0  0
  2  9  1  6  0  0  0
  2  4  1  0  0  0  0
  3  2  1  0  0  0  0
  3  5  1  0  0  0  0
  4  1  2  0  0  0  0
  5  6  2  0  0  0  0
  6  1  1  0  0  0  0
  7  3  2  0  0  0  0
  8 10  2  0  0  0  0
  9  8  1  0  0  0  0
 11 13  1  1  0  0  0
 11 12  1  0  0  0  0
 11 14  1  0  0  0  0
 12 16  1  1  0  0  0
 13 14  1  0  0  0  0
 14  8  1  1  0  0  0
 15 11  1  0  0  0  0
 15 12  1  0  0  0  0
 17 22  1  0  0  0  0
 18 23  1  0  0  0  0
 19 20  1  0  0  0  0
 20 21  1  0  0  0  0
 20 18  2  0  0  0  0
 21 17  2  0  0  0  0
 22 15  1  0  0  0  0
 23 22  2  0  0  0  0
 24 28  1  6  0  0  0
 24  5  1  0  0  0  0
 25 29  1  0  0  0  0
 26 28  2  0  0  0  0
 27 30  1  6  0  0  0
 27 25  1  0  0  0  0
 27 29  1  0  0  0  0
 29 28  1  0  0  0  0
 32 30  1  0  0  0  0
 33 34  2  0  0  0  0
 34 31  1  0  0  0  0
 34 32  1  0  0  0  0
 36 39  1  0  0  0  0
 36 38  1  0  0  0  0
 37 35  1  0  0  0  0
 38 35  1  0  0  0  0
 39 24  1  1  0  0  0
 39 37  1  0  0  0  0
M  END
>  <MODEL>
1

>  <REMARK>
 VINA RESULT:      -8.4      0.000      0.000
  Name = 
  8 active torsions:
  status: ('A' for Active; 'I' for Inactive)
    1  A    between atoms: C_11  and  C_17
    2  A    between atoms: C_11  and  N_22
    3  A    between atoms: C_12  and  N_23
    4  A    between atoms: C_14  and  C_24
    5  A    between atoms: C_21  and  C_33
    6  A    between atoms: C_25  and  N_34
    7  A    between atoms: C_26  and  C_33
    8  A    between atoms: C_33  and  C_37
                            x       y       z     vdW  Elec       q    Type
                         _______ _______ _______ _____ _____    ______ ____

>  <TORSDO>
F 8

$$$$
=
 OpenBabel11062417553D

 39 44  0  0  1  0  0  0  0  0999 V2000
  180.5990  178.3140  141.1100 N   0  0  0  0  0  0  0  0  0  0  0  0
  183.0040  178.8390  141.2070 C   0  0  1  0  0  3  0  0  0  0  0  0
  183.0610  178.4040  139.7680 C   0  0  0  0  0  0  0  0  0  0  0  0
  181.6120  178.7790  141.7790 C   0  0  0  0  0  3  0  0  0  0  0  0
  181.8580  177.8550  139.1010 C   0  0  0  0  0  0  0  0  0  0  0  0
  180.7030  177.8280  139.7650 C   0  0  0  0  0  3  0  0  0  0  0  0
  184.1460  178.5190  139.1400 O   0  0  0  0  0  0  0  0  0  0  0  0
  185.2470  178.4170  142.3090 C   0  0  0  0  0  0  0  0  0  0  0  0
  183.9070  178.0190  142.0040 N   0  0  0  0  0  2  0  0  0  0  0  0
  185.6830  179.5360  141.9250 O   0  0  0  0  0  0  0  0  0  0  0  0
  186.8560  178.3190  144.2180 C   0  0  2  0  0  0  0  0  0  0  0  0
  186.2900  177.5720  145.2470 C   0  0  1  0  0  3  0  0  0  0  0  0
  187.5250  177.8570  142.9100 C   0  0  0  0  0  2  0  0  0  0  0  0
  186.1180  177.5130  143.1210 C   0  0  2  0  0  3  0  0  0  0  0  0
  187.7490  177.6000  145.2130 N   0  0  0  0  0  0  0  0  0  0  0  0
  185.7020  178.6740  146.5630 S   0  0  0  0  0  1  0  0  0  0  0  0
  190.1120  177.0480  144.9090 C   0  0  0  0  0  3  0  0  0  0  0  0
  190.4280  176.8020  147.6780 C   0  0  0  0  0  3  0  0  0  0  0  0
  192.7520  176.2360  147.3580 O   0  0  0  0  0  1  0  0  0  0  0  0
  191.5160  176.5820  146.8280 C   0  0  0  0  0  0  0  0  0  0  0  0
  191.3570  176.7040  145.4430 C   0  0  0  0  0  3  0  0  0  0  0  0
  189.0240  177.2680  145.7590 C   0  0  0  0  0  0  0  0  0  0  0  0
  189.1820  177.1440  147.1430 C   0  0  0  0  0  3  0  0  0  0  0  0
  181.8630  177.3310  137.6910 C   0  0  2  0  0  3  0  0  0  0  0  0
  184.8520  177.2630  135.8190 C   0  0  0  0  0  2  0  0  0  0  0  0
  182.6020  175.0580  137.9680 O   0  0  0  0  0  0  0  0  0  0  0  0
  185.2420  175.9550  136.0200 C   0  0  2  0  0  3  0  0  0  0  0  0
  182.8060  176.1880  137.4490 C   0  0  0  0  0  0  0  0  0  0  0  0
  183.9630  176.3980  136.6490 N   0  0  0  0  0  0  0  0  0  0  0  0
  186.3120  175.8770  137.0890 C   0  0  0  0  0  2  0  0  0  0  0  0
  187.3790  178.2240  138.4090 O   0  0  0  0  0  1  0  0  0  0  0  0
  187.5140  176.5540  136.6240 N   0  0  0  0  0  2  0  0  0  0  0  0
  189.0750  178.2590  136.8630 O   0  0  0  0  0  0  0  0  0  0  0  0
  188.0290  177.7050  137.2920 C   0  0  0  0  0  0  0  0  0  0  0  0
  180.5530  180.2200  136.0050 N   0  0  0  0  0  2  0  0  0  0  0  0
  181.0890  177.9960  135.3570 C   0  0  0  0  0  2  0  0  0  0  0  0
  181.1790  179.6100  137.1060 N   0  0  0  0  0  2  0  0  0  0  0  0
  180.1610  179.1510  135.0980 C   0  0  0  0  0  2  0  0  0  0  0  0
  181.8320  178.4110  136.6020 C   0  0  1  0  0  3  0  0  0  0  0  0
  1  4  2  0  0  0  0
  2  4  1  0  0  0  0
  2  9  1  1  0  0  0
  3  2  1  0  0  0  0
  5  6  2  0  0  0  0
  5  3  1  0  0  0  0
  6  1  1  0  0  0  0
  7  3  2  0  0  0  0
  9  8  1  0  0  0  0
 10  8  2  0  0  0  0
 11 13  1  1  0  0  0
 11 15  1  0  0  0  0
 11 12  1  0  0  0  0
 12 16  1  1  0  0  0
 13 14  1  0  0  0  0
 14  8  1  6  0  0  0
 14 11  1  0  0  0  0
 15 12  1  0  0  0  0
 15 22  1  0  0  0  0
 17 21  2  0  0  0  0
 17 22  1  0  0  0  0
 20 19  1  0  0  0  0
 20 18  2  0  0  0  0
 21 20  1  0  0  0  0
 22 23  2  0  0  0  0
 23 18  1  0  0  0  0
 24 28  1  6  0  0  0
 24  5  1  0  0  0  0
 25 27  1  0  0  0  0
 25 29  1  0  0  0  0
 27 29  1  0  0  0  0
 27 30  1  1  0  0  0
 28 26  2  0  0  0  0
 29 28  1  0  0  0  0
 32 30  1  0  0  0  0
 32 34  1  0  0  0  0
 33 34  2  0  0  0  0
 34 31  1  0  0  0  0
 35 37  1  0  0  0  0
 36 39  1  0  0  0  0
 38 36  1  0  0  0  0
 38 35  1  0  0  0  0
 39 37  1  0  0  0  0
 39 24  1  1  0  0  0
M  END
>  <MODEL>
2

>  <REMARK>
 VINA RESULT:      -8.1      3.168      9.728
  Name = 
  8 active torsions:
  status: ('A' for Active; 'I' for Inactive)
    1  A    between atoms: C_11  and  C_17
    2  A    between atoms: C_11  and  N_22
    3  A    between atoms: C_12  and  N_23
    4  A    between atoms: C_14  and  C_24
    5  A    between atoms: C_21  and  C_33
    6  A    between atoms: C_25  and  N_34
    7  A    between atoms: C_26  and  C_33
    8  A    between atoms: C_33  and  C_37
                            x       y       z     vdW  Elec       q    Type
                         _______ _______ _______ _____ _____    ______ ____

>  <TORSDO>
F 8

$$$$
=
 OpenBabel11062417553D

 39 44  0  0  1  0  0  0  0  0999 V2000
  187.6940  177.9150  134.9240 N   0  0  0  0  0  0  0  0  0  0  0  0
  188.3510  176.7490  136.9930 C   0  0  1  0  0  3  0  0  0  0  0  0
  187.1830  175.8350  136.7370 C   0  0  0  0  0  0  0  0  0  0  0  0
  188.5260  177.7860  135.9140 C   0  0  0  0  0  3  0  0  0  0  0  0
  186.2680  176.0850  135.5980 C   0  0  0  0  0  0  0  0  0  0  0  0
  186.5410  177.0810  134.7540 C   0  0  0  0  0  3  0  0  0  0  0  0
  186.9980  174.8540  137.5020 O   0  0  0  0  0  0  0  0  0  0  0  0
  189.2510  177.4830  139.2450 C   0  0  0  0  0  0  0  0  0  0  0  0
  188.1910  177.3970  138.2880 N   0  0  0  0  0  2  0  0  0  0  0  0
  190.3950  177.0260  138.9720 O   0  0  0  0  0  0  0  0  0  0  0  0
  188.5610  177.1120  141.6170 C   0  0  2  0  0  0  0  0  0  0  0  0
  189.6400  177.3920  142.4500 C   0  0  1  0  0  3  0  0  0  0  0  0
  187.5860  178.0660  140.9030 C   0  0  0  0  0  2  0  0  0  0  0  0
  189.0060  178.1510  140.5600 C   0  0  2  0  0  3  0  0  0  0  0  0
  188.3190  177.5470  143.0510 N   0  0  0  0  0  0  0  0  0  0  0  0
  190.3860  175.8460  143.0400 S   0  0  0  0  0  1  0  0  0  0  0  0
  187.9600  177.6740  145.4660 C   0  0  0  0  0  3  0  0  0  0  0  0
  185.3090  178.4640  145.0490 C   0  0  0  0  0  3  0  0  0  0  0  0
  184.9660  178.5600  147.4360 O   0  0  0  0  0  1  0  0  0  0  0  0
  185.7980  178.3180  146.3510 C   0  0  0  0  0  0  0  0  0  0  0  0
  187.1250  177.9210  146.5590 C   0  0  0  0  0  3  0  0  0  0  0  0
  187.4710  177.8190  144.1650 C   0  0  0  0  0  0  0  0  0  0  0  0
  186.1460  178.2130  143.9560 C   0  0  0  0  0  3  0  0  0  0  0  0
  185.0410  175.2610  135.3280 C   0  0  2  0  0  3  0  0  0  0  0  0
  183.4560  176.0800  138.3720 C   0  0  0  0  0  2  0  0  0  0  0  0
  183.0570  176.4060  134.5940 O   0  0  0  0  0  0  0  0  0  0  0  0
  182.3420  176.7430  137.9010 C   0  0  2  0  0  3  0  0  0  0  0  0
  183.7410  175.9750  135.5600 C   0  0  0  0  0  0  0  0  0  0  0  0
  183.2950  176.1960  136.8930 N   0  0  0  0  0  0  0  0  0  0  0  0
  182.5360  178.2430  137.9940 C   0  0  0  0  0  2  0  0  0  0  0  0
  185.1180  179.3740  138.6630 O   0  0  0  0  0  0  0  0  0  0  0  0
  182.9010  178.6030  139.3570 N   0  0  0  0  0  2  0  0  0  0  0  0
  184.4500  179.4710  140.8560 O   0  0  0  0  0  1  0  0  0  0  0  0
  184.1740  179.1670  139.6650 C   0  0  0  0  0  0  0  0  0  0  0  0
  185.3610  171.6970  135.0040 N   0  0  0  0  0  2  0  0  0  0  0  0
  183.7580  173.1570  135.9790 C   0  0  0  0  0  2  0  0  0  0  0  0
  185.8920  172.9970  134.9320 N   0  0  0  0  0  2  0  0  0  0  0  0
  183.9400  171.8370  135.2810 C   0  0  0  0  0  2  0  0  0  0  0  0
  185.1080  173.8170  135.8440 C   0  0  1  0  0  3  0  0  0  0  0  0
  1  4  2  0  0  0  0
  2  9  1  1  0  0  0
  3  2  1  0  0  0  0
  3  7  2  0  0  0  0
  4  2  1  0  0  0  0
  5  3  1  0  0  0  0
  6  1  1  0  0  0  0
  6  5  2  0  0  0  0
  9  8  1  0  0  0  0
 10  8  2  0  0  0  0
 11 13  1  6  0  0  0
 11 12  1  0  0  0  0
 11 15  1  0  0  0  0
 12 16  1  1  0  0  0
 12 15  1  0  0  0  0
 14  8  1  6  0  0  0
 14 13  1  0  0  0  0
 14 11  1  0  0  0  0
 15 22  1  0  0  0  0
 17 21  1  0  0  0  0
 18 20  1  0  0  0  0
 20 21  2  0  0  0  0
 20 19  1  0  0  0  0
 22 17  2  0  0  0  0
 23 22  1  0  0  0  0
 23 18  2  0  0  0  0
 24 28  1  1  0  0  0
 24  5  1  0  0  0  0
 26 28  2  0  0  0  0
 27 30  1  1  0  0  0
 27 25  1  0  0  0  0
 28 29  1  0  0  0  0
 29 27  1  0  0  0  0
 29 25  1  0  0  0  0
 30 32  1  0  0  0  0
 31 34  2  0  0  0  0
 32 34  1  0  0  0  0
 34 33  1  0  0  0  0
 35 38  1  0  0  0  0
 37 35  1  0  0  0  0
 37 39  1  0  0  0  0
 38 36  1  0  0  0  0
 39 24  1  6  0  0  0
 39 36  1  0  0  0  0
M  END
>  <MODEL>
3

>  <REMARK>
 VINA RESULT:      -7.9      4.416      9.745
  Name = 
  8 active torsions:
  status: ('A' for Active; 'I' for Inactive)
    1  A    between atoms: C_11  and  C_17
    2  A    between atoms: C_11  and  N_22
    3  A    between atoms: C_12  and  N_23
    4  A    between atoms: C_14  and  C_24
    5  A    between atoms: C_21  and  C_33
    6  A    between atoms: C_25  and  N_34
    7  A    between atoms: C_26  and  C_33
    8  A    between atoms: C_33  and  C_37
                            x       y       z     vdW  Elec       q    Type
                         _______ _______ _______ _____ _____    ______ ____

>  <TORSDO>
F 8

$$$$
=
 OpenBabel11062417553D

 39 44  0  0  1  0  0  0  0  0999 V2000
  182.7860  176.5060  140.1390 N   0  0  0  0  0  0  0  0  0  0  0  0
  183.6540  178.7580  140.6340 C   0  0  1  0  0  3  0  0  0  0  0  0
  183.9740  178.8540  139.1670 C   0  0  0  0  0  0  0  0  0  0  0  0
  182.9800  177.4610  140.9990 C   0  0  0  0  0  3  0  0  0  0  0  0
  183.7480  177.6960  138.2710 C   0  0  0  0  0  0  0  0  0  0  0  0
  183.1790  176.5950  138.7640 C   0  0  0  0  0  3  0  0  0  0  0  0
  184.4330  179.9340  138.7130 O   0  0  0  0  0  0  0  0  0  0  0  0
  184.9280  178.6880  142.8240 C   0  0  0  0  0  0  0  0  0  0  0  0
  184.8730  178.9240  141.4140 N   0  0  0  0  0  2  0  0  0  0  0  0
  183.9070  178.2780  143.4410 O   0  0  0  0  0  0  0  0  0  0  0  0
  187.1010  177.6290  143.4560 C   0  0  2  0  0  0  0  0  0  0  0  0
  188.1370  178.3190  142.8320 C   0  0  1  0  0  3  0  0  0  0  0  0
  186.2810  177.9920  144.7080 C   0  0  0  0  0  2  0  0  0  0  0  0
  186.2140  178.8940  143.5580 C   0  0  2  0  0  3  0  0  0  0  0  0
  188.4900  177.6280  144.0690 N   0  0  0  0  0  0  0  0  0  0  0  0
  188.7540  177.3650  141.4170 S   0  0  0  0  0  1  0  0  0  0  0  0
  189.0900  177.1910  146.3980 C   0  0  0  0  0  3  0  0  0  0  0  0
  191.6690  176.4450  145.6120 C   0  0  0  0  0  3  0  0  0  0  0  0
  192.2510  176.0420  147.9190 O   0  0  0  0  0  1  0  0  0  0  0  0
  191.3180  176.4260  146.9650 C   0  0  0  0  0  0  0  0  0  0  0  0
  190.0270  176.8010  147.3580 C   0  0  0  0  0  3  0  0  0  0  0  0
  189.4410  177.2100  145.0450 C   0  0  0  0  0  0  0  0  0  0  0  0
  190.7310  176.8380  144.6520 C   0  0  0  0  0  3  0  0  0  0  0  0
  184.1160  177.6960  136.8130 C   0  0  2  0  0  3  0  0  0  0  0  0
  183.1360  174.5060  135.6670 C   0  0  0  0  0  2  0  0  0  0  0  0
  182.2260  178.2000  135.4130 O   0  0  0  0  0  0  0  0  0  0  0  0
  182.0490  174.8450  134.8880 C   0  0  2  0  0  3  0  0  0  0  0  0
  182.9980  177.3230  135.8840 C   0  0  0  0  0  0  0  0  0  0  0  0
  182.7900  175.9530  135.5590 N   0  0  0  0  0  0  0  0  0  0  0  0
  180.7580  174.5950  135.6390 C   0  0  0  0  0  2  0  0  0  0  0  0
  180.3150  173.8480  138.4020 O   0  0  0  0  0  1  0  0  0  0  0  0
  180.7080  173.2060  136.0730 N   0  0  0  0  0  2  0  0  0  0  0  0
  180.4390  171.6450  137.7730 O   0  0  0  0  0  0  0  0  0  0  0  0
  180.4810  172.8580  137.4380 C   0  0  0  0  0  0  0  0  0  0  0  0
  187.7060  177.5620  136.7800 N   0  0  0  0  0  2  0  0  0  0  0  0
  186.0060  177.4330  135.1240 C   0  0  0  0  0  2  0  0  0  0  0  0
  186.4740  177.5270  137.4580 N   0  0  0  0  0  2  0  0  0  0  0  0
  187.4140  177.8860  135.3920 C   0  0  0  0  0  2  0  0  0  0  0  0
  185.4820  177.0750  136.4930 C   0  0  1  0  0  3  0  0  0  0  0  0
  1  4  2  0  0  0  0
  2  4  1  0  0  0  0
  2  9  1  1  0  0  0
  3  2  1  0  0  0  0
  5  6  2  0  0  0  0
  5  3  1  0  0  0  0
  6  1  1  0  0  0  0
  7  3  2  0  0  0  0
  8 10  2  0  0  0  0
  9  8  1  0  0  0  0
 11 14  1  0  0  0  0
 11 15  1  0  0  0  0
 11 13  1  6  0  0  0
 12 16  1  6  0  0  0
 12 11  1  0  0  0  0
 12 15  1  0  0  0  0
 14  8  1  6  0  0  0
 14 13  1  0  0  0  0
 15 22  1  0  0  0  0
 17 21  1  0  0  0  0
 18 20  1  0  0  0  0
 20 21  2  0  0  0  0
 20 19  1  0  0  0  0
 22 17  2  0  0  0  0
 23 22  1  0  0  0  0
 23 18  2  0  0  0  0
 24 28  1  6  0  0  0
 24  5  1  0  0  0  0
 26 28  2  0  0  0  0
 27 29  1  0  0  0  0
 27 30  1  1  0  0  0
 27 25  1  0  0  0  0
 29 25  1  0  0  0  0
 29 28  1  0  0  0  0
 30 32  1  0  0  0  0
 32 34  1  0  0  0  0
 34 33  2  0  0  0  0
 34 31  1  0  0  0  0
 35 37  1  0  0  0  0
 36 38  1  0  0  0  0
 36 39  1  0  0  0  0
 38 35  1  0  0  0  0
 39 24  1  1  0  0  0
 39 37  1  0  0  0  0
M  END
>  <MODEL>
4

>  <REMARK>
 VINA RESULT:      -7.7      4.082      9.946
  Name = 
  8 active torsions:
  status: ('A' for Active; 'I' for Inactive)
    1  A    between atoms: C_11  and  C_17
    2  A    between atoms: C_11  and  N_22
    3  A    between atoms: C_12  and  N_23
    4  A    between atoms: C_14  and  C_24
    5  A    between atoms: C_21  and  C_33
    6  A    between atoms: C_25  and  N_34
    7  A    between atoms: C_26  and  C_33
    8  A    between atoms: C_33  and  C_37
                            x       y       z     vdW  Elec       q    Type
                         _______ _______ _______ _____ _____    ______ ____

>  <TORSDO>
F 8

$$$$
=
 OpenBabel11062417553D

 39 44  0  0  1  0  0  0  0  0999 V2000
  187.5390  178.9420  136.2420 N   0  0  0  0  0  0  0  0  0  0  0  0
  189.0610  177.5880  137.6280 C   0  0  1  0  0  3  0  0  0  0  0  0
  188.0230  176.5030  137.5410 C   0  0  0  0  0  0  0  0  0  0  0  0
  188.6840  178.8200  136.8460 C   0  0  0  0  0  3  0  0  0  0  0  0
  186.7320  176.7510  136.8580 C   0  0  0  0  0  0  0  0  0  0  0  0
  186.5340  177.9200  136.2480 C   0  0  0  0  0  3  0  0  0  0  0  0
  188.2710  175.3810  138.0530 O   0  0  0  0  0  0  0  0  0  0  0  0
  188.2470  178.3690  139.8970 C   0  0  0  0  0  0  0  0  0  0  0  0
  189.2930  177.9340  139.0240 N   0  0  0  0  0  2  0  0  0  0  0  0
  187.0560  178.4260  139.4850 O   0  0  0  0  0  0  0  0  0  0  0  0
  188.5330  177.4540  142.2040 C   0  0  2  0  0  0  0  0  0  0  0  0
  189.8630  177.5990  142.5850 C   0  0  1  0  0  3  0  0  0  0  0  0
  187.3950  178.4900  142.1600 C   0  0  0  0  0  2  0  0  0  0  0  0
  188.5660  178.7200  141.3140 C   0  0  2  0  0  3  0  0  0  0  0  0
  188.8940  177.5520  143.6750 N   0  0  0  0  0  0  0  0  0  0  0  0
  190.7190  176.0020  142.4770 S   0  0  0  0  0  1  0  0  0  0  0  0
  187.2770  177.8770  145.4800 C   0  0  0  0  0  3  0  0  0  0  0  0
  189.2180  177.1760  147.3690 C   0  0  0  0  0  3  0  0  0  0  0  0
  187.6160  177.5250  149.1390 O   0  0  0  0  0  1  0  0  0  0  0  0
  187.9300  177.5230  147.7860 C   0  0  0  0  0  0  0  0  0  0  0  0
  186.9590  177.8760  146.8410 C   0  0  0  0  0  3  0  0  0  0  0  0
  188.5650  177.5300  145.0620 C   0  0  0  0  0  0  0  0  0  0  0  0
  189.5360  177.1810  146.0060 C   0  0  0  0  0  3  0  0  0  0  0  0
  185.6210  175.7390  136.8000 C   0  0  2  0  0  3  0  0  0  0  0  0
  184.5590  172.3960  137.1720 C   0  0  0  0  0  2  0  0  0  0  0  0
  186.5770  174.6680  134.8690 O   0  0  0  0  0  0  0  0  0  0  0  0
  185.1140  171.8310  136.0430 C   0  0  2  0  0  3  0  0  0  0  0  0
  185.8990  174.5510  135.9250 C   0  0  0  0  0  0  0  0  0  0  0  0
  185.3590  173.2840  136.2790 N   0  0  0  0  0  0  0  0  0  0  0  0
  184.0710  171.6820  134.9550 C   0  0  0  0  0  2  0  0  0  0  0  0
  181.2290  172.2410  135.0100 O   0  0  0  0  0  0  0  0  0  0  0  0
  183.0880  170.6860  135.3560 N   0  0  0  0  0  2  0  0  0  0  0  0
  180.8710  170.0880  135.7180 O   0  0  0  0  0  1  0  0  0  0  0  0
  181.6910  170.9780  135.3700 C   0  0  0  0  0  0  0  0  0  0  0  0
  182.1640  176.1240  137.6970 N   0  0  0  0  0  2  0  0  0  0  0  0
  183.3310  175.6250  135.6870 C   0  0  0  0  0  2  0  0  0  0  0  0
  183.5350  176.2680  137.9720 N   0  0  0  0  0  2  0  0  0  0  0  0
  182.0600  175.3790  136.4510 C   0  0  0  0  0  2  0  0  0  0  0  0
  184.2120  176.3360  136.6850 C   0  0  1  0  0  3  0  0  0  0  0  0
  1  6  1  0  0  0  0
  1  4  2  0  0  0  0
  2  9  1  1  0  0  0
  3  2  1  0  0  0  0
  3  7  2  0  0  0  0
  4  2  1  0  0  0  0
  5  3  1  0  0  0  0
  6  5  2  0  0  0  0
  9  8  1  0  0  0  0
 10  8  2  0  0  0  0
 11 13  1  6  0  0  0
 11 12  1  0  0  0  0
 11 15  1  0  0  0  0
 12 16  1  1  0  0  0
 12 15  1  0  0  0  0
 14  8  1  6  0  0  0
 14 13  1  0  0  0  0
 14 11  1  0  0  0  0
 15 22  1  0  0  0  0
 17 21  1  0  0  0  0
 18 20  1  0  0  0  0
 20 19  1  0  0  0  0
 21 20  2  0  0  0  0
 22 17  2  0  0  0  0
 22 23  1  0  0  0  0
 23 18  2  0  0  0  0
 24 28  1  6  0  0  0
 24  5  1  0  0  0  0
 26 28  2  0  0  0  0
 27 30  1  6  0  0  0
 27 29  1  0  0  0  0
 27 25  1  0  0  0  0
 28 29  1  0  0  0  0
 29 25  1  0  0  0  0
 30 32  1  0  0  0  0
 31 34  2  0  0  0  0
 32 34  1  0  0  0  0
 34 33  1  0  0  0  0
 35 37  1  0  0  0  0
 36 38  1  0  0  0  0
 36 39  1  0  0  0  0
 38 35  1  0  0  0  0
 39 24  1  1  0  0  0
 39 37  1  0  0  0  0
M  END
>  <MODEL>
5

>  <REMARK>
 VINA RESULT:      -7.5      5.061     10.219
  Name = 
  8 active torsions:
  status: ('A' for Active; 'I' for Inactive)
    1  A    between atoms: C_11  and  C_17
    2  A    between atoms: C_11  and  N_22
    3  A    between atoms: C_12  and  N_23
    4  A    between atoms: C_14  and  C_24
    5  A    between atoms: C_21  and  C_33
    6  A    between atoms: C_25  and  N_34
    7  A    between atoms: C_26  and  C_33
    8  A    between atoms: C_33  and  C_37
                            x       y       z     vdW  Elec       q    Type
                         _______ _______ _______ _____ _____    ______ ____

>  <TORSDO>
F 8

$$$$
=
 OpenBabel11062417553D

 39 44  0  0  1  0  0  0  0  0999 V2000
  179.3010  176.6200  141.4950 N   0  0  0  0  0  0  0  0  0  0  0  0
  180.6100  178.6600  141.0530 C   0  0  1  0  0  3  0  0  0  0  0  0
  180.9790  178.0250  139.7400 C   0  0  0  0  0  0  0  0  0  0  0  0
  179.6700  177.8100  141.8670 C   0  0  0  0  0  3  0  0  0  0  0  0
  180.5370  176.6480  139.4200 C   0  0  0  0  0  0  0  0  0  0  0  0
  179.7380  176.0080  140.2740 C   0  0  0  0  0  3  0  0  0  0  0  0
  181.6650  178.6850  138.9160 O   0  0  0  0  0  0  0  0  0  0  0  0
  181.7880  179.3280  143.1950 C   0  0  0  0  0  0  0  0  0  0  0  0
  181.8170  178.9420  141.8180 N   0  0  0  0  0  2  0  0  0  0  0  0
  180.6920  179.3960  143.8150 O   0  0  0  0  0  0  0  0  0  0  0  0
  184.1020  178.4940  143.6340 C   0  0  2  0  0  0  0  0  0  0  0  0
  185.0150  179.3760  143.0630 C   0  0  1  0  0  3  0  0  0  0  0  0
  183.3010  178.6080  144.9440 C   0  0  0  0  0  2  0  0  0  0  0  0
  183.0710  179.6160  143.9080 C   0  0  2  0  0  3  0  0  0  0  0  0
  185.5070  178.6030  144.2000 N   0  0  0  0  0  0  0  0  0  0  0  0
  185.6820  178.6720  141.5290 S   0  0  0  0  0  1  0  0  0  0  0  0
  187.6700  177.5370  144.6000 C   0  0  0  0  0  3  0  0  0  0  0  0
  187.4410  178.0610  147.3390 C   0  0  0  0  0  3  0  0  0  0  0  0
  189.5680  176.9850  147.7180 O   0  0  0  0  0  1  0  0  0  0  0  0
  188.5670  177.3930  146.8470 C   0  0  0  0  0  0  0  0  0  0  0  0
  188.6800  177.1300  145.4760 C   0  0  0  0  0  3  0  0  0  0  0  0
  186.5450  178.2050  145.0920 C   0  0  0  0  0  0  0  0  0  0  0  0
  186.4300  178.4660  146.4610 C   0  0  0  0  0  3  0  0  0  0  0  0
  180.9320  175.9250  138.1630 C   0  0  2  0  0  3  0  0  0  0  0  0
  182.1620  173.1470  136.3690 C   0  0  0  0  0  2  0  0  0  0  0  0
  183.2080  175.7740  138.9280 O   0  0  0  0  0  0  0  0  0  0  0  0
  183.4630  173.1110  136.8260 C   0  0  2  0  0  3  0  0  0  0  0  0
  182.2950  175.2970  138.2010 C   0  0  0  0  0  0  0  0  0  0  0  0
  182.5660  174.1680  137.3800 N   0  0  0  0  0  0  0  0  0  0  0  0
  184.3990  173.7440  135.8180 C   0  0  0  0  0  2  0  0  0  0  0  0
  185.3310  176.4610  136.1960 O   0  0  0  0  0  0  0  0  0  0  0  0
  185.6700  174.0510  136.4590 N   0  0  0  0  0  2  0  0  0  0  0  0
  187.2110  175.6210  137.2080 O   0  0  0  0  0  1  0  0  0  0  0  0
  186.1090  175.3960  136.6430 C   0  0  0  0  0  0  0  0  0  0  0  0
  179.9800  176.1350  134.7050 N   0  0  0  0  0  2  0  0  0  0  0  0
  181.7660  177.0040  136.0100 C   0  0  0  0  0  2  0  0  0  0  0  0
  179.7020  175.8150  136.0460 N   0  0  0  0  0  2  0  0  0  0  0  0
  181.3840  176.5080  134.6430 C   0  0  0  0  0  2  0  0  0  0  0  0
  180.5710  176.6520  136.8610 C   0  0  1  0  0  3  0  0  0  0  0  0
  1  4  2  0  0  0  0
  2  9  1  1  0  0  0
  2  4  1  0  0  0  0
  3  2  1  0  0  0  0
  5  3  1  0  0  0  0
  5  6  2  0  0  0  0
  6  1  1  0  0  0  0
  7  3  2  0  0  0  0
  8 10  2  0  0  0  0
  9  8  1  0  0  0  0
 11 14  1  0  0  0  0
 11 15  1  0  0  0  0
 11 13  1  6  0  0  0
 12 16  1  6  0  0  0
 12 11  1  0  0  0  0
 12 15  1  0  0  0  0
 14  8  1  6  0  0  0
 14 13  1  0  0  0  0
 15 22  1  0  0  0  0
 17 22  2  0  0  0  0
 17 21  1  0  0  0  0
 20 18  1  0  0  0  0
 20 19  1  0  0  0  0
 21 20  2  0  0  0  0
 22 23  1  0  0  0  0
 23 18  2  0  0  0  0
 24 28  1  1  0  0  0
 24  5  1  0  0  0  0
 25 27  1  0  0  0  0
 25 29  1  0  0  0  0
 27 30  1  6  0  0  0
 27 29  1  0  0  0  0
 28 26  2  0  0  0  0
 29 28  1  0  0  0  0
 30 32  1  0  0  0  0
 31 34  2  0  0  0  0
 32 34  1  0  0  0  0
 34 33  1  0  0  0  0
 35 37  1  0  0  0  0
 36 39  1  0  0  0  0
 37 39  1  0  0  0  0
 38 35  1  0  0  0  0
 38 36  1  0  0  0  0
 39 24  1  1  0  0  0
M  END
>  <MODEL>
6

>  <REMARK>
 VINA RESULT:      -7.4      3.757      9.563
  Name = 
  8 active torsions:
  status: ('A' for Active; 'I' for Inactive)
    1  A    between atoms: C_11  and  C_17
    2  A    between atoms: C_11  and  N_22
    3  A    between atoms: C_12  and  N_23
    4  A    between atoms: C_14  and  C_24
    5  A    between atoms: C_21  and  C_33
    6  A    between atoms: C_25  and  N_34
    7  A    between atoms: C_26  and  C_33
    8  A    between atoms: C_33  and  C_37
                            x       y       z     vdW  Elec       q    Type
                         _______ _______ _______ _____ _____    ______ ____

>  <TORSDO>
F 8

$$$$
=
 OpenBabel11062417553D

 39 44  0  0  1  0  0  0  0  0999 V2000
  186.7840  178.1930  135.0660 N   0  0  0  0  0  0  0  0  0  0  0  0
  187.9440  177.1600  136.9790 C   0  0  1  0  0  3  0  0  0  0  0  0
  186.9690  176.0230  136.8340 C   0  0  0  0  0  0  0  0  0  0  0  0
  187.7510  178.2280  135.9340 C   0  0  0  0  0  3  0  0  0  0  0  0
  185.8770  176.0910  135.8360 C   0  0  0  0  0  0  0  0  0  0  0  0
  185.8190  177.1350  135.0080 C   0  0  0  0  0  3  0  0  0  0  0  0
  187.0980  175.0120  137.5730 O   0  0  0  0  0  0  0  0  0  0  0  0
  188.9490  177.8850  139.1890 C   0  0  0  0  0  0  0  0  0  0  0  0
  187.8290  177.7370  138.3110 N   0  0  0  0  0  2  0  0  0  0  0  0
  190.1050  177.5500  138.8100 O   0  0  0  0  0  0  0  0  0  0  0  0
  188.3280  177.3760  141.5550 C   0  0  2  0  0  0  0  0  0  0  0  0
  189.4340  177.5980  142.3690 C   0  0  1  0  0  3  0  0  0  0  0  0
  187.3400  178.3780  140.9300 C   0  0  0  0  0  2  0  0  0  0  0  0
  188.7490  178.4750  140.5490 C   0  0  2  0  0  3  0  0  0  0  0  0
  188.1330  177.7260  143.0190 N   0  0  0  0  0  0  0  0  0  0  0  0
  190.1850  176.0150  142.8420 S   0  0  0  0  0  1  0  0  0  0  0  0
  185.9940  178.3510  144.0260 C   0  0  0  0  0  3  0  0  0  0  0  0
  187.0650  177.9660  146.5820 C   0  0  0  0  0  3  0  0  0  0  0  0
  184.9540  178.6080  147.5590 O   0  0  0  0  0  1  0  0  0  0  0  0
  185.7380  178.3810  146.4350 C   0  0  0  0  0  0  0  0  0  0  0  0
  185.2040  178.5750  145.1560 C   0  0  0  0  0  3  0  0  0  0  0  0
  187.3210  177.9350  144.1720 C   0  0  0  0  0  0  0  0  0  0  0  0
  187.8570  177.7440  145.4500 C   0  0  0  0  0  3  0  0  0  0  0  0
  184.8240  175.0280  135.6890 C   0  0  2  0  0  3  0  0  0  0  0  0
  182.8040  176.9080  137.8880 C   0  0  0  0  0  2  0  0  0  0  0  0
  184.2830  173.4270  137.4020 O   0  0  0  0  0  0  0  0  0  0  0  0
  182.5100  175.9510  138.8360 C   0  0  2  0  0  3  0  0  0  0  0  0
  184.1730  174.6080  136.9750 C   0  0  0  0  0  0  0  0  0  0  0  0
  183.3940  175.5500  137.7020 N   0  0  0  0  0  0  0  0  0  0  0  0
  181.1270  175.3770  138.6020 C   0  0  0  0  0  2  0  0  0  0  0  0
  179.1650  176.9250  140.0680 O   0  0  0  0  0  0  0  0  0  0  0  0
  180.5660  174.9280  139.8680 N   0  0  0  0  0  2  0  0  0  0  0  0
  179.1300  175.2740  141.6620 O   0  0  0  0  0  1  0  0  0  0  0  0
  179.5950  175.7000  140.5720 C   0  0  0  0  0  0  0  0  0  0  0  0
  184.9820  171.6100  134.5940 N   0  0  0  0  0  2  0  0  0  0  0  0
  186.5760  173.3430  134.9240 C   0  0  0  0  0  2  0  0  0  0  0  0
  184.2610  172.7800  134.8930 N   0  0  0  0  0  2  0  0  0  0  0  0
  186.3630  171.8560  134.9810 C   0  0  0  0  0  2  0  0  0  0  0  0
  185.1850  173.8920  134.7230 C   0  0  1  0  0  3  0  0  0  0  0  0
  1  4  2  0  0  0  0
  2  9  1  1  0  0  0
  3  2  1  0  0  0  0
  3  7  2  0  0  0  0
  4  2  1  0  0  0  0
  5  3  1  0  0  0  0
  6  1  1  0  0  0  0
  6  5  2  0  0  0  0
  9  8  1  0  0  0  0
 10  8  2  0  0  0  0
 11 13  1  6  0  0  0
 11 12  1  0  0  0  0
 11 15  1  0  0  0  0
 12 16  1  1  0  0  0
 12 15  1  0  0  0  0
 14  8  1  6  0  0  0
 14 13  1  0  0  0  0
 14 11  1  0  0  0  0
 15 22  1  0  0  0  0
 17 22  2  0  0  0  0
 17 21  1  0  0  0  0
 20 18  1  0  0  0  0
 20 19  1  0  0  0  0
 21 20  2  0  0  0  0
 22 23  1  0  0  0  0
 23 18  2  0  0  0  0
 24  5  1  0  0  0  0
 24 28  1  1  0  0  0
 25 27  1  0  0  0  0
 27 30  1  6  0  0  0
 28 26  2  0  0  0  0
 28 29  1  0  0  0  0
 29 25  1  0  0  0  0
 29 27  1  0  0  0  0
 30 32  1  0  0  0  0
 31 34  2  0  0  0  0
 32 34  1  0  0  0  0
 34 33  1  0  0  0  0
 35 37  1  0  0  0  0
 35 38  1  0  0  0  0
 36 38  1  0  0  0  0
 39 37  1  0  0  0  0
 39 36  1  0  0  0  0
 39 24  1  1  0  0  0
M  END
>  <MODEL>
7

>  <REMARK>
 VINA RESULT:      -7.3      4.744     10.012
  Name = 
  8 active torsions:
  status: ('A' for Active; 'I' for Inactive)
    1  A    between atoms: C_11  and  C_17
    2  A    between atoms: C_11  and  N_22
    3  A    between atoms: C_12  and  N_23
    4  A    between atoms: C_14  and  C_24
    5  A    between atoms: C_21  and  C_33
    6  A    between atoms: C_25  and  N_34
    7  A    between atoms: C_26  and  C_33
    8  A    between atoms: C_33  and  C_37
                            x       y       z     vdW  Elec       q    Type
                         _______ _______ _______ _____ _____    ______ ____

>  <TORSDO>
F 8

$$$$
=
 OpenBabel11062417553D

 39 44  0  0  1  0  0  0  0  0999 V2000
  180.0320  178.8600  142.8840 N   0  0  0  0  0  0  0  0  0  0  0  0
  182.4240  179.0480  142.3250 C   0  0  1  0  0  3  0  0  0  0  0  0
  182.0680  178.4190  141.0050 C   0  0  0  0  0  0  0  0  0  0  0  0
  181.2240  179.2630  143.2100 C   0  0  0  0  0  3  0  0  0  0  0  0
  180.6840  177.9590  140.7410 C   0  0  0  0  0  0  0  0  0  0  0  0
  179.7400  178.1870  141.6530 C   0  0  0  0  0  3  0  0  0  0  0  0
  182.9630  178.2920  140.1290 O   0  0  0  0  0  0  0  0  0  0  0  0
  184.8190  178.4100  142.8530 C   0  0  0  0  0  0  0  0  0  0  0  0
  183.4100  178.2240  143.0110 N   0  0  0  0  0  2  0  0  0  0  0  0
  185.2610  179.3440  142.1300 O   0  0  0  0  0  0  0  0  0  0  0  0
  186.5890  178.3230  144.6140 C   0  0  2  0  0  0  0  0  0  0  0  0
  186.1230  177.5630  145.6840 C   0  0  1  0  0  3  0  0  0  0  0  0
  187.1480  177.8770  143.2510 C   0  0  0  0  0  2  0  0  0  0  0  0
  185.7690  177.5130  143.5800 C   0  0  2  0  0  3  0  0  0  0  0  0
  187.5740  177.6110  145.5240 N   0  0  0  0  0  0  0  0  0  0  0  0
  185.6380  178.6510  147.0530 S   0  0  0  0  0  1  0  0  0  0  0  0
  189.9350  177.2180  145.0250 C   0  0  0  0  0  3  0  0  0  0  0  0
  190.4400  176.7090  147.7290 C   0  0  0  0  0  3  0  0  0  0  0  0
  192.7620  176.3010  147.2140 O   0  0  0  0  0  1  0  0  0  0  0  0
  191.4800  176.6340  146.7970 C   0  0  0  0  0  0  0  0  0  0  0  0
  191.2260  176.8870  145.4440 C   0  0  0  0  0  3  0  0  0  0  0  0
  188.8950  177.2930  145.9560 C   0  0  0  0  0  0  0  0  0  0  0  0
  189.1470  177.0370  147.3070 C   0  0  0  0  0  3  0  0  0  0  0  0
  180.2760  177.2540  139.4770 C   0  0  2  0  0  3  0  0  0  0  0  0
  179.3190  174.6090  137.3490 C   0  0  0  0  0  2  0  0  0  0  0  0
  182.0070  175.6260  139.8540 O   0  0  0  0  0  0  0  0  0  0  0  0
  180.3420  173.7150  137.5870 C   0  0  2  0  0  3  0  0  0  0  0  0
  180.9370  175.9240  139.2580 C   0  0  0  0  0  0  0  0  0  0  0  0
  180.3630  175.0040  138.3390 N   0  0  0  0  0  0  0  0  0  0  0  0
  181.3740  173.7780  136.4800 C   0  0  0  0  0  2  0  0  0  0  0  0
  181.1480  171.1310  135.3250 O   0  0  0  0  0  0  0  0  0  0  0  0
  182.3790  172.7470  136.6910 N   0  0  0  0  0  2  0  0  0  0  0  0
  183.1480  170.5870  136.3090 O   0  0  0  0  0  1  0  0  0  0  0  0
  182.2540  171.4510  136.1070 C   0  0  0  0  0  0  0  0  0  0  0  0
  181.5630  179.2410  136.7750 N   0  0  0  0  0  2  0  0  0  0  0  0
  180.0510  179.6250  138.5690 C   0  0  0  0  0  2  0  0  0  0  0  0
  181.3530  178.0030  137.4080 N   0  0  0  0  0  2  0  0  0  0  0  0
  181.0880  180.2670  137.6900 C   0  0  0  0  0  2  0  0  0  0  0  0
  180.1700  178.1570  138.2410 C   0  0  1  0  0  3  0  0  0  0  0  0
  1  4  2  0  0  0  0
  2  9  1  1  0  0  0
  2  4  1  0  0  0  0
  3  2  1  0  0  0  0
  5  3  1  0  0  0  0
  5  6  2  0  0  0  0
  6  1  1  0  0  0  0
  7  3  2  0  0  0  0
  8  9  1  0  0  0  0
 10  8  2  0  0  0  0
 11 13  1  1  0  0  0
 11 15  1  0  0  0  0
 11 12  1  0  0  0  0
 12 16  1  1  0  0  0
 13 14  1  0  0  0  0
 14  8  1  6  0  0  0
 14 11  1  0  0  0  0
 15 12  1  0  0  0  0
 15 22  1  0  0  0  0
 17 21  2  0  0  0  0
 17 22  1  0  0  0  0
 20 19  1  0  0  0  0
 20 18  2  0  0  0  0
 21 20  1  0  0  0  0
 22 23  2  0  0  0  0
 23 18  1  0  0  0  0
 24 28  1  6  0  0  0
 24  5  1  0  0  0  0
 25 27  1  0  0  0  0
 25 29  1  0  0  0  0
 27 30  1  6  0  0  0
 27 29  1  0  0  0  0
 28 26  2  0  0  0  0
 29 28  1  0  0  0  0
 30 32  1  0  0  0  0
 31 34  2  0  0  0  0
 34 33  1  0  0  0  0
 34 32  1  0  0  0  0
 35 37  1  0  0  0  0
 35 38  1  0  0  0  0
 37 39  1  0  0  0  0
 38 36  1  0  0  0  0
 39 36  1  0  0  0  0
 39 24  1  1  0  0  0
M  END
>  <MODEL>
8

>  <REMARK>
 VINA RESULT:      -7.2      3.864     10.275
  Name = 
  8 active torsions:
  status: ('A' for Active; 'I' for Inactive)
    1  A    between atoms: C_11  and  C_17
    2  A    between atoms: C_11  and  N_22
    3  A    between atoms: C_12  and  N_23
    4  A    between atoms: C_14  and  C_24
    5  A    between atoms: C_21  and  C_33
    6  A    between atoms: C_25  and  N_34
    7  A    between atoms: C_26  and  C_33
    8  A    between atoms: C_33  and  C_37
                            x       y       z     vdW  Elec       q    Type
                         _______ _______ _______ _____ _____    ______ ____

>  <TORSDO>
F 8

$$$$
=
 OpenBabel11062417553D

 39 44  0  0  1  0  0  0  0  0999 V2000
  193.5650  177.2450  138.5780 N   0  0  0  0  0  0  0  0  0  0  0  0
  191.6130  176.2730  139.7260 C   0  0  1  0  0  3  0  0  0  0  0  0
  191.2310  175.7000  138.3880 C   0  0  0  0  0  0  0  0  0  0  0  0
  192.9100  177.0400  139.6820 C   0  0  0  0  0  3  0  0  0  0  0  0
  192.0240  176.0210  137.1790 C   0  0  0  0  0  0  0  0  0  0  0  0
  193.1290  176.7560  137.3030 C   0  0  0  0  0  3  0  0  0  0  0  0
  190.2300  174.9410  138.3150 O   0  0  0  0  0  0  0  0  0  0  0  0
  190.2860  177.3290  141.6090 C   0  0  0  0  0  0  0  0  0  0  0  0
  190.5420  177.1310  140.2160 N   0  0  0  0  0  2  0  0  0  0  0  0
  191.0240  176.7870  142.4760 O   0  0  0  0  0  0  0  0  0  0  0  0
  188.1030  177.4000  142.8220 C   0  0  2  0  0  0  0  0  0  0  0  0
  188.2470  178.1840  143.9630 C   0  0  1  0  0  3  0  0  0  0  0  0
  187.9280  177.8140  141.3500 C   0  0  0  0  0  2  0  0  0  0  0  0
  189.1580  178.2140  142.0340 C   0  0  2  0  0  3  0  0  0  0  0  0
  186.8950  178.1020  143.4160 N   0  0  0  0  0  0  0  0  0  0  0  0
  188.3610  177.1270  145.4340 S   0  0  0  0  0  1  0  0  0  0  0  0
  184.7250  178.3020  142.3080 C   0  0  0  0  0  3  0  0  0  0  0  0
  183.5480  179.0990  144.7170 C   0  0  0  0  0  3  0  0  0  0  0  0
  181.4190  179.3150  143.6020 O   0  0  0  0  0  1  0  0  0  0  0  0
  182.7730  179.0060  143.5580 C   0  0  0  0  0  0  0  0  0  0  0  0
  183.3630  178.6090  142.3520 C   0  0  0  0  0  3  0  0  0  0  0  0
  185.5010  178.3950  143.4670 C   0  0  0  0  0  0  0  0  0  0  0  0
  184.9130  178.7950  144.6710 C   0  0  0  0  0  3  0  0  0  0  0  0
  191.6560  175.5460  135.8000 C   0  0  2  0  0  3  0  0  0  0  0  0
  189.0040  173.2460  135.4460 C   0  0  0  0  0  2  0  0  0  0  0  0
  189.8120  176.9630  135.1830 O   0  0  0  0  0  0  0  0  0  0  0  0
  187.9750  174.1020  135.1100 C   0  0  2  0  0  3  0  0  0  0  0  0
  190.2270  175.7960  135.4110 C   0  0  0  0  0  0  0  0  0  0  0  0
  189.3250  174.6990  135.3310 N   0  0  0  0  0  0  0  0  0  0  0  0
  187.1090  174.3920  136.3180 C   0  0  0  0  0  2  0  0  0  0  0  0
  187.6130  176.8140  137.8250 O   0  0  0  0  0  1  0  0  0  0  0  0
  186.3590  175.6200  136.0950 N   0  0  0  0  0  2  0  0  0  0  0  0
  185.9600  177.8490  136.6160 O   0  0  0  0  0  0  0  0  0  0  0  0
  186.6270  176.8050  136.8420 C   0  0  0  0  0  0  0  0  0  0  0  0
  193.6090  172.5730  136.3050 N   0  0  0  0  0  2  0  0  0  0  0  0
  193.4890  174.2350  134.6100 C   0  0  0  0  0  2  0  0  0  0  0  0
  192.5210  173.4060  136.6220 N   0  0  0  0  0  2  0  0  0  0  0  0
  194.4110  173.2850  135.3210 C   0  0  0  0  0  2  0  0  0  0  0  0
  192.2180  174.1700  135.4210 C   0  0  1  0  0  3  0  0  0  0  0  0
  1  4  2  0  0  0  0
  2  9  1  6  0  0  0
  3  2  1  0  0  0  0
  4  2  1  0  0  0  0
  5  6  2  0  0  0  0
  5  3  1  0  0  0  0
  6  1  1  0  0  0  0
  7  3  2  0  0  0  0
  8 10  2  0  0  0  0
  9  8  1  0  0  0  0
 11 13  1  1  0  0  0
 11 15  1  0  0  0  0
 11 12  1  0  0  0  0
 12 16  1  1  0  0  0
 13 14  1  0  0  0  0
 14  8  1  6  0  0  0
 14 11  1  0  0  0  0
 15 22  1  0  0  0  0
 15 12  1  0  0  0  0
 17 21  2  0  0  0  0
 17 22  1  0  0  0  0
 20 19  1  0  0  0  0
 20 18  2  0  0  0  0
 21 20  1  0  0  0  0
 22 23  2  0  0  0  0
 23 18  1  0  0  0  0
 24 28  1  1  0  0  0
 24  5  1  0  0  0  0
 26 28  2  0  0  0  0
 27 29  1  0  0  0  0
 27 25  1  0  0  0  0
 27 30  1  1  0  0  0
 29 28  1  0  0  0  0
 29 25  1  0  0  0  0
 32 30  1  0  0  0  0
 32 34  1  0  0  0  0
 33 34  2  0  0  0  0
 34 31  1  0  0  0  0
 35 37  1  0  0  0  0
 36 38  1  0  0  0  0
 36 39  1  0  0  0  0
 38 35  1  0  0  0  0
 39 24  1  1  0  0  0
 39 37  1  0  0  0  0
M  END
>  <MODEL>
9

>  <REMARK>
 VINA RESULT:      -7.2      4.398      8.102
  Name = 
  8 active torsions:
  status: ('A' for Active; 'I' for Inactive)
    1  A    between atoms: C_11  and  C_17
    2  A    between atoms: C_11  and  N_22
    3  A    between atoms: C_12  and  N_23
    4  A    between atoms: C_14  and  C_24
    5  A    between atoms: C_21  and  C_33
    6  A    between atoms: C_25  and  N_34
    7  A    between atoms: C_26  and  C_33
    8  A    between atoms: C_33  and  C_37
                            x       y       z     vdW  Elec       q    Type
                         _______ _______ _______ _____ _____    ______ ____

>  <TORSDO>
F 8

$$$$
