=
 OpenBabel11062412293D

 33 38  0  0  1  0  0  0  0  0999 V2000
  189.5110  176.0580  136.9860 C   0  0  0  0  0  0  0  0  0  0  0  0
  189.1380  173.3360  136.5470 C   0  0  0  0  0  3  0  0  0  0  0  0
  190.4280  173.8680  136.4800 C   0  0  0  0  0  3  0  0  0  0  0  0
  188.2430  175.4750  137.0700 C   0  0  0  0  0  3  0  0  0  0  0  0
  190.6250  175.2390  136.7070 C   0  0  0  0  0  0  0  0  0  0  0  0
  188.0820  174.1430  136.8430 N   0  0  0  0  0  0  0  0  0  0  0  0
  195.1720  176.1400  135.4910 C   0  0  0  0  0  2  0  0  0  0  0  0
  192.9020  175.1270  135.6810 C   0  0  0  0  0  2  0  0  0  0  0  0
  194.8150  174.7800  138.5860 C   0  0  0  0  0  2  0  0  0  0  0  0
  196.5990  175.6210  135.5590 C   0  0  0  0  0  2  0  0  0  0  0  0
  195.0300  173.8230  136.3720 C   0  0  1  0  0  0  0  0  0  0  0  0
  192.7340  175.7130  137.9840 C   0  0  0  0  0  2  0  0  0  0  0  0
  197.3360  172.0480  136.5550 O   0  0  0  0  0  1  0  0  0  0  0  0
  194.1570  175.7100  137.6720 N   0  0  2  0  0  0  0  0  0  0  0  0
  196.8840  173.3310  134.5940 C   0  0  0  0  0  2  0  0  0  0  0  0
  194.3080  172.6750  135.6530 C   0  0  0  0  0  1  0  0  0  0  0  0
  192.0060  175.8300  136.6660 C   0  0  2  0  0  3  0  0  0  0  0  0
  197.6500  173.2480  135.9090 C   0  0  1  0  0  3  0  0  0  0  0  0
  195.1150  173.4970  137.8460 C   0  0  0  0  0  2  0  0  0  0  0  0
  196.4200  174.1430  135.7880 C   0  0  1  0  0  0  0  0  0  0  0  0
  194.2940  175.1820  136.3080 C   0  0  1  0  0  0  0  0  0  0  0  0
  189.6630  177.4570  137.2300 N   0  0  0  0  0  2  0  0  0  0  0  0
  189.1090  179.3760  138.4110 O   0  0  0  0  0  0  0  0  0  0  0  0
  189.2400  178.1260  138.4290 C   0  0  0  0  0  0  0  0  0  0  0  0
  189.0150  177.4010  139.7290 C   0  0  2  0  0  3  0  0  0  0  0  0
  189.7830  178.1330  142.4310 C   0  0  0  0  0  0  0  0  0  0  0  0
  188.1530  178.2000  140.6800 C   0  0  0  0  0  0  0  0  0  0  0  0
  186.9970  178.5600  140.3330 O   0  0  0  0  0  0  0  0  0  0  0  0
  188.6300  178.5350  141.9880 N   0  0  0  0  0  0  0  0  0  0  0  0
  190.3030  176.9420  140.3600 C   0  0  0  0  0  3  0  0  0  0  0  0
  190.6590  177.2800  141.6020 C   0  0  0  0  0  0  0  0  0  0  0  0
  190.2090  178.5260  143.7970 C   0  0  0  0  0  1  0  0  0  0  0  0
  191.8430  176.8400  142.0930 F   0  0  0  0  0  0  0  0  0  0  0  0
  1  4  1  0  0  0  0
  1 22  1  0  0  0  0
  2  6  1  0  0  0  0
  3  2  2  0  0  0  0
  3  5  1  0  0  0  0
  5  1  2  0  0  0  0
  6  4  2  0  0  0  0
  7 10  1  0  0  0  0
  8 21  1  0  0  0  0
  8 17  1  0  0  0  0
 10 20  1  0  0  0  0
 11 16  1  6  0  0  0
 11 19  1  0  0  0  0
 14 12  1  1  0  0  0
 14  9  1  0  0  0  0
 15 18  1  0  0  0  0
 17  5  1  1  0  0  0
 17 12  1  0  0  0  0
 18 13  1  1  0  0  0
 19  9  1  0  0  0  0
 20 15  1  6  0  0  0
 20 18  1  0  0  0  0
 20 11  1  0  0  0  0
 21  7  1  6  0  0  0
 21 11  1  0  0  0  0
 21 14  1  0  0  0  0
 22 24  1  0  0  0  0
 23 24  2  0  0  0  0
 25 24  1  6  0  0  0
 25 30  1  0  0  0  0
 25 27  1  0  0  0  0
 26 32  1  0  0  0  0
 27 29  1  0  0  0  0
 28 27  2  0  0  0  0
 29 26  2  0  0  0  0
 30 31  2  0  0  0  0
 31 33  1  0  0  0  0
 31 26  1  0  0  0  0
M  END
>  <MODEL>
1

>  <REMARK>
 VINA RESULT:      -7.9      0.000      0.000
  Name = 
  3 active torsions:
  status: ('A' for Active; 'I' for Inactive)
    1  A    between atoms: C_1  and  C_27
    2  A    between atoms: C_2  and  N_8
    3  A    between atoms: C_20  and  C_24
                            x       y       z     vdW  Elec       q    Type
                         _______ _______ _______ _____ _____    ______ ____

>  <TORSDO>
F 3

$$$$
=
 OpenBabel11062412293D

 33 38  0  0  1  0  0  0  0  0999 V2000
  187.7190  178.0790  142.1400 C   0  0  0  0  0  0  0  0  0  0  0  0
  189.0630  176.1330  143.6070 C   0  0  0  0  0  3  0  0  0  0  0  0
  189.5440  176.4900  142.3440 C   0  0  0  0  0  3  0  0  0  0  0  0
  187.2920  177.7070  143.4190 C   0  0  0  0  0  3  0  0  0  0  0  0
  188.8750  177.4760  141.6010 C   0  0  0  0  0  0  0  0  0  0  0  0
  187.9600  176.7470  144.1150 N   0  0  0  0  0  0  0  0  0  0  0  0
  189.1840  178.3250  136.8950 C   0  0  0  0  0  2  0  0  0  0  0  0
  188.4330  177.5480  139.1420 C   0  0  0  0  0  2  0  0  0  0  0  0
  191.3020  175.9080  138.0030 C   0  0  0  0  0  2  0  0  0  0  0  0
  189.3570  177.6820  135.5290 C   0  0  0  0  0  2  0  0  0  0  0  0
  189.0020  175.8740  137.2490 C   0  0  1  0  0  0  0  0  0  0  0  0
  190.6750  177.2020  139.8720 C   0  0  0  0  0  2  0  0  0  0  0  0
  188.9690  173.9500  135.0590 O   0  0  0  0  0  1  0  0  0  0  0  0
  190.7170  177.1810  138.4150 N   0  0  2  0  0  0  0  0  0  0  0  0
  187.6430  175.9350  135.0150 C   0  0  0  0  0  2  0  0  0  0  0  0
  187.7380  175.1750  137.7710 C   0  0  0  0  0  1  0  0  0  0  0  0
  189.3880  177.8960  140.2530 C   0  0  2  0  0  3  0  0  0  0  0  0
  188.9490  175.2690  134.5960 C   0  0  1  0  0  3  0  0  0  0  0  0
  190.1970  174.9920  137.5290 C   0  0  0  0  0  2  0  0  0  0  0  0
  188.9250  176.2570  135.7580 C   0  0  1  0  0  0  0  0  0  0  0  0
  189.3250  177.2170  137.9470 C   0  0  1  0  0  0  0  0  0  0  0  0
  187.0090  179.0900  141.4230 N   0  0  0  0  0  2  0  0  0  0  0  0
  185.1620  179.7850  140.2040 O   0  0  0  0  0  0  0  0  0  0  0  0
  185.6100  179.0330  141.1060 C   0  0  0  0  0  0  0  0  0  0  0  0
  184.6400  178.1620  141.8580 C   0  0  2  0  0  3  0  0  0  0  0  0
  181.9680  178.7510  142.8290 C   0  0  0  0  0  0  0  0  0  0  0  0
  183.3690  177.9230  141.0760 C   0  0  0  0  0  0  0  0  0  0  0  0
  183.4220  177.3950  139.9320 O   0  0  0  0  0  0  0  0  0  0  0  0
  182.0960  178.2700  141.6300 N   0  0  0  0  0  0  0  0  0  0  0  0
  184.3750  178.6690  143.2520 C   0  0  0  0  0  3  0  0  0  0  0  0
  183.1470  178.9420  143.6990 C   0  0  0  0  0  0  0  0  0  0  0  0
  180.6140  179.0910  143.3320 C   0  0  0  0  0  1  0  0  0  0  0  0
  182.9920  179.4120  144.9620 F   0  0  0  0  0  0  0  0  0  0  0  0
  1  4  1  0  0  0  0
  2  6  1  0  0  0  0
  3  2  2  0  0  0  0
  4  6  2  0  0  0  0
  5  1  2  0  0  0  0
  5  3  1  0  0  0  0
  8 17  1  0  0  0  0
 10 20  1  0  0  0  0
 10  7  1  0  0  0  0
 11 19  1  0  0  0  0
 11 16  1  1  0  0  0
 11 21  1  0  0  0  0
 12 17  1  0  0  0  0
 14  9  1  1  0  0  0
 14 12  1  0  0  0  0
 17  5  1  1  0  0  0
 18 15  1  0  0  0  0
 18 13  1  1  0  0  0
 18 20  1  0  0  0  0
 19  9  1  0  0  0  0
 20 15  1  6  0  0  0
 20 11  1  0  0  0  0
 21  7  1  6  0  0  0
 21 14  1  0  0  0  0
 21  8  1  0  0  0  0
 22  1  1  0  0  0  0
 23 24  2  0  0  0  0
 24 22  1  0  0  0  0
 25 24  1  6  0  0  0
 25 30  1  0  0  0  0
 26 32  1  0  0  0  0
 26 31  1  0  0  0  0
 27 29  1  0  0  0  0
 27 25  1  0  0  0  0
 28 27  2  0  0  0  0
 29 26  2  0  0  0  0
 30 31  2  0  0  0  0
 31 33  1  0  0  0  0
M  END
>  <MODEL>
2

>  <REMARK>
 VINA RESULT:      -7.8      4.092      6.661
  Name = 
  3 active torsions:
  status: ('A' for Active; 'I' for Inactive)
    1  A    between atoms: C_1  and  C_27
    2  A    between atoms: C_2  and  N_8
    3  A    between atoms: C_20  and  C_24
                            x       y       z     vdW  Elec       q    Type
                         _______ _______ _______ _____ _____    ______ ____

>  <TORSDO>
F 3

$$$$
=
 OpenBabel11062412293D

 33 38  0  0  1  0  0  0  0  0999 V2000
  185.2610  178.8240  142.1380 C   0  0  0  0  0  0  0  0  0  0  0  0
  184.2670  178.5900  144.7260 C   0  0  0  0  0  3  0  0  0  0  0  0
  185.5290  178.0700  144.4300 C   0  0  0  0  0  3  0  0  0  0  0  0
  184.0150  179.3520  142.4880 C   0  0  0  0  0  3  0  0  0  0  0  0
  186.0400  178.1900  143.1270 C   0  0  0  0  0  0  0  0  0  0  0  0
  183.5440  179.2200  143.7590 N   0  0  0  0  0  0  0  0  0  0  0  0
  190.1270  175.6890  143.2480 C   0  0  0  0  0  2  0  0  0  0  0  0
  187.9110  176.6820  143.8170 C   0  0  0  0  0  2  0  0  0  0  0  0
  190.5210  179.0070  143.8720 C   0  0  0  0  0  2  0  0  0  0  0  0
  191.4540  175.5190  143.9670 C   0  0  0  0  0  2  0  0  0  0  0  0
  190.0040  177.1080  145.2810 C   0  0  1  0  0  0  0  0  0  0  0  0
  188.4610  178.7430  142.7550 C   0  0  0  0  0  2  0  0  0  0  0  0
  192.0750  177.1250  147.3340 O   0  0  0  0  0  1  0  0  0  0  0  0
  189.7300  178.0920  143.0530 N   0  0  2  0  0  0  0  0  0  0  0  0
  191.2200  175.0920  146.4210 C   0  0  0  0  0  2  0  0  0  0  0  0
  188.9960  176.8910  146.4180 C   0  0  0  0  0  1  0  0  0  0  0  0
  187.4060  177.6620  142.7910 C   0  0  2  0  0  3  0  0  0  0  0  0
  192.3140  176.1520  146.3590 C   0  0  1  0  0  3  0  0  0  0  0  0
  190.4680  178.5460  145.3100 C   0  0  0  0  0  2  0  0  0  0  0  0
  191.1970  176.1330  145.3180 C   0  0  1  0  0  0  0  0  0  0  0  0
  189.4220  176.9060  143.8620 C   0  0  1  0  0  0  0  0  0  0  0  0
  185.7410  178.9750  140.8010 N   0  0  0  0  0  2  0  0  0  0  0  0
  185.5400  178.5800  138.5240 O   0  0  0  0  0  0  0  0  0  0  0  0
  184.9530  178.7490  139.6220 C   0  0  0  0  0  0  0  0  0  0  0  0
  183.4480  178.7800  139.6310 C   0  0  2  0  0  3  0  0  0  0  0  0
  181.5650  178.6480  137.4260 C   0  0  0  0  0  0  0  0  0  0  0  0
  182.8530  177.5020  139.0850 C   0  0  0  0  0  0  0  0  0  0  0  0
  183.1340  176.3960  139.6200 O   0  0  0  0  0  0  0  0  0  0  0  0
  181.9500  177.5360  137.9750 N   0  0  0  0  0  0  0  0  0  0  0  0
  182.8950  180.0090  138.9600 C   0  0  0  0  0  3  0  0  0  0  0  0
  182.0310  179.9500  137.9440 C   0  0  0  0  0  0  0  0  0  0  0  0
  180.6290  178.6000  136.2740 C   0  0  0  0  0  1  0  0  0  0  0  0
  181.5910  181.1030  137.3810 F   0  0  0  0  0  0  0  0  0  0  0  0
  1  4  2  0  0  0  0
  1  5  1  0  0  0  0
  3  2  1  0  0  0  0
  4  6  1  0  0  0  0
  5  3  2  0  0  0  0
  6  2  2  0  0  0  0
  7 10  1  0  0  0  0
  8 21  1  0  0  0  0
  9 19  1  0  0  0  0
 11 19  1  0  0  0  0
 11 20  1  0  0  0  0
 11 16  1  1  0  0  0
 12 17  1  0  0  0  0
 14 12  1  1  0  0  0
 14 21  1  0  0  0  0
 14  9  1  0  0  0  0
 17  5  1  1  0  0  0
 17  8  1  0  0  0  0
 18 15  1  0  0  0  0
 18 13  1  1  0  0  0
 20 10  1  6  0  0  0
 20 18  1  0  0  0  0
 20 15  1  0  0  0  0
 21  7  1  6  0  0  0
 21 11  1  0  0  0  0
 22  1  1  0  0  0  0
 23 24  2  0  0  0  0
 24 22  1  0  0  0  0
 25 24  1  6  0  0  0
 26 31  1  0  0  0  0
 26 29  2  0  0  0  0
 27 28  2  0  0  0  0
 27 25  1  0  0  0  0
 29 27  1  0  0  0  0
 30 25  1  0  0  0  0
 31 30  2  0  0  0  0
 32 26  1  0  0  0  0
 33 31  1  0  0  0  0
M  END
>  <MODEL>
3

>  <REMARK>
 VINA RESULT:      -7.6      7.175      9.284
  Name = 
  3 active torsions:
  status: ('A' for Active; 'I' for Inactive)
    1  A    between atoms: C_1  and  C_27
    2  A    between atoms: C_2  and  N_8
    3  A    between atoms: C_20  and  C_24
                            x       y       z     vdW  Elec       q    Type
                         _______ _______ _______ _____ _____    ______ ____

>  <TORSDO>
F 3

$$$$
=
 OpenBabel11062412293D

 33 38  0  0  1  0  0  0  0  0999 V2000
  187.9710  176.1420  137.0880 C   0  0  0  0  0  0  0  0  0  0  0  0
  186.9080  173.5870  136.8010 C   0  0  0  0  0  3  0  0  0  0  0  0
  186.0440  174.6830  136.8600 C   0  0  0  0  0  3  0  0  0  0  0  0
  188.7970  175.0160  136.9970 C   0  0  0  0  0  3  0  0  0  0  0  0
  186.5730  175.9760  136.9990 C   0  0  0  0  0  0  0  0  0  0  0  0
  188.2540  173.7750  136.8640 N   0  0  0  0  0  0  0  0  0  0  0  0
  183.4770  179.3110  138.5020 C   0  0  0  0  0  2  0  0  0  0  0  0
  184.9130  177.2780  138.3380 C   0  0  0  0  0  2  0  0  0  0  0  0
  182.2350  177.2620  136.0910 C   0  0  0  0  0  2  0  0  0  0  0  0
  182.0240  179.5850  138.8500 C   0  0  0  0  0  2  0  0  0  0  0  0
  182.3340  177.1070  138.5050 C   0  0  1  0  0  0  0  0  0  0  0  0
  184.5880  177.1280  135.9830 C   0  0  0  0  0  2  0  0  0  0  0  0
  179.5620  176.7570  139.3380 O   0  0  0  0  0  1  0  0  0  0  0  0
  183.4750  177.9200  136.4930 N   0  0  2  0  0  0  0  0  0  0  0  0
  181.1050  178.0620  140.6080 C   0  0  0  0  0  2  0  0  0  0  0  0
  182.6810  175.9630  139.4680 C   0  0  0  0  0  1  0  0  0  0  0  0
  185.6660  177.1730  137.0390 C   0  0  2  0  0  3  0  0  0  0  0  0
  180.0090  178.0650  139.5480 C   0  0  1  0  0  3  0  0  0  0  0  0
  181.6630  176.5270  137.2820 C   0  0  0  0  0  2  0  0  0  0  0  0
  181.4730  178.2150  139.1440 C   0  0  1  0  0  0  0  0  0  0  0  0
  183.5600  177.8780  137.9600 C   0  0  1  0  0  0  0  0  0  0  0  0
  188.5560  177.4380  137.2240 N   0  0  0  0  0  2  0  0  0  0  0  0
  188.9110  179.3780  138.4450 O   0  0  0  0  0  0  0  0  0  0  0  0
  188.7040  178.1380  138.4690 C   0  0  0  0  0  0  0  0  0  0  0  0
  188.6930  177.4400  139.8020 C   0  0  2  0  0  3  0  0  0  0  0  0
  189.9030  178.2140  142.3250 C   0  0  0  0  0  0  0  0  0  0  0  0
  188.0060  178.2640  140.8670 C   0  0  0  0  0  0  0  0  0  0  0  0
  186.8100  178.6280  140.7100 O   0  0  0  0  0  0  0  0  0  0  0  0
  188.6950  178.6180  142.0710 N   0  0  0  0  0  0  0  0  0  0  0  0
  190.0650  176.9810  140.2200 C   0  0  0  0  0  3  0  0  0  0  0  0
  190.6240  177.3380  141.3790 C   0  0  0  0  0  0  0  0  0  0  0  0
  190.5520  178.6280  143.5940 C   0  0  0  0  0  1  0  0  0  0  0  0
  191.8710  176.8960  141.6760 F   0  0  0  0  0  0  0  0  0  0  0  0
  1 22  1  0  0  0  0
  2  3  1  0  0  0  0
  2  6  2  0  0  0  0
  3  5  2  0  0  0  0
  4  1  2  0  0  0  0
  5  1  1  0  0  0  0
  6  4  1  0  0  0  0
  7 10  1  0  0  0  0
  9 14  1  0  0  0  0
  9 19  1  0  0  0  0
 11 20  1  0  0  0  0
 11 16  1  1  0  0  0
 12 17  1  0  0  0  0
 14 12  1  6  0  0  0
 14 21  1  0  0  0  0
 17  5  1  1  0  0  0
 17  8  1  0  0  0  0
 18 13  1  6  0  0  0
 18 15  1  0  0  0  0
 19 11  1  0  0  0  0
 20 10  1  6  0  0  0
 20 18  1  0  0  0  0
 20 15  1  0  0  0  0
 21  8  1  1  0  0  0
 21  7  1  0  0  0  0
 21 11  1  0  0  0  0
 22 24  1  0  0  0  0
 23 24  2  0  0  0  0
 25 24  1  6  0  0  0
 25 30  1  0  0  0  0
 25 27  1  0  0  0  0
 26 32  1  0  0  0  0
 27 29  1  0  0  0  0
 28 27  2  0  0  0  0
 29 26  2  0  0  0  0
 30 31  2  0  0  0  0
 31 33  1  0  0  0  0
 31 26  1  0  0  0  0
M  END
>  <MODEL>
4

>  <REMARK>
 VINA RESULT:      -7.3      4.698      9.258
  Name = 
  3 active torsions:
  status: ('A' for Active; 'I' for Inactive)
    1  A    between atoms: C_1  and  C_27
    2  A    between atoms: C_2  and  N_8
    3  A    between atoms: C_20  and  C_24
                            x       y       z     vdW  Elec       q    Type
                         _______ _______ _______ _____ _____    ______ ____

>  <TORSDO>
F 3

$$$$
=
 OpenBabel11062412293D

 33 38  0  0  1  0  0  0  0  0999 V2000
  189.7560  177.2850  137.5570 C   0  0  0  0  0  0  0  0  0  0  0  0
  190.9950  174.8260  137.9630 C   0  0  0  0  0  3  0  0  0  0  0  0
  190.8950  175.7250  139.0290 C   0  0  0  0  0  3  0  0  0  0  0  0
  189.8560  176.3430  136.5290 C   0  0  0  0  0  3  0  0  0  0  0  0
  190.2660  176.9650  138.8330 C   0  0  0  0  0  0  0  0  0  0  0  0
  190.4730  175.1490  136.7480 N   0  0  0  0  0  0  0  0  0  0  0  0
  190.8870  179.2270  143.0120 C   0  0  0  0  0  2  0  0  0  0  0  0
  191.0010  177.5820  141.1410 C   0  0  0  0  0  2  0  0  0  0  0  0
  187.8870  177.6550  142.7270 C   0  0  0  0  0  2  0  0  0  0  0  0
  190.6510  179.1480  144.5110 C   0  0  0  0  0  2  0  0  0  0  0  0
  190.0730  176.9260  143.4680 C   0  0  1  0  0  0  0  0  0  0  0  0
  188.7260  177.9660  140.5450 C   0  0  0  0  0  2  0  0  0  0  0  0
  189.6370  175.9010  146.1620 O   0  0  0  0  0  1  0  0  0  0  0  0
  188.8580  178.3990  141.9300 N   0  0  2  0  0  0  0  0  0  0  0  0
  191.6150  177.0990  145.5740 C   0  0  0  0  0  2  0  0  0  0  0  0
  190.8980  175.6580  143.2090 C   0  0  0  0  0  1  0  0  0  0  0  0
  190.1230  177.9370  139.9700 C   0  0  2  0  0  3  0  0  0  0  0  0
  190.2170  177.1730  146.1750 C   0  0  1  0  0  3  0  0  0  0  0  0
  188.6070  176.5600  143.4790 C   0  0  0  0  0  2  0  0  0  0  0  0
  190.4730  177.6720  144.7560 C   0  0  1  0  0  0  0  0  0  0  0  0
  190.2050  178.0110  142.3720 C   0  0  1  0  0  0  0  0  0  0  0  0
  189.1030  178.5310  137.3130 N   0  0  0  0  0  2  0  0  0  0  0  0
  187.2810  179.7420  136.5390 O   0  0  0  0  0  0  0  0  0  0  0  0
  187.6960  178.6790  137.0660 C   0  0  0  0  0  0  0  0  0  0  0  0
  186.6850  177.6430  137.4790 C   0  0  2  0  0  3  0  0  0  0  0  0
  183.8090  177.5800  137.0830 C   0  0  0  0  0  0  0  0  0  0  0  0
  185.9950  177.0190  136.2870 C   0  0  0  0  0  0  0  0  0  0  0  0
  186.6740  176.4380  135.3980 O   0  0  0  0  0  0  0  0  0  0  0  0
  184.5690  177.0600  136.1680 N   0  0  0  0  0  0  0  0  0  0  0  0
  185.7120  178.1670  138.5020 C   0  0  0  0  0  3  0  0  0  0  0  0
  184.3890  178.1410  138.3210 C   0  0  0  0  0  0  0  0  0  0  0  0
  182.3390  177.5890  136.8840 C   0  0  0  0  0  1  0  0  0  0  0  0
  183.5790  178.6480  139.2830 F   0  0  0  0  0  0  0  0  0  0  0  0
  1  5  1  0  0  0  0
  2  3  1  0  0  0  0
  4  6  1  0  0  0  0
  4  1  2  0  0  0  0
  5  3  2  0  0  0  0
  6  2  2  0  0  0  0
  7 10  1  0  0  0  0
  9 19  1  0  0  0  0
 11 16  1  6  0  0  0
 11 19  1  0  0  0  0
 11 20  1  0  0  0  0
 14 12  1  6  0  0  0
 14 21  1  0  0  0  0
 14  9  1  0  0  0  0
 15 18  1  0  0  0  0
 17  5  1  6  0  0  0
 17 12  1  0  0  0  0
 17  8  1  0  0  0  0
 18 13  1  6  0  0  0
 20 10  1  6  0  0  0
 20 15  1  0  0  0  0
 20 18  1  0  0  0  0
 21  8  1  6  0  0  0
 21  7  1  0  0  0  0
 21 11  1  0  0  0  0
 22  1  1  0  0  0  0
 23 24  2  0  0  0  0
 24 22  1  0  0  0  0
 25 24  1  6  0  0  0
 25 30  1  0  0  0  0
 26 31  1  0  0  0  0
 27 25  1  0  0  0  0
 28 27  2  0  0  0  0
 29 27  1  0  0  0  0
 29 26  2  0  0  0  0
 31 30  2  0  0  0  0
 31 33  1  0  0  0  0
 32 26  1  0  0  0  0
M  END
>  <MODEL>
5

>  <REMARK>
 VINA RESULT:      -7.3      4.208      7.518
  Name = 
  3 active torsions:
  status: ('A' for Active; 'I' for Inactive)
    1  A    between atoms: C_1  and  C_27
    2  A    between atoms: C_2  and  N_8
    3  A    between atoms: C_20  and  C_24
                            x       y       z     vdW  Elec       q    Type
                         _______ _______ _______ _____ _____    ______ ____

>  <TORSDO>
F 3

$$$$
=
 OpenBabel11062412293D

 33 38  0  0  1  0  0  0  0  0999 V2000
  189.7600  176.9840  139.7680 C   0  0  0  0  0  0  0  0  0  0  0  0
  188.9680  178.8680  137.8800 C   0  0  0  0  0  3  0  0  0  0  0  0
  189.6460  177.7220  137.4580 C   0  0  0  0  0  3  0  0  0  0  0  0
  189.0550  178.1340  140.1390 C   0  0  0  0  0  3  0  0  0  0  0  0
  190.0430  176.7640  138.4040 C   0  0  0  0  0  0  0  0  0  0  0  0
  188.6840  179.0460  139.1990 N   0  0  0  0  0  0  0  0  0  0  0  0
  193.4450  173.4840  137.6090 C   0  0  0  0  0  2  0  0  0  0  0  0
  192.2370  175.5820  138.2030 C   0  0  0  0  0  2  0  0  0  0  0  0
  192.1960  174.8900  134.7780 C   0  0  0  0  0  2  0  0  0  0  0  0
  194.6540  173.1350  136.7580 C   0  0  0  0  0  2  0  0  0  0  0  0
  193.9790  175.5180  136.2900 C   0  0  1  0  0  0  0  0  0  0  0  0
  190.6140  175.2400  136.4920 C   0  0  0  0  0  2  0  0  0  0  0  0
  196.3420  175.7370  134.5950 O   0  0  0  0  0  1  0  0  0  0  0  0
  191.7790  174.4530  136.1070 N   0  0  2  0  0  0  0  0  0  0  0  0
  196.4580  174.8670  136.8150 C   0  0  0  0  0  2  0  0  0  0  0  0
  194.4040  176.8560  136.9110 C   0  0  0  0  0  1  0  0  0  0  0  0
  190.7500  175.5100  137.9720 C   0  0  2  0  0  3  0  0  0  0  0  0
  196.3350  174.5470  135.3290 C   0  0  1  0  0  3  0  0  0  0  0  0
  193.4110  175.7790  134.9140 C   0  0  0  0  0  2  0  0  0  0  0  0
  195.1110  174.4730  136.2390 C   0  0  1  0  0  0  0  0  0  0  0  0
  192.8510  174.7850  137.0540 C   0  0  1  0  0  0  0  0  0  0  0  0
  190.1390  176.0350  140.7660 N   0  0  0  0  0  2  0  0  0  0  0  0
  190.8330  175.5360  142.9230 O   0  0  0  0  0  0  0  0  0  0  0  0
  190.1790  176.3070  142.1750 C   0  0  0  0  0  0  0  0  0  0  0  0
  189.4100  177.4360  142.8090 C   0  0  2  0  0  3  0  0  0  0  0  0
  188.5560  177.7990  145.5590 C   0  0  0  0  0  0  0  0  0  0  0  0
  190.2180  178.1430  143.8730 C   0  0  0  0  0  0  0  0  0  0  0  0
  191.3280  178.6640  143.5800 O   0  0  0  0  0  0  0  0  0  0  0  0
  189.7220  178.2510  145.2120 N   0  0  0  0  0  0  0  0  0  0  0  0
  188.0560  177.0000  143.3030 C   0  0  0  0  0  3  0  0  0  0  0  0
  187.6620  177.1650  144.5690 C   0  0  0  0  0  0  0  0  0  0  0  0
  188.1150  177.9450  146.9690 C   0  0  0  0  0  1  0  0  0  0  0  0
  186.4330  176.7310  144.9410 F   0  0  0  0  0  0  0  0  0  0  0  0
  1  4  1  0  0  0  0
  1 22  1  0  0  0  0
  2  6  1  0  0  0  0
  3  2  2  0  0  0  0
  3  5  1  0  0  0  0
  5  1  2  0  0  0  0
  6  4  2  0  0  0  0
  9 19  1  0  0  0  0
 10  7  1  0  0  0  0
 11 16  1  1  0  0  0
 11 21  1  0  0  0  0
 12 17  1  0  0  0  0
 14  9  1  6  0  0  0
 14 12  1  0  0  0  0
 14 21  1  0  0  0  0
 17  8  1  0  0  0  0
 17  5  1  6  0  0  0
 18 13  1  6  0  0  0
 18 20  1  0  0  0  0
 18 15  1  0  0  0  0
 19 11  1  0  0  0  0
 20 11  1  0  0  0  0
 20 10  1  1  0  0  0
 20 15  1  0  0  0  0
 21  7  1  1  0  0  0
 21  8  1  0  0  0  0
 22 24  1  0  0  0  0
 24 23  2  0  0  0  0
 25 24  1  1  0  0  0
 25 30  1  0  0  0  0
 25 27  1  0  0  0  0
 26 32  1  0  0  0  0
 27 29  1  0  0  0  0
 28 27  2  0  0  0  0
 29 26  2  0  0  0  0
 30 31  2  0  0  0  0
 31 33  1  0  0  0  0
 31 26  1  0  0  0  0
M  END
>  <MODEL>
6

>  <REMARK>
 VINA RESULT:      -7.2      2.545      3.853
  Name = 
  3 active torsions:
  status: ('A' for Active; 'I' for Inactive)
    1  A    between atoms: C_1  and  C_27
    2  A    between atoms: C_2  and  N_8
    3  A    between atoms: C_20  and  C_24
                            x       y       z     vdW  Elec       q    Type
                         _______ _______ _______ _____ _____    ______ ____

>  <TORSDO>
F 3

$$$$
=
 OpenBabel11062412293D

 33 38  0  0  1  0  0  0  0  0999 V2000
  184.1400  178.3230  140.0300 C   0  0  0  0  0  0  0  0  0  0  0  0
  182.5740  176.2920  138.9510 C   0  0  0  0  0  3  0  0  0  0  0  0
  183.7100  176.7200  138.2580 C   0  0  0  0  0  3  0  0  0  0  0  0
  183.0100  177.8420  140.6990 C   0  0  0  0  0  3  0  0  0  0  0  0
  184.5080  177.7400  138.7990 C   0  0  0  0  0  0  0  0  0  0  0  0
  182.2540  176.8530  140.1490 N   0  0  0  0  0  0  0  0  0  0  0  0
  188.1130  178.0690  135.6590 C   0  0  0  0  0  2  0  0  0  0  0  0
  186.1260  177.2890  136.9480 C   0  0  0  0  0  2  0  0  0  0  0  0
  189.0910  177.2010  138.7970 C   0  0  0  0  0  2  0  0  0  0  0  0
  189.4240  177.4460  135.2080 C   0  0  0  0  0  2  0  0  0  0  0  0
  188.3250  175.9230  136.8900 C   0  0  1  0  0  0  0  0  0  0  0  0
  186.9680  178.2110  138.9780 C   0  0  0  0  0  2  0  0  0  0  0  0
  190.4600  174.0030  136.3810 O   0  0  0  0  0  1  0  0  0  0  0  0
  188.1210  178.0430  138.1030 N   0  0  2  0  0  0  0  0  0  0  0  0
  189.2330  175.0260  134.6070 C   0  0  0  0  0  2  0  0  0  0  0  0
  187.3470  174.7490  136.7400 C   0  0  0  0  0  1  0  0  0  0  0  0
  185.7480  178.2000  138.0860 C   0  0  2  0  0  3  0  0  0  0  0  0
  190.4870  175.0670  135.4730 C   0  0  1  0  0  3  0  0  0  0  0  0
  189.0270  175.8050  138.2230 C   0  0  0  0  0  2  0  0  0  0  0  0
  189.3370  176.0370  135.7330 C   0  0  1  0  0  0  0  0  0  0  0  0
  187.6530  177.3160  136.9150 C   0  0  1  0  0  0  0  0  0  0  0  0
  184.9250  179.3590  140.6220 N   0  0  0  0  0  2  0  0  0  0  0  0
  185.7580  180.4440  142.4960 O   0  0  0  0  0  0  0  0  0  0  0  0
  185.3750  179.3610  141.9860 C   0  0  0  0  0  0  0  0  0  0  0  0
  185.4790  178.1060  142.8100 C   0  0  2  0  0  3  0  0  0  0  0  0
  186.8800  177.6220  145.3060 C   0  0  0  0  0  0  0  0  0  0  0  0
  184.8720  178.2790  144.1840 C   0  0  0  0  0  0  0  0  0  0  0  0
  183.6630  178.6160  144.3010 O   0  0  0  0  0  0  0  0  0  0  0  0
  185.6520  178.0400  145.3600 N   0  0  0  0  0  0  0  0  0  0  0  0
  186.8850  177.5680  142.8620 C   0  0  0  0  0  3  0  0  0  0  0  0
  187.5320  177.3470  144.0090 C   0  0  0  0  0  0  0  0  0  0  0  0
  187.6260  177.4020  146.5710 C   0  0  0  0  0  1  0  0  0  0  0  0
  188.8030  176.8770  143.9720 F   0  0  0  0  0  0  0  0  0  0  0  0
  1 22  1  0  0  0  0
  1  4  1  0  0  0  0
  2  6  1  0  0  0  0
  3  5  1  0  0  0  0
  3  2  2  0  0  0  0
  5  1  2  0  0  0  0
  6  4  2  0  0  0  0
  8 17  1  0  0  0  0
 10  7  1  0  0  0  0
 10 20  1  0  0  0  0
 11 16  1  6  0  0  0
 11 21  1  0  0  0  0
 11 19  1  0  0  0  0
 14  9  1  1  0  0  0
 14 12  1  0  0  0  0
 15 18  1  0  0  0  0
 17  5  1  1  0  0  0
 17 12  1  0  0  0  0
 18 20  1  0  0  0  0
 18 13  1  1  0  0  0
 19  9  1  0  0  0  0
 20 15  1  6  0  0  0
 20 11  1  0  0  0  0
 21  7  1  6  0  0  0
 21  8  1  0  0  0  0
 21 14  1  0  0  0  0
 22 24  1  0  0  0  0
 24 23  2  0  0  0  0
 25 24  1  1  0  0  0
 25 30  1  0  0  0  0
 25 27  1  0  0  0  0
 26 29  2  0  0  0  0
 26 32  1  0  0  0  0
 27 28  2  0  0  0  0
 27 29  1  0  0  0  0
 30 31  2  0  0  0  0
 31 26  1  0  0  0  0
 33 31  1  0  0  0  0
M  END
>  <MODEL>
7

>  <REMARK>
 VINA RESULT:      -7.1      4.134      6.316
  Name = 
  3 active torsions:
  status: ('A' for Active; 'I' for Inactive)
    1  A    between atoms: C_1  and  C_27
    2  A    between atoms: C_2  and  N_8
    3  A    between atoms: C_20  and  C_24
                            x       y       z     vdW  Elec       q    Type
                         _______ _______ _______ _____ _____    ______ ____

>  <TORSDO>
F 3

$$$$
=
 OpenBabel11062412293D

 33 38  0  0  1  0  0  0  0  0999 V2000
  187.6200  178.5290  140.5710 C   0  0  0  0  0  0  0  0  0  0  0  0
  186.6760  177.7410  143.0670 C   0  0  0  0  0  3  0  0  0  0  0  0
  185.7650  178.1540  142.0920 C   0  0  0  0  0  3  0  0  0  0  0  0
  188.4910  178.0820  141.5690 C   0  0  0  0  0  3  0  0  0  0  0  0
  186.2330  178.5470  140.8280 C   0  0  0  0  0  0  0  0  0  0  0  0
  188.0080  177.7090  142.7860 N   0  0  0  0  0  0  0  0  0  0  0  0
  182.3730  180.2870  138.5820 C   0  0  0  0  0  2  0  0  0  0  0  0
  183.9650  179.4660  140.3170 C   0  0  0  0  0  2  0  0  0  0  0  0
  182.7870  176.9330  138.2160 C   0  0  0  0  0  2  0  0  0  0  0  0
  180.9170  180.0240  138.2370 C   0  0  0  0  0  2  0  0  0  0  0  0
  181.6960  178.2930  139.8960 C   0  0  1  0  0  0  0  0  0  0  0  0
  184.8760  177.8350  138.8390 C   0  0  0  0  0  2  0  0  0  0  0  0
  178.9540  177.3020  139.9800 O   0  0  0  0  0  1  0  0  0  0  0  0
  183.5600  178.1690  138.3090 N   0  0  2  0  0  0  0  0  0  0  0  0
  179.4670  179.6200  140.2350 C   0  0  0  0  0  2  0  0  0  0  0  0
  181.6720  178.2440  141.4300 C   0  0  0  0  0  1  0  0  0  0  0  0
  185.2700  178.9700  139.7540 C   0  0  2  0  0  3  0  0  0  0  0  0
  179.0530  178.5080  139.2780 C   0  0  1  0  0  3  0  0  0  0  0  0
  181.8070  176.8820  139.3650 C   0  0  0  0  0  2  0  0  0  0  0  0
  180.4880  179.0270  139.2820 C   0  0  1  0  0  0  0  0  0  0  0  0
  182.9110  179.0400  139.2970 C   0  0  1  0  0  0  0  0  0  0  0  0
  188.1410  178.9140  139.2980 N   0  0  0  0  0  2  0  0  0  0  0  0
  189.5270  178.5240  137.4790 O   0  0  0  0  0  0  0  0  0  0  0  0
  188.8240  178.0300  138.3960 C   0  0  0  0  0  0  0  0  0  0  0  0
  188.6770  176.5330  138.4570 C   0  0  2  0  0  3  0  0  0  0  0  0
  189.7260  174.4810  136.6930 C   0  0  0  0  0  0  0  0  0  0  0  0
  190.0080  175.8400  138.6410 C   0  0  0  0  0  0  0  0  0  0  0  0
  190.7280  176.1110  139.6390 O   0  0  0  0  0  0  0  0  0  0  0  0
  190.4530  174.8560  137.7010 N   0  0  0  0  0  0  0  0  0  0  0  0
  187.8950  175.9860  137.2920 C   0  0  0  0  0  3  0  0  0  0  0  0
  188.3780  175.0430  136.4780 C   0  0  0  0  0  0  0  0  0  0  0  0
  190.2600  173.4570  135.7590 C   0  0  0  0  0  1  0  0  0  0  0  0
  187.6180  174.6140  135.4400 F   0  0  0  0  0  0  0  0  0  0  0  0
  1  5  2  0  0  0  0
  1  4  1  0  0  0  0
  3  2  2  0  0  0  0
  4  6  2  0  0  0  0
  5  3  1  0  0  0  0
  6  2  1  0  0  0  0
  9 19  1  0  0  0  0
 10  7  1  0  0  0  0
 11 16  1  1  0  0  0
 12 17  1  0  0  0  0
 14  9  1  1  0  0  0
 14 12  1  0  0  0  0
 14 21  1  0  0  0  0
 17  8  1  0  0  0  0
 17  5  1  1  0  0  0
 18 20  1  0  0  0  0
 18 13  1  1  0  0  0
 18 15  1  0  0  0  0
 19 11  1  0  0  0  0
 20 10  1  6  0  0  0
 20 11  1  0  0  0  0
 20 15  1  0  0  0  0
 21  7  1  6  0  0  0
 21 11  1  0  0  0  0
 21  8  1  0  0  0  0
 22  1  1  0  0  0  0
 23 24  2  0  0  0  0
 24 22  1  0  0  0  0
 25 24  1  6  0  0  0
 25 27  1  0  0  0  0
 26 29  2  0  0  0  0
 27 28  2  0  0  0  0
 29 27  1  0  0  0  0
 30 25  1  0  0  0  0
 31 26  1  0  0  0  0
 31 30  2  0  0  0  0
 32 26  1  0  0  0  0
 33 31  1  0  0  0  0
M  END
>  <MODEL>
8

>  <REMARK>
 VINA RESULT:      -7.0      4.915     10.746
  Name = 
  3 active torsions:
  status: ('A' for Active; 'I' for Inactive)
    1  A    between atoms: C_1  and  C_27
    2  A    between atoms: C_2  and  N_8
    3  A    between atoms: C_20  and  C_24
                            x       y       z     vdW  Elec       q    Type
                         _______ _______ _______ _____ _____    ______ ____

>  <TORSDO>
F 3

$$$$
=
 OpenBabel11062412293D

 33 38  0  0  1  0  0  0  0  0999 V2000
  186.6590  178.7400  141.4170 C   0  0  0  0  0  0  0  0  0  0  0  0
  184.8920  178.1670  143.4880 C   0  0  0  0  0  3  0  0  0  0  0  0
  186.1700  177.6020  143.5050 C   0  0  0  0  0  3  0  0  0  0  0  0
  185.3790  179.3030  141.4580 C   0  0  0  0  0  3  0  0  0  0  0  0
  187.0690  177.8920  142.4660 C   0  0  0  0  0  0  0  0  0  0  0  0
  184.5280  179.0030  142.4770 N   0  0  0  0  0  0  0  0  0  0  0  0
  190.9550  175.3580  143.6680 C   0  0  0  0  0  2  0  0  0  0  0  0
  188.7020  176.4270  143.6640 C   0  0  0  0  0  2  0  0  0  0  0  0
  191.3140  178.7130  144.0790 C   0  0  0  0  0  2  0  0  0  0  0  0
  192.0930  175.2340  144.6670 C   0  0  0  0  0  2  0  0  0  0  0  0
  190.4500  176.9540  145.5010 C   0  0  1  0  0  0  0  0  0  0  0  0
  189.5300  178.3770  142.5740 C   0  0  0  0  0  2  0  0  0  0  0  0
  192.0380  177.1270  147.9400 O   0  0  0  0  0  1  0  0  0  0  0  0
  190.6860  177.7390  143.1900 N   0  0  2  0  0  0  0  0  0  0  0  0
  191.3320  175.0320  147.0410 C   0  0  0  0  0  2  0  0  0  0  0  0
  189.2170  176.8530  146.4100 C   0  0  0  0  0  1  0  0  0  0  0  0
  188.4580  177.3180  142.4750 C   0  0  2  0  0  3  0  0  0  0  0  0
  192.4470  176.0670  147.1240 C   0  0  1  0  0  3  0  0  0  0  0  0
  190.9430  178.3830  145.5070 C   0  0  0  0  0  2  0  0  0  0  0  0
  191.5760  175.9710  145.8750 C   0  0  1  0  0  0  0  0  0  0  0  0
  190.1750  176.6340  144.0120 C   0  0  1  0  0  0  0  0  0  0  0  0
  187.5410  179.0680  140.3420 N   0  0  0  0  0  2  0  0  0  0  0  0
  188.7580  178.4520  138.4660 O   0  0  0  0  0  0  0  0  0  0  0  0
  187.7390  178.2570  139.1740 C   0  0  0  0  0  0  0  0  0  0  0  0
  186.7390  177.2280  138.7190 C   0  0  2  0  0  3  0  0  0  0  0  0
  185.4090  176.9230  136.1570 C   0  0  0  0  0  0  0  0  0  0  0  0
  187.2640  176.3960  137.5720 C   0  0  0  0  0  0  0  0  0  0  0  0
  188.3310  175.7380  137.7060 O   0  0  0  0  0  0  0  0  0  0  0  0
  186.5480  176.3270  136.3340 N   0  0  0  0  0  0  0  0  0  0  0  0
  185.3890  177.8300  138.4270 C   0  0  0  0  0  3  0  0  0  0  0  0
  184.7770  177.6920  137.2480 C   0  0  0  0  0  0  0  0  0  0  0  0
  184.7290  176.8080  134.8420 C   0  0  0  0  0  1  0  0  0  0  0  0
  183.5690  178.2780  137.0580 F   0  0  0  0  0  0  0  0  0  0  0  0
  1  4  2  0  0  0  0
  1  5  1  0  0  0  0
  2  3  1  0  0  0  0
  4  6  1  0  0  0  0
  5  3  2  0  0  0  0
  6  2  2  0  0  0  0
  7 21  1  0  0  0  0
  7 10  1  0  0  0  0
  9 19  1  0  0  0  0
 11 19  1  0  0  0  0
 11 20  1  0  0  0  0
 11 16  1  1  0  0  0
 14 12  1  1  0  0  0
 14 21  1  0  0  0  0
 14  9  1  0  0  0  0
 15 18  1  0  0  0  0
 17  5  1  1  0  0  0
 17 12  1  0  0  0  0
 17  8  1  0  0  0  0
 18 13  1  1  0  0  0
 20 10  1  6  0  0  0
 20 15  1  0  0  0  0
 20 18  1  0  0  0  0
 21  8  1  6  0  0  0
 21 11  1  0  0  0  0
 22  1  1  0  0  0  0
 23 24  2  0  0  0  0
 24 22  1  0  0  0  0
 25 24  1  6  0  0  0
 26 29  2  0  0  0  0
 26 31  1  0  0  0  0
 27 28  2  0  0  0  0
 27 25  1  0  0  0  0
 29 27  1  0  0  0  0
 30 25  1  0  0  0  0
 31 30  2  0  0  0  0
 32 26  1  0  0  0  0
 33 31  1  0  0  0  0
M  END
>  <MODEL>
9

>  <REMARK>
 VINA RESULT:      -7.0      6.001      8.519
  Name = 
  3 active torsions:
  status: ('A' for Active; 'I' for Inactive)
    1  A    between atoms: C_1  and  C_27
    2  A    between atoms: C_2  and  N_8
    3  A    between atoms: C_20  and  C_24
                            x       y       z     vdW  Elec       q    Type
                         _______ _______ _______ _____ _____    ______ ____

>  <TORSDO>
F 3

$$$$
