=
 OpenBabel11062413383D

 42 48  0  0  1  0  0  0  0  0999 V2000
  186.5380  178.0400  139.2230 C   0  0  0  0  0  0  0  0  0  0  0  0
  187.2050  178.3580  140.3880 C   0  0  0  0  0  0  0  0  0  0  0  0
  185.8220  176.8680  137.1000 C   0  0  0  0  0  2  0  0  0  0  0  0
  185.9860  175.5160  136.4730 C   0  0  0  0  0  0  0  0  0  0  0  0
  186.4150  179.1990  141.0850 N   0  0  0  0  0  0  0  0  0  0  0  0
  191.0170  177.2700  141.9910 C   0  0  0  0  0  3  0  0  0  0  0  0
  188.1300  176.5960  137.9240 C   0  0  0  0  0  0  0  0  0  0  0  0
  190.7120  176.9130  140.6790 C   0  0  0  0  0  3  0  0  0  0  0  0
  189.4650  177.2090  140.1150 C   0  0  0  0  0  0  0  0  0  0  0  0
  188.3670  175.7910  136.6710 C   0  0  0  0  0  2  0  0  0  0  0  0
  188.5110  177.9060  140.8860 C   0  0  0  0  0  0  0  0  0  0  0  0
  184.8300  174.7760  136.0750 N   0  0  0  0  0  2  0  0  0  0  0  0
  190.0730  177.9350  142.7740 C   0  0  0  0  0  0  0  0  0  0  0  0
  185.3160  179.3850  140.3750 N   0  0  0  0  0  0  0  0  0  0  0  0
  189.2740  176.7790  138.7640 N   0  0  0  0  0  0  0  0  0  0  0  0
  185.3600  178.6950  139.2480 N   0  0  0  0  0  0  0  0  0  0  0  0
  188.8370  178.2600  142.2050 C   0  0  0  0  0  3  0  0  0  0  0  0
  186.9050  177.1300  138.1250 C   0  0  0  0  0  0  0  0  0  0  0  0
  187.1760  175.0240  136.3060 N   0  0  0  0  0  0  0  0  0  0  0  0
  192.1760  175.3560  145.7770 C   0  0  0  0  0  2  0  0  0  0  0  0
  190.6200  177.6250  146.5410 C   0  0  1  0  0  3  0  0  0  0  0  0
  191.8520  176.3530  144.6730 C   0  0  0  0  0  2  0  0  0  0  0  0
  190.6020  176.4020  147.3750 C   0  0  2  0  0  3  0  0  0  0  0  0
  190.2090  179.5340  144.5120 O   0  0  0  0  0  0  0  0  0  0  0  0
  190.9210  177.3980  145.1190 N   0  0  0  0  0  0  0  0  0  0  0  0
  190.9330  175.1220  146.6140 C   0  0  0  0  0  2  0  0  0  0  0  0
  190.4040  178.3380  144.1600 C   0  0  0  0  0  0  0  0  0  0  0  0
  189.3410  176.9740  146.8730 N   0  0  0  0  0  0  0  0  0  0  0  0
  189.7490  178.3140  148.7480 O   0  0  0  0  0  1  0  0  0  0  0  0
  188.7480  177.7290  147.9690 C   0  0  1  0  0  3  0  0  0  0  0  0
  187.7700  178.7890  147.4480 C   0  0  0  0  0  2  0  0  0  0  0  0
  187.2770  178.3460  145.1480 F   0  0  0  0  0  0  0  0  0  0  0  0
  185.6260  179.0760  146.4850 F   0  0  0  0  0  0  0  0  0  0  0  0
  186.7520  178.2780  146.4250 C   0  0  0  0  0  0  0  0  0  0  0  0
  186.3880  176.9740  146.7060 F   0  0  0  0  0  0  0  0  0  0  0  0
  183.5350  170.8210  134.5940 O   0  0  0  0  0  1  0  0  0  0  0  0
  183.6130  173.1790  134.9340 C   0  0  0  0  0  2  0  0  0  0  0  0
  185.1910  172.5590  136.5650 C   0  0  0  0  0  2  0  0  0  0  0  0
  183.1930  171.8390  135.4850 C   0  0  0  0  0  0  0  0  0  0  0  0
  183.9660  171.6920  136.7630 C   0  0  0  0  0  2  0  0  0  0  0  0
  184.9270  173.5060  135.4850 N   0  0  0  0  0  0  0  0  0  0  0  0
  181.8220  171.8170  135.7340 O   0  0  0  0  0  1  0  0  0  0  0  0
  1 16  2  0  0  0  0
  1  2  1  0  0  0  0
  2 11  2  0  0  0  0
  2  5  1  0  0  0  0
  3 18  1  0  0  0  0
  4  3  1  0  0  0  0
  6 13  1  0  0  0  0
  7 18  2  0  0  0  0
  7 15  1  0  0  0  0
  8  6  2  0  0  0  0
  9  8  1  0  0  0  0
  9 11  1  0  0  0  0
 10  7  1  0  0  0  0
 11 17  1  0  0  0  0
 12  4  1  0  0  0  0
 13 27  1  0  0  0  0
 14  5  2  0  0  0  0
 15  9  2  0  0  0  0
 16 14  1  0  0  0  0
 17 13  2  0  0  0  0
 18  1  1  0  0  0  0
 19  4  2  0  0  0  0
 19 10  1  0  0  0  0
 20 26  1  0  0  0  0
 21 25  1  6  0  0  0
 21 28  1  0  0  0  0
 21 23  1  0  0  0  0
 22 25  1  0  0  0  0
 22 20  1  0  0  0  0
 23 26  1  6  0  0  0
 27 24  2  0  0  0  0
 27 25  1  0  0  0  0
 28 23  1  0  0  0  0
 28 30  1  0  0  0  0
 30 29  1  6  0  0  0
 31 30  1  0  0  0  0
 32 34  1  0  0  0  0
 34 33  1  0  0  0  0
 34 35  1  0  0  0  0
 34 31  1  0  0  0  0
 36 39  1  0  0  0  0
 37 39  1  0  0  0  0
 37 41  1  0  0  0  0
 38 40  1  0  0  0  0
 39 42  1  0  0  0  0
 39 40  1  0  0  0  0
 41 12  1  0  0  0  0
 41 38  1  0  0  0  0
M  END
>  <MODEL>
1

>  <REMARK>
 VINA RESULT:      -7.9      0.000      0.000
  Name = 
  5 active torsions:
  status: ('A' for Active; 'I' for Inactive)
    1  A    between atoms: C_21  and  C_30
    2  A    between atoms: N_27  and  N_28
    3  A    between atoms: C_29  and  C_36
    4  A    between atoms: C_30  and  C_31
    5  A    between atoms: C_31  and  N_38
                            x       y       z     vdW  Elec       q    Type
                         _______ _______ _______ _____ _____    ______ ____

>  <TORSDO>
F 5

$$$$
=
 OpenBabel11062413383D

 42 48  0  0  1  0  0  0  0  0999 V2000
  188.1340  178.1070  137.8240 C   0  0  0  0  0  0  0  0  0  0  0  0
  186.8940  178.3330  138.3860 C   0  0  0  0  0  0  0  0  0  0  0  0
  190.5220  177.3520  137.4830 C   0  0  0  0  0  2  0  0  0  0  0  0
  191.4730  176.3720  138.1030 C   0  0  0  0  0  0  0  0  0  0  0  0
  186.0420  178.6080  137.3770 N   0  0  0  0  0  0  0  0  0  0  0  0
  185.4420  178.3560  142.4080 C   0  0  0  0  0  3  0  0  0  0  0  0
  189.6830  177.7490  139.7670 C   0  0  0  0  0  0  0  0  0  0  0  0
  186.8150  178.2680  142.1890 C   0  0  0  0  0  3  0  0  0  0  0  0
  187.3440  178.2170  140.8930 C   0  0  0  0  0  0  0  0  0  0  0  0
  191.0890  177.4480  140.2200 C   0  0  0  0  0  2  0  0  0  0  0  0
  186.4670  178.2840  139.7900 C   0  0  0  0  0  0  0  0  0  0  0  0
  192.1080  175.3890  137.2830 N   0  0  0  0  0  2  0  0  0  0  0  0
  184.5600  178.3940  141.3260 C   0  0  0  0  0  0  0  0  0  0  0  0
  186.7320  178.5530  136.2530 N   0  0  0  0  0  0  0  0  0  0  0  0
  188.7680  178.1170  140.8040 N   0  0  0  0  0  0  0  0  0  0  0  0
  187.9970  178.2490  136.4900 N   0  0  0  0  0  0  0  0  0  0  0  0
  185.0860  178.3750  140.0300 C   0  0  0  0  0  3  0  0  0  0  0  0
  189.4110  177.7190  138.4440 C   0  0  0  0  0  0  0  0  0  0  0  0
  191.7020  176.4180  139.3800 N   0  0  0  0  0  0  0  0  0  0  0  0
  181.3940  176.2690  138.9710 C   0  0  0  0  0  2  0  0  0  0  0  0
  180.8310  178.5950  140.5290 C   0  0  1  0  0  3  0  0  0  0  0  0
  182.4380  176.6510  140.0120 C   0  0  0  0  0  2  0  0  0  0  0  0
  180.1580  178.3980  139.2250 C   0  0  2  0  0  3  0  0  0  0  0  0
  182.6940  179.1520  142.5660 O   0  0  0  0  0  0  0  0  0  0  0  0
  182.1430  177.9410  140.6510 N   0  0  0  0  0  0  0  0  0  0  0  0
  180.9330  177.5200  138.2470 C   0  0  0  0  0  2  0  0  0  0  0  0
  183.1030  178.5140  141.5570 C   0  0  0  0  0  0  0  0  0  0  0  0
  180.9080  179.6380  139.4910 N   0  0  0  0  0  0  0  0  0  0  0  0
  180.0110  180.9600  141.2010 O   0  0  0  0  0  1  0  0  0  0  0  0
  179.9310  180.6620  139.8390 C   0  0  1  0  0  3  0  0  0  0  0  0
  180.1230  181.9240  138.9900 C   0  0  0  0  0  2  0  0  0  0  0  0
  182.4720  181.5930  138.6730 F   0  0  0  0  0  0  0  0  0  0  0  0
  181.4100  183.0920  137.3820 F   0  0  0  0  0  0  0  0  0  0  0  0
  181.2930  181.8650  138.0050 C   0  0  0  0  0  0  0  0  0  0  0  0
  181.0740  180.8970  137.0420 F   0  0  0  0  0  0  0  0  0  0  0  0
  195.9720  173.4630  138.2170 O   0  0  0  0  0  1  0  0  0  0  0  0
  194.2790  175.1300  138.0260 C   0  0  0  0  0  2  0  0  0  0  0  0
  193.2210  173.4410  136.7760 C   0  0  0  0  0  2  0  0  0  0  0  0
  195.3570  174.3430  137.3240 C   0  0  0  0  0  0  0  0  0  0  0  0
  194.6350  173.5750  136.2550 C   0  0  0  0  0  2  0  0  0  0  0  0
  193.0040  174.4470  137.8130 N   0  0  0  0  0  0  0  0  0  0  0  0
  196.3050  175.1970  136.7630 O   0  0  0  0  0  1  0  0  0  0  0  0
  1  2  1  0  0  0  0
  1 18  1  0  0  0  0
  2 11  2  0  0  0  0
  3  4  1  0  0  0  0
  3 18  1  0  0  0  0
  4 19  2  0  0  0  0
  5  2  1  0  0  0  0
  7 10  1  0  0  0  0
  7 15  1  0  0  0  0
  8  6  2  0  0  0  0
  9  8  1  0  0  0  0
 11 17  1  0  0  0  0
 11  9  1  0  0  0  0
 12 41  1  0  0  0  0
 12  4  1  0  0  0  0
 13 27  1  0  0  0  0
 13  6  1  0  0  0  0
 14 16  1  0  0  0  0
 14  5  2  0  0  0  0
 15  9  2  0  0  0  0
 16  1  2  0  0  0  0
 17 13  2  0  0  0  0
 18  7  2  0  0  0  0
 19 10  1  0  0  0  0
 20 22  1  0  0  0  0
 21 28  1  6  0  0  0
 21 25  1  0  0  0  0
 22 25  1  0  0  0  0
 23 26  1  6  0  0  0
 23 28  1  0  0  0  0
 23 21  1  0  0  0  0
 25 27  1  0  0  0  0
 26 20  1  0  0  0  0
 27 24  2  0  0  0  0
 28 30  1  0  0  0  0
 30 29  1  1  0  0  0
 31 30  1  0  0  0  0
 33 34  1  0  0  0  0
 34 32  1  0  0  0  0
 34 31  1  0  0  0  0
 35 34  1  0  0  0  0
 38 41  1  0  0  0  0
 39 37  1  0  0  0  0
 39 36  1  0  0  0  0
 40 38  1  0  0  0  0
 40 39  1  0  0  0  0
 41 37  1  0  0  0  0
 42 39  1  0  0  0  0
M  END
>  <MODEL>
2

>  <REMARK>
 VINA RESULT:      -7.7      5.557      8.865
  Name = 
  5 active torsions:
  status: ('A' for Active; 'I' for Inactive)
    1  A    between atoms: C_21  and  C_30
    2  A    between atoms: N_27  and  N_28
    3  A    between atoms: C_29  and  C_36
    4  A    between atoms: C_30  and  C_31
    5  A    between atoms: C_31  and  N_38
                            x       y       z     vdW  Elec       q    Type
                         _______ _______ _______ _____ _____    ______ ____

>  <TORSDO>
F 5

$$$$
=
 OpenBabel11062413383D

 42 48  0  0  1  0  0  0  0  0999 V2000
  189.8100  176.9910  139.8120 C   0  0  0  0  0  0  0  0  0  0  0  0
  188.5810  177.6150  139.8830 C   0  0  0  0  0  0  0  0  0  0  0  0
  191.8530  175.7860  138.9390 C   0  0  0  0  0  2  0  0  0  0  0  0
  192.4990  175.5200  137.6120 C   0  0  0  0  0  0  0  0  0  0  0  0
  188.5680  178.3490  141.0130 N   0  0  0  0  0  0  0  0  0  0  0  0
  185.1130  177.5790  137.3810 C   0  0  0  0  0  3  0  0  0  0  0  0
  189.6970  175.5390  137.7670 C   0  0  0  0  0  0  0  0  0  0  0  0
  186.1430  176.6790  137.1160 C   0  0  0  0  0  3  0  0  0  0  0  0
  187.3180  176.6720  137.8780 C   0  0  0  0  0  0  0  0  0  0  0  0
  190.4190  174.5640  136.8720 C   0  0  0  0  0  2  0  0  0  0  0  0
  187.4460  177.5790  138.9510 C   0  0  0  0  0  0  0  0  0  0  0  0
  193.8660  175.8800  137.4060 N   0  0  0  0  0  2  0  0  0  0  0  0
  185.2370  178.5010  138.4210 C   0  0  0  0  0  0  0  0  0  0  0  0
  189.7370  178.1790  141.6060 N   0  0  0  0  0  0  0  0  0  0  0  0
  188.3020  175.7070  137.4970 N   0  0  0  0  0  0  0  0  0  0  0  0
  190.5090  177.3680  140.9030 N   0  0  0  0  0  0  0  0  0  0  0  0
  186.3960  178.4770  139.2040 C   0  0  0  0  0  3  0  0  0  0  0  0
  190.3850  176.1180  138.7760 C   0  0  0  0  0  0  0  0  0  0  0  0
  191.8060  174.9740  136.6580 N   0  0  0  0  0  0  0  0  0  0  0  0
  181.0560  177.3080  139.5070 C   0  0  0  0  0  2  0  0  0  0  0  0
  181.6910  179.9150  138.5310 C   0  0  1  0  0  3  0  0  0  0  0  0
  182.5250  177.7040  139.5520 C   0  0  0  0  0  2  0  0  0  0  0  0
  180.4280  179.2600  138.1220 C   0  0  2  0  0  3  0  0  0  0  0  0
  184.3890  180.6740  138.8110 O   0  0  0  0  0  0  0  0  0  0  0  0
  182.7780  178.9900  138.8880 N   0  0  0  0  0  0  0  0  0  0  0  0
  180.4670  177.7360  138.1760 C   0  0  0  0  0  2  0  0  0  0  0  0
  184.1340  179.4410  138.7200 C   0  0  0  0  0  0  0  0  0  0  0  0
  181.3710  179.7520  137.1020 N   0  0  0  0  0  0  0  0  0  0  0  0
  179.5370  180.8930  136.2000 O   0  0  0  0  0  1  0  0  0  0  0  0
  180.8590  181.0320  136.6290 C   0  0  1  0  0  3  0  0  0  0  0  0
  180.9720  182.1090  137.7140 C   0  0  0  0  0  2  0  0  0  0  0  0
  182.1990  184.1640  137.7380 F   0  0  0  0  0  0  0  0  0  0  0  0
  179.9620  184.2450  137.5510 F   0  0  0  0  0  0  0  0  0  0  0  0
  181.0940  183.5420  137.1870 C   0  0  0  0  0  0  0  0  0  0  0  0
  181.1990  183.5490  135.8090 F   0  0  0  0  0  0  0  0  0  0  0  0
  197.1940  175.1570  134.5940 O   0  0  0  0  0  1  0  0  0  0  0  0
  195.7480  174.9210  136.4730 C   0  0  0  0  0  2  0  0  0  0  0  0
  194.9070  176.9650  135.6660 C   0  0  0  0  0  2  0  0  0  0  0  0
  196.9010  175.6740  135.8570 C   0  0  0  0  0  0  0  0  0  0  0  0
  196.4140  177.0880  135.7380 C   0  0  0  0  0  2  0  0  0  0  0  0
  194.5170  175.6550  136.1830 N   0  0  0  0  0  0  0  0  0  0  0  0
  198.0270  175.6070  136.6750 O   0  0  0  0  0  1  0  0  0  0  0  0
  1  2  1  0  0  0  0
  1 16  1  0  0  0  0
  2  5  2  0  0  0  0
  4  3  1  0  0  0  0
  5 14  1  0  0  0  0
  6 13  1  0  0  0  0
  7 18  1  0  0  0  0
  8  6  2  0  0  0  0
  8  9  1  0  0  0  0
  9 11  2  0  0  0  0
 10  7  1  0  0  0  0
 11 17  1  0  0  0  0
 11  2  1  0  0  0  0
 12  4  1  0  0  0  0
 13 27  1  0  0  0  0
 13 17  2  0  0  0  0
 15  7  2  0  0  0  0
 15  9  1  0  0  0  0
 16 14  2  0  0  0  0
 18  3  1  0  0  0  0
 18  1  2  0  0  0  0
 19 10  1  0  0  0  0
 19  4  2  0  0  0  0
 20 22  1  0  0  0  0
 21 28  1  6  0  0  0
 21 25  1  0  0  0  0
 23 26  1  6  0  0  0
 23 21  1  0  0  0  0
 25 22  1  0  0  0  0
 26 20  1  0  0  0  0
 27 24  2  0  0  0  0
 27 25  1  0  0  0  0
 28 23  1  0  0  0  0
 30 29  1  1  0  0  0
 30 28  1  0  0  0  0
 30 31  1  0  0  0  0
 34 33  1  0  0  0  0
 34 31  1  0  0  0  0
 34 32  1  0  0  0  0
 35 34  1  0  0  0  0
 36 39  1  0  0  0  0
 38 40  1  0  0  0  0
 38 41  1  0  0  0  0
 39 37  1  0  0  0  0
 39 42  1  0  0  0  0
 40 39  1  0  0  0  0
 41 37  1  0  0  0  0
 41 12  1  0  0  0  0
M  END
>  <MODEL>
3

>  <REMARK>
 VINA RESULT:      -7.6      6.061      9.912
  Name = 
  5 active torsions:
  status: ('A' for Active; 'I' for Inactive)
    1  A    between atoms: C_21  and  C_30
    2  A    between atoms: N_27  and  N_28
    3  A    between atoms: C_29  and  C_36
    4  A    between atoms: C_30  and  C_31
    5  A    between atoms: C_31  and  N_38
                            x       y       z     vdW  Elec       q    Type
                         _______ _______ _______ _____ _____    ______ ____

>  <TORSDO>
F 5

$$$$
=
 OpenBabel11062413383D

 42 48  0  0  1  0  0  0  0  0999 V2000
  185.7310  178.5900  139.9690 C   0  0  0  0  0  0  0  0  0  0  0  0
  186.6720  178.7310  140.9690 C   0  0  0  0  0  0  0  0  0  0  0  0
  184.5100  177.7880  137.9050 C   0  0  0  0  0  2  0  0  0  0  0  0
  184.5310  176.5920  137.0020 C   0  0  0  0  0  0  0  0  0  0  0  0
  186.0730  179.3700  141.9940 N   0  0  0  0  0  0  0  0  0  0  0  0
  190.7890  177.6300  141.3140 C   0  0  0  0  0  3  0  0  0  0  0  0
  186.9580  177.5280  138.0530 C   0  0  0  0  0  0  0  0  0  0  0  0
  190.1610  177.5040  140.0770 C   0  0  0  0  0  3  0  0  0  0  0  0
  188.8040  177.8130  139.9140 C   0  0  0  0  0  0  0  0  0  0  0  0
  186.8770  176.9900  136.6470 C   0  0  0  0  0  2  0  0  0  0  0  0
  188.0700  178.2850  141.0230 C   0  0  0  0  0  0  0  0  0  0  0  0
  183.3250  175.8610  136.7690 N   0  0  0  0  0  2  0  0  0  0  0  0
  190.0680  178.0700  142.4260 C   0  0  0  0  0  0  0  0  0  0  0  0
  184.8250  179.6090  141.6340 N   0  0  0  0  0  0  0  0  0  0  0  0
  188.2770  177.6300  138.5980 N   0  0  0  0  0  0  0  0  0  0  0  0
  184.5870  179.1460  140.4180 N   0  0  0  0  0  0  0  0  0  0  0  0
  188.7210  178.4090  142.2610 C   0  0  0  0  0  3  0  0  0  0  0  0
  185.8170  177.9290  138.6560 C   0  0  0  0  0  0  0  0  0  0  0  0
  185.6460  176.2240  136.4480 N   0  0  0  0  0  0  0  0  0  0  0  0
  192.4330  174.8860  144.5140 C   0  0  0  0  0  2  0  0  0  0  0  0
  191.3780  177.1530  145.8940 C   0  0  1  0  0  3  0  0  0  0  0  0
  192.0050  176.0630  143.6480 C   0  0  0  0  0  2  0  0  0  0  0  0
  191.3880  175.8260  146.5510 C   0  0  2  0  0  3  0  0  0  0  0  0
  190.7780  179.3720  144.2680 O   0  0  0  0  0  0  0  0  0  0  0  0
  191.3310  177.1130  144.4240 N   0  0  0  0  0  0  0  0  0  0  0  0
  191.3830  174.6480  145.5820 C   0  0  0  0  0  2  0  0  0  0  0  0
  190.7410  178.2290  143.7350 C   0  0  0  0  0  0  0  0  0  0  0  0
  190.1300  176.5830  146.4310 N   0  0  0  0  0  0  0  0  0  0  0  0
  191.0930  177.6590  148.2720 O   0  0  0  0  0  1  0  0  0  0  0  0
  189.8880  177.2180  147.7200 C   0  0  1  0  0  3  0  0  0  0  0  0
  188.8910  178.3750  147.5900 C   0  0  0  0  0  2  0  0  0  0  0  0
  187.1950  176.7540  147.1170 F   0  0  0  0  0  0  0  0  0  0  0  0
  187.8760  178.1160  145.4660 F   0  0  0  0  0  0  0  0  0  0  0  0
  187.6110  178.0380  146.8200 C   0  0  0  0  0  0  0  0  0  0  0  0
  186.6040  178.9330  147.1280 F   0  0  0  0  0  0  0  0  0  0  0  0
  181.6370  172.4060  134.5950 O   0  0  0  0  0  1  0  0  0  0  0  0
  181.9350  174.6320  135.3940 C   0  0  0  0  0  2  0  0  0  0  0  0
  183.5030  173.5680  136.7890 C   0  0  0  0  0  2  0  0  0  0  0  0
  181.4150  173.2470  135.6880 C   0  0  0  0  0  0  0  0  0  0  0  0
  182.2130  172.7810  136.8700 C   0  0  0  0  0  2  0  0  0  0  0  0
  183.2900  174.7330  135.9330 N   0  0  0  0  0  0  0  0  0  0  0  0
  180.0560  173.2850  135.9950 O   0  0  0  0  0  1  0  0  0  0  0  0
  1 16  1  0  0  0  0
  1  2  1  0  0  0  0
  2 11  1  0  0  0  0
  2  5  2  0  0  0  0
  3 18  1  0  0  0  0
  4  3  1  0  0  0  0
  6 13  1  0  0  0  0
  7 15  2  0  0  0  0
  7 18  1  0  0  0  0
  8  6  2  0  0  0  0
  9  8  1  0  0  0  0
  9 11  2  0  0  0  0
 10  7  1  0  0  0  0
 11 17  1  0  0  0  0
 12  4  1  0  0  0  0
 13 27  1  0  0  0  0
 14  5  1  0  0  0  0
 15  9  1  0  0  0  0
 16 14  2  0  0  0  0
 17 13  2  0  0  0  0
 18  1  2  0  0  0  0
 19 10  1  0  0  0  0
 19  4  2  0  0  0  0
 20 26  1  0  0  0  0
 21 25  1  6  0  0  0
 21 28  1  0  0  0  0
 21 23  1  0  0  0  0
 22 25  1  0  0  0  0
 22 20  1  0  0  0  0
 23 26  1  6  0  0  0
 27 24  2  0  0  0  0
 27 25  1  0  0  0  0
 28 23  1  0  0  0  0
 28 30  1  0  0  0  0
 30 29  1  6  0  0  0
 31 30  1  0  0  0  0
 33 34  1  0  0  0  0
 34 32  1  0  0  0  0
 34 35  1  0  0  0  0
 34 31  1  0  0  0  0
 36 39  1  0  0  0  0
 37 39  1  0  0  0  0
 37 41  1  0  0  0  0
 38 40  1  0  0  0  0
 39 42  1  0  0  0  0
 39 40  1  0  0  0  0
 41 12  1  0  0  0  0
 41 38  1  0  0  0  0
M  END
>  <MODEL>
4

>  <REMARK>
 VINA RESULT:      -7.1      1.284      1.564
  Name = 
  5 active torsions:
  status: ('A' for Active; 'I' for Inactive)
    1  A    between atoms: C_21  and  C_30
    2  A    between atoms: N_27  and  N_28
    3  A    between atoms: C_29  and  C_36
    4  A    between atoms: C_30  and  C_31
    5  A    between atoms: C_31  and  N_38
                            x       y       z     vdW  Elec       q    Type
                         _______ _______ _______ _____ _____    ______ ____

>  <TORSDO>
F 5

$$$$
=
 OpenBabel11062413383D

 42 48  0  0  1  0  0  0  0  0999 V2000
  189.3850  177.0630  138.1880 C   0  0  0  0  0  0  0  0  0  0  0  0
  188.0190  177.1360  138.0080 C   0  0  0  0  0  0  0  0  0  0  0  0
  191.8160  176.4090  137.9480 C   0  0  0  0  0  2  0  0  0  0  0  0
  192.6850  175.7330  136.9290 C   0  0  0  0  0  0  0  0  0  0  0  0
  187.6040  178.2950  138.5570 N   0  0  0  0  0  0  0  0  0  0  0  0
  185.1430  174.5330  136.2100 C   0  0  0  0  0  3  0  0  0  0  0  0
  190.0530  174.8220  137.2720 C   0  0  0  0  0  0  0  0  0  0  0  0
  186.4440  174.0720  136.3930 C   0  0  0  0  0  3  0  0  0  0  0  0
  187.4380  174.8940  136.9410 C   0  0  0  0  0  0  0  0  0  0  0  0
  191.1790  173.8580  136.9940 C   0  0  0  0  0  2  0  0  0  0  0  0
  187.1010  176.2060  137.3380 C   0  0  0  0  0  0  0  0  0  0  0  0
  193.8590  176.3930  136.4530 N   0  0  0  0  0  2  0  0  0  0  0  0
  184.8020  175.8370  136.5710 C   0  0  0  0  0  0  0  0  0  0  0  0
  188.6700  178.9000  139.0520 N   0  0  0  0  0  0  0  0  0  0  0  0
  188.7350  174.3060  137.0670 N   0  0  0  0  0  0  0  0  0  0  0  0
  189.7600  178.1820  138.8410 N   0  0  0  0  0  0  0  0  0  0  0  0
  185.7830  176.6510  137.1480 C   0  0  0  0  0  3  0  0  0  0  0  0
  190.3590  176.0500  137.7480 C   0  0  0  0  0  0  0  0  0  0  0  0
  192.3560  174.5590  136.4820 N   0  0  0  0  0  0  0  0  0  0  0  0
  182.1970  177.4130  139.8610 C   0  0  0  0  0  2  0  0  0  0  0  0
  181.1260  176.4750  137.3850 C   0  0  1  0  0  3  0  0  0  0  0  0
  183.1830  177.2810  138.7080 C   0  0  0  0  0  2  0  0  0  0  0  0
  180.4060  176.2090  138.6510 C   0  0  2  0  0  3  0  0  0  0  0  0
  182.9440  176.4300  135.2340 O   0  0  0  0  0  0  0  0  0  0  0  0
  182.5800  176.6450  137.5270 N   0  0  0  0  0  0  0  0  0  0  0  0
  181.2980  176.1910  139.8870 C   0  0  0  0  0  2  0  0  0  0  0  0
  183.4140  176.3200  136.4010 C   0  0  0  0  0  0  0  0  0  0  0  0
  180.7640  175.0960  137.7540 N   0  0  0  0  0  0  0  0  0  0  0  0
  179.3130  175.7210  136.0280 O   0  0  0  0  0  1  0  0  0  0  0  0
  179.5660  174.7510  137.0010 C   0  0  1  0  0  3  0  0  0  0  0  0
  179.6910  173.3600  136.3660 C   0  0  0  0  0  2  0  0  0  0  0  0
  181.3180  171.8160  137.2000 F   0  0  0  0  0  0  0  0  0  0  0  0
  179.1720  171.1640  137.0810 F   0  0  0  0  0  0  0  0  0  0  0  0
  180.0080  172.2300  137.3490 C   0  0  0  0  0  0  0  0  0  0  0  0
  179.7990  172.6420  138.6520 F   0  0  0  0  0  0  0  0  0  0  0  0
  197.5640  174.7310  134.7130 O   0  0  0  0  0  1  0  0  0  0  0  0
  195.7610  175.1020  136.2270 C   0  0  0  0  0  2  0  0  0  0  0  0
  195.3410  176.8990  134.7690 C   0  0  0  0  0  2  0  0  0  0  0  0
  197.0920  175.5870  135.7100 C   0  0  0  0  0  0  0  0  0  0  0  0
  196.8080  176.9440  135.1360 C   0  0  0  0  0  2  0  0  0  0  0  0
  194.7060  175.8050  135.4990 N   0  0  0  0  0  0  0  0  0  0  0  0
  198.0210  175.6740  136.7460 O   0  0  0  0  0  1  0  0  0  0  0  0
  1 16  1  0  0  0  0
  2  1  1  0  0  0  0
  2  5  2  0  0  0  0
  4  3  1  0  0  0  0
  5 14  1  0  0  0  0
  6  8  2  0  0  0  0
  6 13  1  0  0  0  0
  7 18  1  0  0  0  0
  8  9  1  0  0  0  0
  9 15  1  0  0  0  0
  9 11  2  0  0  0  0
 10  7  1  0  0  0  0
 11  2  1  0  0  0  0
 12  4  1  0  0  0  0
 13 17  2  0  0  0  0
 15  7  2  0  0  0  0
 16 14  2  0  0  0  0
 17 11  1  0  0  0  0
 18  3  1  0  0  0  0
 18  1  2  0  0  0  0
 19  4  2  0  0  0  0
 19 10  1  0  0  0  0
 20 26  1  0  0  0  0
 21 25  1  1  0  0  0
 21 28  1  0  0  0  0
 21 23  1  0  0  0  0
 22 20  1  0  0  0  0
 23 26  1  1  0  0  0
 24 27  2  0  0  0  0
 25 22  1  0  0  0  0
 27 13  1  0  0  0  0
 27 25  1  0  0  0  0
 28 23  1  0  0  0  0
 30 29  1  6  0  0  0
 30 28  1  0  0  0  0
 31 30  1  0  0  0  0
 31 34  1  0  0  0  0
 32 34  1  0  0  0  0
 33 34  1  0  0  0  0
 34 35  1  0  0  0  0
 36 39  1  0  0  0  0
 38 40  1  0  0  0  0
 38 41  1  0  0  0  0
 39 37  1  0  0  0  0
 39 42  1  0  0  0  0
 40 39  1  0  0  0  0
 41 37  1  0  0  0  0
 41 12  1  0  0  0  0
M  END
>  <MODEL>
5

>  <REMARK>
 VINA RESULT:      -7.1      6.413     10.305
  Name = 
  5 active torsions:
  status: ('A' for Active; 'I' for Inactive)
    1  A    between atoms: C_21  and  C_30
    2  A    between atoms: N_27  and  N_28
    3  A    between atoms: C_29  and  C_36
    4  A    between atoms: C_30  and  C_31
    5  A    between atoms: C_31  and  N_38
                            x       y       z     vdW  Elec       q    Type
                         _______ _______ _______ _____ _____    ______ ____

>  <TORSDO>
F 5

$$$$
=
 OpenBabel11062413383D

 42 48  0  0  1  0  0  0  0  0999 V2000
  189.0240  173.7830  136.6140 C   0  0  0  0  0  0  0  0  0  0  0  0
  187.7430  174.2870  136.7100 C   0  0  0  0  0  0  0  0  0  0  0  0
  191.5380  173.6180  136.4090 C   0  0  0  0  0  2  0  0  0  0  0  0
  192.7260  174.5140  136.6000 C   0  0  0  0  0  0  0  0  0  0  0  0
  186.9650  173.3080  137.2150 N   0  0  0  0  0  0  0  0  0  0  0  0
  185.9780  178.0550  135.7240 C   0  0  0  0  0  3  0  0  0  0  0  0
  190.3710  175.6070  135.5360 C   0  0  0  0  0  0  0  0  0  0  0  0
  187.2890  177.8020  135.3280 C   0  0  0  0  0  3  0  0  0  0  0  0
  187.9310  176.6010  135.6570 C   0  0  0  0  0  0  0  0  0  0  0  0
  191.7250  176.0530  135.0450 C   0  0  0  0  0  2  0  0  0  0  0  0
  187.2220  175.6200  136.3810 C   0  0  0  0  0  0  0  0  0  0  0  0
  193.7800  174.1120  137.4760 N   0  0  0  0  0  2  0  0  0  0  0  0
  185.2730  177.1050  136.4660 C   0  0  0  0  0  0  0  0  0  0  0  0
  187.7370  172.2560  137.4160 N   0  0  0  0  0  0  0  0  0  0  0  0
  189.2800  176.4700  135.2010 N   0  0  0  0  0  0  0  0  0  0  0  0
  188.9870  172.5130  137.0670 N   0  0  0  0  0  0  0  0  0  0  0  0
  185.9000  175.8920  136.7700 C   0  0  0  0  0  3  0  0  0  0  0  0
  190.2770  174.4240  136.1820 C   0  0  0  0  0  0  0  0  0  0  0  0
  192.7800  175.6510  135.9760 N   0  0  0  0  0  0  0  0  0  0  0  0
  183.9990  179.0800  140.2820 C   0  0  0  0  0  2  0  0  0  0  0  0
  182.2240  177.4630  138.7360 C   0  0  1  0  0  3  0  0  0  0  0  0
  184.4200  178.8020  138.8450 C   0  0  0  0  0  2  0  0  0  0  0  0
  182.1690  177.4160  140.2150 C   0  0  2  0  0  3  0  0  0  0  0  0
  182.9480  177.1350  136.0350 O   0  0  0  0  0  0  0  0  0  0  0  0
  183.5330  177.8380  138.1790 N   0  0  0  0  0  0  0  0  0  0  0  0
  183.4760  177.7980  140.9020 C   0  0  0  0  0  2  0  0  0  0  0  0
  183.8720  177.3610  136.8650 C   0  0  0  0  0  0  0  0  0  0  0  0
  182.3510  176.1750  139.4410 N   0  0  0  0  0  0  0  0  0  0  0  0
  180.1130  176.2330  140.1200 O   0  0  0  0  0  1  0  0  0  0  0  0
  181.0520  175.5190  139.3730 C   0  0  1  0  0  3  0  0  0  0  0  0
  180.5880  175.3580  137.9210 C   0  0  0  0  0  2  0  0  0  0  0  0
  180.5310  173.9780  135.9660 F   0  0  0  0  0  0  0  0  0  0  0  0
  180.8070  173.0010  137.9690 F   0  0  0  0  0  0  0  0  0  0  0  0
  181.1200  174.1110  137.2090 C   0  0  0  0  0  0  0  0  0  0  0  0
  182.4930  174.1780  137.0650 F   0  0  0  0  0  0  0  0  0  0  0  0
  198.0230  175.3410  137.3950 O   0  0  0  0  0  1  0  0  0  0  0  0
  195.8890  174.5750  136.6570 C   0  0  0  0  0  2  0  0  0  0  0  0
  195.4820  174.5020  138.9730 C   0  0  0  0  0  2  0  0  0  0  0  0
  197.1900  174.2220  137.3350 C   0  0  0  0  0  0  0  0  0  0  0  0
  196.7950  173.7950  138.7180 C   0  0  0  0  0  2  0  0  0  0  0  0
  194.9130  174.9130  137.6910 N   0  0  0  0  0  0  0  0  0  0  0  0
  197.8300  173.1830  136.6620 O   0  0  0  0  0  1  0  0  0  0  0  0
  1  2  1  0  0  0  0
  1 16  1  0  0  0  0
  2  5  2  0  0  0  0
  3  4  1  0  0  0  0
  4 12  1  0  0  0  0
  5 14  1  0  0  0  0
  6 13  1  0  0  0  0
  7 18  1  0  0  0  0
  8  9  1  0  0  0  0
  8  6  2  0  0  0  0
  9 11  2  0  0  0  0
 10  7  1  0  0  0  0
 10 19  1  0  0  0  0
 11  2  1  0  0  0  0
 11 17  1  0  0  0  0
 12 41  1  0  0  0  0
 13 17  2  0  0  0  0
 13 27  1  0  0  0  0
 15  7  2  0  0  0  0
 15  9  1  0  0  0  0
 16 14  2  0  0  0  0
 18  3  1  0  0  0  0
 18  1  2  0  0  0  0
 19  4  2  0  0  0  0
 20 26  1  0  0  0  0
 21 25  1  1  0  0  0
 21 28  1  0  0  0  0
 21 23  1  0  0  0  0
 22 20  1  0  0  0  0
 23 26  1  1  0  0  0
 24 27  2  0  0  0  0
 25 22  1  0  0  0  0
 27 25  1  0  0  0  0
 28 23  1  0  0  0  0
 30 28  1  0  0  0  0
 30 29  1  1  0  0  0
 31 30  1  0  0  0  0
 32 34  1  0  0  0  0
 34 31  1  0  0  0  0
 34 33  1  0  0  0  0
 35 34  1  0  0  0  0
 37 39  1  0  0  0  0
 37 41  1  0  0  0  0
 39 36  1  0  0  0  0
 39 40  1  0  0  0  0
 40 38  1  0  0  0  0
 41 38  1  0  0  0  0
 42 39  1  0  0  0  0
M  END
>  <MODEL>
6

>  <REMARK>
 VINA RESULT:      -6.9      6.584      9.760
  Name = 
  5 active torsions:
  status: ('A' for Active; 'I' for Inactive)
    1  A    between atoms: C_21  and  C_30
    2  A    between atoms: N_27  and  N_28
    3  A    between atoms: C_29  and  C_36
    4  A    between atoms: C_30  and  C_31
    5  A    between atoms: C_31  and  N_38
                            x       y       z     vdW  Elec       q    Type
                         _______ _______ _______ _____ _____    ______ ____

>  <TORSDO>
F 5

$$$$
=
 OpenBabel11062413383D

 42 48  0  0  1  0  0  0  0  0999 V2000
  187.9710  175.1710  137.3120 C   0  0  0  0  0  0  0  0  0  0  0  0
  186.7310  174.8370  136.8070 C   0  0  0  0  0  0  0  0  0  0  0  0
  189.8170  176.3150  138.6060 C   0  0  0  0  0  2  0  0  0  0  0  0
  189.9380  177.2240  139.7920 C   0  0  0  0  0  0  0  0  0  0  0  0
  186.8190  173.5820  136.3240 N   0  0  0  0  0  0  0  0  0  0  0  0
  183.0160  176.9320  136.5010 C   0  0  0  0  0  3  0  0  0  0  0  0
  187.7610  177.5600  138.0550 C   0  0  0  0  0  0  0  0  0  0  0  0
  184.1500  177.6310  136.9080 C   0  0  0  0  0  3  0  0  0  0  0  0
  185.3850  176.9880  137.0630 C   0  0  0  0  0  0  0  0  0  0  0  0
  188.4400  178.7480  138.6870 C   0  0  0  0  0  2  0  0  0  0  0  0
  185.4820  175.6100  136.7750 C   0  0  0  0  0  0  0  0  0  0  0  0
  190.7780  176.8510  140.8860 N   0  0  0  0  0  2  0  0  0  0  0  0
  183.0910  175.5630  136.2390 C   0  0  0  0  0  0  0  0  0  0  0  0
  188.0580  173.1700  136.5250 N   0  0  0  0  0  0  0  0  0  0  0  0
  186.4680  177.8150  137.4970 N   0  0  0  0  0  0  0  0  0  0  0  0
  188.7760  174.1050  137.1230 N   0  0  0  0  0  0  0  0  0  0  0  0
  184.3280  174.9230  136.3630 C   0  0  0  0  0  3  0  0  0  0  0  0
  188.4310  176.3880  138.0000 C   0  0  0  0  0  0  0  0  0  0  0  0
  189.2700  178.3380  139.8200 N   0  0  0  0  0  0  0  0  0  0  0  0
  179.3080  175.0750  138.5930 C   0  0  0  0  0  2  0  0  0  0  0  0
  179.9850  173.3490  136.4210 C   0  0  1  0  0  3  0  0  0  0  0  0
  180.3910  175.5760  137.6480 C   0  0  0  0  0  2  0  0  0  0  0  0
  179.3180  172.7990  137.6230 C   0  0  2  0  0  3  0  0  0  0  0  0
  181.8530  174.3990  134.5940 O   0  0  0  0  0  0  0  0  0  0  0  0
  180.7840  174.5610  136.6600 N   0  0  0  0  0  0  0  0  0  0  0  0
  179.5510  173.6080  138.8940 C   0  0  0  0  0  2  0  0  0  0  0  0
  181.8920  174.8250  135.7820 C   0  0  0  0  0  0  0  0  0  0  0  0
  180.5900  172.2220  137.1520 N   0  0  0  0  0  0  0  0  0  0  0  0
  179.0970  171.1980  135.6690 O   0  0  0  0  0  1  0  0  0  0  0  0
  180.2620  171.0080  136.4150 C   0  0  1  0  0  3  0  0  0  0  0  0
  181.4240  170.5750  135.5140 C   0  0  0  0  0  2  0  0  0  0  0  0
  183.4610  171.8320  135.4880 F   0  0  0  0  0  0  0  0  0  0  0  0
  183.5560  169.6310  135.9250 F   0  0  0  0  0  0  0  0  0  0  0  0
  182.8170  170.7820  136.1160 C   0  0  0  0  0  0  0  0  0  0  0  0
  182.7310  171.0360  137.4720 F   0  0  0  0  0  0  0  0  0  0  0  0
  191.7650  177.9660  145.0440 O   0  0  0  0  0  1  0  0  0  0  0  0
  191.9820  177.0780  142.8430 C   0  0  0  0  0  2  0  0  0  0  0  0
  189.6810  177.5610  142.7780 C   0  0  0  0  0  2  0  0  0  0  0  0
  191.4370  176.8770  144.2350 C   0  0  0  0  0  0  0  0  0  0  0  0
  189.9500  176.7950  144.0550 C   0  0  0  0  0  2  0  0  0  0  0  0
  190.9260  177.6650  142.0200 N   0  0  0  0  0  0  0  0  0  0  0  0
  191.9320  175.6990  144.7930 O   0  0  0  0  0  1  0  0  0  0  0  0
  1 18  1  0  0  0  0
  2  1  1  0  0  0  0
  3  4  1  0  0  0  0
  4 19  2  0  0  0  0
  4 12  1  0  0  0  0
  5 14  2  0  0  0  0
  5  2  1  0  0  0  0
  6  8  2  0  0  0  0
  7 10  1  0  0  0  0
  8  9  1  0  0  0  0
  9 15  2  0  0  0  0
 10 19  1  0  0  0  0
 11  2  2  0  0  0  0
 11  9  1  0  0  0  0
 12 41  1  0  0  0  0
 13 17  2  0  0  0  0
 13  6  1  0  0  0  0
 14 16  1  0  0  0  0
 15  7  1  0  0  0  0
 16  1  2  0  0  0  0
 17 11  1  0  0  0  0
 18  7  2  0  0  0  0
 18  3  1  0  0  0  0
 20 26  1  0  0  0  0
 21 25  1  1  0  0  0
 21 28  1  0  0  0  0
 21 23  1  0  0  0  0
 22 20  1  0  0  0  0
 23 26  1  1  0  0  0
 24 27  2  0  0  0  0
 25 22  1  0  0  0  0
 27 13  1  0  0  0  0
 27 25  1  0  0  0  0
 28 23  1  0  0  0  0
 30 29  1  6  0  0  0
 30 28  1  0  0  0  0
 31 34  1  0  0  0  0
 31 30  1  0  0  0  0
 32 34  1  0  0  0  0
 33 34  1  0  0  0  0
 34 35  1  0  0  0  0
 37 39  1  0  0  0  0
 38 40  1  0  0  0  0
 39 42  1  0  0  0  0
 39 36  1  0  0  0  0
 40 39  1  0  0  0  0
 41 38  1  0  0  0  0
 41 37  1  0  0  0  0
M  END
>  <MODEL>
7

>  <REMARK>
 VINA RESULT:      -6.8      4.240     10.974
  Name = 
  5 active torsions:
  status: ('A' for Active; 'I' for Inactive)
    1  A    between atoms: C_21  and  C_30
    2  A    between atoms: N_27  and  N_28
    3  A    between atoms: C_29  and  C_36
    4  A    between atoms: C_30  and  C_31
    5  A    between atoms: C_31  and  N_38
                            x       y       z     vdW  Elec       q    Type
                         _______ _______ _______ _____ _____    ______ ____

>  <TORSDO>
F 5

$$$$
=
 OpenBabel11062413383D

 42 48  0  0  1  0  0  0  0  0999 V2000
  186.4810  176.0020  135.8660 C   0  0  0  0  0  0  0  0  0  0  0  0
  185.2610  176.1720  136.4900 C   0  0  0  0  0  0  0  0  0  0  0  0
  188.9510  176.0990  135.3390 C   0  0  0  0  0  2  0  0  0  0  0  0
  190.2290  176.3880  136.0700 C   0  0  0  0  0  0  0  0  0  0  0  0
  184.4230  175.2410  135.9910 N   0  0  0  0  0  0  0  0  0  0  0  0
  183.8130  178.9240  139.4240 C   0  0  0  0  0  3  0  0  0  0  0  0
  187.9320  177.8550  136.7380 C   0  0  0  0  0  0  0  0  0  0  0  0
  185.0690  179.1400  138.8620 C   0  0  0  0  0  3  0  0  0  0  0  0
  185.6110  178.2500  137.9250 C   0  0  0  0  0  0  0  0  0  0  0  0
  189.2930  178.5060  136.7210 C   0  0  0  0  0  2  0  0  0  0  0  0
  184.8530  177.1290  137.5270 C   0  0  0  0  0  0  0  0  0  0  0  0
  191.2880  175.4300  136.0460 N   0  0  0  0  0  2  0  0  0  0  0  0
  183.0650  177.8040  139.0610 C   0  0  0  0  0  0  0  0  0  0  0  0
  185.1020  174.5360  135.1030 N   0  0  0  0  0  0  0  0  0  0  0  0
  186.9120  178.5800  137.4320 N   0  0  0  0  0  0  0  0  0  0  0  0
  186.3470  174.9690  135.0080 N   0  0  0  0  0  0  0  0  0  0  0  0
  183.5880  176.9290  138.1030 C   0  0  0  0  0  3  0  0  0  0  0  0
  187.7620  176.7000  136.0580 C   0  0  0  0  0  0  0  0  0  0  0  0
  190.3560  177.5020  136.7260 N   0  0  0  0  0  0  0  0  0  0  0  0
  179.6120  180.6390  138.6950 C   0  0  0  0  0  2  0  0  0  0  0  0
  179.7220  178.6240  140.7160 C   0  0  1  0  0  3  0  0  0  0  0  0
  180.6170  179.5160  138.4730 C   0  0  0  0  0  2  0  0  0  0  0  0
  179.1540  179.9540  141.0290 C   0  0  2  0  0  3  0  0  0  0  0  0
  181.4550  176.4720  140.1690 O   0  0  0  0  0  0  0  0  0  0  0  0
  180.7160  178.6170  139.6310 N   0  0  0  0  0  0  0  0  0  0  0  0
  179.6770  181.0820  140.1440 C   0  0  0  0  0  2  0  0  0  0  0  0
  181.7200  177.5860  139.6390 C   0  0  0  0  0  0  0  0  0  0  0  0
  180.2500  179.4070  141.8470 N   0  0  0  0  0  0  0  0  0  0  0  0
  179.3050  177.5250  142.8700 O   0  0  0  0  0  1  0  0  0  0  0  0
  179.6490  178.8660  143.0590 C   0  0  1  0  0  3  0  0  0  0  0  0
  180.5870  179.0250  144.2620 C   0  0  0  0  0  2  0  0  0  0  0  0
  182.2670  178.2390  142.7510 F   0  0  0  0  0  0  0  0  0  0  0  0
  182.7160  178.2520  144.9520 F   0  0  0  0  0  0  0  0  0  0  0  0
  182.0790  178.9320  143.9320 C   0  0  0  0  0  0  0  0  0  0  0  0
  182.6350  180.1920  143.8220 F   0  0  0  0  0  0  0  0  0  0  0  0
  195.6300  175.2670  136.8440 O   0  0  0  0  0  1  0  0  0  0  0  0
  193.5650  175.6250  135.7090 C   0  0  0  0  0  2  0  0  0  0  0  0
  192.7140  174.5040  137.5950 C   0  0  0  0  0  2  0  0  0  0  0  0
  194.6040  174.6240  136.1490 C   0  0  0  0  0  0  0  0  0  0  0  0
  193.8690  173.6860  137.0610 C   0  0  0  0  0  2  0  0  0  0  0  0
  192.5030  175.6510  136.7150 N   0  0  0  0  0  0  0  0  0  0  0  0
  195.1240  173.9400  135.0520 O   0  0  0  0  0  1  0  0  0  0  0  0
  1 18  1  0  0  0  0
  1  2  1  0  0  0  0
  2 11  2  0  0  0  0
  3 18  1  0  0  0  0
  3  4  1  0  0  0  0
  4 19  2  0  0  0  0
  5  2  1  0  0  0  0
  7 15  1  0  0  0  0
  8  6  2  0  0  0  0
  9  8  1  0  0  0  0
 10 19  1  0  0  0  0
 10  7  1  0  0  0  0
 11  9  1  0  0  0  0
 11 17  1  0  0  0  0
 12  4  1  0  0  0  0
 12 41  1  0  0  0  0
 13  6  1  0  0  0  0
 13 27  1  0  0  0  0
 14  5  2  0  0  0  0
 15  9  2  0  0  0  0
 16 14  1  0  0  0  0
 16  1  2  0  0  0  0
 17 13  2  0  0  0  0
 18  7  2  0  0  0  0
 20 26  1  0  0  0  0
 21 25  1  6  0  0  0
 21 23  1  0  0  0  0
 21 28  1  0  0  0  0
 22 20  1  0  0  0  0
 22 25  1  0  0  0  0
 23 26  1  6  0  0  0
 23 28  1  0  0  0  0
 25 27  1  0  0  0  0
 27 24  2  0  0  0  0
 28 30  1  0  0  0  0
 30 29  1  6  0  0  0
 30 31  1  0  0  0  0
 32 34  1  0  0  0  0
 34 31  1  0  0  0  0
 34 33  1  0  0  0  0
 35 34  1  0  0  0  0
 37 39  1  0  0  0  0
 37 41  1  0  0  0  0
 39 36  1  0  0  0  0
 39 40  1  0  0  0  0
 40 38  1  0  0  0  0
 41 38  1  0  0  0  0
 42 39  1  0  0  0  0
M  END
>  <MODEL>
8

>  <REMARK>
 VINA RESULT:      -6.8      5.827      8.713
  Name = 
  5 active torsions:
  status: ('A' for Active; 'I' for Inactive)
    1  A    between atoms: C_21  and  C_30
    2  A    between atoms: N_27  and  N_28
    3  A    between atoms: C_29  and  C_36
    4  A    between atoms: C_30  and  C_31
    5  A    between atoms: C_31  and  N_38
                            x       y       z     vdW  Elec       q    Type
                         _______ _______ _______ _____ _____    ______ ____

>  <TORSDO>
F 5

$$$$
=
 OpenBabel11062413383D

 42 48  0  0  1  0  0  0  0  0999 V2000
  188.7600  177.6750  138.5030 C   0  0  0  0  0  0  0  0  0  0  0  0
  190.0650  177.3160  138.2380 C   0  0  0  0  0  0  0  0  0  0  0  0
  186.2510  177.9350  138.3350 C   0  0  0  0  0  2  0  0  0  0  0  0
  185.1150  177.2750  137.6100 C   0  0  0  0  0  0  0  0  0  0  0  0
  190.7580  177.4440  139.3870 N   0  0  0  0  0  0  0  0  0  0  0  0
  192.1050  176.0310  134.7060 C   0  0  0  0  0  3  0  0  0  0  0  0
  187.5770  177.5490  136.2920 C   0  0  0  0  0  0  0  0  0  0  0  0
  190.7980  176.4990  134.5950 C   0  0  0  0  0  3  0  0  0  0  0  0
  190.0680  176.8960  135.7230 C   0  0  0  0  0  0  0  0  0  0  0  0
  186.2750  177.7070  135.5470 C   0  0  0  0  0  2  0  0  0  0  0  0
  190.6830  176.8440  136.9910 C   0  0  0  0  0  0  0  0  0  0  0  0
  184.0020  176.7720  138.3500 N   0  0  0  0  0  2  0  0  0  0  0  0
  192.7160  175.9470  135.9580 C   0  0  0  0  0  0  0  0  0  0  0  0
  189.9120  177.8640  140.3110 N   0  0  0  0  0  0  0  0  0  0  0  0
  188.7340  177.3470  135.4740 N   0  0  0  0  0  0  0  0  0  0  0  0
  188.6970  178.0090  139.8090 N   0  0  0  0  0  0  0  0  0  0  0  0
  192.0020  176.3720  137.0830 C   0  0  0  0  0  3  0  0  0  0  0  0
  187.5690  177.6750  137.6370 C   0  0  0  0  0  0  0  0  0  0  0  0
  185.1600  177.1580  136.3170 N   0  0  0  0  0  0  0  0  0  0  0  0
  193.9580  171.6680  136.4440 C   0  0  0  0  0  2  0  0  0  0  0  0
  195.6790  173.8410  137.1290 C   0  0  1  0  0  3  0  0  0  0  0  0
  193.5830  173.0290  135.8750 C   0  0  0  0  0  2  0  0  0  0  0  0
  195.6650  172.6190  137.9630 C   0  0  2  0  0  3  0  0  0  0  0  0
  195.0550  176.2970  135.9000 O   0  0  0  0  0  0  0  0  0  0  0  0
  194.4270  174.1090  136.4050 N   0  0  0  0  0  0  0  0  0  0  0  0
  194.3600  171.8320  137.8980 C   0  0  0  0  0  2  0  0  0  0  0  0
  194.1140  175.4740  136.0750 C   0  0  0  0  0  0  0  0  0  0  0  0
  195.4280  173.9370  138.5780 N   0  0  0  0  0  0  0  0  0  0  0  0
  197.3560  175.2480  138.3790 O   0  0  0  0  0  1  0  0  0  0  0  0
  196.6780  174.3470  139.2040 C   0  0  1  0  0  3  0  0  0  0  0  0
  196.4310  174.9540  140.5900 C   0  0  0  0  0  2  0  0  0  0  0  0
  197.7290  175.3030  142.5710 F   0  0  0  0  0  0  0  0  0  0  0  0
  197.5270  176.9900  141.1020 F   0  0  0  0  0  0  0  0  0  0  0  0
  197.6540  175.6200  141.2270 C   0  0  0  0  0  0  0  0  0  0  0  0
  198.8150  175.2210  140.5930 F   0  0  0  0  0  0  0  0  0  0  0  0
  179.7960  175.8450  137.3690 O   0  0  0  0  0  1  0  0  0  0  0  0
  181.7960  177.0860  137.7420 C   0  0  0  0  0  2  0  0  0  0  0  0
  182.5390  175.0100  138.5610 C   0  0  0  0  0  2  0  0  0  0  0  0
  180.6090  176.3930  138.3630 C   0  0  0  0  0  0  0  0  0  0  0  0
  181.2020  175.3020  139.2060 C   0  0  0  0  0  2  0  0  0  0  0  0
  182.9140  176.1450  137.7210 N   0  0  0  0  0  0  0  0  0  0  0  0
  179.8750  177.2790  139.1490 O   0  0  0  0  0  1  0  0  0  0  0  0
  1 16  1  0  0  0  0
  2  1  1  0  0  0  0
  2  5  2  0  0  0  0
  4  3  1  0  0  0  0
  4 12  1  0  0  0  0
  5 14  1  0  0  0  0
  6 13  1  0  0  0  0
  7 18  1  0  0  0  0
  8  6  2  0  0  0  0
  8  9  1  0  0  0  0
  9 11  2  0  0  0  0
 10  7  1  0  0  0  0
 10 19  1  0  0  0  0
 11 17  1  0  0  0  0
 11  2  1  0  0  0  0
 13 27  1  0  0  0  0
 13 17  2  0  0  0  0
 15  9  1  0  0  0  0
 15  7  2  0  0  0  0
 16 14  2  0  0  0  0
 18  3  1  0  0  0  0
 18  1  2  0  0  0  0
 19  4  2  0  0  0  0
 20 26  1  0  0  0  0
 21 25  1  6  0  0  0
 21 23  1  0  0  0  0
 21 28  1  0  0  0  0
 22 25  1  0  0  0  0
 22 20  1  0  0  0  0
 23 26  1  6  0  0  0
 23 28  1  0  0  0  0
 24 27  2  0  0  0  0
 27 25  1  0  0  0  0
 28 30  1  0  0  0  0
 30 29  1  6  0  0  0
 30 31  1  0  0  0  0
 31 34  1  0  0  0  0
 33 34  1  0  0  0  0
 34 32  1  0  0  0  0
 35 34  1  0  0  0  0
 36 39  1  0  0  0  0
 37 39  1  0  0  0  0
 38 40  1  0  0  0  0
 39 42  1  0  0  0  0
 39 40  1  0  0  0  0
 41 37  1  0  0  0  0
 41 12  1  0  0  0  0
 41 38  1  0  0  0  0
M  END
>  <MODEL>
9

>  <REMARK>
 VINA RESULT:      -6.7      6.276      7.940
  Name = 
  5 active torsions:
  status: ('A' for Active; 'I' for Inactive)
    1  A    between atoms: C_21  and  C_30
    2  A    between atoms: N_27  and  N_28
    3  A    between atoms: C_29  and  C_36
    4  A    between atoms: C_30  and  C_31
    5  A    between atoms: C_31  and  N_38
                            x       y       z     vdW  Elec       q    Type
                         _______ _______ _______ _____ _____    ______ ____

>  <TORSDO>
F 5

$$$$
