=
 OpenBabel11062413313D

 28 30  0  0  1  0  0  0  0  0999 V2000
  191.4340  177.6050  144.9370 C   0  0  0  0  0  0  0  0  0  0  0  0
  192.3560  178.4260  144.6800 O   0  0  0  0  0  0  0  0  0  0  0  0
  190.1120  177.8430  144.4140 N   0  0  0  0  0  0  0  0  0  0  0  0
  186.7250  178.1740  144.9320 C   0  0  1  0  0  3  0  0  0  0  0  0
  187.1100  177.9780  146.3820 C   0  0  0  0  0  2  0  0  0  0  0  0
  187.7120  177.3560  144.1160 C   0  0  0  0  0  2  0  0  0  0  0  0
  188.6080  177.7650  146.3660 C   0  0  0  0  0  2  0  0  0  0  0  0
  188.9390  177.1860  144.9980 C   0  0  2  0  0  3  0  0  0  0  0  0
  183.1610  179.0810  144.9670 C   0  0  0  0  0  2  0  0  0  0  0  0
  185.2450  178.0570  142.2920 O   0  0  0  0  0  0  0  0  0  0  0  0
  183.5250  179.1780  143.4920 C   0  0  1  0  0  3  0  0  0  0  0  0
  184.7340  178.3290  143.3670 C   0  0  0  0  0  0  0  0  0  0  0  0
  184.3630  178.4920  145.7050 C   0  0  0  0  0  2  0  0  0  0  0  0
  185.2540  177.8250  144.6690 C   0  0  2  0  0  3  0  0  0  0  0  0
  182.4860  178.6490  142.7230 O   0  0  0  0  0  0  0  0  0  0  0  0
  181.3200  179.0090  143.4010 C   0  0  0  0  0  1  0  0  0  0  0  0
  191.8560  176.5480  147.1740 N   0  0  0  0  0  1  0  0  0  0  0  0
  191.7620  176.4210  145.7600 C   0  0  0  0  0  0  0  0  0  0  0  0
  191.9870  175.3020  145.2300 O   0  0  0  0  0  0  0  0  0  0  0  0
  189.9370  178.8370  143.3520 C   0  0  0  0  0  2  0  0  0  0  0  0
  188.7310  178.4670  141.1810 C   0  0  0  0  0  3  0  0  0  0  0  0
  190.6810  176.6420  140.3540 C   0  0  0  0  0  3  0  0  0  0  0  0
  189.8120  178.1730  142.0200 C   0  0  0  0  0  0  0  0  0  0  0  0
  189.6020  176.9410  139.5160 C   0  0  0  0  0  3  0  0  0  0  0  0
  188.6270  177.8520  139.9300 C   0  0  0  0  0  0  0  0  0  0  0  0
  190.7850  177.2570  141.6050 C   0  0  0  0  0  3  0  0  0  0  0  0
  186.6260  178.4060  138.3770 N   0  0  0  0  0  0  0  0  0  0  0  0
  187.5190  178.1590  139.0710 C   0  0  0  0  0  0  0  0  0  0  0  0
  1 18  1  0  0  0  0
  2  1  2  0  0  0  0
  3  1  1  0  0  0  0
  4  6  1  6  0  0  0
  4  5  1  0  0  0  0
  6  8  1  0  0  0  0
  7  5  1  0  0  0  0
  8  3  1  6  0  0  0
  8  7  1  0  0  0  0
  9 13  1  0  0  0  0
 10 12  2  0  0  0  0
 11 15  1  6  0  0  0
 11  9  1  0  0  0  0
 12 11  1  0  0  0  0
 12 14  1  0  0  0  0
 14  4  1  0  0  0  0
 14 13  1  1  0  0  0
 15 16  1  0  0  0  0
 18 17  1  0  0  0  0
 19 18  2  0  0  0  0
 20  3  1  0  0  0  0
 21 23  1  0  0  0  0
 22 26  1  0  0  0  0
 23 20  1  0  0  0  0
 24 25  1  0  0  0  0
 24 22  2  0  0  0  0
 25 21  2  0  0  0  0
 26 23  2  0  0  0  0
 27 28  3  0  0  0  0
 28 25  1  0  0  0  0
M  END
>  <MODEL>
1

>  <REMARK>
 VINA RESULT:      -8.0      0.000      0.000
  Name = 
  7 active torsions:
  status: ('A' for Active; 'I' for Inactive)
    1  A    between atoms: C_1  and  C_9
    2  A    between atoms: O_3  and  C_12
    3  A    between atoms: C_8  and  C_14
    4  A    between atoms: C_13  and  C_17
    5  A    between atoms: C_14  and  N_25
    6  A    between atoms: C_22  and  N_25
    7  A    between atoms: C_26  and  C_27
                            x       y       z     vdW  Elec       q    Type
                         _______ _______ _______ _____ _____    ______ ____

>  <TORSDO>
F 7

$$$$
=
 OpenBabel11062413313D

 28 30  0  0  1  0  0  0  0  0999 V2000
  190.8910  177.3900  141.1130 C   0  0  0  0  0  0  0  0  0  0  0  0
  192.1000  177.4370  141.4730 O   0  0  0  0  0  0  0  0  0  0  0  0
  189.8730  177.9000  141.9980 N   0  0  0  0  0  0  0  0  0  0  0  0
  186.6420  178.8020  142.7700 C   0  0  1  0  0  3  0  0  0  0  0  0
  186.5880  177.4140  143.3680 C   0  0  0  0  0  2  0  0  0  0  0  0
  187.5830  178.7170  141.5800 C   0  0  0  0  0  2  0  0  0  0  0  0
  187.9470  176.8110  143.0860 C   0  0  0  0  0  2  0  0  0  0  0  0
  188.4690  177.5090  141.8380 C   0  0  2  0  0  3  0  0  0  0  0  0
  183.1740  178.2580  141.6740 C   0  0  0  0  0  2  0  0  0  0  0  0
  184.4430  179.7050  144.6470 O   0  0  0  0  0  0  0  0  0  0  0  0
  183.0270  178.4930  143.1710 C   0  0  1  0  0  3  0  0  0  0  0  0
  184.2610  179.2270  143.5380 C   0  0  0  0  0  0  0  0  0  0  0  0
  184.6310  178.5310  141.3010 C   0  0  0  0  0  2  0  0  0  0  0  0
  185.2470  179.3430  142.4280 C   0  0  2  0  0  3  0  0  0  0  0  0
  181.9060  179.2910  143.4070 O   0  0  0  0  0  0  0  0  0  0  0  0
  181.0810  179.0850  142.3000 C   0  0  0  0  0  1  0  0  0  0  0  0
  189.9260  177.6240  138.8080 N   0  0  0  0  0  1  0  0  0  0  0  0
  190.5790  176.8210  139.7850 C   0  0  0  0  0  0  0  0  0  0  0  0
  190.8580  175.6250  139.5080 O   0  0  0  0  0  0  0  0  0  0  0  0
  190.2710  178.7380  143.1320 C   0  0  0  0  0  2  0  0  0  0  0  0
  189.5660  178.0760  145.4480 C   0  0  0  0  0  3  0  0  0  0  0  0
  191.6240  176.1880  145.5860 C   0  0  0  0  0  3  0  0  0  0  0  0
  190.4380  177.9150  144.3660 C   0  0  0  0  0  0  0  0  0  0  0  0
  190.7490  176.3480  146.6640 C   0  0  0  0  0  3  0  0  0  0  0  0
  189.7200  177.2930  146.5960 C   0  0  0  0  0  0  0  0  0  0  0  0
  191.4700  176.9710  144.4380 C   0  0  0  0  0  3  0  0  0  0  0  0
  188.0970  177.5900  148.5950 N   0  0  0  0  0  0  0  0  0  0  0  0
  188.8220  177.4570  147.7020 C   0  0  0  0  0  0  0  0  0  0  0  0
  1  2  2  0  0  0  0
  1  3  1  0  0  0  0
  3 20  1  0  0  0  0
  4  6  1  6  0  0  0
  4  5  1  0  0  0  0
  6  8  1  0  0  0  0
  7  5  1  0  0  0  0
  8  3  1  1  0  0  0
  8  7  1  0  0  0  0
  9 11  1  0  0  0  0
 11 15  1  6  0  0  0
 11 12  1  0  0  0  0
 12 10  2  0  0  0  0
 13  9  1  0  0  0  0
 14 13  1  6  0  0  0
 14  4  1  0  0  0  0
 14 12  1  0  0  0  0
 16 15  1  0  0  0  0
 17 18  1  0  0  0  0
 18  1  1  0  0  0  0
 19 18  2  0  0  0  0
 20 23  1  0  0  0  0
 21 25  1  0  0  0  0
 22 24  1  0  0  0  0
 23 26  1  0  0  0  0
 23 21  2  0  0  0  0
 25 24  2  0  0  0  0
 25 28  1  0  0  0  0
 26 22  2  0  0  0  0
 28 27  3  0  0  0  0
M  END
>  <MODEL>
2

>  <REMARK>
 VINA RESULT:      -7.7      2.101      4.707
  Name = 
  7 active torsions:
  status: ('A' for Active; 'I' for Inactive)
    1  A    between atoms: C_1  and  C_9
    2  A    between atoms: O_3  and  C_12
    3  A    between atoms: C_8  and  C_14
    4  A    between atoms: C_13  and  C_17
    5  A    between atoms: C_14  and  N_25
    6  A    between atoms: C_22  and  N_25
    7  A    between atoms: C_26  and  C_27
                            x       y       z     vdW  Elec       q    Type
                         _______ _______ _______ _____ _____    ______ ____

>  <TORSDO>
F 7

$$$$
=
 OpenBabel11062413313D

 28 30  0  0  1  0  0  0  0  0999 V2000
  191.4120  177.5610  145.0270 C   0  0  0  0  0  0  0  0  0  0  0  0
  192.3400  178.3780  144.7740 O   0  0  0  0  0  0  0  0  0  0  0  0
  190.0960  177.8020  144.4890 N   0  0  0  0  0  0  0  0  0  0  0  0
  186.7130  178.1680  145.0110 C   0  0  1  0  0  3  0  0  0  0  0  0
  187.0950  177.9520  146.4580 C   0  0  0  0  0  2  0  0  0  0  0  0
  187.6900  177.3460  144.1860 C   0  0  0  0  0  2  0  0  0  0  0  0
  188.5900  177.7210  146.4400 C   0  0  0  0  0  2  0  0  0  0  0  0
  188.9150  177.1520  145.0660 C   0  0  2  0  0  3  0  0  0  0  0  0
  183.1680  179.1450  144.9780 C   0  0  0  0  0  2  0  0  0  0  0  0
  185.2570  177.9950  142.3600 O   0  0  0  0  0  0  0  0  0  0  0  0
  183.5480  179.1870  143.5050 C   0  0  1  0  0  3  0  0  0  0  0  0
  184.7410  178.3120  143.4210 C   0  0  0  0  0  0  0  0  0  0  0  0
  184.3500  178.5560  145.7480 C   0  0  0  0  0  2  0  0  0  0  0  0
  185.2380  177.8400  144.7430 C   0  0  2  0  0  3  0  0  0  0  0  0
  182.5060  178.6540  142.7430 O   0  0  0  0  0  0  0  0  0  0  0  0
  181.3460  178.9730  143.4500 C   0  0  0  0  0  1  0  0  0  0  0  0
  191.7800  176.5100  147.2760 N   0  0  0  0  0  1  0  0  0  0  0  0
  191.7280  176.3810  145.8600 C   0  0  0  0  0  0  0  0  0  0  0  0
  191.9790  175.2640  145.3370 O   0  0  0  0  0  0  0  0  0  0  0  0
  189.9350  178.7890  143.4200 C   0  0  0  0  0  2  0  0  0  0  0  0
  191.3760  177.8920  141.5710 C   0  0  0  0  0  3  0  0  0  0  0  0
  189.1130  177.1970  140.0820 C   0  0  0  0  0  3  0  0  0  0  0  0
  190.0990  178.1520  142.0800 C   0  0  0  0  0  0  0  0  0  0  0  0
  190.3900  176.9350  139.5770 C   0  0  0  0  0  3  0  0  0  0  0  0
  191.5210  177.2830  140.3210 C   0  0  0  0  0  0  0  0  0  0  0  0
  188.9670  177.8060  141.3320 C   0  0  0  0  0  3  0  0  0  0  0  0
  193.8890  176.7970  139.3840 N   0  0  0  0  0  0  0  0  0  0  0  0
  192.8320  177.0140  139.8020 C   0  0  0  0  0  0  0  0  0  0  0  0
  1 18  1  0  0  0  0
  2  1  2  0  0  0  0
  3  1  1  0  0  0  0
  4  6  1  6  0  0  0
  4  5  1  0  0  0  0
  6  8  1  0  0  0  0
  7  5  1  0  0  0  0
  8  3  1  6  0  0  0
  8  7  1  0  0  0  0
  9 13  1  0  0  0  0
 10 12  2  0  0  0  0
 11 15  1  6  0  0  0
 11  9  1  0  0  0  0
 12 11  1  0  0  0  0
 12 14  1  0  0  0  0
 14  4  1  0  0  0  0
 14 13  1  1  0  0  0
 15 16  1  0  0  0  0
 18 17  1  0  0  0  0
 19 18  2  0  0  0  0
 20  3  1  0  0  0  0
 21 23  1  0  0  0  0
 22 26  1  0  0  0  0
 23 20  1  0  0  0  0
 24 22  2  0  0  0  0
 24 25  1  0  0  0  0
 25 21  2  0  0  0  0
 26 23  2  0  0  0  0
 27 28  3  0  0  0  0
 28 25  1  0  0  0  0
M  END
>  <MODEL>
3

>  <REMARK>
 VINA RESULT:      -7.7      1.437      1.983
  Name = 
  7 active torsions:
  status: ('A' for Active; 'I' for Inactive)
    1  A    between atoms: C_1  and  C_9
    2  A    between atoms: O_3  and  C_12
    3  A    between atoms: C_8  and  C_14
    4  A    between atoms: C_13  and  C_17
    5  A    between atoms: C_14  and  N_25
    6  A    between atoms: C_22  and  N_25
    7  A    between atoms: C_26  and  C_27
                            x       y       z     vdW  Elec       q    Type
                         _______ _______ _______ _____ _____    ______ ____

>  <TORSDO>
F 7

$$$$
=
 OpenBabel11062413313D

 28 30  0  0  1  0  0  0  0  0999 V2000
  188.3400  177.9580  138.8780 C   0  0  0  0  0  0  0  0  0  0  0  0
  188.0640  178.9880  138.2030 O   0  0  0  0  0  0  0  0  0  0  0  0
  188.3550  178.0420  140.3170 N   0  0  0  0  0  0  0  0  0  0  0  0
  189.5490  177.3700  143.4750 C   0  0  1  0  0  3  0  0  0  0  0  0
  190.8580  177.1690  142.7430 C   0  0  0  0  0  2  0  0  0  0  0  0
  188.4540  176.9310  142.5180 C   0  0  0  0  0  2  0  0  0  0  0  0
  190.5270  177.3850  141.2830 C   0  0  0  0  0  2  0  0  0  0  0  0
  189.0540  177.0370  141.1250 C   0  0  2  0  0  3  0  0  0  0  0  0
  190.7550  176.9930  146.9290 C   0  0  0  0  0  2  0  0  0  0  0  0
  187.4860  177.5520  145.6850 O   0  0  0  0  0  0  0  0  0  0  0  0
  189.3870  177.6340  147.1120 C   0  0  1  0  0  3  0  0  0  0  0  0
  188.6710  177.3100  145.8550 C   0  0  0  0  0  0  0  0  0  0  0  0
  190.9120  176.6450  145.4490 C   0  0  0  0  0  2  0  0  0  0  0  0
  189.5240  176.6480  144.8290 C   0  0  2  0  0  3  0  0  0  0  0  0
  188.7400  177.0420  148.1990 O   0  0  0  0  0  0  0  0  0  0  0  0
  188.1430  178.1040  148.8810 C   0  0  0  0  0  1  0  0  0  0  0  0
  187.5540  175.9580  137.5820 N   0  0  0  0  0  1  0  0  0  0  0  0
  188.6250  176.7020  138.1510 C   0  0  0  0  0  0  0  0  0  0  0  0
  189.7990  176.2620  138.0480 O   0  0  0  0  0  0  0  0  0  0  0  0
  187.7510  179.2070  140.9670 C   0  0  0  0  0  2  0  0  0  0  0  0
  185.9000  179.0130  142.6520 C   0  0  0  0  0  3  0  0  0  0  0  0
  184.0700  178.3700  140.6370 C   0  0  0  0  0  3  0  0  0  0  0  0
  186.3260  178.9370  141.3210 C   0  0  0  0  0  0  0  0  0  0  0  0
  183.6460  178.4520  141.9670 C   0  0  0  0  0  3  0  0  0  0  0  0
  184.5610  178.7720  142.9740 C   0  0  0  0  0  0  0  0  0  0  0  0
  185.4090  178.6110  140.3140 C   0  0  0  0  0  3  0  0  0  0  0  0
  183.7750  178.9230  145.4400 N   0  0  0  0  0  0  0  0  0  0  0  0
  184.1260  178.8550  144.3390 C   0  0  0  0  0  0  0  0  0  0  0  0
  1  3  1  0  0  0  0
  2  1  2  0  0  0  0
  3 20  1  0  0  0  0
  4  6  1  6  0  0  0
  4 14  1  0  0  0  0
  5  4  1  0  0  0  0
  7  5  1  0  0  0  0
  8  3  1  6  0  0  0
  8  7  1  0  0  0  0
  8  6  1  0  0  0  0
  9 11  1  0  0  0  0
 10 12  2  0  0  0  0
 11 15  1  1  0  0  0
 12 11  1  0  0  0  0
 13  9  1  0  0  0  0
 14 13  1  1  0  0  0
 14 12  1  0  0  0  0
 15 16  1  0  0  0  0
 17 18  1  0  0  0  0
 18  1  1  0  0  0  0
 19 18  2  0  0  0  0
 20 23  1  0  0  0  0
 21 25  1  0  0  0  0
 22 24  1  0  0  0  0
 23 21  2  0  0  0  0
 24 25  2  0  0  0  0
 25 28  1  0  0  0  0
 26 22  2  0  0  0  0
 26 23  1  0  0  0  0
 28 27  3  0  0  0  0
M  END
>  <MODEL>
4

>  <REMARK>
 VINA RESULT:      -7.6      2.869      6.273
  Name = 
  7 active torsions:
  status: ('A' for Active; 'I' for Inactive)
    1  A    between atoms: C_1  and  C_9
    2  A    between atoms: O_3  and  C_12
    3  A    between atoms: C_8  and  C_14
    4  A    between atoms: C_13  and  C_17
    5  A    between atoms: C_14  and  N_25
    6  A    between atoms: C_22  and  N_25
    7  A    between atoms: C_26  and  C_27
                            x       y       z     vdW  Elec       q    Type
                         _______ _______ _______ _____ _____    ______ ____

>  <TORSDO>
F 7

$$$$
=
 OpenBabel11062413313D

 28 30  0  0  1  0  0  0  0  0999 V2000
  189.9250  177.1570  143.3720 C   0  0  0  0  0  0  0  0  0  0  0  0
  190.0160  176.1500  144.1270 O   0  0  0  0  0  0  0  0  0  0  0  0
  188.6600  177.4560  142.7460 N   0  0  0  0  0  0  0  0  0  0  0  0
  187.0870  177.8890  139.7150 C   0  0  1  0  0  3  0  0  0  0  0  0
  188.5030  177.8890  139.1830 C   0  0  0  0  0  2  0  0  0  0  0  0
  187.1530  178.5080  141.1010 C   0  0  0  0  0  2  0  0  0  0  0  0
  189.3820  177.7480  140.4070 C   0  0  0  0  0  2  0  0  0  0  0  0
  188.5880  178.3270  141.5690 C   0  0  2  0  0  3  0  0  0  0  0  0
  184.1860  177.7820  137.4570 C   0  0  0  0  0  2  0  0  0  0  0  0
  184.7490  179.6950  140.3850 O   0  0  0  0  0  0  0  0  0  0  0  0
  183.6220  178.4400  138.7090 C   0  0  1  0  0  3  0  0  0  0  0  0
  184.8190  178.9800  139.3970 C   0  0  0  0  0  0  0  0  0  0  0  0
  185.6960  177.6420  137.6460 C   0  0  0  0  0  2  0  0  0  0  0  0
  186.1080  178.5870  138.7630 C   0  0  2  0  0  3  0  0  0  0  0  0
  182.7690  179.4820  138.3400 O   0  0  0  0  0  0  0  0  0  0  0  0
  181.4900  179.0300  138.6670 C   0  0  0  0  0  1  0  0  0  0  0  0
  191.2380  179.2410  143.8530 N   0  0  0  0  0  1  0  0  0  0  0  0
  191.1270  177.9940  143.1760 C   0  0  0  0  0  0  0  0  0  0  0  0
  192.0490  177.6360  142.3970 O   0  0  0  0  0  0  0  0  0  0  0  0
  187.4500  176.7920  143.2370 C   0  0  0  0  0  2  0  0  0  0  0  0
  187.5270  177.4770  145.6510 C   0  0  0  0  0  3  0  0  0  0  0  0
  185.1740  178.9600  145.3540 C   0  0  0  0  0  3  0  0  0  0  0  0
  186.8830  177.5220  144.4090 C   0  0  0  0  0  0  0  0  0  0  0  0
  185.8220  178.9160  146.5920 C   0  0  0  0  0  3  0  0  0  0  0  0
  186.9970  178.1730  146.7410 C   0  0  0  0  0  0  0  0  0  0  0  0
  185.7040  178.2630  144.2630 C   0  0  0  0  0  3  0  0  0  0  0  0
  188.1970  178.0920  149.0380 N   0  0  0  0  0  0  0  0  0  0  0  0
  187.6610  178.1280  148.0120 C   0  0  0  0  0  0  0  0  0  0  0  0
  1  2  2  0  0  0  0
  3 20  1  0  0  0  0
  3  1  1  0  0  0  0
  4  5  1  6  0  0  0
  4  6  1  0  0  0  0
  5  7  1  0  0  0  0
  6  8  1  0  0  0  0
  7  8  1  0  0  0  0
  8  3  1  1  0  0  0
  9 13  1  0  0  0  0
  9 11  1  0  0  0  0
 11 15  1  6  0  0  0
 11 12  1  0  0  0  0
 12 10  2  0  0  0  0
 14 13  1  6  0  0  0
 14 12  1  0  0  0  0
 14  4  1  0  0  0  0
 15 16  1  0  0  0  0
 18  1  1  0  0  0  0
 18 17  1  0  0  0  0
 19 18  2  0  0  0  0
 20 23  1  0  0  0  0
 21 25  1  0  0  0  0
 22 24  1  0  0  0  0
 23 21  2  0  0  0  0
 24 25  2  0  0  0  0
 25 28  1  0  0  0  0
 26 23  1  0  0  0  0
 26 22  2  0  0  0  0
 28 27  3  0  0  0  0
M  END
>  <MODEL>
5

>  <REMARK>
 VINA RESULT:      -7.2      2.343      5.704
  Name = 
  7 active torsions:
  status: ('A' for Active; 'I' for Inactive)
    1  A    between atoms: C_1  and  C_9
    2  A    between atoms: O_3  and  C_12
    3  A    between atoms: C_8  and  C_14
    4  A    between atoms: C_13  and  C_17
    5  A    between atoms: C_14  and  N_25
    6  A    between atoms: C_22  and  N_25
    7  A    between atoms: C_26  and  C_27
                            x       y       z     vdW  Elec       q    Type
                         _______ _______ _______ _____ _____    ______ ____

>  <TORSDO>
F 7

$$$$
=
 OpenBabel11062413313D

 28 30  0  0  1  0  0  0  0  0999 V2000
  189.8430  177.4070  144.1630 C   0  0  0  0  0  0  0  0  0  0  0  0
  189.3730  176.7090  145.1030 O   0  0  0  0  0  0  0  0  0  0  0  0
  189.2570  177.3080  142.8500 N   0  0  0  0  0  0  0  0  0  0  0  0
  189.1530  177.4050  139.4100 C   0  0  1  0  0  3  0  0  0  0  0  0
  190.4860  176.7000  139.5290 C   0  0  0  0  0  2  0  0  0  0  0  0
  189.0510  178.3280  140.6130 C   0  0  0  0  0  2  0  0  0  0  0  0
  190.7440  176.5950  141.0160 C   0  0  0  0  0  2  0  0  0  0  0  0
  189.9900  177.7500  141.6600 C   0  0  2  0  0  3  0  0  0  0  0  0
  189.0370  177.3160  135.7360 C   0  0  0  0  0  2  0  0  0  0  0  0
  186.6180  178.4000  138.0840 O   0  0  0  0  0  0  0  0  0  0  0  0
  187.5720  177.4560  136.1210 C   0  0  1  0  0  3  0  0  0  0  0  0
  187.6160  178.0250  137.4890 C   0  0  0  0  0  0  0  0  0  0  0  0
  189.8690  177.4570  137.0100 C   0  0  0  0  0  2  0  0  0  0  0  0
  188.9890  178.1150  138.0600 C   0  0  2  0  0  3  0  0  0  0  0  0
  186.9470  178.3500  135.2490 O   0  0  0  0  0  0  0  0  0  0  0  0
  185.9730  177.5930  134.5970 C   0  0  0  0  0  1  0  0  0  0  0  0
  190.9200  179.6710  144.0530 N   0  0  0  0  0  1  0  0  0  0  0  0
  190.9750  178.3090  144.4630 C   0  0  0  0  0  0  0  0  0  0  0  0
  192.0040  177.8890  145.0530 O   0  0  0  0  0  0  0  0  0  0  0  0
  187.9520  176.6590  142.7020 C   0  0  0  0  0  2  0  0  0  0  0  0
  186.4310  177.6290  144.4480 C   0  0  0  0  0  3  0  0  0  0  0  0
  185.2190  179.2780  142.5420 C   0  0  0  0  0  3  0  0  0  0  0  0
  186.8510  177.5790  143.1140 C   0  0  0  0  0  0  0  0  0  0  0  0
  184.8040  179.3280  143.8760 C   0  0  0  0  0  3  0  0  0  0  0  0
  185.4090  178.5030  144.8290 C   0  0  0  0  0  0  0  0  0  0  0  0
  186.2410  178.4040  142.1610 C   0  0  0  0  0  3  0  0  0  0  0  0
  184.6390  178.5950  147.3020 N   0  0  0  0  0  0  0  0  0  0  0  0
  184.9830  178.5540  146.1980 C   0  0  0  0  0  0  0  0  0  0  0  0
  1 18  1  0  0  0  0
  1  2  2  0  0  0  0
  3  1  1  0  0  0  0
  4  5  1  6  0  0  0
  4  6  1  0  0  0  0
  5  7  1  0  0  0  0
  6  8  1  0  0  0  0
  7  8  1  0  0  0  0
  8  3  1  1  0  0  0
  9 11  1  0  0  0  0
  9 13  1  0  0  0  0
 11 15  1  6  0  0  0
 11 12  1  0  0  0  0
 12 14  1  0  0  0  0
 12 10  2  0  0  0  0
 14 13  1  6  0  0  0
 14  4  1  0  0  0  0
 16 15  1  0  0  0  0
 17 18  1  0  0  0  0
 18 19  2  0  0  0  0
 20  3  1  0  0  0  0
 20 23  1  0  0  0  0
 21 25  1  0  0  0  0
 22 24  1  0  0  0  0
 23 21  2  0  0  0  0
 24 25  2  0  0  0  0
 25 28  1  0  0  0  0
 26 22  2  0  0  0  0
 26 23  1  0  0  0  0
 28 27  3  0  0  0  0
M  END
>  <MODEL>
6

>  <REMARK>
 VINA RESULT:      -7.2      2.701      6.367
  Name = 
  7 active torsions:
  status: ('A' for Active; 'I' for Inactive)
    1  A    between atoms: C_1  and  C_9
    2  A    between atoms: O_3  and  C_12
    3  A    between atoms: C_8  and  C_14
    4  A    between atoms: C_13  and  C_17
    5  A    between atoms: C_14  and  N_25
    6  A    between atoms: C_22  and  N_25
    7  A    between atoms: C_26  and  C_27
                            x       y       z     vdW  Elec       q    Type
                         _______ _______ _______ _____ _____    ______ ____

>  <TORSDO>
F 7

$$$$
=
 OpenBabel11062413313D

 28 30  0  0  1  0  0  0  0  0999 V2000
  188.8640  178.0100  138.8630 C   0  0  0  0  0  0  0  0  0  0  0  0
  188.5940  179.0580  138.2140 O   0  0  0  0  0  0  0  0  0  0  0  0
  188.7510  178.0240  140.3000 N   0  0  0  0  0  0  0  0  0  0  0  0
  189.8590  177.3330  143.4860 C   0  0  1  0  0  3  0  0  0  0  0  0
  191.1880  177.1400  142.7890 C   0  0  0  0  0  2  0  0  0  0  0  0
  188.7920  176.8980  142.4950 C   0  0  0  0  0  2  0  0  0  0  0  0
  190.8970  177.3650  141.3210 C   0  0  0  0  0  2  0  0  0  0  0  0
  189.4300  177.0150  141.1200 C   0  0  2  0  0  3  0  0  0  0  0  0
  190.7900  177.0700  147.0340 C   0  0  0  0  0  2  0  0  0  0  0  0
  187.6010  177.2560  145.5040 O   0  0  0  0  0  0  0  0  0  0  0  0
  189.3460  177.5470  147.0930 C   0  0  1  0  0  3  0  0  0  0  0  0
  188.7870  177.1520  145.7780 C   0  0  0  0  0  0  0  0  0  0  0  0
  191.1170  176.7550  145.5740 C   0  0  0  0  0  2  0  0  0  0  0  0
  189.7980  176.6020  144.8330 C   0  0  2  0  0  3  0  0  0  0  0  0
  188.6790  176.8750  148.1200 O   0  0  0  0  0  0  0  0  0  0  0  0
  188.0340  177.8790  148.8440 C   0  0  0  0  0  1  0  0  0  0  0  0
  190.6460  176.6150  137.7780 N   0  0  0  0  0  1  0  0  0  0  0  0
  189.2750  176.8080  138.1080 C   0  0  0  0  0  0  0  0  0  0  0  0
  188.4290  175.9580  137.7270 O   0  0  0  0  0  0  0  0  0  0  0  0
  188.0330  179.1240  140.9470 C   0  0  0  0  0  2  0  0  0  0  0  0
  185.7590  178.7130  139.9660 C   0  0  0  0  0  3  0  0  0  0  0  0
  184.6940  178.2500  142.5110 C   0  0  0  0  0  3  0  0  0  0  0  0
  186.5840  178.7980  141.0940 C   0  0  0  0  0  0  0  0  0  0  0  0
  183.8740  178.1610  141.3820 C   0  0  0  0  0  3  0  0  0  0  0  0
  184.4050  178.3940  140.1100 C   0  0  0  0  0  0  0  0  0  0  0  0
  186.0480  178.5690  142.3670 C   0  0  0  0  0  3  0  0  0  0  0  0
  182.8830  178.2300  138.0190 N   0  0  0  0  0  0  0  0  0  0  0  0
  183.5630  178.3030  138.9520 C   0  0  0  0  0  0  0  0  0  0  0  0
  1  3  1  0  0  0  0
  2  1  2  0  0  0  0
  3 20  1  0  0  0  0
  4  6  1  6  0  0  0
  4 14  1  0  0  0  0
  5  4  1  0  0  0  0
  7  5  1  0  0  0  0
  8  3  1  6  0  0  0
  8  7  1  0  0  0  0
  8  6  1  0  0  0  0
  9 11  1  0  0  0  0
 10 12  2  0  0  0  0
 11 15  1  1  0  0  0
 12 11  1  0  0  0  0
 13  9  1  0  0  0  0
 14 13  1  1  0  0  0
 14 12  1  0  0  0  0
 15 16  1  0  0  0  0
 17 18  1  0  0  0  0
 18  1  1  0  0  0  0
 19 18  2  0  0  0  0
 20 23  1  0  0  0  0
 21 25  2  0  0  0  0
 21 23  1  0  0  0  0
 23 26  2  0  0  0  0
 24 22  2  0  0  0  0
 25 24  1  0  0  0  0
 26 22  1  0  0  0  0
 27 28  3  0  0  0  0
 28 25  1  0  0  0  0
M  END
>  <MODEL>
7

>  <REMARK>
 VINA RESULT:      -7.2      3.013      5.960
  Name = 
  7 active torsions:
  status: ('A' for Active; 'I' for Inactive)
    1  A    between atoms: C_1  and  C_9
    2  A    between atoms: O_3  and  C_12
    3  A    between atoms: C_8  and  C_14
    4  A    between atoms: C_13  and  C_17
    5  A    between atoms: C_14  and  N_25
    6  A    between atoms: C_22  and  N_25
    7  A    between atoms: C_26  and  C_27
                            x       y       z     vdW  Elec       q    Type
                         _______ _______ _______ _____ _____    ______ ____

>  <TORSDO>
F 7

$$$$
=
 OpenBabel11062413313D

 28 30  0  0  1  0  0  0  0  0999 V2000
  190.2840  177.4660  143.8440 C   0  0  0  0  0  0  0  0  0  0  0  0
  190.4310  176.5560  144.7050 O   0  0  0  0  0  0  0  0  0  0  0  0
  189.0870  177.4870  143.0390 N   0  0  0  0  0  0  0  0  0  0  0  0
  187.3060  177.8760  140.1190 C   0  0  1  0  0  3  0  0  0  0  0  0
  188.6420  177.5770  139.4750 C   0  0  0  0  0  2  0  0  0  0  0  0
  187.6130  178.6130  141.4130 C   0  0  0  0  0  2  0  0  0  0  0  0
  189.6050  177.4100  140.6300 C   0  0  0  0  0  2  0  0  0  0  0  0
  189.0390  178.2330  141.7780 C   0  0  2  0  0  3  0  0  0  0  0  0
  184.6550  177.8910  137.5710 C   0  0  0  0  0  2  0  0  0  0  0  0
  184.7610  179.3790  140.7830 O   0  0  0  0  0  0  0  0  0  0  0  0
  183.9170  178.3080  138.8340 C   0  0  1  0  0  3  0  0  0  0  0  0
  184.9890  178.8280  139.7170 C   0  0  0  0  0  0  0  0  0  0  0  0
  186.1470  177.8380  137.8980 C   0  0  0  0  0  2  0  0  0  0  0  0
  186.3620  178.6340  139.1760 C   0  0  2  0  0  3  0  0  0  0  0  0
  183.0120  179.3260  138.5280 O   0  0  0  0  0  0  0  0  0  0  0  0
  182.0240  178.7080  137.7600 C   0  0  0  0  0  1  0  0  0  0  0  0
  191.2000  179.7500  144.3390 N   0  0  0  0  0  1  0  0  0  0  0  0
  191.3500  178.4810  143.7110 C   0  0  0  0  0  0  0  0  0  0  0  0
  192.3820  178.2550  143.0280 O   0  0  0  0  0  0  0  0  0  0  0  0
  187.9440  176.6650  143.4440 C   0  0  0  0  0  2  0  0  0  0  0  0
  185.7980  177.8760  143.9230 C   0  0  0  0  0  3  0  0  0  0  0  0
  186.6090  178.3700  146.5530 C   0  0  0  0  0  3  0  0  0  0  0  0
  187.0460  177.4220  144.3650 C   0  0  0  0  0  0  0  0  0  0  0  0
  185.3620  178.8190  146.1100 C   0  0  0  0  0  3  0  0  0  0  0  0
  184.9570  178.5730  144.7950 C   0  0  0  0  0  0  0  0  0  0  0  0
  187.4510  177.6730  145.6810 C   0  0  0  0  0  3  0  0  0  0  0  0
  182.6430  179.4070  143.9730 N   0  0  0  0  0  0  0  0  0  0  0  0
  183.6760  179.0350  144.3400 C   0  0  0  0  0  0  0  0  0  0  0  0
  1  2  2  0  0  0  0
  3 20  1  0  0  0  0
  3  1  1  0  0  0  0
  4  5  1  6  0  0  0
  4  6  1  0  0  0  0
  5  7  1  0  0  0  0
  6  8  1  0  0  0  0
  7  8  1  0  0  0  0
  8  3  1  1  0  0  0
  9 13  1  0  0  0  0
  9 11  1  0  0  0  0
 11 15  1  6  0  0  0
 11 12  1  0  0  0  0
 12 10  2  0  0  0  0
 14 13  1  6  0  0  0
 14 12  1  0  0  0  0
 14  4  1  0  0  0  0
 16 15  1  0  0  0  0
 18  1  1  0  0  0  0
 18 17  1  0  0  0  0
 19 18  2  0  0  0  0
 20 23  1  0  0  0  0
 21 23  2  0  0  0  0
 21 25  1  0  0  0  0
 23 26  1  0  0  0  0
 24 22  1  0  0  0  0
 25 24  2  0  0  0  0
 26 22  2  0  0  0  0
 27 28  3  0  0  0  0
 28 25  1  0  0  0  0
M  END
>  <MODEL>
8

>  <REMARK>
 VINA RESULT:      -7.1      2.457      5.166
  Name = 
  7 active torsions:
  status: ('A' for Active; 'I' for Inactive)
    1  A    between atoms: C_1  and  C_9
    2  A    between atoms: O_3  and  C_12
    3  A    between atoms: C_8  and  C_14
    4  A    between atoms: C_13  and  C_17
    5  A    between atoms: C_14  and  N_25
    6  A    between atoms: C_22  and  N_25
    7  A    between atoms: C_26  and  C_27
                            x       y       z     vdW  Elec       q    Type
                         _______ _______ _______ _____ _____    ______ ____

>  <TORSDO>
F 7

$$$$
=
 OpenBabel11062413313D

 28 30  0  0  1  0  0  0  0  0999 V2000
  190.2830  176.6350  137.9500 C   0  0  0  0  0  0  0  0  0  0  0  0
  190.1660  177.3330  136.9060 O   0  0  0  0  0  0  0  0  0  0  0  0
  190.0860  177.2540  139.2370 N   0  0  0  0  0  0  0  0  0  0  0  0
  189.8840  177.3200  142.6730 C   0  0  1  0  0  3  0  0  0  0  0  0
  191.3790  177.5280  142.5780 C   0  0  0  0  0  2  0  0  0  0  0  0
  189.5000  176.4440  141.4920 C   0  0  0  0  0  2  0  0  0  0  0  0
  191.6880  177.4870  141.0970 C   0  0  0  0  0  2  0  0  0  0  0  0
  190.6010  176.6320  140.4610 C   0  0  2  0  0  3  0  0  0  0  0  0
  189.8470  177.5040  146.3460 C   0  0  0  0  0  2  0  0  0  0  0  0
  187.1740  177.4450  144.0220 O   0  0  0  0  0  0  0  0  0  0  0  0
  188.4440  177.9570  145.9660 C   0  0  1  0  0  3  0  0  0  0  0  0
  188.2450  177.3970  144.6080 C   0  0  0  0  0  0  0  0  0  0  0  0
  190.5410  177.0210  145.0720 C   0  0  0  0  0  2  0  0  0  0  0  0
  189.4610  176.7560  144.0360 C   0  0  2  0  0  3  0  0  0  0  0  0
  187.5220  177.4020  146.8550 O   0  0  0  0  0  0  0  0  0  0  0  0
  188.2050  177.3070  148.0680 C   0  0  0  0  0  1  0  0  0  0  0  0
  191.9660  174.7810  137.7870 N   0  0  0  0  0  1  0  0  0  0  0  0
  190.6060  175.2010  137.7990 C   0  0  0  0  0  0  0  0  0  0  0  0
  189.6990  174.3400  137.6530 O   0  0  0  0  0  0  0  0  0  0  0  0
  189.4530  178.5730  139.3010 C   0  0  0  0  0  2  0  0  0  0  0  0
  187.2090  178.6500  140.4250 C   0  0  0  0  0  3  0  0  0  0  0  0
  185.9290  178.0350  138.0150 C   0  0  0  0  0  3  0  0  0  0  0  0
  187.9650  178.4500  139.2640 C   0  0  0  0  0  0  0  0  0  0  0  0
  185.1760  178.2400  139.1750 C   0  0  0  0  0  3  0  0  0  0  0  0
  185.8160  178.5460  140.3800 C   0  0  0  0  0  0  0  0  0  0  0  0
  187.3230  178.1400  138.0600 C   0  0  0  0  0  3  0  0  0  0  0  0
  184.4190  178.9250  142.5310 N   0  0  0  0  0  0  0  0  0  0  0  0
  185.0420  178.7560  141.5710 C   0  0  0  0  0  0  0  0  0  0  0  0
  1  3  1  0  0  0  0
  2  1  2  0  0  0  0
  3 20  1  0  0  0  0
  4  6  1  6  0  0  0
  4 14  1  0  0  0  0
  5  4  1  0  0  0  0
  7  5  1  0  0  0  0
  8  3  1  6  0  0  0
  8  7  1  0  0  0  0
  8  6  1  0  0  0  0
 10 12  2  0  0  0  0
 11  9  1  0  0  0  0
 11 15  1  1  0  0  0
 12 11  1  0  0  0  0
 13  9  1  0  0  0  0
 14 12  1  0  0  0  0
 14 13  1  1  0  0  0
 15 16  1  0  0  0  0
 17 18  1  0  0  0  0
 18  1  1  0  0  0  0
 19 18  2  0  0  0  0
 22 26  2  0  0  0  0
 22 24  1  0  0  0  0
 23 20  1  0  0  0  0
 23 21  2  0  0  0  0
 24 25  2  0  0  0  0
 25 21  1  0  0  0  0
 25 28  1  0  0  0  0
 26 23  1  0  0  0  0
 28 27  3  0  0  0  0
M  END
>  <MODEL>
9

>  <REMARK>
 VINA RESULT:      -7.0      3.190      5.720
  Name = 
  7 active torsions:
  status: ('A' for Active; 'I' for Inactive)
    1  A    between atoms: C_1  and  C_9
    2  A    between atoms: O_3  and  C_12
    3  A    between atoms: C_8  and  C_14
    4  A    between atoms: C_13  and  C_17
    5  A    between atoms: C_14  and  N_25
    6  A    between atoms: C_22  and  N_25
    7  A    between atoms: C_26  and  C_27
                            x       y       z     vdW  Elec       q    Type
                         _______ _______ _______ _____ _____    ______ ____

>  <TORSDO>
F 7

$$$$
