=
 OpenBabel11062417143D

 36 39  0  0  1  0  0  0  0  0999 V2000
  188.0870  178.5160  141.7320 C   0  0  2  0  0  3  0  0  0  0  0  0
  188.6180  177.6150  144.5080 C   0  0  0  0  0  2  0  0  0  0  0  0
  186.9750  178.0070  142.6540 C   0  0  0  0  0  2  0  0  0  0  0  0
  187.6750  178.2320  140.2860 C   0  0  0  0  0  2  0  0  0  0  0  0
  189.7340  178.1440  143.6130 C   0  0  2  0  0  3  0  0  0  0  0  0
  189.5570  176.4530  141.6900 C   0  0  0  0  0  2  0  0  0  0  0  0
  190.2820  176.3910  140.3560 C   0  0  0  0  0  2  0  0  0  0  0  0
  189.4090  176.7960  139.1570 C   0  0  1  0  0  3  0  0  0  0  0  0
  187.3000  178.2750  144.1220 C   0  0  1  0  0  3  0  0  0  0  0  0
  188.8340  178.2290  139.2880 C   0  0  1  0  0  3  0  0  0  0  0  0
  186.1900  177.7270  144.9910 C   0  0  0  0  0  1  0  0  0  0  0  0
  189.4520  177.9120  142.1200 C   0  0  1  0  0  3  0  0  0  0  0  0
  187.1560  178.5140  137.5950 O   0  0  0  0  0  1  0  0  0  0  0  0
  188.3230  178.7770  137.9890 C   0  0  0  0  0  0  0  0  0  0  0  0
  189.1390  179.5990  137.2240 O   0  0  0  0  0  0  0  0  0  0  0  0
  190.1620  176.5690  137.8290 C   0  0  2  0  0  3  0  0  0  0  0  0
  188.0610  175.3780  137.2670 N   0  0  0  0  0  2  0  0  0  0  0  0
  189.2400  176.6720  135.2240 S   0  0  0  0  0  0  0  0  0  0  0  0
  187.2730  175.0810  136.0850 C   0  0  0  0  0  2  0  0  0  0  0  0
  189.3860  175.7500  136.7870 C   0  0  1  0  0  3  0  0  0  0  0  0
  187.5040  176.1830  135.0810 C   0  0  0  0  0  2  0  0  0  0  0  0
  191.6380  176.1680  137.9820 C   0  0  1  0  0  3  0  0  0  0  0  0
  191.7780  174.7820  138.0660 O   0  0  0  0  0  1  0  0  0  0  0  0
  192.4670  176.6900  136.8200 C   0  0  0  0  0  2  0  0  0  0  0  0
  193.0650  175.5360  136.0340 C   0  0  0  0  0  2  0  0  0  0  0  0
  194.5710  175.7000  135.9150 C   0  0  0  0  0  2  0  0  0  0  0  0
  195.2100  175.3680  137.1780 N   0  0  0  0  0  1  0  0  0  0  0  0
  191.1430  177.7490  144.0720 C   0  0  0  0  0  2  0  0  0  0  0  0
  191.1980  176.4610  144.8920 C   0  0  1  0  0  3  0  0  0  0  0  0
  191.8340  175.4560  144.1540 O   0  0  0  0  0  1  0  0  0  0  0  0
  192.5200  176.5480  148.8610 N   0  0  0  0  0  0  0  0  0  0  0  0
  191.5210  177.5200  148.4490 C   0  0  0  0  0  2  0  0  0  0  0  0
  192.4500  175.4380  146.6870 C   0  0  0  0  0  2  0  0  0  0  0  0
  191.8540  176.6810  146.1870 N   0  0  0  0  0  0  0  0  0  0  0  0
  190.8380  177.1140  147.1430 C   0  0  0  0  0  2  0  0  0  0  0  0
  192.9870  175.6300  148.0810 C   0  0  0  0  0  3  0  0  0  0  0  0
  1  4  1  6  0  0  0
  1 12  1  0  0  0  0
  1  3  1  0  0  0  0
  3  9  1  0  0  0  0
  5 28  1  1  0  0  0
  5  2  1  0  0  0  0
  7  6  1  0  0  0  0
  8 16  1  6  0  0  0
  8 10  1  0  0  0  0
  8  7  1  0  0  0  0
  9  2  1  0  0  0  0
  9 11  1  1  0  0  0
 10 14  1  6  0  0  0
 10  4  1  0  0  0  0
 12  6  1  1  0  0  0
 12  5  1  0  0  0  0
 13 14  1  0  0  0  0
 15 14  2  0  0  0  0
 16 22  1  1  0  0  0
 18 20  1  0  0  0  0
 19 17  1  0  0  0  0
 20 17  1  0  0  0  0
 20 16  1  1  0  0  0
 21 18  1  0  0  0  0
 21 19  1  0  0  0  0
 22 23  1  6  0  0  0
 24 22  1  0  0  0  0
 25 24  1  0  0  0  0
 26 25  1  0  0  0  0
 26 27  1  0  0  0  0
 28 29  1  0  0  0  0
 29 30  1  6  0  0  0
 29 34  1  0  0  0  0
 32 31  1  0  0  0  0
 33 36  1  0  0  0  0
 34 33  1  0  0  0  0
 34 35  1  0  0  0  0
 35 32  1  0  0  0  0
 36 31  2  0  0  0  0
M  END
>  <MODEL>
1

>  <REMARK>
 VINA RESULT:      -6.8      0.000      0.000
  Name = 
  10 active torsions:
  status: ('A' for Active; 'I' for Inactive)
    1  A    between atoms: C_4  and  C_20
    2  A    between atoms: C_4  and  C_22
    3  A    between atoms: C_4  and  C_28
    4  A    between atoms: C_9  and  N_12
    5  A    between atoms: C_9  and  C_26
    6  A    between atoms: C_13  and  C_16
    7  A    between atoms: C_16  and  C_30
    8  A    between atoms: C_17  and  C_26
    9  A    between atoms: C_20  and  C_30
   10  A    between atoms: C_21  and  C_32
                            x       y       z     vdW  Elec       q    Type
                         _______ _______ _______ _____ _____    ______ ____

>  <TORSDO>
F 10

$$$$
=
 OpenBabel11062417143D

 36 39  0  0  1  0  0  0  0  0999 V2000
  183.0670  179.4030  143.4920 C   0  0  2  0  0  3  0  0  0  0  0  0
  185.7780  178.4390  144.2090 C   0  0  0  0  0  2  0  0  0  0  0  0
  183.3540  178.6740  144.8080 C   0  0  0  0  0  2  0  0  0  0  0  0
  181.6080  179.1420  143.1120 C   0  0  0  0  0  2  0  0  0  0  0  0
  185.5160  179.1870  142.9060 C   0  0  2  0  0  3  0  0  0  0  0  0
  183.7870  177.6020  141.8630 C   0  0  0  0  0  2  0  0  0  0  0  0
  182.9660  177.7310  140.5910 C   0  0  0  0  0  2  0  0  0  0  0  0
  181.4860  178.0630  140.8400 C   0  0  1  0  0  3  0  0  0  0  0  0
  184.7910  178.9050  145.2720 C   0  0  1  0  0  3  0  0  0  0  0  0
  181.2890  179.3780  141.6340 C   0  0  1  0  0  3  0  0  0  0  0  0
  185.0350  178.1410  146.5550 C   0  0  0  0  0  1  0  0  0  0  0  0
  184.0770  179.0000  142.4000 C   0  0  1  0  0  3  0  0  0  0  0  0
  178.9320  179.3000  142.0870 O   0  0  0  0  0  1  0  0  0  0  0  0
  179.8910  179.9130  141.5460 C   0  0  0  0  0  0  0  0  0  0  0  0
  179.6550  181.1070  140.8780 O   0  0  0  0  0  0  0  0  0  0  0  0
  180.6880  178.0340  139.5180 C   0  0  2  0  0  3  0  0  0  0  0  0
  180.7150  175.7060  138.6640 N   0  0  0  0  0  2  0  0  0  0  0  0
  179.1910  176.1220  140.8420 S   0  0  0  0  0  0  0  0  0  0  0  0
  180.0550  174.4450  138.9490 C   0  0  0  0  0  2  0  0  0  0  0  0
  179.8940  176.7400  139.2810 C   0  0  1  0  0  3  0  0  0  0  0  0
  179.6800  174.4340  140.4100 C   0  0  0  0  0  2  0  0  0  0  0  0
  181.4540  178.5440  138.2880 C   0  0  1  0  0  3  0  0  0  0  0  0
  180.7100  178.3670  137.1200 O   0  0  0  0  0  1  0  0  0  0  0  0
  181.8130  180.0130  138.4400 C   0  0  0  0  0  2  0  0  0  0  0  0
  180.8820  180.8760  137.6060 C   0  0  0  0  0  2  0  0  0  0  0  0
  181.1810  182.3480  137.8310 C   0  0  0  0  0  2  0  0  0  0  0  0
  179.9400  183.0940  137.9680 N   0  0  0  0  0  1  0  0  0  0  0  0
  186.6040  178.9910  141.8440 C   0  0  0  0  0  2  0  0  0  0  0  0
  187.8460  178.2570  142.3450 C   0  0  1  0  0  3  0  0  0  0  0  0
  187.5030  176.9590  142.7390 O   0  0  0  0  0  1  0  0  0  0  0  0
  190.5670  177.5150  139.2530 N   0  0  0  0  0  0  0  0  0  0  0  0
  190.9310  177.1090  140.6010 C   0  0  0  0  0  2  0  0  0  0  0  0
  188.3420  178.2100  139.9810 C   0  0  0  0  0  2  0  0  0  0  0  0
  188.9090  178.2530  141.3320 N   0  0  0  0  0  0  0  0  0  0  0  0
  189.7150  177.0490  141.5240 C   0  0  0  0  0  2  0  0  0  0  0  0
  189.4310  178.0510  138.9530 C   0  0  0  0  0  3  0  0  0  0  0  0
  1  4  1  6  0  0  0
  1  3  1  0  0  0  0
  2  9  1  0  0  0  0
  3  9  1  0  0  0  0
  5 28  1  6  0  0  0
  5  2  1  0  0  0  0
  7  8  1  0  0  0  0
  7  6  1  0  0  0  0
  8 16  1  6  0  0  0
  8 10  1  0  0  0  0
  9 11  1  1  0  0  0
 10 14  1  1  0  0  0
 10  4  1  0  0  0  0
 12  6  1  1  0  0  0
 12  5  1  0  0  0  0
 12  1  1  0  0  0  0
 14 13  1  0  0  0  0
 15 14  2  0  0  0  0
 16 22  1  6  0  0  0
 17 19  1  0  0  0  0
 17 20  1  0  0  0  0
 19 21  1  0  0  0  0
 20 16  1  1  0  0  0
 20 18  1  0  0  0  0
 21 18  1  0  0  0  0
 22 23  1  6  0  0  0
 22 24  1  0  0  0  0
 25 26  1  0  0  0  0
 25 24  1  0  0  0  0
 26 27  1  0  0  0  0
 28 29  1  0  0  0  0
 29 30  1  6  0  0  0
 31 32  1  0  0  0  0
 32 35  1  0  0  0  0
 33 34  1  0  0  0  0
 34 35  1  0  0  0  0
 34 29  1  0  0  0  0
 36 31  2  0  0  0  0
 36 33  1  0  0  0  0
M  END
>  <MODEL>
2

>  <REMARK>
 VINA RESULT:      -6.5      5.929      8.724
  Name = 
  10 active torsions:
  status: ('A' for Active; 'I' for Inactive)
    1  A    between atoms: C_4  and  C_20
    2  A    between atoms: C_4  and  C_22
    3  A    between atoms: C_4  and  C_28
    4  A    between atoms: C_9  and  N_12
    5  A    between atoms: C_9  and  C_26
    6  A    between atoms: C_13  and  C_16
    7  A    between atoms: C_16  and  C_30
    8  A    between atoms: C_17  and  C_26
    9  A    between atoms: C_20  and  C_30
   10  A    between atoms: C_21  and  C_32
                            x       y       z     vdW  Elec       q    Type
                         _______ _______ _______ _____ _____    ______ ____

>  <TORSDO>
F 10

$$$$
=
 OpenBabel11062417143D

 36 39  0  0  1  0  0  0  0  0999 V2000
  187.5970  175.6110  136.9660 C   0  0  2  0  0  3  0  0  0  0  0  0
  190.1820  177.0490  137.1840 C   0  0  0  0  0  2  0  0  0  0  0  0
  188.5540  175.7570  135.7800 C   0  0  0  0  0  2  0  0  0  0  0  0
  186.1740  175.4870  136.4170 C   0  0  0  0  0  2  0  0  0  0  0  0
  189.2530  176.8900  138.3840 C   0  0  2  0  0  3  0  0  0  0  0  0
  187.1690  178.0610  137.4480 C   0  0  0  0  0  2  0  0  0  0  0  0
  185.7730  178.2120  138.0300 C   0  0  0  0  0  2  0  0  0  0  0  0
  184.7210  177.3170  137.3570 C   0  0  1  0  0  3  0  0  0  0  0  0
  190.0060  175.8640  136.2440 C   0  0  1  0  0  3  0  0  0  0  0  0
  185.0760  175.8100  137.4320 C   0  0  1  0  0  3  0  0  0  0  0  0
  190.9070  176.0380  135.0410 C   0  0  0  0  0  1  0  0  0  0  0  0
  187.7770  176.7640  137.9730 C   0  0  1  0  0  3  0  0  0  0  0  0
  183.2420  174.4050  138.0830 O   0  0  0  0  0  1  0  0  0  0  0  0
  183.9060  174.9170  137.1430 C   0  0  0  0  0  0  0  0  0  0  0  0
  183.5410  174.6700  135.8270 O   0  0  0  0  0  0  0  0  0  0  0  0
  183.3090  177.6290  137.8970 C   0  0  2  0  0  3  0  0  0  0  0  0
  182.8180  177.8230  135.4740 N   0  0  0  0  0  2  0  0  0  0  0  0
  180.7640  177.0080  137.0100 S   0  0  0  0  0  0  0  0  0  0  0  0
  181.6700  177.7030  134.5940 C   0  0  0  0  0  2  0  0  0  0  0  0
  182.2800  177.9980  136.8170 C   0  0  1  0  0  3  0  0  0  0  0  0
  180.6980  176.7350  135.2230 C   0  0  0  0  0  2  0  0  0  0  0  0
  183.2760  178.5320  139.1400 C   0  0  1  0  0  3  0  0  0  0  0  0
  182.3010  179.5230  139.0190 O   0  0  0  0  0  1  0  0  0  0  0  0
  183.0160  177.7190  140.3970 C   0  0  0  0  0  2  0  0  0  0  0  0
  183.3290  178.5410  141.6360 C   0  0  0  0  0  2  0  0  0  0  0  0
  184.7640  178.3080  142.0780 C   0  0  0  0  0  2  0  0  0  0  0  0
  185.5990  179.4260  141.6710 N   0  0  0  0  0  1  0  0  0  0  0  0
  189.5240  177.8840  139.5200 C   0  0  0  0  0  2  0  0  0  0  0  0
  190.2420  177.2790  140.7250 C   0  0  1  0  0  3  0  0  0  0  0  0
  191.6120  177.5580  140.6490 O   0  0  0  0  0  1  0  0  0  0  0  0
  188.8970  177.9460  144.6310 N   0  0  0  0  0  0  0  0  0  0  0  0
  188.0090  177.2610  143.7060 C   0  0  0  0  0  2  0  0  0  0  0  0
  190.7050  177.9780  142.9900 C   0  0  0  0  0  2  0  0  0  0  0  0
  189.6610  177.7550  141.9860 N   0  0  0  0  0  0  0  0  0  0  0  0
  188.7610  176.7210  142.4900 C   0  0  0  0  0  2  0  0  0  0  0  0
  190.0950  178.3180  144.3250 C   0  0  0  0  0  3  0  0  0  0  0  0
  1  3  1  6  0  0  0
  1 12  1  0  0  0  0
  2  5  1  0  0  0  0
  3  9  1  0  0  0  0
  4  1  1  0  0  0  0
  4 10  1  0  0  0  0
  5 28  1  1  0  0  0
  6  7  1  0  0  0  0
  8 10  1  0  0  0  0
  8 16  1  1  0  0  0
  8  7  1  0  0  0  0
  9 11  1  6  0  0  0
  9  2  1  0  0  0  0
 10 14  1  6  0  0  0
 12  6  1  6  0  0  0
 12  5  1  0  0  0  0
 14 13  1  0  0  0  0
 15 14  2  0  0  0  0
 16 22  1  1  0  0  0
 17 20  1  0  0  0  0
 19 21  1  0  0  0  0
 19 17  1  0  0  0  0
 20 18  1  0  0  0  0
 20 16  1  1  0  0  0
 21 18  1  0  0  0  0
 22 23  1  6  0  0  0
 22 24  1  0  0  0  0
 24 25  1  0  0  0  0
 25 26  1  0  0  0  0
 27 26  1  0  0  0  0
 28 29  1  0  0  0  0
 29 30  1  1  0  0  0
 29 34  1  0  0  0  0
 32 31  1  0  0  0  0
 33 36  1  0  0  0  0
 34 35  1  0  0  0  0
 34 33  1  0  0  0  0
 35 32  1  0  0  0  0
 36 31  2  0  0  0  0
M  END
>  <MODEL>
3

>  <REMARK>
 VINA RESULT:      -6.2      3.950      7.221
  Name = 
  10 active torsions:
  status: ('A' for Active; 'I' for Inactive)
    1  A    between atoms: C_4  and  C_20
    2  A    between atoms: C_4  and  C_22
    3  A    between atoms: C_4  and  C_28
    4  A    between atoms: C_9  and  N_12
    5  A    between atoms: C_9  and  C_26
    6  A    between atoms: C_13  and  C_16
    7  A    between atoms: C_16  and  C_30
    8  A    between atoms: C_17  and  C_26
    9  A    between atoms: C_20  and  C_30
   10  A    between atoms: C_21  and  C_32
                            x       y       z     vdW  Elec       q    Type
                         _______ _______ _______ _____ _____    ______ ____

>  <TORSDO>
F 10

$$$$
=
 OpenBabel11062417143D

 36 39  0  0  1  0  0  0  0  0999 V2000
  191.8840  177.7500  140.4760 C   0  0  2  0  0  3  0  0  0  0  0  0
  191.3830  176.2360  137.9750 C   0  0  0  0  0  2  0  0  0  0  0  0
  192.9030  176.7630  139.8990 C   0  0  0  0  0  2  0  0  0  0  0  0
  192.0810  177.8080  141.9920 C   0  0  0  0  0  2  0  0  0  0  0  0
  190.3680  177.2350  138.5200 C   0  0  2  0  0  3  0  0  0  0  0  0
  189.9330  176.1700  140.8150 C   0  0  0  0  0  2  0  0  0  0  0  0
  189.1040  176.6570  141.9920 C   0  0  0  0  0  2  0  0  0  0  0  0
  189.9430  177.1820  143.1670 C   0  0  1  0  0  3  0  0  0  0  0  0
  192.7880  176.6650  138.3790 C   0  0  1  0  0  3  0  0  0  0  0  0
  190.8780  178.3500  142.7650 C   0  0  1  0  0  3  0  0  0  0  0  0
  193.7900  175.6570  137.8620 C   0  0  0  0  0  1  0  0  0  0  0  0
  190.4490  177.3830  140.0480 C   0  0  1  0  0  3  0  0  0  0  0  0
  190.9060  180.2380  144.2480 O   0  0  0  0  0  0  0  0  0  0  0  0
  191.3970  179.1180  143.9440 C   0  0  0  0  0  0  0  0  0  0  0  0
  192.4150  178.5800  144.7180 O   0  0  0  0  0  1  0  0  0  0  0  0
  189.0440  177.5200  144.3760 C   0  0  2  0  0  3  0  0  0  0  0  0
  190.8090  176.3410  145.6570 N   0  0  0  0  0  2  0  0  0  0  0  0
  189.1500  177.8780  147.1160 S   0  0  0  0  0  0  0  0  0  0  0  0
  191.1890  176.1520  147.0450 C   0  0  0  0  0  2  0  0  0  0  0  0
  189.4250  176.7970  145.6770 C   0  0  1  0  0  3  0  0  0  0  0  0
  190.7330  177.3620  147.8240 C   0  0  0  0  0  2  0  0  0  0  0  0
  187.5360  177.5370  144.0760 C   0  0  1  0  0  3  0  0  0  0  0  0
  186.9560  176.2950  144.3380 O   0  0  0  0  0  1  0  0  0  0  0  0
  186.8310  178.6060  144.8930 C   0  0  0  0  0  2  0  0  0  0  0  0
  185.3500  178.6410  144.5560 C   0  0  0  0  0  2  0  0  0  0  0  0
  184.5170  178.6350  145.8270 C   0  0  0  0  0  2  0  0  0  0  0  0
  185.3500  178.9690  146.9710 N   0  0  0  0  0  1  0  0  0  0  0  0
  188.9510  177.0510  137.9650 C   0  0  0  0  0  2  0  0  0  0  0  0
  188.0310  178.2520  138.1800 C   0  0  1  0  0  3  0  0  0  0  0  0
  188.6300  179.4060  137.6630 O   0  0  0  0  0  1  0  0  0  0  0  0
  184.1890  177.0100  137.0820 N   0  0  0  0  0  0  0  0  0  0  0  0
  185.3260  176.3950  136.4170 C   0  0  0  0  0  2  0  0  0  0  0  0
  185.6490  178.2690  138.5810 C   0  0  0  0  0  2  0  0  0  0  0  0
  186.7050  178.0210  137.5950 N   0  0  0  0  0  0  0  0  0  0  0  0
  186.6250  176.6190  137.1890 C   0  0  0  0  0  2  0  0  0  0  0  0
  184.3030  177.8850  138.0260 C   0  0  0  0  0  3  0  0  0  0  0  0
  1  3  1  1  0  0  0
  1  4  1  0  0  0  0
  2  9  1  0  0  0  0
  2  5  1  0  0  0  0
  4 10  1  0  0  0  0
  5 28  1  1  0  0  0
  5 12  1  0  0  0  0
  6  7  1  0  0  0  0
  7  8  1  0  0  0  0
  8 16  1  1  0  0  0
  9 11  1  1  0  0  0
  9  3  1  0  0  0  0
 10  8  1  0  0  0  0
 10 14  1  1  0  0  0
 12  1  1  0  0  0  0
 12  6  1  1  0  0  0
 14 13  2  0  0  0  0
 14 15  1  0  0  0  0
 16 22  1  6  0  0  0
 17 20  1  0  0  0  0
 17 19  1  0  0  0  0
 18 21  1  0  0  0  0
 19 21  1  0  0  0  0
 20 16  1  6  0  0  0
 20 18  1  0  0  0  0
 22 23  1  1  0  0  0
 22 24  1  0  0  0  0
 25 24  1  0  0  0  0
 25 26  1  0  0  0  0
 26 27  1  0  0  0  0
 28 29  1  0  0  0  0
 29 30  1  6  0  0  0
 31 36  2  0  0  0  0
 32 31  1  0  0  0  0
 32 35  1  0  0  0  0
 34 29  1  0  0  0  0
 34 33  1  0  0  0  0
 35 34  1  0  0  0  0
 36 33  1  0  0  0  0
M  END
>  <MODEL>
4

>  <REMARK>
 VINA RESULT:      -5.9      3.139      9.244
  Name = 
  10 active torsions:
  status: ('A' for Active; 'I' for Inactive)
    1  A    between atoms: C_4  and  C_20
    2  A    between atoms: C_4  and  C_22
    3  A    between atoms: C_4  and  C_28
    4  A    between atoms: C_9  and  N_12
    5  A    between atoms: C_9  and  C_26
    6  A    between atoms: C_13  and  C_16
    7  A    between atoms: C_16  and  C_30
    8  A    between atoms: C_17  and  C_26
    9  A    between atoms: C_20  and  C_30
   10  A    between atoms: C_21  and  C_32
                            x       y       z     vdW  Elec       q    Type
                         _______ _______ _______ _____ _____    ______ ____

>  <TORSDO>
F 10

$$$$
=
 OpenBabel11062417143D

 36 39  0  0  1  0  0  0  0  0999 V2000
  191.7440  177.7260  140.5390 C   0  0  2  0  0  3  0  0  0  0  0  0
  191.1380  176.1790  138.0830 C   0  0  0  0  0  2  0  0  0  0  0  0
  192.7760  176.8120  139.8730 C   0  0  0  0  0  2  0  0  0  0  0  0
  192.0650  177.7990  142.0340 C   0  0  0  0  0  2  0  0  0  0  0  0
  190.1060  177.1050  138.7180 C   0  0  2  0  0  3  0  0  0  0  0  0
  189.9440  176.0140  141.0360 C   0  0  0  0  0  2  0  0  0  0  0  0
  189.1860  176.4430  142.2810 C   0  0  0  0  0  2  0  0  0  0  0  0
  190.0840  177.0260  143.3830 C   0  0  1  0  0  3  0  0  0  0  0  0
  192.5380  176.7060  138.3680 C   0  0  1  0  0  3  0  0  0  0  0  0
  190.8970  178.2570  142.9090 C   0  0  1  0  0  3  0  0  0  0  0  0
  193.5610  175.7700  137.7630 C   0  0  0  0  0  1  0  0  0  0  0  0
  190.3070  177.2600  140.2340 C   0  0  1  0  0  3  0  0  0  0  0  0
  192.4290  178.6240  144.7210 O   0  0  0  0  0  1  0  0  0  0  0  0
  191.4610  179.0600  144.0440 C   0  0  0  0  0  0  0  0  0  0  0  0
  190.9220  180.3050  144.3350 O   0  0  0  0  0  0  0  0  0  0  0  0
  189.2700  177.3020  144.6660 C   0  0  2  0  0  3  0  0  0  0  0  0
  191.1450  176.0770  145.7300 N   0  0  0  0  0  2  0  0  0  0  0  0
  189.7440  177.6940  147.3620 S   0  0  0  0  0  0  0  0  0  0  0  0
  191.6960  175.8940  147.0600 C   0  0  0  0  0  2  0  0  0  0  0  0
  189.7920  176.5840  145.9200 C   0  0  1  0  0  3  0  0  0  0  0  0
  191.3870  177.1300  147.8680 C   0  0  0  0  0  2  0  0  0  0  0  0
  187.7440  177.2430  144.4890 C   0  0  1  0  0  3  0  0  0  0  0  0
  187.0970  177.1340  145.7210 O   0  0  0  0  0  1  0  0  0  0  0  0
  187.2330  178.4730  143.7570 C   0  0  0  0  0  2  0  0  0  0  0  0
  186.0430  178.1150  142.8840 C   0  0  0  0  0  2  0  0  0  0  0  0
  185.3540  179.3740  142.3850 C   0  0  0  0  0  2  0  0  0  0  0  0
  185.3180  179.3800  140.9320 N   0  0  0  0  0  1  0  0  0  0  0  0
  188.6630  176.8220  138.2840 C   0  0  0  0  0  2  0  0  0  0  0  0
  187.8210  178.0750  138.0470 C   0  0  1  0  0  3  0  0  0  0  0  0
  188.6570  179.1560  137.7410 O   0  0  0  0  0  1  0  0  0  0  0  0
  184.9220  176.6840  135.3690 N   0  0  0  0  0  0  0  0  0  0  0  0
  186.3200  176.5880  134.9800 C   0  0  0  0  0  2  0  0  0  0  0  0
  185.5180  177.5090  137.5890 C   0  0  0  0  0  2  0  0  0  0  0  0
  186.8160  177.8530  137.0010 N   0  0  0  0  0  0  0  0  0  0  0  0
  187.2550  176.7270  136.1800 C   0  0  0  0  0  2  0  0  0  0  0  0
  184.5310  177.1330  136.5150 C   0  0  0  0  0  3  0  0  0  0  0  0
  1  3  1  6  0  0  0
  1  4  1  0  0  0  0
  2  9  1  0  0  0  0
  2  5  1  0  0  0  0
  4 10  1  0  0  0  0
  5 28  1  1  0  0  0
  5 12  1  0  0  0  0
  6  7  1  0  0  0  0
  7  8  1  0  0  0  0
  8 16  1  1  0  0  0
  9 11  1  1  0  0  0
  9  3  1  0  0  0  0
 10  8  1  0  0  0  0
 10 14  1  1  0  0  0
 12  1  1  0  0  0  0
 12  6  1  1  0  0  0
 14 15  2  0  0  0  0
 14 13  1  0  0  0  0
 16 22  1  6  0  0  0
 17 20  1  0  0  0  0
 17 19  1  0  0  0  0
 18 21  1  0  0  0  0
 19 21  1  0  0  0  0
 20 16  1  6  0  0  0
 20 18  1  0  0  0  0
 22 23  1  1  0  0  0
 24 22  1  0  0  0  0
 25 24  1  0  0  0  0
 26 25  1  0  0  0  0
 27 26  1  0  0  0  0
 29 30  1  6  0  0  0
 29 28  1  0  0  0  0
 31 36  2  0  0  0  0
 32 31  1  0  0  0  0
 32 35  1  0  0  0  0
 34 33  1  0  0  0  0
 34 29  1  0  0  0  0
 35 34  1  0  0  0  0
 36 33  1  0  0  0  0
M  END
>  <MODEL>
5

>  <REMARK>
 VINA RESULT:      -5.7      3.082      9.181
  Name = 
  10 active torsions:
  status: ('A' for Active; 'I' for Inactive)
    1  A    between atoms: C_4  and  C_20
    2  A    between atoms: C_4  and  C_22
    3  A    between atoms: C_4  and  C_28
    4  A    between atoms: C_9  and  N_12
    5  A    between atoms: C_9  and  C_26
    6  A    between atoms: C_13  and  C_16
    7  A    between atoms: C_16  and  C_30
    8  A    between atoms: C_17  and  C_26
    9  A    between atoms: C_20  and  C_30
   10  A    between atoms: C_21  and  C_32
                            x       y       z     vdW  Elec       q    Type
                         _______ _______ _______ _____ _____    ______ ____

>  <TORSDO>
F 10

$$$$
=
 OpenBabel11062417143D

 36 39  0  0  1  0  0  0  0  0999 V2000
  180.7200  179.2990  140.7980 C   0  0  2  0  0  3  0  0  0  0  0  0
  181.2700  178.8900  143.6840 C   0  0  0  0  0  2  0  0  0  0  0  0
  179.6000  179.1900  141.8370 C   0  0  0  0  0  2  0  0  0  0  0  0
  180.1740  178.8110  139.4550 C   0  0  0  0  0  2  0  0  0  0  0  0
  182.3990  179.0230  142.6680 C   0  0  2  0  0  3  0  0  0  0  0  0
  181.8170  177.0410  141.1430 C   0  0  0  0  0  2  0  0  0  0  0  0
  182.4340  176.5880  139.8310 C   0  0  0  0  0  2  0  0  0  0  0  0
  181.5660  176.8940  138.6000 C   0  0  1  0  0  3  0  0  0  0  0  0
  180.0600  179.6830  143.2070 C   0  0  1  0  0  3  0  0  0  0  0  0
  181.2500  178.4030  138.4470 C   0  0  1  0  0  3  0  0  0  0  0  0
  178.9310  179.5260  144.2030 C   0  0  0  0  0  1  0  0  0  0  0  0
  181.9860  178.5530  141.2640 C   0  0  1  0  0  3  0  0  0  0  0  0
  179.5700  178.5120  136.7350 O   0  0  0  0  0  1  0  0  0  0  0  0
  180.7570  178.7630  137.0770 C   0  0  0  0  0  0  0  0  0  0  0  0
  181.6110  179.3980  136.1860 O   0  0  0  0  0  0  0  0  0  0  0  0
  182.1840  176.2770  137.3260 C   0  0  2  0  0  3  0  0  0  0  0  0
  180.0340  175.0430  137.3260 N   0  0  0  0  0  2  0  0  0  0  0  0
  181.0170  175.6550  134.8970 S   0  0  0  0  0  0  0  0  0  0  0  0
  179.1350  174.4430  136.3570 C   0  0  0  0  0  2  0  0  0  0  0  0
  181.3080  175.2180  136.6410 C   0  0  1  0  0  3  0  0  0  0  0  0
  179.2740  175.2010  135.0590 C   0  0  0  0  0  2  0  0  0  0  0  0
  183.6680  175.8940  137.4470 C   0  0  1  0  0  3  0  0  0  0  0  0
  183.9110  174.6370  136.8910 O   0  0  0  0  0  1  0  0  0  0  0  0
  184.5530  176.9260  136.7680 C   0  0  0  0  0  2  0  0  0  0  0  0
  185.1520  177.8700  137.7970 C   0  0  0  0  0  2  0  0  0  0  0  0
  186.5100  178.3660  137.3340 C   0  0  0  0  0  2  0  0  0  0  0  0
  187.5120  178.1060  138.3550 N   0  0  0  0  0  1  0  0  0  0  0  0
  183.7480  178.4830  143.1590 C   0  0  0  0  0  2  0  0  0  0  0  0
  184.3550  179.2710  144.3170 C   0  0  1  0  0  3  0  0  0  0  0  0
  183.5440  179.1470  145.4520 O   0  0  0  0  0  1  0  0  0  0  0  0
  187.9540  177.3160  145.1760 N   0  0  0  0  0  0  0  0  0  0  0  0
  187.2110  177.9020  146.2790 C   0  0  0  0  0  2  0  0  0  0  0  0
  186.1870  177.8750  143.5870 C   0  0  0  0  0  2  0  0  0  0  0  0
  185.7340  178.8460  144.5880 N   0  0  0  0  0  0  0  0  0  0  0  0
  185.7610  178.1950  145.8950 C   0  0  0  0  0  2  0  0  0  0  0  0
  187.5410  177.3270  143.9520 C   0  0  0  0  0  3  0  0  0  0  0  0
  1  4  1  6  0  0  0
  1 12  1  0  0  0  0
  1  3  1  0  0  0  0
  3  9  1  0  0  0  0
  5 28  1  1  0  0  0
  5  2  1  0  0  0  0
  7  6  1  0  0  0  0
  8 16  1  6  0  0  0
  8  7  1  0  0  0  0
  9  2  1  0  0  0  0
  9 11  1  1  0  0  0
 10 14  1  6  0  0  0
 10  8  1  0  0  0  0
 10  4  1  0  0  0  0
 12  6  1  1  0  0  0
 12  5  1  0  0  0  0
 13 14  1  0  0  0  0
 15 14  2  0  0  0  0
 16 22  1  1  0  0  0
 18 21  1  0  0  0  0
 18 20  1  0  0  0  0
 19 17  1  0  0  0  0
 20 17  1  0  0  0  0
 20 16  1  1  0  0  0
 21 19  1  0  0  0  0
 22 23  1  6  0  0  0
 24 22  1  0  0  0  0
 24 25  1  0  0  0  0
 26 25  1  0  0  0  0
 26 27  1  0  0  0  0
 28 29  1  0  0  0  0
 29 34  1  0  0  0  0
 29 30  1  1  0  0  0
 31 32  1  0  0  0  0
 33 36  1  0  0  0  0
 33 34  1  0  0  0  0
 34 35  1  0  0  0  0
 35 32  1  0  0  0  0
 36 31  2  0  0  0  0
M  END
>  <MODEL>
6

>  <REMARK>
 VINA RESULT:      -5.7      5.759      7.636
  Name = 
  10 active torsions:
  status: ('A' for Active; 'I' for Inactive)
    1  A    between atoms: C_4  and  C_20
    2  A    between atoms: C_4  and  C_22
    3  A    between atoms: C_4  and  C_28
    4  A    between atoms: C_9  and  N_12
    5  A    between atoms: C_9  and  C_26
    6  A    between atoms: C_13  and  C_16
    7  A    between atoms: C_16  and  C_30
    8  A    between atoms: C_17  and  C_26
    9  A    between atoms: C_20  and  C_30
   10  A    between atoms: C_21  and  C_32
                            x       y       z     vdW  Elec       q    Type
                         _______ _______ _______ _____ _____    ______ ____

>  <TORSDO>
F 10

$$$$
=
 OpenBabel11062417143D

 36 39  0  0  1  0  0  0  0  0999 V2000
  181.8530  178.7680  138.5590 C   0  0  2  0  0  3  0  0  0  0  0  0
  181.3040  179.2040  141.4410 C   0  0  0  0  0  2  0  0  0  0  0  0
  180.4710  179.1810  139.0760 C   0  0  0  0  0  2  0  0  0  0  0  0
  181.6610  177.9800  137.2620 C   0  0  0  0  0  2  0  0  0  0  0  0
  182.6930  178.8200  140.9430 C   0  0  2  0  0  3  0  0  0  0  0  0
  182.1220  176.5850  139.8160 C   0  0  0  0  0  2  0  0  0  0  0  0
  182.9830  175.6440  138.9890 C   0  0  0  0  0  2  0  0  0  0  0  0
  182.6790  175.6870  137.4840 C   0  0  1  0  0  3  0  0  0  0  0  0
  180.5770  179.9970  140.3620 C   0  0  1  0  0  3  0  0  0  0  0  0
  182.8520  177.1010  136.8750 C   0  0  1  0  0  3  0  0  0  0  0  0
  179.1890  180.3520  140.8490 C   0  0  0  0  0  1  0  0  0  0  0  0
  182.6470  178.0060  139.6390 C   0  0  1  0  0  3  0  0  0  0  0  0
  184.0680  177.1100  134.8050 O   0  0  0  0  0  1  0  0  0  0  0  0
  182.9460  177.0880  135.3780 C   0  0  0  0  0  0  0  0  0  0  0  0
  181.7860  177.0310  134.6190 O   0  0  0  0  0  0  0  0  0  0  0  0
  183.4840  174.6060  136.7310 C   0  0  2  0  0  3  0  0  0  0  0  0
  181.4980  173.2010  137.2100 N   0  0  0  0  0  2  0  0  0  0  0  0
  182.1960  173.3730  134.6170 S   0  0  0  0  0  0  0  0  0  0  0  0
  180.5960  172.3260  136.4840 C   0  0  0  0  0  2  0  0  0  0  0  0
  182.6810  173.3470  136.3720 C   0  0  1  0  0  3  0  0  0  0  0  0
  180.5360  172.8010  135.0530 C   0  0  0  0  0  2  0  0  0  0  0  0
  184.8840  174.3260  137.3010 C   0  0  1  0  0  3  0  0  0  0  0  0
  185.0280  172.9820  137.6480 O   0  0  0  0  0  1  0  0  0  0  0  0
  185.9650  174.7100  136.3040 C   0  0  0  0  0  2  0  0  0  0  0  0
  186.7590  175.9000  136.8140 C   0  0  0  0  0  2  0  0  0  0  0  0
  188.2190  175.7740  136.4120 C   0  0  0  0  0  2  0  0  0  0  0  0
  189.0660  175.8160  137.5920 N   0  0  0  0  0  1  0  0  0  0  0  0
  183.6100  178.2450  142.0290 C   0  0  0  0  0  2  0  0  0  0  0  0
  185.0890  178.5760  141.8420 C   0  0  1  0  0  3  0  0  0  0  0  0
  185.2200  179.7520  141.0930 O   0  0  0  0  0  1  0  0  0  0  0  0
  186.7390  178.1230  145.6610 N   0  0  0  0  0  0  0  0  0  0  0  0
  185.4510  178.7860  145.5440 C   0  0  0  0  0  2  0  0  0  0  0  0
  186.7810  177.6130  143.2730 C   0  0  0  0  0  2  0  0  0  0  0  0
  185.7810  178.6760  143.1330 N   0  0  0  0  0  0  0  0  0  0  0  0
  184.7900  178.5090  144.1940 C   0  0  0  0  0  2  0  0  0  0  0  0
  187.3790  177.6260  144.6550 C   0  0  0  0  0  3  0  0  0  0  0  0
  1  4  1  6  0  0  0
  1  3  1  0  0  0  0
  1 12  1  0  0  0  0
  3  9  1  0  0  0  0
  5  2  1  0  0  0  0
  5 28  1  1  0  0  0
  7  6  1  0  0  0  0
  8 16  1  6  0  0  0
  8  7  1  0  0  0  0
  9 11  1  1  0  0  0
  9  2  1  0  0  0  0
 10 14  1  6  0  0  0
 10  4  1  0  0  0  0
 10  8  1  0  0  0  0
 12  6  1  1  0  0  0
 12  5  1  0  0  0  0
 13 14  1  0  0  0  0
 15 14  2  0  0  0  0
 16 22  1  1  0  0  0
 18 21  1  0  0  0  0
 18 20  1  0  0  0  0
 19 17  1  0  0  0  0
 20 16  1  1  0  0  0
 20 17  1  0  0  0  0
 21 19  1  0  0  0  0
 22 23  1  6  0  0  0
 24 25  1  0  0  0  0
 24 22  1  0  0  0  0
 26 25  1  0  0  0  0
 26 27  1  0  0  0  0
 29 30  1  1  0  0  0
 29 28  1  0  0  0  0
 29 34  1  0  0  0  0
 32 31  1  0  0  0  0
 33 36  1  0  0  0  0
 34 33  1  0  0  0  0
 34 35  1  0  0  0  0
 35 32  1  0  0  0  0
 36 31  2  0  0  0  0
M  END
>  <MODEL>
7

>  <REMARK>
 VINA RESULT:      -5.6      5.121      7.167
  Name = 
  10 active torsions:
  status: ('A' for Active; 'I' for Inactive)
    1  A    between atoms: C_4  and  C_20
    2  A    between atoms: C_4  and  C_22
    3  A    between atoms: C_4  and  C_28
    4  A    between atoms: C_9  and  N_12
    5  A    between atoms: C_9  and  C_26
    6  A    between atoms: C_13  and  C_16
    7  A    between atoms: C_16  and  C_30
    8  A    between atoms: C_17  and  C_26
    9  A    between atoms: C_20  and  C_30
   10  A    between atoms: C_21  and  C_32
                            x       y       z     vdW  Elec       q    Type
                         _______ _______ _______ _____ _____    ______ ____

>  <TORSDO>
F 10

$$$$
=
 OpenBabel11062417143D

 36 39  0  0  1  0  0  0  0  0999 V2000
  183.0050  179.3470  143.3050 C   0  0  2  0  0  3  0  0  0  0  0  0
  185.7210  178.4600  144.0980 C   0  0  0  0  0  2  0  0  0  0  0  0
  183.2790  178.6450  144.6380 C   0  0  0  0  0  2  0  0  0  0  0  0
  181.5610  179.0450  142.8950 C   0  0  0  0  0  2  0  0  0  0  0  0
  185.4720  179.1810  142.7780 C   0  0  2  0  0  3  0  0  0  0  0  0
  183.8050  177.5390  141.7200 C   0  0  0  0  0  2  0  0  0  0  0  0
  183.0110  177.6300  140.4280 C   0  0  0  0  0  2  0  0  0  0  0  0
  181.5180  177.9290  140.6380 C   0  0  1  0  0  3  0  0  0  0  0  0
  184.6990  178.9170  145.1300 C   0  0  1  0  0  3  0  0  0  0  0  0
  181.2710  179.2510  141.4070 C   0  0  1  0  0  3  0  0  0  0  0  0
  184.9310  178.1790  146.4300 C   0  0  0  0  0  1  0  0  0  0  0  0
  184.0490  178.9520  142.2420 C   0  0  1  0  0  3  0  0  0  0  0  0
  178.9520  179.3010  142.0230 O   0  0  0  0  0  1  0  0  0  0  0  0
  179.8630  179.7500  141.2790 C   0  0  0  0  0  0  0  0  0  0  0  0
  179.5670  180.7320  140.3430 O   0  0  0  0  0  0  0  0  0  0  0  0
  180.7520  177.8610  139.2990 C   0  0  2  0  0  3  0  0  0  0  0  0
  180.6000  175.5520  138.4070 N   0  0  0  0  0  2  0  0  0  0  0  0
  179.3230  175.9800  140.7360 S   0  0  0  0  0  0  0  0  0  0  0  0
  179.9230  174.3120  138.7370 C   0  0  0  0  0  2  0  0  0  0  0  0
  179.8880  176.6030  139.1220 C   0  0  1  0  0  3  0  0  0  0  0  0
  179.6980  174.2840  140.2280 C   0  0  0  0  0  2  0  0  0  0  0  0
  181.5770  178.2450  138.0600 C   0  0  1  0  0  3  0  0  0  0  0  0
  181.7830  179.6240  137.9980 O   0  0  0  0  0  1  0  0  0  0  0  0
  182.9200  177.5330  138.0590 C   0  0  0  0  0  2  0  0  0  0  0  0
  183.2850  177.0910  136.6520 C   0  0  0  0  0  2  0  0  0  0  0  0
  184.7900  177.1470  136.4530 C   0  0  0  0  0  2  0  0  0  0  0  0
  185.4150  177.8420  137.5660 N   0  0  0  0  0  1  0  0  0  0  0  0
  186.5880  178.9960  141.7440 C   0  0  0  0  0  2  0  0  0  0  0  0
  187.8310  178.2880  142.2810 C   0  0  1  0  0  3  0  0  0  0  0  0
  187.4940  176.9970  142.7030 O   0  0  0  0  0  1  0  0  0  0  0  0
  190.5940  177.5020  139.2390 N   0  0  0  0  0  0  0  0  0  0  0  0
  190.9380  177.1130  140.5970 C   0  0  0  0  0  2  0  0  0  0  0  0
  188.3590  178.2080  139.9250 C   0  0  0  0  0  2  0  0  0  0  0  0
  188.9070  178.2690  141.2830 N   0  0  0  0  0  0  0  0  0  0  0  0
  189.7090  177.0680  141.5030 C   0  0  0  0  0  2  0  0  0  0  0  0
  189.4630  178.0340  138.9150 C   0  0  0  0  0  3  0  0  0  0  0  0
  1  4  1  6  0  0  0
  1  3  1  0  0  0  0
  2  9  1  0  0  0  0
  3  9  1  0  0  0  0
  5 28  1  6  0  0  0
  5  2  1  0  0  0  0
  7  8  1  0  0  0  0
  7  6  1  0  0  0  0
  8 16  1  6  0  0  0
  8 10  1  0  0  0  0
  9 11  1  1  0  0  0
 10 14  1  1  0  0  0
 10  4  1  0  0  0  0
 12  6  1  1  0  0  0
 12  5  1  0  0  0  0
 12  1  1  0  0  0  0
 14 13  1  0  0  0  0
 15 14  2  0  0  0  0
 16 22  1  6  0  0  0
 17 19  1  0  0  0  0
 17 20  1  0  0  0  0
 19 21  1  0  0  0  0
 20 16  1  1  0  0  0
 20 18  1  0  0  0  0
 21 18  1  0  0  0  0
 22 23  1  1  0  0  0
 24 22  1  0  0  0  0
 25 24  1  0  0  0  0
 26 25  1  0  0  0  0
 26 27  1  0  0  0  0
 28 29  1  0  0  0  0
 29 30  1  6  0  0  0
 31 32  1  0  0  0  0
 32 35  1  0  0  0  0
 33 34  1  0  0  0  0
 34 35  1  0  0  0  0
 34 29  1  0  0  0  0
 36 31  2  0  0  0  0
 36 33  1  0  0  0  0
M  END
>  <MODEL>
8

>  <REMARK>
 VINA RESULT:      -5.6      5.365      7.950
  Name = 
  10 active torsions:
  status: ('A' for Active; 'I' for Inactive)
    1  A    between atoms: C_4  and  C_20
    2  A    between atoms: C_4  and  C_22
    3  A    between atoms: C_4  and  C_28
    4  A    between atoms: C_9  and  N_12
    5  A    between atoms: C_9  and  C_26
    6  A    between atoms: C_13  and  C_16
    7  A    between atoms: C_16  and  C_30
    8  A    between atoms: C_17  and  C_26
    9  A    between atoms: C_20  and  C_30
   10  A    between atoms: C_21  and  C_32
                            x       y       z     vdW  Elec       q    Type
                         _______ _______ _______ _____ _____    ______ ____

>  <TORSDO>
F 10

$$$$
=
 OpenBabel11062417143D

 36 39  0  0  1  0  0  0  0  0999 V2000
  184.5120  177.8760  143.1560 C   0  0  2  0  0  3  0  0  0  0  0  0
  182.1830  179.1680  141.8500 C   0  0  0  0  0  2  0  0  0  0  0  0
  183.7070  178.9880  143.8340 C   0  0  0  0  0  2  0  0  0  0  0  0
  185.9420  177.9240  143.6990 C   0  0  0  0  0  2  0  0  0  0  0  0
  182.9570  178.0430  141.1700 C   0  0  2  0  0  3  0  0  0  0  0  0
  185.2810  179.1300  141.0930 C   0  0  0  0  0  2  0  0  0  0  0  0
  186.6220  178.5700  140.6470 C   0  0  0  0  0  2  0  0  0  0  0  0
  187.5750  178.2460  141.8090 C   0  0  1  0  0  3  0  0  0  0  0  0
  182.2540  178.9940  143.3610 C   0  0  1  0  0  3  0  0  0  0  0  0
  186.9770  177.2290  142.8130 C   0  0  1  0  0  3  0  0  0  0  0  0
  181.5110  180.1270  144.0340 C   0  0  0  0  0  1  0  0  0  0  0  0
  184.4250  177.9830  141.6200 C   0  0  1  0  0  3  0  0  0  0  0  0
  188.1990  177.0590  144.8720 O   0  0  0  0  0  1  0  0  0  0  0  0
  188.0100  176.6130  143.7090 C   0  0  0  0  0  0  0  0  0  0  0  0
  188.7490  175.5280  143.2590 O   0  0  0  0  0  0  0  0  0  0  0  0
  188.9620  177.8230  141.2780 C   0  0  2  0  0  3  0  0  0  0  0  0
  189.7390  179.2110  143.1800 N   0  0  0  0  0  2  0  0  0  0  0  0
  191.4610  177.3190  142.3490 S   0  0  0  0  0  0  0  0  0  0  0  0
  190.9430  179.3770  143.9730 C   0  0  0  0  0  2  0  0  0  0  0  0
  190.1470  178.5190  141.9650 C   0  0  1  0  0  3  0  0  0  0  0  0
  191.6790  178.0600  143.9840 C   0  0  0  0  0  2  0  0  0  0  0  0
  189.0720  177.7420  139.7470 C   0  0  1  0  0  3  0  0  0  0  0  0
  189.4210  178.9780  139.2000 O   0  0  0  0  0  1  0  0  0  0  0  0
  190.0940  176.6980  139.3300 C   0  0  0  0  0  2  0  0  0  0  0  0
  190.5870  176.9720  137.9190 C   0  0  0  0  0  2  0  0  0  0  0  0
  190.6100  175.6880  137.1080 C   0  0  0  0  0  2  0  0  0  0  0  0
  190.9430  174.5620  137.9650 N   0  0  0  0  0  1  0  0  0  0  0  0
  182.7430  177.9660  139.6540 C   0  0  0  0  0  2  0  0  0  0  0  0
  182.5010  176.5530  139.1250 C   0  0  1  0  0  3  0  0  0  0  0  0
  181.1300  176.3470  138.9340 O   0  0  0  0  0  1  0  0  0  0  0  0
  185.3040  175.7400  136.1260 N   0  0  0  0  0  0  0  0  0  0  0  0
  185.0890  177.1260  136.5080 C   0  0  0  0  0  2  0  0  0  0  0  0
  183.8050  174.9440  137.8810 C   0  0  0  0  0  2  0  0  0  0  0  0
  183.2630  176.3060  137.8950 N   0  0  0  0  0  0  0  0  0  0  0  0
  184.3850  177.2410  137.8590 C   0  0  0  0  0  2  0  0  0  0  0  0
  184.7100  174.7440  136.6940 C   0  0  0  0  0  3  0  0  0  0  0  0
  1  4  1  6  0  0  0
  1  3  1  0  0  0  0
  2  9  1  0  0  0  0
  5 28  1  6  0  0  0
  5 12  1  0  0  0  0
  5  2  1  0  0  0  0
  7  6  1  0  0  0  0
  7  8  1  0  0  0  0
  8 16  1  6  0  0  0
  8 10  1  0  0  0  0
  9  3  1  0  0  0  0
  9 11  1  1  0  0  0
 10  4  1  0  0  0  0
 10 14  1  1  0  0  0
 12  6  1  1  0  0  0
 12  1  1  0  0  0  0
 14 13  1  0  0  0  0
 15 14  2  0  0  0  0
 16 22  1  6  0  0  0
 17 19  1  0  0  0  0
 18 21  1  0  0  0  0
 19 21  1  0  0  0  0
 20 16  1  1  0  0  0
 20 18  1  0  0  0  0
 20 17  1  0  0  0  0
 22 23  1  1  0  0  0
 24 22  1  0  0  0  0
 25 24  1  0  0  0  0
 26 25  1  0  0  0  0
 26 27  1  0  0  0  0
 29 30  1  6  0  0  0
 29 28  1  0  0  0  0
 31 32  1  0  0  0  0
 31 36  2  0  0  0  0
 32 35  1  0  0  0  0
 33 34  1  0  0  0  0
 34 29  1  0  0  0  0
 35 34  1  0  0  0  0
 36 33  1  0  0  0  0
M  END
>  <MODEL>
9

>  <REMARK>
 VINA RESULT:      -5.0      3.458      7.922
  Name = 
  10 active torsions:
  status: ('A' for Active; 'I' for Inactive)
    1  A    between atoms: C_4  and  C_20
    2  A    between atoms: C_4  and  C_22
    3  A    between atoms: C_4  and  C_28
    4  A    between atoms: C_9  and  N_12
    5  A    between atoms: C_9  and  C_26
    6  A    between atoms: C_13  and  C_16
    7  A    between atoms: C_16  and  C_30
    8  A    between atoms: C_17  and  C_26
    9  A    between atoms: C_20  and  C_30
   10  A    between atoms: C_21  and  C_32
                            x       y       z     vdW  Elec       q    Type
                         _______ _______ _______ _____ _____    ______ ____

>  <TORSDO>
F 10

$$$$
