=
 OpenBabel11062418003D

 40 43  0  0  1  0  0  0  0  0999 V2000
  187.2210  178.1940  145.2280 C   0  0  0  0  0  0  0  0  0  0  0  0
  183.2990  178.1850  137.8690 C   0  0  2  0  0  3  0  0  0  0  0  0
  188.3080  178.4180  140.3510 C   0  0  0  0  0  0  0  0  0  0  0  0
  187.2820  178.7790  146.3430 O   0  0  0  0  0  0  0  0  0  0  0  0
  182.9120  178.8400  139.1980 C   0  0  1  0  0  3  0  0  0  0  0  0
  189.2770  177.0470  137.5400 C   0  0  2  0  0  3  0  0  0  0  0  0
  186.3240  176.1580  136.5280 C   0  0  1  0  0  0  0  0  0  0  0  0
  188.0560  178.5300  141.7150 O   0  0  0  0  0  0  0  0  0  0  0  0
  187.1240  177.0690  135.5670 C   0  0  0  0  0  2  0  0  0  0  0  0
  188.6200  176.7380  135.3720 C   0  0  0  0  0  2  0  0  0  0  0  0
  188.2740  176.8450  143.4330 C   0  0  0  0  0  2  0  0  0  0  0  0
  186.2220  174.7610  135.9280 C   0  0  0  0  0  1  0  0  0  0  0  0
  184.1430  176.1390  134.5940 O   0  0  0  0  0  0  0  0  0  0  0  0
  185.9030  177.9660  144.5380 C   0  0  1  0  0  3  0  0  0  0  0  0
  188.0330  177.2190  139.6890 O   0  0  0  0  0  0  0  0  0  0  0  0
  183.2360  178.0010  140.4450 C   0  0  0  0  0  2  0  0  0  0  0  0
  184.6660  178.1920  140.9360 C   0  0  0  0  0  2  0  0  0  0  0  0
  190.3420  176.6600  138.4520 N   0  0  0  0  0  1  0  0  0  0  0  0
  183.9080  176.5540  135.7610 C   0  0  0  0  0  0  0  0  0  0  0  0
  187.9170  177.1370  138.2750 C   0  0  2  0  0  3  0  0  0  0  0  0
  187.3510  177.5130  142.4130 C   0  0  1  0  0  3  0  0  0  0  0  0
  182.5080  176.9600  136.1560 C   0  0  2  0  0  3  0  0  0  0  0  0
  188.4070  177.6810  144.6150 N   0  0  0  0  0  0  0  0  0  0  0  0
  182.4140  177.1440  137.5510 O   0  0  0  0  0  0  0  0  0  0  0  0
  187.0020  175.9730  137.9030 C   0  0  0  0  0  2  0  0  0  0  0  0
  189.2200  176.1160  136.4840 O   0  0  0  0  0  0  0  0  0  0  0  0
  188.7680  179.4090  139.7220 O   0  0  0  0  0  0  0  0  0  0  0  0
  184.9780  176.7470  136.7130 N   0  0  0  0  0  0  0  0  0  0  0  0
  184.7470  177.6760  137.8360 C   0  0  0  0  0  2  0  0  0  0  0  0
  189.7300  178.0090  145.1200 C   0  0  0  0  0  1  0  0  0  0  0  0
  184.8370  178.9310  145.0410 C   0  0  0  0  0  1  0  0  0  0  0  0
  186.0550  178.1050  143.0110 C   0  0  1  0  0  3  0  0  0  0  0  0
  184.8300  177.5430  142.2980 C   0  0  0  0  0  2  0  0  0  0  0  0
  183.4040  180.2840  139.2710 C   0  0  0  0  0  2  0  0  0  0  0  0
  182.3550  181.2480  138.7460 C   0  0  0  0  0  2  0  0  0  0  0  0
  181.0810  180.8480  139.1560 O   0  0  0  0  0  1  0  0  0  0  0  0
  181.4570  175.9540  135.6810 C   0  0  0  0  0  2  0  0  0  0  0  0
  182.0670  173.9050  136.7440 O   0  0  0  0  0  0  0  0  0  0  0  0
  181.2390  174.8480  136.6630 C   0  0  0  0  0  0  0  0  0  0  0  0
  180.1080  174.8450  137.4680 O   0  0  0  0  0  1  0  0  0  0  0  0
  1  4  2  0  0  0  0
  2 29  1  1  0  0  0
  2  5  1  0  0  0  0
  3  8  1  0  0  0  0
  5 34  1  1  0  0  0
  5 16  1  0  0  0  0
  6 20  1  0  0  0  0
  6 18  1  1  0  0  0
  7 12  1  6  0  0  0
  7 28  1  0  0  0  0
  7 25  1  0  0  0  0
  8 21  1  0  0  0  0
  9  7  1  0  0  0  0
 10  9  1  0  0  0  0
 10 26  1  0  0  0  0
 11 23  1  0  0  0  0
 13 19  2  0  0  0  0
 14 31  1  1  0  0  0
 14  1  1  0  0  0  0
 15  3  1  0  0  0  0
 16 17  1  0  0  0  0
 17 33  1  0  0  0  0
 19 22  1  0  0  0  0
 19 28  1  0  0  0  0
 20 25  1  1  0  0  0
 20 15  1  0  0  0  0
 21 32  1  0  0  0  0
 21 11  1  1  0  0  0
 22 37  1  1  0  0  0
 22 24  1  0  0  0  0
 23 30  1  0  0  0  0
 23  1  1  0  0  0  0
 24  2  1  0  0  0  0
 26  6  1  0  0  0  0
 27  3  2  0  0  0  0
 28 29  1  0  0  0  0
 32 33  1  6  0  0  0
 32 14  1  0  0  0  0
 35 36  1  0  0  0  0
 35 34  1  0  0  0  0
 37 39  1  0  0  0  0
 39 38  2  0  0  0  0
 39 40  1  0  0  0  0
M  END
>  <MODEL>
1

>  <REMARK>
 VINA RESULT:      -6.4      0.000      0.000
  Name = 
  4 active torsions:
  status: ('A' for Active; 'I' for Inactive)
    1  A    between atoms: C_3  and  C_18
    2  A    between atoms: C_7  and  C_18
    3  A    between atoms: C_21  and  C_38
    4  A    between atoms: C_26  and  C_38
                            x       y       z     vdW  Elec       q    Type
                         _______ _______ _______ _____ _____    ______ ____

>  <TORSDO>
F 4

$$$$
=
 OpenBabel11062418003D

 40 43  0  0  1  0  0  0  0  0999 V2000
  181.1870  175.6320  135.7290 C   0  0  0  0  0  0  0  0  0  0  0  0
  188.1650  177.9440  139.6660 C   0  0  2  0  0  3  0  0  0  0  0  0
  182.6270  178.6980  139.4090 C   0  0  0  0  0  0  0  0  0  0  0  0
  180.6480  175.5380  134.5940 O   0  0  0  0  0  0  0  0  0  0  0  0
  187.9180  177.6310  138.1880 C   0  0  1  0  0  3  0  0  0  0  0  0
  183.0200  179.4270  142.5770 C   0  0  2  0  0  3  0  0  0  0  0  0
  185.9970  178.1670  142.8760 C   0  0  1  0  0  0  0  0  0  0  0  0
  182.1950  177.9950  138.2880 O   0  0  0  0  0  0  0  0  0  0  0  0
  185.8510  179.6610  143.2540 C   0  0  0  0  0  2  0  0  0  0  0  0
  184.6140  180.0540  144.0910 C   0  0  0  0  0  2  0  0  0  0  0  0
  181.0160  175.8890  138.1900 C   0  0  0  0  0  2  0  0  0  0  0  0
  186.2460  177.3520  144.1390 C   0  0  0  0  0  1  0  0  0  0  0  0
  188.8290  178.3400  143.5430 O   0  0  0  0  0  0  0  0  0  0  0  0
  182.6470  175.3230  135.9270 C   0  0  1  0  0  3  0  0  0  0  0  0
  183.0770  178.0050  140.5350 O   0  0  0  0  0  0  0  0  0  0  0  0
  186.9540  176.4610  137.9320 C   0  0  0  0  0  2  0  0  0  0  0  0
  185.4900  176.8840  137.9350 C   0  0  0  0  0  2  0  0  0  0  0  0
  181.6160  179.0520  142.5200 N   0  0  0  0  0  1  0  0  0  0  0  0
  188.5060  177.9780  142.3790 C   0  0  0  0  0  0  0  0  0  0  0  0
  183.8550  178.6210  141.5510 C   0  0  2  0  0  3  0  0  0  0  0  0
  182.3750  176.5900  138.1940 C   0  0  1  0  0  3  0  0  0  0  0  0
  189.5700  177.5770  141.3840 C   0  0  2  0  0  3  0  0  0  0  0  0
  180.4050  175.9830  136.8740 N   0  0  0  0  0  0  0  0  0  0  0  0
  188.9920  176.9730  140.2490 O   0  0  0  0  0  0  0  0  0  0  0  0
  184.7230  177.5700  142.2390 C   0  0  0  0  0  2  0  0  0  0  0  0
  183.4960  179.2220  143.8870 O   0  0  0  0  0  0  0  0  0  0  0  0
  182.6240  179.9590  139.3890 O   0  0  0  0  0  0  0  0  0  0  0  0
  187.1320  178.0360  141.9350 N   0  0  0  0  0  0  0  0  0  0  0  0
  186.8740  178.0980  140.4840 C   0  0  0  0  0  2  0  0  0  0  0  0
  179.0400  176.4660  136.7470 C   0  0  0  0  0  1  0  0  0  0  0  0
  183.4190  175.4230  134.6180 C   0  0  0  0  0  1  0  0  0  0  0  0
  183.2680  176.2670  136.9740 C   0  0  1  0  0  3  0  0  0  0  0  0
  184.6260  175.7450  137.4270 C   0  0  0  0  0  2  0  0  0  0  0  0
  187.5880  178.8960  137.3990 C   0  0  0  0  0  2  0  0  0  0  0  0
  187.7120  178.6570  135.9030 C   0  0  0  0  0  2  0  0  0  0  0  0
  188.9260  178.0330  135.6120 O   0  0  0  0  0  1  0  0  0  0  0  0
  190.6210  176.6520  142.0020 C   0  0  0  0  0  2  0  0  0  0  0  0
  191.9500  178.4690  142.8000 O   0  0  0  0  0  0  0  0  0  0  0  0
  191.4470  177.3410  143.0410 C   0  0  0  0  0  0  0  0  0  0  0  0
  191.6850  176.7250  144.2620 O   0  0  0  0  0  1  0  0  0  0  0  0
  1 14  1  0  0  0  0
  1 23  1  0  0  0  0
  2 24  1  0  0  0  0
  2 29  1  1  0  0  0
  3 15  1  0  0  0  0
  4  1  2  0  0  0  0
  5 34  1  6  0  0  0
  5  2  1  0  0  0  0
  6 18  1  1  0  0  0
  6 26  1  0  0  0  0
  7  9  1  0  0  0  0
  7 12  1  1  0  0  0
  8  3  1  0  0  0  0
  9 10  1  0  0  0  0
 14 31  1  6  0  0  0
 14 32  1  0  0  0  0
 15 20  1  0  0  0  0
 16 17  1  0  0  0  0
 16  5  1  0  0  0  0
 19 13  2  0  0  0  0
 20 25  1  1  0  0  0
 20  6  1  0  0  0  0
 21 11  1  6  0  0  0
 21  8  1  0  0  0  0
 22 37  1  1  0  0  0
 22 19  1  0  0  0  0
 23 11  1  0  0  0  0
 24 22  1  0  0  0  0
 25  7  1  0  0  0  0
 26 10  1  0  0  0  0
 27  3  2  0  0  0  0
 28 19  1  0  0  0  0
 28  7  1  0  0  0  0
 29 28  1  0  0  0  0
 30 23  1  0  0  0  0
 32 33  1  1  0  0  0
 32 21  1  0  0  0  0
 33 17  1  0  0  0  0
 35 34  1  0  0  0  0
 36 35  1  0  0  0  0
 37 39  1  0  0  0  0
 38 39  2  0  0  0  0
 39 40  1  0  0  0  0
M  END
>  <MODEL>
2

>  <REMARK>
 VINA RESULT:      -4.3      2.469      8.669
  Name = 
  4 active torsions:
  status: ('A' for Active; 'I' for Inactive)
    1  A    between atoms: C_3  and  C_18
    2  A    between atoms: C_7  and  C_18
    3  A    between atoms: C_21  and  C_38
    4  A    between atoms: C_26  and  C_38
                            x       y       z     vdW  Elec       q    Type
                         _______ _______ _______ _____ _____    ______ ____

>  <TORSDO>
F 4

$$$$
=
 OpenBabel11062418003D

 40 43  0  0  1  0  0  0  0  0999 V2000
  181.0750  177.5170  138.9150 C   0  0  0  0  0  0  0  0  0  0  0  0
  189.3920  177.7270  138.3620 C   0  0  2  0  0  3  0  0  0  0  0  0
  185.0220  178.9390  141.6380 C   0  0  0  0  0  0  0  0  0  0  0  0
  180.0120  177.8780  138.3420 O   0  0  0  0  0  0  0  0  0  0  0  0
  188.3220  177.9850  137.2980 C   0  0  1  0  0  3  0  0  0  0  0  0
  187.2240  178.4490  144.0110 C   0  0  2  0  0  3  0  0  0  0  0  0
  189.4280  176.9460  142.1620 C   0  0  1  0  0  0  0  0  0  0  0  0
  183.8870  178.7200  140.8620 O   0  0  0  0  0  0  0  0  0  0  0  0
  189.9170  178.2100  142.9080 C   0  0  0  0  0  2  0  0  0  0  0  0
  189.4790  178.3690  144.3800 C   0  0  0  0  0  2  0  0  0  0  0  0
  182.3200  176.8850  140.9650 C   0  0  0  0  0  2  0  0  0  0  0  0
  190.0800  175.7150  142.7790 C   0  0  0  0  0  1  0  0  0  0  0  0
  192.1000  176.6530  141.0340 O   0  0  0  0  0  0  0  0  0  0  0  0
  182.2670  177.0470  138.1240 C   0  0  1  0  0  3  0  0  0  0  0  0
  185.7950  177.8560  142.0610 O   0  0  0  0  0  0  0  0  0  0  0  0
  187.0950  177.0610  137.3850 C   0  0  0  0  0  2  0  0  0  0  0  0
  186.0390  177.5640  138.3610 C   0  0  0  0  0  2  0  0  0  0  0  0
  185.9670  178.2270  144.7080 N   0  0  0  0  0  1  0  0  0  0  0  0
  191.1220  176.7590  140.2450 C   0  0  0  0  0  0  0  0  0  0  0  0
  187.1280  178.0050  142.5300 C   0  0  2  0  0  3  0  0  0  0  0  0
  183.6010  177.4330  140.3340 C   0  0  1  0  0  3  0  0  0  0  0  0
  191.3350  176.6620  138.7530 C   0  0  2  0  0  3  0  0  0  0  0  0
  181.1540  177.4910  140.3430 N   0  0  0  0  0  0  0  0  0  0  0  0
  190.1030  176.5510  138.0760 O   0  0  0  0  0  0  0  0  0  0  0  0
  187.9050  176.7150  142.2820 C   0  0  0  0  0  2  0  0  0  0  0  0
  188.2490  177.7530  144.6810 O   0  0  0  0  0  0  0  0  0  0  0  0
  185.3510  180.1190  141.9360 O   0  0  0  0  0  0  0  0  0  0  0  0
  189.8000  177.0760  140.7350 N   0  0  0  0  0  0  0  0  0  0  0  0
  188.8360  177.6740  139.7920 C   0  0  0  0  0  2  0  0  0  0  0  0
  180.1240  178.0890  141.1750 C   0  0  0  0  0  1  0  0  0  0  0  0
  182.2140  177.5520  136.6880 C   0  0  0  0  0  1  0  0  0  0  0  0
  183.5790  177.5030  138.7910 C   0  0  1  0  0  3  0  0  0  0  0  0
  184.7670  176.7520  138.2020 C   0  0  0  0  0  2  0  0  0  0  0  0
  187.9790  179.4700  137.2030 C   0  0  0  0  0  2  0  0  0  0  0  0
  187.1820  179.7690  135.9440 C   0  0  0  0  0  2  0  0  0  0  0  0
  187.1930  178.6640  135.0910 O   0  0  0  0  0  1  0  0  0  0  0  0
  192.2570  175.5010  138.3730 C   0  0  0  0  0  2  0  0  0  0  0  0
  193.8080  176.7590  137.0650 O   0  0  0  0  0  0  0  0  0  0  0  0
  193.6360  175.9580  138.0200 C   0  0  0  0  0  0  0  0  0  0  0  0
  194.7310  175.4780  138.7260 O   0  0  0  0  0  1  0  0  0  0  0  0
  1 23  1  0  0  0  0
  2 29  1  1  0  0  0
  3 27  2  0  0  0  0
  3 15  1  0  0  0  0
  4  1  2  0  0  0  0
  5 34  1  1  0  0  0
  5 16  1  0  0  0  0
  5  2  1  0  0  0  0
  6 26  1  0  0  0  0
  6 18  1  1  0  0  0
  7 25  1  0  0  0  0
  7 12  1  1  0  0  0
  7  9  1  0  0  0  0
  8  3  1  0  0  0  0
  9 10  1  0  0  0  0
 10 26  1  0  0  0  0
 14 31  1  6  0  0  0
 14 32  1  0  0  0  0
 14  1  1  0  0  0  0
 15 20  1  0  0  0  0
 16 17  1  0  0  0  0
 19 28  1  0  0  0  0
 19 13  2  0  0  0  0
 20 25  1  1  0  0  0
 20  6  1  0  0  0  0
 21  8  1  0  0  0  0
 21 11  1  1  0  0  0
 22 37  1  1  0  0  0
 22 19  1  0  0  0  0
 23 11  1  0  0  0  0
 23 30  1  0  0  0  0
 24  2  1  0  0  0  0
 24 22  1  0  0  0  0
 28  7  1  0  0  0  0
 29 28  1  0  0  0  0
 32 33  1  6  0  0  0
 32 21  1  0  0  0  0
 33 17  1  0  0  0  0
 35 34  1  0  0  0  0
 36 35  1  0  0  0  0
 38 39  2  0  0  0  0
 39 37  1  0  0  0  0
 39 40  1  0  0  0  0
M  END
>  <MODEL>
3

>  <REMARK>
 VINA RESULT:      -4.1      2.678      7.727
  Name = 
  4 active torsions:
  status: ('A' for Active; 'I' for Inactive)
    1  A    between atoms: C_3  and  C_18
    2  A    between atoms: C_7  and  C_18
    3  A    between atoms: C_21  and  C_38
    4  A    between atoms: C_26  and  C_38
                            x       y       z     vdW  Elec       q    Type
                         _______ _______ _______ _____ _____    ______ ____

>  <TORSDO>
F 4

$$$$
=
 OpenBabel11062418003D

 40 43  0  0  1  0  0  0  0  0999 V2000
  181.9490  178.7940  137.7750 C   0  0  0  0  0  0  0  0  0  0  0  0
  189.8760  176.4120  138.7860 C   0  0  2  0  0  3  0  0  0  0  0  0
  184.7170  174.6350  137.5480 C   0  0  0  0  0  0  0  0  0  0  0  0
  180.9880  179.3850  138.3380 O   0  0  0  0  0  0  0  0  0  0  0  0
  189.0440  177.4410  139.5570 C   0  0  1  0  0  3  0  0  0  0  0  0
  186.3760  172.3540  135.8850 C   0  0  2  0  0  3  0  0  0  0  0  0
  189.2360  173.8890  135.9090 C   0  0  1  0  0  0  0  0  0  0  0  0
  183.8750  175.7220  137.7620 O   0  0  0  0  0  0  0  0  0  0  0  0
  189.2260  172.4640  136.5130 C   0  0  0  0  0  2  0  0  0  0  0  0
  188.4400  171.3820  135.7410 C   0  0  0  0  0  2  0  0  0  0  0  0
  182.8120  177.1510  136.1300 C   0  0  0  0  0  2  0  0  0  0  0  0
  190.0070  173.8710  134.5950 C   0  0  0  0  0  1  0  0  0  0  0  0
  192.0840  174.0540  136.5070 O   0  0  0  0  0  0  0  0  0  0  0  0
  183.3660  179.2760  137.9400 C   0  0  1  0  0  3  0  0  0  0  0  0
  185.6110  174.6480  136.4750 O   0  0  0  0  0  0  0  0  0  0  0  0
  188.0880  178.2750  138.6880 C   0  0  0  0  0  2  0  0  0  0  0  0
  186.7500  177.5880  138.4480 C   0  0  0  0  0  2  0  0  0  0  0  0
  185.0850  172.3430  135.2160 N   0  0  0  0  0  1  0  0  0  0  0  0
  191.3140  174.9240  137.0000 C   0  0  0  0  0  0  0  0  0  0  0  0
  186.7270  173.7720  136.4000 C   0  0  2  0  0  3  0  0  0  0  0  0
  184.0320  176.9240  137.0230 C   0  0  1  0  0  3  0  0  0  0  0  0
  191.8770  176.0610  137.8190 C   0  0  2  0  0  3  0  0  0  0  0  0
  181.7060  177.6780  136.9130 N   0  0  0  0  0  0  0  0  0  0  0  0
  190.8940  177.0440  138.0550 O   0  0  0  0  0  0  0  0  0  0  0  0
  187.8260  174.4150  135.5580 C   0  0  0  0  0  2  0  0  0  0  0  0
  187.3580  171.8830  134.9920 O   0  0  0  0  0  0  0  0  0  0  0  0
  184.6770  173.6540  138.3400 O   0  0  0  0  0  0  0  0  0  0  0  0
  189.8790  174.8010  136.8820 N   0  0  0  0  0  0  0  0  0  0  0  0
  189.0400  175.5160  137.8620 C   0  0  0  0  0  2  0  0  0  0  0  0
  180.4020  177.0430  136.8370 C   0  0  0  0  0  1  0  0  0  0  0  0
  183.5210  180.1280  139.1930 C   0  0  0  0  0  1  0  0  0  0  0  0
  184.3440  178.0870  137.9920 C   0  0  1  0  0  3  0  0  0  0  0  0
  185.7790  178.5660  137.8110 C   0  0  0  0  0  2  0  0  0  0  0  0
  188.3860  176.8160  140.7850 C   0  0  0  0  0  2  0  0  0  0  0  0
  189.1890  177.1030  142.0430 C   0  0  0  0  0  2  0  0  0  0  0  0
  190.0260  176.0250  142.3390 O   0  0  0  0  0  1  0  0  0  0  0  0
  193.1110  176.6890  137.1680 C   0  0  0  0  0  2  0  0  0  0  0  0
  194.6180  175.5900  138.6590 O   0  0  0  0  0  1  0  0  0  0  0  0
  194.3650  175.9350  137.4760 C   0  0  0  0  0  0  0  0  0  0  0  0
  195.2660  175.6390  136.4620 O   0  0  0  0  0  0  0  0  0  0  0  0
  1 14  1  0  0  0  0
  1  4  2  0  0  0  0
  2 29  1  6  0  0  0
  2  5  1  0  0  0  0
  3  8  1  0  0  0  0
  3 27  2  0  0  0  0
  5 34  1  1  0  0  0
  6 18  1  6  0  0  0
  6 20  1  0  0  0  0
  7 12  1  6  0  0  0
  7  9  1  0  0  0  0
  7 28  1  0  0  0  0
 10  9  1  0  0  0  0
 11 23  1  0  0  0  0
 13 19  2  0  0  0  0
 14 32  1  0  0  0  0
 14 31  1  1  0  0  0
 15  3  1  0  0  0  0
 16  5  1  0  0  0  0
 17 16  1  0  0  0  0
 19 22  1  0  0  0  0
 20 25  1  6  0  0  0
 20 15  1  0  0  0  0
 21 11  1  1  0  0  0
 21  8  1  0  0  0  0
 21 32  1  0  0  0  0
 22 37  1  6  0  0  0
 22 24  1  0  0  0  0
 23  1  1  0  0  0  0
 24  2  1  0  0  0  0
 25  7  1  0  0  0  0
 26 10  1  0  0  0  0
 26  6  1  0  0  0  0
 28 19  1  0  0  0  0
 28 29  1  0  0  0  0
 30 23  1  0  0  0  0
 32 33  1  6  0  0  0
 33 17  1  0  0  0  0
 34 35  1  0  0  0  0
 35 36  1  0  0  0  0
 37 39  1  0  0  0  0
 39 38  1  0  0  0  0
 40 39  2  0  0  0  0
M  END
>  <MODEL>
4

>  <REMARK>
 VINA RESULT:      -3.8      3.029      7.892
  Name = 
  4 active torsions:
  status: ('A' for Active; 'I' for Inactive)
    1  A    between atoms: C_3  and  C_18
    2  A    between atoms: C_7  and  C_18
    3  A    between atoms: C_21  and  C_38
    4  A    between atoms: C_26  and  C_38
                            x       y       z     vdW  Elec       q    Type
                         _______ _______ _______ _____ _____    ______ ____

>  <TORSDO>
F 4

$$$$
