=
 OpenBabel11062416183D

 29 31  0  0  1  0  0  0  0  0999 V2000
  183.0040  178.8740  141.8150 C   0  0  1  0  0  3  0  0  0  0  0  0
  183.1860  177.9150  139.6400 C   0  0  0  0  0  3  0  0  0  0  0  0
  180.6550  177.5890  139.1400 C   0  0  0  0  0  2  0  0  0  0  0  0
  183.4630  178.2410  143.1340 C   0  0  0  0  0  2  0  0  0  0  0  0
  181.8010  177.7620  140.1050 C   0  0  0  0  0  0  0  0  0  0  0  0
  181.2070  176.3900  139.9090 C   0  0  0  0  0  2  0  0  0  0  0  0
  186.5480  178.4250  143.8980 C   0  0  2  0  0  3  0  0  0  0  0  0
  185.1690  178.4200  144.6030 C   0  0  2  0  0  3  0  0  0  0  0  0
  184.2120  179.1660  143.8840 O   0  0  0  0  0  0  0  0  0  0  0  0
  183.8650  178.5110  140.6080 C   0  0  0  0  0  0  0  0  0  0  0  0
  186.3250  178.1640  142.4520 C   0  0  0  0  0  2  0  0  0  0  0  0
  185.2870  178.8960  140.4510 C   0  0  0  0  0  0  0  0  0  0  0  0
  185.8210  178.9930  139.3140 O   0  0  0  0  0  0  0  0  0  0  0  0
  186.0550  179.1800  141.6500 C   0  0  0  0  0  2  0  0  0  0  0  0
  181.6060  178.3590  141.4750 C   0  0  0  0  0  2  0  0  0  0  0  0
  184.9170  178.1130  147.1750 C   0  0  0  0  0  1  0  0  0  0  0  0
  185.2720  178.9600  145.9980 C   0  0  0  0  0  0  0  0  0  0  0  0
  185.6830  180.0940  146.1760 O   0  0  0  0  0  0  0  0  0  0  0  0
  187.5180  177.4130  144.5350 C   0  0  1  0  0  3  0  0  0  0  0  0
  188.0060  175.5350  143.1730 O   0  0  0  0  0  0  0  0  0  0  0  0
  188.3630  176.6420  143.5470 C   0  0  0  0  0  0  0  0  0  0  0  0
  189.6340  177.2190  142.9930 C   0  0  2  0  0  3  0  0  0  0  0  0
  189.5610  177.3090  141.6020 O   0  0  0  0  0  1  0  0  0  0  0  0
  190.7760  175.1140  143.0790 F   0  0  0  0  0  0  0  0  0  0  0  0
  190.8850  176.4520  143.4210 C   0  0  0  0  0  0  0  0  0  0  0  0
  191.9880  176.9870  142.7810 F   0  0  0  0  0  0  0  0  0  0  0  0
  191.0660  176.5610  144.7870 F   0  0  0  0  0  0  0  0  0  0  0  0
  188.3320  178.0480  145.4780 O   0  0  0  0  0  0  0  0  0  0  0  0
  188.4370  177.1400  146.5330 C   0  0  0  0  0  1  0  0  0  0  0  0
  1 15  1  6  0  0  0
  1  4  1  0  0  0  0
  2  5  1  0  0  0  0
  2 10  2  0  0  0  0
  3  6  1  0  0  0  0
  3  5  1  0  0  0  0
  4  9  1  0  0  0  0
  5 15  1  0  0  0  0
  6  5  1  0  0  0  0
  7 19  1  1  0  0  0
  7  8  1  0  0  0  0
  8 17  1  1  0  0  0
  9  8  1  0  0  0  0
 10  1  1  0  0  0  0
 11  7  1  0  0  0  0
 12 10  1  0  0  0  0
 12 14  1  0  0  0  0
 13 12  2  0  0  0  0
 14 11  1  0  0  0  0
 17 18  2  0  0  0  0
 17 16  1  0  0  0  0
 19 21  1  6  0  0  0
 19 28  1  0  0  0  0
 20 21  2  0  0  0  0
 22 23  1  6  0  0  0
 22 25  1  0  0  0  0
 22 21  1  0  0  0  0
 24 25  1  0  0  0  0
 25 27  1  0  0  0  0
 26 25  1  0  0  0  0
 28 29  1  0  0  0  0
M  END
>  <MODEL>
1

>  <REMARK>
 VINA RESULT:      -7.3      0.000      0.000
  Name = 
  6 active torsions:
  status: ('A' for Active; 'I' for Inactive)
    1  A    between atoms: C_7  and  C_8
    2  A    between atoms: C_7  and  C_14
    3  A    between atoms: C_8  and  C_13
    4  A    between atoms: C_10  and  C_13
    5  A    between atoms: O_11  and  C_13
    6  A    between atoms: C_15  and  C_24
                            x       y       z     vdW  Elec       q    Type
                         _______ _______ _______ _____ _____    ______ ____

>  <TORSDO>
F 6

$$$$
=
 OpenBabel11062416183D

 29 31  0  0  1  0  0  0  0  0999 V2000
  192.0480  175.7030  136.3490 C   0  0  1  0  0  3  0  0  0  0  0  0
  193.6230  174.1130  137.1700 C   0  0  0  0  0  3  0  0  0  0  0  0
  193.7810  172.5930  135.0660 C   0  0  0  0  0  2  0  0  0  0  0  0
  190.6160  175.9170  136.8550 C   0  0  0  0  0  2  0  0  0  0  0  0
  193.0520  173.6030  135.9160 C   0  0  0  0  0  0  0  0  0  0  0  0
  192.6130  172.1600  135.9510 C   0  0  0  0  0  2  0  0  0  0  0  0
  190.1930  177.6590  139.4850 C   0  0  2  0  0  3  0  0  0  0  0  0
  189.4690  177.3700  138.1480 C   0  0  2  0  0  3  0  0  0  0  0  0
  190.3750  177.2860  137.0700 O   0  0  0  0  0  0  0  0  0  0  0  0
  193.0400  175.2740  137.4270 C   0  0  0  0  0  0  0  0  0  0  0  0
  191.3780  176.7640  139.5690 C   0  0  0  0  0  2  0  0  0  0  0  0
  193.4320  176.1130  138.5830 C   0  0  0  0  0  0  0  0  0  0  0  0
  194.5350  175.9500  139.1700 O   0  0  0  0  0  0  0  0  0  0  0  0
  192.5150  177.1510  139.0160 C   0  0  0  0  0  2  0  0  0  0  0  0
  192.0520  174.5660  135.3290 C   0  0  0  0  0  2  0  0  0  0  0  0
  186.9980  178.0610  137.7060 C   0  0  0  0  0  1  0  0  0  0  0  0
  188.4400  178.4200  137.8510 C   0  0  0  0  0  0  0  0  0  0  0  0
  188.7810  179.5870  137.7600 O   0  0  0  0  0  0  0  0  0  0  0  0
  189.2510  177.4970  140.6920 C   0  0  1  0  0  3  0  0  0  0  0  0
  189.8900  175.7070  142.1070 O   0  0  0  0  0  0  0  0  0  0  0  0
  189.9000  176.9150  141.9260 C   0  0  0  0  0  0  0  0  0  0  0  0
  190.5810  177.7930  142.9360 C   0  0  2  0  0  3  0  0  0  0  0  0
  191.9410  177.4910  143.0040 O   0  0  0  0  0  1  0  0  0  0  0  0
  190.5150  176.7210  145.0780 F   0  0  0  0  0  0  0  0  0  0  0  0
  189.9420  177.7310  144.3240 C   0  0  0  0  0  0  0  0  0  0  0  0
  190.1390  178.9370  144.9690 F   0  0  0  0  0  0  0  0  0  0  0  0
  188.5830  177.5020  144.2120 F   0  0  0  0  0  0  0  0  0  0  0  0
  188.6380  178.7170  140.9950 O   0  0  0  0  0  0  0  0  0  0  0  0
  187.3330  178.3830  141.3620 C   0  0  0  0  0  1  0  0  0  0  0  0
  1 15  1  6  0  0  0
  1  4  1  0  0  0  0
  1 10  1  0  0  0  0
  2 10  2  0  0  0  0
  3  5  1  0  0  0  0
  3  6  1  0  0  0  0
  4  9  1  0  0  0  0
  5  6  1  0  0  0  0
  5  2  1  0  0  0  0
  7 11  1  0  0  0  0
  7 19  1  1  0  0  0
  8 17  1  6  0  0  0
  8  7  1  0  0  0  0
  9  8  1  0  0  0  0
 10 12  1  0  0  0  0
 12 14  1  0  0  0  0
 12 13  2  0  0  0  0
 14 11  1  0  0  0  0
 15  5  1  0  0  0  0
 16 17  1  0  0  0  0
 18 17  2  0  0  0  0
 19 28  1  1  0  0  0
 19 21  1  0  0  0  0
 21 20  2  0  0  0  0
 21 22  1  0  0  0  0
 22 23  1  1  0  0  0
 22 25  1  0  0  0  0
 25 26  1  0  0  0  0
 25 24  1  0  0  0  0
 27 25  1  0  0  0  0
 28 29  1  0  0  0  0
M  END
>  <MODEL>
2

>  <REMARK>
 VINA RESULT:      -6.6      5.030      8.208
  Name = 
  6 active torsions:
  status: ('A' for Active; 'I' for Inactive)
    1  A    between atoms: C_7  and  C_8
    2  A    between atoms: C_7  and  C_14
    3  A    between atoms: C_8  and  C_13
    4  A    between atoms: C_10  and  C_13
    5  A    between atoms: O_11  and  C_13
    6  A    between atoms: C_15  and  C_24
                            x       y       z     vdW  Elec       q    Type
                         _______ _______ _______ _____ _____    ______ ____

>  <TORSDO>
F 6

$$$$
=
 OpenBabel11062416183D

 29 31  0  0  1  0  0  0  0  0999 V2000
  187.7670  178.5720  142.3790 C   0  0  1  0  0  3  0  0  0  0  0  0
  188.1490  177.2640  144.3350 C   0  0  0  0  0  3  0  0  0  0  0  0
  190.6990  176.8500  144.0400 C   0  0  0  0  0  2  0  0  0  0  0  0
  186.9280  178.1700  141.1600 C   0  0  0  0  0  2  0  0  0  0  0  0
  189.3410  177.1850  143.4790 C   0  0  0  0  0  0  0  0  0  0  0  0
  189.8950  175.7980  143.2770 C   0  0  0  0  0  2  0  0  0  0  0  0
  183.7650  178.4910  141.3400 C   0  0  2  0  0  3  0  0  0  0  0  0
  184.8910  178.5990  140.2830 C   0  0  2  0  0  3  0  0  0  0  0  0
  186.0480  179.2110  140.8110 O   0  0  0  0  0  0  0  0  0  0  0  0
  187.2590  178.0150  143.7060 C   0  0  0  0  0  0  0  0  0  0  0  0
  184.3690  177.9900  142.6040 C   0  0  0  0  0  2  0  0  0  0  0  0
  185.9580  178.3730  144.3190 C   0  0  0  0  0  0  0  0  0  0  0  0
  185.7680  178.2810  145.5610 O   0  0  0  0  0  0  0  0  0  0  0  0
  184.9030  178.8570  143.4470 C   0  0  0  0  0  2  0  0  0  0  0  0
  189.1760  178.0020  142.2230 C   0  0  0  0  0  2  0  0  0  0  0  0
  184.4930  178.7580  137.7150 C   0  0  0  0  0  1  0  0  0  0  0  0
  184.4320  179.3650  139.0780 C   0  0  0  0  0  0  0  0  0  0  0  0
  183.9700  180.4850  139.2170 O   0  0  0  0  0  0  0  0  0  0  0  0
  182.6070  177.6030  140.8510 C   0  0  1  0  0  3  0  0  0  0  0  0
  181.0330  179.0730  139.8600 O   0  0  0  0  0  0  0  0  0  0  0  0
  181.2670  178.2990  140.7760 C   0  0  0  0  0  0  0  0  0  0  0  0
  180.1980  178.0430  141.7990 C   0  0  2  0  0  3  0  0  0  0  0  0
  178.9340  178.2230  141.2370 O   0  0  0  0  0  1  0  0  0  0  0  0
  180.7430  180.1780  142.7420 F   0  0  0  0  0  0  0  0  0  0  0  0
  180.3540  178.8890  143.0630 C   0  0  0  0  0  0  0  0  0  0  0  0
  179.1420  178.9410  143.7280 F   0  0  0  0  0  0  0  0  0  0  0  0
  181.2970  178.3230  143.9010 F   0  0  0  0  0  0  0  0  0  0  0  0
  182.9240  177.0270  139.6170 O   0  0  0  0  0  0  0  0  0  0  0  0
  182.2490  175.8050  139.6060 C   0  0  0  0  0  1  0  0  0  0  0  0
  1  4  1  6  0  0  0
  1 10  1  0  0  0  0
  5  3  1  0  0  0  0
  5  2  1  0  0  0  0
  6  5  1  0  0  0  0
  6  3  1  0  0  0  0
  7 19  1  6  0  0  0
  7 11  1  0  0  0  0
  8 17  1  6  0  0  0
  8  9  1  0  0  0  0
  8  7  1  0  0  0  0
  9  4  1  0  0  0  0
 10 12  1  0  0  0  0
 10  2  2  0  0  0  0
 11 14  1  0  0  0  0
 12 13  2  0  0  0  0
 14 12  1  0  0  0  0
 15  1  1  0  0  0  0
 15  5  1  0  0  0  0
 16 17  1  0  0  0  0
 17 18  2  0  0  0  0
 19 28  1  6  0  0  0
 20 21  2  0  0  0  0
 21 19  1  0  0  0  0
 21 22  1  0  0  0  0
 22 23  1  6  0  0  0
 22 25  1  0  0  0  0
 24 25  1  0  0  0  0
 25 26  1  0  0  0  0
 25 27  1  0  0  0  0
 29 28  1  0  0  0  0
M  END
>  <MODEL>
3

>  <REMARK>
 VINA RESULT:      -6.4      4.099      7.851
  Name = 
  6 active torsions:
  status: ('A' for Active; 'I' for Inactive)
    1  A    between atoms: C_7  and  C_8
    2  A    between atoms: C_7  and  C_14
    3  A    between atoms: C_8  and  C_13
    4  A    between atoms: C_10  and  C_13
    5  A    between atoms: O_11  and  C_13
    6  A    between atoms: C_15  and  C_24
                            x       y       z     vdW  Elec       q    Type
                         _______ _______ _______ _____ _____    ______ ____

>  <TORSDO>
F 6

$$$$
=
 OpenBabel11062416183D

 29 31  0  0  1  0  0  0  0  0999 V2000
  185.2640  178.4820  138.6300 C   0  0  1  0  0  3  0  0  0  0  0  0
  186.5780  177.2090  137.1020 C   0  0  0  0  0  3  0  0  0  0  0  0
  184.7750  176.8040  135.2730 C   0  0  0  0  0  2  0  0  0  0  0  0
  184.8280  178.0560  140.0370 C   0  0  0  0  0  2  0  0  0  0  0  0
  185.1690  177.1230  136.6930 C   0  0  0  0  0  0  0  0  0  0  0  0
  184.6820  175.7350  136.3610 C   0  0  0  0  0  2  0  0  0  0  0  0
  186.9190  178.3620  142.4170 C   0  0  2  0  0  3  0  0  0  0  0  0
  185.3910  178.4600  142.1860 C   0  0  2  0  0  3  0  0  0  0  0  0
  185.0860  179.0860  140.9590 O   0  0  0  0  0  0  0  0  0  0  0  0
  186.6270  177.9450  138.2020 C   0  0  0  0  0  0  0  0  0  0  0  0
  187.5450  177.8860  141.1550 C   0  0  0  0  0  2  0  0  0  0  0  0
  187.9080  178.3060  138.8520 C   0  0  0  0  0  0  0  0  0  0  0  0
  189.0030  178.2330  138.2330 O   0  0  0  0  0  0  0  0  0  0  0  0
  187.8700  178.7690  140.2270 C   0  0  0  0  0  2  0  0  0  0  0  0
  184.2760  177.9180  137.6090 C   0  0  0  0  0  2  0  0  0  0  0  0
  183.5580  178.6100  144.0280 C   0  0  0  0  0  1  0  0  0  0  0  0
  184.7200  179.2030  143.3020 C   0  0  0  0  0  0  0  0  0  0  0  0
  185.1510  180.2910  143.6450 O   0  0  0  0  0  0  0  0  0  0  0  0
  187.2580  177.4600  143.6180 C   0  0  1  0  0  3  0  0  0  0  0  0
  188.4850  175.4660  143.2490 O   0  0  0  0  0  0  0  0  0  0  0  0
  188.5360  176.6660  143.4690 C   0  0  0  0  0  0  0  0  0  0  0  0
  189.8800  177.3290  143.5650 C   0  0  2  0  0  3  0  0  0  0  0  0
  190.6210  177.0950  142.4060 O   0  0  0  0  0  1  0  0  0  0  0  0
  191.5200  177.9380  145.2020 F   0  0  0  0  0  0  0  0  0  0  0  0
  190.6720  176.9180  144.8060 C   0  0  0  0  0  0  0  0  0  0  0  0
  189.7920  176.6430  145.8360 F   0  0  0  0  0  0  0  0  0  0  0  0
  191.4160  175.7830  144.5420 F   0  0  0  0  0  0  0  0  0  0  0  0
  187.2890  178.2120  144.7970 O   0  0  0  0  0  0  0  0  0  0  0  0
  186.6510  177.4150  145.7490 C   0  0  0  0  0  1  0  0  0  0  0  0
  1 15  1  6  0  0  0
  1  4  1  0  0  0  0
  2 10  2  0  0  0  0
  3  6  1  0  0  0  0
  3  5  1  0  0  0  0
  4  9  1  0  0  0  0
  5  2  1  0  0  0  0
  5 15  1  0  0  0  0
  6  5  1  0  0  0  0
  7 19  1  1  0  0  0
  8  7  1  0  0  0  0
  8 17  1  1  0  0  0
  9  8  1  0  0  0  0
 10  1  1  0  0  0  0
 10 12  1  0  0  0  0
 11  7  1  0  0  0  0
 12 14  1  0  0  0  0
 13 12  2  0  0  0  0
 14 11  1  0  0  0  0
 17 18  2  0  0  0  0
 17 16  1  0  0  0  0
 19 21  1  6  0  0  0
 19 28  1  0  0  0  0
 20 21  2  0  0  0  0
 21 22  1  0  0  0  0
 22 23  1  6  0  0  0
 22 25  1  0  0  0  0
 25 24  1  0  0  0  0
 25 26  1  0  0  0  0
 27 25  1  0  0  0  0
 28 29  1  0  0  0  0
M  END
>  <MODEL>
4

>  <REMARK>
 VINA RESULT:      -6.4      2.221      3.084
  Name = 
  6 active torsions:
  status: ('A' for Active; 'I' for Inactive)
    1  A    between atoms: C_7  and  C_8
    2  A    between atoms: C_7  and  C_14
    3  A    between atoms: C_8  and  C_13
    4  A    between atoms: C_10  and  C_13
    5  A    between atoms: O_11  and  C_13
    6  A    between atoms: C_15  and  C_24
                            x       y       z     vdW  Elec       q    Type
                         _______ _______ _______ _____ _____    ______ ____

>  <TORSDO>
F 6

$$$$
=
 OpenBabel11062416183D

 29 31  0  0  1  0  0  0  0  0999 V2000
  185.8160  179.0140  142.3210 C   0  0  1  0  0  3  0  0  0  0  0  0
  186.0600  177.8800  144.4030 C   0  0  0  0  0  3  0  0  0  0  0  0
  188.6240  177.4560  144.3220 C   0  0  0  0  0  2  0  0  0  0  0  0
  185.0630  178.5050  141.0850 C   0  0  0  0  0  2  0  0  0  0  0  0
  187.3080  177.7350  143.6410 C   0  0  0  0  0  0  0  0  0  0  0  0
  187.8750  176.3390  143.5980 C   0  0  0  0  0  2  0  0  0  0  0  0
  181.8960  178.8220  141.0160 C   0  0  2  0  0  3  0  0  0  0  0  0
  183.0930  178.8470  140.0350 C   0  0  2  0  0  3  0  0  0  0  0  0
  184.2100  179.5070  140.5880 O   0  0  0  0  0  0  0  0  0  0  0  0
  185.2150  178.5700  143.6520 C   0  0  0  0  0  0  0  0  0  0  0  0
  182.4090  178.4350  142.3570 C   0  0  0  0  0  2  0  0  0  0  0  0
  183.8760  178.9720  144.1400 C   0  0  0  0  0  0  0  0  0  0  0  0
  183.5990  178.9840  145.3690 O   0  0  0  0  0  0  0  0  0  0  0  0
  182.8840  179.3730  143.1590 C   0  0  0  0  0  2  0  0  0  0  0  0
  187.2320  178.4410  142.3120 C   0  0  0  0  0  2  0  0  0  0  0  0
  182.1460  180.8830  138.7190 C   0  0  0  0  0  1  0  0  0  0  0  0
  182.7190  179.5040  138.7400 C   0  0  0  0  0  0  0  0  0  0  0  0
  182.9170  178.9200  137.6890 O   0  0  0  0  0  0  0  0  0  0  0  0
  180.7740  177.8900  140.5250 C   0  0  1  0  0  3  0  0  0  0  0  0
  182.1530  175.9870  140.2110 O   0  0  0  0  0  0  0  0  0  0  0  0
  181.2510  176.6770  139.7600 C   0  0  0  0  0  0  0  0  0  0  0  0
  180.6220  176.2830  138.4540 C   0  0  2  0  0  3  0  0  0  0  0  0
  179.8720  177.3390  137.9370 O   0  0  0  0  0  1  0  0  0  0  0  0
  179.0150  175.0190  139.7040 F   0  0  0  0  0  0  0  0  0  0  0  0
  179.7770  175.0130  138.5470 C   0  0  0  0  0  0  0  0  0  0  0  0
  178.9310  174.9490  137.4560 F   0  0  0  0  0  0  0  0  0  0  0  0
  180.5920  173.8960  138.5440 F   0  0  0  0  0  0  0  0  0  0  0  0
  179.9640  177.5000  141.5960 O   0  0  0  0  0  0  0  0  0  0  0  0
  178.9810  178.4880  141.6830 C   0  0  0  0  0  1  0  0  0  0  0  0
  1  4  1  6  0  0  0
  1 10  1  0  0  0  0
  5  3  1  0  0  0  0
  5  2  1  0  0  0  0
  6  5  1  0  0  0  0
  6  3  1  0  0  0  0
  7 19  1  6  0  0  0
  7 11  1  0  0  0  0
  8 17  1  6  0  0  0
  8  9  1  0  0  0  0
  8  7  1  0  0  0  0
  9  4  1  0  0  0  0
 10 12  1  0  0  0  0
 10  2  2  0  0  0  0
 11 14  1  0  0  0  0
 12 13  2  0  0  0  0
 14 12  1  0  0  0  0
 15  1  1  0  0  0  0
 15  5  1  0  0  0  0
 16 17  1  0  0  0  0
 18 17  2  0  0  0  0
 19 21  1  1  0  0  0
 19 28  1  0  0  0  0
 21 20  2  0  0  0  0
 22 23  1  1  0  0  0
 22 25  1  0  0  0  0
 22 21  1  0  0  0  0
 25 24  1  0  0  0  0
 26 25  1  0  0  0  0
 27 25  1  0  0  0  0
 28 29  1  0  0  0  0
M  END
>  <MODEL>
5

>  <REMARK>
 VINA RESULT:      -6.2      4.540      8.089
  Name = 
  6 active torsions:
  status: ('A' for Active; 'I' for Inactive)
    1  A    between atoms: C_7  and  C_8
    2  A    between atoms: C_7  and  C_14
    3  A    between atoms: C_8  and  C_13
    4  A    between atoms: C_10  and  C_13
    5  A    between atoms: O_11  and  C_13
    6  A    between atoms: C_15  and  C_24
                            x       y       z     vdW  Elec       q    Type
                         _______ _______ _______ _____ _____    ______ ____

>  <TORSDO>
F 6

$$$$
=
 OpenBabel11062416183D

 29 31  0  0  1  0  0  0  0  0999 V2000
  190.1220  177.6690  141.0230 C   0  0  1  0  0  3  0  0  0  0  0  0
  187.7930  177.7010  141.5320 C   0  0  0  0  0  3  0  0  0  0  0  0
  187.9570  177.6870  144.1270 C   0  0  0  0  0  2  0  0  0  0  0  0
  190.8950  176.5310  140.3460 C   0  0  0  0  0  2  0  0  0  0  0  0
  188.5390  177.4080  142.7640 C   0  0  0  0  0  0  0  0  0  0  0  0
  188.0000  176.2600  143.5810 C   0  0  0  0  0  2  0  0  0  0  0  0
  190.7470  176.2900  137.1750 C   0  0  2  0  0  3  0  0  0  0  0  0
  191.7580  176.0320  138.3190 C   0  0  2  0  0  3  0  0  0  0  0  0
  191.6970  177.0370  139.3070 O   0  0  0  0  0  0  0  0  0  0  0  0
  188.6780  177.8180  140.5530 C   0  0  0  0  0  0  0  0  0  0  0  0
  189.4450  176.6620  137.7880 C   0  0  0  0  0  2  0  0  0  0  0  0
  188.2820  178.1920  139.1750 C   0  0  0  0  0  0  0  0  0  0  0  0
  187.1730  178.7390  138.9350 O   0  0  0  0  0  0  0  0  0  0  0  0
  189.2200  177.9280  138.0990 C   0  0  0  0  0  2  0  0  0  0  0  0
  190.0250  177.3840  142.5210 C   0  0  0  0  0  2  0  0  0  0  0  0
  193.9020  174.6420  137.8230 C   0  0  0  0  0  1  0  0  0  0  0  0
  193.1590  175.9370  137.7940 C   0  0  0  0  0  0  0  0  0  0  0  0
  193.6860  176.9210  137.3050 O   0  0  0  0  0  0  0  0  0  0  0  0
  190.6280  175.0770  136.2350 C   0  0  1  0  0  3  0  0  0  0  0  0
  188.5470  175.3140  135.1240 O   0  0  0  0  0  0  0  0  0  0  0  0
  189.2090  174.6620  135.9170 C   0  0  0  0  0  0  0  0  0  0  0  0
  188.5950  173.4430  136.5440 C   0  0  2  0  0  3  0  0  0  0  0  0
  188.7880  172.3280  135.7290 O   0  0  0  0  0  1  0  0  0  0  0  0
  186.3400  173.5390  135.7380 F   0  0  0  0  0  0  0  0  0  0  0  0
  187.1150  173.6170  136.8840 C   0  0  0  0  0  0  0  0  0  0  0  0
  186.7280  172.6140  137.7530 F   0  0  0  0  0  0  0  0  0  0  0  0
  186.9060  174.8400  137.4930 F   0  0  0  0  0  0  0  0  0  0  0  0
  191.3420  175.3050  135.0540 O   0  0  0  0  0  0  0  0  0  0  0  0
  191.8700  174.0600  134.7060 C   0  0  0  0  0  1  0  0  0  0  0  0
  1  4  1  6  0  0  0
  1 15  1  0  0  0  0
  2  5  1  0  0  0  0
  5  6  1  0  0  0  0
  5  3  1  0  0  0  0
  6  3  1  0  0  0  0
  7 19  1  1  0  0  0
  7 11  1  0  0  0  0
  7  8  1  0  0  0  0
  8 17  1  6  0  0  0
  8  9  1  0  0  0  0
  9  4  1  0  0  0  0
 10  1  1  0  0  0  0
 10  2  2  0  0  0  0
 11 14  1  0  0  0  0
 12 10  1  0  0  0  0
 13 12  2  0  0  0  0
 14 12  1  0  0  0  0
 15  5  1  0  0  0  0
 17 16  1  0  0  0  0
 18 17  2  0  0  0  0
 19 28  1  6  0  0  0
 20 21  2  0  0  0  0
 21 19  1  0  0  0  0
 21 22  1  0  0  0  0
 22 23  1  6  0  0  0
 22 25  1  0  0  0  0
 24 25  1  0  0  0  0
 25 27  1  0  0  0  0
 25 26  1  0  0  0  0
 29 28  1  0  0  0  0
M  END
>  <MODEL>
6

>  <REMARK>
 VINA RESULT:      -6.2      5.524      8.535
  Name = 
  6 active torsions:
  status: ('A' for Active; 'I' for Inactive)
    1  A    between atoms: C_7  and  C_8
    2  A    between atoms: C_7  and  C_14
    3  A    between atoms: C_8  and  C_13
    4  A    between atoms: C_10  and  C_13
    5  A    between atoms: O_11  and  C_13
    6  A    between atoms: C_15  and  C_24
                            x       y       z     vdW  Elec       q    Type
                         _______ _______ _______ _____ _____    ______ ____

>  <TORSDO>
F 6

$$$$
=
 OpenBabel11062416183D

 29 31  0  0  1  0  0  0  0  0999 V2000
  188.7130  177.1440  137.6500 C   0  0  1  0  0  3  0  0  0  0  0  0
  190.7160  175.9440  138.1290 C   0  0  0  0  0  3  0  0  0  0  0  0
  190.9030  174.5910  135.9170 C   0  0  0  0  0  2  0  0  0  0  0  0
  187.3620  176.9900  138.3610 C   0  0  0  0  0  2  0  0  0  0  0  0
  190.0960  175.3630  136.9310 C   0  0  0  0  0  0  0  0  0  0  0  0
  190.0130  173.8570  136.9190 C   0  0  0  0  0  2  0  0  0  0  0  0
  186.9490  178.4750  141.1460 C   0  0  2  0  0  3  0  0  0  0  0  0
  186.1190  178.0750  139.9020 C   0  0  2  0  0  3  0  0  0  0  0  0
  186.8470  178.2520  138.7080 O   0  0  0  0  0  0  0  0  0  0  0  0
  189.9270  176.9220  138.5480 C   0  0  0  0  0  0  0  0  0  0  0  0
  188.3070  177.8870  141.0010 C   0  0  0  0  0  2  0  0  0  0  0  0
  190.2840  177.7840  139.6990 C   0  0  0  0  0  0  0  0  0  0  0  0
  191.4700  177.8660  140.1160 O   0  0  0  0  0  0  0  0  0  0  0  0
  189.2280  178.5560  140.3280 C   0  0  0  0  0  2  0  0  0  0  0  0
  188.8260  176.0820  136.5580 C   0  0  0  0  0  2  0  0  0  0  0  0
  183.5190  178.1710  139.8080 C   0  0  0  0  0  1  0  0  0  0  0  0
  184.8440  178.8610  139.8270 C   0  0  0  0  0  0  0  0  0  0  0  0
  184.8870  180.0790  139.8140 O   0  0  0  0  0  0  0  0  0  0  0  0
  186.2610  178.0470  142.4540 C   0  0  1  0  0  3  0  0  0  0  0  0
  187.5540  176.2650  143.3330 O   0  0  0  0  0  0  0  0  0  0  0  0
  187.1820  177.4200  143.4760 C   0  0  0  0  0  0  0  0  0  0  0  0
  187.6720  178.1970  144.6640 C   0  0  2  0  0  3  0  0  0  0  0  0
  189.0560  178.0720  144.7890 O   0  0  0  0  0  1  0  0  0  0  0  0
  187.8450  177.1430  146.8090 F   0  0  0  0  0  0  0  0  0  0  0  0
  186.9740  177.8150  145.9690 C   0  0  0  0  0  0  0  0  0  0  0  0
  186.5380  178.9630  146.6040 F   0  0  0  0  0  0  0  0  0  0  0  0
  185.8810  177.0100  145.7060 F   0  0  0  0  0  0  0  0  0  0  0  0
  185.5740  179.1270  143.0190 O   0  0  0  0  0  0  0  0  0  0  0  0
  184.3090  178.6260  143.3310 C   0  0  0  0  0  1  0  0  0  0  0  0
  1 15  1  6  0  0  0
  1  4  1  0  0  0  0
  1 10  1  0  0  0  0
  2 10  2  0  0  0  0
  3  6  1  0  0  0  0
  3  5  1  0  0  0  0
  4  9  1  0  0  0  0
  5  2  1  0  0  0  0
  6  5  1  0  0  0  0
  7 19  1  1  0  0  0
  8 17  1  6  0  0  0
  8  7  1  0  0  0  0
  9  8  1  0  0  0  0
 10 12  1  0  0  0  0
 11  7  1  0  0  0  0
 12 13  2  0  0  0  0
 12 14  1  0  0  0  0
 14 11  1  0  0  0  0
 15  5  1  0  0  0  0
 16 17  1  0  0  0  0
 18 17  2  0  0  0  0
 19 28  1  1  0  0  0
 19 21  1  0  0  0  0
 20 21  2  0  0  0  0
 21 22  1  0  0  0  0
 22 23  1  1  0  0  0
 22 25  1  0  0  0  0
 25 26  1  0  0  0  0
 25 24  1  0  0  0  0
 27 25  1  0  0  0  0
 28 29  1  0  0  0  0
M  END
>  <MODEL>
7

>  <REMARK>
 VINA RESULT:      -6.1      3.655      6.048
  Name = 
  6 active torsions:
  status: ('A' for Active; 'I' for Inactive)
    1  A    between atoms: C_7  and  C_8
    2  A    between atoms: C_7  and  C_14
    3  A    between atoms: C_8  and  C_13
    4  A    between atoms: C_10  and  C_13
    5  A    between atoms: O_11  and  C_13
    6  A    between atoms: C_15  and  C_24
                            x       y       z     vdW  Elec       q    Type
                         _______ _______ _______ _____ _____    ______ ____

>  <TORSDO>
F 6

$$$$
=
 OpenBabel11062416183D

 29 31  0  0  1  0  0  0  0  0999 V2000
  187.6690  178.6230  140.8810 C   0  0  1  0  0  3  0  0  0  0  0  0
  186.3470  177.9840  142.7600 C   0  0  0  0  0  3  0  0  0  0  0  0
  188.2500  177.7420  144.5150 C   0  0  0  0  0  2  0  0  0  0  0  0
  187.8960  177.8070  139.6030 C   0  0  0  0  0  2  0  0  0  0  0  0
  187.7640  177.7710  143.0890 C   0  0  0  0  0  0  0  0  0  0  0  0
  188.0800  176.4430  143.7290 C   0  0  0  0  0  2  0  0  0  0  0  0
  185.6410  177.8700  137.3570 C   0  0  2  0  0  3  0  0  0  0  0  0
  187.1820  177.7700  137.4610 C   0  0  2  0  0  3  0  0  0  0  0  0
  187.6950  178.6140  138.4680 O   0  0  0  0  0  0  0  0  0  0  0  0
  186.2940  178.4330  141.5150 C   0  0  0  0  0  0  0  0  0  0  0  0
  185.0840  177.8180  138.7350 C   0  0  0  0  0  2  0  0  0  0  0  0
  185.0170  178.8310  140.8770 C   0  0  0  0  0  0  0  0  0  0  0  0
  183.9910  179.0870  141.5610 O   0  0  0  0  0  0  0  0  0  0  0  0
  184.9820  178.9390  139.4290 C   0  0  0  0  0  2  0  0  0  0  0  0
  188.6640  178.1670  141.9470 C   0  0  0  0  0  2  0  0  0  0  0  0
  189.2570  177.7320  135.8900 C   0  0  0  0  0  1  0  0  0  0  0  0
  187.8360  178.1050  136.1530 C   0  0  0  0  0  0  0  0  0  0  0  0
  187.1880  178.6580  135.2810 O   0  0  0  0  0  0  0  0  0  0  0  0
  185.0580  176.7740  136.4470 C   0  0  1  0  0  3  0  0  0  0  0  0
  186.2930  174.9100  137.2340 O   0  0  0  0  0  0  0  0  0  0  0  0
  185.1880  175.3690  136.9880 C   0  0  0  0  0  0  0  0  0  0  0  0
  183.9770  174.5200  137.2530 C   0  0  2  0  0  3  0  0  0  0  0  0
  183.3850  174.8830  138.4640 O   0  0  0  0  0  1  0  0  0  0  0  0
  185.0730  172.6570  138.2860 F   0  0  0  0  0  0  0  0  0  0  0  0
  184.2680  173.0200  137.2200 C   0  0  0  0  0  0  0  0  0  0  0  0
  183.0760  172.3240  137.3030 F   0  0  0  0  0  0  0  0  0  0  0  0
  184.8990  172.6840  136.0370 F   0  0  0  0  0  0  0  0  0  0  0  0
  183.7220  177.0550  136.1430 O   0  0  0  0  0  0  0  0  0  0  0  0
  183.6910  177.2000  134.7550 C   0  0  0  0  0  1  0  0  0  0  0  0
  1  4  1  6  0  0  0
  1 10  1  0  0  0  0
  1 15  1  0  0  0  0
  2  5  1  0  0  0  0
  5  6  1  0  0  0  0
  5  3  1  0  0  0  0
  6  3  1  0  0  0  0
  7 19  1  6  0  0  0
  7  8  1  0  0  0  0
  7 11  1  0  0  0  0
  8 17  1  6  0  0  0
  8  9  1  0  0  0  0
  9  4  1  0  0  0  0
 10  2  2  0  0  0  0
 11 14  1  0  0  0  0
 12 10  1  0  0  0  0
 12 13  2  0  0  0  0
 14 12  1  0  0  0  0
 15  5  1  0  0  0  0
 16 17  1  0  0  0  0
 18 17  2  0  0  0  0
 19 28  1  1  0  0  0
 19 21  1  0  0  0  0
 21 20  2  0  0  0  0
 21 22  1  0  0  0  0
 22 23  1  1  0  0  0
 25 22  1  0  0  0  0
 25 26  1  0  0  0  0
 25 24  1  0  0  0  0
 27 25  1  0  0  0  0
 29 28  1  0  0  0  0
M  END
>  <MODEL>
8

>  <REMARK>
 VINA RESULT:      -6.0      4.387      7.982
  Name = 
  6 active torsions:
  status: ('A' for Active; 'I' for Inactive)
    1  A    between atoms: C_7  and  C_8
    2  A    between atoms: C_7  and  C_14
    3  A    between atoms: C_8  and  C_13
    4  A    between atoms: C_10  and  C_13
    5  A    between atoms: O_11  and  C_13
    6  A    between atoms: C_15  and  C_24
                            x       y       z     vdW  Elec       q    Type
                         _______ _______ _______ _____ _____    ______ ____

>  <TORSDO>
F 6

$$$$
=
 OpenBabel11062416183D

 29 31  0  0  1  0  0  0  0  0999 V2000
  188.4630  176.1640  136.1120 C   0  0  1  0  0  3  0  0  0  0  0  0
  190.3040  177.1320  137.2780 C   0  0  0  0  0  3  0  0  0  0  0  0
  192.1030  175.3360  136.7310 C   0  0  0  0  0  2  0  0  0  0  0  0
  187.1840  175.5910  136.7360 C   0  0  0  0  0  2  0  0  0  0  0  0
  190.6650  175.7630  136.8840 C   0  0  0  0  0  0  0  0  0  0  0  0
  191.3030  174.9310  137.9680 C   0  0  0  0  0  2  0  0  0  0  0  0
  184.8850  177.6220  137.5850 C   0  0  2  0  0  3  0  0  0  0  0  0
  185.0250  176.1830  137.0320 C   0  0  2  0  0  3  0  0  0  0  0  0
  186.0510  176.0910  136.0690 O   0  0  0  0  0  0  0  0  0  0  0  0
  189.0610  177.3450  136.8720 C   0  0  0  0  0  0  0  0  0  0  0  0
  186.2480  178.1320  137.8890 C   0  0  0  0  0  2  0  0  0  0  0  0
  188.3950  178.6580  137.0340 C   0  0  0  0  0  0  0  0  0  0  0  0
  189.0550  179.7100  137.2430 O   0  0  0  0  0  0  0  0  0  0  0  0
  186.9480  178.7070  136.9260 C   0  0  0  0  0  2  0  0  0  0  0  0
  189.5500  175.0900  136.1280 C   0  0  0  0  0  2  0  0  0  0  0  0
  183.0570  174.4810  136.9510 C   0  0  0  0  0  1  0  0  0  0  0  0
  183.7370  175.7050  136.4320 C   0  0  0  0  0  0  0  0  0  0  0  0
  183.2190  176.3430  135.5310 O   0  0  0  0  0  0  0  0  0  0  0  0
  183.9520  177.6750  138.8090 C   0  0  1  0  0  3  0  0  0  0  0  0
  184.5560  179.8310  139.5880 O   0  0  0  0  0  0  0  0  0  0  0  0
  184.3690  178.6590  139.8780 C   0  0  0  0  0  0  0  0  0  0  0  0
  184.5400  178.2310  141.3070 C   0  0  2  0  0  3  0  0  0  0  0  0
  183.4400  178.6280  142.0690 O   0  0  0  0  0  1  0  0  0  0  0  0
  185.6830  180.0050  142.4420 F   0  0  0  0  0  0  0  0  0  0  0  0
  185.8420  178.7250  141.9370 C   0  0  0  0  0  0  0  0  0  0  0  0
  186.1970  177.8790  142.9710 F   0  0  0  0  0  0  0  0  0  0  0  0
  186.8550  178.7290  140.9960 F   0  0  0  0  0  0  0  0  0  0  0  0
  182.6360  177.9250  138.4060 O   0  0  0  0  0  0  0  0  0  0  0  0
  181.8480  177.1220  139.2340 C   0  0  0  0  0  1  0  0  0  0  0  0
  1 15  1  1  0  0  0
  1  4  1  0  0  0  0
  1 10  1  0  0  0  0
  3  5  1  0  0  0  0
  3  6  1  0  0  0  0
  5  2  1  0  0  0  0
  5  6  1  0  0  0  0
  7 11  1  0  0  0  0
  7 19  1  1  0  0  0
  8 17  1  6  0  0  0
  8  7  1  0  0  0  0
  9  4  1  0  0  0  0
  9  8  1  0  0  0  0
 10 12  1  0  0  0  0
 10  2  2  0  0  0  0
 12 13  2  0  0  0  0
 14 12  1  0  0  0  0
 14 11  1  0  0  0  0
 15  5  1  0  0  0  0
 17 16  1  0  0  0  0
 18 17  2  0  0  0  0
 19 28  1  6  0  0  0
 19 21  1  0  0  0  0
 20 21  2  0  0  0  0
 21 22  1  0  0  0  0
 22 25  1  0  0  0  0
 22 23  1  1  0  0  0
 25 24  1  0  0  0  0
 25 26  1  0  0  0  0
 27 25  1  0  0  0  0
 28 29  1  0  0  0  0
M  END
>  <MODEL>
9

>  <REMARK>
 VINA RESULT:      -5.7      4.504      7.922
  Name = 
  6 active torsions:
  status: ('A' for Active; 'I' for Inactive)
    1  A    between atoms: C_7  and  C_8
    2  A    between atoms: C_7  and  C_14
    3  A    between atoms: C_8  and  C_13
    4  A    between atoms: C_10  and  C_13
    5  A    between atoms: O_11  and  C_13
    6  A    between atoms: C_15  and  C_24
                            x       y       z     vdW  Elec       q    Type
                         _______ _______ _______ _____ _____    ______ ____

>  <TORSDO>
F 6

$$$$
