=
 OpenBabel11062416593D

 26 28  0  0  1  0  0  0  0  0999 V2000
  190.0180  177.7680  139.5260 C   0  0  2  0  0  3  0  0  0  0  0  0
  190.9950  177.6790  140.6300 N   0  0  0  0  0  0  0  0  0  0  0  0
  191.5420  178.1210  142.8670 O   0  0  0  0  0  0  0  0  0  0  0  0
  186.4110  178.7020  139.9860 N   0  0  0  0  0  0  0  0  0  0  0  0
  192.3730  177.2760  140.3300 C   0  0  0  0  0  2  0  0  0  0  0  0
  189.1990  178.0880  142.4220 C   0  0  1  0  0  3  0  0  0  0  0  0
  188.6410  178.1110  140.0000 C   0  0  0  0  0  0  0  0  0  0  0  0
  187.5190  178.3700  139.1770 N   0  0  0  0  0  0  0  0  0  0  0  0
  190.0040  176.4710  138.7100 C   0  0  0  0  0  2  0  0  0  0  0  0
  191.4000  175.8590  138.5170 C   0  0  0  0  0  2  0  0  0  0  0  0
  190.6410  177.9800  141.9970 C   0  0  0  0  0  0  0  0  0  0  0  0
  188.2980  178.2810  141.2450 C   0  0  0  0  0  0  0  0  0  0  0  0
  186.9290  178.6370  141.2970 N   0  0  0  0  0  2  0  0  0  0  0  0
  192.5240  176.8310  138.8740 C   0  0  2  0  0  3  0  0  0  0  0  0
  188.7850  176.8770  143.2070 C   0  0  0  0  0  0  0  0  0  0  0  0
  188.9010  175.7290  142.6950 O   0  0  0  0  0  0  0  0  0  0  0  0
  189.0230  176.9930  145.5940 N   0  0  0  0  0  2  0  0  0  0  0  0
  188.2370  177.0220  144.5670 C   0  0  0  0  0  0  0  0  0  0  0  0
  186.7840  177.2910  144.7730 C   0  0  0  0  0  2  0  0  0  0  0  0
  186.5650  177.9730  146.1090 C   0  0  0  0  0  1  0  0  0  0  0  0
  193.8090  176.1800  138.6880 N   0  0  0  0  0  2  0  0  0  0  0  0
  193.6300  175.1610  137.6660 C   0  0  0  0  0  2  0  0  0  0  0  0
  194.5340  173.9720  137.9520 C   0  0  0  0  0  2  0  0  0  0  0  0
  195.6630  174.3550  138.9020 C   0  0  0  0  0  2  0  0  0  0  0  0
  197.5920  175.3720  137.9240 O   0  0  0  0  0  1  0  0  0  0  0  0
  197.0220  174.1420  138.2540 C   0  0  0  0  0  2  0  0  0  0  0  0
  1  9  1  1  0  0  0
  1  7  1  0  0  0  0
  1  2  1  0  0  0  0
  2 11  1  0  0  0  0
  4 13  1  0  0  0  0
  5  2  1  0  0  0  0
  6 15  1  6  0  0  0
  7 12  2  0  0  0  0
  8  4  2  0  0  0  0
  8  7  1  0  0  0  0
 10  9  1  0  0  0  0
 10 14  1  0  0  0  0
 11  6  1  0  0  0  0
 11  3  2  0  0  0  0
 12 13  1  0  0  0  0
 12  6  1  0  0  0  0
 14 21  1  1  0  0  0
 14  5  1  0  0  0  0
 15 18  1  0  0  0  0
 16 15  2  0  0  0  0
 18 19  1  0  0  0  0
 18 17  2  0  0  0  0
 19 20  1  0  0  0  0
 22 23  1  0  0  0  0
 22 21  1  0  0  0  0
 23 24  1  0  0  0  0
 25 26  1  0  0  0  0
 26 24  1  0  0  0  0
M  END
>  <MODEL>
1

>  <REMARK>
 VINA RESULT:      -6.9      0.000      0.000
  Name = 
  8 active torsions:
  status: ('A' for Active; 'I' for Inactive)
    1  A    between atoms: N_1  and  C_24
    2  A    between atoms: N_1  and  C_26
    3  A    between atoms: C_2  and  C_15
    4  A    between atoms: C_2  and  C_17
    5  A    between atoms: C_3  and  C_13
    6  A    between atoms: C_3  and  C_14
    7  A    between atoms: C_6  and  C_14
    8  A    between atoms: C_17  and  C_24
                            x       y       z     vdW  Elec       q    Type
                         _______ _______ _______ _____ _____    ______ ____

>  <TORSDO>
F 8

$$$$
=
 OpenBabel11062416593D

 26 28  0  0  1  0  0  0  0  0999 V2000
  189.3640  177.4680  145.2950 C   0  0  2  0  0  3  0  0  0  0  0  0
  188.3850  177.2840  144.2050 N   0  0  0  0  0  0  0  0  0  0  0  0
  186.1810  176.8350  143.5410 O   0  0  0  0  0  0  0  0  0  0  0  0
  188.4280  177.9000  148.9050 N   0  0  0  0  0  0  0  0  0  0  0  0
  188.8700  177.1530  142.8270 C   0  0  0  0  0  2  0  0  0  0  0  0
  186.3810  177.6610  145.7690 C   0  0  1  0  0  3  0  0  0  0  0  0
  188.7140  177.6660  146.6280 C   0  0  0  0  0  0  0  0  0  0  0  0
  189.3810  177.7610  147.8730 N   0  0  0  0  0  0  0  0  0  0  0  0
  190.3160  178.6250  144.9780 C   0  0  0  0  0  2  0  0  0  0  0  0
  190.7220  178.6900  143.4970 C   0  0  0  0  0  2  0  0  0  0  0  0
  186.9630  177.2230  144.4500 C   0  0  0  0  0  0  0  0  0  0  0  0
  187.4290  177.7160  146.8340 C   0  0  0  0  0  0  0  0  0  0  0  0
  187.1940  177.8690  148.2220 N   0  0  0  0  0  2  0  0  0  0  0  0
  190.3750  177.4130  142.7350 C   0  0  2  0  0  3  0  0  0  0  0  0
  185.7000  178.9920  145.6340 C   0  0  0  0  0  0  0  0  0  0  0  0
  185.9930  179.9280  146.4280 O   0  0  0  0  0  0  0  0  0  0  0  0
  185.0100  179.8010  143.4810 N   0  0  0  0  0  2  0  0  0  0  0  0
  184.6880  179.2090  144.5850 C   0  0  0  0  0  0  0  0  0  0  0  0
  183.3060  178.6720  144.7440 C   0  0  0  0  0  2  0  0  0  0  0  0
  182.4600  179.0460  143.5430 C   0  0  0  0  0  1  0  0  0  0  0  0
  190.7670  177.5530  141.3430 N   0  0  0  0  0  2  0  0  0  0  0  0
  189.6960  176.9880  140.5380 C   0  0  0  0  0  2  0  0  0  0  0  0
  189.8460  177.4270  139.0900 C   0  0  0  0  0  2  0  0  0  0  0  0
  188.9900  178.6530  138.7940 C   0  0  0  0  0  2  0  0  0  0  0  0
  187.7140  179.3500  136.8980 O   0  0  0  0  0  1  0  0  0  0  0  0
  188.9950  178.9810  137.3100 C   0  0  0  0  0  2  0  0  0  0  0  0
  1  9  1  6  0  0  0
  1  7  1  0  0  0  0
  2 11  1  0  0  0  0
  2  1  1  0  0  0  0
  3 11  2  0  0  0  0
  5  2  1  0  0  0  0
  6 15  1  6  0  0  0
  6 12  1  0  0  0  0
  7 12  2  0  0  0  0
  7  8  1  0  0  0  0
  8  4  2  0  0  0  0
 10  9  1  0  0  0  0
 11  6  1  0  0  0  0
 12 13  1  0  0  0  0
 13  4  1  0  0  0  0
 14 21  1  6  0  0  0
 14  5  1  0  0  0  0
 14 10  1  0  0  0  0
 15 16  2  0  0  0  0
 17 18  2  0  0  0  0
 18 19  1  0  0  0  0
 18 15  1  0  0  0  0
 20 19  1  0  0  0  0
 22 21  1  0  0  0  0
 23 22  1  0  0  0  0
 24 23  1  0  0  0  0
 25 26  1  0  0  0  0
 26 24  1  0  0  0  0
M  END
>  <MODEL>
2

>  <REMARK>
 VINA RESULT:      -6.5      3.979      6.261
  Name = 
  8 active torsions:
  status: ('A' for Active; 'I' for Inactive)
    1  A    between atoms: N_1  and  C_24
    2  A    between atoms: N_1  and  C_26
    3  A    between atoms: C_2  and  C_15
    4  A    between atoms: C_2  and  C_17
    5  A    between atoms: C_3  and  C_13
    6  A    between atoms: C_3  and  C_14
    7  A    between atoms: C_6  and  C_14
    8  A    between atoms: C_17  and  C_24
                            x       y       z     vdW  Elec       q    Type
                         _______ _______ _______ _____ _____    ______ ____

>  <TORSDO>
F 8

$$$$
=
 OpenBabel11062416593D

 26 28  0  0  1  0  0  0  0  0999 V2000
  185.3650  178.0560  145.5780 C   0  0  2  0  0  3  0  0  0  0  0  0
  186.5710  177.4700  144.9590 N   0  0  0  0  0  0  0  0  0  0  0  0
  187.5960  176.4960  143.0880 O   0  0  0  0  0  0  0  0  0  0  0  0
  182.3000  179.0630  143.6590 N   0  0  0  0  0  0  0  0  0  0  0  0
  187.7200  177.1410  145.8100 C   0  0  0  0  0  2  0  0  0  0  0  0
  185.6630  177.7960  142.5780 C   0  0  1  0  0  3  0  0  0  0  0  0
  184.3140  178.4090  144.5740 C   0  0  0  0  0  0  0  0  0  0  0  0
  183.0130  178.8860  144.8640 N   0  0  0  0  0  2  0  0  0  0  0  0
  185.7330  179.2740  146.4320 C   0  0  0  0  0  2  0  0  0  0  0  0
  187.0460  179.0980  147.2100 C   0  0  0  0  0  2  0  0  0  0  0  0
  186.6570  177.2030  143.5430 C   0  0  0  0  0  0  0  0  0  0  0  0
  184.4320  178.2660  143.2850 C   0  0  0  0  0  0  0  0  0  0  0  0
  183.2220  178.6640  142.6680 N   0  0  0  0  0  0  0  0  0  0  0  0
  187.5220  177.6470  147.2410 C   0  0  2  0  0  3  0  0  0  0  0  0
  186.2820  178.9210  141.8010 C   0  0  0  0  0  0  0  0  0  0  0  0
  186.1940  180.1040  142.2320 O   0  0  0  0  0  0  0  0  0  0  0  0
  186.3330  178.6180  139.4180 N   0  0  0  0  0  2  0  0  0  0  0  0
  186.9870  178.6530  140.5340 C   0  0  0  0  0  0  0  0  0  0  0  0
  188.4710  178.5060  140.5100 C   0  0  0  0  0  2  0  0  0  0  0  0
  188.9160  177.9320  139.1780 C   0  0  0  0  0  1  0  0  0  0  0  0
  188.7740  177.5590  147.9730 N   0  0  0  0  0  2  0  0  0  0  0  0
  189.8410  177.4890  146.9880 C   0  0  0  0  0  2  0  0  0  0  0  0
  191.0170  176.7060  147.5500 C   0  0  0  0  0  2  0  0  0  0  0  0
  191.9060  176.1710  146.4330 C   0  0  0  0  0  2  0  0  0  0  0  0
  191.6960  175.8130  144.0800 O   0  0  0  0  0  1  0  0  0  0  0  0
  191.5130  176.7600  145.0880 C   0  0  0  0  0  2  0  0  0  0  0  0
  1  9  1  6  0  0  0
  2  1  1  0  0  0  0
  2  5  1  0  0  0  0
  3 11  2  0  0  0  0
  4  8  1  0  0  0  0
  5 14  1  0  0  0  0
  6 15  1  1  0  0  0
  6 12  1  0  0  0  0
  6 11  1  0  0  0  0
  7  8  1  0  0  0  0
  7  1  1  0  0  0  0
  9 10  1  0  0  0  0
 10 14  1  0  0  0  0
 11  2  1  0  0  0  0
 12  7  2  0  0  0  0
 13 12  1  0  0  0  0
 13  4  2  0  0  0  0
 14 21  1  1  0  0  0
 15 16  2  0  0  0  0
 17 18  2  0  0  0  0
 18 15  1  0  0  0  0
 19 18  1  0  0  0  0
 20 19  1  0  0  0  0
 22 23  1  0  0  0  0
 22 21  1  0  0  0  0
 24 23  1  0  0  0  0
 25 26  1  0  0  0  0
 26 24  1  0  0  0  0
M  END
>  <MODEL>
3

>  <REMARK>
 VINA RESULT:      -6.4      4.238      7.310
  Name = 
  8 active torsions:
  status: ('A' for Active; 'I' for Inactive)
    1  A    between atoms: N_1  and  C_24
    2  A    between atoms: N_1  and  C_26
    3  A    between atoms: C_2  and  C_15
    4  A    between atoms: C_2  and  C_17
    5  A    between atoms: C_3  and  C_13
    6  A    between atoms: C_3  and  C_14
    7  A    between atoms: C_6  and  C_14
    8  A    between atoms: C_17  and  C_24
                            x       y       z     vdW  Elec       q    Type
                         _______ _______ _______ _____ _____    ______ ____

>  <TORSDO>
F 8

$$$$
=
 OpenBabel11062416593D

 26 28  0  0  1  0  0  0  0  0999 V2000
  189.4250  177.4700  145.3750 C   0  0  2  0  0  3  0  0  0  0  0  0
  188.4800  177.2510  144.2610 N   0  0  0  0  0  0  0  0  0  0  0  0
  186.3030  176.7600  143.5420 O   0  0  0  0  0  0  0  0  0  0  0  0
  188.3790  177.9610  148.9470 N   0  0  0  0  0  0  0  0  0  0  0  0
  189.0070  177.1000  142.9000 C   0  0  0  0  0  2  0  0  0  0  0  0
  186.4270  177.6320  145.7580 C   0  0  1  0  0  3  0  0  0  0  0  0
  188.7330  177.6860  146.6840 C   0  0  0  0  0  0  0  0  0  0  0  0
  189.3630  177.8150  147.9460 N   0  0  0  0  0  0  0  0  0  0  0  0
  190.3710  178.6340  145.0620 C   0  0  0  0  0  2  0  0  0  0  0  0
  190.8190  178.6750  143.5930 C   0  0  0  0  0  2  0  0  0  0  0  0
  187.0530  177.1760  144.4650 C   0  0  0  0  0  0  0  0  0  0  0  0
  187.4430  177.7220  146.8520 C   0  0  0  0  0  0  0  0  0  0  0  0
  187.1660  177.9000  148.2290 N   0  0  0  0  0  2  0  0  0  0  0  0
  190.5110  177.3780  142.8460 C   0  0  2  0  0  3  0  0  0  0  0  0
  185.7340  178.9510  145.5770 C   0  0  0  0  0  0  0  0  0  0  0  0
  186.0320  179.9230  146.3240 O   0  0  0  0  0  0  0  0  0  0  0  0
  184.9880  179.7040  143.4210 N   0  0  0  0  0  2  0  0  0  0  0  0
  184.7020  179.1140  144.5370 C   0  0  0  0  0  0  0  0  0  0  0  0
  183.3440  178.5260  144.7190 C   0  0  0  0  0  2  0  0  0  0  0  0
  182.4100  179.0240  143.6330 C   0  0  0  0  0  1  0  0  0  0  0  0
  190.9410  177.4970  141.4640 N   0  0  0  0  0  2  0  0  0  0  0  0
  189.8700  176.9670  140.6350 C   0  0  0  0  0  2  0  0  0  0  0  0
  189.7800  177.7530  139.3360 C   0  0  0  0  0  2  0  0  0  0  0  0
  189.5660  176.8250  138.1460 C   0  0  0  0  0  2  0  0  0  0  0  0
  190.9330  174.8670  138.0550 O   0  0  0  0  0  1  0  0  0  0  0  0
  190.8790  176.2110  137.6850 C   0  0  0  0  0  2  0  0  0  0  0  0
  1  9  1  6  0  0  0
  1  7  1  0  0  0  0
  2 11  1  0  0  0  0
  2  1  1  0  0  0  0
  3 11  2  0  0  0  0
  5  2  1  0  0  0  0
  6 15  1  6  0  0  0
  6 12  1  0  0  0  0
  7 12  2  0  0  0  0
  7  8  1  0  0  0  0
  8  4  2  0  0  0  0
 10  9  1  0  0  0  0
 11  6  1  0  0  0  0
 12 13  1  0  0  0  0
 13  4  1  0  0  0  0
 14 21  1  6  0  0  0
 14  5  1  0  0  0  0
 14 10  1  0  0  0  0
 15 16  2  0  0  0  0
 17 18  2  0  0  0  0
 18 19  1  0  0  0  0
 18 15  1  0  0  0  0
 20 19  1  0  0  0  0
 22 21  1  0  0  0  0
 23 22  1  0  0  0  0
 24 23  1  0  0  0  0
 26 25  1  0  0  0  0
 26 24  1  0  0  0  0
M  END
>  <MODEL>
4

>  <REMARK>
 VINA RESULT:      -6.2      3.200      5.838
  Name = 
  8 active torsions:
  status: ('A' for Active; 'I' for Inactive)
    1  A    between atoms: N_1  and  C_24
    2  A    between atoms: N_1  and  C_26
    3  A    between atoms: C_2  and  C_15
    4  A    between atoms: C_2  and  C_17
    5  A    between atoms: C_3  and  C_13
    6  A    between atoms: C_3  and  C_14
    7  A    between atoms: C_6  and  C_14
    8  A    between atoms: C_17  and  C_24
                            x       y       z     vdW  Elec       q    Type
                         _______ _______ _______ _____ _____    ______ ____

>  <TORSDO>
F 8

$$$$
=
 OpenBabel11062416593D

 26 28  0  0  1  0  0  0  0  0999 V2000
  190.5580  177.3570  141.6590 C   0  0  2  0  0  3  0  0  0  0  0  0
  189.1910  177.6780  141.2000 N   0  0  0  0  0  0  0  0  0  0  0  0
  187.7710  178.4210  139.4880 O   0  0  0  0  0  0  0  0  0  0  0  0
  193.5150  177.0240  139.3710 N   0  0  0  0  0  0  0  0  0  0  0  0
  188.1080  177.7550  142.1870 C   0  0  0  0  0  2  0  0  0  0  0  0
  189.8580  177.5580  138.7210 C   0  0  1  0  0  3  0  0  0  0  0  0
  191.5320  177.2360  140.5300 C   0  0  0  0  0  0  0  0  0  0  0  0
  192.9290  177.0430  140.6550 N   0  0  0  0  0  2  0  0  0  0  0  0
  190.5570  176.0860  142.5140 C   0  0  0  0  0  2  0  0  0  0  0  0
  189.3370  175.9790  143.4440 C   0  0  0  0  0  2  0  0  0  0  0  0
  188.8840  177.9250  139.8110 C   0  0  0  0  0  0  0  0  0  0  0  0
  191.2350  177.3560  139.2680 C   0  0  0  0  0  0  0  0  0  0  0  0
  192.4200  177.2230  138.5050 N   0  0  0  0  0  0  0  0  0  0  0  0
  188.5760  177.2980  143.5700 C   0  0  2  0  0  3  0  0  0  0  0  0
  189.3990  176.3300  137.9900 C   0  0  0  0  0  0  0  0  0  0  0  0
  189.9260  175.2130  138.2490 O   0  0  0  0  0  0  0  0  0  0  0  0
  187.3130  175.6420  137.0190 N   0  0  0  0  0  2  0  0  0  0  0  0
  188.3420  176.4240  136.9670 C   0  0  0  0  0  0  0  0  0  0  0  0
  188.4010  177.4760  135.9120 C   0  0  0  0  0  2  0  0  0  0  0  0
  187.2270  178.4260  136.0560 C   0  0  0  0  0  1  0  0  0  0  0  0
  187.4300  177.1180  144.4440 N   0  0  0  0  0  2  0  0  0  0  0  0
  187.7120  177.8390  145.6750 C   0  0  0  0  0  2  0  0  0  0  0  0
  189.2090  177.8540  145.9380 C   0  0  0  0  0  2  0  0  0  0  0  0
  189.5720  176.9490  147.1100 C   0  0  0  0  0  2  0  0  0  0  0  0
  191.6820  177.2310  146.0240 O   0  0  0  0  0  1  0  0  0  0  0  0
  191.0580  176.6290  147.1170 C   0  0  0  0  0  2  0  0  0  0  0  0
  1  9  1  6  0  0  0
  2  1  1  0  0  0  0
  2  5  1  0  0  0  0
  3 11  2  0  0  0  0
  4  8  1  0  0  0  0
  5 14  1  0  0  0  0
  6 15  1  1  0  0  0
  6 12  1  0  0  0  0
  6 11  1  0  0  0  0
  7  8  1  0  0  0  0
  7  1  1  0  0  0  0
  9 10  1  0  0  0  0
 10 14  1  0  0  0  0
 11  2  1  0  0  0  0
 12  7  2  0  0  0  0
 13 12  1  0  0  0  0
 13  4  2  0  0  0  0
 14 21  1  1  0  0  0
 15 16  2  0  0  0  0
 18 17  2  0  0  0  0
 18 15  1  0  0  0  0
 19 20  1  0  0  0  0
 19 18  1  0  0  0  0
 21 22  1  0  0  0  0
 22 23  1  0  0  0  0
 23 24  1  0  0  0  0
 24 26  1  0  0  0  0
 25 26  1  0  0  0  0
M  END
>  <MODEL>
5

>  <REMARK>
 VINA RESULT:      -6.2      3.079      7.075
  Name = 
  8 active torsions:
  status: ('A' for Active; 'I' for Inactive)
    1  A    between atoms: N_1  and  C_24
    2  A    between atoms: N_1  and  C_26
    3  A    between atoms: C_2  and  C_15
    4  A    between atoms: C_2  and  C_17
    5  A    between atoms: C_3  and  C_13
    6  A    between atoms: C_3  and  C_14
    7  A    between atoms: C_6  and  C_14
    8  A    between atoms: C_17  and  C_24
                            x       y       z     vdW  Elec       q    Type
                         _______ _______ _______ _____ _____    ______ ____

>  <TORSDO>
F 8

$$$$
=
 OpenBabel11062416593D

 26 28  0  0  1  0  0  0  0  0999 V2000
  184.6610  179.0630  141.8690 C   0  0  2  0  0  3  0  0  0  0  0  0
  183.2900  179.0030  142.4150 N   0  0  0  0  0  0  0  0  0  0  0  0
  180.9760  179.0050  142.0360 O   0  0  0  0  0  0  0  0  0  0  0  0
  185.4860  178.6810  138.2270 N   0  0  0  0  0  0  0  0  0  0  0  0
  183.0940  179.1390  143.8630 C   0  0  0  0  0  2  0  0  0  0  0  0
  182.2760  178.3610  140.1430 C   0  0  1  0  0  3  0  0  0  0  0  0
  184.7040  178.8290  140.3920 C   0  0  0  0  0  0  0  0  0  0  0  0
  185.8510  178.9290  139.5680 N   0  0  0  0  0  2  0  0  0  0  0  0
  185.5800  178.0810  142.6020 C   0  0  0  0  0  2  0  0  0  0  0  0
  185.3060  178.0040  144.1130 C   0  0  0  0  0  2  0  0  0  0  0  0
  182.1330  178.8190  141.5720 C   0  0  0  0  0  0  0  0  0  0  0  0
  183.6720  178.5590  139.6460 C   0  0  0  0  0  0  0  0  0  0  0  0
  184.0970  178.4470  138.3000 N   0  0  0  0  0  0  0  0  0  0  0  0
  184.4290  179.1510  144.6110 C   0  0  2  0  0  3  0  0  0  0  0  0
  181.8690  176.9230  140.0030 C   0  0  0  0  0  0  0  0  0  0  0  0
  182.7180  176.0100  140.1940 O   0  0  0  0  0  0  0  0  0  0  0  0
  179.6700  177.4840  139.2140 N   0  0  0  0  0  2  0  0  0  0  0  0
  180.4840  176.5720  139.6370 C   0  0  0  0  0  0  0  0  0  0  0  0
  180.0300  175.1520  139.6670 C   0  0  0  0  0  2  0  0  0  0  0  0
  179.3060  174.8630  140.9670 C   0  0  0  0  0  1  0  0  0  0  0  0
  184.1950  179.0030  146.0380 N   0  0  0  0  0  2  0  0  0  0  0  0
  185.1390  178.0090  146.5250 C   0  0  0  0  0  2  0  0  0  0  0  0
  186.2680  178.6920  147.2810 C   0  0  0  0  0  2  0  0  0  0  0  0
  187.5460  177.8630  147.2270 C   0  0  0  0  0  2  0  0  0  0  0  0
  189.7420  177.8780  148.1690 O   0  0  0  0  0  1  0  0  0  0  0  0
  188.3950  178.0810  148.4690 C   0  0  0  0  0  2  0  0  0  0  0  0
  1  2  1  0  0  0  0
  1  9  1  1  0  0  0
  2  5  1  0  0  0  0
  4 13  2  0  0  0  0
  4  8  1  0  0  0  0
  5 14  1  0  0  0  0
  6 15  1  1  0  0  0
  6 11  1  0  0  0  0
  7  1  1  0  0  0  0
  8  7  1  0  0  0  0
  9 10  1  0  0  0  0
 10 14  1  0  0  0  0
 11  3  2  0  0  0  0
 11  2  1  0  0  0  0
 12  6  1  0  0  0  0
 12  7  2  0  0  0  0
 13 12  1  0  0  0  0
 14 21  1  1  0  0  0
 15 16  2  0  0  0  0
 17 18  2  0  0  0  0
 18 19  1  0  0  0  0
 18 15  1  0  0  0  0
 19 20  1  0  0  0  0
 21 22  1  0  0  0  0
 22 23  1  0  0  0  0
 24 23  1  0  0  0  0
 24 26  1  0  0  0  0
 25 26  1  0  0  0  0
M  END
>  <MODEL>
6

>  <REMARK>
 VINA RESULT:      -6.1      6.833      9.213
  Name = 
  8 active torsions:
  status: ('A' for Active; 'I' for Inactive)
    1  A    between atoms: N_1  and  C_24
    2  A    between atoms: N_1  and  C_26
    3  A    between atoms: C_2  and  C_15
    4  A    between atoms: C_2  and  C_17
    5  A    between atoms: C_3  and  C_13
    6  A    between atoms: C_3  and  C_14
    7  A    between atoms: C_6  and  C_14
    8  A    between atoms: C_17  and  C_24
                            x       y       z     vdW  Elec       q    Type
                         _______ _______ _______ _____ _____    ______ ____

>  <TORSDO>
F 8

$$$$
=
 OpenBabel11062416593D

 26 28  0  0  1  0  0  0  0  0999 V2000
  190.8450  177.4980  140.7830 C   0  0  2  0  0  3  0  0  0  0  0  0
  189.4290  177.7420  140.4390 N   0  0  0  0  0  0  0  0  0  0  0  0
  187.8040  178.1600  138.8010 O   0  0  0  0  0  0  0  0  0  0  0  0
  193.5080  176.6970  138.2620 N   0  0  0  0  0  0  0  0  0  0  0  0
  188.4730  178.0200  141.5170 C   0  0  0  0  0  2  0  0  0  0  0  0
  189.7930  177.1400  137.9680 C   0  0  1  0  0  3  0  0  0  0  0  0
  191.6770  177.1510  139.5890 C   0  0  0  0  0  0  0  0  0  0  0  0
  193.0810  176.9680  139.5790 N   0  0  0  0  0  2  0  0  0  0  0  0
  190.9610  176.4150  141.8600 C   0  0  0  0  0  2  0  0  0  0  0  0
  189.8650  176.5030  142.9330 C   0  0  0  0  0  2  0  0  0  0  0  0
  188.9530  177.7220  139.0770 C   0  0  0  0  0  0  0  0  0  0  0  0
  191.2280  177.0300  138.3730 C   0  0  0  0  0  0  0  0  0  0  0  0
  192.3130  176.7400  137.5120 N   0  0  0  0  0  0  0  0  0  0  0  0
  189.1100  177.8300  142.8960 C   0  0  2  0  0  3  0  0  0  0  0  0
  189.2630  175.8010  137.5460 C   0  0  0  0  0  0  0  0  0  0  0  0
  189.8070  174.7480  137.9780 O   0  0  0  0  0  0  0  0  0  0  0  0
  187.2040  174.8090  136.8060 N   0  0  0  0  0  2  0  0  0  0  0  0
  188.1150  175.7100  136.6260 C   0  0  0  0  0  0  0  0  0  0  0  0
  187.9420  176.7060  135.5300 C   0  0  0  0  0  2  0  0  0  0  0  0
  186.4860  177.1160  135.4220 C   0  0  0  0  0  1  0  0  0  0  0  0
  188.0790  177.8350  143.9190 N   0  0  0  0  0  2  0  0  0  0  0  0
  188.6640  177.2560  145.1180 C   0  0  0  0  0  2  0  0  0  0  0  0
  187.9430  177.7760  146.3520 C   0  0  0  0  0  2  0  0  0  0  0  0
  186.4400  177.5420  146.2510 C   0  0  0  0  0  2  0  0  0  0  0  0
  184.5450  178.9970  146.1980 O   0  0  0  0  0  1  0  0  0  0  0  0
  185.6640  178.6450  146.9530 C   0  0  0  0  0  2  0  0  0  0  0  0
  1  9  1  1  0  0  0
  2  1  1  0  0  0  0
  2  5  1  0  0  0  0
  3 11  2  0  0  0  0
  4  8  1  0  0  0  0
  5 14  1  0  0  0  0
  6 15  1  1  0  0  0
  6 12  1  0  0  0  0
  6 11  1  0  0  0  0
  7  1  1  0  0  0  0
  8  7  1  0  0  0  0
  9 10  1  0  0  0  0
 11  2  1  0  0  0  0
 12  7  2  0  0  0  0
 13  4  2  0  0  0  0
 13 12  1  0  0  0  0
 14 10  1  0  0  0  0
 14 21  1  1  0  0  0
 15 16  2  0  0  0  0
 18 17  2  0  0  0  0
 18 15  1  0  0  0  0
 19 18  1  0  0  0  0
 20 19  1  0  0  0  0
 21 22  1  0  0  0  0
 22 23  1  0  0  0  0
 24 23  1  0  0  0  0
 24 26  1  0  0  0  0
 25 26  1  0  0  0  0
M  END
>  <MODEL>
7

>  <REMARK>
 VINA RESULT:      -6.0      3.116      7.905
  Name = 
  8 active torsions:
  status: ('A' for Active; 'I' for Inactive)
    1  A    between atoms: N_1  and  C_24
    2  A    between atoms: N_1  and  C_26
    3  A    between atoms: C_2  and  C_15
    4  A    between atoms: C_2  and  C_17
    5  A    between atoms: C_3  and  C_13
    6  A    between atoms: C_3  and  C_14
    7  A    between atoms: C_6  and  C_14
    8  A    between atoms: C_17  and  C_24
                            x       y       z     vdW  Elec       q    Type
                         _______ _______ _______ _____ _____    ______ ____

>  <TORSDO>
F 8

$$$$
=
 OpenBabel11062416593D

 26 28  0  0  1  0  0  0  0  0999 V2000
  187.4150  177.2990  142.3460 C   0  0  2  0  0  3  0  0  0  0  0  0
  186.7100  177.4200  143.6380 N   0  0  0  0  0  0  0  0  0  0  0  0
  186.6090  176.9150  145.9250 O   0  0  0  0  0  0  0  0  0  0  0  0
  190.9220  176.0100  141.9830 N   0  0  0  0  0  0  0  0  0  0  0  0
  185.3480  177.9650  143.6570 C   0  0  0  0  0  2  0  0  0  0  0  0
  188.7940  176.7530  144.9840 C   0  0  1  0  0  3  0  0  0  0  0  0
  188.8190  176.8040  142.4990 C   0  0  0  0  0  0  0  0  0  0  0  0
  189.7070  176.4850  141.4440 N   0  0  0  0  0  0  0  0  0  0  0  0
  187.3870  178.6290  141.5870 C   0  0  0  0  0  2  0  0  0  0  0  0
  186.0520  179.3780  141.7200 C   0  0  0  0  0  2  0  0  0  0  0  0
  187.3140  177.0170  144.8860 C   0  0  0  0  0  0  0  0  0  0  0  0
  189.4000  176.5390  143.6340 C   0  0  0  0  0  0  0  0  0  0  0  0
  190.7050  176.0540  143.3770 N   0  0  0  0  0  2  0  0  0  0  0  0
  184.9370  178.4980  142.2820 C   0  0  2  0  0  3  0  0  0  0  0  0
  189.4880  177.8770  145.6970 C   0  0  0  0  0  0  0  0  0  0  0  0
  189.8800  178.8850  145.0460 O   0  0  0  0  0  0  0  0  0  0  0  0
  190.6920  177.0990  147.6240 N   0  0  0  0  0  2  0  0  0  0  0  0
  189.7190  177.8080  147.1510 C   0  0  0  0  0  0  0  0  0  0  0  0
  188.8920  178.6210  148.0880 C   0  0  0  0  0  2  0  0  0  0  0  0
  187.9330  177.7250  148.8480 C   0  0  0  0  0  1  0  0  0  0  0  0
  183.7140  179.2740  142.4000 N   0  0  0  0  0  2  0  0  0  0  0  0
  183.1970  179.0580  143.7420 C   0  0  0  0  0  2  0  0  0  0  0  0
  181.6800  178.9610  143.7060 C   0  0  0  0  0  2  0  0  0  0  0  0
  181.1590  179.0160  142.2750 C   0  0  0  0  0  2  0  0  0  0  0  0
  179.0950  178.2820  143.2300 O   0  0  0  0  0  1  0  0  0  0  0  0
  179.9170  178.1550  142.1100 C   0  0  0  0  0  2  0  0  0  0  0  0
  1  9  1  1  0  0  0
  1  7  1  0  0  0  0
  1  2  1  0  0  0  0
  2  5  1  0  0  0  0
  2 11  1  0  0  0  0
  4 13  1  0  0  0  0
  6 15  1  6  0  0  0
  7 12  2  0  0  0  0
  8  4  2  0  0  0  0
  8  7  1  0  0  0  0
  9 10  1  0  0  0  0
 10 14  1  0  0  0  0
 11  6  1  0  0  0  0
 11  3  2  0  0  0  0
 12  6  1  0  0  0  0
 13 12  1  0  0  0  0
 14 21  1  1  0  0  0
 14  5  1  0  0  0  0
 15 18  1  0  0  0  0
 16 15  2  0  0  0  0
 18 17  2  0  0  0  0
 18 19  1  0  0  0  0
 19 20  1  0  0  0  0
 21 22  1  0  0  0  0
 23 22  1  0  0  0  0
 24 23  1  0  0  0  0
 26 24  1  0  0  0  0
 26 25  1  0  0  0  0
M  END
>  <MODEL>
8

>  <REMARK>
 VINA RESULT:      -5.9      4.768      8.595
  Name = 
  8 active torsions:
  status: ('A' for Active; 'I' for Inactive)
    1  A    between atoms: N_1  and  C_24
    2  A    between atoms: N_1  and  C_26
    3  A    between atoms: C_2  and  C_15
    4  A    between atoms: C_2  and  C_17
    5  A    between atoms: C_3  and  C_13
    6  A    between atoms: C_3  and  C_14
    7  A    between atoms: C_6  and  C_14
    8  A    between atoms: C_17  and  C_24
                            x       y       z     vdW  Elec       q    Type
                         _______ _______ _______ _____ _____    ______ ____

>  <TORSDO>
F 8

$$$$
=
 OpenBabel11062416593D

 26 28  0  0  1  0  0  0  0  0999 V2000
  190.4540  177.4070  140.8940 C   0  0  2  0  0  3  0  0  0  0  0  0
  189.1370  177.4380  140.2270 N   0  0  0  0  0  0  0  0  0  0  0  0
  187.8940  177.5630  138.2430 O   0  0  0  0  0  0  0  0  0  0  0  0
  193.7060  176.8880  139.0920 N   0  0  0  0  0  0  0  0  0  0  0  0
  187.9300  177.6210  141.0420 C   0  0  0  0  0  2  0  0  0  0  0  0
  190.1330  176.7990  137.9460 C   0  0  1  0  0  3  0  0  0  0  0  0
  191.5760  177.1340  139.9430 C   0  0  0  0  0  0  0  0  0  0  0  0
  192.9560  177.1480  140.2590 N   0  0  0  0  0  2  0  0  0  0  0  0
  190.4560  176.3920  142.0420 C   0  0  0  0  0  2  0  0  0  0  0  0
  189.1390  176.3680  142.8340 C   0  0  0  0  0  2  0  0  0  0  0  0
  188.9940  177.3000  138.7970 C   0  0  0  0  0  0  0  0  0  0  0  0
  191.4380  176.9050  138.6680 C   0  0  0  0  0  0  0  0  0  0  0  0
  192.7210  176.7360  138.0930 N   0  0  0  0  0  0  0  0  0  0  0  0
  188.2510  177.5750  142.5380 C   0  0  2  0  0  3  0  0  0  0  0  0
  189.8890  175.3840  137.5100 C   0  0  0  0  0  0  0  0  0  0  0  0
  190.5710  174.4480  138.0100 O   0  0  0  0  0  0  0  0  0  0  0  0
  188.8720  175.6920  135.3560 N   0  0  0  0  0  2  0  0  0  0  0  0
  188.8610  175.0830  136.4970 C   0  0  0  0  0  0  0  0  0  0  0  0
  187.8500  174.0140  136.7400 C   0  0  0  0  0  2  0  0  0  0  0  0
  186.4530  174.6050  136.7300 C   0  0  0  0  0  1  0  0  0  0  0  0
  187.0200  177.4760  143.3030 N   0  0  0  0  0  2  0  0  0  0  0  0
  186.1210  178.5040  142.8040 C   0  0  0  0  0  2  0  0  0  0  0  0
  184.6850  178.1610  143.1660 C   0  0  0  0  0  2  0  0  0  0  0  0
  184.1530  179.0910  144.2500 C   0  0  0  0  0  2  0  0  0  0  0  0
  184.3630  178.6940  146.5970 O   0  0  0  0  0  1  0  0  0  0  0  0
  185.0680  179.0990  145.4640 C   0  0  0  0  0  2  0  0  0  0  0  0
  1  9  1  1  0  0  0
  2  1  1  0  0  0  0
  2  5  1  0  0  0  0
  3 11  2  0  0  0  0
  4  8  1  0  0  0  0
  5 14  1  0  0  0  0
  6 15  1  1  0  0  0
  6 12  1  0  0  0  0
  6 11  1  0  0  0  0
  7  8  1  0  0  0  0
  7  1  1  0  0  0  0
  9 10  1  0  0  0  0
 11  2  1  0  0  0  0
 12  7  2  0  0  0  0
 13 12  1  0  0  0  0
 13  4  2  0  0  0  0
 14 10  1  0  0  0  0
 14 21  1  1  0  0  0
 15 16  2  0  0  0  0
 17 18  2  0  0  0  0
 18 19  1  0  0  0  0
 18 15  1  0  0  0  0
 20 19  1  0  0  0  0
 22 23  1  0  0  0  0
 22 21  1  0  0  0  0
 23 24  1  0  0  0  0
 24 26  1  0  0  0  0
 26 25  1  0  0  0  0
M  END
>  <MODEL>
9

>  <REMARK>
 VINA RESULT:      -5.8      3.153      8.116
  Name = 
  8 active torsions:
  status: ('A' for Active; 'I' for Inactive)
    1  A    between atoms: N_1  and  C_24
    2  A    between atoms: N_1  and  C_26
    3  A    between atoms: C_2  and  C_15
    4  A    between atoms: C_2  and  C_17
    5  A    between atoms: C_3  and  C_13
    6  A    between atoms: C_3  and  C_14
    7  A    between atoms: C_6  and  C_14
    8  A    between atoms: C_17  and  C_24
                            x       y       z     vdW  Elec       q    Type
                         _______ _______ _______ _____ _____    ______ ____

>  <TORSDO>
F 8

$$$$
