=
 OpenBabel11062416583D

 26 28  0  0  1  0  0  0  0  0999 V2000
  182.8600  178.9080  143.4860 C   0  0  0  0  0  0  0  0  0  0  0  0
  181.6120  178.9740  141.0540 N   0  0  0  0  0  0  0  0  0  0  0  0
  182.9290  178.6430  141.1000 C   0  0  0  0  0  3  0  0  0  0  0  0
  181.5450  179.2330  143.3970 N   0  0  0  0  0  0  0  0  0  0  0  0
  183.5060  178.8700  144.7180 C   0  0  0  0  0  3  0  0  0  0  0  0
  184.9010  178.2770  142.4100 N   0  0  0  0  0  0  0  0  0  0  0  0
  186.9470  177.8800  143.6230 N   0  0  0  0  0  2  0  0  0  0  0  0
  184.8660  178.5330  144.8030 C   0  0  0  0  0  0  0  0  0  0  0  0
  185.5600  178.2330  143.6030 C   0  0  0  0  0  0  0  0  0  0  0  0
  183.5860  178.6040  142.3270 C   0  0  0  0  0  0  0  0  0  0  0  0
  180.9210  179.2670  142.1890 C   0  0  0  0  0  3  0  0  0  0  0  0
  185.6440  179.6950  146.9240 N   0  0  0  0  0  1  0  0  0  0  0  0
  185.5000  178.5100  146.1460 C   0  0  0  0  0  0  0  0  0  0  0  0
  185.9250  177.4230  146.6200 O   0  0  0  0  0  0  0  0  0  0  0  0
  187.7070  177.5900  142.4180 C   0  0  1  0  0  3  0  0  0  0  0  0
  187.7900  178.7410  141.6310 O   0  0  0  0  0  1  0  0  0  0  0  0
  189.1010  177.1240  142.8050 C   0  0  0  0  0  2  0  0  0  0  0  0
  189.8710  178.2270  143.5210 C   0  0  0  0  0  2  0  0  0  0  0  0
  189.3260  178.0170  145.9550 C   0  0  0  0  0  2  0  0  0  0  0  0
  190.7910  176.2970  144.7860 C   0  0  0  0  0  2  0  0  0  0  0  0
  190.3850  177.7600  144.8750 C   0  0  1  0  0  3  0  0  0  0  0  0
  191.6240  175.9270  147.1490 C   0  0  0  0  0  2  0  0  0  0  0  0
  188.5900  178.0750  148.5520 Cl  0  0  0  0  0  0  0  0  0  0  0  0
  189.5380  177.2750  147.2790 C   0  0  2  0  0  3  0  0  0  0  0  0
  191.0000  177.2030  147.6990 C   0  0  0  0  0  2  0  0  0  0  0  0
  192.0030  176.0540  145.6770 C   0  0  0  0  0  2  0  0  0  0  0  0
  1  5  1  0  0  0  0
  2  3  2  0  0  0  0
  2 11  1  0  0  0  0
  3 10  1  0  0  0  0
  4  1  1  0  0  0  0
  5  8  2  0  0  0  0
  6  9  2  0  0  0  0
  8 13  1  0  0  0  0
  9  7  1  0  0  0  0
  9  8  1  0  0  0  0
 10  6  1  0  0  0  0
 10  1  2  0  0  0  0
 11  4  2  0  0  0  0
 13 14  2  0  0  0  0
 13 12  1  0  0  0  0
 15 16  1  6  0  0  0
 15 17  1  0  0  0  0
 15  7  1  0  0  0  0
 17 18  1  0  0  0  0
 19 24  1  0  0  0  0
 20 21  1  0  0  0  0
 20 26  1  0  0  0  0
 21 18  1  6  0  0  0
 21 19  1  0  0  0  0
 22 25  1  0  0  0  0
 24 25  1  0  0  0  0
 24 23  1  1  0  0  0
 26 22  1  0  0  0  0
M  END
>  <MODEL>
1

>  <REMARK>
 VINA RESULT:      -8.8      0.000      0.000
  Name = 
  5 active torsions:
  status: ('A' for Active; 'I' for Inactive)
    1  A    between atoms: C_7  and  C_14
    2  A    between atoms: C_7  and  C_19
    3  A    between atoms: C_11  and  C_13
    4  A    between atoms: N_12  and  C_23
    5  A    between atoms: C_19  and  C_23
                            x       y       z     vdW  Elec       q    Type
                         _______ _______ _______ _____ _____    ______ ____

>  <TORSDO>
F 5

$$$$
=
 OpenBabel11062416583D

 26 28  0  0  1  0  0  0  0  0999 V2000
  184.9860  178.6570  140.6760 C   0  0  0  0  0  0  0  0  0  0  0  0
  187.5130  178.4850  139.6450 N   0  0  0  0  0  0  0  0  0  0  0  0
  187.3650  178.5810  140.9920 C   0  0  0  0  0  3  0  0  0  0  0  0
  185.1750  178.5600  139.3350 N   0  0  0  0  0  0  0  0  0  0  0  0
  183.7040  178.7430  141.2110 C   0  0  0  0  0  3  0  0  0  0  0  0
  185.9030  178.7660  142.8810 N   0  0  0  0  0  0  0  0  0  0  0  0
  184.5340  178.9500  144.8570 N   0  0  0  0  0  2  0  0  0  0  0  0
  183.5140  178.8430  142.5990 C   0  0  0  0  0  0  0  0  0  0  0  0
  184.6610  178.8530  143.4350 C   0  0  0  0  0  0  0  0  0  0  0  0
  186.0880  178.6700  141.5400 C   0  0  0  0  0  0  0  0  0  0  0  0
  186.4310  178.4750  138.8190 C   0  0  0  0  0  3  0  0  0  0  0  0
  181.0510  179.3820  142.2870 N   0  0  0  0  0  1  0  0  0  0  0  0
  182.1240  178.9330  143.1110 C   0  0  0  0  0  0  0  0  0  0  0  0
  181.8720  178.6080  144.3030 O   0  0  0  0  0  0  0  0  0  0  0  0
  185.6790  178.9900  145.7520 C   0  0  1  0  0  3  0  0  0  0  0  0
  185.2660  179.4060  147.0190 O   0  0  0  0  0  1  0  0  0  0  0  0
  186.2960  177.6030  145.8380 C   0  0  0  0  0  2  0  0  0  0  0  0
  187.4210  177.5620  146.8640 C   0  0  0  0  0  2  0  0  0  0  0  0
  189.7840  176.7590  147.0560 C   0  0  0  0  0  2  0  0  0  0  0  0
  188.6540  176.9790  144.7870 C   0  0  0  0  0  2  0  0  0  0  0  0
  188.7870  177.5440  146.1940 C   0  0  1  0  0  3  0  0  0  0  0  0
  191.0560  177.1700  144.0080 C   0  0  0  0  0  2  0  0  0  0  0  0
  192.3070  175.9540  147.5780 Cl  0  0  0  0  0  0  0  0  0  0  0  0
  191.0790  176.3400  146.3530 C   0  0  2  0  0  3  0  0  0  0  0  0
  191.6190  177.4020  145.4050 C   0  0  0  0  0  2  0  0  0  0  0  0
  189.6310  177.6940  143.8620 C   0  0  0  0  0  2  0  0  0  0  0  0
  1  5  1  0  0  0  0
  1 10  1  0  0  0  0
  2  3  1  0  0  0  0
  3 10  2  0  0  0  0
  4  1  2  0  0  0  0
  5  8  2  0  0  0  0
  6  9  2  0  0  0  0
  7 15  1  0  0  0  0
  8 13  1  0  0  0  0
  8  9  1  0  0  0  0
  9  7  1  0  0  0  0
 10  6  1  0  0  0  0
 11  4  1  0  0  0  0
 11  2  2  0  0  0  0
 12 13  1  0  0  0  0
 13 14  2  0  0  0  0
 15 17  1  0  0  0  0
 15 16  1  1  0  0  0
 17 18  1  0  0  0  0
 20 21  1  0  0  0  0
 21 18  1  1  0  0  0
 21 19  1  0  0  0  0
 22 25  1  0  0  0  0
 24 19  1  0  0  0  0
 24 23  1  1  0  0  0
 25 24  1  0  0  0  0
 26 22  1  0  0  0  0
 26 20  1  0  0  0  0
M  END
>  <MODEL>
2

>  <REMARK>
 VINA RESULT:      -8.6      2.198      4.011
  Name = 
  5 active torsions:
  status: ('A' for Active; 'I' for Inactive)
    1  A    between atoms: C_7  and  C_14
    2  A    between atoms: C_7  and  C_19
    3  A    between atoms: C_11  and  C_13
    4  A    between atoms: N_12  and  C_23
    5  A    between atoms: C_19  and  C_23
                            x       y       z     vdW  Elec       q    Type
                         _______ _______ _______ _____ _____    ______ ____

>  <TORSDO>
F 5

$$$$
=
 OpenBabel11062416583D

 26 28  0  0  1  0  0  0  0  0999 V2000
  188.0520  177.9900  139.5730 C   0  0  0  0  0  0  0  0  0  0  0  0
  190.4830  177.3830  140.6690 N   0  0  0  0  0  0  0  0  0  0  0  0
  189.4820  177.7940  141.4920 C   0  0  0  0  0  3  0  0  0  0  0  0
  189.0770  177.5760  138.7840 N   0  0  0  0  0  0  0  0  0  0  0  0
  186.8100  178.3010  139.0260 C   0  0  0  0  0  3  0  0  0  0  0  0
  187.2150  178.5230  141.7490 N   0  0  0  0  0  0  0  0  0  0  0  0
  184.9520  179.2620  142.1320 N   0  0  0  0  0  2  0  0  0  0  0  0
  185.7540  178.7290  139.8470 C   0  0  0  0  0  0  0  0  0  0  0  0
  185.9880  178.8350  141.2420 C   0  0  0  0  0  0  0  0  0  0  0  0
  188.2360  178.1100  140.9570 C   0  0  0  0  0  0  0  0  0  0  0  0
  190.2870  177.2740  139.3260 C   0  0  0  0  0  3  0  0  0  0  0  0
  183.5470  178.0220  138.8070 N   0  0  0  0  0  1  0  0  0  0  0  0
  184.4530  179.0470  139.2060 C   0  0  0  0  0  0  0  0  0  0  0  0
  184.1310  180.2480  139.0040 O   0  0  0  0  0  0  0  0  0  0  0  0
  185.1510  179.4110  143.5640 C   0  0  1  0  0  3  0  0  0  0  0  0
  183.9700  179.8640  144.1550 O   0  0  0  0  0  1  0  0  0  0  0  0
  185.5450  178.0680  144.1570 C   0  0  0  0  0  2  0  0  0  0  0  0
  185.4110  178.0740  145.6740 C   0  0  0  0  0  2  0  0  0  0  0  0
  187.8280  177.5390  145.2980 C   0  0  0  0  0  2  0  0  0  0  0  0
  187.0710  178.8000  147.3750 C   0  0  0  0  0  2  0  0  0  0  0  0
  186.7280  177.7270  146.3520 C   0  0  1  0  0  3  0  0  0  0  0  0
  189.2300  177.8530  148.3000 C   0  0  0  0  0  2  0  0  0  0  0  0
  190.3370  176.8000  144.6320 Cl  0  0  0  0  0  0  0  0  0  0  0  0
  189.2640  177.5560  145.8310 C   0  0  2  0  0  3  0  0  0  0  0  0
  189.4160  176.8480  147.1700 C   0  0  0  0  0  2  0  0  0  0  0  0
  187.7590  178.1560  148.5710 C   0  0  0  0  0  2  0  0  0  0  0  0
  1 10  1  0  0  0  0
  2  3  1  0  0  0  0
  4 11  1  0  0  0  0
  4  1  2  0  0  0  0
  5  1  1  0  0  0  0
  5  8  2  0  0  0  0
  7 15  1  0  0  0  0
  8  9  1  0  0  0  0
  9  6  2  0  0  0  0
  9  7  1  0  0  0  0
 10  3  2  0  0  0  0
 10  6  1  0  0  0  0
 11  2  2  0  0  0  0
 12 13  1  0  0  0  0
 13  8  1  0  0  0  0
 14 13  2  0  0  0  0
 15 16  1  1  0  0  0
 15 17  1  0  0  0  0
 17 18  1  0  0  0  0
 19 24  1  0  0  0  0
 19 21  1  0  0  0  0
 20 26  1  0  0  0  0
 21 18  1  6  0  0  0
 21 20  1  0  0  0  0
 22 26  1  0  0  0  0
 24 23  1  6  0  0  0
 24 25  1  0  0  0  0
 25 22  1  0  0  0  0
M  END
>  <MODEL>
3

>  <REMARK>
 VINA RESULT:      -8.6      2.794      5.680
  Name = 
  5 active torsions:
  status: ('A' for Active; 'I' for Inactive)
    1  A    between atoms: C_7  and  C_14
    2  A    between atoms: C_7  and  C_19
    3  A    between atoms: C_11  and  C_13
    4  A    between atoms: N_12  and  C_23
    5  A    between atoms: C_19  and  C_23
                            x       y       z     vdW  Elec       q    Type
                         _______ _______ _______ _____ _____    ______ ____

>  <TORSDO>
F 5

$$$$
=
 OpenBabel11062416583D

 26 28  0  0  1  0  0  0  0  0999 V2000
  184.8570  178.6640  140.7650 C   0  0  0  0  0  0  0  0  0  0  0  0
  187.3430  178.4500  139.6470 N   0  0  0  0  0  0  0  0  0  0  0  0
  187.2450  178.5660  140.9980 C   0  0  0  0  0  3  0  0  0  0  0  0
  184.9970  178.5460  139.4200 N   0  0  0  0  0  0  0  0  0  0  0  0
  183.5970  178.7720  141.3450 C   0  0  0  0  0  3  0  0  0  0  0  0
  185.8540  178.7940  142.9350 N   0  0  0  0  0  0  0  0  0  0  0  0
  184.5580  179.0210  144.9560 N   0  0  0  0  0  2  0  0  0  0  0  0
  183.4570  178.8940  142.7370 C   0  0  0  0  0  0  0  0  0  0  0  0
  184.6330  178.9030  143.5310 C   0  0  0  0  0  0  0  0  0  0  0  0
  185.9890  178.6770  141.5900 C   0  0  0  0  0  0  0  0  0  0  0  0
  186.2330  178.4390  138.8610 C   0  0  0  0  0  3  0  0  0  0  0  0
  181.0950  179.8260  142.6850 N   0  0  0  0  0  1  0  0  0  0  0  0
  182.0870  179.0070  143.2970 C   0  0  0  0  0  0  0  0  0  0  0  0
  181.7810  178.3680  144.3390 O   0  0  0  0  0  0  0  0  0  0  0  0
  185.7350  179.0620  145.8080 C   0  0  1  0  0  3  0  0  0  0  0  0
  185.3720  179.5010  147.0830 O   0  0  0  0  0  1  0  0  0  0  0  0
  186.3390  177.6690  145.8920 C   0  0  0  0  0  2  0  0  0  0  0  0
  187.3990  177.5930  146.9840 C   0  0  0  0  0  2  0  0  0  0  0  0
  189.0300  177.9110  145.1110 C   0  0  0  0  0  2  0  0  0  0  0  0
  189.8270  177.3950  147.4720 C   0  0  0  0  0  2  0  0  0  0  0  0
  188.7480  177.1680  146.4240 C   0  0  1  0  0  3  0  0  0  0  0  0
  191.8500  176.5310  146.2170 C   0  0  0  0  0  2  0  0  0  0  0  0
  190.5330  178.2770  142.8990 Cl  0  0  0  0  0  0  0  0  0  0  0  0
  190.4840  177.8730  144.6290 C   0  0  2  0  0  3  0  0  0  0  0  0
  191.1580  176.5270  144.8600 C   0  0  0  0  0  2  0  0  0  0  0  0
  190.8750  176.2940  147.3660 C   0  0  0  0  0  2  0  0  0  0  0  0
  1  5  1  0  0  0  0
  1 10  1  0  0  0  0
  2  3  1  0  0  0  0
  3 10  2  0  0  0  0
  4  1  2  0  0  0  0
  5  8  2  0  0  0  0
  6  9  2  0  0  0  0
  7 15  1  0  0  0  0
  8 13  1  0  0  0  0
  8  9  1  0  0  0  0
  9  7  1  0  0  0  0
 10  6  1  0  0  0  0
 11  4  1  0  0  0  0
 11  2  2  0  0  0  0
 12 13  1  0  0  0  0
 13 14  2  0  0  0  0
 15 17  1  0  0  0  0
 15 16  1  1  0  0  0
 17 18  1  0  0  0  0
 19 21  1  0  0  0  0
 21 18  1  1  0  0  0
 21 20  1  0  0  0  0
 22 26  1  0  0  0  0
 24 23  1  6  0  0  0
 24 25  1  0  0  0  0
 24 19  1  0  0  0  0
 25 22  1  0  0  0  0
 26 20  1  0  0  0  0
M  END
>  <MODEL>
4

>  <REMARK>
 VINA RESULT:      -8.6      2.277      3.992
  Name = 
  5 active torsions:
  status: ('A' for Active; 'I' for Inactive)
    1  A    between atoms: C_7  and  C_14
    2  A    between atoms: C_7  and  C_19
    3  A    between atoms: C_11  and  C_13
    4  A    between atoms: N_12  and  C_23
    5  A    between atoms: C_19  and  C_23
                            x       y       z     vdW  Elec       q    Type
                         _______ _______ _______ _____ _____    ______ ____

>  <TORSDO>
F 5

$$$$
=
 OpenBabel11062416583D

 26 28  0  0  1  0  0  0  0  0999 V2000
  187.7000  177.9610  139.5310 C   0  0  0  0  0  0  0  0  0  0  0  0
  185.6810  179.2160  140.8810 N   0  0  0  0  0  0  0  0  0  0  0  0
  186.8360  178.9450  141.5430 C   0  0  0  0  0  3  0  0  0  0  0  0
  186.5300  178.2490  138.9040 N   0  0  0  0  0  0  0  0  0  0  0  0
  188.7350  177.3230  138.8530 C   0  0  0  0  0  3  0  0  0  0  0  0
  189.0460  178.0200  141.5070 N   0  0  0  0  0  0  0  0  0  0  0  0
  191.2830  177.1250  141.5900 N   0  0  0  0  0  2  0  0  0  0  0  0
  189.9420  177.0270  139.5060 C   0  0  0  0  0  0  0  0  0  0  0  0
  190.0760  177.3960  140.8700 C   0  0  0  0  0  0  0  0  0  0  0  0
  187.8780  178.3060  140.8770 C   0  0  0  0  0  0  0  0  0  0  0  0
  185.5240  178.8730  139.5730 C   0  0  0  0  0  3  0  0  0  0  0  0
  190.8480  175.0140  138.2490 N   0  0  0  0  0  1  0  0  0  0  0  0
  191.0090  176.3450  138.7310 C   0  0  0  0  0  0  0  0  0  0  0  0
  192.0890  176.9470  138.4870 O   0  0  0  0  0  0  0  0  0  0  0  0
  191.4580  177.4600  142.9940 C   0  0  1  0  0  3  0  0  0  0  0  0
  191.2930  178.8350  143.1690 O   0  0  0  0  0  1  0  0  0  0  0  0
  190.4280  176.7050  143.8200 C   0  0  0  0  0  2  0  0  0  0  0  0
  190.6760  176.8880  145.3120 C   0  0  0  0  0  2  0  0  0  0  0  0
  188.2210  177.3440  145.1310 C   0  0  0  0  0  2  0  0  0  0  0  0
  189.3070  176.8810  147.3850 C   0  0  0  0  0  2  0  0  0  0  0  0
  189.4710  177.5040  146.0060 C   0  0  1  0  0  3  0  0  0  0  0  0
  187.2970  178.1770  148.2180 C   0  0  0  0  0  2  0  0  0  0  0  0
  185.6270  177.8910  144.6240 Cl  0  0  0  0  0  0  0  0  0  0  0  0
  186.8830  177.5740  145.8400 C   0  0  2  0  0  3  0  0  0  0  0  0
  186.9240  178.7190  146.8430 C   0  0  0  0  0  2  0  0  0  0  0  0
  188.7970  177.9360  148.3590 C   0  0  0  0  0  2  0  0  0  0  0  0
  1 10  1  0  0  0  0
  2  3  1  0  0  0  0
  4  1  2  0  0  0  0
  4 11  1  0  0  0  0
  5  8  2  0  0  0  0
  5  1  1  0  0  0  0
  7 15  1  0  0  0  0
  8  9  1  0  0  0  0
  9  6  2  0  0  0  0
  9  7  1  0  0  0  0
 10  6  1  0  0  0  0
 10  3  2  0  0  0  0
 11  2  2  0  0  0  0
 12 13  1  0  0  0  0
 13  8  1  0  0  0  0
 14 13  2  0  0  0  0
 15 16  1  6  0  0  0
 15 17  1  0  0  0  0
 17 18  1  0  0  0  0
 19 24  1  0  0  0  0
 19 21  1  0  0  0  0
 20 26  1  0  0  0  0
 21 18  1  6  0  0  0
 21 20  1  0  0  0  0
 22 26  1  0  0  0  0
 24 23  1  6  0  0  0
 24 25  1  0  0  0  0
 25 22  1  0  0  0  0
M  END
>  <MODEL>
5

>  <REMARK>
 VINA RESULT:      -8.5      3.342      5.638
  Name = 
  5 active torsions:
  status: ('A' for Active; 'I' for Inactive)
    1  A    between atoms: C_7  and  C_14
    2  A    between atoms: C_7  and  C_19
    3  A    between atoms: C_11  and  C_13
    4  A    between atoms: N_12  and  C_23
    5  A    between atoms: C_19  and  C_23
                            x       y       z     vdW  Elec       q    Type
                         _______ _______ _______ _____ _____    ______ ____

>  <TORSDO>
F 5

$$$$
=
 OpenBabel11062416583D

 26 28  0  0  1  0  0  0  0  0999 V2000
  190.3920  176.9310  138.4530 C   0  0  0  0  0  0  0  0  0  0  0  0
  192.8110  176.1430  137.4520 N   0  0  0  0  0  0  0  0  0  0  0  0
  192.7350  176.5060  138.7590 C   0  0  0  0  0  3  0  0  0  0  0  0
  190.5090  176.5610  137.1520 N   0  0  0  0  0  0  0  0  0  0  0  0
  189.1650  177.3320  138.9740 C   0  0  0  0  0  3  0  0  0  0  0  0
  191.4020  177.2800  140.5930 N   0  0  0  0  0  0  0  0  0  0  0  0
  190.1620  178.0520  142.5110 N   0  0  0  0  0  2  0  0  0  0  0  0
  189.0500  177.7140  140.3200 C   0  0  0  0  0  0  0  0  0  0  0  0
  190.2140  177.6790  141.1310 C   0  0  0  0  0  0  0  0  0  0  0  0
  191.5140  176.9110  139.2910 C   0  0  0  0  0  0  0  0  0  0  0  0
  191.7100  176.1690  136.6510 C   0  0  0  0  0  3  0  0  0  0  0  0
  186.7450  178.7160  139.9540 N   0  0  0  0  0  1  0  0  0  0  0  0
  187.7160  178.1340  140.8190 C   0  0  0  0  0  0  0  0  0  0  0  0
  187.4220  177.9760  142.0340 O   0  0  0  0  0  0  0  0  0  0  0  0
  191.3320  178.0570  143.3740 C   0  0  1  0  0  3  0  0  0  0  0  0
  191.6350  179.3690  143.7420 O   0  0  0  0  0  1  0  0  0  0  0  0
  191.0440  177.2250  144.6130 C   0  0  0  0  0  2  0  0  0  0  0  0
  189.5770  176.8190  144.6750 C   0  0  0  0  0  2  0  0  0  0  0  0
  187.3460  177.5420  145.5520 C   0  0  0  0  0  2  0  0  0  0  0  0
  189.2000  176.8040  147.1310 C   0  0  0  0  0  2  0  0  0  0  0  0
  188.8560  177.5060  145.8250 C   0  0  1  0  0  3  0  0  0  0  0  0
  187.8960  178.2400  148.7590 C   0  0  0  0  0  2  0  0  0  0  0  0
  184.8660  178.3940  146.1930 Cl  0  0  0  0  0  0  0  0  0  0  0  0
  186.4630  177.8590  146.7630 C   0  0  2  0  0  3  0  0  0  0  0  0
  187.0590  178.9170  147.6810 C   0  0  0  0  0  2  0  0  0  0  0  0
  189.2760  177.8330  148.2520 C   0  0  0  0  0  2  0  0  0  0  0  0
  1  5  1  0  0  0  0
  1 10  1  0  0  0  0
  2  3  1  0  0  0  0
  3 10  2  0  0  0  0
  4  1  2  0  0  0  0
  5  8  2  0  0  0  0
  6  9  2  0  0  0  0
  7 15  1  0  0  0  0
  8 13  1  0  0  0  0
  8  9  1  0  0  0  0
  9  7  1  0  0  0  0
 10  6  1  0  0  0  0
 11  4  1  0  0  0  0
 11  2  2  0  0  0  0
 12 13  1  0  0  0  0
 13 14  2  0  0  0  0
 15 16  1  1  0  0  0
 15 17  1  0  0  0  0
 17 18  1  0  0  0  0
 19 21  1  0  0  0  0
 19 24  1  0  0  0  0
 20 26  1  0  0  0  0
 21 18  1  6  0  0  0
 21 20  1  0  0  0  0
 24 23  1  6  0  0  0
 24 25  1  0  0  0  0
 25 22  1  0  0  0  0
 26 22  1  0  0  0  0
M  END
>  <MODEL>
6

>  <REMARK>
 VINA RESULT:      -8.3      3.862      6.632
  Name = 
  5 active torsions:
  status: ('A' for Active; 'I' for Inactive)
    1  A    between atoms: C_7  and  C_14
    2  A    between atoms: C_7  and  C_19
    3  A    between atoms: C_11  and  C_13
    4  A    between atoms: N_12  and  C_23
    5  A    between atoms: C_19  and  C_23
                            x       y       z     vdW  Elec       q    Type
                         _______ _______ _______ _____ _____    ______ ____

>  <TORSDO>
F 5

$$$$
=
 OpenBabel11062416583D

 26 28  0  0  1  0  0  0  0  0999 V2000
  188.9580  177.6140  137.5430 C   0  0  0  0  0  0  0  0  0  0  0  0
  186.4310  178.6230  137.8210 N   0  0  0  0  0  0  0  0  0  0  0  0
  187.1070  178.2440  138.9380 C   0  0  0  0  0  3  0  0  0  0  0  0
  188.2500  178.0040  136.4520 N   0  0  0  0  0  0  0  0  0  0  0  0
  190.2450  177.1010  137.4140 C   0  0  0  0  0  3  0  0  0  0  0  0
  189.0980  177.3390  139.9140 N   0  0  0  0  0  0  0  0  0  0  0  0
  191.0500  176.4430  141.0110 N   0  0  0  0  0  2  0  0  0  0  0  0
  190.9720  176.6990  138.5460 C   0  0  0  0  0  0  0  0  0  0  0  0
  190.3600  176.8310  139.8190 C   0  0  0  0  0  0  0  0  0  0  0  0
  188.3950  177.7270  138.8210 C   0  0  0  0  0  0  0  0  0  0  0  0
  186.9930  178.5060  136.5870 C   0  0  0  0  0  3  0  0  0  0  0  0
  193.4990  176.9520  138.5790 N   0  0  0  0  0  1  0  0  0  0  0  0
  192.3400  176.1580  138.3440 C   0  0  0  0  0  0  0  0  0  0  0  0
  192.4930  174.9690  137.9570 O   0  0  0  0  0  0  0  0  0  0  0  0
  190.4550  176.5350  142.3340 C   0  0  1  0  0  3  0  0  0  0  0  0
  190.1810  175.2530  142.8130 O   0  0  0  0  0  1  0  0  0  0  0  0
  191.4240  177.2420  143.2700 C   0  0  0  0  0  2  0  0  0  0  0  0
  190.8120  178.5160  143.8380 C   0  0  0  0  0  2  0  0  0  0  0  0
  188.4830  178.1160  144.6660 C   0  0  0  0  0  2  0  0  0  0  0  0
  190.4780  176.9750  145.7580 C   0  0  0  0  0  2  0  0  0  0  0  0
  189.9600  178.2270  145.0650 C   0  0  1  0  0  3  0  0  0  0  0  0
  188.8870  176.8710  147.7260 C   0  0  0  0  0  2  0  0  0  0  0  0
  185.8790  177.9060  145.3450 Cl  0  0  0  0  0  0  0  0  0  0  0  0
  187.5640  177.4690  145.7070 C   0  0  2  0  0  3  0  0  0  0  0  0
  187.9000  177.8700  147.1370 C   0  0  0  0  0  2  0  0  0  0  0  0
  190.3190  177.1290  147.2650 C   0  0  0  0  0  2  0  0  0  0  0  0
  1 10  1  0  0  0  0
  2  3  1  0  0  0  0
  4 11  1  0  0  0  0
  4  1  2  0  0  0  0
  5  1  1  0  0  0  0
  5  8  2  0  0  0  0
  7 15  1  0  0  0  0
  8  9  1  0  0  0  0
  9  6  2  0  0  0  0
  9  7  1  0  0  0  0
 10  3  2  0  0  0  0
 10  6  1  0  0  0  0
 11  2  2  0  0  0  0
 13  8  1  0  0  0  0
 13 12  1  0  0  0  0
 14 13  2  0  0  0  0
 15 16  1  1  0  0  0
 15 17  1  0  0  0  0
 17 18  1  0  0  0  0
 19 21  1  0  0  0  0
 19 24  1  0  0  0  0
 20 26  1  0  0  0  0
 21 18  1  6  0  0  0
 21 20  1  0  0  0  0
 24 23  1  6  0  0  0
 24 25  1  0  0  0  0
 25 22  1  0  0  0  0
 26 22  1  0  0  0  0
M  END
>  <MODEL>
7

>  <REMARK>
 VINA RESULT:      -8.3      4.256      6.404
  Name = 
  5 active torsions:
  status: ('A' for Active; 'I' for Inactive)
    1  A    between atoms: C_7  and  C_14
    2  A    between atoms: C_7  and  C_19
    3  A    between atoms: C_11  and  C_13
    4  A    between atoms: N_12  and  C_23
    5  A    between atoms: C_19  and  C_23
                            x       y       z     vdW  Elec       q    Type
                         _______ _______ _______ _____ _____    ______ ____

>  <TORSDO>
F 5

$$$$
=
 OpenBabel11062416583D

 26 28  0  0  1  0  0  0  0  0999 V2000
  189.1060  177.4320  138.0870 C   0  0  0  0  0  0  0  0  0  0  0  0
  187.8230  177.8880  135.7160 N   0  0  0  0  0  0  0  0  0  0  0  0
  187.2170  178.2750  136.8690 C   0  0  0  0  0  3  0  0  0  0  0  0
  189.6790  177.0600  136.9130 N   0  0  0  0  0  0  0  0  0  0  0  0
  189.7510  177.2060  139.2990 C   0  0  0  0  0  3  0  0  0  0  0  0
  187.2740  178.4260  139.2590 N   0  0  0  0  0  0  0  0  0  0  0  0
  187.2210  178.6360  141.6600 N   0  0  0  0  0  2  0  0  0  0  0  0
  189.1530  177.5920  140.5100 C   0  0  0  0  0  0  0  0  0  0  0  0
  187.8800  178.2160  140.4620 C   0  0  0  0  0  0  0  0  0  0  0  0
  187.8500  178.0520  138.0880 C   0  0  0  0  0  0  0  0  0  0  0  0
  189.0430  177.2860  135.7320 C   0  0  0  0  0  3  0  0  0  0  0  0
  190.1350  175.9950  142.2250 N   0  0  0  0  0  1  0  0  0  0  0  0
  189.8890  177.3230  141.7710 C   0  0  0  0  0  0  0  0  0  0  0  0
  190.3120  178.2850  142.4670 O   0  0  0  0  0  0  0  0  0  0  0  0
  185.9060  179.2560  141.6630 C   0  0  1  0  0  3  0  0  0  0  0  0
  185.0450  178.5270  140.8410 O   0  0  0  0  0  1  0  0  0  0  0  0
  185.3680  179.2810  143.0850 C   0  0  0  0  0  2  0  0  0  0  0  0
  185.3050  177.8780  143.6750 C   0  0  0  0  0  2  0  0  0  0  0  0
  187.5650  177.6110  144.7180 C   0  0  0  0  0  2  0  0  0  0  0  0
  185.7650  179.0220  145.8320 C   0  0  0  0  0  2  0  0  0  0  0  0
  186.0660  177.7910  144.9900 C   0  0  1  0  0  3  0  0  0  0  0  0
  187.1260  178.4840  147.8990 C   0  0  0  0  0  2  0  0  0  0  0  0
  190.0670  177.1170  145.6040 Cl  0  0  0  0  0  0  0  0  0  0  0  0
  188.4900  177.8780  145.9100 C   0  0  2  0  0  3  0  0  0  0  0  0
  187.9270  177.3740  147.2320 C   0  0  0  0  0  2  0  0  0  0  0  0
  185.7290  178.6300  147.3040 C   0  0  0  0  0  2  0  0  0  0  0  0
  1 10  1  0  0  0  0
  1  5  1  0  0  0  0
  2 11  2  0  0  0  0
  2  3  1  0  0  0  0
  3 10  2  0  0  0  0
  4  1  2  0  0  0  0
  5  8  2  0  0  0  0
  6  9  2  0  0  0  0
  7 15  1  0  0  0  0
  8 13  1  0  0  0  0
  9  8  1  0  0  0  0
  9  7  1  0  0  0  0
 10  6  1  0  0  0  0
 11  4  1  0  0  0  0
 13 12  1  0  0  0  0
 13 14  2  0  0  0  0
 15 16  1  6  0  0  0
 15 17  1  0  0  0  0
 17 18  1  0  0  0  0
 19 21  1  0  0  0  0
 19 24  1  0  0  0  0
 20 26  1  0  0  0  0
 21 18  1  6  0  0  0
 21 20  1  0  0  0  0
 24 23  1  6  0  0  0
 24 25  1  0  0  0  0
 25 22  1  0  0  0  0
 26 22  1  0  0  0  0
M  END
>  <MODEL>
8

>  <REMARK>
 VINA RESULT:      -8.2      3.594      5.967
  Name = 
  5 active torsions:
  status: ('A' for Active; 'I' for Inactive)
    1  A    between atoms: C_7  and  C_14
    2  A    between atoms: C_7  and  C_19
    3  A    between atoms: C_11  and  C_13
    4  A    between atoms: N_12  and  C_23
    5  A    between atoms: C_19  and  C_23
                            x       y       z     vdW  Elec       q    Type
                         _______ _______ _______ _____ _____    ______ ____

>  <TORSDO>
F 5

$$$$
=
 OpenBabel11062416583D

 26 28  0  0  1  0  0  0  0  0999 V2000
  190.6570  177.1530  138.4650 C   0  0  0  0  0  0  0  0  0  0  0  0
  192.9420  177.0550  139.9640 N   0  0  0  0  0  0  0  0  0  0  0  0
  191.7920  177.4700  140.5570 C   0  0  0  0  0  3  0  0  0  0  0  0
  191.8270  176.7440  137.9090 N   0  0  0  0  0  0  0  0  0  0  0  0
  189.4880  177.2060  137.7120 C   0  0  0  0  0  3  0  0  0  0  0  0
  189.4500  177.9380  140.3740 N   0  0  0  0  0  0  0  0  0  0  0  0
  187.0920  178.4390  140.3120 N   0  0  0  0  0  2  0  0  0  0  0  0
  188.2820  177.6300  138.2920 C   0  0  0  0  0  0  0  0  0  0  0  0
  188.2900  178.0010  139.6610 C   0  0  0  0  0  0  0  0  0  0  0  0
  190.6160  177.5290  139.8140 C   0  0  0  0  0  0  0  0  0  0  0  0
  192.9650  176.6940  138.6520 C   0  0  0  0  0  3  0  0  0  0  0  0
  186.4050  176.4730  137.0320 N   0  0  0  0  0  1  0  0  0  0  0  0
  187.0680  177.6660  137.4380 C   0  0  0  0  0  0  0  0  0  0  0  0
  186.6030  178.7740  137.0560 O   0  0  0  0  0  0  0  0  0  0  0  0
  187.0550  178.8540  141.7050 C   0  0  1  0  0  3  0  0  0  0  0  0
  185.8830  179.5720  141.9470 O   0  0  0  0  0  1  0  0  0  0  0  0
  187.1020  177.6220  142.5950 C   0  0  0  0  0  2  0  0  0  0  0  0
  186.2940  177.8320  143.8690 C   0  0  0  0  0  2  0  0  0  0  0  0
  188.6260  177.5930  144.7470 C   0  0  0  0  0  2  0  0  0  0  0  0
  186.7830  178.6100  146.1770 C   0  0  0  0  0  2  0  0  0  0  0  0
  187.1360  177.5820  145.1110 C   0  0  1  0  0  3  0  0  0  0  0  0
  188.3040  177.8400  148.0510 C   0  0  0  0  0  2  0  0  0  0  0  0
  191.2080  177.1830  145.4190 Cl  0  0  0  0  0  0  0  0  0  0  0  0
  189.5940  177.7280  145.9270 C   0  0  2  0  0  3  0  0  0  0  0  0
  189.1540  176.9450  147.1570 C   0  0  0  0  0  2  0  0  0  0  0  0
  186.8670  177.9590  147.5530 C   0  0  0  0  0  2  0  0  0  0  0  0
  1 10  1  0  0  0  0
  2  3  1  0  0  0  0
  4  1  2  0  0  0  0
  4 11  1  0  0  0  0
  5  8  2  0  0  0  0
  5  1  1  0  0  0  0
  7 15  1  0  0  0  0
  8  9  1  0  0  0  0
  9  7  1  0  0  0  0
  9  6  2  0  0  0  0
 10  6  1  0  0  0  0
 10  3  2  0  0  0  0
 11  2  2  0  0  0  0
 12 13  1  0  0  0  0
 13  8  1  0  0  0  0
 14 13  2  0  0  0  0
 15 16  1  6  0  0  0
 15 17  1  0  0  0  0
 17 18  1  0  0  0  0
 19 21  1  0  0  0  0
 19 24  1  0  0  0  0
 20 26  1  0  0  0  0
 21 18  1  6  0  0  0
 21 20  1  0  0  0  0
 24 23  1  6  0  0  0
 24 25  1  0  0  0  0
 25 22  1  0  0  0  0
 26 22  1  0  0  0  0
M  END
>  <MODEL>
9

>  <REMARK>
 VINA RESULT:      -8.2      3.849      7.021
  Name = 
  5 active torsions:
  status: ('A' for Active; 'I' for Inactive)
    1  A    between atoms: C_7  and  C_14
    2  A    between atoms: C_7  and  C_19
    3  A    between atoms: C_11  and  C_13
    4  A    between atoms: N_12  and  C_23
    5  A    between atoms: C_19  and  C_23
                            x       y       z     vdW  Elec       q    Type
                         _______ _______ _______ _____ _____    ______ ____

>  <TORSDO>
F 5

$$$$
