=
 OpenBabel11062412293D

 33 36  0  0  1  0  0  0  0  0999 V2000
  185.7980  178.2800  144.9420 C   0  0  0  0  0  0  0  0  0  0  0  0
  184.8530  179.1560  144.3170 N   0  0  0  0  0  2  0  0  0  0  0  0
  186.1810  177.2200  144.3790 O   0  0  0  0  0  0  0  0  0  0  0  0
  183.1000  178.7410  140.4540 C   0  0  0  0  0  0  0  0  0  0  0  0
  182.8820  178.8410  142.8890 C   0  0  0  0  0  0  0  0  0  0  0  0
  182.0970  178.7960  144.0000 N   0  0  0  0  0  0  0  0  0  0  0  0
  180.9130  178.4840  141.5510 C   0  0  0  0  0  3  0  0  0  0  0  0
  184.2710  179.0060  143.0120 C   0  0  0  0  0  0  0  0  0  0  0  0
  180.7560  178.6030  143.9050 C   0  0  0  0  0  3  0  0  0  0  0  0
  185.0630  179.0100  141.8550 C   0  0  0  0  0  3  0  0  0  0  0  0
  182.2930  178.7010  141.6110 C   0  0  0  0  0  0  0  0  0  0  0  0
  180.1740  178.4440  142.6890 N   0  0  0  0  0  0  0  0  0  0  0  0
  184.4840  178.8720  140.5930 C   0  0  0  0  0  3  0  0  0  0  0  0
  182.0210  179.6450  138.3300 C   0  0  0  0  0  0  0  0  0  0  0  0
  181.3360  179.3080  137.0560 C   0  0  0  0  0  1  0  0  0  0  0  0
  182.2850  180.8820  138.5990 N   0  0  0  0  0  2  0  0  0  0  0  0
  182.5660  178.5900  139.1300 N   0  0  0  0  0  2  0  0  0  0  0  0
  186.4460  178.6980  146.5560 S   0  0  0  0  0  0  0  0  0  0  0  0
  188.1810  176.9140  147.6830 C   0  0  0  0  0  1  0  0  0  0  0  0
  187.8850  177.6060  146.3650 C   0  0  2  0  0  3  0  0  0  0  0  0
  189.0900  178.4330  145.9420 C   0  0  0  0  0  2  0  0  0  0  0  0
  191.2670  177.1530  145.3470 C   0  0  1  0  0  3  0  0  0  0  0  0
  191.5550  176.0870  144.2800 C   0  0  0  0  0  2  0  0  0  0  0  0
  190.3540  176.1860  143.3340 C   0  0  1  0  0  3  0  0  0  0  0  0
  190.1710  178.5650  143.6170 C   0  0  0  0  0  2  0  0  0  0  0  0
  189.2490  176.5210  144.3000 C   0  0  0  0  0  2  0  0  0  0  0  0
  190.5160  177.5040  142.5680 C   0  0  2  0  0  3  0  0  0  0  0  0
  189.9260  177.7280  144.8720 C   0  0  2  0  0  0  0  0  0  0  0  0
  188.6150  178.5870  141.6100 O   0  0  0  0  0  1  0  0  0  0  0  0
  189.5420  177.5670  141.4010 C   0  0  0  0  0  2  0  0  0  0  0  0
  191.1290  176.5290  146.5920 O   0  0  0  0  0  0  0  0  0  0  0  0
  192.2430  175.6950  146.7020 C   0  0  0  0  0  2  0  0  0  0  0  0
  192.7290  175.6930  148.1360 C   0  0  0  0  0  1  0  0  0  0  0  0
  1 18  1  0  0  0  0
  2  1  1  0  0  0  0
  3  1  2  0  0  0  0
  4 13  2  0  0  0  0
  4 11  1  0  0  0  0
  5  8  1  0  0  0  0
  5  6  1  0  0  0  0
  7 11  1  0  0  0  0
  7 12  2  0  0  0  0
  8  2  1  0  0  0  0
  9  6  2  0  0  0  0
 10  8  2  0  0  0  0
 11  5  2  0  0  0  0
 12  9  1  0  0  0  0
 13 10  1  0  0  0  0
 14 16  2  0  0  0  0
 14 17  1  0  0  0  0
 15 14  1  0  0  0  0
 17  4  1  0  0  0  0
 20 18  1  0  0  0  0
 20 19  1  1  0  0  0
 21 20  1  0  0  0  0
 22 31  1  1  0  0  0
 23 22  1  0  0  0  0
 24 23  1  1  0  0  0
 24 26  1  0  0  0  0
 25 28  1  0  0  0  0
 26 28  1  0  0  0  0
 27 30  1  6  0  0  0
 27 24  1  0  0  0  0
 27 25  1  0  0  0  0
 28 22  1  0  0  0  0
 28 21  1  1  0  0  0
 30 29  1  0  0  0  0
 31 32  1  0  0  0  0
 32 33  1  0  0  0  0
M  END
>  <MODEL>
1

>  <REMARK>
 VINA RESULT:      -8.1      0.000      0.000
  Name = 
  9 active torsions:
  status: ('A' for Active; 'I' for Inactive)
    1  A    between atoms: C_1  and  O_9
    2  A    between atoms: C_2  and  O_9
    3  A    between atoms: C_4  and  S_32
    4  A    between atoms: C_5  and  N_25
    5  A    between atoms: C_15  and  N_29
    6  A    between atoms: C_16  and  C_20
    7  A    between atoms: C_16  and  C_28
    8  A    between atoms: C_20  and  S_32
    9  A    between atoms: C_26  and  C_27
                            x       y       z     vdW  Elec       q    Type
                         _______ _______ _______ _____ _____    ______ ____

>  <TORSDO>
F 9

$$$$
=
 OpenBabel11062412293D

 33 36  0  0  1  0  0  0  0  0999 V2000
  185.2080  178.8450  140.2290 C   0  0  0  0  0  0  0  0  0  0  0  0
  184.9280  178.7170  141.6280 N   0  0  0  0  0  2  0  0  0  0  0  0
  186.3660  178.6480  139.7720 O   0  0  0  0  0  0  0  0  0  0  0  0
  187.6260  177.5080  144.6990 C   0  0  0  0  0  0  0  0  0  0  0  0
  185.4520  178.3920  144.0040 C   0  0  0  0  0  0  0  0  0  0  0  0
  184.2180  178.8640  144.3310 N   0  0  0  0  0  0  0  0  0  0  0  0
  185.9160  178.1410  146.3530 C   0  0  0  0  0  3  0  0  0  0  0  0
  185.8470  178.3180  142.6580 C   0  0  0  0  0  0  0  0  0  0  0  0
  183.8300  178.9750  145.6270 C   0  0  0  0  0  3  0  0  0  0  0  0
  187.1370  177.8640  142.3490 C   0  0  0  0  0  3  0  0  0  0  0  0
  186.3420  177.9940  145.0280 C   0  0  0  0  0  0  0  0  0  0  0  0
  184.6760  178.6200  146.6260 N   0  0  0  0  0  0  0  0  0  0  0  0
  188.0170  177.4710  143.3580 C   0  0  0  0  0  3  0  0  0  0  0  0
  189.9760  177.4130  145.6760 C   0  0  0  0  0  0  0  0  0  0  0  0
  190.8730  176.7690  146.6720 C   0  0  0  0  0  1  0  0  0  0  0  0
  190.4300  178.3790  144.9480 N   0  0  0  0  0  2  0  0  0  0  0  0
  188.5790  177.1020  145.6920 N   0  0  0  0  0  2  0  0  0  0  0  0
  183.8890  179.2940  139.1090 S   0  0  0  0  0  0  0  0  0  0  0  0
  182.9290  176.7660  139.4920 C   0  0  0  0  0  1  0  0  0  0  0  0
  182.6930  178.2000  139.9280 C   0  0  2  0  0  3  0  0  0  0  0  0
  181.2820  178.6230  139.5460 C   0  0  0  0  0  2  0  0  0  0  0  0
  180.0900  180.7600  140.4080 C   0  0  1  0  0  3  0  0  0  0  0  0
  178.9780  180.9480  141.4490 C   0  0  0  0  0  2  0  0  0  0  0  0
  178.9510  179.6120  142.1990 C   0  0  1  0  0  3  0  0  0  0  0  0
  181.3300  179.3220  142.0160 C   0  0  0  0  0  2  0  0  0  0  0  0
  179.2840  178.6490  141.0890 C   0  0  0  0  0  2  0  0  0  0  0  0
  180.2250  179.5690  143.0490 C   0  0  2  0  0  3  0  0  0  0  0  0
  180.5600  179.3280  140.6960 C   0  0  2  0  0  0  0  0  0  0  0  0
  178.9310  178.4320  144.7040 O   0  0  0  0  0  1  0  0  0  0  0  0
  180.1620  178.4250  144.0500 C   0  0  0  0  0  2  0  0  0  0  0  0
  179.5380  180.8560  139.1260 O   0  0  0  0  0  0  0  0  0  0  0  0
  179.4820  182.2250  138.8600 C   0  0  0  0  0  2  0  0  0  0  0  0
  180.5870  182.5940  137.8930 C   0  0  0  0  0  1  0  0  0  0  0  0
  1  2  1  0  0  0  0
  2  8  1  0  0  0  0
  3  1  2  0  0  0  0
  4 11  1  0  0  0  0
  4 17  1  0  0  0  0
  5  6  2  0  0  0  0
  5 11  1  0  0  0  0
  6  9  1  0  0  0  0
  7 12  1  0  0  0  0
  8  5  1  0  0  0  0
  9 12  2  0  0  0  0
 10  8  2  0  0  0  0
 10 13  1  0  0  0  0
 11  7  2  0  0  0  0
 13  4  2  0  0  0  0
 14 17  1  0  0  0  0
 14 15  1  0  0  0  0
 16 14  2  0  0  0  0
 18 20  1  0  0  0  0
 18  1  1  0  0  0  0
 20 19  1  6  0  0  0
 21 20  1  0  0  0  0
 22 31  1  6  0  0  0
 22 28  1  0  0  0  0
 22 23  1  0  0  0  0
 23 24  1  0  0  0  0
 24 26  1  6  0  0  0
 24 27  1  0  0  0  0
 25 27  1  0  0  0  0
 27 30  1  1  0  0  0
 28 21  1  6  0  0  0
 28 26  1  0  0  0  0
 28 25  1  0  0  0  0
 30 29  1  0  0  0  0
 32 31  1  0  0  0  0
 33 32  1  0  0  0  0
M  END
>  <MODEL>
2

>  <REMARK>
 VINA RESULT:      -7.6      3.323      9.503
  Name = 
  9 active torsions:
  status: ('A' for Active; 'I' for Inactive)
    1  A    between atoms: C_1  and  O_9
    2  A    between atoms: C_2  and  O_9
    3  A    between atoms: C_4  and  S_32
    4  A    between atoms: C_5  and  N_25
    5  A    between atoms: C_15  and  N_29
    6  A    between atoms: C_16  and  C_20
    7  A    between atoms: C_16  and  C_28
    8  A    between atoms: C_20  and  S_32
    9  A    between atoms: C_26  and  C_27
                            x       y       z     vdW  Elec       q    Type
                         _______ _______ _______ _____ _____    ______ ____

>  <TORSDO>
F 9

$$$$
=
 OpenBabel11062412293D

 33 36  0  0  1  0  0  0  0  0999 V2000
  189.1950  177.4640  141.8260 C   0  0  0  0  0  0  0  0  0  0  0  0
  188.4700  178.6010  141.3430 N   0  0  0  0  0  2  0  0  0  0  0  0
  188.6620  176.3240  141.8850 O   0  0  0  0  0  0  0  0  0  0  0  0
  184.4920  178.6000  139.8110 C   0  0  0  0  0  0  0  0  0  0  0  0
  186.9010  178.3230  139.4760 C   0  0  0  0  0  0  0  0  0  0  0  0
  187.9470  178.0580  138.6480 N   0  0  0  0  0  0  0  0  0  0  0  0
  185.4210  178.0810  137.5920 C   0  0  0  0  0  3  0  0  0  0  0  0
  187.1270  178.6130  140.8320 C   0  0  0  0  0  0  0  0  0  0  0  0
  187.7530  177.8090  137.3280 C   0  0  0  0  0  3  0  0  0  0  0  0
  186.0360  178.9200  141.6560 C   0  0  0  0  0  3  0  0  0  0  0  0
  185.5840  178.3220  138.9600 C   0  0  0  0  0  0  0  0  0  0  0  0
  186.4990  177.8250  136.8070 N   0  0  0  0  0  0  0  0  0  0  0  0
  184.7360  178.9210  141.1490 C   0  0  0  0  0  3  0  0  0  0  0  0
  182.2960  177.4840  139.1640 C   0  0  0  0  0  0  0  0  0  0  0  0
  180.9770  177.6520  138.5000 C   0  0  0  0  0  1  0  0  0  0  0  0
  182.5790  176.3600  139.7350 N   0  0  0  0  0  2  0  0  0  0  0  0
  183.1340  178.6300  139.3460 N   0  0  0  0  0  2  0  0  0  0  0  0
  190.8910  177.6670  142.3560 S   0  0  0  0  0  0  0  0  0  0  0  0
  191.2590  179.7170  144.1230 C   0  0  0  0  0  1  0  0  0  0  0  0
  190.4090  178.4790  143.9070 C   0  0  2  0  0  3  0  0  0  0  0  0
  190.6140  177.5120  145.0640 C   0  0  0  0  0  2  0  0  0  0  0  0
  189.5410  176.5620  147.2270 C   0  0  1  0  0  3  0  0  0  0  0  0
  188.4360  177.1160  148.1360 C   0  0  0  0  0  2  0  0  0  0  0  0
  187.7850  178.2150  147.2900 C   0  0  1  0  0  3  0  0  0  0  0  0
  188.1050  176.9980  145.2420 C   0  0  0  0  0  2  0  0  0  0  0  0
  188.9760  178.7470  146.5370 C   0  0  0  0  0  2  0  0  0  0  0  0
  187.0030  177.5010  146.1820 C   0  0  2  0  0  3  0  0  0  0  0  0
  189.3820  177.4230  145.9660 C   0  0  2  0  0  0  0  0  0  0  0  0
  185.1220  178.9640  146.3390 O   0  0  0  0  0  1  0  0  0  0  0  0
  186.0870  178.4760  145.4590 C   0  0  0  0  0  2  0  0  0  0  0  0
  190.7840  176.7840  147.8290 O   0  0  0  0  0  0  0  0  0  0  0  0
  191.5710  175.6990  147.4400 C   0  0  0  0  0  2  0  0  0  0  0  0
  192.8700  175.7180  148.2180 C   0  0  0  0  0  1  0  0  0  0  0  0
  1  3  2  0  0  0  0
  1 18  1  0  0  0  0
  2  1  1  0  0  0  0
  4 13  1  0  0  0  0
  5  8  2  0  0  0  0
  6  5  1  0  0  0  0
  7 11  1  0  0  0  0
  8  2  1  0  0  0  0
  8 10  1  0  0  0  0
  9  6  2  0  0  0  0
 11  5  1  0  0  0  0
 11  4  2  0  0  0  0
 12  9  1  0  0  0  0
 12  7  2  0  0  0  0
 13 10  2  0  0  0  0
 14 17  1  0  0  0  0
 14 16  2  0  0  0  0
 15 14  1  0  0  0  0
 17  4  1  0  0  0  0
 18 20  1  0  0  0  0
 20 19  1  1  0  0  0
 20 21  1  0  0  0  0
 22 31  1  1  0  0  0
 22 23  1  0  0  0  0
 24 26  1  6  0  0  0
 24 23  1  0  0  0  0
 25 28  1  0  0  0  0
 25 27  1  0  0  0  0
 27 30  1  6  0  0  0
 27 24  1  0  0  0  0
 28 21  1  6  0  0  0
 28 26  1  0  0  0  0
 28 22  1  0  0  0  0
 30 29  1  0  0  0  0
 32 31  1  0  0  0  0
 32 33  1  0  0  0  0
M  END
>  <MODEL>
3

>  <REMARK>
 VINA RESULT:      -7.5      2.484      4.532
  Name = 
  9 active torsions:
  status: ('A' for Active; 'I' for Inactive)
    1  A    between atoms: C_1  and  O_9
    2  A    between atoms: C_2  and  O_9
    3  A    between atoms: C_4  and  S_32
    4  A    between atoms: C_5  and  N_25
    5  A    between atoms: C_15  and  N_29
    6  A    between atoms: C_16  and  C_20
    7  A    between atoms: C_16  and  C_28
    8  A    between atoms: C_20  and  S_32
    9  A    between atoms: C_26  and  C_27
                            x       y       z     vdW  Elec       q    Type
                         _______ _______ _______ _____ _____    ______ ____

>  <TORSDO>
F 9

$$$$
=
 OpenBabel11062412293D

 33 36  0  0  1  0  0  0  0  0999 V2000
  185.8310  178.3400  146.1720 C   0  0  0  0  0  0  0  0  0  0  0  0
  184.9490  179.3140  145.6030 N   0  0  0  0  0  2  0  0  0  0  0  0
  185.7950  177.1330  145.8110 O   0  0  0  0  0  0  0  0  0  0  0  0
  182.1090  178.6430  142.4970 C   0  0  0  0  0  0  0  0  0  0  0  0
  184.4180  178.9900  143.2290 C   0  0  0  0  0  0  0  0  0  0  0  0
  185.7390  179.1160  142.9260 N   0  0  0  0  0  0  0  0  0  0  0  0
  183.9620  178.7250  140.8800 C   0  0  0  0  0  3  0  0  0  0  0  0
  183.9840  179.0990  144.5610 C   0  0  0  0  0  0  0  0  0  0  0  0
  186.1740  179.0480  141.6410 C   0  0  0  0  0  3  0  0  0  0  0  0
  182.6150  179.0040  144.8420 C   0  0  0  0  0  3  0  0  0  0  0  0
  183.4810  178.7690  142.1930 C   0  0  0  0  0  0  0  0  0  0  0  0
  185.2900  178.8590  140.6300 N   0  0  0  0  0  0  0  0  0  0  0  0
  181.6890  178.7860  143.8220 C   0  0  0  0  0  3  0  0  0  0  0  0
  179.9840  179.2840  141.2470 C   0  0  0  0  0  0  0  0  0  0  0  0
  178.9310  178.8400  140.2960 C   0  0  0  0  0  1  0  0  0  0  0  0
  179.9680  180.5000  141.6850 N   0  0  0  0  0  2  0  0  0  0  0  0
  181.1070  178.4320  141.4900 N   0  0  0  0  0  2  0  0  0  0  0  0
  187.0070  178.8460  147.4210 S   0  0  0  0  0  0  0  0  0  0  0  0
  188.4850  176.6440  148.0760 C   0  0  0  0  0  1  0  0  0  0  0  0
  188.2220  177.5920  146.9210 C   0  0  2  0  0  3  0  0  0  0  0  0
  189.5180  178.2800  146.5210 C   0  0  0  0  0  2  0  0  0  0  0  0
  191.3720  176.7130  145.6040 C   0  0  1  0  0  3  0  0  0  0  0  0
  191.4130  175.8150  144.3600 C   0  0  0  0  0  2  0  0  0  0  0  0
  190.2420  176.3170  143.5090 C   0  0  1  0  0  3  0  0  0  0  0  0
  190.5610  178.5980  144.1960 C   0  0  0  0  0  2  0  0  0  0  0  0
  189.2470  176.6940  144.5760 C   0  0  0  0  0  2  0  0  0  0  0  0
  190.6590  177.6890  142.9670 C   0  0  2  0  0  3  0  0  0  0  0  0
  190.1700  177.6210  145.3040 C   0  0  2  0  0  0  0  0  0  0  0  0
  190.1090  177.6580  140.6430 O   0  0  0  0  0  1  0  0  0  0  0  0
  189.6990  178.1500  141.8810 C   0  0  0  0  0  2  0  0  0  0  0  0
  191.1300  175.9210  146.7320 O   0  0  0  0  0  0  0  0  0  0  0  0
  192.3860  175.4520  147.1180 C   0  0  0  0  0  2  0  0  0  0  0  0
  192.8000  176.1270  148.4080 C   0  0  0  0  0  1  0  0  0  0  0  0
  1 18  1  0  0  0  0
  2  1  1  0  0  0  0
  3  1  2  0  0  0  0
  4 13  1  0  0  0  0
  5  8  2  0  0  0  0
  6  5  1  0  0  0  0
  7 11  1  0  0  0  0
  8 10  1  0  0  0  0
  8  2  1  0  0  0  0
  9  6  2  0  0  0  0
 11  4  2  0  0  0  0
 11  5  1  0  0  0  0
 12  7  2  0  0  0  0
 12  9  1  0  0  0  0
 13 10  2  0  0  0  0
 14 17  1  0  0  0  0
 14 16  2  0  0  0  0
 15 14  1  0  0  0  0
 17  4  1  0  0  0  0
 20 18  1  0  0  0  0
 20 19  1  1  0  0  0
 21 20  1  0  0  0  0
 22 31  1  1  0  0  0
 23 22  1  0  0  0  0
 24 23  1  1  0  0  0
 24 26  1  0  0  0  0
 25 28  1  0  0  0  0
 26 28  1  0  0  0  0
 27 30  1  6  0  0  0
 27 24  1  0  0  0  0
 27 25  1  0  0  0  0
 28 22  1  0  0  0  0
 28 21  1  1  0  0  0
 29 30  1  0  0  0  0
 31 32  1  0  0  0  0
 32 33  1  0  0  0  0
M  END
>  <MODEL>
4

>  <REMARK>
 VINA RESULT:      -7.5      1.573      2.471
  Name = 
  9 active torsions:
  status: ('A' for Active; 'I' for Inactive)
    1  A    between atoms: C_1  and  O_9
    2  A    between atoms: C_2  and  O_9
    3  A    between atoms: C_4  and  S_32
    4  A    between atoms: C_5  and  N_25
    5  A    between atoms: C_15  and  N_29
    6  A    between atoms: C_16  and  C_20
    7  A    between atoms: C_16  and  C_28
    8  A    between atoms: C_20  and  S_32
    9  A    between atoms: C_26  and  C_27
                            x       y       z     vdW  Elec       q    Type
                         _______ _______ _______ _____ _____    ______ ____

>  <TORSDO>
F 9

$$$$
=
 OpenBabel11062412293D

 33 36  0  0  1  0  0  0  0  0999 V2000
  188.9340  177.8740  140.6070 C   0  0  0  0  0  0  0  0  0  0  0  0
  188.4500  177.8000  141.9540 N   0  0  0  0  0  2  0  0  0  0  0  0
  190.1670  177.8400  140.3520 O   0  0  0  0  0  0  0  0  0  0  0  0
  190.7610  177.2700  145.4960 C   0  0  0  0  0  0  0  0  0  0  0  0
  188.5950  177.5530  144.3910 C   0  0  0  0  0  0  0  0  0  0  0  0
  187.2410  177.6620  144.4740 N   0  0  0  0  0  0  0  0  0  0  0  0
  188.6690  177.3630  146.7900 C   0  0  0  0  0  3  0  0  0  0  0  0
  189.2370  177.6320  143.1440 C   0  0  0  0  0  0  0  0  0  0  0  0
  186.6050  177.6230  145.6720 C   0  0  0  0  0  3  0  0  0  0  0  0
  190.6350  177.5560  143.0900 C   0  0  0  0  0  3  0  0  0  0  0  0
  189.3550  177.3790  145.5710 C   0  0  0  0  0  0  0  0  0  0  0  0
  187.3170  177.4790  146.8180 N   0  0  0  0  0  0  0  0  0  0  0  0
  191.3870  177.3850  144.2520 C   0  0  0  0  0  3  0  0  0  0  0  0
  192.1820  175.8780  147.0860 C   0  0  0  0  0  0  0  0  0  0  0  0
  192.8600  175.8240  148.4080 C   0  0  0  0  0  1  0  0  0  0  0  0
  192.3060  174.8830  146.2700 N   0  0  0  0  0  2  0  0  0  0  0  0
  191.5890  177.1070  146.6570 N   0  0  0  0  0  2  0  0  0  0  0  0
  187.7640  178.0180  139.2620 S   0  0  0  0  0  0  0  0  0  0  0  0
  189.0510  178.7090  136.9540 C   0  0  0  0  0  1  0  0  0  0  0  0
  189.0130  177.6170  138.0070 C   0  0  2  0  0  3  0  0  0  0  0  0
  188.6590  176.2900  137.3520 C   0  0  0  0  0  2  0  0  0  0  0  0
  189.6260  173.9030  137.0350 C   0  0  1  0  0  3  0  0  0  0  0  0
  190.8590  173.4050  136.2690 C   0  0  0  0  0  2  0  0  0  0  0  0
  191.6710  174.6800  136.0160 C   0  0  1  0  0  3  0  0  0  0  0  0
  191.0260  175.6530  138.1170 C   0  0  0  0  0  2  0  0  0  0  0  0
  190.5720  175.6900  135.8170 C   0  0  0  0  0  2  0  0  0  0  0  0
  192.2460  175.1010  137.3730 C   0  0  2  0  0  3  0  0  0  0  0  0
  189.8910  175.4130  137.1220 C   0  0  2  0  0  0  0  0  0  0  0  0
  193.5660  176.7940  138.4200 O   0  0  0  0  0  1  0  0  0  0  0  0
  193.3000  176.1830  137.1950 C   0  0  0  0  0  2  0  0  0  0  0  0
  188.4800  173.6410  136.2780 O   0  0  0  0  0  0  0  0  0  0  0  0
  187.8500  172.5820  136.9340 C   0  0  0  0  0  2  0  0  0  0  0  0
  186.4580  173.0080  137.3510 C   0  0  0  0  0  1  0  0  0  0  0  0
  1  2  1  0  0  0  0
  2  8  1  0  0  0  0
  3  1  2  0  0  0  0
  4 11  1  0  0  0  0
  4 17  1  0  0  0  0
  5  6  2  0  0  0  0
  5 11  1  0  0  0  0
  6  9  1  0  0  0  0
  7 12  1  0  0  0  0
  8  5  1  0  0  0  0
  9 12  2  0  0  0  0
 10  8  2  0  0  0  0
 10 13  1  0  0  0  0
 11  7  2  0  0  0  0
 13  4  2  0  0  0  0
 14 15  1  0  0  0  0
 16 14  2  0  0  0  0
 17 14  1  0  0  0  0
 18  1  1  0  0  0  0
 20 19  1  6  0  0  0
 20 18  1  0  0  0  0
 21 20  1  0  0  0  0
 22 31  1  6  0  0  0
 22 28  1  0  0  0  0
 23 22  1  0  0  0  0
 24 26  1  1  0  0  0
 24 23  1  0  0  0  0
 24 27  1  0  0  0  0
 26 28  1  0  0  0  0
 27 30  1  6  0  0  0
 27 25  1  0  0  0  0
 28 21  1  1  0  0  0
 28 25  1  0  0  0  0
 30 29  1  0  0  0  0
 31 32  1  0  0  0  0
 32 33  1  0  0  0  0
M  END
>  <MODEL>
5

>  <REMARK>
 VINA RESULT:      -7.4      4.741      8.970
  Name = 
  9 active torsions:
  status: ('A' for Active; 'I' for Inactive)
    1  A    between atoms: C_1  and  O_9
    2  A    between atoms: C_2  and  O_9
    3  A    between atoms: C_4  and  S_32
    4  A    between atoms: C_5  and  N_25
    5  A    between atoms: C_15  and  N_29
    6  A    between atoms: C_16  and  C_20
    7  A    between atoms: C_16  and  C_28
    8  A    between atoms: C_20  and  S_32
    9  A    between atoms: C_26  and  C_27
                            x       y       z     vdW  Elec       q    Type
                         _______ _______ _______ _____ _____    ______ ____

>  <TORSDO>
F 9

$$$$
=
 OpenBabel11062412293D

 33 36  0  0  1  0  0  0  0  0999 V2000
  185.5580  178.3850  145.3390 C   0  0  0  0  0  0  0  0  0  0  0  0
  184.6500  179.2210  144.6120 N   0  0  0  0  0  2  0  0  0  0  0  0
  185.9940  177.3090  144.8490 O   0  0  0  0  0  0  0  0  0  0  0  0
  183.1830  178.6220  140.6550 C   0  0  0  0  0  0  0  0  0  0  0  0
  182.7890  178.8290  143.0620 C   0  0  0  0  0  0  0  0  0  0  0  0
  181.9250  178.8280  144.1130 N   0  0  0  0  0  0  0  0  0  0  0  0
  180.9230  178.3990  141.6020 C   0  0  0  0  0  3  0  0  0  0  0  0
  184.1650  179.0090  143.2770 C   0  0  0  0  0  0  0  0  0  0  0  0
  180.5960  178.6220  143.9310 C   0  0  0  0  0  3  0  0  0  0  0  0
  185.0380  178.9670  142.1810 C   0  0  0  0  0  3  0  0  0  0  0  0
  182.2950  178.6280  141.7520 C   0  0  0  0  0  0  0  0  0  0  0  0
  180.1040  178.4050  142.6850 N   0  0  0  0  0  0  0  0  0  0  0  0
  184.5530  178.7690  140.8880 C   0  0  0  0  0  3  0  0  0  0  0  0
  182.1630  179.4030  138.4550 C   0  0  0  0  0  0  0  0  0  0  0  0
  181.5900  178.9910  137.1480 C   0  0  0  0  0  1  0  0  0  0  0  0
  182.3010  180.6610  138.7180 N   0  0  0  0  0  2  0  0  0  0  0  0
  182.7470  178.4100  139.3040 N   0  0  0  0  0  2  0  0  0  0  0  0
  186.0850  178.8780  146.9760 S   0  0  0  0  0  0  0  0  0  0  0  0
  188.1020  177.6250  148.3250 C   0  0  0  0  0  1  0  0  0  0  0  0
  187.5630  177.8250  146.9210 C   0  0  2  0  0  3  0  0  0  0  0  0
  188.6230  178.4930  146.0590 C   0  0  0  0  0  2  0  0  0  0  0  0
  189.3000  176.8640  144.1560 C   0  0  1  0  0  3  0  0  0  0  0  0
  190.6780  176.4080  143.6570 C   0  0  0  0  0  2  0  0  0  0  0  0
  191.6300  176.8230  144.7840 C   0  0  1  0  0  3  0  0  0  0  0  0
  190.0000  176.3700  146.4920 C   0  0  0  0  0  2  0  0  0  0  0  0
  190.9840  178.1000  145.2540 C   0  0  0  0  0  2  0  0  0  0  0  0
  191.3490  175.8770  145.9570 C   0  0  2  0  0  3  0  0  0  0  0  0
  189.6420  177.4890  145.5150 C   0  0  2  0  0  0  0  0  0  0  0  0
  191.9410  176.7370  148.1040 O   0  0  0  0  0  1  0  0  0  0  0  0
  192.4280  176.0080  147.0210 C   0  0  0  0  0  2  0  0  0  0  0  0
  188.7910  177.8270  143.2780 O   0  0  0  0  0  0  0  0  0  0  0  0
  188.5370  177.1340  142.0930 C   0  0  0  0  0  2  0  0  0  0  0  0
  188.4570  178.1170  140.9440 C   0  0  0  0  0  1  0  0  0  0  0  0
  1 18  1  0  0  0  0
  2  1  1  0  0  0  0
  3  1  2  0  0  0  0
  4 13  2  0  0  0  0
  4 11  1  0  0  0  0
  5  8  1  0  0  0  0
  5  6  1  0  0  0  0
  7 11  1  0  0  0  0
  7 12  2  0  0  0  0
  8  2  1  0  0  0  0
  9  6  2  0  0  0  0
 10  8  2  0  0  0  0
 11  5  2  0  0  0  0
 12  9  1  0  0  0  0
 13 10  1  0  0  0  0
 14 16  2  0  0  0  0
 14 17  1  0  0  0  0
 15 14  1  0  0  0  0
 17  4  1  0  0  0  0
 20 18  1  0  0  0  0
 20 19  1  1  0  0  0
 21 20  1  0  0  0  0
 22 31  1  6  0  0  0
 22 28  1  0  0  0  0
 23 22  1  0  0  0  0
 24 23  1  6  0  0  0
 24 26  1  0  0  0  0
 24 27  1  0  0  0  0
 26 28  1  0  0  0  0
 27 25  1  0  0  0  0
 27 30  1  1  0  0  0
 28 21  1  1  0  0  0
 28 25  1  0  0  0  0
 30 29  1  0  0  0  0
 32 31  1  0  0  0  0
 33 32  1  0  0  0  0
M  END
>  <MODEL>
6

>  <REMARK>
 VINA RESULT:      -7.3      0.807      2.909
  Name = 
  9 active torsions:
  status: ('A' for Active; 'I' for Inactive)
    1  A    between atoms: C_1  and  O_9
    2  A    between atoms: C_2  and  O_9
    3  A    between atoms: C_4  and  S_32
    4  A    between atoms: C_5  and  N_25
    5  A    between atoms: C_15  and  N_29
    6  A    between atoms: C_16  and  C_20
    7  A    between atoms: C_16  and  C_28
    8  A    between atoms: C_20  and  S_32
    9  A    between atoms: C_26  and  C_27
                            x       y       z     vdW  Elec       q    Type
                         _______ _______ _______ _____ _____    ______ ____

>  <TORSDO>
F 9

$$$$
=
 OpenBabel11062412293D

 33 36  0  0  1  0  0  0  0  0999 V2000
  185.3740  178.9540  141.0290 C   0  0  0  0  0  0  0  0  0  0  0  0
  185.2690  177.9880  142.0810 N   0  0  0  0  0  2  0  0  0  0  0  0
  186.3480  179.7510  140.9660 O   0  0  0  0  0  0  0  0  0  0  0  0
  188.0590  177.2670  145.2220 C   0  0  0  0  0  0  0  0  0  0  0  0
  185.8820  178.0820  144.4550 C   0  0  0  0  0  0  0  0  0  0  0  0
  184.6750  178.6460  144.7350 N   0  0  0  0  0  0  0  0  0  0  0  0
  186.4370  178.2460  146.7920 C   0  0  0  0  0  3  0  0  0  0  0  0
  186.2190  177.7520  143.1320 C   0  0  0  0  0  0  0  0  0  0  0  0
  184.3440  179.0040  146.0020 C   0  0  0  0  0  3  0  0  0  0  0  0
  187.4820  177.2080  142.8650 C   0  0  0  0  0  3  0  0  0  0  0  0
  186.8030  177.8470  145.5030 C   0  0  0  0  0  0  0  0  0  0  0  0
  185.2220  178.8080  147.0180 N   0  0  0  0  0  0  0  0  0  0  0  0
  188.3930  176.9750  143.8970 C   0  0  0  0  0  3  0  0  0  0  0  0
  190.4580  177.1320  146.0660 C   0  0  0  0  0  0  0  0  0  0  0  0
  191.3590  176.6610  147.1510 C   0  0  0  0  0  1  0  0  0  0  0  0
  190.9530  177.8070  145.0810 N   0  0  0  0  0  2  0  0  0  0  0  0
  189.0420  177.0170  146.2370 N   0  0  0  0  0  2  0  0  0  0  0  0
  184.0980  179.0310  139.7780 S   0  0  0  0  0  0  0  0  0  0  0  0
  184.5060  177.2480  137.7500 C   0  0  0  0  0  1  0  0  0  0  0  0
  185.1940  178.3850  138.4840 C   0  0  2  0  0  3  0  0  0  0  0  0
  186.4780  177.8750  139.1220 C   0  0  0  0  0  2  0  0  0  0  0  0
  188.9870  178.3660  138.6760 C   0  0  1  0  0  3  0  0  0  0  0  0
  189.9910  177.7090  137.7190 C   0  0  0  0  0  2  0  0  0  0  0  0
  189.1080  176.9110  136.7550 C   0  0  1  0  0  3  0  0  0  0  0  0
  187.3550  178.5550  136.8070 C   0  0  0  0  0  2  0  0  0  0  0  0
  187.9970  176.4730  137.6720 C   0  0  0  0  0  2  0  0  0  0  0  0
  188.3980  177.9400  135.8670 C   0  0  2  0  0  3  0  0  0  0  0  0
  187.6450  177.8540  138.1330 C   0  0  2  0  0  0  0  0  0  0  0  0
  186.3740  177.6090  134.6450 O   0  0  0  0  0  1  0  0  0  0  0  0
  187.7220  177.2560  134.6900 C   0  0  0  0  0  2  0  0  0  0  0  0
  189.2130  177.8930  139.9730 O   0  0  0  0  0  0  0  0  0  0  0  0
  190.5540  177.5050  139.9850 C   0  0  0  0  0  2  0  0  0  0  0  0
  190.8460  176.7480  141.2630 C   0  0  0  0  0  1  0  0  0  0  0  0
  1  2  1  0  0  0  0
  2  8  1  0  0  0  0
  3  1  2  0  0  0  0
  4 11  1  0  0  0  0
  4 17  1  0  0  0  0
  5  6  2  0  0  0  0
  5 11  1  0  0  0  0
  6  9  1  0  0  0  0
  7 12  1  0  0  0  0
  8  5  1  0  0  0  0
  9 12  2  0  0  0  0
 10  8  2  0  0  0  0
 10 13  1  0  0  0  0
 11  7  2  0  0  0  0
 13  4  2  0  0  0  0
 14 17  1  0  0  0  0
 14 15  1  0  0  0  0
 16 14  2  0  0  0  0
 18  1  1  0  0  0  0
 20 19  1  1  0  0  0
 20 21  1  0  0  0  0
 20 18  1  0  0  0  0
 22 31  1  1  0  0  0
 23 22  1  0  0  0  0
 24 26  1  1  0  0  0
 24 23  1  0  0  0  0
 25 28  1  0  0  0  0
 26 28  1  0  0  0  0
 27 30  1  6  0  0  0
 27 24  1  0  0  0  0
 27 25  1  0  0  0  0
 28 22  1  0  0  0  0
 28 21  1  1  0  0  0
 29 30  1  0  0  0  0
 31 32  1  0  0  0  0
 32 33  1  0  0  0  0
M  END
>  <MODEL>
7

>  <REMARK>
 VINA RESULT:      -7.0      3.601      7.316
  Name = 
  9 active torsions:
  status: ('A' for Active; 'I' for Inactive)
    1  A    between atoms: C_1  and  O_9
    2  A    between atoms: C_2  and  O_9
    3  A    between atoms: C_4  and  S_32
    4  A    between atoms: C_5  and  N_25
    5  A    between atoms: C_15  and  N_29
    6  A    between atoms: C_16  and  C_20
    7  A    between atoms: C_16  and  C_28
    8  A    between atoms: C_20  and  S_32
    9  A    between atoms: C_26  and  C_27
                            x       y       z     vdW  Elec       q    Type
                         _______ _______ _______ _____ _____    ______ ____

>  <TORSDO>
F 9

$$$$
=
 OpenBabel11062412293D

 33 36  0  0  1  0  0  0  0  0999 V2000
  190.5620  177.0690  141.3160 C   0  0  0  0  0  0  0  0  0  0  0  0
  190.3450  177.8760  140.1530 N   0  0  0  0  0  2  0  0  0  0  0  0
  189.8500  176.0570  141.5530 O   0  0  0  0  0  0  0  0  0  0  0  0
  187.4970  177.1560  137.0640 C   0  0  0  0  0  0  0  0  0  0  0  0
  189.7660  176.9420  137.9590 C   0  0  0  0  0  0  0  0  0  0  0  0
  191.0460  176.5040  137.8170 N   0  0  0  0  0  0  0  0  0  0  0  0
  189.2770  176.0430  135.7800 C   0  0  0  0  0  3  0  0  0  0  0  0
  189.3820  177.6470  139.1120 C   0  0  0  0  0  0  0  0  0  0  0  0
  191.4460  175.8520  136.6960 C   0  0  0  0  0  3  0  0  0  0  0  0
  188.0680  178.1210  139.2160 C   0  0  0  0  0  3  0  0  0  0  0  0
  188.8270  176.7010  136.9290 C   0  0  0  0  0  0  0  0  0  0  0  0
  190.5670  175.6290  135.6860 N   0  0  0  0  0  0  0  0  0  0  0  0
  187.1400  177.8840  138.2020 C   0  0  0  0  0  3  0  0  0  0  0  0
  185.5270  175.9080  136.0410 C   0  0  0  0  0  0  0  0  0  0  0  0
  184.6820  175.7160  134.8330 C   0  0  0  0  0  1  0  0  0  0  0  0
  185.2400  175.2620  137.1230 N   0  0  0  0  0  2  0  0  0  0  0  0
  186.5020  176.9550  136.0500 N   0  0  0  0  0  2  0  0  0  0  0  0
  191.8690  177.5070  142.4560 S   0  0  0  0  0  0  0  0  0  0  0  0
  190.9620  179.7570  143.7100 C   0  0  0  0  0  1  0  0  0  0  0  0
  190.7160  178.2610  143.6380 C   0  0  2  0  0  3  0  0  0  0  0  0
  190.9290  177.6430  145.0110 C   0  0  0  0  0  2  0  0  0  0  0  0
  189.6900  176.3990  146.9220 C   0  0  1  0  0  3  0  0  0  0  0  0
  188.4300  176.7660  147.7170 C   0  0  0  0  0  2  0  0  0  0  0  0
  187.7860  177.8810  146.8870 C   0  0  1  0  0  3  0  0  0  0  0  0
  188.4800  176.8990  144.8060 C   0  0  0  0  0  2  0  0  0  0  0  0
  189.0060  178.5830  146.3500 C   0  0  0  0  0  2  0  0  0  0  0  0
  187.2250  177.2120  145.6280 C   0  0  2  0  0  3  0  0  0  0  0  0
  189.6070  177.3610  145.7290 C   0  0  2  0  0  0  0  0  0  0  0  0
  185.5700  178.9280  145.7750 O   0  0  0  0  0  1  0  0  0  0  0  0
  186.3160  178.1700  144.8730 C   0  0  0  0  0  2  0  0  0  0  0  0
  190.8190  176.6680  147.7030 O   0  0  0  0  0  0  0  0  0  0  0  0
  191.7090  175.6310  147.4180 C   0  0  0  0  0  2  0  0  0  0  0  0
  192.8220  175.6300  148.4440 C   0  0  0  0  0  1  0  0  0  0  0  0
  1  3  2  0  0  0  0
  1 18  1  0  0  0  0
  2  1  1  0  0  0  0
  4 13  1  0  0  0  0
  5  8  2  0  0  0  0
  6  5  1  0  0  0  0
  7 11  1  0  0  0  0
  8 10  1  0  0  0  0
  8  2  1  0  0  0  0
  9  6  2  0  0  0  0
 11  4  2  0  0  0  0
 11  5  1  0  0  0  0
 12  7  2  0  0  0  0
 12  9  1  0  0  0  0
 13 10  2  0  0  0  0
 14 17  1  0  0  0  0
 14 16  2  0  0  0  0
 15 14  1  0  0  0  0
 17  4  1  0  0  0  0
 18 20  1  0  0  0  0
 20 19  1  1  0  0  0
 20 21  1  0  0  0  0
 22 31  1  1  0  0  0
 22 23  1  0  0  0  0
 24 26  1  6  0  0  0
 24 23  1  0  0  0  0
 25 27  1  0  0  0  0
 25 28  1  0  0  0  0
 27 30  1  6  0  0  0
 27 24  1  0  0  0  0
 28 21  1  6  0  0  0
 28 26  1  0  0  0  0
 28 22  1  0  0  0  0
 30 29  1  0  0  0  0
 32 31  1  0  0  0  0
 32 33  1  0  0  0  0
M  END
>  <MODEL>
8

>  <REMARK>
 VINA RESULT:      -6.9      4.101      6.278
  Name = 
  9 active torsions:
  status: ('A' for Active; 'I' for Inactive)
    1  A    between atoms: C_1  and  O_9
    2  A    between atoms: C_2  and  O_9
    3  A    between atoms: C_4  and  S_32
    4  A    between atoms: C_5  and  N_25
    5  A    between atoms: C_15  and  N_29
    6  A    between atoms: C_16  and  C_20
    7  A    between atoms: C_16  and  C_28
    8  A    between atoms: C_20  and  S_32
    9  A    between atoms: C_26  and  C_27
                            x       y       z     vdW  Elec       q    Type
                         _______ _______ _______ _____ _____    ______ ____

>  <TORSDO>
F 9

$$$$
=
 OpenBabel11062412293D

 33 36  0  0  1  0  0  0  0  0999 V2000
  185.1770  178.9720  140.1640 C   0  0  0  0  0  0  0  0  0  0  0  0
  184.9700  178.8480  141.5760 N   0  0  0  0  0  2  0  0  0  0  0  0
  186.2950  178.7170  139.6410 O   0  0  0  0  0  0  0  0  0  0  0  0
  187.7670  177.4710  144.4830 C   0  0  0  0  0  0  0  0  0  0  0  0
  185.5890  178.4320  143.9140 C   0  0  0  0  0  0  0  0  0  0  0  0
  184.3840  178.9240  144.3110 N   0  0  0  0  0  0  0  0  0  0  0  0
  186.1490  178.0930  146.2310 C   0  0  0  0  0  3  0  0  0  0  0  0
  185.9220  178.3920  142.5500 C   0  0  0  0  0  0  0  0  0  0  0  0
  184.0560  179.0030  145.6260 C   0  0  0  0  0  3  0  0  0  0  0  0
  187.1850  177.9170  142.1700 C   0  0  0  0  0  3  0  0  0  0  0  0
  186.5120  177.9790  144.8850 C   0  0  0  0  0  0  0  0  0  0  0  0
  184.9360  178.5940  146.5750 N   0  0  0  0  0  0  0  0  0  0  0  0
  188.0970  177.4690  143.1250 C   0  0  0  0  0  3  0  0  0  0  0  0
  190.1110  177.4550  145.4800 C   0  0  0  0  0  0  0  0  0  0  0  0
  191.0630  176.7530  146.3790 C   0  0  0  0  0  1  0  0  0  0  0  0
  190.4690  178.5640  144.9200 N   0  0  0  0  0  2  0  0  0  0  0  0
  188.7520  177.0100  145.4190 N   0  0  0  0  0  2  0  0  0  0  0  0
  183.8230  179.5000  139.1220 S   0  0  0  0  0  0  0  0  0  0  0  0
  184.1690  177.1530  137.7680 C   0  0  0  0  0  1  0  0  0  0  0  0
  183.2740  177.7970  138.8110 C   0  0  2  0  0  3  0  0  0  0  0  0
  181.8380  177.8160  138.3090 C   0  0  0  0  0  2  0  0  0  0  0  0
  180.5830  177.6480  140.5740 C   0  0  1  0  0  3  0  0  0  0  0  0
  179.2670  176.9550  140.9520 C   0  0  0  0  0  2  0  0  0  0  0  0
  178.9970  176.0170  139.7720 C   0  0  1  0  0  3  0  0  0  0  0  0
  181.3340  175.5660  139.4380 C   0  0  0  0  0  2  0  0  0  0  0  0
  179.5360  176.8300  138.6240 C   0  0  0  0  0  2  0  0  0  0  0  0
  180.0300  174.8890  139.8730 C   0  0  2  0  0  3  0  0  0  0  0  0
  180.9000  177.0140  139.2130 C   0  0  2  0  0  0  0  0  0  0  0  0
  180.7010  173.5660  138.0000 O   0  0  0  0  0  1  0  0  0  0  0  0
  179.6760  173.7520  138.9270 C   0  0  0  0  0  2  0  0  0  0  0  0
  180.3560  179.0230  140.4430 O   0  0  0  0  0  0  0  0  0  0  0  0
  180.3260  179.5090  141.7510 C   0  0  0  0  0  2  0  0  0  0  0  0
  181.5390  179.0030  142.5020 C   0  0  0  0  0  1  0  0  0  0  0  0
  1  2  1  0  0  0  0
  2  8  1  0  0  0  0
  3  1  2  0  0  0  0
  4 11  1  0  0  0  0
  4 17  1  0  0  0  0
  5  6  2  0  0  0  0
  5 11  1  0  0  0  0
  6  9  1  0  0  0  0
  7 12  1  0  0  0  0
  8  5  1  0  0  0  0
  9 12  2  0  0  0  0
 10  8  2  0  0  0  0
 10 13  1  0  0  0  0
 11  7  2  0  0  0  0
 13  4  2  0  0  0  0
 14 15  1  0  0  0  0
 16 14  2  0  0  0  0
 17 14  1  0  0  0  0
 18  1  1  0  0  0  0
 20 19  1  6  0  0  0
 20 18  1  0  0  0  0
 21 20  1  0  0  0  0
 22 31  1  6  0  0  0
 22 23  1  0  0  0  0
 24 26  1  6  0  0  0
 24 27  1  0  0  0  0
 24 23  1  0  0  0  0
 25 27  1  0  0  0  0
 26 28  1  0  0  0  0
 27 30  1  6  0  0  0
 28 21  1  6  0  0  0
 28 25  1  0  0  0  0
 28 22  1  0  0  0  0
 29 30  1  0  0  0  0
 31 32  1  0  0  0  0
 32 33  1  0  0  0  0
M  END
>  <MODEL>
9

>  <REMARK>
 VINA RESULT:      -6.9      3.569      9.175
  Name = 
  9 active torsions:
  status: ('A' for Active; 'I' for Inactive)
    1  A    between atoms: C_1  and  O_9
    2  A    between atoms: C_2  and  O_9
    3  A    between atoms: C_4  and  S_32
    4  A    between atoms: C_5  and  N_25
    5  A    between atoms: C_15  and  N_29
    6  A    between atoms: C_16  and  C_20
    7  A    between atoms: C_16  and  C_28
    8  A    between atoms: C_20  and  S_32
    9  A    between atoms: C_26  and  C_27
                            x       y       z     vdW  Elec       q    Type
                         _______ _______ _______ _____ _____    ______ ____

>  <TORSDO>
F 9

$$$$
