=
 OpenBabel11062417543D

 39 44  0  0  1  0  0  0  0  0999 V2000
  184.6170  178.1080  141.6500 N   0  0  0  0  0  0  0  0  0  0  0  0
  182.1820  178.3210  141.3440 C   0  0  0  0  0  0  0  0  0  0  0  0
  180.1710  180.2180  142.1780 C   0  0  0  0  0  2  0  0  0  0  0  0
  182.0770  178.6890  142.5970 C   0  0  0  0  0  0  0  0  0  0  0  0
  180.6740  179.0300  142.9850 C   0  0  2  0  0  3  0  0  0  0  0  0
  184.5010  178.4490  142.9070 C   0  0  0  0  0  0  0  0  0  0  0  0
  180.9100  178.3780  140.7120 N   0  0  0  0  0  0  0  0  0  0  0  0
  183.5250  178.2050  140.6690 C   0  0  1  0  0  3  0  0  0  0  0  0
  179.9000  178.8080  141.6760 C   0  0  2  0  0  3  0  0  0  0  0  0
  183.2210  178.8120  143.4390 N   0  0  0  0  0  2  0  0  0  0  0  0
  183.8030  179.6390  139.6490 Cl  0  0  0  0  0  0  0  0  0  0  0  0
  180.0180  179.5830  137.3620 N   0  0  0  0  0  0  0  0  0  0  0  0
  180.6900  178.4090  139.3250 N   0  0  0  0  0  2  0  0  0  0  0  0
  180.6490  180.9770  139.1250 C   0  0  0  0  0  2  0  0  0  0  0  0
  179.8840  180.9560  137.0430 C   0  0  1  0  0  3  0  0  0  0  0  0
  180.8350  182.9680  137.6090 C   0  0  0  0  0  3  0  0  0  0  0  0
  180.3880  179.6080  138.6090 C   0  0  0  0  0  0  0  0  0  0  0  0
  180.8580  182.8640  136.3120 N   0  0  0  0  0  0  0  0  0  0  0  0
  180.2280  181.7610  138.1480 C   0  0  2  0  0  3  0  0  0  0  0  0
  180.5700  180.9440  134.7200 N   0  0  0  0  0  1  0  0  0  0  0  0
  180.2990  181.5890  135.9600 C   0  0  1  0  0  3  0  0  0  0  0  0
  185.6850  178.3990  143.8250 C   0  0  1  0  0  3  0  0  0  0  0  0
  185.5680  179.7050  146.1170 O   0  0  0  0  0  1  0  0  0  0  0  0
  186.2740  177.2760  146.2820 O   0  0  0  0  0  1  0  0  0  0  0  0
  185.1660  178.3470  145.5570 S   0  0  0  0  0  3  0  0  0  0  0  0
  186.6050  177.2150  143.5180 C   0  0  0  0  0  2  0  0  0  0  0  0
  188.5950  178.5840  141.0700 C   0  0  0  0  0  2  0  0  0  0  0  0
  188.5710  177.0810  141.0580 C   0  0  0  0  0  2  0  0  0  0  0  0
  188.6560  176.6350  142.3870 O   0  0  0  0  0  0  0  0  0  0  0  0
  188.0430  177.6270  143.1840 C   0  0  1  0  0  0  0  0  0  0  0  0
  187.9810  178.9190  142.3930 C   0  0  0  0  0  2  0  0  0  0  0  0
  188.8170  177.9160  144.4840 C   0  0  0  0  0  2  0  0  0  0  0  0
  190.5800  177.4120  144.5250 P   0  0  2  0  0  0  0  0  0  0  0  0
  191.4480  178.4350  143.8250 O   0  0  0  0  0  1  0  0  0  0  0  0
  190.7170  175.9380  143.7050 O   0  0  0  0  0  0  0  0  0  0  0  0
  191.1650  177.1650  146.2370 C   0  0  1  0  0  3  0  0  0  0  0  0
  189.9920  177.0510  147.1900 C   0  0  0  0  0  1  0  0  0  0  0  0
  192.4770  175.6930  147.7680 C   0  0  0  0  0  1  0  0  0  0  0  0
  192.0170  175.9110  146.3380 C   0  0  0  0  0  2  0  0  0  0  0  0
  1  6  2  0  0  0  0
  2  4  2  0  0  0  0
  4  5  1  0  0  0  0
  4 10  1  0  0  0  0
  5  3  1  6  0  0  0
  6 10  1  0  0  0  0
  6 22  1  0  0  0  0
  7  2  1  0  0  0  0
  7  9  1  0  0  0  0
  8 11  1  1  0  0  0
  8  2  1  0  0  0  0
  8  1  1  0  0  0  0
  9  3  1  6  0  0  0
  9  5  1  0  0  0  0
 12 17  2  0  0  0  0
 13  7  1  0  0  0  0
 15 12  1  1  0  0  0
 15 19  1  0  0  0  0
 17 14  1  0  0  0  0
 17 13  1  0  0  0  0
 18 16  2  0  0  0  0
 19 16  1  6  0  0  0
 19 14  1  0  0  0  0
 21 20  1  1  0  0  0
 21 18  1  0  0  0  0
 21 15  1  0  0  0  0
 22 26  1  6  0  0  0
 22 25  1  0  0  0  0
 25 23  1  0  0  0  0
 25 24  1  0  0  0  0
 27 31  1  0  0  0  0
 28 27  1  0  0  0  0
 28 29  1  0  0  0  0
 29 30  1  0  0  0  0
 30 26  1  1  0  0  0
 30 32  1  0  0  0  0
 31 30  1  0  0  0  0
 32 33  1  0  0  0  0
 33 35  2  6  0  0  0
 33 36  1  0  0  0  0
 34 33  1  0  0  0  0
 36 39  1  0  0  0  0
 36 37  1  1  0  0  0
 39 38  1  0  0  0  0
M  END
>  <MODEL>
1

>  <REMARK>
 VINA RESULT:      -7.6      0.000      0.000
  Name = 
  9 active torsions:
  status: ('A' for Active; 'I' for Inactive)
    1  A    between atoms: P_1  and  C_10
    2  A    between atoms: P_1  and  C_22
    3  A    between atoms: N_6  and  N_24
    4  A    between atoms: C_7  and  C_26
    5  A    between atoms: C_7  and  C_35
    6  A    between atoms: C_10  and  C_39
    7  A    between atoms: C_18  and  C_35
    8  A    between atoms: C_22  and  C_26
    9  A    between atoms: S_33  and  C_35
                            x       y       z     vdW  Elec       q    Type
                         _______ _______ _______ _____ _____    ______ ____

>  <TORSDO>
F 9

$$$$
=
 OpenBabel11062417543D

 39 44  0  0  1  0  0  0  0  0999 V2000
  188.6920  177.1620  142.0370 N   0  0  0  0  0  0  0  0  0  0  0  0
  189.2840  177.0720  139.6480 C   0  0  0  0  0  0  0  0  0  0  0  0
  189.3290  178.9730  137.4750 C   0  0  0  0  0  2  0  0  0  0  0  0
  188.2420  177.8200  139.3810 C   0  0  0  0  0  0  0  0  0  0  0  0
  188.1270  178.1580  137.9300 C   0  0  2  0  0  3  0  0  0  0  0  0
  187.6390  177.8850  141.7610 C   0  0  0  0  0  0  0  0  0  0  0  0
  190.0180  176.8180  138.4570 N   0  0  0  0  0  0  0  0  0  0  0  0
  189.7500  176.8460  141.0640 C   0  0  1  0  0  3  0  0  0  0  0  0
  189.3550  177.4590  137.3240 C   0  0  2  0  0  3  0  0  0  0  0  0
  187.3840  178.3010  140.4130 N   0  0  0  0  0  2  0  0  0  0  0  0
  191.1580  177.8850  141.3990 Cl  0  0  0  0  0  0  0  0  0  0  0  0
  192.9530  174.7010  137.8410 N   0  0  0  0  0  0  0  0  0  0  0  0
  191.3500  176.3760  138.3990 N   0  0  0  0  0  2  0  0  0  0  0  0
  190.9210  174.4760  136.7130 C   0  0  0  0  0  2  0  0  0  0  0  0
  192.9260  173.5690  136.9920 C   0  0  1  0  0  3  0  0  0  0  0  0
  191.9140  172.8830  135.0480 C   0  0  0  0  0  3  0  0  0  0  0  0
  191.7460  175.1760  137.7310 C   0  0  0  0  0  0  0  0  0  0  0  0
  193.1980  172.7180  134.9120 N   0  0  0  0  0  0  0  0  0  0  0  0
  191.6680  173.4420  136.3690 C   0  0  2  0  0  3  0  0  0  0  0  0
  195.2000  173.5830  136.1560 N   0  0  0  0  0  1  0  0  0  0  0  0
  193.8340  173.1840  136.1130 C   0  0  1  0  0  3  0  0  0  0  0  0
  186.6470  178.2320  142.8300 C   0  0  1  0  0  3  0  0  0  0  0  0
  184.7740  179.5910  141.5580 O   0  0  0  0  0  1  0  0  0  0  0  0
  183.9860  178.2820  143.5820 O   0  0  0  0  0  1  0  0  0  0  0  0
  184.9570  178.2140  142.1850 S   0  0  0  0  0  3  0  0  0  0  0  0
  186.7540  177.3020  144.0410 C   0  0  0  0  0  2  0  0  0  0  0  0
  185.6040  178.0660  147.1910 C   0  0  0  0  0  2  0  0  0  0  0  0
  185.3240  179.1330  146.1710 C   0  0  0  0  0  2  0  0  0  0  0  0
  186.4730  179.2900  145.3800 O   0  0  0  0  0  0  0  0  0  0  0  0
  187.1110  178.0300  145.3420 C   0  0  1  0  0  0  0  0  0  0  0  0
  186.5990  177.1900  146.4960 C   0  0  0  0  0  2  0  0  0  0  0  0
  188.6410  178.1280  145.4820 C   0  0  0  0  0  2  0  0  0  0  0  0
  189.3800  177.4190  147.0040 P   0  0  2  0  0  0  0  0  0  0  0  0
  188.6950  176.1230  147.3810 O   0  0  0  0  0  0  0  0  0  0  0  0
  189.1530  178.5330  148.2570 O   0  0  0  0  0  1  0  0  0  0  0  0
  191.1740  177.1420  146.8090 C   0  0  1  0  0  3  0  0  0  0  0  0
  191.5710  175.7950  147.3780 C   0  0  0  0  0  1  0  0  0  0  0  0
  191.7670  175.8070  144.7850 C   0  0  0  0  0  1  0  0  0  0  0  0
  191.5710  177.2040  145.3430 C   0  0  0  0  0  2  0  0  0  0  0  0
  2  8  1  0  0  0  0
  4  2  2  0  0  0  0
  4 10  1  0  0  0  0
  5  3  1  1  0  0  0
  5  4  1  0  0  0  0
  6  1  2  0  0  0  0
  6 22  1  0  0  0  0
  7  2  1  0  0  0  0
  8 11  1  1  0  0  0
  8  1  1  0  0  0  0
  9  3  1  1  0  0  0
  9  5  1  0  0  0  0
  9  7  1  0  0  0  0
 10  6  1  0  0  0  0
 13  7  1  0  0  0  0
 14 17  1  0  0  0  0
 15 12  1  6  0  0  0
 17 12  2  0  0  0  0
 17 13  1  0  0  0  0
 18 16  2  0  0  0  0
 18 21  1  0  0  0  0
 19 16  1  6  0  0  0
 19 14  1  0  0  0  0
 19 15  1  0  0  0  0
 21 20  1  6  0  0  0
 21 15  1  0  0  0  0
 22 26  1  1  0  0  0
 23 25  1  0  0  0  0
 25 22  1  0  0  0  0
 25 24  1  0  0  0  0
 28 27  1  0  0  0  0
 29 28  1  0  0  0  0
 30 26  1  6  0  0  0
 30 29  1  0  0  0  0
 30 32  1  0  0  0  0
 30 31  1  0  0  0  0
 31 27  1  0  0  0  0
 32 33  1  0  0  0  0
 33 34  2  1  0  0  0
 33 35  1  0  0  0  0
 36 33  1  0  0  0  0
 36 37  1  6  0  0  0
 38 39  1  0  0  0  0
 39 36  1  0  0  0  0
M  END
>  <MODEL>
2

>  <REMARK>
 VINA RESULT:      -7.3      5.372      8.726
  Name = 
  9 active torsions:
  status: ('A' for Active; 'I' for Inactive)
    1  A    between atoms: P_1  and  C_10
    2  A    between atoms: P_1  and  C_22
    3  A    between atoms: N_6  and  N_24
    4  A    between atoms: C_7  and  C_26
    5  A    between atoms: C_7  and  C_35
    6  A    between atoms: C_10  and  C_39
    7  A    between atoms: C_18  and  C_35
    8  A    between atoms: C_22  and  C_26
    9  A    between atoms: S_33  and  C_35
                            x       y       z     vdW  Elec       q    Type
                         _______ _______ _______ _____ _____    ______ ____

>  <TORSDO>
F 9

$$$$
=
 OpenBabel11062417543D

 39 44  0  0  1  0  0  0  0  0999 V2000
  184.7320  178.1180  141.7540 N   0  0  0  0  0  0  0  0  0  0  0  0
  182.3040  178.3020  141.3740 C   0  0  0  0  0  0  0  0  0  0  0  0
  180.2450  180.1700  142.1520 C   0  0  0  0  0  2  0  0  0  0  0  0
  182.1560  178.6640  142.6250 C   0  0  0  0  0  0  0  0  0  0  0  0
  180.7380  178.9860  142.9700 C   0  0  2  0  0  3  0  0  0  0  0  0
  184.5720  178.4520  143.0080 C   0  0  0  0  0  0  0  0  0  0  0  0
  181.0520  178.3450  140.7030 N   0  0  0  0  0  0  0  0  0  0  0  0
  183.6690  178.2050  140.7400 C   0  0  1  0  0  3  0  0  0  0  0  0
  180.0080  178.7590  141.6370 C   0  0  2  0  0  3  0  0  0  0  0  0
  183.2720  178.7970  143.5020 N   0  0  0  0  0  2  0  0  0  0  0  0
  183.9610  179.6470  139.7350 Cl  0  0  0  0  0  0  0  0  0  0  0  0
  180.2190  179.5420  137.3350 N   0  0  0  0  0  0  0  0  0  0  0  0
  180.8750  178.3790  139.3100 N   0  0  0  0  0  2  0  0  0  0  0  0
  180.7400  180.9450  139.1270 C   0  0  0  0  0  2  0  0  0  0  0  0
  180.0420  180.9120  137.0220 C   0  0  1  0  0  3  0  0  0  0  0  0
  180.8950  182.9540  137.6320 C   0  0  0  0  0  3  0  0  0  0  0  0
  180.5480  179.5720  138.5940 C   0  0  0  0  0  0  0  0  0  0  0  0
  180.9630  182.8620  136.3350 N   0  0  0  0  0  0  0  0  0  0  0  0
  180.3190  181.7200  138.1430 C   0  0  2  0  0  3  0  0  0  0  0  0
  180.8000  180.9460  134.7220 N   0  0  0  0  0  1  0  0  0  0  0  0
  180.4650  181.5690  135.9570 C   0  0  1  0  0  3  0  0  0  0  0  0
  185.7280  178.4130  143.9620 C   0  0  1  0  0  3  0  0  0  0  0  0
  185.7060  179.8080  146.2050 O   0  0  0  0  0  1  0  0  0  0  0  0
  186.1130  177.3190  146.4730 O   0  0  0  0  0  1  0  0  0  0  0  0
  185.1610  178.4860  145.6780 S   0  0  0  0  0  3  0  0  0  0  0  0
  186.6080  177.1780  143.7540 C   0  0  0  0  0  2  0  0  0  0  0  0
  189.7720  176.7820  145.0430 C   0  0  0  0  0  2  0  0  0  0  0  0
  189.1080  178.0650  145.4570 C   0  0  0  0  0  2  0  0  0  0  0  0
  188.4660  178.6050  144.3310 O   0  0  0  0  0  0  0  0  0  0  0  0
  188.0860  177.5120  143.5210 C   0  0  1  0  0  0  0  0  0  0  0  0
  188.9020  176.3000  143.9240 C   0  0  0  0  0  2  0  0  0  0  0  0
  188.3340  177.7610  142.0220 C   0  0  0  0  0  2  0  0  0  0  0  0
  189.9960  177.3310  141.3760 P   0  0  2  0  0  0  0  0  0  0  0  0
  190.2610  175.8480  141.5190 O   0  0  0  0  0  0  0  0  0  0  0  0
  191.1410  178.1730  142.2920 O   0  0  0  0  0  1  0  0  0  0  0  0
  190.1840  177.8330  139.6310 C   0  0  1  0  0  3  0  0  0  0  0  0
  190.5730  176.6460  138.7730 C   0  0  0  0  0  1  0  0  0  0  0  0
  188.9980  178.6980  137.6120 C   0  0  0  0  0  1  0  0  0  0  0  0
  188.8920  178.4330  139.1020 C   0  0  0  0  0  2  0  0  0  0  0  0
  1  6  2  0  0  0  0
  2  4  2  0  0  0  0
  4  5  1  0  0  0  0
  4 10  1  0  0  0  0
  5  3  1  6  0  0  0
  6 10  1  0  0  0  0
  6 22  1  0  0  0  0
  7  2  1  0  0  0  0
  7  9  1  0  0  0  0
  8 11  1  1  0  0  0
  8  2  1  0  0  0  0
  8  1  1  0  0  0  0
  9  3  1  6  0  0  0
  9  5  1  0  0  0  0
 12 17  2  0  0  0  0
 13  7  1  0  0  0  0
 15 12  1  1  0  0  0
 15 19  1  0  0  0  0
 17 14  1  0  0  0  0
 17 13  1  0  0  0  0
 18 16  2  0  0  0  0
 19 16  1  6  0  0  0
 19 14  1  0  0  0  0
 21 20  1  1  0  0  0
 21 18  1  0  0  0  0
 21 15  1  0  0  0  0
 22 26  1  1  0  0  0
 22 25  1  0  0  0  0
 25 23  1  0  0  0  0
 25 24  1  0  0  0  0
 27 28  1  0  0  0  0
 29 28  1  0  0  0  0
 30 32  1  6  0  0  0
 30 26  1  0  0  0  0
 30 31  1  0  0  0  0
 30 29  1  0  0  0  0
 31 27  1  0  0  0  0
 33 34  2  1  0  0  0
 33 32  1  0  0  0  0
 33 35  1  0  0  0  0
 36 37  1  6  0  0  0
 36 33  1  0  0  0  0
 38 39  1  0  0  0  0
 39 36  1  0  0  0  0
M  END
>  <MODEL>
3

>  <REMARK>
 VINA RESULT:      -7.3      1.279      3.226
  Name = 
  9 active torsions:
  status: ('A' for Active; 'I' for Inactive)
    1  A    between atoms: P_1  and  C_10
    2  A    between atoms: P_1  and  C_22
    3  A    between atoms: N_6  and  N_24
    4  A    between atoms: C_7  and  C_26
    5  A    between atoms: C_7  and  C_35
    6  A    between atoms: C_10  and  C_39
    7  A    between atoms: C_18  and  C_35
    8  A    between atoms: C_22  and  C_26
    9  A    between atoms: S_33  and  C_35
                            x       y       z     vdW  Elec       q    Type
                         _______ _______ _______ _____ _____    ______ ____

>  <TORSDO>
F 9

$$$$
=
 OpenBabel11062417543D

 39 44  0  0  1  0  0  0  0  0999 V2000
  189.2630  177.8640  138.7320 N   0  0  0  0  0  0  0  0  0  0  0  0
  187.8030  176.6920  137.1320 C   0  0  0  0  0  0  0  0  0  0  0  0
  186.4700  174.1310  137.0700 C   0  0  0  0  0  2  0  0  0  0  0  0
  188.4560  175.5830  137.3790 C   0  0  0  0  0  0  0  0  0  0  0  0
  187.9030  174.4080  136.6380 C   0  0  2  0  0  3  0  0  0  0  0  0
  189.9280  176.7600  138.9520 C   0  0  0  0  0  0  0  0  0  0  0  0
  186.7320  176.4360  136.2330 N   0  0  0  0  0  0  0  0  0  0  0  0
  188.0050  177.9270  137.9720 C   0  0  1  0  0  3  0  0  0  0  0  0
  186.7260  175.0220  135.8640 C   0  0  2  0  0  3  0  0  0  0  0  0
  189.5230  175.5380  138.3230 N   0  0  0  0  0  2  0  0  0  0  0  0
  186.6540  178.0910  139.1220 Cl  0  0  0  0  0  0  0  0  0  0  0  0
  183.2930  177.7200  136.2670 N   0  0  0  0  0  0  0  0  0  0  0  0
  185.6230  177.2730  136.0270 N   0  0  0  0  0  2  0  0  0  0  0  0
  184.1120  176.1420  137.7800 C   0  0  0  0  0  2  0  0  0  0  0  0
  182.2820  177.2040  137.1130 C   0  0  1  0  0  3  0  0  0  0  0  0
  182.0690  176.3290  139.2260 C   0  0  0  0  0  3  0  0  0  0  0  0
  184.3420  177.0310  136.6120 C   0  0  0  0  0  0  0  0  0  0  0  0
  181.2080  177.2970  139.1030 N   0  0  0  0  0  0  0  0  0  0  0  0
  182.8070  176.2210  137.9760 C   0  0  2  0  0  3  0  0  0  0  0  0
  180.9460  179.1910  137.4770 N   0  0  0  0  0  1  0  0  0  0  0  0
  181.3680  177.8690  137.7960 C   0  0  1  0  0  3  0  0  0  0  0  0
  191.1590  176.7670  139.8070 C   0  0  1  0  0  3  0  0  0  0  0  0
  192.8910  175.4430  138.3170 O   0  0  0  0  0  1  0  0  0  0  0  0
  193.8990  177.1170  139.9330 O   0  0  0  0  0  1  0  0  0  0  0  0
  192.6550  176.8700  138.7970 S   0  0  0  0  0  3  0  0  0  0  0  0
  191.1430  177.9000  140.8360 C   0  0  0  0  0  2  0  0  0  0  0  0
  191.6580  177.0820  144.1360 C   0  0  0  0  0  2  0  0  0  0  0  0
  191.5290  175.8890  143.2320 C   0  0  0  0  0  2  0  0  0  0  0  0
  190.4750  176.1340  142.3380 O   0  0  0  0  0  0  0  0  0  0  0  0
  190.4300  177.5330  142.1410 C   0  0  1  0  0  0  0  0  0  0  0  0
  191.1710  178.2080  143.2780 C   0  0  0  0  0  2  0  0  0  0  0  0
  188.9950  178.0900  142.1270 C   0  0  0  0  0  2  0  0  0  0  0  0
  187.7890  177.3040  143.2630 P   0  0  2  0  0  0  0  0  0  0  0  0
  187.9740  175.8020  143.2870 O   0  0  0  0  0  1  0  0  0  0  0  0
  186.2360  177.6460  142.6880 O   0  0  0  0  0  0  0  0  0  0  0  0
  187.9290  177.9760  144.9550 C   0  0  1  0  0  3  0  0  0  0  0  0
  186.5580  178.1470  145.5760 C   0  0  0  0  0  1  0  0  0  0  0  0
  188.9490  177.6590  147.2110 C   0  0  0  0  0  1  0  0  0  0  0  0
  188.7660  177.0580  145.8300 C   0  0  0  0  0  2  0  0  0  0  0  0
  1  6  2  0  0  0  0
  2  4  2  0  0  0  0
  2  8  1  0  0  0  0
  4 10  1  0  0  0  0
  5  3  1  1  0  0  0
  5  4  1  0  0  0  0
  6 22  1  0  0  0  0
  7  2  1  0  0  0  0
  8  1  1  0  0  0  0
  8 11  1  1  0  0  0
  9  7  1  0  0  0  0
  9  5  1  0  0  0  0
  9  3  1  1  0  0  0
 10  6  1  0  0  0  0
 12 17  2  0  0  0  0
 13  7  1  0  0  0  0
 13 17  1  0  0  0  0
 15 12  1  1  0  0  0
 15 21  1  0  0  0  0
 15 19  1  0  0  0  0
 17 14  1  0  0  0  0
 18 16  2  0  0  0  0
 19 14  1  1  0  0  0
 19 16  1  0  0  0  0
 21 20  1  1  0  0  0
 21 18  1  0  0  0  0
 22 26  1  1  0  0  0
 23 25  1  0  0  0  0
 25 22  1  0  0  0  0
 25 24  1  0  0  0  0
 28 27  1  0  0  0  0
 29 28  1  0  0  0  0
 30 26  1  6  0  0  0
 30 29  1  0  0  0  0
 30 31  1  0  0  0  0
 31 27  1  0  0  0  0
 32 30  1  0  0  0  0
 32 33  1  0  0  0  0
 33 35  2  6  0  0  0
 33 34  1  0  0  0  0
 33 36  1  0  0  0  0
 36 37  1  1  0  0  0
 36 39  1  0  0  0  0
 39 38  1  0  0  0  0
M  END
>  <MODEL>
4

>  <REMARK>
 VINA RESULT:      -7.3      3.957      6.336
  Name = 
  9 active torsions:
  status: ('A' for Active; 'I' for Inactive)
    1  A    between atoms: P_1  and  C_10
    2  A    between atoms: P_1  and  C_22
    3  A    between atoms: N_6  and  N_24
    4  A    between atoms: C_7  and  C_26
    5  A    between atoms: C_7  and  C_35
    6  A    between atoms: C_10  and  C_39
    7  A    between atoms: C_18  and  C_35
    8  A    between atoms: C_22  and  C_26
    9  A    between atoms: S_33  and  C_35
                            x       y       z     vdW  Elec       q    Type
                         _______ _______ _______ _____ _____    ______ ____

>  <TORSDO>
F 9

$$$$
=
 OpenBabel11062417543D

 39 44  0  0  1  0  0  0  0  0999 V2000
  185.4240  177.8590  137.6120 N   0  0  0  0  0  0  0  0  0  0  0  0
  186.8930  175.9000  137.3370 C   0  0  0  0  0  0  0  0  0  0  0  0
  187.1760  173.8130  135.3610 C   0  0  0  0  0  2  0  0  0  0  0  0
  185.8580  175.2050  136.9330 C   0  0  0  0  0  0  0  0  0  0  0  0
  186.2160  173.8080  136.5420 C   0  0  2  0  0  3  0  0  0  0  0  0
  184.3910  177.1510  137.2350 C   0  0  0  0  0  0  0  0  0  0  0  0
  188.0700  175.1080  137.2600 N   0  0  0  0  0  0  0  0  0  0  0  0
  186.8170  177.3960  137.5100 C   0  0  1  0  0  3  0  0  0  0  0  0
  187.7340  173.7710  136.7760 C   0  0  2  0  0  3  0  0  0  0  0  0
  184.5630  175.7900  136.8210 N   0  0  0  0  0  2  0  0  0  0  0  0
  187.5790  178.1950  136.1110 Cl  0  0  0  0  0  0  0  0  0  0  0  0
  191.0940  176.9440  138.2410 N   0  0  0  0  0  0  0  0  0  0  0  0
  189.3860  175.6010  137.2590 N   0  0  0  0  0  2  0  0  0  0  0  0
  189.3760  176.3750  139.7160 C   0  0  0  0  0  2  0  0  0  0  0  0
  191.2760  177.5060  139.5280 C   0  0  1  0  0  3  0  0  0  0  0  0
  190.7420  177.0420  141.7130 C   0  0  0  0  0  3  0  0  0  0  0  0
  189.9390  176.3540  138.3410 C   0  0  0  0  0  0  0  0  0  0  0  0
  192.0250  177.2520  141.6490 N   0  0  0  0  0  0  0  0  0  0  0  0
  190.1950  177.1800  140.3720 C   0  0  2  0  0  3  0  0  0  0  0  0
  193.6790  177.3210  139.7620 N   0  0  0  0  0  1  0  0  0  0  0  0
  192.3640  177.5030  140.2760 C   0  0  1  0  0  3  0  0  0  0  0  0
  183.0080  177.7260  137.2950 C   0  0  1  0  0  3  0  0  0  0  0  0
  183.2350  177.7100  134.6640 O   0  0  0  0  0  1  0  0  0  0  0  0
  181.2170  178.9450  135.5760 O   0  0  0  0  0  1  0  0  0  0  0  0
  182.1480  177.5260  135.7170 S   0  0  0  0  0  3  0  0  0  0  0  0
  182.1760  177.1150  138.4250 C   0  0  0  0  0  2  0  0  0  0  0  0
  180.3160  179.0200  140.6020 C   0  0  0  0  0  2  0  0  0  0  0  0
  181.0590  179.8280  139.5760 C   0  0  0  0  0  2  0  0  0  0  0  0
  182.3510  179.2910  139.4520 O   0  0  0  0  0  0  0  0  0  0  0  0
  182.2410  177.9110  139.7330 C   0  0  1  0  0  0  0  0  0  0  0  0
  180.9480  177.6680  140.4860 C   0  0  0  0  0  2  0  0  0  0  0  0
  183.3930  177.3830  140.6080 C   0  0  0  0  0  2  0  0  0  0  0  0
  184.3130  178.6220  141.5990 P   0  0  2  0  0  0  0  0  0  0  0  0
  183.3700  179.4140  142.4790 O   0  0  0  0  0  1  0  0  0  0  0  0
  185.0700  179.6870  140.5250 O   0  0  0  0  0  0  0  0  0  0  0  0
  185.6050  177.8340  142.6210 C   0  0  1  0  0  3  0  0  0  0  0  0
  186.9840  178.2620  142.1620 C   0  0  0  0  0  1  0  0  0  0  0  0
  186.6160  177.7230  144.9010 C   0  0  0  0  0  1  0  0  0  0  0  0
  185.4280  178.1990  144.0860 C   0  0  0  0  0  2  0  0  0  0  0  0
  2  8  1  0  0  0  0
  4  2  2  0  0  0  0
  5  3  1  6  0  0  0
  5  9  1  0  0  0  0
  5  4  1  0  0  0  0
  6 22  1  0  0  0  0
  6  1  2  0  0  0  0
  7  2  1  0  0  0  0
  8 11  1  6  0  0  0
  8  1  1  0  0  0  0
  9  3  1  6  0  0  0
  9  7  1  0  0  0  0
 10  4  1  0  0  0  0
 10  6  1  0  0  0  0
 12 17  2  0  0  0  0
 13  7  1  0  0  0  0
 13 17  1  0  0  0  0
 15 12  1  6  0  0  0
 15 21  1  0  0  0  0
 15 19  1  0  0  0  0
 17 14  1  0  0  0  0
 18 16  2  0  0  0  0
 19 14  1  6  0  0  0
 19 16  1  0  0  0  0
 21 20  1  6  0  0  0
 21 18  1  0  0  0  0
 22 26  1  1  0  0  0
 23 25  1  0  0  0  0
 24 25  1  0  0  0  0
 25 22  1  0  0  0  0
 28 27  1  0  0  0  0
 29 28  1  0  0  0  0
 29 30  1  0  0  0  0
 30 26  1  6  0  0  0
 30 31  1  0  0  0  0
 30 32  1  0  0  0  0
 31 27  1  0  0  0  0
 32 33  1  0  0  0  0
 33 35  2  6  0  0  0
 33 34  1  0  0  0  0
 33 36  1  0  0  0  0
 36 37  1  6  0  0  0
 36 39  1  0  0  0  0
 39 38  1  0  0  0  0
M  END
>  <MODEL>
5

>  <REMARK>
 VINA RESULT:      -7.0      5.259      9.159
  Name = 
  9 active torsions:
  status: ('A' for Active; 'I' for Inactive)
    1  A    between atoms: P_1  and  C_10
    2  A    between atoms: P_1  and  C_22
    3  A    between atoms: N_6  and  N_24
    4  A    between atoms: C_7  and  C_26
    5  A    between atoms: C_7  and  C_35
    6  A    between atoms: C_10  and  C_39
    7  A    between atoms: C_18  and  C_35
    8  A    between atoms: C_22  and  C_26
    9  A    between atoms: S_33  and  C_35
                            x       y       z     vdW  Elec       q    Type
                         _______ _______ _______ _____ _____    ______ ____

>  <TORSDO>
F 9

$$$$
=
 OpenBabel11062417543D

 39 44  0  0  1  0  0  0  0  0999 V2000
  188.0080  178.5050  139.1020 N   0  0  0  0  0  0  0  0  0  0  0  0
  188.5220  176.8350  137.3650 C   0  0  0  0  0  0  0  0  0  0  0  0
  187.2680  175.9820  134.9080 C   0  0  0  0  0  2  0  0  0  0  0  0
  187.2530  176.5100  137.3300 C   0  0  0  0  0  0  0  0  0  0  0  0
  186.9500  175.4660  136.3040 C   0  0  2  0  0  3  0  0  0  0  0  0
  186.7490  178.1560  139.0810 C   0  0  0  0  0  0  0  0  0  0  0  0
  189.2400  176.0990  136.3840 N   0  0  0  0  0  0  0  0  0  0  0  0
  189.0020  178.0510  138.1160 C   0  0  1  0  0  3  0  0  0  0  0  0
  188.3280  175.2050  135.6730 C   0  0  2  0  0  3  0  0  0  0  0  0
  186.2900  177.1690  138.1490 N   0  0  0  0  0  2  0  0  0  0  0  0
  189.3090  179.3770  136.9660 Cl  0  0  0  0  0  0  0  0  0  0  0  0
  192.8880  176.3610  136.0720 N   0  0  0  0  0  0  0  0  0  0  0  0
  190.5120  176.4280  135.8870 N   0  0  0  0  0  2  0  0  0  0  0  0
  191.7980  174.6970  137.2970 C   0  0  0  0  0  2  0  0  0  0  0  0
  193.7880  175.5440  136.7990 C   0  0  1  0  0  3  0  0  0  0  0  0
  193.9220  173.3950  137.5960 C   0  0  0  0  0  3  0  0  0  0  0  0
  191.7240  175.9070  136.4360 C   0  0  0  0  0  0  0  0  0  0  0  0
  194.9970  173.6340  136.9020 N   0  0  0  0  0  0  0  0  0  0  0  0
  193.0890  174.5870  137.5620 C   0  0  2  0  0  3  0  0  0  0  0  0
  195.6260  175.3970  135.2290 N   0  0  0  0  0  1  0  0  0  0  0  0
  194.8950  174.9640  136.3720 C   0  0  1  0  0  3  0  0  0  0  0  0
  185.7810  178.7270  140.0730 C   0  0  1  0  0  3  0  0  0  0  0  0
  184.0130  180.4270  139.0930 O   0  0  0  0  0  1  0  0  0  0  0  0
  183.0760  178.6520  140.6440 O   0  0  0  0  0  1  0  0  0  0  0  0
  184.1390  178.9290  139.3420 S   0  0  0  0  0  3  0  0  0  0  0  0
  185.6880  177.8800  141.3440 C   0  0  0  0  0  2  0  0  0  0  0  0
  184.9410  178.6380  144.6150 C   0  0  0  0  0  2  0  0  0  0  0  0
  184.5550  179.7160  143.6420 C   0  0  0  0  0  2  0  0  0  0  0  0
  185.6010  179.8620  142.7170 O   0  0  0  0  0  0  0  0  0  0  0  0
  186.2110  178.5930  142.5960 C   0  0  1  0  0  0  0  0  0  0  0  0
  185.8310  177.7530  143.7990 C   0  0  0  0  0  2  0  0  0  0  0  0
  187.7480  178.6690  142.5480 C   0  0  0  0  0  2  0  0  0  0  0  0
  188.6680  177.4390  143.5500 P   0  0  2  0  0  0  0  0  0  0  0  0
  188.2190  176.0320  143.2190 O   0  0  0  0  0  0  0  0  0  0  0  0
  188.3310  177.7420  145.1800 O   0  0  0  0  0  1  0  0  0  0  0  0
  190.4710  177.5910  143.3050 C   0  0  1  0  0  3  0  0  0  0  0  0
  190.9950  178.8490  143.9690 C   0  0  0  0  0  1  0  0  0  0  0  0
  191.5730  176.6260  145.3260 C   0  0  0  0  0  1  0  0  0  0  0  0
  191.1950  176.3830  143.8770 C   0  0  0  0  0  2  0  0  0  0  0  0
  2  8  1  0  0  0  0
  4  2  2  0  0  0  0
  4 10  1  0  0  0  0
  5  3  1  6  0  0  0
  5  4  1  0  0  0  0
  6  1  2  0  0  0  0
  6 22  1  0  0  0  0
  7  2  1  0  0  0  0
  8 11  1  6  0  0  0
  8  1  1  0  0  0  0
  9  3  1  6  0  0  0
  9  5  1  0  0  0  0
  9  7  1  0  0  0  0
 10  6  1  0  0  0  0
 12 17  2  0  0  0  0
 13  7  1  0  0  0  0
 13 17  1  0  0  0  0
 15 12  1  6  0  0  0
 15 19  1  0  0  0  0
 17 14  1  0  0  0  0
 18 16  2  0  0  0  0
 19 14  1  6  0  0  0
 19 16  1  0  0  0  0
 21 20  1  6  0  0  0
 21 15  1  0  0  0  0
 21 18  1  0  0  0  0
 22 26  1  1  0  0  0
 23 25  1  0  0  0  0
 25 22  1  0  0  0  0
 25 24  1  0  0  0  0
 28 27  1  0  0  0  0
 29 28  1  0  0  0  0
 30 26  1  6  0  0  0
 30 29  1  0  0  0  0
 30 31  1  0  0  0  0
 31 27  1  0  0  0  0
 32 30  1  0  0  0  0
 32 33  1  0  0  0  0
 33 34  2  6  0  0  0
 33 35  1  0  0  0  0
 36 33  1  0  0  0  0
 36 39  1  0  0  0  0
 36 37  1  1  0  0  0
 39 38  1  0  0  0  0
M  END
>  <MODEL>
6

>  <REMARK>
 VINA RESULT:      -6.9      5.585      8.957
  Name = 
  9 active torsions:
  status: ('A' for Active; 'I' for Inactive)
    1  A    between atoms: P_1  and  C_10
    2  A    between atoms: P_1  and  C_22
    3  A    between atoms: N_6  and  N_24
    4  A    between atoms: C_7  and  C_26
    5  A    between atoms: C_7  and  C_35
    6  A    between atoms: C_10  and  C_39
    7  A    between atoms: C_18  and  C_35
    8  A    between atoms: C_22  and  C_26
    9  A    between atoms: S_33  and  C_35
                            x       y       z     vdW  Elec       q    Type
                         _______ _______ _______ _____ _____    ______ ____

>  <TORSDO>
F 9

$$$$
=
 OpenBabel11062417543D

 39 44  0  0  1  0  0  0  0  0999 V2000
  186.3970  178.6720  137.9560 N   0  0  0  0  0  0  0  0  0  0  0  0
  184.1510  177.7090  137.6420 C   0  0  0  0  0  0  0  0  0  0  0  0
  182.7500  175.4010  138.6650 C   0  0  0  0  0  2  0  0  0  0  0  0
  184.6900  176.5160  137.5980 C   0  0  0  0  0  0  0  0  0  0  0  0
  183.6760  175.4270  137.4580 C   0  0  2  0  0  3  0  0  0  0  0  0
  186.9310  177.4800  137.8830 C   0  0  0  0  0  0  0  0  0  0  0  0
  182.7360  177.6070  137.5620 N   0  0  0  0  0  0  0  0  0  0  0  0
  184.9500  178.9190  138.0580 C   0  0  1  0  0  3  0  0  0  0  0  0
  182.3500  176.2040  137.4360 C   0  0  2  0  0  3  0  0  0  0  0  0
  186.0950  176.3240  137.7520 N   0  0  0  0  0  2  0  0  0  0  0  0
  184.5630  179.3350  139.7460 Cl  0  0  0  0  0  0  0  0  0  0  0  0
  180.2290  179.4890  139.4720 N   0  0  0  0  0  0  0  0  0  0  0  0
  181.8240  178.6090  137.9340 N   0  0  0  0  0  2  0  0  0  0  0  0
  181.6900  177.9320  140.4160 C   0  0  0  0  0  2  0  0  0  0  0  0
  179.9510  179.2430  140.8380 C   0  0  1  0  0  3  0  0  0  0  0  0
  181.0620  178.6150  142.7480 C   0  0  0  0  0  3  0  0  0  0  0  0
  181.1950  178.6560  139.2160 C   0  0  0  0  0  0  0  0  0  0  0  0
  180.4040  179.7080  143.0070 N   0  0  0  0  0  0  0  0  0  0  0  0
  180.8220  178.2630  141.3560 C   0  0  2  0  0  3  0  0  0  0  0  0
  179.3240  181.4630  141.5740 N   0  0  0  0  0  1  0  0  0  0  0  0
  179.7410  180.1210  141.8020 C   0  0  1  0  0  3  0  0  0  0  0  0
  188.4200  177.3090  137.8650 C   0  0  1  0  0  3  0  0  0  0  0  0
  187.9810  177.8150  135.3100 O   0  0  0  0  0  1  0  0  0  0  0  0
  190.1720  176.6500  135.8290 O   0  0  0  0  0  1  0  0  0  0  0  0
  189.1270  177.9050  136.3100 S   0  0  0  0  0  3  0  0  0  0  0  0
  189.0960  178.0050  139.0480 C   0  0  0  0  0  2  0  0  0  0  0  0
  192.3420  177.1870  139.8350 C   0  0  0  0  0  2  0  0  0  0  0  0
  191.7580  176.3460  138.7360 C   0  0  0  0  0  2  0  0  0  0  0  0
  190.4450  176.0050  139.1010 O   0  0  0  0  0  0  0  0  0  0  0  0
  189.9610  177.0670  139.8970 C   0  0  1  0  0  0  0  0  0  0  0  0
  191.1410  177.8670  140.4130 C   0  0  0  0  0  2  0  0  0  0  0  0
  189.1590  176.5820  141.1190 C   0  0  0  0  0  2  0  0  0  0  0  0
  188.4640  177.8740  142.2190 P   0  0  2  0  0  0  0  0  0  0  0  0
  187.7320  178.9270  141.4150 O   0  0  0  0  0  0  0  0  0  0  0  0
  189.7530  178.6130  143.0280 O   0  0  0  0  0  1  0  0  0  0  0  0
  187.3450  177.1560  143.4710 C   0  0  1  0  0  3  0  0  0  0  0  0
  188.0010  177.1570  144.8360 C   0  0  0  0  0  1  0  0  0  0  0  0
  185.7040  178.2820  144.9760 C   0  0  0  0  0  1  0  0  0  0  0  0
  186.0430  177.9370  143.5390 C   0  0  0  0  0  2  0  0  0  0  0  0
  1  8  1  0  0  0  0
  2  8  1  0  0  0  0
  4  2  2  0  0  0  0
  4 10  1  0  0  0  0
  5  4  1  0  0  0  0
  5  3  1  1  0  0  0
  6  1  2  0  0  0  0
  7  2  1  0  0  0  0
  7 13  1  0  0  0  0
  8 11  1  1  0  0  0
  9  5  1  0  0  0  0
  9  7  1  0  0  0  0
  9  3  1  1  0  0  0
 10  6  1  0  0  0  0
 13 17  1  0  0  0  0
 15 12  1  6  0  0  0
 15 19  1  0  0  0  0
 15 21  1  0  0  0  0
 16 18  2  0  0  0  0
 17 12  2  0  0  0  0
 17 14  1  0  0  0  0
 19 14  1  6  0  0  0
 19 16  1  0  0  0  0
 21 20  1  6  0  0  0
 21 18  1  0  0  0  0
 22  6  1  0  0  0  0
 22 26  1  1  0  0  0
 23 25  1  0  0  0  0
 24 25  1  0  0  0  0
 25 22  1  0  0  0  0
 27 31  1  0  0  0  0
 28 29  1  0  0  0  0
 28 27  1  0  0  0  0
 29 30  1  0  0  0  0
 30 26  1  6  0  0  0
 30 31  1  0  0  0  0
 30 32  1  0  0  0  0
 32 33  1  0  0  0  0
 33 34  2  6  0  0  0
 33 35  1  0  0  0  0
 33 36  1  0  0  0  0
 36 39  1  0  0  0  0
 36 37  1  1  0  0  0
 39 38  1  0  0  0  0
M  END
>  <MODEL>
7

>  <REMARK>
 VINA RESULT:      -6.8      3.451      5.639
  Name = 
  9 active torsions:
  status: ('A' for Active; 'I' for Inactive)
    1  A    between atoms: P_1  and  C_10
    2  A    between atoms: P_1  and  C_22
    3  A    between atoms: N_6  and  N_24
    4  A    between atoms: C_7  and  C_26
    5  A    between atoms: C_7  and  C_35
    6  A    between atoms: C_10  and  C_39
    7  A    between atoms: C_18  and  C_35
    8  A    between atoms: C_22  and  C_26
    9  A    between atoms: S_33  and  C_35
                            x       y       z     vdW  Elec       q    Type
                         _______ _______ _______ _____ _____    ______ ____

>  <TORSDO>
F 9

$$$$
=
 OpenBabel11062417543D

 39 44  0  0  1  0  0  0  0  0999 V2000
  184.9620  178.1450  142.0250 N   0  0  0  0  0  0  0  0  0  0  0  0
  182.5400  178.2790  141.5930 C   0  0  0  0  0  0  0  0  0  0  0  0
  180.4230  180.0950  142.3390 C   0  0  0  0  0  2  0  0  0  0  0  0
  182.3570  178.6270  142.8430 C   0  0  0  0  0  0  0  0  0  0  0  0
  180.9240  178.9150  143.1590 C   0  0  2  0  0  3  0  0  0  0  0  0
  184.7680  178.4670  143.2770 C   0  0  0  0  0  0  0  0  0  0  0  0
  181.3020  178.2990  140.8960 N   0  0  0  0  0  0  0  0  0  0  0  0
  183.9200  178.2160  140.9880 C   0  0  1  0  0  3  0  0  0  0  0  0
  180.2280  178.6820  141.8090 C   0  0  2  0  0  3  0  0  0  0  0  0
  183.4500  178.7800  143.7450 N   0  0  0  0  0  2  0  0  0  0  0  0
  184.2010  179.6710  139.9990 Cl  0  0  0  0  0  0  0  0  0  0  0  0
  181.4420  177.3320  137.3570 N   0  0  0  0  0  0  0  0  0  0  0  0
  181.1530  178.3390  139.4990 N   0  0  0  0  0  2  0  0  0  0  0  0
  181.4920  175.8120  139.1290 C   0  0  0  0  0  2  0  0  0  0  0  0
  181.6740  176.0040  136.9260 C   0  0  1  0  0  3  0  0  0  0  0  0
  181.1890  173.8580  137.5830 C   0  0  0  0  0  3  0  0  0  0  0  0
  181.4190  177.2180  138.6530 C   0  0  0  0  0  0  0  0  0  0  0  0
  180.8140  173.9930  136.3440 N   0  0  0  0  0  0  0  0  0  0  0  0
  181.7460  175.1270  138.0270 C   0  0  2  0  0  3  0  0  0  0  0  0
  180.4090  175.9760  134.8610 N   0  0  0  0  0  1  0  0  0  0  0  0
  181.0810  175.3460  135.9460 C   0  0  1  0  0  3  0  0  0  0  0  0
  185.9030  178.4460  144.2560 C   0  0  1  0  0  3  0  0  0  0  0  0
  185.6700  179.9020  146.4470 O   0  0  0  0  0  1  0  0  0  0  0  0
  186.3680  177.4910  146.8090 O   0  0  0  0  0  1  0  0  0  0  0  0
  185.2980  178.5070  145.9590 S   0  0  0  0  0  3  0  0  0  0  0  0
  186.8090  177.2280  144.0650 C   0  0  0  0  0  2  0  0  0  0  0  0
  190.0630  176.7090  145.0490 C   0  0  0  0  0  2  0  0  0  0  0  0
  189.4400  177.9370  145.6490 C   0  0  0  0  0  2  0  0  0  0  0  0
  188.7140  178.5920  144.6420 O   0  0  0  0  0  0  0  0  0  0  0  0
  188.2650  177.5900  143.7520 C   0  0  1  0  0  0  0  0  0  0  0  0
  189.1050  176.3450  143.9580 C   0  0  0  0  0  2  0  0  0  0  0  0
  188.3950  177.9980  142.2730 C   0  0  0  0  0  2  0  0  0  0  0  0
  189.9240  177.4820  141.4030 P   0  0  2  0  0  0  0  0  0  0  0  0
  190.1740  176.0010  141.5890 O   0  0  0  0  0  0  0  0  0  0  0  0
  191.2180  178.3350  142.0800 O   0  0  0  0  0  1  0  0  0  0  0  0
  189.8480  177.8830  139.6240 C   0  0  1  0  0  3  0  0  0  0  0  0
  190.5980  176.8480  138.8110 C   0  0  0  0  0  1  0  0  0  0  0  0
  188.1350  176.8610  138.1240 C   0  0  0  0  0  1  0  0  0  0  0  0
  188.4060  177.9460  139.1480 C   0  0  0  0  0  2  0  0  0  0  0  0
  1  6  2  0  0  0  0
  2  4  2  0  0  0  0
  4  5  1  0  0  0  0
  4 10  1  0  0  0  0
  5  3  1  6  0  0  0
  6 10  1  0  0  0  0
  6 22  1  0  0  0  0
  7  2  1  0  0  0  0
  7  9  1  0  0  0  0
  8 11  1  1  0  0  0
  8  2  1  0  0  0  0
  8  1  1  0  0  0  0
  9  3  1  6  0  0  0
  9  5  1  0  0  0  0
 12 17  2  0  0  0  0
 13  7  1  0  0  0  0
 15 12  1  1  0  0  0
 15 19  1  0  0  0  0
 17 14  1  0  0  0  0
 17 13  1  0  0  0  0
 18 16  2  0  0  0  0
 19 16  1  6  0  0  0
 19 14  1  0  0  0  0
 21 20  1  1  0  0  0
 21 18  1  0  0  0  0
 21 15  1  0  0  0  0
 22 26  1  1  0  0  0
 22 25  1  0  0  0  0
 25 23  1  0  0  0  0
 25 24  1  0  0  0  0
 27 28  1  0  0  0  0
 29 28  1  0  0  0  0
 30 32  1  6  0  0  0
 30 31  1  0  0  0  0
 30 26  1  0  0  0  0
 30 29  1  0  0  0  0
 31 27  1  0  0  0  0
 33 34  2  1  0  0  0
 33 35  1  0  0  0  0
 33 32  1  0  0  0  0
 36 37  1  6  0  0  0
 36 33  1  0  0  0  0
 38 39  1  0  0  0  0
 39 36  1  0  0  0  0
M  END
>  <MODEL>
8

>  <REMARK>
 VINA RESULT:      -6.8      2.441      4.367
  Name = 
  9 active torsions:
  status: ('A' for Active; 'I' for Inactive)
    1  A    between atoms: P_1  and  C_10
    2  A    between atoms: P_1  and  C_22
    3  A    between atoms: N_6  and  N_24
    4  A    between atoms: C_7  and  C_26
    5  A    between atoms: C_7  and  C_35
    6  A    between atoms: C_10  and  C_39
    7  A    between atoms: C_18  and  C_35
    8  A    between atoms: C_22  and  C_26
    9  A    between atoms: S_33  and  C_35
                            x       y       z     vdW  Elec       q    Type
                         _______ _______ _______ _____ _____    ______ ____

>  <TORSDO>
F 9

$$$$
=
 OpenBabel11062417543D

 39 44  0  0  1  0  0  0  0  0999 V2000
  185.2720  177.2110  136.7050 N   0  0  0  0  0  0  0  0  0  0  0  0
  186.4850  175.0790  136.9320 C   0  0  0  0  0  0  0  0  0  0  0  0
  185.9560  172.3340  136.2080 C   0  0  0  0  0  2  0  0  0  0  0  0
  185.3600  174.4970  137.2640 C   0  0  0  0  0  0  0  0  0  0  0  0
  185.5120  173.0270  137.4880 C   0  0  2  0  0  3  0  0  0  0  0  0
  184.1580  176.6290  137.0640 C   0  0  0  0  0  0  0  0  0  0  0  0
  187.5290  174.1170  136.8640 N   0  0  0  0  0  0  0  0  0  0  0  0
  186.5130  176.4860  136.3900 C   0  0  1  0  0  3  0  0  0  0  0  0
  187.0060  172.7970  137.2080 C   0  0  2  0  0  3  0  0  0  0  0  0
  184.1310  175.2180  137.3130 N   0  0  0  0  0  2  0  0  0  0  0  0
  186.7090  176.4370  134.6200 Cl  0  0  0  0  0  0  0  0  0  0  0  0
  190.8050  175.4820  135.9240 N   0  0  0  0  0  0  0  0  0  0  0  0
  188.7580  174.2920  136.2050 N   0  0  0  0  0  2  0  0  0  0  0  0
  189.8120  175.7920  138.0150 C   0  0  0  0  0  2  0  0  0  0  0  0
  191.5370  176.3720  136.7460 C   0  0  1  0  0  3  0  0  0  0  0  0
  191.9210  176.7530  138.9780 C   0  0  0  0  0  3  0  0  0  0  0  0
  189.7560  175.2140  136.6470 C   0  0  0  0  0  0  0  0  0  0  0  0
  193.0750  176.6530  138.3840 N   0  0  0  0  0  0  0  0  0  0  0  0
  190.8800  176.5690  137.9780 C   0  0  2  0  0  3  0  0  0  0  0  0
  193.8060  175.7640  136.1530 N   0  0  0  0  0  1  0  0  0  0  0  0
  192.8340  176.3750  136.9960 C   0  0  1  0  0  3  0  0  0  0  0  0
  182.9130  177.4330  137.2880 C   0  0  1  0  0  3  0  0  0  0  0  0
  182.7460  177.8400  134.6840 O   0  0  0  0  0  1  0  0  0  0  0  0
  180.8080  178.7340  136.0530 O   0  0  0  0  0  1  0  0  0  0  0  0
  181.8430  177.4000  135.8300 S   0  0  0  0  0  3  0  0  0  0  0  0
  182.1350  176.9630  138.5190 C   0  0  0  0  0  2  0  0  0  0  0  0
  180.4580  179.1660  140.5590 C   0  0  0  0  0  2  0  0  0  0  0  0
  181.1860  179.8290  139.4250 C   0  0  0  0  0  2  0  0  0  0  0  0
  182.4470  179.2230  139.3040 O   0  0  0  0  0  0  0  0  0  0  0  0
  182.2930  177.8860  139.7330 C   0  0  1  0  0  0  0  0  0  0  0  0
  181.0270  177.7820  140.5600 C   0  0  0  0  0  2  0  0  0  0  0  0
  183.4620  177.3980  140.6090 C   0  0  0  0  0  2  0  0  0  0  0  0
  184.2450  178.6400  141.7090 P   0  0  2  0  0  0  0  0  0  0  0  0
  183.1980  179.3920  142.5020 O   0  0  0  0  0  1  0  0  0  0  0  0
  185.0770  179.7430  140.7330 O   0  0  0  0  0  0  0  0  0  0  0  0
  185.4480  177.8640  142.8420 C   0  0  1  0  0  3  0  0  0  0  0  0
  186.8640  178.2340  142.4520 C   0  0  0  0  0  1  0  0  0  0  0  0
  186.4530  178.1560  145.1090 C   0  0  0  0  0  1  0  0  0  0  0  0
  185.1930  178.2990  144.2760 C   0  0  0  0  0  2  0  0  0  0  0  0
  1  6  2  0  0  0  0
  2  4  2  0  0  0  0
  4 10  1  0  0  0  0
  4  5  1  0  0  0  0
  5  3  1  6  0  0  0
  6 22  1  0  0  0  0
  6 10  1  0  0  0  0
  7  2  1  0  0  0  0
  7  9  1  0  0  0  0
  8 11  1  6  0  0  0
  8  1  1  0  0  0  0
  8  2  1  0  0  0  0
  9  3  1  6  0  0  0
  9  5  1  0  0  0  0
 12 17  2  0  0  0  0
 13 17  1  0  0  0  0
 13  7  1  0  0  0  0
 15 12  1  1  0  0  0
 15 21  1  0  0  0  0
 15 19  1  0  0  0  0
 17 14  1  0  0  0  0
 18 16  2  0  0  0  0
 19 14  1  1  0  0  0
 19 16  1  0  0  0  0
 21 20  1  1  0  0  0
 21 18  1  0  0  0  0
 22 26  1  1  0  0  0
 23 25  1  0  0  0  0
 25 24  1  0  0  0  0
 25 22  1  0  0  0  0
 27 31  1  0  0  0  0
 28 27  1  0  0  0  0
 29 28  1  0  0  0  0
 29 30  1  0  0  0  0
 30 26  1  6  0  0  0
 30 31  1  0  0  0  0
 30 32  1  0  0  0  0
 32 33  1  0  0  0  0
 33 35  2  6  0  0  0
 33 34  1  0  0  0  0
 33 36  1  0  0  0  0
 36 37  1  6  0  0  0
 36 39  1  0  0  0  0
 39 38  1  0  0  0  0
M  END
>  <MODEL>
9

>  <REMARK>
 VINA RESULT:      -6.5      5.845      9.283
  Name = 
  9 active torsions:
  status: ('A' for Active; 'I' for Inactive)
    1  A    between atoms: P_1  and  C_10
    2  A    between atoms: P_1  and  C_22
    3  A    between atoms: N_6  and  N_24
    4  A    between atoms: C_7  and  C_26
    5  A    between atoms: C_7  and  C_35
    6  A    between atoms: C_10  and  C_39
    7  A    between atoms: C_18  and  C_35
    8  A    between atoms: C_22  and  C_26
    9  A    between atoms: S_33  and  C_35
                            x       y       z     vdW  Elec       q    Type
                         _______ _______ _______ _____ _____    ______ ____

>  <TORSDO>
F 9

$$$$
