=
 OpenBabel11062416093D

 43 45  0  0  1  0  0  0  0  0999 V2000
  188.7700  176.7900  144.2880 C   0  0  0  0  0  2  0  0  0  0  0  0
  184.8970  179.6520  145.0060 C   0  0  0  0  0  2  0  0  0  0  0  0
  185.0890  179.0740  141.6940 C   0  0  0  0  0  2  0  0  0  0  0  0
  187.0190  177.4620  141.7260 C   0  0  0  0  0  2  0  0  0  0  0  0
  185.7430  178.3910  144.9530 C   0  0  0  0  0  2  0  0  0  0  0  0
  186.5990  178.9290  141.8050 C   0  0  0  0  0  2  0  0  0  0  0  0
  187.6990  177.1150  147.7460 F   0  0  0  0  0  0  0  0  0  0  0  0
  187.3880  177.3020  146.4110 C   0  0  1  0  0  3  0  0  0  0  0  0
  188.5360  177.2880  141.8460 C   0  0  2  0  0  3  0  0  0  0  0  0
  186.4600  178.4950  146.2560 C   0  0  0  0  0  2  0  0  0  0  0  0
  184.7920  179.0790  144.2760 C   0  0  0  0  0  0  0  0  0  0  0  0
  189.5530  178.1730  146.0310 O   0  0  0  0  0  0  0  0  0  0  0  0
  189.0350  177.8060  143.1880 C   0  0  0  0  0  2  0  0  0  0  0  0
  188.6400  177.4790  145.6080 C   0  0  0  0  0  0  0  0  0  0  0  0
  184.3570  178.4320  142.8740 C   0  0  1  0  0  3  0  0  0  0  0  0
  182.2280  179.4670  143.3470 O   0  0  0  0  0  1  0  0  0  0  0  0
  182.8440  178.4310  142.6430 C   0  0  1  0  0  3  0  0  0  0  0  0
  182.4360  178.3750  141.1920 C   0  0  0  0  0  0  0  0  0  0  0  0
  181.4750  179.2790  140.6030 N   0  0  0  0  0  0  0  0  0  0  0  0
  183.0060  177.5190  140.4620 O   0  0  0  0  0  0  0  0  0  0  0  0
  181.4300  179.4080  139.1450 C   0  0  0  0  0  3  0  0  0  0  0  0
  182.6910  180.1000  138.6530 C   0  0  0  0  0  2  0  0  0  0  0  0
  181.3970  180.8730  138.7350 C   0  0  0  0  0  2  0  0  0  0  0  0
  180.3080  179.7190  141.3600 C   0  0  0  0  0  2  0  0  0  0  0  0
  179.0730  178.9440  140.9310 C   0  0  0  0  0  2  0  0  0  0  0  0
  179.2190  176.4370  140.9220 C   0  0  0  0  0  0  0  0  0  0  0  0
  179.5170  176.4280  139.5290 N   0  0  0  0  0  1  0  0  0  0  0  0
  179.1170  175.3490  141.5430 O   0  0  0  0  0  0  0  0  0  0  0  0
  179.0310  177.6670  141.6190 N   0  0  0  0  0  2  0  0  0  0  0  0
  189.2920  177.9850  140.7160 C   0  0  0  0  0  2  0  0  0  0  0  0
  190.7680  176.4490  137.4960 C   0  0  0  0  0  2  0  0  0  0  0  0
  188.4370  177.9850  138.3250 C   0  0  1  0  0  3  0  0  0  0  0  0
  190.1720  174.0730  137.4120 N   0  0  0  0  0  1  0  0  0  0  0  0
  190.6110  176.7310  138.9950 C   0  0  0  0  0  2  0  0  0  0  0  0
  189.2100  177.2020  139.4110 C   0  0  1  0  0  3  0  0  0  0  0  0
  188.3230  175.6600  137.2470 C   0  0  0  0  0  2  0  0  0  0  0  0
  189.1860  179.2200  137.8380 C   0  0  0  0  0  1  0  0  0  0  0  0
  189.8010  175.3970  136.9390 C   0  0  1  0  0  3  0  0  0  0  0  0
  187.9270  177.1410  137.1340 C   0  0  1  0  0  3  0  0  0  0  0  0
  185.8340  178.1040  138.1420 C   0  0  0  0  0  1  0  0  0  0  0  0
  186.4020  177.2700  137.0020 C   0  0  2  0  0  3  0  0  0  0  0  0
  185.7250  175.9040  137.0100 C   0  0  0  0  0  2  0  0  0  0  0  0
  184.2140  176.0580  137.0270 C   0  0  0  0  0  1  0  0  0  0  0  0
  1 14  1  0  0  0  0
  3  6  1  0  0  0  0
  3 15  1  0  0  0  0
  4  6  1  0  0  0  0
  4  9  1  0  0  0  0
  5 10  1  0  0  0  0
  8  7  1  1  0  0  0
  9 30  1  6  0  0  0
  9 13  1  0  0  0  0
 10  8  1  0  0  0  0
 11  5  1  0  0  0  0
 11  2  2  0  0  0  0
 13  1  1  0  0  0  0
 14 12  2  0  0  0  0
 14  8  1  0  0  0  0
 15 17  1  6  0  0  0
 15 11  1  0  0  0  0
 17 16  1  6  0  0  0
 18 17  1  0  0  0  0
 19 18  1  0  0  0  0
 19 24  1  0  0  0  0
 20 18  2  0  0  0  0
 21 19  1  0  0  0  0
 22 23  1  0  0  0  0
 22 21  1  0  0  0  0
 23 21  1  0  0  0  0
 25 24  1  0  0  0  0
 25 29  1  0  0  0  0
 26 28  2  0  0  0  0
 26 29  1  0  0  0  0
 27 26  1  0  0  0  0
 31 34  1  0  0  0  0
 32 37  1  6  0  0  0
 32 35  1  0  0  0  0
 34 35  1  0  0  0  0
 35 30  1  1  0  0  0
 38 36  1  0  0  0  0
 38 33  1  1  0  0  0
 38 31  1  0  0  0  0
 39 41  1  1  0  0  0
 39 36  1  0  0  0  0
 39 32  1  0  0  0  0
 41 42  1  0  0  0  0
 41 40  1  1  0  0  0
 42 43  1  0  0  0  0
M  END
>  <MODEL>
1

>  <REMARK>
 VINA RESULT:      -8.6      0.000      0.000
  Name = 
  10 active torsions:
  status: ('A' for Active; 'I' for Inactive)
    1  A    between atoms: C_3  and  C_17
    2  A    between atoms: C_3  and  C_28
    3  A    between atoms: C_11  and  C_27
    4  A    between atoms: C_13  and  C_34
    5  A    between atoms: C_13  and  C_43
    6  A    between atoms: C_15  and  N_24
    7  A    between atoms: N_22  and  C_38
    8  A    between atoms: N_24  and  C_33
    9  A    between atoms: C_27  and  C_42
   10  A    between atoms: C_33  and  C_38
                            x       y       z     vdW  Elec       q    Type
                         _______ _______ _______ _____ _____    ______ ____

>  <TORSDO>
F 10

$$$$
=
 OpenBabel11062416093D

 43 45  0  0  1  0  0  0  0  0999 V2000
  186.4910  177.3990  137.4650 C   0  0  0  0  0  2  0  0  0  0  0  0
  189.9790  177.8090  140.8380 C   0  0  0  0  0  2  0  0  0  0  0  0
  187.0410  178.3380  142.3950 C   0  0  0  0  0  2  0  0  0  0  0  0
  185.5180  177.8680  140.4500 C   0  0  0  0  0  2  0  0  0  0  0  0
  188.9930  177.1550  139.8840 C   0  0  0  0  0  2  0  0  0  0  0  0
  186.4520  178.8850  141.1040 C   0  0  0  0  0  2  0  0  0  0  0  0
  189.7750  176.2090  136.4570 F   0  0  0  0  0  0  0  0  0  0  0  0
  188.9480  176.5950  137.4960 C   0  0  1  0  0  3  0  0  0  0  0  0
  184.9200  178.3910  139.1410 C   0  0  2  0  0  3  0  0  0  0  0  0
  189.7720  177.2120  138.6140 C   0  0  0  0  0  2  0  0  0  0  0  0
  189.1770  177.4820  141.1860 C   0  0  0  0  0  0  0  0  0  0  0  0
  188.2020  178.4380  136.2160 O   0  0  0  0  0  0  0  0  0  0  0  0
  186.0150  178.6830  138.1240 C   0  0  0  0  0  2  0  0  0  0  0  0
  187.9050  177.5490  137.0000 C   0  0  0  0  0  0  0  0  0  0  0  0
  187.9460  177.1290  142.1540 C   0  0  1  0  0  3  0  0  0  0  0  0
  189.3910  175.5580  143.2800 O   0  0  0  0  0  1  0  0  0  0  0  0
  188.3720  176.4910  143.4780 C   0  0  1  0  0  3  0  0  0  0  0  0
  188.6790  177.4810  144.5740 C   0  0  0  0  0  0  0  0  0  0  0  0
  187.9000  177.5860  145.7870 N   0  0  0  0  0  0  0  0  0  0  0  0
  189.6960  178.2120  144.4280 O   0  0  0  0  0  0  0  0  0  0  0  0
  188.4800  178.2790  146.9390 C   0  0  0  0  0  3  0  0  0  0  0  0
  189.5960  177.4360  147.5350 C   0  0  0  0  0  2  0  0  0  0  0  0
  188.2490  177.4850  148.2160 C   0  0  0  0  0  2  0  0  0  0  0  0
  186.4510  177.4140  145.7560 C   0  0  0  0  0  2  0  0  0  0  0  0
  185.7530  178.7300  146.0560 C   0  0  0  0  0  2  0  0  0  0  0  0
  183.5960  179.1070  144.8270 C   0  0  0  0  0  0  0  0  0  0  0  0
  184.2770  179.7810  143.7740 N   0  0  0  0  0  1  0  0  0  0  0  0
  182.3450  178.9920  144.7870 O   0  0  0  0  0  0  0  0  0  0  0  0
  184.3170  178.5640  145.9320 N   0  0  0  0  0  2  0  0  0  0  0  0
  184.0700  179.6440  139.3500 C   0  0  0  0  0  2  0  0  0  0  0  0
  180.3960  180.7280  138.8680 C   0  0  0  0  0  2  0  0  0  0  0  0
  181.8950  178.4430  139.8710 C   0  0  1  0  0  3  0  0  0  0  0  0
  179.7480  180.3030  136.5440 N   0  0  0  0  0  1  0  0  0  0  0  0
  181.9230  180.7780  138.7360 C   0  0  0  0  0  2  0  0  0  0  0  0
  182.6230  179.4250  138.9250 C   0  0  1  0  0  3  0  0  0  0  0  0
  180.2500  178.3390  137.9040 C   0  0  0  0  0  2  0  0  0  0  0  0
  181.6700  179.0160  141.2650 C   0  0  0  0  0  1  0  0  0  0  0  0
  179.7010  179.7690  137.8950 C   0  0  1  0  0  3  0  0  0  0  0  0
  180.5940  177.8220  139.3110 C   0  0  1  0  0  3  0  0  0  0  0  0
  179.7910  175.6860  140.3670 C   0  0  0  0  0  1  0  0  0  0  0  0
  180.6930  176.2900  139.2990 C   0  0  2  0  0  3  0  0  0  0  0  0
  182.1240  175.8230  139.5450 C   0  0  0  0  0  2  0  0  0  0  0  0
  182.7640  175.3590  138.2480 C   0  0  0  0  0  1  0  0  0  0  0  0
  1 13  1  0  0  0  0
  2 11  2  0  0  0  0
  4  6  1  0  0  0  0
  5 11  1  0  0  0  0
  6  3  1  0  0  0  0
  8  7  1  6  0  0  0
  8 10  1  0  0  0  0
  9 30  1  1  0  0  0
  9  4  1  0  0  0  0
 10  5  1  0  0  0  0
 11 15  1  0  0  0  0
 12 14  2  0  0  0  0
 13  9  1  0  0  0  0
 14  1  1  0  0  0  0
 14  8  1  0  0  0  0
 15  3  1  0  0  0  0
 15 17  1  1  0  0  0
 17 16  1  6  0  0  0
 17 18  1  0  0  0  0
 18 19  1  0  0  0  0
 19 21  1  0  0  0  0
 20 18  2  0  0  0  0
 21 22  1  0  0  0  0
 21 23  1  0  0  0  0
 22 23  1  0  0  0  0
 24 19  1  0  0  0  0
 24 25  1  0  0  0  0
 26 29  1  0  0  0  0
 27 26  1  0  0  0  0
 28 26  2  0  0  0  0
 29 25  1  0  0  0  0
 32 37  1  1  0  0  0
 34 31  1  0  0  0  0
 34 35  1  0  0  0  0
 35 30  1  1  0  0  0
 35 32  1  0  0  0  0
 36 39  1  0  0  0  0
 38 33  1  6  0  0  0
 38 36  1  0  0  0  0
 38 31  1  0  0  0  0
 39 41  1  6  0  0  0
 39 32  1  0  0  0  0
 41 42  1  0  0  0  0
 41 40  1  1  0  0  0
 43 42  1  0  0  0  0
M  END
>  <MODEL>
2

>  <REMARK>
 VINA RESULT:      -8.2      3.111      7.807
  Name = 
  10 active torsions:
  status: ('A' for Active; 'I' for Inactive)
    1  A    between atoms: C_3  and  C_17
    2  A    between atoms: C_3  and  C_28
    3  A    between atoms: C_11  and  C_27
    4  A    between atoms: C_13  and  C_34
    5  A    between atoms: C_13  and  C_43
    6  A    between atoms: C_15  and  N_24
    7  A    between atoms: N_22  and  C_38
    8  A    between atoms: N_24  and  C_33
    9  A    between atoms: C_27  and  C_42
   10  A    between atoms: C_33  and  C_38
                            x       y       z     vdW  Elec       q    Type
                         _______ _______ _______ _____ _____    ______ ____

>  <TORSDO>
F 10

$$$$
=
 OpenBabel11062416093D

 43 45  0  0  1  0  0  0  0  0999 V2000
  188.8050  176.7710  144.3480 C   0  0  0  0  0  2  0  0  0  0  0  0
  184.8850  179.6600  144.4220 C   0  0  0  0  0  2  0  0  0  0  0  0
  185.5040  178.9270  141.1940 C   0  0  0  0  0  2  0  0  0  0  0  0
  187.4040  177.3200  141.5520 C   0  0  0  0  0  2  0  0  0  0  0  0
  185.7250  178.3980  144.5390 C   0  0  0  0  0  2  0  0  0  0  0  0
  186.9860  178.7880  141.5070 C   0  0  0  0  0  2  0  0  0  0  0  0
  187.2940  177.2580  147.6190 F   0  0  0  0  0  0  0  0  0  0  0  0
  187.1610  177.3810  146.2480 C   0  0  1  0  0  3  0  0  0  0  0  0
  188.8920  177.1530  141.8760 C   0  0  2  0  0  3  0  0  0  0  0  0
  186.2670  178.5650  145.9170 C   0  0  0  0  0  2  0  0  0  0  0  0
  184.8730  179.0530  143.7120 C   0  0  0  0  0  0  0  0  0  0  0  0
  189.3610  178.2360  146.1120 O   0  0  0  0  0  0  0  0  0  0  0  0
  189.2160  177.7340  143.2460 C   0  0  0  0  0  2  0  0  0  0  0  0
  188.5080  177.5220  145.6070 C   0  0  0  0  0  0  0  0  0  0  0  0
  184.6210  178.3400  142.2970 C   0  0  1  0  0  3  0  0  0  0  0  0
  182.3620  179.0450  142.7710 O   0  0  0  0  0  1  0  0  0  0  0  0
  183.1510  178.3270  141.8720 C   0  0  1  0  0  3  0  0  0  0  0  0
  182.9160  178.7170  140.4340 C   0  0  0  0  0  0  0  0  0  0  0  0
  181.8890  178.1220  139.6090 N   0  0  0  0  0  0  0  0  0  0  0  0
  183.6300  179.6410  139.9590 O   0  0  0  0  0  0  0  0  0  0  0  0
  181.4800  178.8120  138.3850 C   0  0  0  0  0  3  0  0  0  0  0  0
  180.9850  180.2080  138.7250 C   0  0  0  0  0  2  0  0  0  0  0  0
  179.9900  179.1170  138.4100 C   0  0  0  0  0  2  0  0  0  0  0  0
  181.5720  176.7020  139.7270 C   0  0  0  0  0  2  0  0  0  0  0  0
  181.9370  175.9680  138.4470 C   0  0  0  0  0  2  0  0  0  0  0  0
  183.7170  174.4050  137.6110 C   0  0  0  0  0  0  0  0  0  0  0  0
  183.1910  174.4640  136.2890 N   0  0  0  0  0  1  0  0  0  0  0  0
  184.7100  173.6750  137.8540 O   0  0  0  0  0  0  0  0  0  0  0  0
  183.1250  175.1640  138.6650 N   0  0  0  0  0  2  0  0  0  0  0  0
  189.7920  177.7980  140.8230 C   0  0  0  0  0  2  0  0  0  0  0  0
  191.4200  176.5180  137.5640 C   0  0  0  0  0  2  0  0  0  0  0  0
  188.8720  177.6020  138.4650 C   0  0  1  0  0  3  0  0  0  0  0  0
  191.2790  174.0720  137.5210 N   0  0  0  0  0  1  0  0  0  0  0  0
  191.2640  176.7880  139.0650 C   0  0  0  0  0  2  0  0  0  0  0  0
  189.8150  176.9930  139.5280 C   0  0  1  0  0  3  0  0  0  0  0  0
  189.1610  175.2810  137.4100 C   0  0  0  0  0  2  0  0  0  0  0  0
  189.3570  178.9480  137.9400 C   0  0  0  0  0  1  0  0  0  0  0  0
  190.6500  175.2960  137.0500 C   0  0  1  0  0  3  0  0  0  0  0  0
  188.4890  176.6590  137.3000 C   0  0  1  0  0  3  0  0  0  0  0  0
  186.5120  176.3630  135.7750 C   0  0  0  0  0  1  0  0  0  0  0  0
  186.9640  176.4970  137.2230 C   0  0  2  0  0  3  0  0  0  0  0  0
  186.2440  177.6850  137.8520 C   0  0  0  0  0  2  0  0  0  0  0  0
  184.8630  177.8550  137.2430 C   0  0  0  0  0  1  0  0  0  0  0  0
  1 14  1  0  0  0  0
  3  6  1  0  0  0  0
  3 15  1  0  0  0  0
  4  9  1  0  0  0  0
  5 10  1  0  0  0  0
  6  4  1  0  0  0  0
  8  7  1  1  0  0  0
  9 30  1  6  0  0  0
  9 13  1  0  0  0  0
 10  8  1  0  0  0  0
 11  2  2  0  0  0  0
 11  5  1  0  0  0  0
 13  1  1  0  0  0  0
 14 12  2  0  0  0  0
 14  8  1  0  0  0  0
 15 17  1  6  0  0  0
 15 11  1  0  0  0  0
 17 16  1  1  0  0  0
 18 17  1  0  0  0  0
 19 24  1  0  0  0  0
 19 18  1  0  0  0  0
 20 18  2  0  0  0  0
 21 23  1  0  0  0  0
 21 22  1  0  0  0  0
 21 19  1  0  0  0  0
 23 22  1  0  0  0  0
 25 29  1  0  0  0  0
 25 24  1  0  0  0  0
 26 28  2  0  0  0  0
 26 29  1  0  0  0  0
 27 26  1  0  0  0  0
 31 34  1  0  0  0  0
 32 37  1  6  0  0  0
 32 35  1  0  0  0  0
 34 35  1  0  0  0  0
 35 30  1  1  0  0  0
 38 36  1  0  0  0  0
 38 33  1  1  0  0  0
 38 31  1  0  0  0  0
 39 41  1  1  0  0  0
 39 36  1  0  0  0  0
 39 32  1  0  0  0  0
 41 40  1  6  0  0  0
 41 42  1  0  0  0  0
 43 42  1  0  0  0  0
M  END
>  <MODEL>
3

>  <REMARK>
 VINA RESULT:      -7.8      1.611      2.284
  Name = 
  10 active torsions:
  status: ('A' for Active; 'I' for Inactive)
    1  A    between atoms: C_3  and  C_17
    2  A    between atoms: C_3  and  C_28
    3  A    between atoms: C_11  and  C_27
    4  A    between atoms: C_13  and  C_34
    5  A    between atoms: C_13  and  C_43
    6  A    between atoms: C_15  and  N_24
    7  A    between atoms: N_22  and  C_38
    8  A    between atoms: N_24  and  C_33
    9  A    between atoms: C_27  and  C_42
   10  A    between atoms: C_33  and  C_38
                            x       y       z     vdW  Elec       q    Type
                         _______ _______ _______ _____ _____    ______ ____

>  <TORSDO>
F 10

$$$$
=
 OpenBabel11062416093D

 43 45  0  0  1  0  0  0  0  0999 V2000
  188.6140  175.8230  136.6560 C   0  0  0  0  0  2  0  0  0  0  0  0
  191.8430  177.6200  139.8270 C   0  0  0  0  0  2  0  0  0  0  0  0
  188.7820  178.2530  141.0790 C   0  0  0  0  0  2  0  0  0  0  0  0
  187.4290  177.0520  139.3330 C   0  0  0  0  0  2  0  0  0  0  0  0
  190.9840  176.6020  139.0940 C   0  0  0  0  0  2  0  0  0  0  0  0
  188.2160  178.3170  139.6680 C   0  0  0  0  0  2  0  0  0  0  0  0
  192.0540  174.7670  136.1370 F   0  0  0  0  0  0  0  0  0  0  0  0
  191.1330  175.3500  136.9890 C   0  0  1  0  0  3  0  0  0  0  0  0
  186.8560  177.0870  137.9120 C   0  0  2  0  0  3  0  0  0  0  0  0
  191.8250  176.3640  137.8870 C   0  0  0  0  0  2  0  0  0  0  0  0
  191.0590  177.3230  140.2390 C   0  0  0  0  0  0  0  0  0  0  0  0
  190.2800  176.6270  135.1920 O   0  0  0  0  0  0  0  0  0  0  0  0
  187.9730  177.1830  136.8820 C   0  0  0  0  0  2  0  0  0  0  0  0
  190.0290  175.9870  136.2020 C   0  0  0  0  0  0  0  0  0  0  0  0
  189.8170  177.1390  141.2380 C   0  0  1  0  0  3  0  0  0  0  0  0
  190.9230  178.1030  143.1540 O   0  0  0  0  0  1  0  0  0  0  0  0
  190.2290  176.9800  142.7030 C   0  0  1  0  0  3  0  0  0  0  0  0
  189.1070  176.5670  143.6230 C   0  0  0  0  0  0  0  0  0  0  0  0
  188.9030  177.1420  144.9330 N   0  0  0  0  0  0  0  0  0  0  0  0
  188.2890  175.7090  143.1920 O   0  0  0  0  0  0  0  0  0  0  0  0
  187.6020  176.9750  145.5820 C   0  0  0  0  0  3  0  0  0  0  0  0
  186.5000  177.4510  144.6490 C   0  0  0  0  0  2  0  0  0  0  0  0
  186.9330  178.3230  145.8030 C   0  0  0  0  0  2  0  0  0  0  0  0
  190.0430  177.4920  145.7760 C   0  0  0  0  0  2  0  0  0  0  0  0
  189.9240  176.8220  147.1340 C   0  0  0  0  0  2  0  0  0  0  0  0
  192.2550  175.9420  147.4480 C   0  0  0  0  0  0  0  0  0  0  0  0
  192.0880  175.0260  146.3700 N   0  0  0  0  0  1  0  0  0  0  0  0
  193.3340  175.9540  148.0940 O   0  0  0  0  0  0  0  0  0  0  0  0
  191.2100  176.8440  147.8070 N   0  0  0  0  0  2  0  0  0  0  0  0
  185.8740  178.2390  137.7100 C   0  0  0  0  0  2  0  0  0  0  0  0
  182.0280  177.9120  137.8120 C   0  0  0  0  0  2  0  0  0  0  0  0
  184.1700  179.1160  139.3750 C   0  0  1  0  0  3  0  0  0  0  0  0
  181.4490  175.7400  138.7890 N   0  0  0  0  0  1  0  0  0  0  0  0
  183.4670  177.6450  137.3530 C   0  0  0  0  0  2  0  0  0  0  0  0
  184.5410  177.9760  138.4000 C   0  0  1  0  0  3  0  0  0  0  0  0
  182.5570  177.3330  140.2710 C   0  0  0  0  0  2  0  0  0  0  0  0
  183.8380  180.4230  138.6630 C   0  0  0  0  0  1  0  0  0  0  0  0
  181.6110  177.1560  139.0790 C   0  0  1  0  0  3  0  0  0  0  0  0
  183.0890  178.7670  140.4240 C   0  0  1  0  0  3  0  0  0  0  0  0
  184.9300  178.2010  142.0410 C   0  0  0  0  0  1  0  0  0  0  0  0
  183.6350  178.9770  141.8440 C   0  0  2  0  0  3  0  0  0  0  0  0
  182.6300  178.5280  142.9000 C   0  0  0  0  0  2  0  0  0  0  0  0
  183.0880  178.9520  144.2850 C   0  0  0  0  0  1  0  0  0  0  0  0
  1 13  1  0  0  0  0
  2 11  2  0  0  0  0
  3 15  1  0  0  0  0
  4  6  1  0  0  0  0
  5 11  1  0  0  0  0
  6  3  1  0  0  0  0
  8  7  1  6  0  0  0
  8 10  1  0  0  0  0
  9 30  1  1  0  0  0
  9  4  1  0  0  0  0
 10  5  1  0  0  0  0
 11 15  1  0  0  0  0
 12 14  2  0  0  0  0
 13  9  1  0  0  0  0
 14  1  1  0  0  0  0
 14  8  1  0  0  0  0
 15 17  1  1  0  0  0
 17 16  1  1  0  0  0
 17 18  1  0  0  0  0
 18 19  1  0  0  0  0
 19 21  1  0  0  0  0
 19 24  1  0  0  0  0
 20 18  2  0  0  0  0
 21 23  1  0  0  0  0
 22 21  1  0  0  0  0
 22 23  1  0  0  0  0
 24 25  1  0  0  0  0
 25 29  1  0  0  0  0
 26 29  1  0  0  0  0
 26 28  2  0  0  0  0
 27 26  1  0  0  0  0
 31 38  1  0  0  0  0
 32 37  1  6  0  0  0
 32 39  1  0  0  0  0
 34 31  1  0  0  0  0
 34 35  1  0  0  0  0
 35 30  1  6  0  0  0
 35 32  1  0  0  0  0
 36 39  1  0  0  0  0
 38 33  1  6  0  0  0
 38 36  1  0  0  0  0
 39 41  1  1  0  0  0
 41 40  1  6  0  0  0
 41 42  1  0  0  0  0
 42 43  1  0  0  0  0
M  END
>  <MODEL>
4

>  <REMARK>
 VINA RESULT:      -7.5      3.860      8.712
  Name = 
  10 active torsions:
  status: ('A' for Active; 'I' for Inactive)
    1  A    between atoms: C_3  and  C_17
    2  A    between atoms: C_3  and  C_28
    3  A    between atoms: C_11  and  C_27
    4  A    between atoms: C_13  and  C_34
    5  A    between atoms: C_13  and  C_43
    6  A    between atoms: C_15  and  N_24
    7  A    between atoms: N_22  and  C_38
    8  A    between atoms: N_24  and  C_33
    9  A    between atoms: C_27  and  C_42
   10  A    between atoms: C_33  and  C_38
                            x       y       z     vdW  Elec       q    Type
                         _______ _______ _______ _____ _____    ______ ____

>  <TORSDO>
F 10

$$$$
=
 OpenBabel11062416093D

 43 45  0  0  1  0  0  0  0  0999 V2000
  184.5420  179.5960  144.9260 C   0  0  0  0  0  2  0  0  0  0  0  0
  188.6760  177.0230  144.9180 C   0  0  0  0  0  2  0  0  0  0  0  0
  187.7630  177.4250  141.7010 C   0  0  0  0  0  2  0  0  0  0  0  0
  185.7700  178.9110  142.0800 C   0  0  0  0  0  2  0  0  0  0  0  0
  187.7480  178.2240  144.9990 C   0  0  0  0  0  2  0  0  0  0  0  0
  186.3010  177.4790  142.1200 C   0  0  0  0  0  2  0  0  0  0  0  0
  186.3240  179.5100  148.0930 F   0  0  0  0  0  0  0  0  0  0  0  0
  186.3650  179.2780  146.7300 C   0  0  1  0  0  3  0  0  0  0  0  0
  184.3020  178.9950  142.5090 C   0  0  2  0  0  3  0  0  0  0  0  0
  187.3250  178.1390  146.4250 C   0  0  0  0  0  2  0  0  0  0  0  0
  188.5860  177.5650  144.1630 C   0  0  0  0  0  0  0  0  0  0  0  0
  184.2370  178.2530  146.8420 O   0  0  0  0  0  0  0  0  0  0  0  0
  184.1290  178.5130  143.9420 C   0  0  0  0  0  2  0  0  0  0  0  0
  184.9900  178.9820  146.2140 C   0  0  0  0  0  0  0  0  0  0  0  0
  188.6740  178.1680  142.6780 C   0  0  1  0  0  3  0  0  0  0  0  0
  191.0200  178.4540  143.1690 O   0  0  0  0  0  1  0  0  0  0  0  0
  190.1030  178.2540  142.1360 C   0  0  1  0  0  3  0  0  0  0  0  0
  190.4870  177.1240  141.2130 C   0  0  0  0  0  0  0  0  0  0  0  0
  190.7250  177.3020  139.7990 N   0  0  0  0  0  0  0  0  0  0  0  0
  190.6470  175.9840  141.7280 O   0  0  0  0  0  0  0  0  0  0  0  0
  191.4550  176.2630  139.0710 C   0  0  0  0  0  3  0  0  0  0  0  0
  192.8750  176.7300  138.7970 C   0  0  0  0  0  2  0  0  0  0  0  0
  191.8520  176.7530  137.6870 C   0  0  0  0  0  2  0  0  0  0  0  0
  189.9170  178.2370  139.0220 C   0  0  0  0  0  2  0  0  0  0  0  0
  188.6420  177.5640  138.5410 C   0  0  0  0  0  2  0  0  0  0  0  0
  186.2370  178.1860  138.1730 C   0  0  0  0  0  0  0  0  0  0  0  0
  186.0230  177.0180  137.3870 N   0  0  0  0  0  1  0  0  0  0  0  0
  185.2970  179.0030  138.3430 O   0  0  0  0  0  0  0  0  0  0  0  0
  187.5090  178.4430  138.7650 N   0  0  0  0  0  2  0  0  0  0  0  0
  183.3810  178.1960  141.5870 C   0  0  0  0  0  2  0  0  0  0  0  0
  179.5840  178.8870  141.6920 C   0  0  0  0  0  2  0  0  0  0  0  0
  181.7440  178.7960  139.7420 C   0  0  1  0  0  3  0  0  0  0  0  0
  179.2250  181.2110  142.3810 N   0  0  0  0  0  1  0  0  0  0  0  0
  181.0010  178.6450  142.2250 C   0  0  0  0  0  2  0  0  0  0  0  0
  182.1220  178.9770  141.2300 C   0  0  1  0  0  3  0  0  0  0  0  0
  180.3250  180.8780  140.2270 C   0  0  0  0  0  2  0  0  0  0  0  0
  181.2740  177.3830  139.4150 C   0  0  0  0  0  1  0  0  0  0  0  0
  179.3100  180.3230  141.2320 C   0  0  1  0  0  3  0  0  0  0  0  0
  180.7670  179.8500  139.1710 C   0  0  1  0  0  3  0  0  0  0  0  0
  181.7540  182.0050  138.3300 C   0  0  0  0  0  1  0  0  0  0  0  0
  181.3970  180.5690  137.9700 C   0  0  2  0  0  3  0  0  0  0  0  0
  180.4540  180.5840  136.7720 C   0  0  0  0  0  2  0  0  0  0  0  0
  180.4310  181.9600  136.1290 C   0  0  0  0  0  1  0  0  0  0  0  0
  1 14  1  0  0  0  0
  3  6  1  0  0  0  0
  3 15  1  0  0  0  0
  4  6  1  0  0  0  0
  4  9  1  0  0  0  0
  5 10  1  0  0  0  0
  8  7  1  1  0  0  0
  9 30  1  6  0  0  0
  9 13  1  0  0  0  0
 10  8  1  0  0  0  0
 11  2  2  0  0  0  0
 11  5  1  0  0  0  0
 13  1  1  0  0  0  0
 14  8  1  0  0  0  0
 14 12  2  0  0  0  0
 15 17  1  6  0  0  0
 15 11  1  0  0  0  0
 17 16  1  1  0  0  0
 18 20  2  0  0  0  0
 18 17  1  0  0  0  0
 19 18  1  0  0  0  0
 21 19  1  0  0  0  0
 22 21  1  0  0  0  0
 23 22  1  0  0  0  0
 23 21  1  0  0  0  0
 24 19  1  0  0  0  0
 25 29  1  0  0  0  0
 25 24  1  0  0  0  0
 26 28  2  0  0  0  0
 26 29  1  0  0  0  0
 27 26  1  0  0  0  0
 31 34  1  0  0  0  0
 32 37  1  1  0  0  0
 32 35  1  0  0  0  0
 35 30  1  1  0  0  0
 35 34  1  0  0  0  0
 36 38  1  0  0  0  0
 38 31  1  0  0  0  0
 38 33  1  1  0  0  0
 39 41  1  6  0  0  0
 39 32  1  0  0  0  0
 39 36  1  0  0  0  0
 41 40  1  1  0  0  0
 42 41  1  0  0  0  0
 43 42  1  0  0  0  0
M  END
>  <MODEL>
5

>  <REMARK>
 VINA RESULT:      -7.4      2.408      7.629
  Name = 
  10 active torsions:
  status: ('A' for Active; 'I' for Inactive)
    1  A    between atoms: C_3  and  C_17
    2  A    between atoms: C_3  and  C_28
    3  A    between atoms: C_11  and  C_27
    4  A    between atoms: C_13  and  C_34
    5  A    between atoms: C_13  and  C_43
    6  A    between atoms: C_15  and  N_24
    7  A    between atoms: N_22  and  C_38
    8  A    between atoms: N_24  and  C_33
    9  A    between atoms: C_27  and  C_42
   10  A    between atoms: C_33  and  C_38
                            x       y       z     vdW  Elec       q    Type
                         _______ _______ _______ _____ _____    ______ ____

>  <TORSDO>
F 10

$$$$
=
 OpenBabel11062416093D

 43 45  0  0  1  0  0  0  0  0999 V2000
  186.2880  177.3680  137.2490 C   0  0  0  0  0  2  0  0  0  0  0  0
  190.2510  177.7730  140.0500 C   0  0  0  0  0  2  0  0  0  0  0  0
  187.5830  178.2510  142.0480 C   0  0  0  0  0  2  0  0  0  0  0  0
  185.7830  177.7900  140.3550 C   0  0  0  0  0  2  0  0  0  0  0  0
  189.1350  177.1210  139.2500 C   0  0  0  0  0  2  0  0  0  0  0  0
  186.7970  178.8080  140.8710 C   0  0  0  0  0  2  0  0  0  0  0  0
  189.3880  176.2260  135.7300 F   0  0  0  0  0  0  0  0  0  0  0  0
  188.7270  176.5900  136.8900 C   0  0  1  0  0  3  0  0  0  0  0  0
  184.9850  178.3230  139.1610 C   0  0  2  0  0  3  0  0  0  0  0  0
  189.7080  177.2020  137.8770 C   0  0  0  0  0  2  0  0  0  0  0  0
  189.5150  177.4340  140.5130 C   0  0  0  0  0  0  0  0  0  0  0  0
  187.7770  178.4410  135.7660 O   0  0  0  0  0  0  0  0  0  0  0  0
  185.9080  178.6390  137.9920 C   0  0  0  0  0  2  0  0  0  0  0  0
  187.6120  177.5390  136.5740 C   0  0  0  0  0  0  0  0  0  0  0  0
  188.4510  177.0550  141.6540 C   0  0  1  0  0  3  0  0  0  0  0  0
  190.1850  175.6280  142.5350 O   0  0  0  0  0  1  0  0  0  0  0  0
  189.0820  176.4050  142.8870 C   0  0  1  0  0  3  0  0  0  0  0  0
  189.3660  177.3630  144.0170 C   0  0  0  0  0  0  0  0  0  0  0  0
  188.6760  177.3190  145.2860 N   0  0  0  0  0  0  0  0  0  0  0  0
  190.2880  178.2070  143.8440 O   0  0  0  0  0  0  0  0  0  0  0  0
  189.2670  178.0090  146.4340 C   0  0  0  0  0  3  0  0  0  0  0  0
  190.3760  177.1560  147.0280 C   0  0  0  0  0  2  0  0  0  0  0  0
  189.0330  177.2220  147.7140 C   0  0  0  0  0  2  0  0  0  0  0  0
  187.2550  176.9930  145.3470 C   0  0  0  0  0  2  0  0  0  0  0  0
  186.4370  178.2380  145.6520 C   0  0  0  0  0  2  0  0  0  0  0  0
  184.2850  178.9600  144.5780 C   0  0  0  0  0  0  0  0  0  0  0  0
  183.6320  179.0020  145.8430 N   0  0  0  0  0  1  0  0  0  0  0  0
  183.6370  179.2250  143.5340 O   0  0  0  0  0  0  0  0  0  0  0  0
  185.6660  178.6160  144.4820 N   0  0  0  0  0  2  0  0  0  0  0  0
  184.1680  179.5640  139.5160 C   0  0  0  0  0  2  0  0  0  0  0  0
  181.1990  177.1810  140.1630 C   0  0  0  0  0  2  0  0  0  0  0  0
  181.9120  179.3590  138.3670 C   0  0  1  0  0  3  0  0  0  0  0  0
  179.8610  178.0740  142.0120 N   0  0  0  0  0  1  0  0  0  0  0  0
  182.5380  177.8850  140.4120 C   0  0  0  0  0  2  0  0  0  0  0  0
  182.6900  179.2360  139.6980 C   0  0  1  0  0  3  0  0  0  0  0  0
  179.9070  179.4060  139.9670 C   0  0  0  0  0  2  0  0  0  0  0  0
  182.2920  178.2850  137.3550 C   0  0  0  0  0  1  0  0  0  0  0  0
  179.9640  177.9960  140.5640 C   0  0  1  0  0  3  0  0  0  0  0  0
  180.3760  179.4730  138.5040 C   0  0  1  0  0  3  0  0  0  0  0  0
  180.2940  180.8260  136.3860 C   0  0  0  0  0  1  0  0  0  0  0  0
  179.8750  180.7680  137.8490 C   0  0  2  0  0  3  0  0  0  0  0  0
  180.4190  182.0010  138.5630 C   0  0  0  0  0  2  0  0  0  0  0  0
  181.1810  182.8870  137.5920 C   0  0  0  0  0  1  0  0  0  0  0  0
  1 13  1  0  0  0  0
  2 11  2  0  0  0  0
  4  6  1  0  0  0  0
  5 11  1  0  0  0  0
  6  3  1  0  0  0  0
  8  7  1  6  0  0  0
  8 10  1  0  0  0  0
  9 30  1  1  0  0  0
  9  4  1  0  0  0  0
 10  5  1  0  0  0  0
 11 15  1  0  0  0  0
 12 14  2  0  0  0  0
 13  9  1  0  0  0  0
 14  8  1  0  0  0  0
 14  1  1  0  0  0  0
 15  3  1  0  0  0  0
 15 17  1  1  0  0  0
 17 16  1  6  0  0  0
 17 18  1  0  0  0  0
 18 19  1  0  0  0  0
 19 24  1  0  0  0  0
 19 21  1  0  0  0  0
 20 18  2  0  0  0  0
 21 22  1  0  0  0  0
 21 23  1  0  0  0  0
 22 23  1  0  0  0  0
 24 25  1  0  0  0  0
 26 27  1  0  0  0  0
 28 26  2  0  0  0  0
 29 26  1  0  0  0  0
 29 25  1  0  0  0  0
 31 34  1  0  0  0  0
 31 38  1  0  0  0  0
 32 37  1  6  0  0  0
 32 39  1  0  0  0  0
 32 35  1  0  0  0  0
 35 30  1  6  0  0  0
 35 34  1  0  0  0  0
 36 38  1  0  0  0  0
 38 33  1  1  0  0  0
 39 41  1  1  0  0  0
 39 36  1  0  0  0  0
 41 40  1  6  0  0  0
 41 42  1  0  0  0  0
 43 42  1  0  0  0  0
M  END
>  <MODEL>
6

>  <REMARK>
 VINA RESULT:      -7.4      3.157      8.149
  Name = 
  10 active torsions:
  status: ('A' for Active; 'I' for Inactive)
    1  A    between atoms: C_3  and  C_17
    2  A    between atoms: C_3  and  C_28
    3  A    between atoms: C_11  and  C_27
    4  A    between atoms: C_13  and  C_34
    5  A    between atoms: C_13  and  C_43
    6  A    between atoms: C_15  and  N_24
    7  A    between atoms: N_22  and  C_38
    8  A    between atoms: N_24  and  C_33
    9  A    between atoms: C_27  and  C_42
   10  A    between atoms: C_33  and  C_38
                            x       y       z     vdW  Elec       q    Type
                         _______ _______ _______ _____ _____    ______ ____

>  <TORSDO>
F 10

$$$$
=
 OpenBabel11062416093D

 43 45  0  0  1  0  0  0  0  0999 V2000
  188.1830  176.7720  143.9880 C   0  0  0  0  0  2  0  0  0  0  0  0
  184.4260  179.8610  143.7720 C   0  0  0  0  0  2  0  0  0  0  0  0
  185.3320  179.1950  140.5980 C   0  0  0  0  0  2  0  0  0  0  0  0
  187.1040  177.4800  141.0870 C   0  0  0  0  0  2  0  0  0  0  0  0
  185.1850  178.5540  143.9270 C   0  0  0  0  0  2  0  0  0  0  0  0
  186.7670  178.9690  141.0530 C   0  0  0  0  0  2  0  0  0  0  0  0
  186.3740  177.2370  147.1070 F   0  0  0  0  0  0  0  0  0  0  0  0
  186.3870  177.4090  145.7340 C   0  0  1  0  0  3  0  0  0  0  0  0
  188.5410  177.2240  141.5530 C   0  0  2  0  0  3  0  0  0  0  0  0
  185.5910  178.6490  145.3580 C   0  0  0  0  0  2  0  0  0  0  0  0
  184.4560  179.2780  143.0440 C   0  0  0  0  0  0  0  0  0  0  0  0
  188.6290  178.1500  145.8500 O   0  0  0  0  0  0  0  0  0  0  0  0
  188.7520  177.7440  142.9680 C   0  0  0  0  0  2  0  0  0  0  0  0
  187.7980  177.4980  145.2370 C   0  0  0  0  0  0  0  0  0  0  0  0
  184.3140  178.6230  141.5850 C   0  0  1  0  0  3  0  0  0  0  0  0
  182.8080  179.6750  140.0200 O   0  0  0  0  0  1  0  0  0  0  0  0
  182.8960  178.7010  141.0150 C   0  0  1  0  0  3  0  0  0  0  0  0
  182.3200  177.3710  140.5960 C   0  0  0  0  0  0  0  0  0  0  0  0
  180.9040  177.0850  140.5960 N   0  0  0  0  0  0  0  0  0  0  0  0
  183.1280  176.4930  140.1860 O   0  0  0  0  0  0  0  0  0  0  0  0
  180.4160  175.9400  139.8250 C   0  0  0  0  0  3  0  0  0  0  0  0
  180.8140  176.0980  138.3670 C   0  0  0  0  0  2  0  0  0  0  0  0
  179.3930  176.3840  138.7900 C   0  0  0  0  0  2  0  0  0  0  0  0
  180.0390  177.6160  141.6450 C   0  0  0  0  0  2  0  0  0  0  0  0
  178.9310  178.4630  141.0420 C   0  0  0  0  0  2  0  0  0  0  0  0
  179.6470  180.8160  140.5330 C   0  0  0  0  0  0  0  0  0  0  0  0
  179.2880  181.2420  141.8440 N   0  0  0  0  0  1  0  0  0  0  0  0
  180.0910  181.6530  139.7070 O   0  0  0  0  0  0  0  0  0  0  0  0
  179.5020  179.4510  140.1450 N   0  0  0  0  0  2  0  0  0  0  0  0
  189.5750  177.8510  140.6180 C   0  0  0  0  0  2  0  0  0  0  0  0
  191.6030  176.5720  137.5920 C   0  0  0  0  0  2  0  0  0  0  0  0
  188.9340  177.5770  138.1770 C   0  0  1  0  0  3  0  0  0  0  0  0
  191.5520  174.1220  137.5890 N   0  0  0  0  0  1  0  0  0  0  0  0
  191.2690  176.8640  139.0600 C   0  0  0  0  0  2  0  0  0  0  0  0
  189.7710  177.0240  139.3530 C   0  0  1  0  0  3  0  0  0  0  0  0
  189.4190  175.2490  137.2140 C   0  0  0  0  0  2  0  0  0  0  0  0
  189.4280  178.9310  137.6800 C   0  0  0  0  0  1  0  0  0  0  0  0
  190.9380  175.3120  137.0240 C   0  0  1  0  0  3  0  0  0  0  0  0
  188.7170  176.6000  136.9980 C   0  0  1  0  0  3  0  0  0  0  0  0
  186.8820  176.5580  135.2790 C   0  0  0  0  0  1  0  0  0  0  0  0
  187.2170  176.3810  136.7540 C   0  0  2  0  0  3  0  0  0  0  0  0
  186.3720  177.3540  137.5690 C   0  0  0  0  0  2  0  0  0  0  0  0
  184.9010  177.2060  137.2160 C   0  0  0  0  0  1  0  0  0  0  0  0
  1 14  1  0  0  0  0
  3  6  1  0  0  0  0
  3 15  1  0  0  0  0
  4  9  1  0  0  0  0
  5 10  1  0  0  0  0
  6  4  1  0  0  0  0
  8  7  1  1  0  0  0
  9 30  1  6  0  0  0
  9 13  1  0  0  0  0
 10  8  1  0  0  0  0
 11  2  2  0  0  0  0
 11  5  1  0  0  0  0
 13  1  1  0  0  0  0
 14  8  1  0  0  0  0
 14 12  2  0  0  0  0
 15 17  1  6  0  0  0
 15 11  1  0  0  0  0
 17 16  1  6  0  0  0
 18 19  1  0  0  0  0
 18 17  1  0  0  0  0
 19 24  1  0  0  0  0
 20 18  2  0  0  0  0
 21 19  1  0  0  0  0
 22 23  1  0  0  0  0
 22 21  1  0  0  0  0
 23 21  1  0  0  0  0
 25 24  1  0  0  0  0
 26 27  1  0  0  0  0
 28 26  2  0  0  0  0
 29 26  1  0  0  0  0
 29 25  1  0  0  0  0
 31 34  1  0  0  0  0
 32 37  1  6  0  0  0
 32 35  1  0  0  0  0
 34 35  1  0  0  0  0
 35 30  1  1  0  0  0
 38 36  1  0  0  0  0
 38 33  1  1  0  0  0
 38 31  1  0  0  0  0
 39 41  1  1  0  0  0
 39 36  1  0  0  0  0
 39 32  1  0  0  0  0
 41 40  1  6  0  0  0
 41 42  1  0  0  0  0
 43 42  1  0  0  0  0
M  END
>  <MODEL>
7

>  <REMARK>
 VINA RESULT:      -7.4      1.504      2.281
  Name = 
  10 active torsions:
  status: ('A' for Active; 'I' for Inactive)
    1  A    between atoms: C_3  and  C_17
    2  A    between atoms: C_3  and  C_28
    3  A    between atoms: C_11  and  C_27
    4  A    between atoms: C_13  and  C_34
    5  A    between atoms: C_13  and  C_43
    6  A    between atoms: C_15  and  N_24
    7  A    between atoms: N_22  and  C_38
    8  A    between atoms: N_24  and  C_33
    9  A    between atoms: C_27  and  C_42
   10  A    between atoms: C_33  and  C_38
                            x       y       z     vdW  Elec       q    Type
                         _______ _______ _______ _____ _____    ______ ____

>  <TORSDO>
F 10

$$$$
=
 OpenBabel11062416093D

 43 45  0  0  1  0  0  0  0  0999 V2000
  186.3610  177.6100  137.5770 C   0  0  0  0  0  2  0  0  0  0  0  0
  189.6750  178.2340  141.0890 C   0  0  0  0  0  2  0  0  0  0  0  0
  186.6530  178.2690  142.5740 C   0  0  0  0  0  2  0  0  0  0  0  0
  185.2570  177.7420  140.5500 C   0  0  0  0  0  2  0  0  0  0  0  0
  188.8080  177.5260  140.0610 C   0  0  0  0  0  2  0  0  0  0  0  0
  186.0310  178.8240  141.3010 C   0  0  0  0  0  2  0  0  0  0  0  0
  189.7970  176.9270  136.6080 F   0  0  0  0  0  0  0  0  0  0  0  0
  188.9000  177.1300  137.6410 C   0  0  1  0  0  3  0  0  0  0  0  0
  184.6290  178.2730  139.2580 C   0  0  2  0  0  3  0  0  0  0  0  0
  189.6060  177.7690  138.8250 C   0  0  0  0  0  2  0  0  0  0  0  0
  188.9140  177.7830  141.3870 C   0  0  0  0  0  0  0  0  0  0  0  0
  187.9520  178.9450  136.4580 O   0  0  0  0  0  0  0  0  0  0  0  0
  185.7020  178.7730  138.3010 C   0  0  0  0  0  2  0  0  0  0  0  0
  187.7530  177.9730  137.1720 C   0  0  0  0  0  0  0  0  0  0  0  0
  187.7150  177.2070  142.2860 C   0  0  1  0  0  3  0  0  0  0  0  0
  189.2230  175.6390  143.3310 O   0  0  0  0  0  1  0  0  0  0  0  0
  188.1870  176.5400  143.5800 C   0  0  1  0  0  3  0  0  0  0  0  0
  188.4940  177.5030  144.7000 C   0  0  0  0  0  0  0  0  0  0  0  0
  187.7810  177.5100  145.9570 N   0  0  0  0  0  0  0  0  0  0  0  0
  189.4540  178.3030  144.5300 O   0  0  0  0  0  0  0  0  0  0  0  0
  188.3820  178.1920  147.1040 C   0  0  0  0  0  3  0  0  0  0  0  0
  189.5990  177.4160  147.5810 C   0  0  0  0  0  2  0  0  0  0  0  0
  188.3030  177.3220  148.3490 C   0  0  0  0  0  2  0  0  0  0  0  0
  186.3460  177.2460  145.9980 C   0  0  0  0  0  2  0  0  0  0  0  0
  185.5950  178.4720  146.4920 C   0  0  0  0  0  2  0  0  0  0  0  0
  184.0980  179.3980  144.7010 C   0  0  0  0  0  0  0  0  0  0  0  0
  183.0210  178.5700  145.1290 N   0  0  0  0  0  1  0  0  0  0  0  0
  183.9450  180.1550  143.7090 O   0  0  0  0  0  0  0  0  0  0  0  0
  185.3500  179.3760  145.3840 N   0  0  0  0  0  2  0  0  0  0  0  0
  183.6170  179.3880  139.5180 C   0  0  0  0  0  2  0  0  0  0  0  0
  180.5730  178.5480  137.2960 C   0  0  0  0  0  2  0  0  0  0  0  0
  181.1580  179.9640  139.7720 C   0  0  1  0  0  3  0  0  0  0  0  0
  179.8080  176.2820  137.8310 N   0  0  0  0  0  1  0  0  0  0  0  0
  182.0160  178.4930  137.8120 C   0  0  0  0  0  2  0  0  0  0  0  0
  182.1860  178.9220  139.2760 C   0  0  1  0  0  3  0  0  0  0  0  0
  179.5790  177.9490  139.6010 C   0  0  0  0  0  2  0  0  0  0  0  0
  181.1570  181.2420  138.9400 C   0  0  0  0  0  1  0  0  0  0  0  0
  179.5770  177.6940  138.0900 C   0  0  1  0  0  3  0  0  0  0  0  0
  179.7190  179.4340  139.9730 C   0  0  1  0  0  3  0  0  0  0  0  0
  178.9310  181.1260  141.6580 C   0  0  0  0  0  1  0  0  0  0  0  0
  179.2640  179.6590  141.4220 C   0  0  2  0  0  3  0  0  0  0  0  0
  180.3390  179.2350  142.4160 C   0  0  0  0  0  2  0  0  0  0  0  0
  179.7300  178.9880  143.7860 C   0  0  0  0  0  1  0  0  0  0  0  0
  1 13  1  0  0  0  0
  2 11  2  0  0  0  0
  4  6  1  0  0  0  0
  5 11  1  0  0  0  0
  6  3  1  0  0  0  0
  8  7  1  6  0  0  0
  8 10  1  0  0  0  0
  9 30  1  1  0  0  0
  9  4  1  0  0  0  0
 10  5  1  0  0  0  0
 11 15  1  0  0  0  0
 12 14  2  0  0  0  0
 13  9  1  0  0  0  0
 14  1  1  0  0  0  0
 14  8  1  0  0  0  0
 15  3  1  0  0  0  0
 15 17  1  1  0  0  0
 17 16  1  6  0  0  0
 17 18  1  0  0  0  0
 18 19  1  0  0  0  0
 19 24  1  0  0  0  0
 19 21  1  0  0  0  0
 20 18  2  0  0  0  0
 21 22  1  0  0  0  0
 21 23  1  0  0  0  0
 22 23  1  0  0  0  0
 24 25  1  0  0  0  0
 26 27  1  0  0  0  0
 26 29  1  0  0  0  0
 28 26  2  0  0  0  0
 29 25  1  0  0  0  0
 31 34  1  0  0  0  0
 31 38  1  0  0  0  0
 32 37  1  6  0  0  0
 32 39  1  0  0  0  0
 34 35  1  0  0  0  0
 35 30  1  6  0  0  0
 35 32  1  0  0  0  0
 36 39  1  0  0  0  0
 38 33  1  1  0  0  0
 38 36  1  0  0  0  0
 39 41  1  1  0  0  0
 41 40  1  6  0  0  0
 41 42  1  0  0  0  0
 42 43  1  0  0  0  0
M  END
>  <MODEL>
8

>  <REMARK>
 VINA RESULT:      -7.2      3.059      8.035
  Name = 
  10 active torsions:
  status: ('A' for Active; 'I' for Inactive)
    1  A    between atoms: C_3  and  C_17
    2  A    between atoms: C_3  and  C_28
    3  A    between atoms: C_11  and  C_27
    4  A    between atoms: C_13  and  C_34
    5  A    between atoms: C_13  and  C_43
    6  A    between atoms: C_15  and  N_24
    7  A    between atoms: N_22  and  C_38
    8  A    between atoms: N_24  and  C_33
    9  A    between atoms: C_27  and  C_42
   10  A    between atoms: C_33  and  C_38
                            x       y       z     vdW  Elec       q    Type
                         _______ _______ _______ _____ _____    ______ ____

>  <TORSDO>
F 10

$$$$
=
 OpenBabel11062416093D

 43 45  0  0  1  0  0  0  0  0999 V2000
  184.1370  178.2540  143.6610 C   0  0  0  0  0  2  0  0  0  0  0  0
  181.4030  179.4540  139.8140 C   0  0  0  0  0  2  0  0  0  0  0  0
  184.4090  178.5080  138.6260 C   0  0  0  0  0  2  0  0  0  0  0  0
  185.4460  177.8000  140.8040 C   0  0  0  0  0  2  0  0  0  0  0  0
  181.9540  178.6290  140.9660 C   0  0  0  0  0  2  0  0  0  0  0  0
  185.0690  178.9810  139.9130 C   0  0  0  0  0  2  0  0  0  0  0  0
  180.5870  178.6480  144.3400 F   0  0  0  0  0  0  0  0  0  0  0  0
  181.5780  178.4970  143.3870 C   0  0  1  0  0  3  0  0  0  0  0  0
  186.1030  178.2500  142.1130 C   0  0  2  0  0  3  0  0  0  0  0  0
  181.1720  179.1970  142.1000 C   0  0  0  0  0  2  0  0  0  0  0  0
  182.0240  178.7830  139.6210 C   0  0  0  0  0  0  0  0  0  0  0  0
  182.9160  180.0760  144.5300 O   0  0  0  0  0  0  0  0  0  0  0  0
  185.1510  179.1160  142.9260 C   0  0  0  0  0  2  0  0  0  0  0  0
  182.8800  179.0260  143.9050 C   0  0  0  0  0  0  0  0  0  0  0  0
  183.0700  177.8160  138.8820 C   0  0  1  0  0  3  0  0  0  0  0  0
  182.9750  177.8810  136.4710 O   0  0  0  0  0  1  0  0  0  0  0  0
  182.5220  177.1910  137.5960 C   0  0  1  0  0  3  0  0  0  0  0  0
  182.7200  175.6990  137.4970 C   0  0  0  0  0  0  0  0  0  0  0  0
  184.0110  175.0820  137.2960 N   0  0  0  0  0  0  0  0  0  0  0  0
  181.7020  174.9690  137.6470 O   0  0  0  0  0  0  0  0  0  0  0  0
  184.1650  173.6580  137.5960 C   0  0  0  0  0  3  0  0  0  0  0  0
  185.2300  173.0560  136.6940 C   0  0  0  0  0  2  0  0  0  0  0  0
  183.7710  172.8090  136.3980 C   0  0  0  0  0  2  0  0  0  0  0  0
  185.0040  175.7050  136.4260 C   0  0  0  0  0  2  0  0  0  0  0  0
  186.2800  175.9930  137.1990 C   0  0  0  0  0  2  0  0  0  0  0  0
  187.8230  177.9430  137.5490 C   0  0  0  0  0  0  0  0  0  0  0  0
  188.3480  177.3550  138.7360 N   0  0  0  0  0  1  0  0  0  0  0  0
  188.2330  179.0730  137.1800 O   0  0  0  0  0  0  0  0  0  0  0  0
  186.8330  177.2670  136.7770 N   0  0  0  0  0  2  0  0  0  0  0  0
  187.4070  179.0100  141.8760 C   0  0  0  0  0  2  0  0  0  0  0  0
  190.6310  177.1730  142.9430 C   0  0  0  0  0  2  0  0  0  0  0  0
  187.9380  177.6370  143.9450 C   0  0  1  0  0  3  0  0  0  0  0  0
  192.1580  178.7920  143.9690 N   0  0  0  0  0  1  0  0  0  0  0  0
  189.7300  178.1060  142.1260 C   0  0  0  0  0  2  0  0  0  0  0  0
  188.4870  178.6070  142.8740 C   0  0  1  0  0  3  0  0  0  0  0  0
  190.0760  178.3560  145.1680 C   0  0  0  0  0  2  0  0  0  0  0  0
  187.5840  176.2660  143.3810 C   0  0  0  0  0  1  0  0  0  0  0  0
  191.1570  177.7750  144.2510 C   0  0  1  0  0  3  0  0  0  0  0  0
  188.7970  177.5050  145.2240 C   0  0  1  0  0  3  0  0  0  0  0  0
  188.4510  177.0970  147.6810 C   0  0  0  0  0  1  0  0  0  0  0  0
  187.9710  177.8770  146.4640 C   0  0  2  0  0  3  0  0  0  0  0  0
  186.4880  177.5910  146.2530 C   0  0  0  0  0  2  0  0  0  0  0  0
  185.6390  178.6250  146.9710 C   0  0  0  0  0  1  0  0  0  0  0  0
  1 14  1  0  0  0  0
  3 15  1  0  0  0  0
  3  6  1  0  0  0  0
  4  9  1  0  0  0  0
  5 10  1  0  0  0  0
  6  4  1  0  0  0  0
  8 14  1  0  0  0  0
  8  7  1  1  0  0  0
  9 30  1  6  0  0  0
  9 13  1  0  0  0  0
 10  8  1  0  0  0  0
 11  2  2  0  0  0  0
 11  5  1  0  0  0  0
 13  1  1  0  0  0  0
 14 12  2  0  0  0  0
 15 17  1  6  0  0  0
 15 11  1  0  0  0  0
 17 16  1  6  0  0  0
 18 17  1  0  0  0  0
 18 20  2  0  0  0  0
 19 18  1  0  0  0  0
 19 21  1  0  0  0  0
 22 21  1  0  0  0  0
 23 22  1  0  0  0  0
 23 21  1  0  0  0  0
 24 25  1  0  0  0  0
 24 19  1  0  0  0  0
 26 27  1  0  0  0  0
 28 26  2  0  0  0  0
 29 25  1  0  0  0  0
 29 26  1  0  0  0  0
 31 38  1  0  0  0  0
 32 37  1  6  0  0  0
 32 39  1  0  0  0  0
 34 35  1  0  0  0  0
 34 31  1  0  0  0  0
 35 30  1  6  0  0  0
 35 32  1  0  0  0  0
 36 39  1  0  0  0  0
 38 33  1  6  0  0  0
 38 36  1  0  0  0  0
 39 41  1  1  0  0  0
 41 40  1  1  0  0  0
 42 41  1  0  0  0  0
 42 43  1  0  0  0  0
M  END
>  <MODEL>
9

>  <REMARK>
 VINA RESULT:      -7.0      3.001      6.912
  Name = 
  10 active torsions:
  status: ('A' for Active; 'I' for Inactive)
    1  A    between atoms: C_3  and  C_17
    2  A    between atoms: C_3  and  C_28
    3  A    between atoms: C_11  and  C_27
    4  A    between atoms: C_13  and  C_34
    5  A    between atoms: C_13  and  C_43
    6  A    between atoms: C_15  and  N_24
    7  A    between atoms: N_22  and  C_38
    8  A    between atoms: N_24  and  C_33
    9  A    between atoms: C_27  and  C_42
   10  A    between atoms: C_33  and  C_38
                            x       y       z     vdW  Elec       q    Type
                         _______ _______ _______ _____ _____    ______ ____

>  <TORSDO>
F 10

$$$$
