=
 OpenBabel11062415303D

 37 42  0  0  1  0  0  0  0  0999 V2000
  184.3110  177.8660  140.8240 C   0  0  0  0  0  0  0  0  0  0  0  0
  188.3190  176.2070  138.8560 O   0  0  0  0  0  0  0  0  0  0  0  0
  185.0360  177.4100  138.0520 C   0  0  0  0  0  3  0  0  0  0  0  0
  183.3160  175.7160  137.9330 C   0  0  0  0  0  3  0  0  0  0  0  0
  185.5770  177.9670  140.5210 N   0  0  0  0  0  0  0  0  0  0  0  0
  188.0710  176.6130  135.9220 C   0  0  0  0  0  2  0  0  0  0  0  0
  187.9860  177.2710  138.3500 C   0  0  0  0  0  0  0  0  0  0  0  0
  188.2900  178.5790  139.0650 C   0  0  0  0  0  2  0  0  0  0  0  0
  183.4110  177.2650  139.8600 N   0  0  0  0  0  2  0  0  0  0  0  0
  183.7530  178.5210  142.0250 C   0  0  0  0  0  0  0  0  0  0  0  0
  185.8520  178.2030  143.5050 C   0  0  0  0  0  0  0  0  0  0  0  0
  186.7010  178.4590  142.5050 N   0  0  0  0  0  0  0  0  0  0  0  0
  187.9230  178.1100  142.8450 C   0  0  0  0  0  0  0  0  0  0  0  0
  187.9530  178.6600  140.5830 C   0  0  1  0  0  3  0  0  0  0  0  0
  184.0350  175.1080  136.8800 C   0  0  0  0  0  3  0  0  0  0  0  0
  183.8520  176.8610  138.5490 C   0  0  0  0  0  0  0  0  0  0  0  0
  186.5280  178.8520  141.1470 C   0  0  1  0  0  3  0  0  0  0  0  0
  188.8900  178.1190  141.7030 C   0  0  2  0  0  3  0  0  0  0  0  0
  185.2960  175.6010  136.4990 C   0  0  0  0  0  3  0  0  0  0  0  0
  184.3450  178.3180  143.4240 C   0  0  1  0  0  3  0  0  0  0  0  0
  187.9250  177.7240  144.1800 C   0  0  0  0  0  0  0  0  0  0  0  0
  186.4660  178.3950  134.5940 S   0  0  0  0  0  1  0  0  0  0  0  0
  183.8750  179.4100  144.3870 C   0  0  0  0  0  1  0  0  0  0  0  0
  182.6740  179.1590  141.9050 O   0  0  0  0  0  0  0  0  0  0  0  0
  187.2320  177.2310  137.0290 C   0  0  1  0  0  0  0  0  0  0  0  0
  187.7340  178.1020  135.8720 C   0  0  1  0  0  3  0  0  0  0  0  0
  185.7950  176.7740  137.0950 C   0  0  0  0  0  0  0  0  0  0  0  0
  186.5840  177.7540  144.6020 C   0  0  0  0  0  3  0  0  0  0  0  0
  189.3140  176.6980  141.3960 C   0  0  0  0  0  1  0  0  0  0  0  0
  189.8070  176.3620  144.6590 F   0  0  0  0  0  0  0  0  0  0  0  0
  189.1050  177.4700  145.1040 C   0  0  0  0  0  0  0  0  0  0  0  0
  189.9650  178.5570  145.0190 F   0  0  0  0  0  0  0  0  0  0  0  0
  187.6800  176.3540  146.6230 F   0  0  0  0  0  0  0  0  0  0  0  0
  188.7240  177.2760  146.5850 C   0  0  1  0  0  0  0  0  0  0  0  0
  189.9120  176.6810  147.3550 C   0  0  0  0  0  1  0  0  0  0  0  0
  188.3230  178.5140  147.1330 O   0  0  0  0  0  0  0  0  0  0  0  0
  187.9400  178.3400  148.4720 C   0  0  0  0  0  1  0  0  0  0  0  0
  1 10  1  0  0  0  0
  3 16  1  0  0  0  0
  4 16  2  0  0  0  0
  5  1  2  0  0  0  0
  7  2  2  0  0  0  0
  7  8  1  0  0  0  0
  9  1  1  0  0  0  0
 10 20  1  0  0  0  0
 11 28  2  0  0  0  0
 12 13  1  0  0  0  0
 12 11  1  0  0  0  0
 13 21  2  0  0  0  0
 14  8  1  6  0  0  0
 14 17  1  0  0  0  0
 14 18  1  0  0  0  0
 15  4  1  0  0  0  0
 16  9  1  0  0  0  0
 17  5  1  6  0  0  0
 17 12  1  0  0  0  0
 18 29  1  6  0  0  0
 18 13  1  0  0  0  0
 19 15  2  0  0  0  0
 19 27  1  0  0  0  0
 20 11  1  0  0  0  0
 20 23  1  1  0  0  0
 21 28  1  0  0  0  0
 21 31  1  0  0  0  0
 24 10  2  0  0  0  0
 25  6  1  6  0  0  0
 25 27  1  0  0  0  0
 25  7  1  0  0  0  0
 26 22  1  6  0  0  0
 26  6  1  0  0  0  0
 26 25  1  0  0  0  0
 27  3  2  0  0  0  0
 30 31  1  0  0  0  0
 31 34  1  0  0  0  0
 32 31  1  0  0  0  0
 34 33  1  0  0  0  0
 34 36  1  0  0  0  0
 34 35  1  1  0  0  0
 36 37  1  0  0  0  0
M  END
>  <MODEL>
1

>  <REMARK>
 VINA RESULT:      -8.1      0.000      0.000
  Name = 
  3 active torsions:
  status: ('A' for Active; 'I' for Inactive)
    1  A    between atoms: O_3  and  C_22
    2  A    between atoms: C_10  and  C_22
    3  A    between atoms: C_10  and  C_26
                            x       y       z     vdW  Elec       q    Type
                         _______ _______ _______ _____ _____    ______ ____

>  <TORSDO>
F 3

$$$$
=
 OpenBabel11062415303D

 37 42  0  0  1  0  0  0  0  0999 V2000
  183.5820  177.7860  141.1250 C   0  0  0  0  0  0  0  0  0  0  0  0
  186.3000  176.0130  137.6380 O   0  0  0  0  0  0  0  0  0  0  0  0
  182.9560  177.0770  138.3820 C   0  0  0  0  0  3  0  0  0  0  0  0
  181.4850  175.3500  139.2180 C   0  0  0  0  0  3  0  0  0  0  0  0
  184.5510  177.8800  140.2560 N   0  0  0  0  0  0  0  0  0  0  0  0
  184.6880  176.1290  135.1450 C   0  0  0  0  0  2  0  0  0  0  0  0
  185.7060  177.0180  137.2680 C   0  0  0  0  0  0  0  0  0  0  0  0
  186.2290  178.3940  137.6520 C   0  0  0  0  0  2  0  0  0  0  0  0
  182.3750  177.0790  140.7470 N   0  0  0  0  0  2  0  0  0  0  0  0
  183.6110  178.5450  142.3930 C   0  0  0  0  0  0  0  0  0  0  0  0
  186.1730  178.4080  142.7310 C   0  0  0  0  0  0  0  0  0  0  0  0
  186.4390  178.5800  141.4330 N   0  0  0  0  0  0  0  0  0  0  0  0
  187.6980  178.2860  141.1840 C   0  0  0  0  0  0  0  0  0  0  0  0
  186.6360  178.6150  139.1390 C   0  0  1  0  0  3  0  0  0  0  0  0
  181.6650  174.6550  138.0010 C   0  0  0  0  0  3  0  0  0  0  0  0
  182.1770  176.5580  139.4190 C   0  0  0  0  0  0  0  0  0  0  0  0
  185.6300  178.8360  140.2900 C   0  0  1  0  0  3  0  0  0  0  0  0
  188.0180  178.2010  139.7240 C   0  0  2  0  0  3  0  0  0  0  0  0
  182.5700  175.1310  137.0350 C   0  0  0  0  0  3  0  0  0  0  0  0
  184.7980  178.4880  143.3590 C   0  0  1  0  0  3  0  0  0  0  0  0
  188.3460  178.0310  142.3870 C   0  0  0  0  0  0  0  0  0  0  0  0
  182.5450  177.7470  134.5940 S   0  0  0  0  0  1  0  0  0  0  0  0
  184.7670  179.6600  144.3420 C   0  0  0  0  0  1  0  0  0  0  0  0
  182.5640  179.1500  142.7450 O   0  0  0  0  0  0  0  0  0  0  0  0
  184.4270  176.8370  136.4640 C   0  0  1  0  0  0  0  0  0  0  0  0
  184.2770  177.6010  135.1440 C   0  0  1  0  0  3  0  0  0  0  0  0
  183.2180  176.3640  137.2340 C   0  0  0  0  0  0  0  0  0  0  0  0
  187.3570  178.0800  143.3860 C   0  0  0  0  0  3  0  0  0  0  0  0
  188.3340  176.7640  139.3660 C   0  0  0  0  0  1  0  0  0  0  0  0
  190.5150  177.7710  141.4630 F   0  0  0  0  0  0  0  0  0  0  0  0
  189.8340  177.8880  142.6630 C   0  0  0  0  0  0  0  0  0  0  0  0
  190.2770  179.0550  143.2720 F   0  0  0  0  0  0  0  0  0  0  0  0
  189.3500  175.6490  143.2460 F   0  0  0  0  0  0  0  0  0  0  0  0
  190.1990  176.7020  143.5790 C   0  0  1  0  0  0  0  0  0  0  0  0
  191.6420  176.2560  143.3010 C   0  0  0  0  0  1  0  0  0  0  0  0
  190.0280  177.0810  144.9280 O   0  0  0  0  0  0  0  0  0  0  0  0
  191.1970  176.8020  145.6540 C   0  0  0  0  0  1  0  0  0  0  0  0
  1 10  1  0  0  0  0
  3 16  1  0  0  0  0
  4 16  2  0  0  0  0
  5  1  2  0  0  0  0
  7  2  2  0  0  0  0
  7  8  1  0  0  0  0
  9  1  1  0  0  0  0
 10 24  2  0  0  0  0
 10 20  1  0  0  0  0
 11 20  1  0  0  0  0
 11 28  2  0  0  0  0
 12 11  1  0  0  0  0
 13 12  1  0  0  0  0
 13 21  2  0  0  0  0
 14  8  1  6  0  0  0
 14 18  1  0  0  0  0
 14 17  1  0  0  0  0
 15  4  1  0  0  0  0
 16  9  1  0  0  0  0
 17  5  1  6  0  0  0
 17 12  1  0  0  0  0
 18 29  1  6  0  0  0
 18 13  1  0  0  0  0
 19 27  1  0  0  0  0
 19 15  2  0  0  0  0
 20 23  1  6  0  0  0
 21 31  1  0  0  0  0
 21 28  1  0  0  0  0
 25  6  1  6  0  0  0
 25 27  1  0  0  0  0
 25  7  1  0  0  0  0
 26 22  1  6  0  0  0
 26  6  1  0  0  0  0
 26 25  1  0  0  0  0
 27  3  2  0  0  0  0
 30 31  1  0  0  0  0
 31 32  1  0  0  0  0
 31 34  1  0  0  0  0
 33 34  1  0  0  0  0
 34 35  1  6  0  0  0
 34 36  1  0  0  0  0
 36 37  1  0  0  0  0
M  END
>  <MODEL>
2

>  <REMARK>
 VINA RESULT:      -7.5      1.884      2.511
  Name = 
  3 active torsions:
  status: ('A' for Active; 'I' for Inactive)
    1  A    between atoms: O_3  and  C_22
    2  A    between atoms: C_10  and  C_22
    3  A    between atoms: C_10  and  C_26
                            x       y       z     vdW  Elec       q    Type
                         _______ _______ _______ _____ _____    ______ ____

>  <TORSDO>
F 3

$$$$
=
 OpenBabel11062415303D

 37 42  0  0  1  0  0  0  0  0999 V2000
  184.4980  178.0040  140.7420 C   0  0  0  0  0  0  0  0  0  0  0  0
  188.3880  176.1040  138.7560 O   0  0  0  0  0  0  0  0  0  0  0  0
  185.2440  177.6400  137.9620 C   0  0  0  0  0  3  0  0  0  0  0  0
  183.3830  176.1160  137.7150 C   0  0  0  0  0  3  0  0  0  0  0  0
  185.7740  178.0080  140.4690 N   0  0  0  0  0  0  0  0  0  0  0  0
  188.2450  176.6920  135.8460 C   0  0  0  0  0  2  0  0  0  0  0  0
  188.1620  177.2200  138.3070 C   0  0  0  0  0  0  0  0  0  0  0  0
  188.5640  178.4540  139.1000 C   0  0  0  0  0  2  0  0  0  0  0  0
  183.5710  177.5410  139.7300 N   0  0  0  0  0  2  0  0  0  0  0  0
  183.9720  178.6400  141.9690 C   0  0  0  0  0  0  0  0  0  0  0  0
  186.0000  178.0530  143.4660 C   0  0  0  0  0  0  0  0  0  0  0  0
  186.8910  178.2870  142.4980 N   0  0  0  0  0  0  0  0  0  0  0  0
  188.0690  177.8110  142.8400 C   0  0  0  0  0  0  0  0  0  0  0  0
  188.2010  178.4800  140.6140 C   0  0  1  0  0  3  0  0  0  0  0  0
  184.0700  175.5050  136.6420 C   0  0  0  0  0  3  0  0  0  0  0  0
  184.0050  177.1720  138.4060 C   0  0  0  0  0  0  0  0  0  0  0  0
  186.7850  178.7680  141.1620 C   0  0  1  0  0  3  0  0  0  0  0  0
  189.0600  177.7960  141.7180 C   0  0  2  0  0  3  0  0  0  0  0  0
  185.3780  175.9040  136.3140 C   0  0  0  0  0  3  0  0  0  0  0  0
  184.5110  178.3070  143.3640 C   0  0  1  0  0  3  0  0  0  0  0  0
  188.0060  177.3530  144.1510 C   0  0  0  0  0  0  0  0  0  0  0  0
  186.8350  178.6820  134.5940 S   0  0  0  0  0  1  0  0  0  0  0  0
  184.1180  179.3810  144.3790 C   0  0  0  0  0  1  0  0  0  0  0  0
  182.9570  179.3780  141.8660 O   0  0  0  0  0  0  0  0  0  0  0  0
  187.4380  177.3210  136.9710 C   0  0  1  0  0  0  0  0  0  0  0  0
  188.0420  178.2060  135.8760 C   0  0  1  0  0  3  0  0  0  0  0  0
  185.9650  176.9920  136.9850 C   0  0  0  0  0  0  0  0  0  0  0  0
  186.6630  177.4800  144.5490 C   0  0  0  0  0  3  0  0  0  0  0  0
  189.3630  176.3620  141.3380 C   0  0  0  0  0  1  0  0  0  0  0  0
  188.6080  176.4750  146.2710 F   0  0  0  0  0  0  0  0  0  0  0  0
  189.1370  176.9430  145.0790 C   0  0  0  0  0  0  0  0  0  0  0  0
  189.8190  175.8850  144.4930 F   0  0  0  0  0  0  0  0  0  0  0  0
  189.7730  178.6600  146.5740 F   0  0  0  0  0  0  0  0  0  0  0  0
  190.1560  178.0630  145.3740 C   0  0  1  0  0  0  0  0  0  0  0  0
  191.5530  177.4570  145.5690 C   0  0  0  0  0  1  0  0  0  0  0  0
  190.1430  179.0000  144.3180 O   0  0  0  0  0  0  0  0  0  0  0  0
  191.4480  179.4480  144.0630 C   0  0  0  0  0  1  0  0  0  0  0  0
  1 10  1  0  0  0  0
  3 16  1  0  0  0  0
  4 16  2  0  0  0  0
  5  1  2  0  0  0  0
  6 26  1  0  0  0  0
  7  2  2  0  0  0  0
  7  8  1  0  0  0  0
  9  1  1  0  0  0  0
 10 20  1  0  0  0  0
 11 28  2  0  0  0  0
 12 13  1  0  0  0  0
 12 11  1  0  0  0  0
 13 21  2  0  0  0  0
 14  8  1  6  0  0  0
 14 17  1  0  0  0  0
 14 18  1  0  0  0  0
 15  4  1  0  0  0  0
 16  9  1  0  0  0  0
 17  5  1  6  0  0  0
 17 12  1  0  0  0  0
 18 29  1  6  0  0  0
 18 13  1  0  0  0  0
 19 15  2  0  0  0  0
 19 27  1  0  0  0  0
 20 11  1  0  0  0  0
 20 23  1  1  0  0  0
 21 28  1  0  0  0  0
 21 31  1  0  0  0  0
 24 10  2  0  0  0  0
 25  6  1  6  0  0  0
 25 27  1  0  0  0  0
 25  7  1  0  0  0  0
 26 22  1  6  0  0  0
 26 25  1  0  0  0  0
 27  3  2  0  0  0  0
 31 34  1  0  0  0  0
 31 30  1  0  0  0  0
 32 31  1  0  0  0  0
 34 35  1  1  0  0  0
 34 33  1  0  0  0  0
 36 34  1  0  0  0  0
 37 36  1  0  0  0  0
M  END
>  <MODEL>
3

>  <REMARK>
 VINA RESULT:      -7.4      1.056      1.465
  Name = 
  3 active torsions:
  status: ('A' for Active; 'I' for Inactive)
    1  A    between atoms: O_3  and  C_22
    2  A    between atoms: C_10  and  C_22
    3  A    between atoms: C_10  and  C_26
                            x       y       z     vdW  Elec       q    Type
                         _______ _______ _______ _____ _____    ______ ____

>  <TORSDO>
F 3

$$$$
=
 OpenBabel11062415303D

 37 42  0  0  1  0  0  0  0  0999 V2000
  186.9140  178.2400  139.4580 C   0  0  0  0  0  0  0  0  0  0  0  0
  182.6790  176.1150  138.9750 O   0  0  0  0  0  0  0  0  0  0  0  0
  184.2540  179.0690  140.2660 C   0  0  0  0  0  3  0  0  0  0  0  0
  184.9670  178.9360  142.5720 C   0  0  0  0  0  3  0  0  0  0  0  0
  185.9170  177.8040  138.7380 N   0  0  0  0  0  0  0  0  0  0  0  0
  180.6200  178.1070  139.7660 C   0  0  0  0  0  2  0  0  0  0  0  0
  182.6510  177.2600  138.5430 C   0  0  0  0  0  0  0  0  0  0  0  0
  183.2120  177.5640  137.1620 C   0  0  0  0  0  2  0  0  0  0  0  0
  186.6320  178.8470  140.7430 N   0  0  0  0  0  2  0  0  0  0  0  0
  188.2860  178.3080  138.9110 C   0  0  0  0  0  0  0  0  0  0  0  0
  188.0940  176.1890  137.4390 C   0  0  0  0  0  0  0  0  0  0  0  0
  186.8360  176.4520  137.0740 N   0  0  0  0  0  0  0  0  0  0  0  0
  186.2960  175.3940  136.5070 C   0  0  0  0  0  0  0  0  0  0  0  0
  184.6070  176.9680  136.8100 C   0  0  1  0  0  3  0  0  0  0  0  0
  183.6190  178.7320  142.9420 C   0  0  0  0  0  3  0  0  0  0  0  0
  185.2850  179.0640  141.2080 C   0  0  0  0  0  0  0  0  0  0  0  0
  185.9490  177.5380  137.3210 C   0  0  1  0  0  3  0  0  0  0  0  0
  184.8170  175.5120  136.3010 C   0  0  2  0  0  3  0  0  0  0  0  0
  182.6220  178.5970  141.9580 C   0  0  0  0  0  3  0  0  0  0  0  0
  188.9740  177.1030  138.2640 C   0  0  1  0  0  3  0  0  0  0  0  0
  187.2710  174.4150  136.3620 C   0  0  0  0  0  0  0  0  0  0  0  0
  180.8440  180.8390  139.8110 S   0  0  0  0  0  1  0  0  0  0  0  0
  190.1720  177.5390  137.4170 C   0  0  0  0  0  1  0  0  0  0  0  0
  188.9510  179.3600  139.1080 O   0  0  0  0  0  0  0  0  0  0  0  0
  182.0850  178.3510  139.4420 C   0  0  1  0  0  0  0  0  0  0  0  0
  181.0100  179.2840  138.8730 C   0  0  1  0  0  3  0  0  0  0  0  0
  182.9520  178.7740  140.6020 C   0  0  0  0  0  0  0  0  0  0  0  0
  188.4260  174.9130  136.9900 C   0  0  0  0  0  3  0  0  0  0  0  0
  184.1080  174.5280  137.2080 C   0  0  0  0  0  1  0  0  0  0  0  0
  186.2350  173.2200  134.5940 F   0  0  0  0  0  0  0  0  0  0  0  0
  187.2220  173.1240  135.5610 C   0  0  0  0  0  0  0  0  0  0  0  0
  188.4320  172.9800  134.8940 F   0  0  0  0  0  0  0  0  0  0  0  0
  186.9890  172.2530  137.7450 F   0  0  0  0  0  0  0  0  0  0  0  0
  186.9900  171.8570  136.4080 C   0  0  1  0  0  0  0  0  0  0  0  0
  185.6120  171.2620  136.0870 C   0  0  0  0  0  1  0  0  0  0  0  0
  188.0240  170.9290  136.1590 O   0  0  0  0  0  0  0  0  0  0  0  0
  187.5620  169.9220  135.2970 C   0  0  0  0  0  1  0  0  0  0  0  0
  1  9  1  0  0  0  0
  3 27  2  0  0  0  0
  3 16  1  0  0  0  0
  4 15  1  0  0  0  0
  5  1  2  0  0  0  0
  7  2  2  0  0  0  0
  7 25  1  0  0  0  0
  8  7  1  0  0  0  0
  9 16  1  0  0  0  0
 10 24  2  0  0  0  0
 10  1  1  0  0  0  0
 11 20  1  0  0  0  0
 12 17  1  0  0  0  0
 12 11  1  0  0  0  0
 13 12  1  0  0  0  0
 14  8  1  1  0  0  0
 14 17  1  0  0  0  0
 16  4  2  0  0  0  0
 17  5  1  1  0  0  0
 18 13  1  0  0  0  0
 18 14  1  0  0  0  0
 18 29  1  1  0  0  0
 19 15  2  0  0  0  0
 20 23  1  6  0  0  0
 20 10  1  0  0  0  0
 21 13  2  0  0  0  0
 21 28  1  0  0  0  0
 25  6  1  1  0  0  0
 25 27  1  0  0  0  0
 26 25  1  0  0  0  0
 26  6  1  0  0  0  0
 26 22  1  1  0  0  0
 27 19  1  0  0  0  0
 28 11  2  0  0  0  0
 30 31  1  0  0  0  0
 31 21  1  0  0  0  0
 31 34  1  0  0  0  0
 32 31  1  0  0  0  0
 34 35  1  6  0  0  0
 34 33  1  0  0  0  0
 36 34  1  0  0  0  0
 37 36  1  0  0  0  0
M  END
>  <MODEL>
4

>  <REMARK>
 VINA RESULT:      -7.1      4.274      7.987
  Name = 
  3 active torsions:
  status: ('A' for Active; 'I' for Inactive)
    1  A    between atoms: O_3  and  C_22
    2  A    between atoms: C_10  and  C_22
    3  A    between atoms: C_10  and  C_26
                            x       y       z     vdW  Elec       q    Type
                         _______ _______ _______ _____ _____    ______ ____

>  <TORSDO>
F 3

$$$$
=
 OpenBabel11062415303D

 37 42  0  0  1  0  0  0  0  0999 V2000
  183.3200  178.5340  143.6520 C   0  0  0  0  0  0  0  0  0  0  0  0
  183.9440  177.6580  139.0120 O   0  0  0  0  0  0  0  0  0  0  0  0
  181.6150  179.0480  141.3610 C   0  0  0  0  0  3  0  0  0  0  0  0
  180.0090  177.4870  142.2700 C   0  0  0  0  0  3  0  0  0  0  0  0
  183.9150  178.7380  142.5090 N   0  0  0  0  0  0  0  0  0  0  0  0
  181.7380  179.0320  137.5710 C   0  0  0  0  0  2  0  0  0  0  0  0
  183.6430  178.8290  139.2040 C   0  0  0  0  0  0  0  0  0  0  0  0
  184.7010  179.8180  139.6680 C   0  0  0  0  0  2  0  0  0  0  0  0
  181.8920  178.2910  143.6600 N   0  0  0  0  0  2  0  0  0  0  0  0
  184.0260  178.7410  144.9340 C   0  0  0  0  0  0  0  0  0  0  0  0
  186.3430  177.9500  144.0960 C   0  0  0  0  0  0  0  0  0  0  0  0
  186.2050  178.5330  142.9020 N   0  0  0  0  0  0  0  0  0  0  0  0
  187.1280  178.0940  142.0720 C   0  0  0  0  0  0  0  0  0  0  0  0
  185.6270  179.3780  140.8390 C   0  0  1  0  0  3  0  0  0  0  0  0
  179.5250  177.2740  140.9600 C   0  0  0  0  0  3  0  0  0  0  0  0
  181.0980  178.3570  142.4590 C   0  0  0  0  0  0  0  0  0  0  0  0
  185.2020  179.3610  142.3240 C   0  0  1  0  0  3  0  0  0  0  0  0
  186.8950  178.4940  140.6480 C   0  0  2  0  0  3  0  0  0  0  0  0
  180.1620  177.8730  139.8580 C   0  0  0  0  0  3  0  0  0  0  0  0
  185.3710  178.0790  145.2490 C   0  0  1  0  0  3  0  0  0  0  0  0
  188.0100  177.2790  142.7710 C   0  0  0  0  0  0  0  0  0  0  0  0
  180.2250  181.1520  138.4270 S   0  0  0  0  0  1  0  0  0  0  0  0
  186.0710  178.7770  146.4160 C   0  0  0  0  0  1  0  0  0  0  0  0
  183.4300  179.3780  145.8430 O   0  0  0  0  0  0  0  0  0  0  0  0
  182.1890  179.2350  139.0080 C   0  0  1  0  0  0  0  0  0  0  0  0
  181.8810  180.4490  138.1250 C   0  0  1  0  0  3  0  0  0  0  0  0
  181.2200  178.7760  140.0710 C   0  0  0  0  0  0  0  0  0  0  0  0
  187.4890  177.1590  144.0720 C   0  0  0  0  0  3  0  0  0  0  0  0
  186.5620  177.2630  139.8320 C   0  0  0  0  0  1  0  0  0  0  0  0
  189.4700  175.4100  142.7360 F   0  0  0  0  0  0  0  0  0  0  0  0
  189.3600  176.7320  142.3380 C   0  0  0  0  0  0  0  0  0  0  0  0
  189.4090  176.7440  140.9500 F   0  0  0  0  0  0  0  0  0  0  0  0
  191.0170  176.8840  144.0150 F   0  0  0  0  0  0  0  0  0  0  0  0
  190.5690  177.5300  142.8650 C   0  0  1  0  0  0  0  0  0  0  0  0
  191.7030  177.5010  141.8310 C   0  0  0  0  0  1  0  0  0  0  0  0
  190.1690  178.8530  143.1540 O   0  0  0  0  0  0  0  0  0  0  0  0
  190.9630  179.3760  144.1860 C   0  0  0  0  0  1  0  0  0  0  0  0
  1  9  1  0  0  0  0
  1 10  1  0  0  0  0
  2  7  2  0  0  0  0
  3 16  1  0  0  0  0
  4 16  2  0  0  0  0
  5  1  2  0  0  0  0
  6 26  1  0  0  0  0
  7  8  1  0  0  0  0
 10 20  1  0  0  0  0
 10 24  2  0  0  0  0
 11 20  1  0  0  0  0
 12 11  1  0  0  0  0
 13 21  2  0  0  0  0
 13 12  1  0  0  0  0
 14  8  1  6  0  0  0
 14 17  1  0  0  0  0
 15  4  1  0  0  0  0
 16  9  1  0  0  0  0
 17  5  1  6  0  0  0
 17 12  1  0  0  0  0
 18 29  1  6  0  0  0
 18 14  1  0  0  0  0
 18 13  1  0  0  0  0
 19 27  1  0  0  0  0
 19 15  2  0  0  0  0
 20 23  1  1  0  0  0
 21 28  1  0  0  0  0
 25  6  1  6  0  0  0
 25  7  1  0  0  0  0
 25 27  1  0  0  0  0
 26 22  1  1  0  0  0
 26 25  1  0  0  0  0
 27  3  2  0  0  0  0
 28 11  2  0  0  0  0
 31 30  1  0  0  0  0
 31 21  1  0  0  0  0
 31 34  1  0  0  0  0
 32 31  1  0  0  0  0
 34 35  1  6  0  0  0
 34 36  1  0  0  0  0
 34 33  1  0  0  0  0
 36 37  1  0  0  0  0
M  END
>  <MODEL>
5

>  <REMARK>
 VINA RESULT:      -7.0      2.964      4.358
  Name = 
  3 active torsions:
  status: ('A' for Active; 'I' for Inactive)
    1  A    between atoms: O_3  and  C_22
    2  A    between atoms: C_10  and  C_22
    3  A    between atoms: C_10  and  C_26
                            x       y       z     vdW  Elec       q    Type
                         _______ _______ _______ _____ _____    ______ ____

>  <TORSDO>
F 3

$$$$
=
 OpenBabel11062415303D

 37 42  0  0  1  0  0  0  0  0999 V2000
  185.7980  176.4030  137.2110 C   0  0  0  0  0  0  0  0  0  0  0  0
  189.6970  176.0120  139.9180 O   0  0  0  0  0  0  0  0  0  0  0  0
  188.4770  175.4830  136.5860 C   0  0  0  0  0  3  0  0  0  0  0  0
  187.5680  173.2850  136.1560 C   0  0  0  0  0  3  0  0  0  0  0  0
  186.7750  176.9150  137.9090 N   0  0  0  0  0  0  0  0  0  0  0  0
  191.9570  175.3940  138.0900 C   0  0  0  0  0  2  0  0  0  0  0  0
  189.9290  176.6470  138.8980 C   0  0  0  0  0  0  0  0  0  0  0  0
  189.5330  178.1130  138.8100 C   0  0  0  0  0  2  0  0  0  0  0  0
  186.0620  175.2340  136.3980 N   0  0  0  0  0  2  0  0  0  0  0  0
  184.5000  177.1000  137.0780 C   0  0  0  0  0  0  0  0  0  0  0  0
  184.4950  178.1140  139.4590 C   0  0  0  0  0  0  0  0  0  0  0  0
  185.8040  178.3830  139.4400 N   0  0  0  0  0  0  0  0  0  0  0  0
  186.2260  178.6770  140.6510 C   0  0  0  0  0  0  0  0  0  0  0  0
  188.0990  178.4950  139.2800 C   0  0  1  0  0  3  0  0  0  0  0  0
  188.8360  172.7390  136.4520 C   0  0  0  0  0  3  0  0  0  0  0  0
  187.3830  174.6750  136.2670 C   0  0  0  0  0  0  0  0  0  0  0  0
  186.8190  178.2510  138.4500 C   0  0  1  0  0  3  0  0  0  0  0  0
  187.7170  178.7390  140.7700 C   0  0  2  0  0  3  0  0  0  0  0  0
  189.8780  173.5640  136.9120 C   0  0  0  0  0  3  0  0  0  0  0  0
  183.6960  177.5780  138.2910 C   0  0  1  0  0  3  0  0  0  0  0  0
  185.1310  178.7390  141.5060 C   0  0  0  0  0  0  0  0  0  0  0  0
  192.1370  175.8910  135.4010 S   0  0  0  0  0  1  0  0  0  0  0  0
  182.6490  178.6160  137.8850 C   0  0  0  0  0  1  0  0  0  0  0  0
  183.9840  177.1780  135.9320 O   0  0  0  0  0  0  0  0  0  0  0  0
  190.5760  175.9150  137.7300 C   0  0  1  0  0  0  0  0  0  0  0  0
  191.8190  176.5300  137.0790 C   0  0  1  0  0  3  0  0  0  0  0  0
  189.6900  174.9570  136.9720 C   0  0  0  0  0  0  0  0  0  0  0  0
  184.0150  178.3470  140.7460 C   0  0  0  0  0  3  0  0  0  0  0  0
  188.1970  177.5910  141.6330 C   0  0  0  0  0  1  0  0  0  0  0  0
  185.9000  180.3600  143.0580 F   0  0  0  0  0  0  0  0  0  0  0  0
  185.0530  179.2710  142.9270 C   0  0  0  0  0  0  0  0  0  0  0  0
  183.7610  179.7320  143.1490 F   0  0  0  0  0  0  0  0  0  0  0  0
  185.5630  177.0070  143.3720 F   0  0  0  0  0  0  0  0  0  0  0  0
  185.3820  178.2300  144.0150 C   0  0  1  0  0  0  0  0  0  0  0  0
  186.7000  178.6010  144.7100 C   0  0  0  0  0  1  0  0  0  0  0  0
  184.3150  178.1610  144.9370 O   0  0  0  0  0  0  0  0  0  0  0  0
  184.7510  178.5840  146.2030 C   0  0  0  0  0  1  0  0  0  0  0  0
  1  5  2  0  0  0  0
  3 27  1  0  0  0  0
  4 16  1  0  0  0  0
  4 15  2  0  0  0  0
  7  2  2  0  0  0  0
  8  7  1  0  0  0  0
  9  1  1  0  0  0  0
 10  1  1  0  0  0  0
 10 20  1  0  0  0  0
 11 28  2  0  0  0  0
 12 11  1  0  0  0  0
 12 13  1  0  0  0  0
 13 18  1  0  0  0  0
 13 21  2  0  0  0  0
 14  8  1  1  0  0  0
 14 18  1  0  0  0  0
 15 19  1  0  0  0  0
 16  9  1  0  0  0  0
 16  3  2  0  0  0  0
 17  5  1  1  0  0  0
 17 14  1  0  0  0  0
 17 12  1  0  0  0  0
 18 29  1  1  0  0  0
 19 27  2  0  0  0  0
 20 23  1  6  0  0  0
 20 11  1  0  0  0  0
 21 31  1  0  0  0  0
 24 10  2  0  0  0  0
 25  6  1  1  0  0  0
 25  7  1  0  0  0  0
 26 22  1  6  0  0  0
 26 25  1  0  0  0  0
 26  6  1  0  0  0  0
 27 25  1  0  0  0  0
 28 21  1  0  0  0  0
 31 30  1  0  0  0  0
 31 32  1  0  0  0  0
 31 34  1  0  0  0  0
 33 34  1  0  0  0  0
 34 35  1  1  0  0  0
 34 36  1  0  0  0  0
 36 37  1  0  0  0  0
M  END
>  <MODEL>
6

>  <REMARK>
 VINA RESULT:      -7.0      2.943      4.397
  Name = 
  3 active torsions:
  status: ('A' for Active; 'I' for Inactive)
    1  A    between atoms: O_3  and  C_22
    2  A    between atoms: C_10  and  C_22
    3  A    between atoms: C_10  and  C_26
                            x       y       z     vdW  Elec       q    Type
                         _______ _______ _______ _____ _____    ______ ____

>  <TORSDO>
F 3

$$$$
=
 OpenBabel11062415303D

 37 42  0  0  1  0  0  0  0  0999 V2000
  185.1790  177.9920  139.0170 C   0  0  0  0  0  0  0  0  0  0  0  0
  180.8850  176.0810  139.7900 O   0  0  0  0  0  0  0  0  0  0  0  0
  182.8540  179.0130  140.4200 C   0  0  0  0  0  3  0  0  0  0  0  0
  184.1360  178.9760  142.4690 C   0  0  0  0  0  3  0  0  0  0  0  0
  184.0120  177.5710  138.6100 N   0  0  0  0  0  0  0  0  0  0  0  0
  179.1810  178.2270  140.9400 C   0  0  0  0  0  2  0  0  0  0  0  0
  180.7890  177.1980  139.3000 C   0  0  0  0  0  0  0  0  0  0  0  0
  180.9840  177.3900  137.8030 C   0  0  0  0  0  2  0  0  0  0  0  0
  185.2640  178.6880  140.2850 N   0  0  0  0  0  2  0  0  0  0  0  0
  186.3620  177.9520  138.1310 C   0  0  0  0  0  0  0  0  0  0  0  0
  185.7130  175.7640  136.9120 C   0  0  0  0  0  0  0  0  0  0  0  0
  184.4140  176.0750  136.8650 N   0  0  0  0  0  0  0  0  0  0  0  0
  183.7040  175.0180  136.5320 C   0  0  0  0  0  0  0  0  0  0  0  0
  182.2140  176.6980  137.1480 C   0  0  1  0  0  3  0  0  0  0  0  0
  182.9240  178.8700  143.1860 C   0  0  0  0  0  3  0  0  0  0  0  0
  184.0940  179.0060  141.0630 C   0  0  0  0  0  0  0  0  0  0  0  0
  183.6640  177.2210  137.2550 C   0  0  1  0  0  3  0  0  0  0  0  0
  182.2290  175.2050  136.7060 C   0  0  2  0  0  3  0  0  0  0  0  0
  181.7020  178.7320  142.5040 C   0  0  0  0  0  3  0  0  0  0  0  0
  186.8120  176.6740  137.4160 C   0  0  1  0  0  3  0  0  0  0  0  0
  184.5700  173.9790  136.2110 C   0  0  0  0  0  0  0  0  0  0  0  0
  179.5130  180.9400  140.7330 S   0  0  0  0  0  1  0  0  0  0  0  0
  187.7630  176.9930  136.2620 C   0  0  0  0  0  1  0  0  0  0  0  0
  187.0960  178.9750  138.0770 O   0  0  0  0  0  0  0  0  0  0  0  0
  180.5190  178.3700  140.2340 C   0  0  1  0  0  0  0  0  0  0  0  0
  179.3700  179.3260  139.8960 C   0  0  1  0  0  3  0  0  0  0  0  0
  181.6740  178.8110  141.1000 C   0  0  0  0  0  0  0  0  0  0  0  0
  185.8670  174.4480  136.4840 C   0  0  0  0  0  3  0  0  0  0  0  0
  181.7420  174.3170  137.8320 C   0  0  0  0  0  1  0  0  0  0  0  0
  183.2720  172.8270  134.5940 F   0  0  0  0  0  0  0  0  0  0  0  0
  184.2650  172.6480  135.5430 C   0  0  0  0  0  0  0  0  0  0  0  0
  185.4040  172.2300  134.8670 F   0  0  0  0  0  0  0  0  0  0  0  0
  184.3300  171.8790  137.7760 F   0  0  0  0  0  0  0  0  0  0  0  0
  183.8490  171.5270  136.5170 C   0  0  1  0  0  0  0  0  0  0  0  0
  182.3180  171.4500  136.5980 C   0  0  0  0  0  1  0  0  0  0  0  0
  184.4050  170.3030  136.0890 O   0  0  0  0  0  0  0  0  0  0  0  0
  183.4930  169.6290  135.2620 C   0  0  0  0  0  1  0  0  0  0  0  0
  1  9  1  0  0  0  0
  3 16  2  0  0  0  0
  3 27  1  0  0  0  0
  4 15  2  0  0  0  0
  5  1  2  0  0  0  0
  7  2  2  0  0  0  0
  7 25  1  0  0  0  0
  8  7  1  0  0  0  0
  9 16  1  0  0  0  0
 10  1  1  0  0  0  0
 11 20  1  0  0  0  0
 12 11  1  0  0  0  0
 12 17  1  0  0  0  0
 13 18  1  0  0  0  0
 13 12  1  0  0  0  0
 14 17  1  0  0  0  0
 14  8  1  1  0  0  0
 16  4  1  0  0  0  0
 17  5  1  1  0  0  0
 18 14  1  0  0  0  0
 18 29  1  1  0  0  0
 19 15  1  0  0  0  0
 20 23  1  6  0  0  0
 20 10  1  0  0  0  0
 21 28  1  0  0  0  0
 21 13  2  0  0  0  0
 24 10  2  0  0  0  0
 25  6  1  1  0  0  0
 25 27  1  0  0  0  0
 26 25  1  0  0  0  0
 26 22  1  1  0  0  0
 26  6  1  0  0  0  0
 27 19  2  0  0  0  0
 28 11  2  0  0  0  0
 30 31  1  0  0  0  0
 31 21  1  0  0  0  0
 31 34  1  0  0  0  0
 32 31  1  0  0  0  0
 34 35  1  1  0  0  0
 34 33  1  0  0  0  0
 36 34  1  0  0  0  0
 37 36  1  0  0  0  0
M  END
>  <MODEL>
7

>  <REMARK>
 VINA RESULT:      -6.5      4.838      8.816
  Name = 
  3 active torsions:
  status: ('A' for Active; 'I' for Inactive)
    1  A    between atoms: O_3  and  C_22
    2  A    between atoms: C_10  and  C_22
    3  A    between atoms: C_10  and  C_26
                            x       y       z     vdW  Elec       q    Type
                         _______ _______ _______ _____ _____    ______ ____

>  <TORSDO>
F 3

$$$$
=
 OpenBabel11062415303D

 37 42  0  0  1  0  0  0  0  0999 V2000
  184.4050  177.6530  139.3860 C   0  0  0  0  0  0  0  0  0  0  0  0
  188.9060  176.0960  139.4160 O   0  0  0  0  0  0  0  0  0  0  0  0
  186.2370  177.0520  137.2180 C   0  0  0  0  0  3  0  0  0  0  0  0
  184.7650  175.2580  136.5400 C   0  0  0  0  0  3  0  0  0  0  0  0
  185.6780  177.8060  139.6300 N   0  0  0  0  0  0  0  0  0  0  0  0
  189.9020  176.2850  136.6220 C   0  0  0  0  0  2  0  0  0  0  0  0
  188.7910  177.1020  138.7280 C   0  0  0  0  0  0  0  0  0  0  0  0
  188.7370  178.4710  139.3890 C   0  0  0  0  0  2  0  0  0  0  0  0
  184.0070  176.9380  138.1920 N   0  0  0  0  0  2  0  0  0  0  0  0
  183.3790  178.3570  140.1850 C   0  0  0  0  0  0  0  0  0  0  0  0
  184.6710  178.2610  142.4260 C   0  0  0  0  0  0  0  0  0  0  0  0
  185.8550  178.4960  141.8520 N   0  0  0  0  0  0  0  0  0  0  0  0
  186.8290  178.2410  142.6990 C   0  0  0  0  0  0  0  0  0  0  0  0
  187.7930  178.6350  140.6160 C   0  0  1  0  0  3  0  0  0  0  0  0
  185.8730  174.6210  135.9380 C   0  0  0  0  0  3  0  0  0  0  0  0
  184.9660  176.4710  137.2230 C   0  0  0  0  0  0  0  0  0  0  0  0
  186.2580  178.7840  140.5180 C   0  0  1  0  0  3  0  0  0  0  0  0
  188.1860  178.2270  142.0660 C   0  0  2  0  0  3  0  0  0  0  0  0
  187.1650  175.1590  136.0760 C   0  0  0  0  0  3  0  0  0  0  0  0
  183.3350  178.2840  141.7150 C   0  0  1  0  0  3  0  0  0  0  0  0
  186.2800  177.9480  143.9410 C   0  0  0  0  0  0  0  0  0  0  0  0
  188.9620  177.8780  134.5990 S   0  0  0  0  0  1  0  0  0  0  0  0
  182.4790  179.4100  142.2970 C   0  0  0  0  0  1  0  0  0  0  0  0
  182.4360  178.9230  139.5720 O   0  0  0  0  0  0  0  0  0  0  0  0
  188.6620  176.9280  137.2210 C   0  0  1  0  0  0  0  0  0  0  0  0
  189.5830  177.7460  136.3090 C   0  0  1  0  0  3  0  0  0  0  0  0
  187.3410  176.3960  136.7230 C   0  0  0  0  0  0  0  0  0  0  0  0
  184.8850  177.9300  143.7620 C   0  0  0  0  0  3  0  0  0  0  0  0
  188.7320  176.8140  142.0870 C   0  0  0  0  0  1  0  0  0  0  0  0
  187.0020  176.4930  145.6700 F   0  0  0  0  0  0  0  0  0  0  0  0
  186.9700  177.8250  145.2900 C   0  0  0  0  0  0  0  0  0  0  0  0
  188.2870  178.2390  145.1440 F   0  0  0  0  0  0  0  0  0  0  0  0
  185.8050  179.8120  145.8180 F   0  0  0  0  0  0  0  0  0  0  0  0
  186.3270  178.6650  146.4120 C   0  0  1  0  0  0  0  0  0  0  0  0
  185.1640  177.8860  147.0430 C   0  0  0  0  0  1  0  0  0  0  0  0
  187.3070  178.9950  147.3720 O   0  0  0  0  0  0  0  0  0  0  0  0
  187.5190  177.9050  148.2310 C   0  0  0  0  0  1  0  0  0  0  0  0
  1  5  2  0  0  0  0
  1 10  1  0  0  0  0
  3 16  1  0  0  0  0
  4 16  2  0  0  0  0
  7  8  1  0  0  0  0
  7  2  2  0  0  0  0
  9  1  1  0  0  0  0
 10 20  1  0  0  0  0
 11 28  2  0  0  0  0
 12 11  1  0  0  0  0
 12 13  1  0  0  0  0
 13 21  2  0  0  0  0
 14  8  1  6  0  0  0
 14 18  1  0  0  0  0
 15 19  2  0  0  0  0
 15  4  1  0  0  0  0
 16  9  1  0  0  0  0
 17  5  1  6  0  0  0
 17 14  1  0  0  0  0
 17 12  1  0  0  0  0
 18 29  1  6  0  0  0
 18 13  1  0  0  0  0
 19 27  1  0  0  0  0
 20 23  1  1  0  0  0
 20 11  1  0  0  0  0
 21 31  1  0  0  0  0
 24 10  2  0  0  0  0
 25  6  1  6  0  0  0
 25  7  1  0  0  0  0
 26 22  1  6  0  0  0
 26  6  1  0  0  0  0
 26 25  1  0  0  0  0
 27  3  2  0  0  0  0
 27 25  1  0  0  0  0
 28 21  1  0  0  0  0
 31 30  1  0  0  0  0
 31 34  1  0  0  0  0
 32 31  1  0  0  0  0
 33 34  1  0  0  0  0
 34 35  1  1  0  0  0
 34 36  1  0  0  0  0
 36 37  1  0  0  0  0
M  END
>  <MODEL>
8

>  <REMARK>
 VINA RESULT:      -6.5      1.486      1.973
  Name = 
  3 active torsions:
  status: ('A' for Active; 'I' for Inactive)
    1  A    between atoms: O_3  and  C_22
    2  A    between atoms: C_10  and  C_22
    3  A    between atoms: C_10  and  C_26
                            x       y       z     vdW  Elec       q    Type
                         _______ _______ _______ _____ _____    ______ ____

>  <TORSDO>
F 3

$$$$
=
 OpenBabel11062415303D

 37 42  0  0  1  0  0  0  0  0999 V2000
  181.5920  178.1160  141.6040 C   0  0  0  0  0  0  0  0  0  0  0  0
  183.3280  177.0030  137.3100 O   0  0  0  0  0  0  0  0  0  0  0  0
  180.2870  177.8170  139.0300 C   0  0  0  0  0  3  0  0  0  0  0  0
  179.0690  175.9300  139.9230 C   0  0  0  0  0  3  0  0  0  0  0  0
  182.3100  178.3770  140.5450 N   0  0  0  0  0  0  0  0  0  0  0  0
  181.1360  177.4450  135.3530 C   0  0  0  0  0  2  0  0  0  0  0  0
  182.6640  178.0300  137.2660 C   0  0  0  0  0  0  0  0  0  0  0  0
  183.2730  179.3480  137.7200 C   0  0  0  0  0  2  0  0  0  0  0  0
  180.3260  177.4330  141.4350 N   0  0  0  0  0  2  0  0  0  0  0  0
  181.9450  178.6700  142.9280 C   0  0  0  0  0  0  0  0  0  0  0  0
  184.5090  178.5740  142.5860 C   0  0  0  0  0  0  0  0  0  0  0  0
  184.4380  178.9550  141.3070 N   0  0  0  0  0  0  0  0  0  0  0  0
  185.5910  178.7490  140.7060 C   0  0  0  0  0  0  0  0  0  0  0  0
  184.0450  179.3510  139.0720 C   0  0  1  0  0  3  0  0  0  0  0  0
  178.9310  175.4390  138.6060 C   0  0  0  0  0  3  0  0  0  0  0  0
  179.7940  177.1170  140.1340 C   0  0  0  0  0  0  0  0  0  0  0  0
  183.3660  179.3560  140.4590 C   0  0  1  0  0  3  0  0  0  0  0  0
  185.5290  178.9020  139.2180 C   0  0  2  0  0  3  0  0  0  0  0  0
  179.5630  176.0910  137.5320 C   0  0  0  0  0  3  0  0  0  0  0  0
  183.3390  178.5070  143.5440 C   0  0  1  0  0  3  0  0  0  0  0  0
  186.5220  178.3340  141.6510 C   0  0  0  0  0  0  0  0  0  0  0  0
  178.9310  179.0500  135.6230 S   0  0  0  0  0  1  0  0  0  0  0  0
  183.5640  179.5110  144.6760 C   0  0  0  0  0  1  0  0  0  0  0  0
  181.0250  179.1750  143.6240 O   0  0  0  0  0  0  0  0  0  0  0  0
  181.2210  177.9300  136.7910 C   0  0  1  0  0  0  0  0  0  0  0  0
  180.7450  178.8830  135.6890 C   0  0  1  0  0  3  0  0  0  0  0  0
  180.2460  177.3010  137.7550 C   0  0  0  0  0  0  0  0  0  0  0  0
  185.8190  178.1920  142.8610 C   0  0  0  0  0  3  0  0  0  0  0  0
  185.7370  177.5500  138.5680 C   0  0  0  0  0  1  0  0  0  0  0  0
  188.3340  177.5890  140.3140 F   0  0  0  0  0  0  0  0  0  0  0  0
  188.0300  178.2030  141.5180 C   0  0  0  0  0  0  0  0  0  0  0  0
  188.5750  179.4800  141.4730 F   0  0  0  0  0  0  0  0  0  0  0  0
  188.1340  176.1660  142.7100 F   0  0  0  0  0  0  0  0  0  0  0  0
  188.7060  177.4360  142.6720 C   0  0  1  0  0  0  0  0  0  0  0  0
  190.2050  177.2730  142.3800 C   0  0  0  0  0  1  0  0  0  0  0  0
  188.4890  178.1240  143.8840 O   0  0  0  0  0  0  0  0  0  0  0  0
  189.4690  177.7610  144.8210 C   0  0  0  0  0  1  0  0  0  0  0  0
  1 10  1  0  0  0  0
  3 16  1  0  0  0  0
  4 16  2  0  0  0  0
  5  1  2  0  0  0  0
  6 26  1  0  0  0  0
  7  2  2  0  0  0  0
  7  8  1  0  0  0  0
  9  1  1  0  0  0  0
 10 20  1  0  0  0  0
 10 24  2  0  0  0  0
 11 28  2  0  0  0  0
 11 20  1  0  0  0  0
 12 11  1  0  0  0  0
 13 12  1  0  0  0  0
 13 21  2  0  0  0  0
 14  8  1  6  0  0  0
 14 18  1  0  0  0  0
 14 17  1  0  0  0  0
 15  4  1  0  0  0  0
 16  9  1  0  0  0  0
 17  5  1  6  0  0  0
 17 12  1  0  0  0  0
 18 29  1  6  0  0  0
 18 13  1  0  0  0  0
 19 27  1  0  0  0  0
 19 15  2  0  0  0  0
 20 23  1  1  0  0  0
 21 28  1  0  0  0  0
 25  6  1  6  0  0  0
 25  7  1  0  0  0  0
 25 27  1  0  0  0  0
 26 22  1  1  0  0  0
 26 25  1  0  0  0  0
 27  3  2  0  0  0  0
 30 31  1  0  0  0  0
 31 21  1  0  0  0  0
 31 34  1  0  0  0  0
 32 31  1  0  0  0  0
 34 35  1  6  0  0  0
 34 33  1  0  0  0  0
 34 36  1  0  0  0  0
 36 37  1  0  0  0  0
M  END
>  <MODEL>
9

>  <REMARK>
 VINA RESULT:      -6.3      3.089      4.402
  Name = 
  3 active torsions:
  status: ('A' for Active; 'I' for Inactive)
    1  A    between atoms: O_3  and  C_22
    2  A    between atoms: C_10  and  C_22
    3  A    between atoms: C_10  and  C_26
                            x       y       z     vdW  Elec       q    Type
                         _______ _______ _______ _____ _____    ______ ____

>  <TORSDO>
F 3

$$$$
