=
 OpenBabel11062412013D

 64 69  0  0  1  0  0  0  0  0999 V2000
  181.7420  178.4400  137.8400 O   0  0  0  0  0  0  0  0  0  0  0  0
  182.4090  177.9720  140.1040 C   0  0  1  0  0  3  0  0  0  0  0  0
  184.0390  177.9040  138.3960 C   0  0  1  0  0  3  0  0  0  0  0  0
  181.6030  178.8810  139.1630 C   0  0  2  0  0  3  0  0  0  0  0  0
  183.3800  177.1800  139.4260 O   0  0  0  0  0  0  0  0  0  0  0  0
  183.0780  178.7040  137.4930 C   0  0  0  0  0  2  0  0  0  0  0  0
  185.1810  178.7330  138.9220 C   0  0  0  0  0  0  0  0  0  0  0  0
  184.9500  179.8940  139.3530 O   0  0  0  0  0  0  0  0  0  0  0  0
  186.4900  178.2510  139.0060 O   0  0  0  0  0  0  0  0  0  0  0  0
  189.1360  179.0330  138.3660 O   0  0  0  0  0  1  0  0  0  0  0  0
  187.6860  178.3960  137.7690 P   0  0  2  0  0  0  0  0  0  0  0  0
  187.1590  179.3140  136.6920 O   0  0  0  0  0  0  0  0  0  0  0  0
  187.3150  175.7950  137.4640 O   0  0  0  0  0  0  0  0  0  0  0  0
  187.9920  176.7740  137.0550 C   0  0  0  0  0  0  0  0  0  0  0  0
  189.0630  177.3260  135.0200 O   0  0  0  0  0  0  0  0  0  0  0  0
  189.0230  176.5640  136.0240 C   0  0  0  0  0  0  0  0  0  0  0  0
  189.4070  174.2100  135.9250 O   0  0  0  0  0  1  0  0  0  0  0  0
  190.0170  175.4450  136.1460 C   0  0  1  0  0  3  0  0  0  0  0  0
  191.2350  175.6370  135.2430 C   0  0  0  0  0  2  0  0  0  0  0  0
  192.5180  175.8240  136.0370 C   0  0  1  0  0  3  0  0  0  0  0  0
  192.2750  176.6660  137.1250 O   0  0  0  0  0  1  0  0  0  0  0  0
  192.6960  173.4790  135.9050 O   0  0  0  0  0  0  0  0  0  0  0  0
  193.0500  174.4930  136.4900 C   0  0  0  0  0  0  0  0  0  0  0  0
  194.0370  174.3830  137.6120 C   0  0  0  0  0  2  0  0  0  0  0  0
  195.0910  175.2710  137.4160 O   0  0  0  0  0  1  0  0  0  0  0  0
  180.1330  178.8960  139.5580 C   0  0  0  0  0  2  0  0  0  0  0  0
  179.4150  177.8200  138.8820 N   0  0  0  0  0  2  0  0  0  0  0  0
  179.4330  173.8140  140.2730 C   0  0  0  0  0  3  0  0  0  0  0  0
  179.8350  174.0940  138.9610 C   0  0  0  0  0  3  0  0  0  0  0  0
  179.0160  176.1730  140.6490 C   0  0  0  0  0  3  0  0  0  0  0  0
  179.8310  175.4150  138.4970 C   0  0  0  0  0  3  0  0  0  0  0  0
  179.0220  174.8520  141.1150 C   0  0  0  0  0  3  0  0  0  0  0  0
  179.4260  176.4600  139.3400 C   0  0  0  0  0  0  0  0  0  0  0  0
  183.0060  178.7250  141.1210 O   0  0  0  0  0  0  0  0  0  0  0  0
  182.1770  178.4770  143.3810 C   0  0  0  0  0  2  0  0  0  0  0  0
  184.8210  180.0650  142.9740 O   0  0  0  0  0  0  0  0  0  0  0  0
  183.0230  177.8880  142.2460 C   0  0  2  0  0  3  0  0  0  0  0  0
  182.5870  179.8970  143.7850 C   0  0  0  0  0  2  0  0  0  0  0  0
  185.3970  178.8030  142.6700 C   0  0  2  0  0  3  0  0  0  0  0  0
  184.4480  177.5900  142.7280 C   0  0  0  0  0  2  0  0  0  0  0  0
  184.0610  179.9790  144.1590 C   0  0  0  0  0  2  0  0  0  0  0  0
  187.8670  176.3680  143.8730 O   0  0  0  0  0  0  0  0  0  0  0  0
  190.4820  176.0410  139.4730 O   0  0  0  0  0  0  0  0  0  0  0  0
  191.3820  178.3810  142.2620 C   0  0  0  0  0  2  0  0  0  0  0  0
  187.6960  177.0410  146.1130 O   0  0  0  0  0  0  0  0  0  0  0  0
  188.6090  177.7320  142.0010 C   0  0  0  0  0  2  0  0  0  0  0  0
  192.6810  177.3320  140.5300 C   0  0  0  0  0  0  0  0  0  0  0  0
  186.4600  178.4070  144.7720 O   0  0  0  0  0  0  0  0  0  0  0  0
  189.9690  176.9930  145.2100 C   0  0  2  0  0  3  0  0  0  0  0  0
  189.0690  176.7000  141.1330 O   0  0  0  0  0  0  0  0  0  0  0  0
  188.4590  177.0950  144.9350 C   0  0  1  0  0  0  0  0  0  0  0  0
  191.8280  177.7020  143.5540 C   0  0  0  0  0  2  0  0  0  0  0  0
  193.8040  177.1890  140.0220 O   0  0  0  0  0  0  0  0  0  0  0  0
  187.4390  177.2640  142.8520 C   0  0  2  0  0  3  0  0  0  0  0  0
  187.6960  178.2760  145.4320 C   0  0  2  0  0  3  0  0  0  0  0  0
  190.8350  176.6870  144.0190 C   0  0  0  0  0  0  0  0  0  0  0  0
  191.4970  177.4810  141.0710 C   0  0  0  0  0  0  0  0  0  0  0  0
  190.7660  175.6060  143.4580 O   0  0  0  0  0  0  0  0  0  0  0  0
  190.3300  176.7240  140.5240 C   0  0  0  0  0  0  0  0  0  0  0  0
  186.7140  178.5170  143.3940 C   0  0  1  0  0  3  0  0  0  0  0  0
  190.3080  176.2710  146.3790 O   0  0  0  0  0  0  0  0  0  0  0  0
  191.5450  177.3350  147.9750 O   0  0  0  0  0  1  0  0  0  0  0  0
  192.4260  175.3620  147.0000 C   0  0  0  0  0  1  0  0  0  0  0  0
  191.6060  176.6180  146.7820 C   0  0  1  0  0  3  0  0  0  0  0  0
  1  4  1  0  0  0  0
  2 34  1  1  0  0  0
  3  7  1  1  0  0  0
  3  5  1  0  0  0  0
  4 26  1  1  0  0  0
  4  2  1  0  0  0  0
  5  2  1  0  0  0  0
  6  1  1  0  0  0  0
  6  3  1  0  0  0  0
  7  9  1  0  0  0  0
  7  8  2  0  0  0  0
 11 12  2  6  0  0  0
 11 10  1  0  0  0  0
 11  9  1  0  0  0  0
 14 13  2  0  0  0  0
 14 11  1  0  0  0  0
 15 16  2  0  0  0  0
 16 18  1  0  0  0  0
 16 14  1  0  0  0  0
 18 17  1  6  0  0  0
 19 20  1  0  0  0  0
 19 18  1  0  0  0  0
 20 23  1  0  0  0  0
 20 21  1  1  0  0  0
 22 23  2  0  0  0  0
 23 24  1  0  0  0  0
 25 24  1  0  0  0  0
 27 33  1  0  0  0  0
 27 26  1  0  0  0  0
 28 32  1  0  0  0  0
 29 28  2  0  0  0  0
 30 32  2  0  0  0  0
 31 29  1  0  0  0  0
 31 33  2  0  0  0  0
 33 30  1  0  0  0  0
 35 38  1  0  0  0  0
 36 41  1  0  0  0  0
 37 34  1  6  0  0  0
 37 40  1  0  0  0  0
 37 35  1  0  0  0  0
 38 41  1  0  0  0  0
 39 40  1  1  0  0  0
 39 36  1  0  0  0  0
 39 60  1  0  0  0  0
 43 59  2  0  0  0  0
 44 52  1  0  0  0  0
 47 57  2  0  0  0  0
 49 61  1  1  0  0  0
 50 46  1  0  0  0  0
 51 42  1  6  0  0  0
 51 49  1  0  0  0  0
 51 55  1  0  0  0  0
 51 45  1  0  0  0  0
 52 56  1  0  0  0  0
 53 47  2  0  0  0  0
 54 46  1  1  0  0  0
 54 60  1  0  0  0  0
 54 42  1  0  0  0  0
 55 48  1  6  0  0  0
 55 45  1  0  0  0  0
 56 49  1  0  0  0  0
 57 44  1  0  0  0  0
 58 56  2  0  0  0  0
 59 57  1  0  0  0  0
 59 50  1  0  0  0  0
 60 48  1  1  0  0  0
 61 64  1  0  0  0  0
 64 63  1  1  0  0  0
 64 62  1  0  0  0  0
M  END
>  <MODEL>
1

>  <REMARK>
 VINA RESULT:      -7.2      0.000      0.000
  Name = 
  18 active torsions:
  status: ('A' for Active; 'I' for Inactive)
    1  A    between atoms: C_1  and  O_25
    2  A    between atoms: C_1  and  C_35
    3  A    between atoms: N_2  and  C_54
    4  A    between atoms: N_2  and  C_58
    5  A    between atoms: O_6  and  C_17
    6  A    between atoms: O_6  and  C_64
    7  A    between atoms: O_12  and  C_27
    8  A    between atoms: O_12  and  C_32
    9  A    between atoms: P_20  and  C_24
   10  A    between atoms: P_20  and  O_25
   11  A    between atoms: C_24  and  C_53
   12  A    between atoms: C_36  and  C_38
   13  A    between atoms: C_36  and  C_49
   14  A    between atoms: C_37  and  C_63
   15  A    between atoms: C_38  and  C_46
   16  A    between atoms: C_40  and  C_58
   17  A    between atoms: C_42  and  C_46
   18  A    between atoms: C_49  and  C_53
                            x       y       z     vdW  Elec       q    Type
                         _______ _______ _______ _____ _____    ______ ____

>  <TORSDO>
F 18

$$$$
=
 OpenBabel11062412013D

 64 69  0  0  1  0  0  0  0  0999 V2000
  181.7650  178.4130  137.6510 O   0  0  0  0  0  0  0  0  0  0  0  0
  182.4200  177.9290  139.9150 C   0  0  1  0  0  3  0  0  0  0  0  0
  184.0700  177.9320  138.2250 C   0  0  1  0  0  3  0  0  0  0  0  0
  181.6000  178.8300  138.9780 C   0  0  2  0  0  3  0  0  0  0  0  0
  183.4190  177.1740  139.2370 O   0  0  0  0  0  0  0  0  0  0  0  0
  183.0970  178.7180  137.3230 C   0  0  0  0  0  2  0  0  0  0  0  0
  185.1830  178.7830  138.7780 C   0  0  0  0  0  0  0  0  0  0  0  0
  184.9070  179.9080  139.2730 O   0  0  0  0  0  0  0  0  0  0  0  0
  186.5130  178.3570  138.8160 O   0  0  0  0  0  0  0  0  0  0  0  0
  189.1390  179.0200  137.9840 O   0  0  0  0  0  1  0  0  0  0  0  0
  187.6240  178.4430  137.4960 P   0  0  2  0  0  0  0  0  0  0  0  0
  187.0630  179.3760  136.4510 O   0  0  0  0  0  0  0  0  0  0  0  0
  187.1600  175.8490  137.2750 O   0  0  0  0  0  0  0  0  0  0  0  0
  187.8090  176.8050  136.7780 C   0  0  0  0  0  0  0  0  0  0  0  0
  188.6110  177.2600  134.6000 O   0  0  0  0  0  0  0  0  0  0  0  0
  188.7130  176.5550  135.6410 C   0  0  0  0  0  0  0  0  0  0  0  0
  189.1410  174.2070  135.6050 O   0  0  0  0  0  1  0  0  0  0  0  0
  189.7410  175.4630  135.7000 C   0  0  1  0  0  3  0  0  0  0  0  0
  190.8450  175.6360  134.6570 C   0  0  0  0  0  2  0  0  0  0  0  0
  192.2120  175.8400  135.2920 C   0  0  1  0  0  3  0  0  0  0  0  0
  192.0550  176.3560  136.5810 O   0  0  0  0  0  1  0  0  0  0  0  0
  192.3700  173.5000  135.5100 O   0  0  0  0  0  0  0  0  0  0  0  0
  192.9750  174.5450  135.3150 C   0  0  0  0  0  0  0  0  0  0  0  0
  194.4510  174.5000  135.0620 C   0  0  0  0  0  2  0  0  0  0  0  0
  194.8980  175.7330  134.5950 O   0  0  0  0  0  1  0  0  0  0  0  0
  180.1250  178.7990  139.3560 C   0  0  0  0  0  2  0  0  0  0  0  0
  179.5960  180.1570  139.4410 N   0  0  0  0  0  2  0  0  0  0  0  0
  179.5970  182.8370  136.1550 C   0  0  0  0  0  3  0  0  0  0  0  0
  180.2190  183.2100  137.3530 C   0  0  0  0  0  3  0  0  0  0  0  0
  178.9760  180.7100  137.1380 C   0  0  0  0  0  3  0  0  0  0  0  0
  180.2220  182.3290  138.4410 C   0  0  0  0  0  3  0  0  0  0  0  0
  178.9750  181.5900  136.0480 C   0  0  0  0  0  3  0  0  0  0  0  0
  179.6040  181.0740  138.3370 C   0  0  0  0  0  0  0  0  0  0  0  0
  182.9840  178.6830  140.9500 O   0  0  0  0  0  0  0  0  0  0  0  0
  182.1660  178.4000  143.2100 C   0  0  0  0  0  2  0  0  0  0  0  0
  184.8010  180.0050  142.8140 O   0  0  0  0  0  0  0  0  0  0  0  0
  183.0100  177.8300  142.0630 C   0  0  2  0  0  3  0  0  0  0  0  0
  182.5710  179.8160  143.6320 C   0  0  0  0  0  2  0  0  0  0  0  0
  185.3810  178.7500  142.4900 C   0  0  2  0  0  3  0  0  0  0  0  0
  184.4380  177.5320  142.5350 C   0  0  0  0  0  2  0  0  0  0  0  0
  184.0460  179.8990  144.0010 C   0  0  0  0  0  2  0  0  0  0  0  0
  187.8680  176.3100  143.6460 O   0  0  0  0  0  0  0  0  0  0  0  0
  190.4680  176.0620  139.2320 O   0  0  0  0  0  0  0  0  0  0  0  0
  191.3660  178.3650  142.0530 C   0  0  0  0  0  2  0  0  0  0  0  0
  187.7020  176.9480  145.8970 O   0  0  0  0  0  0  0  0  0  0  0  0
  188.5960  177.7060  141.7920 C   0  0  0  0  0  2  0  0  0  0  0  0
  192.6640  177.3490  140.3000 C   0  0  0  0  0  0  0  0  0  0  0  0
  186.4540  178.3280  144.5820 O   0  0  0  0  0  0  0  0  0  0  0  0
  189.9720  176.9260  144.9850 C   0  0  2  0  0  3  0  0  0  0  0  0
  189.0580  176.6890  140.9080 O   0  0  0  0  0  0  0  0  0  0  0  0
  188.4610  177.0240  144.7180 C   0  0  1  0  0  0  0  0  0  0  0  0
  191.8210  177.6690  143.3320 C   0  0  0  0  0  2  0  0  0  0  0  0
  193.7860  177.2190  139.7860 O   0  0  0  0  0  0  0  0  0  0  0  0
  187.4320  177.2190  142.6410 C   0  0  2  0  0  3  0  0  0  0  0  0
  187.6930  178.1930  145.2350 C   0  0  2  0  0  3  0  0  0  0  0  0
  190.8350  176.6420  143.7860 C   0  0  0  0  0  0  0  0  0  0  0  0
  191.4810  177.4840  140.8470 C   0  0  0  0  0  0  0  0  0  0  0  0
  190.7690  175.5700  143.2090 O   0  0  0  0  0  0  0  0  0  0  0  0
  190.3160  176.7290  140.2940 C   0  0  0  0  0  0  0  0  0  0  0  0
  186.7020  178.4600  143.2050 C   0  0  1  0  0  3  0  0  0  0  0  0
  190.3190  176.1880  146.1420 O   0  0  0  0  0  0  0  0  0  0  0  0
  191.2860  177.5030  147.7370 O   0  0  0  0  0  1  0  0  0  0  0  0
  192.3890  175.5000  147.1120 C   0  0  0  0  0  1  0  0  0  0  0  0
  191.5360  176.6650  146.6530 C   0  0  1  0  0  3  0  0  0  0  0  0
  1  4  1  0  0  0  0
  2 34  1  1  0  0  0
  3  7  1  1  0  0  0
  3  5  1  0  0  0  0
  4 26  1  1  0  0  0
  4  2  1  0  0  0  0
  5  2  1  0  0  0  0
  6  1  1  0  0  0  0
  6  3  1  0  0  0  0
  7  9  1  0  0  0  0
  7  8  2  0  0  0  0
 11 12  2  6  0  0  0
 11 10  1  0  0  0  0
 11  9  1  0  0  0  0
 14 13  2  0  0  0  0
 14 11  1  0  0  0  0
 15 16  2  0  0  0  0
 16 18  1  0  0  0  0
 16 14  1  0  0  0  0
 18 17  1  6  0  0  0
 19 20  1  0  0  0  0
 19 18  1  0  0  0  0
 20 23  1  0  0  0  0
 20 21  1  1  0  0  0
 23 22  2  0  0  0  0
 24 23  1  0  0  0  0
 25 24  1  0  0  0  0
 26 27  1  0  0  0  0
 28 29  1  0  0  0  0
 29 31  2  0  0  0  0
 30 33  2  0  0  0  0
 32 28  2  0  0  0  0
 32 30  1  0  0  0  0
 33 31  1  0  0  0  0
 33 27  1  0  0  0  0
 35 38  1  0  0  0  0
 36 41  1  0  0  0  0
 37 34  1  6  0  0  0
 37 40  1  0  0  0  0
 37 35  1  0  0  0  0
 38 41  1  0  0  0  0
 39 40  1  1  0  0  0
 39 36  1  0  0  0  0
 39 60  1  0  0  0  0
 43 59  2  0  0  0  0
 44 52  1  0  0  0  0
 47 57  2  0  0  0  0
 49 61  1  1  0  0  0
 50 46  1  0  0  0  0
 51 42  1  6  0  0  0
 51 49  1  0  0  0  0
 51 55  1  0  0  0  0
 51 45  1  0  0  0  0
 52 56  1  0  0  0  0
 53 47  2  0  0  0  0
 54 46  1  1  0  0  0
 54 60  1  0  0  0  0
 54 42  1  0  0  0  0
 55 48  1  6  0  0  0
 55 45  1  0  0  0  0
 56 49  1  0  0  0  0
 57 44  1  0  0  0  0
 58 56  2  0  0  0  0
 59 57  1  0  0  0  0
 59 50  1  0  0  0  0
 60 48  1  1  0  0  0
 61 64  1  0  0  0  0
 64 63  1  1  0  0  0
 64 62  1  0  0  0  0
M  END
>  <MODEL>
2

>  <REMARK>
 VINA RESULT:      -6.5      1.406      2.455
  Name = 
  18 active torsions:
  status: ('A' for Active; 'I' for Inactive)
    1  A    between atoms: C_1  and  O_25
    2  A    between atoms: C_1  and  C_35
    3  A    between atoms: N_2  and  C_54
    4  A    between atoms: N_2  and  C_58
    5  A    between atoms: O_6  and  C_17
    6  A    between atoms: O_6  and  C_64
    7  A    between atoms: O_12  and  C_27
    8  A    between atoms: O_12  and  C_32
    9  A    between atoms: P_20  and  C_24
   10  A    between atoms: P_20  and  O_25
   11  A    between atoms: C_24  and  C_53
   12  A    between atoms: C_36  and  C_38
   13  A    between atoms: C_36  and  C_49
   14  A    between atoms: C_37  and  C_63
   15  A    between atoms: C_38  and  C_46
   16  A    between atoms: C_40  and  C_58
   17  A    between atoms: C_42  and  C_46
   18  A    between atoms: C_49  and  C_53
                            x       y       z     vdW  Elec       q    Type
                         _______ _______ _______ _____ _____    ______ ____

>  <TORSDO>
F 18

$$$$
=
 OpenBabel11062412013D

 64 69  0  0  1  0  0  0  0  0999 V2000
  185.1300  178.2560  146.9960 O   0  0  0  0  0  0  0  0  0  0  0  0
  186.7550  177.4500  145.4160 C   0  0  1  0  0  3  0  0  0  0  0  0
  184.7370  178.3740  144.6080 C   0  0  1  0  0  3  0  0  0  0  0  0
  186.4990  178.2600  146.6960 C   0  0  2  0  0  3  0  0  0  0  0  0
  185.5780  177.2280  144.6440 O   0  0  0  0  0  0  0  0  0  0  0  0
  184.5210  179.0240  145.9900 C   0  0  0  0  0  2  0  0  0  0  0  0
  185.1640  179.3600  143.5520 C   0  0  0  0  0  0  0  0  0  0  0  0
  185.6830  180.4520  143.9040 O   0  0  0  0  0  0  0  0  0  0  0  0
  185.0570  179.0950  142.1840 O   0  0  0  0  0  0  0  0  0  0  0  0
  182.2280  178.9890  142.2790 O   0  0  0  0  0  1  0  0  0  0  0  0
  183.6090  178.6250  141.3700 P   0  0  2  0  0  0  0  0  0  0  0  0
  183.6520  177.1350  141.1280 O   0  0  0  0  0  0  0  0  0  0  0  0
  184.5550  180.0490  139.3530 O   0  0  0  0  0  0  0  0  0  0  0  0
  183.5250  179.4710  139.7850 C   0  0  0  0  0  0  0  0  0  0  0  0
  181.4260  180.4150  139.2360 O   0  0  0  0  0  0  0  0  0  0  0  0
  182.2800  179.5180  138.9970 C   0  0  0  0  0  0  0  0  0  0  0  0
  181.3560  179.0860  136.8390 O   0  0  0  0  0  1  0  0  0  0  0  0
  182.0090  178.5030  137.9250 C   0  0  1  0  0  3  0  0  0  0  0  0
  183.2690  177.7580  137.4850 C   0  0  0  0  0  2  0  0  0  0  0  0
  182.9760  176.3250  137.0690 C   0  0  1  0  0  3  0  0  0  0  0  0
  184.1660  175.5940  137.0450 O   0  0  0  0  0  1  0  0  0  0  0  0
  182.3600  175.2560  139.0750 O   0  0  0  0  0  0  0  0  0  0  0  0
  181.9760  175.7040  138.0050 C   0  0  0  0  0  0  0  0  0  0  0  0
  180.5140  175.6630  137.6750 C   0  0  0  0  0  2  0  0  0  0  0  0
  180.3250  175.8100  136.3040 O   0  0  0  0  0  1  0  0  0  0  0  0
  187.2930  177.6880  147.8630 C   0  0  0  0  0  2  0  0  0  0  0  0
  188.6440  178.2380  147.8740 N   0  0  0  0  0  2  0  0  0  0  0  0
  192.1100  175.7950  147.8520 C   0  0  0  0  0  3  0  0  0  0  0  0
  192.1820  177.0940  148.3680 C   0  0  0  0  0  3  0  0  0  0  0  0
  189.7610  176.1240  147.3490 C   0  0  0  0  0  3  0  0  0  0  0  0
  191.0410  177.9060  148.3780 C   0  0  0  0  0  3  0  0  0  0  0  0
  190.9020  175.3110  147.3420 C   0  0  0  0  0  3  0  0  0  0  0  0
  189.8250  177.4220  147.8720 C   0  0  0  0  0  0  0  0  0  0  0  0
  187.7490  178.0590  144.6410 O   0  0  0  0  0  0  0  0  0  0  0  0
  190.0510  177.3380  144.4510 C   0  0  0  0  0  2  0  0  0  0  0  0
  188.8740  179.0500  142.1360 O   0  0  0  0  0  0  0  0  0  0  0  0
  188.5740  177.0130  144.2010 C   0  0  2  0  0  3  0  0  0  0  0  0
  190.5090  178.6590  143.8240 C   0  0  0  0  0  2  0  0  0  0  0  0
  188.1160  177.8920  141.8200 C   0  0  2  0  0  3  0  0  0  0  0  0
  188.3360  176.6650  142.7270 C   0  0  0  0  0  2  0  0  0  0  0  0
  190.2280  178.7060  142.3280 C   0  0  0  0  0  2  0  0  0  0  0  0
  189.1660  178.6370  138.3820 O   0  0  0  0  0  0  0  0  0  0  0  0
  193.8220  176.5210  138.7730 O   0  0  0  0  0  0  0  0  0  0  0  0
  190.8060  174.6980  137.4920 C   0  0  0  0  0  2  0  0  0  0  0  0
  186.9800  178.6440  137.5320 O   0  0  0  0  0  0  0  0  0  0  0  0
  190.3160  176.7580  139.4130 C   0  0  0  0  0  2  0  0  0  0  0  0
  193.1630  174.4380  137.0860 C   0  0  0  0  0  0  0  0  0  0  0  0
  186.9840  178.0080  139.7190 O   0  0  0  0  0  0  0  0  0  0  0  0
  188.5550  177.1940  136.3470 C   0  0  2  0  0  3  0  0  0  0  0  0
  191.6620  177.1400  139.1490 O   0  0  0  0  0  0  0  0  0  0  0  0
  188.1840  177.9290  137.6460 C   0  0  1  0  0  0  0  0  0  0  0  0
  190.2370  175.2330  136.1810 C   0  0  0  0  0  2  0  0  0  0  0  0
  194.0460  173.8040  136.4870 O   0  0  0  0  0  0  0  0  0  0  0  0
  189.4220  177.9720  139.6140 C   0  0  2  0  0  3  0  0  0  0  0  0
  186.9580  177.5300  138.3960 C   0  0  2  0  0  3  0  0  0  0  0  0
  189.9730  176.7020  136.2510 C   0  0  0  0  0  0  0  0  0  0  0  0
  192.2280  175.1090  137.7130 C   0  0  0  0  0  0  0  0  0  0  0  0
  190.9030  177.4890  136.1860 O   0  0  0  0  0  0  0  0  0  0  0  0
  192.6000  176.2740  138.5720 C   0  0  0  0  0  0  0  0  0  0  0  0
  188.1400  177.5030  140.3400 C   0  0  1  0  0  3  0  0  0  0  0  0
  188.0670  177.8020  135.1660 O   0  0  0  0  0  0  0  0  0  0  0  0
  186.9600  175.8130  135.3370 O   0  0  0  0  0  1  0  0  0  0  0  0
  185.7500  177.7120  134.5970 C   0  0  0  0  0  1  0  0  0  0  0  0
  187.0790  176.9850  134.5940 C   0  0  1  0  0  3  0  0  0  0  0  0
  2 34  1  6  0  0  0
  2  4  1  0  0  0  0
  3  7  1  6  0  0  0
  3  5  1  0  0  0  0
  3  6  1  0  0  0  0
  4  1  1  0  0  0  0
  4 26  1  1  0  0  0
  5  2  1  0  0  0  0
  6  1  1  0  0  0  0
  7  8  2  0  0  0  0
  9  7  1  0  0  0  0
 11 12  2  6  0  0  0
 11  9  1  0  0  0  0
 11 10  1  0  0  0  0
 13 14  2  0  0  0  0
 14 11  1  0  0  0  0
 16 15  2  0  0  0  0
 16 14  1  0  0  0  0
 18 17  1  6  0  0  0
 18 16  1  0  0  0  0
 19 18  1  0  0  0  0
 20 21  1  1  0  0  0
 20 19  1  0  0  0  0
 20 23  1  0  0  0  0
 23 22  2  0  0  0  0
 24 23  1  0  0  0  0
 25 24  1  0  0  0  0
 26 27  1  0  0  0  0
 28 29  1  0  0  0  0
 29 31  2  0  0  0  0
 30 33  2  0  0  0  0
 32 30  1  0  0  0  0
 32 28  2  0  0  0  0
 33 27  1  0  0  0  0
 33 31  1  0  0  0  0
 36 41  1  0  0  0  0
 37 35  1  0  0  0  0
 37 34  1  6  0  0  0
 38 35  1  0  0  0  0
 39 36  1  0  0  0  0
 39 40  1  1  0  0  0
 40 37  1  0  0  0  0
 41 38  1  0  0  0  0
 42 54  1  0  0  0  0
 44 57  1  0  0  0  0
 47 57  2  0  0  0  0
 49 61  1  6  0  0  0
 49 51  1  0  0  0  0
 50 46  1  0  0  0  0
 51 45  1  6  0  0  0
 51 42  1  0  0  0  0
 51 55  1  0  0  0  0
 52 56  1  0  0  0  0
 52 44  1  0  0  0  0
 53 47  2  0  0  0  0
 54 46  1  6  0  0  0
 54 60  1  0  0  0  0
 55 45  1  6  0  0  0
 55 48  1  0  0  0  0
 56 49  1  0  0  0  0
 57 59  1  0  0  0  0
 58 56  2  0  0  0  0
 59 43  2  0  0  0  0
 59 50  1  0  0  0  0
 60 48  1  6  0  0  0
 60 39  1  0  0  0  0
 64 63  1  1  0  0  0
 64 61  1  0  0  0  0
 64 62  1  0  0  0  0
M  END
>  <MODEL>
3

>  <REMARK>
 VINA RESULT:      -6.1      2.611      8.818
  Name = 
  18 active torsions:
  status: ('A' for Active; 'I' for Inactive)
    1  A    between atoms: C_1  and  O_25
    2  A    between atoms: C_1  and  C_35
    3  A    between atoms: N_2  and  C_54
    4  A    between atoms: N_2  and  C_58
    5  A    between atoms: O_6  and  C_17
    6  A    between atoms: O_6  and  C_64
    7  A    between atoms: O_12  and  C_27
    8  A    between atoms: O_12  and  C_32
    9  A    between atoms: P_20  and  C_24
   10  A    between atoms: P_20  and  O_25
   11  A    between atoms: C_24  and  C_53
   12  A    between atoms: C_36  and  C_38
   13  A    between atoms: C_36  and  C_49
   14  A    between atoms: C_37  and  C_63
   15  A    between atoms: C_38  and  C_46
   16  A    between atoms: C_40  and  C_58
   17  A    between atoms: C_42  and  C_46
   18  A    between atoms: C_49  and  C_53
                            x       y       z     vdW  Elec       q    Type
                         _______ _______ _______ _____ _____    ______ ____

>  <TORSDO>
F 18

$$$$
=
 OpenBabel11062412013D

 64 69  0  0  1  0  0  0  0  0999 V2000
  192.6490  175.5240  136.4200 O   0  0  0  0  0  0  0  0  0  0  0  0
  190.5470  174.4030  136.7610 C   0  0  1  0  0  3  0  0  0  0  0  0
  191.1750  176.1280  138.2460 C   0  0  1  0  0  3  0  0  0  0  0  0
  191.5090  175.0530  135.7550 C   0  0  2  0  0  3  0  0  0  0  0  0
  190.8220  174.7570  138.1130 O   0  0  0  0  0  0  0  0  0  0  0  0
  192.2090  176.6030  137.2050 C   0  0  0  0  0  2  0  0  0  0  0  0
  189.9650  177.0220  138.3270 C   0  0  0  0  0  0  0  0  0  0  0  0
  189.3680  177.3450  137.2670 O   0  0  0  0  0  0  0  0  0  0  0  0
  189.4380  177.4720  139.5410 O   0  0  0  0  0  0  0  0  0  0  0  0
  191.7470  177.8230  141.1440 O   0  0  0  0  0  0  0  0  0  0  0  0
  190.1610  177.2340  141.0910 P   0  0  2  0  0  0  0  0  0  0  0  0
  190.1830  175.7550  141.3920 O   0  0  0  0  0  1  0  0  0  0  0  0
  188.0510  178.5410  142.0020 O   0  0  0  0  0  0  0  0  0  0  0  0
  189.1680  178.0690  142.3360 C   0  0  0  0  0  0  0  0  0  0  0  0
  190.3080  179.2480  144.0410 O   0  0  0  0  0  0  0  0  0  0  0  0
  189.6390  178.2270  143.7230 C   0  0  0  0  0  0  0  0  0  0  0  0
  190.2970  176.1630  144.7250 O   0  0  0  0  0  1  0  0  0  0  0  0
  189.3450  177.1810  144.7600 C   0  0  1  0  0  3  0  0  0  0  0  0
  189.2040  177.7670  146.1640 C   0  0  0  0  0  2  0  0  0  0  0  0
  188.0180  177.1820  146.9170 C   0  0  1  0  0  3  0  0  0  0  0  0
  188.4140  176.8260  148.2080 O   0  0  0  0  0  1  0  0  0  0  0  0
  186.9690  179.1510  147.6730 O   0  0  0  0  0  0  0  0  0  0  0  0
  186.8840  178.1690  146.9490 C   0  0  0  0  0  0  0  0  0  0  0  0
  185.6730  178.0010  146.0820 C   0  0  0  0  0  2  0  0  0  0  0  0
  186.0520  177.7000  144.7770 O   0  0  0  0  0  1  0  0  0  0  0  0
  191.9080  174.0600  134.6710 C   0  0  0  0  0  2  0  0  0  0  0  0
  193.2550  173.5570  134.9160 N   0  0  0  0  0  2  0  0  0  0  0  0
  194.0700  169.7850  136.6730 C   0  0  0  0  0  3  0  0  0  0  0  0
  193.0530  169.8980  135.7170 C   0  0  0  0  0  3  0  0  0  0  0  0
  194.5310  172.1560  136.4660 C   0  0  0  0  0  3  0  0  0  0  0  0
  192.7800  171.1420  135.1330 C   0  0  0  0  0  3  0  0  0  0  0  0
  194.8070  170.9120  137.0480 C   0  0  0  0  0  3  0  0  0  0  0  0
  193.5200  172.2740  135.5030 C   0  0  0  0  0  0  0  0  0  0  0  0
  189.2200  174.6970  136.4300 O   0  0  0  0  0  0  0  0  0  0  0  0
  188.5100  172.4000  136.1530 C   0  0  0  0  0  2  0  0  0  0  0  0
  186.7980  174.6180  134.8020 O   0  0  0  0  0  0  0  0  0  0  0  0
  188.4550  173.6720  137.0070 C   0  0  2  0  0  3  0  0  0  0  0  0
  188.0790  172.6110  134.6980 C   0  0  0  0  0  2  0  0  0  0  0  0
  186.3980  174.9520  136.1230 C   0  0  2  0  0  3  0  0  0  0  0  0
  187.0030  174.0990  137.2540 C   0  0  0  0  0  2  0  0  0  0  0  0
  186.6890  173.2260  134.6000 C   0  0  0  0  0  2  0  0  0  0  0  0
  183.4740  175.0110  138.3420 O   0  0  0  0  0  0  0  0  0  0  0  0
  183.9830  179.9100  139.7700 O   0  0  0  0  0  0  0  0  0  0  0  0
  181.8330  178.7860  136.9110 C   0  0  0  0  0  2  0  0  0  0  0  0
  182.3400  173.3200  137.1780 O   0  0  0  0  0  0  0  0  0  0  0  0
  184.1330  177.1830  137.4690 C   0  0  0  0  0  2  0  0  0  0  0  0
  181.7280  180.6880  138.3820 C   0  0  0  0  0  0  0  0  0  0  0  0
  184.2580  173.8910  136.0890 O   0  0  0  0  0  0  0  0  0  0  0  0
  181.0630  175.3760  137.5350 C   0  0  2  0  0  3  0  0  0  0  0  0
  184.1830  177.9150  138.6890 O   0  0  0  0  0  0  0  0  0  0  0  0
  182.4390  174.6990  137.4250 C   0  0  1  0  0  0  0  0  0  0  0  0
  180.6390  177.9200  137.3040 C   0  0  0  0  0  2  0  0  0  0  0  0
  181.1220  181.7260  138.6880 O   0  0  0  0  0  0  0  0  0  0  0  0
  184.5120  175.7250  137.6780 C   0  0  2  0  0  3  0  0  0  0  0  0
  182.8670  174.1000  136.1280 C   0  0  2  0  0  3  0  0  0  0  0  0
  181.0540  176.7530  138.1410 C   0  0  0  0  0  0  0  0  0  0  0  0
  182.3630  179.5880  138.0590 C   0  0  0  0  0  0  0  0  0  0  0  0
  181.3380  176.9200  139.3150 O   0  0  0  0  0  0  0  0  0  0  0  0
  183.5450  179.1500  138.8620 C   0  0  0  0  0  0  0  0  0  0  0  0
  184.8890  175.1290  136.3030 C   0  0  1  0  0  3  0  0  0  0  0  0
  180.0250  174.5300  137.9930 O   0  0  0  0  0  0  0  0  0  0  0  0
  179.4620  175.0910  135.8530 O   0  0  0  0  0  1  0  0  0  0  0  0
  179.1090  172.8560  136.5580 C   0  0  0  0  0  1  0  0  0  0  0  0
  179.1040  174.3180  136.9550 C   0  0  1  0  0  3  0  0  0  0  0  0
  1  6  1  0  0  0  0
  2 34  1  6  0  0  0
  2  5  1  0  0  0  0
  3  7  1  6  0  0  0
  4 26  1  6  0  0  0
  4  1  1  0  0  0  0
  4  2  1  0  0  0  0
  5  3  1  0  0  0  0
  6  3  1  0  0  0  0
  7  9  1  0  0  0  0
  8  7  2  0  0  0  0
  9 11  1  0  0  0  0
 11 10  2  1  0  0  0
 11 12  1  0  0  0  0
 11 14  1  0  0  0  0
 13 14  2  0  0  0  0
 14 16  1  0  0  0  0
 16 15  2  0  0  0  0
 16 18  1  0  0  0  0
 18 17  1  1  0  0  0
 18 19  1  0  0  0  0
 19 20  1  0  0  0  0
 20 23  1  0  0  0  0
 20 21  1  1  0  0  0
 23 22  2  0  0  0  0
 24 23  1  0  0  0  0
 25 24  1  0  0  0  0
 26 27  1  0  0  0  0
 27 33  1  0  0  0  0
 28 32  1  0  0  0  0
 29 28  2  0  0  0  0
 30 32  2  0  0  0  0
 31 33  2  0  0  0  0
 31 29  1  0  0  0  0
 33 30  1  0  0  0  0
 35 37  1  0  0  0  0
 36 39  1  0  0  0  0
 37 34  1  6  0  0  0
 37 40  1  0  0  0  0
 38 35  1  0  0  0  0
 39 60  1  0  0  0  0
 39 40  1  1  0  0  0
 41 38  1  0  0  0  0
 41 36  1  0  0  0  0
 44 52  1  0  0  0  0
 44 57  1  0  0  0  0
 46 50  1  0  0  0  0
 47 53  2  0  0  0  0
 49 61  1  1  0  0  0
 49 56  1  0  0  0  0
 50 59  1  0  0  0  0
 51 45  1  1  0  0  0
 51 49  1  0  0  0  0
 51 42  1  0  0  0  0
 52 56  1  0  0  0  0
 54 46  1  6  0  0  0
 54 42  1  0  0  0  0
 55 48  1  1  0  0  0
 55 45  1  0  0  0  0
 55 51  1  0  0  0  0
 56 58  2  0  0  0  0
 57 47  2  0  0  0  0
 57 59  1  0  0  0  0
 59 43  2  0  0  0  0
 60 48  1  1  0  0  0
 60 54  1  0  0  0  0
 62 64  1  0  0  0  0
 64 63  1  6  0  0  0
 64 61  1  0  0  0  0
M  END
>  <MODEL>
4

>  <REMARK>
 VINA RESULT:      -6.0      3.233     10.942
  Name = 
  18 active torsions:
  status: ('A' for Active; 'I' for Inactive)
    1  A    between atoms: C_1  and  O_25
    2  A    between atoms: C_1  and  C_35
    3  A    between atoms: N_2  and  C_54
    4  A    between atoms: N_2  and  C_58
    5  A    between atoms: O_6  and  C_17
    6  A    between atoms: O_6  and  C_64
    7  A    between atoms: O_12  and  C_27
    8  A    between atoms: O_12  and  C_32
    9  A    between atoms: P_20  and  C_24
   10  A    between atoms: P_20  and  O_25
   11  A    between atoms: C_24  and  C_53
   12  A    between atoms: C_36  and  C_38
   13  A    between atoms: C_36  and  C_49
   14  A    between atoms: C_37  and  C_63
   15  A    between atoms: C_38  and  C_46
   16  A    between atoms: C_40  and  C_58
   17  A    between atoms: C_42  and  C_46
   18  A    between atoms: C_49  and  C_53
                            x       y       z     vdW  Elec       q    Type
                         _______ _______ _______ _____ _____    ______ ____

>  <TORSDO>
F 18

$$$$
=
 OpenBabel11062412013D

 64 69  0  0  1  0  0  0  0  0999 V2000
  192.6960  176.9220  139.1500 O   0  0  0  0  0  0  0  0  0  0  0  0
  190.8060  175.8610  138.1060 C   0  0  1  0  0  3  0  0  0  0  0  0
  190.5470  176.7910  140.2620 C   0  0  1  0  0  3  0  0  0  0  0  0
  191.9930  176.8210  137.9420 C   0  0  2  0  0  3  0  0  0  0  0  0
  190.4650  175.6140  139.4670 O   0  0  0  0  0  0  0  0  0  0  0  0
  191.8380  177.6020  140.0300 C   0  0  0  0  0  2  0  0  0  0  0  0
  189.2990  177.6280  140.1700 C   0  0  0  0  0  0  0  0  0  0  0  0
  188.6790  177.6890  139.0760 O   0  0  0  0  0  0  0  0  0  0  0  0
  188.7610  178.3060  141.2670 O   0  0  0  0  0  0  0  0  0  0  0  0
  188.1000  175.8680  142.5490 O   0  0  0  0  0  0  0  0  0  0  0  0
  188.0450  177.5570  142.6480 P   0  0  2  0  0  0  0  0  0  0  0  0
  186.6020  177.9910  142.7400 O   0  0  0  0  0  1  0  0  0  0  0  0
  188.3060  178.0750  145.2280 O   0  0  0  0  0  0  0  0  0  0  0  0
  188.9130  178.0990  144.1270 C   0  0  0  0  0  0  0  0  0  0  0  0
  190.5270  179.8010  143.8160 O   0  0  0  0  0  0  0  0  0  0  0  0
  190.3030  178.5860  144.0740 C   0  0  0  0  0  0  0  0  0  0  0  0
  192.5720  178.3460  144.7740 O   0  0  0  0  0  1  0  0  0  0  0  0
  191.4560  177.6530  144.3070 C   0  0  1  0  0  3  0  0  0  0  0  0
  191.0950  176.4890  145.2280 C   0  0  0  0  0  2  0  0  0  0  0  0
  191.4430  176.7740  146.6810 C   0  0  1  0  0  3  0  0  0  0  0  0
  190.2690  176.9040  147.4260 O   0  0  0  0  0  1  0  0  0  0  0  0
  192.8130  174.8700  146.4620 O   0  0  0  0  0  0  0  0  0  0  0  0
  192.3170  175.6810  147.2310 C   0  0  0  0  0  0  0  0  0  0  0  0
  192.6300  175.5890  148.6940 C   0  0  0  0  0  2  0  0  0  0  0  0
  193.5540  176.5670  149.0520 O   0  0  0  0  0  1  0  0  0  0  0  0
  192.9230  176.3440  136.8330 C   0  0  0  0  0  2  0  0  0  0  0  0
  193.3180  174.9590  137.0650 N   0  0  0  0  0  2  0  0  0  0  0  0
  197.3190  173.7790  137.8260 C   0  0  0  0  0  3  0  0  0  0  0  0
  196.8640  173.8730  136.5060 C   0  0  0  0  0  3  0  0  0  0  0  0
  195.1330  174.4540  138.6290 C   0  0  0  0  0  3  0  0  0  0  0  0
  195.5440  174.2620  136.2480 C   0  0  0  0  0  3  0  0  0  0  0  0
  196.4540  174.0680  138.8860 C   0  0  0  0  0  3  0  0  0  0  0  0
  194.6740  174.5580  137.3090 C   0  0  0  0  0  0  0  0  0  0  0  0
  189.6960  176.3270  137.3930 O   0  0  0  0  0  0  0  0  0  0  0  0
  189.7400  175.7000  135.0560 C   0  0  0  0  0  2  0  0  0  0  0  0
  187.2620  177.2730  136.0870 O   0  0  0  0  0  0  0  0  0  0  0  0
  189.3730  175.3020  136.4910 C   0  0  2  0  0  3  0  0  0  0  0  0
  189.1040  177.0150  134.5960 C   0  0  0  0  0  2  0  0  0  0  0  0
  186.9270  176.0720  136.7660 C   0  0  2  0  0  3  0  0  0  0  0  0
  187.8990  174.8900  136.5810 C   0  0  0  0  0  2  0  0  0  0  0  0
  187.5880  176.9950  134.7430 C   0  0  0  0  0  2  0  0  0  0  0  0
  183.7090  175.1600  138.2800 O   0  0  0  0  0  0  0  0  0  0  0  0
  181.9550  179.9580  138.7410 O   0  0  0  0  0  0  0  0  0  0  0  0
  181.2340  177.7500  135.7970 C   0  0  0  0  0  2  0  0  0  0  0  0
  183.6450  173.0390  137.2820 O   0  0  0  0  0  0  0  0  0  0  0  0
  183.7230  177.3040  137.1320 C   0  0  0  0  0  2  0  0  0  0  0  0
  180.0380  179.5850  136.7910 C   0  0  0  0  0  0  0  0  0  0  0  0
  185.4300  174.2280  136.5150 O   0  0  0  0  0  0  0  0  0  0  0  0
  181.6500  174.4130  136.9400 C   0  0  2  0  0  3  0  0  0  0  0  0
  183.1660  178.1180  138.1590 O   0  0  0  0  0  0  0  0  0  0  0  0
  183.1540  174.3540  137.2550 C   0  0  1  0  0  0  0  0  0  0  0  0
  180.3900  176.5160  136.1080 C   0  0  0  0  0  2  0  0  0  0  0  0
  179.0310  180.3090  136.7460 O   0  0  0  0  0  0  0  0  0  0  0  0
  184.5450  176.1620  137.7100 C   0  0  2  0  0  3  0  0  0  0  0  0
  184.1060  173.8490  136.2250 C   0  0  2  0  0  3  0  0  0  0  0  0
  180.9660  175.7200  137.2330 C   0  0  0  0  0  0  0  0  0  0  0  0
  181.0980  178.8170  136.8390 C   0  0  0  0  0  0  0  0  0  0  0  0
  180.8400  176.1140  138.3810 O   0  0  0  0  0  0  0  0  0  0  0  0
  182.0930  178.9920  137.9390 C   0  0  0  0  0  0  0  0  0  0  0  0
  185.4720  175.6300  136.5930 C   0  0  1  0  0  3  0  0  0  0  0  0
  180.9190  173.2690  137.3390 O   0  0  0  0  0  0  0  0  0  0  0  0
  180.9220  172.6990  135.1290 O   0  0  0  0  0  1  0  0  0  0  0  0
  179.5330  171.4700  136.6050 C   0  0  0  0  0  1  0  0  0  0  0  0
  180.1300  172.8210  136.2680 C   0  0  1  0  0  3  0  0  0  0  0  0
  1  6  1  0  0  0  0
  2 34  1  6  0  0  0
  2  5  1  0  0  0  0
  3  7  1  6  0  0  0
  4 26  1  6  0  0  0
  4  2  1  0  0  0  0
  4  1  1  0  0  0  0
  5  3  1  0  0  0  0
  6  3  1  0  0  0  0
  7  9  1  0  0  0  0
  8  7  2  0  0  0  0
  9 11  1  0  0  0  0
 11 10  2  6  0  0  0
 11 12  1  0  0  0  0
 11 14  1  0  0  0  0
 14 13  2  0  0  0  0
 15 16  2  0  0  0  0
 16 14  1  0  0  0  0
 16 18  1  0  0  0  0
 18 17  1  1  0  0  0
 18 19  1  0  0  0  0
 19 20  1  0  0  0  0
 20 23  1  0  0  0  0
 20 21  1  1  0  0  0
 22 23  2  0  0  0  0
 23 24  1  0  0  0  0
 24 25  1  0  0  0  0
 26 27  1  0  0  0  0
 27 33  1  0  0  0  0
 28 32  1  0  0  0  0
 29 28  2  0  0  0  0
 30 32  2  0  0  0  0
 31 29  1  0  0  0  0
 31 33  2  0  0  0  0
 33 30  1  0  0  0  0
 35 37  1  0  0  0  0
 36 39  1  0  0  0  0
 37 40  1  0  0  0  0
 37 34  1  1  0  0  0
 38 41  1  0  0  0  0
 38 35  1  0  0  0  0
 39 40  1  6  0  0  0
 41 36  1  0  0  0  0
 44 52  1  0  0  0  0
 44 57  1  0  0  0  0
 46 50  1  0  0  0  0
 47 57  2  0  0  0  0
 49 56  1  0  0  0  0
 49 51  1  0  0  0  0
 49 61  1  1  0  0  0
 51 45  1  1  0  0  0
 51 42  1  0  0  0  0
 52 56  1  0  0  0  0
 53 47  2  0  0  0  0
 54 46  1  6  0  0  0
 54 42  1  0  0  0  0
 55 48  1  1  0  0  0
 55 51  1  0  0  0  0
 55 45  1  0  0  0  0
 56 58  2  0  0  0  0
 57 59  1  0  0  0  0
 59 50  1  0  0  0  0
 59 43  2  0  0  0  0
 60 48  1  1  0  0  0
 60 39  1  0  0  0  0
 60 54  1  0  0  0  0
 62 64  1  0  0  0  0
 64 63  1  1  0  0  0
 64 61  1  0  0  0  0
M  END
>  <MODEL>
5

>  <REMARK>
 VINA RESULT:      -5.9      3.133     11.045
  Name = 
  18 active torsions:
  status: ('A' for Active; 'I' for Inactive)
    1  A    between atoms: C_1  and  O_25
    2  A    between atoms: C_1  and  C_35
    3  A    between atoms: N_2  and  C_54
    4  A    between atoms: N_2  and  C_58
    5  A    between atoms: O_6  and  C_17
    6  A    between atoms: O_6  and  C_64
    7  A    between atoms: O_12  and  C_27
    8  A    between atoms: O_12  and  C_32
    9  A    between atoms: P_20  and  C_24
   10  A    between atoms: P_20  and  O_25
   11  A    between atoms: C_24  and  C_53
   12  A    between atoms: C_36  and  C_38
   13  A    between atoms: C_36  and  C_49
   14  A    between atoms: C_37  and  C_63
   15  A    between atoms: C_38  and  C_46
   16  A    between atoms: C_40  and  C_58
   17  A    between atoms: C_42  and  C_46
   18  A    between atoms: C_49  and  C_53
                            x       y       z     vdW  Elec       q    Type
                         _______ _______ _______ _____ _____    ______ ____

>  <TORSDO>
F 18

$$$$
=
 OpenBabel11062412013D

 64 69  0  0  1  0  0  0  0  0999 V2000
  192.4750  177.0920  140.4290 O   0  0  0  0  0  0  0  0  0  0  0  0
  190.4590  176.4230  139.2990 C   0  0  1  0  0  3  0  0  0  0  0  0
  190.3360  177.0680  141.5680 C   0  0  1  0  0  3  0  0  0  0  0  0
  191.7550  177.2470  139.2370 C   0  0  2  0  0  3  0  0  0  0  0  0
  190.1030  176.0320  140.6210 O   0  0  0  0  0  0  0  0  0  0  0  0
  191.7150  177.7410  141.4160 C   0  0  0  0  0  2  0  0  0  0  0  0
  189.2000  178.0540  141.6240 C   0  0  0  0  0  0  0  0  0  0  0  0
  188.8050  178.5990  140.5590 O   0  0  0  0  0  0  0  0  0  0  0  0
  188.5200  178.3580  142.8070 O   0  0  0  0  0  0  0  0  0  0  0  0
  187.4310  175.8810  143.6450 O   0  0  0  0  0  1  0  0  0  0  0  0
  187.1260  177.5270  143.3960 P   0  0  2  0  0  0  0  0  0  0  0  0
  186.0160  177.6660  142.3820 O   0  0  0  0  0  0  0  0  0  0  0  0
  185.9030  179.3260  144.9000 O   0  0  0  0  0  0  0  0  0  0  0  0
  186.6030  178.2810  144.9420 C   0  0  0  0  0  0  0  0  0  0  0  0
  186.1600  177.0180  146.8930 O   0  0  0  0  0  0  0  0  0  0  0  0
  186.9880  177.7180  146.2480 C   0  0  0  0  0  0  0  0  0  0  0  0
  188.2480  178.5290  148.1060 O   0  0  0  0  0  1  0  0  0  0  0  0
  188.3480  177.9790  146.8280 C   0  0  1  0  0  3  0  0  0  0  0  0
  189.2400  176.7380  146.8220 C   0  0  0  0  0  2  0  0  0  0  0  0
  190.7190  177.0910  146.7750 C   0  0  1  0  0  3  0  0  0  0  0  0
  191.4380  176.1990  147.5740 O   0  0  0  0  0  1  0  0  0  0  0  0
  191.9140  177.9890  144.9540 O   0  0  0  0  0  0  0  0  0  0  0  0
  191.2150  177.0700  145.3560 C   0  0  0  0  0  0  0  0  0  0  0  0
  190.9090  175.9260  144.4360 C   0  0  0  0  0  2  0  0  0  0  0  0
  192.0850  175.2900  144.0500 O   0  0  0  0  0  1  0  0  0  0  0  0
  192.6090  176.8200  138.0500 C   0  0  0  0  0  2  0  0  0  0  0  0
  192.5770  175.3690  137.8990 N   0  0  0  0  0  2  0  0  0  0  0  0
  196.0310  172.9140  138.0330 C   0  0  0  0  0  3  0  0  0  0  0  0
  195.9640  174.0590  138.8350 C   0  0  0  0  0  3  0  0  0  0  0  0
  193.8280  173.4050  137.1460 C   0  0  0  0  0  3  0  0  0  0  0  0
  194.8260  174.8740  138.7950 C   0  0  0  0  0  3  0  0  0  0  0  0
  194.9660  172.5880  137.1890 C   0  0  0  0  0  3  0  0  0  0  0  0
  193.7520  174.5470  137.9540 C   0  0  0  0  0  0  0  0  0  0  0  0
  189.4090  177.1150  138.6850 O   0  0  0  0  0  0  0  0  0  0  0  0
  189.6390  176.7910  136.2980 C   0  0  0  0  0  2  0  0  0  0  0  0
  187.4210  178.7340  137.2890 O   0  0  0  0  0  0  0  0  0  0  0  0
  189.0080  176.3080  137.6100 C   0  0  2  0  0  3  0  0  0  0  0  0
  189.3540  178.2610  135.9780 C   0  0  0  0  0  2  0  0  0  0  0  0
  186.7580  177.5630  137.7410 C   0  0  2  0  0  3  0  0  0  0  0  0
  187.4810  176.2270  137.4820 C   0  0  0  0  0  2  0  0  0  0  0  0
  187.8610  178.5610  135.9610 C   0  0  0  0  0  2  0  0  0  0  0  0
  183.4830  175.9480  138.1220 O   0  0  0  0  0  0  0  0  0  0  0  0
  182.0160  178.6720  142.2130 O   0  0  0  0  0  0  0  0  0  0  0  0
  181.1810  179.6070  138.6790 C   0  0  0  0  0  2  0  0  0  0  0  0
  183.2970  175.3970  135.8500 O   0  0  0  0  0  0  0  0  0  0  0  0
  183.6310  178.1850  139.0650 C   0  0  0  0  0  2  0  0  0  0  0  0
  180.0910  180.0350  140.7810 C   0  0  0  0  0  0  0  0  0  0  0  0
  185.1540  176.6640  136.2150 O   0  0  0  0  0  0  0  0  0  0  0  0
  181.3900  176.6090  136.7880 C   0  0  2  0  0  3  0  0  0  0  0  0
  183.1180  177.9210  140.3670 O   0  0  0  0  0  0  0  0  0  0  0  0
  182.8860  176.2630  136.8760 C   0  0  1  0  0  0  0  0  0  0  0  0
  180.2630  178.6270  137.9530 C   0  0  0  0  0  2  0  0  0  0  0  0
  179.1290  180.5660  141.3580 O   0  0  0  0  0  0  0  0  0  0  0  0
  184.3800  176.9850  138.5060 C   0  0  2  0  0  3  0  0  0  0  0  0
  183.8120  176.7080  135.7950 C   0  0  2  0  0  3  0  0  0  0  0  0
  180.7840  177.2290  138.0170 C   0  0  0  0  0  0  0  0  0  0  0  0
  181.1020  179.4720  140.1680 C   0  0  0  0  0  0  0  0  0  0  0  0
  180.6750  176.5880  139.0500 O   0  0  0  0  0  0  0  0  0  0  0  0
  182.1010  178.6840  140.9530 C   0  0  0  0  0  0  0  0  0  0  0  0
  185.2800  177.4810  137.3520 C   0  0  1  0  0  3  0  0  0  0  0  0
  180.5900  175.6110  136.1820 O   0  0  0  0  0  0  0  0  0  0  0  0
  178.9310  175.9070  134.6420 O   0  0  0  0  0  1  0  0  0  0  0  0
  180.7720  177.4010  134.6130 C   0  0  0  0  0  1  0  0  0  0  0  0
  180.3060  175.9800  134.8580 C   0  0  1  0  0  3  0  0  0  0  0  0
  1  6  1  0  0  0  0
  2 34  1  1  0  0  0
  2  5  1  0  0  0  0
  3  7  1  6  0  0  0
  4 26  1  6  0  0  0
  4  2  1  0  0  0  0
  4  1  1  0  0  0  0
  5  3  1  0  0  0  0
  6  3  1  0  0  0  0
  7  9  1  0  0  0  0
  8  7  2  0  0  0  0
  9 11  1  0  0  0  0
 11 12  2  6  0  0  0
 11 10  1  0  0  0  0
 11 14  1  0  0  0  0
 13 14  2  0  0  0  0
 14 16  1  0  0  0  0
 16 18  1  0  0  0  0
 16 15  2  0  0  0  0
 18 17  1  1  0  0  0
 19 18  1  0  0  0  0
 20 19  1  0  0  0  0
 20 21  1  1  0  0  0
 22 23  2  0  0  0  0
 23 20  1  0  0  0  0
 24 23  1  0  0  0  0
 25 24  1  0  0  0  0
 27 33  1  0  0  0  0
 27 26  1  0  0  0  0
 28 29  1  0  0  0  0
 30 32  1  0  0  0  0
 30 33  2  0  0  0  0
 31 29  2  0  0  0  0
 32 28  2  0  0  0  0
 33 31  1  0  0  0  0
 35 37  1  0  0  0  0
 36 39  1  0  0  0  0
 37 34  1  1  0  0  0
 38 35  1  0  0  0  0
 39 40  1  6  0  0  0
 40 37  1  0  0  0  0
 41 38  1  0  0  0  0
 41 36  1  0  0  0  0
 42 54  1  0  0  0  0
 44 57  1  0  0  0  0
 46 50  1  0  0  0  0
 47 53  2  0  0  0  0
 49 61  1  1  0  0  0
 49 51  1  0  0  0  0
 49 56  1  0  0  0  0
 50 59  1  0  0  0  0
 51 45  1  6  0  0  0
 51 42  1  0  0  0  0
 52 56  1  0  0  0  0
 52 44  1  0  0  0  0
 54 46  1  6  0  0  0
 55 45  1  6  0  0  0
 55 48  1  0  0  0  0
 55 51  1  0  0  0  0
 56 58  2  0  0  0  0
 57 47  2  0  0  0  0
 57 59  1  0  0  0  0
 59 43  2  0  0  0  0
 60 48  1  6  0  0  0
 60 39  1  0  0  0  0
 60 54  1  0  0  0  0
 62 64  1  0  0  0  0
 64 63  1  1  0  0  0
 64 61  1  0  0  0  0
M  END
>  <MODEL>
6

>  <REMARK>
 VINA RESULT:      -5.8      2.869     10.774
  Name = 
  18 active torsions:
  status: ('A' for Active; 'I' for Inactive)
    1  A    between atoms: C_1  and  O_25
    2  A    between atoms: C_1  and  C_35
    3  A    between atoms: N_2  and  C_54
    4  A    between atoms: N_2  and  C_58
    5  A    between atoms: O_6  and  C_17
    6  A    between atoms: O_6  and  C_64
    7  A    between atoms: O_12  and  C_27
    8  A    between atoms: O_12  and  C_32
    9  A    between atoms: P_20  and  C_24
   10  A    between atoms: P_20  and  O_25
   11  A    between atoms: C_24  and  C_53
   12  A    between atoms: C_36  and  C_38
   13  A    between atoms: C_36  and  C_49
   14  A    between atoms: C_37  and  C_63
   15  A    between atoms: C_38  and  C_46
   16  A    between atoms: C_40  and  C_58
   17  A    between atoms: C_42  and  C_46
   18  A    between atoms: C_49  and  C_53
                            x       y       z     vdW  Elec       q    Type
                         _______ _______ _______ _____ _____    ______ ____

>  <TORSDO>
F 18

$$$$
=
 OpenBabel11062412013D

 64 69  0  0  1  0  0  0  0  0999 V2000
  189.8410  176.5790  142.5150 O   0  0  0  0  0  0  0  0  0  0  0  0
  188.0150  178.0670  142.0250 C   0  0  1  0  0  3  0  0  0  0  0  0
  189.8460  177.9790  140.5360 C   0  0  1  0  0  3  0  0  0  0  0  0
  188.4430  176.6630  142.4790 C   0  0  2  0  0  3  0  0  0  0  0  0
  189.0610  178.7980  141.3940 O   0  0  0  0  0  0  0  0  0  0  0  0
  190.2560  176.6350  141.1730 C   0  0  0  0  0  2  0  0  0  0  0  0
  189.2240  177.8200  139.1740 C   0  0  0  0  0  0  0  0  0  0  0  0
  189.8240  178.2820  138.1670 O   0  0  0  0  0  0  0  0  0  0  0  0
  188.0260  177.1310  138.9650 O   0  0  0  0  0  0  0  0  0  0  0  0
  186.4050  178.5710  137.1420 O   0  0  0  0  0  0  0  0  0  0  0  0
  187.1480  177.0880  137.4790 P   0  0  2  0  0  0  0  0  0  0  0  0
  186.0820  176.0240  137.5780 O   0  0  0  0  0  1  0  0  0  0  0  0
  188.4980  177.5170  135.2460 O   0  0  0  0  0  0  0  0  0  0  0  0
  188.2750  176.6640  136.1430 C   0  0  0  0  0  0  0  0  0  0  0  0
  188.3850  174.4240  135.3890 O   0  0  0  0  0  0  0  0  0  0  0  0
  188.9230  175.3430  136.0670 C   0  0  0  0  0  0  0  0  0  0  0  0
  190.0690  173.9790  137.6550 O   0  0  0  0  0  1  0  0  0  0  0  0
  190.2060  175.0710  136.7970 C   0  0  1  0  0  3  0  0  0  0  0  0
  191.3950  174.8970  135.8550 C   0  0  0  0  0  2  0  0  0  0  0  0
  192.6110  174.3160  136.5610 C   0  0  1  0  0  3  0  0  0  0  0  0
  193.2680  173.4280  135.7070 O   0  0  0  0  0  1  0  0  0  0  0  0
  194.6790  175.4410  136.5950 O   0  0  0  0  0  0  0  0  0  0  0  0
  193.5290  175.4180  137.0090 C   0  0  0  0  0  0  0  0  0  0  0  0
  193.0560  176.5140  137.9160 C   0  0  0  0  0  2  0  0  0  0  0  0
  193.7870  176.5100  139.1000 O   0  0  0  0  0  1  0  0  0  0  0  0
  187.8640  176.3400  143.8510 C   0  0  0  0  0  2  0  0  0  0  0  0
  188.8250  176.6750  144.8970 N   0  0  0  0  0  2  0  0  0  0  0  0
  187.6780  178.4520  148.5720 C   0  0  0  0  0  3  0  0  0  0  0  0
  188.9360  177.8490  148.4580 C   0  0  0  0  0  3  0  0  0  0  0  0
  187.1880  177.8710  146.2700 C   0  0  0  0  0  3  0  0  0  0  0  0
  189.3200  177.2600  147.2460 C   0  0  0  0  0  3  0  0  0  0  0  0
  186.8050  178.4620  147.4800 C   0  0  0  0  0  3  0  0  0  0  0  0
  188.4490  177.2720  146.1470 C   0  0  0  0  0  0  0  0  0  0  0  0
  186.8910  177.9920  141.1950 O   0  0  0  0  0  0  0  0  0  0  0  0
  185.8860  179.6040  142.6950 C   0  0  0  0  0  2  0  0  0  0  0  0
  184.0400  177.4220  141.4660 O   0  0  0  0  0  0  0  0  0  0  0  0
  186.2940  179.2600  141.2570 C   0  0  2  0  0  3  0  0  0  0  0  0
  184.9640  178.5660  143.3410 C   0  0  0  0  0  2  0  0  0  0  0  0
  184.2070  178.1320  140.2470 C   0  0  2  0  0  3  0  0  0  0  0  0
  185.0980  179.3870  140.3070 C   0  0  0  0  0  2  0  0  0  0  0  0
  183.7140  178.3160  142.5070 C   0  0  0  0  0  2  0  0  0  0  0  0
  182.5140  179.1170  137.1420 O   0  0  0  0  0  0  0  0  0  0  0  0
  182.4740  174.4360  135.0460 O   0  0  0  0  0  0  0  0  0  0  0  0
  179.6450  175.8370  137.0700 C   0  0  0  0  0  2  0  0  0  0  0  0
  181.4050  180.9370  138.1200 O   0  0  0  0  0  0  0  0  0  0  0  0
  182.2630  176.7730  137.7390 C   0  0  0  0  0  2  0  0  0  0  0  0
  179.7370  174.1950  135.3140 C   0  0  0  0  0  0  0  0  0  0  0  0
  182.5320  179.7450  139.7010 O   0  0  0  0  0  0  0  0  0  0  0  0
  179.9690  179.3700  136.9090 C   0  0  2  0  0  3  0  0  0  0  0  0
  182.6460  176.1780  136.5020 O   0  0  0  0  0  0  0  0  0  0  0  0
  181.2920  179.6170  137.6540 C   0  0  1  0  0  0  0  0  0  0  0  0
  178.9410  177.0390  136.4480 C   0  0  0  0  0  2  0  0  0  0  0  0
  179.0980  173.4040  134.6030 O   0  0  0  0  0  0  0  0  0  0  0  0
  183.0040  178.0780  137.9830 C   0  0  2  0  0  3  0  0  0  0  0  0
  181.2700  179.9410  139.1090 C   0  0  2  0  0  3  0  0  0  0  0  0
  179.9060  178.1170  136.0780 C   0  0  0  0  0  0  0  0  0  0  0  0
  180.4090  175.0340  136.0640 C   0  0  0  0  0  0  0  0  0  0  0  0
  180.6020  177.9920  135.0840 O   0  0  0  0  0  0  0  0  0  0  0  0
  181.8810  175.1970  135.8600 C   0  0  0  0  0  0  0  0  0  0  0  0
  182.9050  178.4060  139.4910 C   0  0  1  0  0  3  0  0  0  0  0  0
  179.4240  180.5150  136.2810 O   0  0  0  0  0  0  0  0  0  0  0  0
  180.9550  180.6480  134.5940 O   0  0  0  0  0  1  0  0  0  0  0  0
  179.9330  182.6510  135.3440 C   0  0  0  0  0  1  0  0  0  0  0  0
  180.4610  181.2840  135.7300 C   0  0  1  0  0  3  0  0  0  0  0  0
  2 34  1  6  0  0  0
  2  4  1  0  0  0  0
  3  7  1  6  0  0  0
  3  6  1  0  0  0  0
  3  5  1  0  0  0  0
  4  1  1  0  0  0  0
  4 26  1  1  0  0  0
  5  2  1  0  0  0  0
  6  1  1  0  0  0  0
  8  7  2  0  0  0  0
  9  7  1  0  0  0  0
 11 10  2  6  0  0  0
 11 12  1  0  0  0  0
 11  9  1  0  0  0  0
 13 14  2  0  0  0  0
 14 11  1  0  0  0  0
 15 16  2  0  0  0  0
 16 14  1  0  0  0  0
 16 18  1  0  0  0  0
 18 17  1  6  0  0  0
 19 20  1  0  0  0  0
 19 18  1  0  0  0  0
 20 21  1  6  0  0  0
 20 23  1  0  0  0  0
 22 23  2  0  0  0  0
 23 24  1  0  0  0  0
 24 25  1  0  0  0  0
 26 27  1  0  0  0  0
 27 33  1  0  0  0  0
 29 28  1  0  0  0  0
 30 32  1  0  0  0  0
 31 29  2  0  0  0  0
 32 28  2  0  0  0  0
 33 30  2  0  0  0  0
 33 31  1  0  0  0  0
 35 38  1  0  0  0  0
 36 41  1  0  0  0  0
 37 34  1  1  0  0  0
 37 35  1  0  0  0  0
 39 40  1  1  0  0  0
 39 36  1  0  0  0  0
 40 37  1  0  0  0  0
 41 38  1  0  0  0  0
 42 54  1  0  0  0  0
 43 59  2  0  0  0  0
 47 57  2  0  0  0  0
 49 61  1  6  0  0  0
 49 51  1  0  0  0  0
 50 46  1  0  0  0  0
 51 42  1  6  0  0  0
 51 45  1  0  0  0  0
 51 55  1  0  0  0  0
 52 44  1  0  0  0  0
 53 47  2  0  0  0  0
 54 46  1  1  0  0  0
 54 60  1  0  0  0  0
 55 45  1  6  0  0  0
 55 48  1  0  0  0  0
 56 52  1  0  0  0  0
 56 49  1  0  0  0  0
 57 44  1  0  0  0  0
 58 56  2  0  0  0  0
 59 57  1  0  0  0  0
 59 50  1  0  0  0  0
 60 48  1  6  0  0  0
 60 39  1  0  0  0  0
 62 64  1  0  0  0  0
 64 63  1  6  0  0  0
 64 61  1  0  0  0  0
M  END
>  <MODEL>
7

>  <REMARK>
 VINA RESULT:      -5.8      2.683      8.962
  Name = 
  18 active torsions:
  status: ('A' for Active; 'I' for Inactive)
    1  A    between atoms: C_1  and  O_25
    2  A    between atoms: C_1  and  C_35
    3  A    between atoms: N_2  and  C_54
    4  A    between atoms: N_2  and  C_58
    5  A    between atoms: O_6  and  C_17
    6  A    between atoms: O_6  and  C_64
    7  A    between atoms: O_12  and  C_27
    8  A    between atoms: O_12  and  C_32
    9  A    between atoms: P_20  and  C_24
   10  A    between atoms: P_20  and  O_25
   11  A    between atoms: C_24  and  C_53
   12  A    between atoms: C_36  and  C_38
   13  A    between atoms: C_36  and  C_49
   14  A    between atoms: C_37  and  C_63
   15  A    between atoms: C_38  and  C_46
   16  A    between atoms: C_40  and  C_58
   17  A    between atoms: C_42  and  C_46
   18  A    between atoms: C_49  and  C_53
                            x       y       z     vdW  Elec       q    Type
                         _______ _______ _______ _____ _____    ______ ____

>  <TORSDO>
F 18

$$$$
=
 OpenBabel11062412013D

 64 69  0  0  1  0  0  0  0  0999 V2000
  192.6600  176.4600  138.9280 O   0  0  0  0  0  0  0  0  0  0  0  0
  190.5060  175.8320  138.0600 C   0  0  1  0  0  3  0  0  0  0  0  0
  190.6110  177.0740  140.0660 C   0  0  1  0  0  3  0  0  0  0  0  0
  191.9010  176.3980  137.7520 C   0  0  2  0  0  3  0  0  0  0  0  0
  190.1750  175.8710  139.4450 O   0  0  0  0  0  0  0  0  0  0  0  0
  192.0610  177.4600  139.7120 C   0  0  0  0  0  2  0  0  0  0  0  0
  189.6340  178.2030  139.8690 C   0  0  0  0  0  0  0  0  0  0  0  0
  189.3060  178.5340  138.6990 O   0  0  0  0  0  0  0  0  0  0  0  0
  189.0280  178.8730  140.9350 O   0  0  0  0  0  0  0  0  0  0  0  0
  188.2440  178.5870  143.6420 O   0  0  0  0  0  1  0  0  0  0  0  0
  187.8980  178.1740  142.0380 P   0  0  2  0  0  0  0  0  0  0  0  0
  187.9540  176.6720  141.9010 O   0  0  0  0  0  0  0  0  0  0  0  0
  186.0840  179.4290  140.5780 O   0  0  0  0  0  0  0  0  0  0  0  0
  186.2430  178.7370  141.6170 C   0  0  0  0  0  0  0  0  0  0  0  0
  184.1680  177.6740  142.0210 O   0  0  0  0  0  0  0  0  0  0  0  0
  185.0790  178.4250  142.4660 C   0  0  0  0  0  0  0  0  0  0  0  0
  183.6760  179.5110  144.0630 O   0  0  0  0  0  1  0  0  0  0  0  0
  184.9560  179.0010  143.8470 C   0  0  1  0  0  3  0  0  0  0  0  0
  185.3540  178.0080  144.9380 C   0  0  0  0  0  2  0  0  0  0  0  0
  185.7210  178.7000  146.2410 C   0  0  1  0  0  3  0  0  0  0  0  0
  184.6440  178.6290  147.1270 O   0  0  0  0  0  1  0  0  0  0  0  0
  187.4910  177.1450  146.2480 O   0  0  0  0  0  0  0  0  0  0  0  0
  186.9530  178.0740  146.8340 C   0  0  0  0  0  0  0  0  0  0  0  0
  187.5630  178.5910  148.1020 C   0  0  0  0  0  2  0  0  0  0  0  0
  187.9470  177.5320  148.9190 O   0  0  0  0  0  1  0  0  0  0  0  0
  192.6130  175.5420  136.7130 C   0  0  0  0  0  2  0  0  0  0  0  0
  193.9830  176.0060  136.5270 N   0  0  0  0  0  2  0  0  0  0  0  0
  197.3580  173.7280  137.7080 C   0  0  0  0  0  3  0  0  0  0  0  0
  197.4160  174.4950  136.5380 C   0  0  0  0  0  3  0  0  0  0  0  0
  195.0780  174.4630  138.0800 C   0  0  0  0  0  3  0  0  0  0  0  0
  196.3040  175.2490  136.1430 C   0  0  0  0  0  3  0  0  0  0  0  0
  196.1910  173.7110  138.4770 C   0  0  0  0  0  3  0  0  0  0  0  0
  195.1330  175.2400  136.9150 C   0  0  0  0  0  0  0  0  0  0  0  0
  189.5320  176.4880  137.2980 O   0  0  0  0  0  0  0  0  0  0  0  0
  189.3700  175.9950  134.9350 C   0  0  0  0  0  2  0  0  0  0  0  0
  187.0770  177.6520  136.2280 O   0  0  0  0  0  0  0  0  0  0  0  0
  189.0810  175.5380  136.3690 C   0  0  2  0  0  3  0  0  0  0  0  0
  188.7880  177.3700  134.5940 C   0  0  0  0  0  2  0  0  0  0  0  0
  186.7150  176.4360  136.8660 C   0  0  2  0  0  3  0  0  0  0  0  0
  187.5940  175.2110  136.5470 C   0  0  0  0  0  2  0  0  0  0  0  0
  187.2880  177.4330  134.8520 C   0  0  0  0  0  2  0  0  0  0  0  0
  183.5430  175.7130  138.5670 O   0  0  0  0  0  0  0  0  0  0  0  0
  182.1420  180.6080  139.1910 O   0  0  0  0  0  0  0  0  0  0  0  0
  181.0970  178.4980  136.2720 C   0  0  0  0  0  2  0  0  0  0  0  0
  183.2770  173.6160  137.5500 O   0  0  0  0  0  0  0  0  0  0  0  0
  183.6280  177.8690  137.4440 C   0  0  0  0  0  2  0  0  0  0  0  0
  180.0880  180.3920  137.3590 C   0  0  0  0  0  0  0  0  0  0  0  0
  185.0870  174.6980  136.6880 O   0  0  0  0  0  0  0  0  0  0  0  0
  181.3600  175.1240  137.3480 C   0  0  2  0  0  3  0  0  0  0  0  0
  183.1900  178.7020  138.5130 O   0  0  0  0  0  0  0  0  0  0  0  0
  182.8730  174.9620  137.5690 C   0  0  1  0  0  0  0  0  0  0  0  0
  180.1940  177.3180  136.6200 C   0  0  0  0  0  2  0  0  0  0  0  0
  179.1310  181.1810  137.3860 O   0  0  0  0  0  0  0  0  0  0  0  0
  184.4060  176.6670  137.9570 C   0  0  2  0  0  3  0  0  0  0  0  0
  183.7250  174.4120  136.4760 C   0  0  2  0  0  3  0  0  0  0  0  0
  180.7840  176.4680  137.6990 C   0  0  0  0  0  0  0  0  0  0  0  0
  181.0960  179.5550  137.3320 C   0  0  0  0  0  0  0  0  0  0  0  0
  180.7540  176.8510  138.8560 O   0  0  0  0  0  0  0  0  0  0  0  0
  182.1660  179.6470  138.3710 C   0  0  0  0  0  0  0  0  0  0  0  0
  185.2270  176.0940  136.7790 C   0  0  1  0  0  3  0  0  0  0  0  0
  180.5810  174.0240  137.7790 O   0  0  0  0  0  0  0  0  0  0  0  0
  180.3700  171.7710  137.4800 O   0  0  0  0  0  1  0  0  0  0  0  0
  179.7830  173.2030  135.6840 C   0  0  0  0  0  1  0  0  0  0  0  0
  180.7100  172.9710  136.8600 C   0  0  1  0  0  3  0  0  0  0  0  0
  1  6  1  0  0  0  0
  2 34  1  6  0  0  0
  2  5  1  0  0  0  0
  3  7  1  6  0  0  0
  4 26  1  6  0  0  0
  4  2  1  0  0  0  0
  4  1  1  0  0  0  0
  5  3  1  0  0  0  0
  6  3  1  0  0  0  0
  7  9  1  0  0  0  0
  8  7  2  0  0  0  0
  9 11  1  0  0  0  0
 11 12  2  6  0  0  0
 11 10  1  0  0  0  0
 13 14  2  0  0  0  0
 14 11  1  0  0  0  0
 14 16  1  0  0  0  0
 15 16  2  0  0  0  0
 16 18  1  0  0  0  0
 18 17  1  1  0  0  0
 18 19  1  0  0  0  0
 19 20  1  0  0  0  0
 20 23  1  0  0  0  0
 20 21  1  1  0  0  0
 22 23  2  0  0  0  0
 23 24  1  0  0  0  0
 24 25  1  0  0  0  0
 27 26  1  0  0  0  0
 27 33  1  0  0  0  0
 28 32  1  0  0  0  0
 29 28  2  0  0  0  0
 30 32  2  0  0  0  0
 31 29  1  0  0  0  0
 31 33  2  0  0  0  0
 33 30  1  0  0  0  0
 35 37  1  0  0  0  0
 36 39  1  0  0  0  0
 37 40  1  0  0  0  0
 37 34  1  1  0  0  0
 38 41  1  0  0  0  0
 38 35  1  0  0  0  0
 39 40  1  6  0  0  0
 41 36  1  0  0  0  0
 44 52  1  0  0  0  0
 44 57  1  0  0  0  0
 46 50  1  0  0  0  0
 47 53  2  0  0  0  0
 49 51  1  0  0  0  0
 49 56  1  0  0  0  0
 49 61  1  1  0  0  0
 51 45  1  1  0  0  0
 51 42  1  0  0  0  0
 52 56  1  0  0  0  0
 54 46  1  6  0  0  0
 54 42  1  0  0  0  0
 55 48  1  1  0  0  0
 55 45  1  0  0  0  0
 55 51  1  0  0  0  0
 56 58  2  0  0  0  0
 57 47  2  0  0  0  0
 57 59  1  0  0  0  0
 59 50  1  0  0  0  0
 59 43  2  0  0  0  0
 60 48  1  1  0  0  0
 60 39  1  0  0  0  0
 60 54  1  0  0  0  0
 64 63  1  6  0  0  0
 64 62  1  0  0  0  0
 64 61  1  0  0  0  0
M  END
>  <MODEL>
8

>  <REMARK>
 VINA RESULT:      -5.8      3.069     11.156
  Name = 
  18 active torsions:
  status: ('A' for Active; 'I' for Inactive)
    1  A    between atoms: C_1  and  O_25
    2  A    between atoms: C_1  and  C_35
    3  A    between atoms: N_2  and  C_54
    4  A    between atoms: N_2  and  C_58
    5  A    between atoms: O_6  and  C_17
    6  A    between atoms: O_6  and  C_64
    7  A    between atoms: O_12  and  C_27
    8  A    between atoms: O_12  and  C_32
    9  A    between atoms: P_20  and  C_24
   10  A    between atoms: P_20  and  O_25
   11  A    between atoms: C_24  and  C_53
   12  A    between atoms: C_36  and  C_38
   13  A    between atoms: C_36  and  C_49
   14  A    between atoms: C_37  and  C_63
   15  A    between atoms: C_38  and  C_46
   16  A    between atoms: C_40  and  C_58
   17  A    between atoms: C_42  and  C_46
   18  A    between atoms: C_49  and  C_53
                            x       y       z     vdW  Elec       q    Type
                         _______ _______ _______ _____ _____    ______ ____

>  <TORSDO>
F 18

$$$$
=
 OpenBabel11062412013D

 64 69  0  0  1  0  0  0  0  0999 V2000
  191.9050  177.1940  140.5240 O   0  0  0  0  0  0  0  0  0  0  0  0
  190.2470  176.3070  139.0230 C   0  0  1  0  0  3  0  0  0  0  0  0
  189.5530  177.1740  141.1070 C   0  0  1  0  0  3  0  0  0  0  0  0
  191.4960  177.1870  139.1840 C   0  0  2  0  0  3  0  0  0  0  0  0
  189.5870  176.0360  140.2550 O   0  0  0  0  0  0  0  0  0  0  0  0
  190.9090  177.9000  141.2190 C   0  0  0  0  0  2  0  0  0  0  0  0
  188.4130  178.1000  140.7760 C   0  0  0  0  0  0  0  0  0  0  0  0
  187.9880  178.1530  139.5920 O   0  0  0  0  0  0  0  0  0  0  0  0
  187.7610  178.8720  141.7420 O   0  0  0  0  0  0  0  0  0  0  0  0
  185.2690  177.6610  141.1520 O   0  0  0  0  0  0  0  0  0  0  0  0
  186.0930  178.7340  142.1680 P   0  0  2  0  0  0  0  0  0  0  0  0
  185.4520  180.0960  142.0570 O   0  0  0  0  0  1  0  0  0  0  0  0
  184.9370  178.4570  144.5300 O   0  0  0  0  0  0  0  0  0  0  0  0
  185.9670  178.1660  143.8700 C   0  0  0  0  0  0  0  0  0  0  0  0
  187.5290  176.3900  143.9120 O   0  0  0  0  0  0  0  0  0  0  0  0
  187.0450  177.3900  144.5090 C   0  0  0  0  0  0  0  0  0  0  0  0
  186.5210  177.8600  146.7890 O   0  0  0  0  0  1  0  0  0  0  0  0
  187.5630  177.7650  145.8670 C   0  0  1  0  0  3  0  0  0  0  0  0
  188.6610  176.8250  146.3590 C   0  0  0  0  0  2  0  0  0  0  0  0
  190.0120  177.5170  146.4570 C   0  0  1  0  0  3  0  0  0  0  0  0
  190.8500  176.7870  147.3030 O   0  0  0  0  0  1  0  0  0  0  0  0
  191.1440  176.7010  144.5600 O   0  0  0  0  0  0  0  0  0  0  0  0
  190.6190  177.6690  145.0910 C   0  0  0  0  0  0  0  0  0  0  0  0
  190.5580  178.9690  144.3460 C   0  0  0  0  0  2  0  0  0  0  0  0
  191.8380  179.3780  143.9830 O   0  0  0  0  0  1  0  0  0  0  0  0
  192.6270  176.6870  138.2940 C   0  0  0  0  0  2  0  0  0  0  0  0
  192.3510  175.3270  137.8420 N   0  0  0  0  0  2  0  0  0  0  0  0
  195.4230  172.5140  137.0470 C   0  0  0  0  0  3  0  0  0  0  0  0
  194.1260  172.2740  136.5780 C   0  0  0  0  0  3  0  0  0  0  0  0
  194.6790  174.5970  138.0410 C   0  0  0  0  0  3  0  0  0  0  0  0
  193.1080  173.2000  136.8370 C   0  0  0  0  0  3  0  0  0  0  0  0
  195.6990  173.6730  137.7790 C   0  0  0  0  0  3  0  0  0  0  0  0
  193.3810  174.3670  137.5660 C   0  0  0  0  0  0  0  0  0  0  0  0
  189.3630  176.8760  138.1000 O   0  0  0  0  0  0  0  0  0  0  0  0
  189.6820  176.1590  135.8110 C   0  0  0  0  0  2  0  0  0  0  0  0
  187.2580  178.0110  136.4230 O   0  0  0  0  0  0  0  0  0  0  0  0
  189.0700  175.8550  137.1830 C   0  0  2  0  0  3  0  0  0  0  0  0
  189.2600  177.5130  135.2310 C   0  0  0  0  0  2  0  0  0  0  0  0
  186.7040  176.8760  137.0730 C   0  0  2  0  0  3  0  0  0  0  0  0
  187.5630  175.5970  137.0620 C   0  0  0  0  0  2  0  0  0  0  0  0
  187.7460  177.6510  135.1500 C   0  0  0  0  0  2  0  0  0  0  0  0
  183.3790  175.6660  138.0510 O   0  0  0  0  0  0  0  0  0  0  0  0
  181.7190  180.1330  139.9480 O   0  0  0  0  0  0  0  0  0  0  0  0
  181.1230  179.0190  136.4170 C   0  0  0  0  0  2  0  0  0  0  0  0
  183.3220  173.9810  136.4200 O   0  0  0  0  0  0  0  0  0  0  0  0
  183.5150  178.0620  137.6580 C   0  0  0  0  0  2  0  0  0  0  0  0
  179.9150  180.4880  137.8900 C   0  0  0  0  0  0  0  0  0  0  0  0
  185.1800  175.2760  136.1670 O   0  0  0  0  0  0  0  0  0  0  0  0
  181.3870  175.4770  136.4410 C   0  0  2  0  0  3  0  0  0  0  0  0
  182.9170  178.5270  138.8640 O   0  0  0  0  0  0  0  0  0  0  0  0
  182.8670  175.2560  136.7950 C   0  0  1  0  0  0  0  0  0  0  0  0
  180.2320  177.7880  136.2710 C   0  0  0  0  0  2  0  0  0  0  0  0
  178.9310  181.2300  138.0310 O   0  0  0  0  0  0  0  0  0  0  0  0
  184.2720  176.7610  137.8760 C   0  0  2  0  0  3  0  0  0  0  0  0
  183.8670  175.0680  135.7050 C   0  0  2  0  0  3  0  0  0  0  0  0
  180.7190  176.6490  137.1070 C   0  0  0  0  0  0  0  0  0  0  0  0
  180.9510  179.7000  137.7390 C   0  0  0  0  0  0  0  0  0  0  0  0
  180.5330  176.6590  138.3120 O   0  0  0  0  0  0  0  0  0  0  0  0
  181.8820  179.4700  138.8850 C   0  0  0  0  0  0  0  0  0  0  0  0
  185.2520  176.5760  136.6950 C   0  0  1  0  0  3  0  0  0  0  0  0
  180.6050  174.2980  136.4140 O   0  0  0  0  0  0  0  0  0  0  0  0
  179.9310  173.7650  138.5290 O   0  0  0  0  0  1  0  0  0  0  0  0
  180.8640  172.0520  137.1810 C   0  0  0  0  0  1  0  0  0  0  0  0
  180.8910  173.5220  137.5480 C   0  0  1  0  0  3  0  0  0  0  0  0
  1  6  1  0  0  0  0
  2 34  1  6  0  0  0
  2  4  1  0  0  0  0
  2  5  1  0  0  0  0
  3  7  1  6  0  0  0
  3  6  1  0  0  0  0
  4 26  1  6  0  0  0
  4  1  1  0  0  0  0
  5  3  1  0  0  0  0
  7  9  1  0  0  0  0
  8  7  2  0  0  0  0
  9 11  1  0  0  0  0
 11 10  2  6  0  0  0
 11 14  1  0  0  0  0
 12 11  1  0  0  0  0
 14 16  1  0  0  0  0
 14 13  2  0  0  0  0
 15 16  2  0  0  0  0
 16 18  1  0  0  0  0
 18 19  1  0  0  0  0
 18 17  1  1  0  0  0
 19 20  1  0  0  0  0
 20 21  1  1  0  0  0
 22 23  2  0  0  0  0
 23 20  1  0  0  0  0
 24 23  1  0  0  0  0
 25 24  1  0  0  0  0
 27 26  1  0  0  0  0
 28 32  1  0  0  0  0
 29 31  1  0  0  0  0
 29 28  2  0  0  0  0
 31 33  2  0  0  0  0
 32 30  2  0  0  0  0
 33 27  1  0  0  0  0
 33 30  1  0  0  0  0
 35 37  1  0  0  0  0
 36 39  1  0  0  0  0
 37 34  1  1  0  0  0
 38 35  1  0  0  0  0
 39 40  1  6  0  0  0
 40 37  1  0  0  0  0
 41 38  1  0  0  0  0
 41 36  1  0  0  0  0
 44 57  1  0  0  0  0
 46 50  1  0  0  0  0
 47 53  2  0  0  0  0
 49 61  1  1  0  0  0
 49 51  1  0  0  0  0
 49 56  1  0  0  0  0
 50 59  1  0  0  0  0
 51 45  1  1  0  0  0
 51 42  1  0  0  0  0
 52 44  1  0  0  0  0
 52 56  1  0  0  0  0
 54 46  1  6  0  0  0
 54 42  1  0  0  0  0
 55 48  1  1  0  0  0
 55 45  1  0  0  0  0
 55 51  1  0  0  0  0
 56 58  2  0  0  0  0
 57 47  2  0  0  0  0
 57 59  1  0  0  0  0
 59 43  2  0  0  0  0
 60 48  1  1  0  0  0
 60 39  1  0  0  0  0
 60 54  1  0  0  0  0
 61 64  1  0  0  0  0
 64 63  1  6  0  0  0
 64 62  1  0  0  0  0
M  END
>  <MODEL>
9

>  <REMARK>
 VINA RESULT:      -5.5      2.787     10.553
  Name = 
  18 active torsions:
  status: ('A' for Active; 'I' for Inactive)
    1  A    between atoms: C_1  and  O_25
    2  A    between atoms: C_1  and  C_35
    3  A    between atoms: N_2  and  C_54
    4  A    between atoms: N_2  and  C_58
    5  A    between atoms: O_6  and  C_17
    6  A    between atoms: O_6  and  C_64
    7  A    between atoms: O_12  and  C_27
    8  A    between atoms: O_12  and  C_32
    9  A    between atoms: P_20  and  C_24
   10  A    between atoms: P_20  and  O_25
   11  A    between atoms: C_24  and  C_53
   12  A    between atoms: C_36  and  C_38
   13  A    between atoms: C_36  and  C_49
   14  A    between atoms: C_37  and  C_63
   15  A    between atoms: C_38  and  C_46
   16  A    between atoms: C_40  and  C_58
   17  A    between atoms: C_42  and  C_46
   18  A    between atoms: C_49  and  C_53
                            x       y       z     vdW  Elec       q    Type
                         _______ _______ _______ _____ _____    ______ ____

>  <TORSDO>
F 18

$$$$
