=
 OpenBabel11062412293D

 37 42  0  0  1  0  0  0  0  0999 V2000
  186.2890  177.8020  142.7330 C   0  0  0  0  0  0  0  0  0  0  0  0
  187.6860  177.2760  142.8520 C   0  0  2  0  0  3  0  0  0  0  0  0
  183.3340  178.9800  140.6120 C   0  0  2  0  0  3  0  0  0  0  0  0
  180.7480  178.9130  141.0020 C   0  0  0  0  0  1  0  0  0  0  0  0
  184.2860  178.5810  141.6860 C   0  0  0  0  0  0  0  0  0  0  0  0
  185.6730  177.9170  143.9650 C   0  0  0  0  0  0  0  0  0  0  0  0
  185.6070  178.1280  141.5510 C   0  0  0  0  0  3  0  0  0  0  0  0
  186.5970  177.4940  144.9840 C   0  0  0  0  0  0  0  0  0  0  0  0
  186.3510  177.4790  146.2180 O   0  0  0  0  0  0  0  0  0  0  0  0
  183.6850  178.7000  142.9200 C   0  0  0  0  0  0  0  0  0  0  0  0
  182.3610  179.1830  142.8300 N   0  0  0  0  0  2  0  0  0  0  0  0
  187.8910  177.0710  144.3720 C   0  0  0  0  0  2  0  0  0  0  0  0
  182.0960  179.4800  141.4230 C   0  0  1  0  0  3  0  0  0  0  0  0
  184.3550  178.3680  144.1050 C   0  0  0  0  0  3  0  0  0  0  0  0
  183.2060  178.0690  138.2830 C   0  0  0  0  0  3  0  0  0  0  0  0
  183.0660  177.8440  139.6570 C   0  0  0  0  0  0  0  0  0  0  0  0
  182.4290  175.5440  139.2010 C   0  0  0  0  0  3  0  0  0  0  0  0
  182.6720  176.5740  140.1140 C   0  0  0  0  0  3  0  0  0  0  0  0
  182.5750  175.7750  137.8310 C   0  0  0  0  0  3  0  0  0  0  0  0
  182.9630  177.0370  137.3720 C   0  0  0  0  0  3  0  0  0  0  0  0
  188.6780  178.3000  142.3230 C   0  0  0  0  0  2  0  0  0  0  0  0
  189.8920  177.5980  141.7390 C   0  0  0  0  0  2  0  0  0  0  0  0
  190.8560  176.4990  139.6870 C   0  0  1  0  0  3  0  0  0  0  0  0
  188.3010  176.1970  137.6620 C   0  0  2  0  0  3  0  0  0  0  0  0
  187.5720  177.5520  137.7270 C   0  0  1  0  0  3  0  0  0  0  0  0
  192.0250  175.4210  137.9180 C   0  0  0  0  0  2  0  0  0  0  0  0
  192.0360  177.3970  139.3720 C   0  0  0  0  0  2  0  0  0  0  0  0
  187.7230  178.2390  139.0850 C   0  0  0  0  0  2  0  0  0  0  0  0
  189.7990  176.3080  137.3720 C   0  0  0  0  0  2  0  0  0  0  0  0
  189.6290  177.1960  140.2970 C   0  0  2  0  0  3  0  0  0  0  0  0
  187.9420  178.5000  136.5940 C   0  0  0  0  0  1  0  0  0  0  0  0
  189.1790  178.4160  139.5050 C   0  0  0  0  0  2  0  0  0  0  0  0
  190.6240  175.6240  138.4590 C   0  0  2  0  0  3  0  0  0  0  0  0
  192.8430  176.6420  138.3280 C   0  0  0  0  0  2  0  0  0  0  0  0
  187.6260  175.2230  136.7990 N   0  0  0  0  0  2  0  0  0  0  0  0
  186.1830  175.2330  137.0230 C   0  0  0  0  0  2  0  0  0  0  0  0
  185.7060  173.8290  137.3420 C   0  0  0  0  0  1  0  0  0  0  0  0
  1  2  1  0  0  0  0
  1  6  1  0  0  0  0
  2 21  1  1  0  0  0
  2 12  1  0  0  0  0
  3 16  1  6  0  0  0
  3 13  1  0  0  0  0
  3  5  1  0  0  0  0
  5 10  2  0  0  0  0
  6 14  2  0  0  0  0
  6  8  1  0  0  0  0
  7  5  1  0  0  0  0
  7  1  2  0  0  0  0
  8  9  2  0  0  0  0
 10 14  1  0  0  0  0
 11 10  1  0  0  0  0
 12  8  1  0  0  0  0
 13  4  1  6  0  0  0
 13 11  1  0  0  0  0
 15 16  1  0  0  0  0
 16 18  2  0  0  0  0
 17 18  1  0  0  0  0
 19 17  2  0  0  0  0
 20 19  1  0  0  0  0
 20 15  2  0  0  0  0
 22 21  1  0  0  0  0
 23 27  1  6  0  0  0
 23 30  1  0  0  0  0
 24 35  1  6  0  0  0
 24 25  1  0  0  0  0
 25 31  1  6  0  0  0
 25 28  1  0  0  0  0
 26 34  1  0  0  0  0
 26 33  1  0  0  0  0
 28 32  1  0  0  0  0
 29 24  1  0  0  0  0
 30 22  1  1  0  0  0
 32 30  1  0  0  0  0
 33 29  1  6  0  0  0
 33 23  1  0  0  0  0
 34 27  1  0  0  0  0
 35 36  1  0  0  0  0
 36 37  1  0  0  0  0
M  END
>  <MODEL>
1

>  <REMARK>
 VINA RESULT:      -8.0      0.000      0.000
  Name = 
  6 active torsions:
  status: ('A' for Active; 'I' for Inactive)
    1  A    between atoms: C_2  and  N_7
    2  A    between atoms: C_4  and  C_28
    3  A    between atoms: C_4  and  C_37
    4  A    between atoms: C_5  and  C_37
    5  A    between atoms: N_7  and  C_9
    6  A    between atoms: C_8  and  C_11
                            x       y       z     vdW  Elec       q    Type
                         _______ _______ _______ _____ _____    ______ ____

>  <TORSDO>
F 6

$$$$
=
 OpenBabel11062412293D

 37 42  0  0  1  0  0  0  0  0999 V2000
  184.2520  177.4310  138.9060 C   0  0  0  0  0  0  0  0  0  0  0  0
  183.5420  177.3150  140.2200 C   0  0  2  0  0  3  0  0  0  0  0  0
  187.3460  178.3360  136.8510 C   0  0  2  0  0  3  0  0  0  0  0  0
  188.2920  177.4150  134.5940 C   0  0  0  0  0  1  0  0  0  0  0  0
  186.0170  177.9010  137.3650 C   0  0  0  0  0  0  0  0  0  0  0  0
  183.4810  176.9630  137.8600 C   0  0  0  0  0  0  0  0  0  0  0  0
  185.5510  177.9110  138.6880 C   0  0  0  0  0  3  0  0  0  0  0  0
  182.2160  176.5160  138.3820 C   0  0  0  0  0  0  0  0  0  0  0  0
  181.2800  176.0360  137.6900 O   0  0  0  0  0  0  0  0  0  0  0  0
  185.2360  177.4410  136.3280 C   0  0  0  0  0  0  0  0  0  0  0  0
  185.8910  177.5300  135.0800 N   0  0  0  0  0  2  0  0  0  0  0  0
  182.1690  176.6990  139.8620 C   0  0  0  0  0  2  0  0  0  0  0  0
  187.1830  178.1750  135.3070 C   0  0  1  0  0  3  0  0  0  0  0  0
  183.9410  176.9510  136.5370 C   0  0  0  0  0  3  0  0  0  0  0  0
  189.4290  178.2120  138.2360 C   0  0  0  0  0  3  0  0  0  0  0  0
  188.4680  177.5410  137.4710 C   0  0  0  0  0  0  0  0  0  0  0  0
  189.6280  175.4440  137.8760 C   0  0  0  0  0  3  0  0  0  0  0  0
  188.5740  176.1500  137.2900 C   0  0  0  0  0  3  0  0  0  0  0  0
  190.5820  176.1200  138.6410 C   0  0  0  0  0  3  0  0  0  0  0  0
  190.4830  177.5030  138.8210 C   0  0  0  0  0  3  0  0  0  0  0  0
  183.3540  178.6910  140.8380 C   0  0  0  0  0  2  0  0  0  0  0  0
  183.4870  178.6090  142.3490 C   0  0  0  0  0  2  0  0  0  0  0  0
  185.0540  178.1260  144.2630 C   0  0  1  0  0  3  0  0  0  0  0  0
  187.7950  177.0770  142.8100 C   0  0  2  0  0  3  0  0  0  0  0  0
  188.0350  178.0550  141.6460 C   0  0  1  0  0  3  0  0  0  0  0  0
  186.2860  177.7140  146.2540 C   0  0  0  0  0  2  0  0  0  0  0  0
  185.0000  179.4200  145.0490 C   0  0  0  0  0  2  0  0  0  0  0  0
  186.7350  178.6290  141.0800 C   0  0  0  0  0  2  0  0  0  0  0  0
  187.5770  177.7580  144.1630 C   0  0  0  0  0  2  0  0  0  0  0  0
  184.9150  178.2640  142.7370 C   0  0  2  0  0  3  0  0  0  0  0  0
  189.0220  179.1670  141.9750 C   0  0  0  0  0  1  0  0  0  0  0  0
  185.8650  179.2950  142.1420 C   0  0  0  0  0  2  0  0  0  0  0  0
  186.2490  177.3370  144.7870 C   0  0  2  0  0  3  0  0  0  0  0  0
  185.6840  179.1100  146.3710 C   0  0  0  0  0  2  0  0  0  0  0  0
  188.7880  176.0000  142.8700 N   0  0  0  0  0  2  0  0  0  0  0  0
  189.8230  176.2940  143.8570 C   0  0  0  0  0  2  0  0  0  0  0  0
  191.1440  176.5380  143.1540 C   0  0  0  0  0  1  0  0  0  0  0  0
  1  2  1  0  0  0  0
  2 21  1  6  0  0  0
  3  5  1  0  0  0  0
  3 16  1  1  0  0  0
  5  7  2  0  0  0  0
  6  8  1  0  0  0  0
  6  1  2  0  0  0  0
  7  1  1  0  0  0  0
  8 12  1  0  0  0  0
  9  8  2  0  0  0  0
 10 14  2  0  0  0  0
 10  5  1  0  0  0  0
 11 13  1  0  0  0  0
 11 10  1  0  0  0  0
 12  2  1  0  0  0  0
 13  4  1  1  0  0  0
 13  3  1  0  0  0  0
 14  6  1  0  0  0  0
 15 20  1  0  0  0  0
 16 15  2  0  0  0  0
 17 19  1  0  0  0  0
 18 16  1  0  0  0  0
 18 17  2  0  0  0  0
 19 20  2  0  0  0  0
 21 22  1  0  0  0  0
 23 33  1  0  0  0  0
 23 27  1  1  0  0  0
 24 35  1  1  0  0  0
 24 29  1  0  0  0  0
 25 31  1  1  0  0  0
 25 24  1  0  0  0  0
 26 34  1  0  0  0  0
 27 34  1  0  0  0  0
 28 25  1  0  0  0  0
 28 32  1  0  0  0  0
 30 22  1  1  0  0  0
 30 23  1  0  0  0  0
 32 30  1  0  0  0  0
 33 29  1  6  0  0  0
 33 26  1  0  0  0  0
 35 36  1  0  0  0  0
 37 36  1  0  0  0  0
M  END
>  <MODEL>
2

>  <REMARK>
 VINA RESULT:      -7.9      2.513      7.097
  Name = 
  6 active torsions:
  status: ('A' for Active; 'I' for Inactive)
    1  A    between atoms: C_2  and  N_7
    2  A    between atoms: C_4  and  C_28
    3  A    between atoms: C_4  and  C_37
    4  A    between atoms: C_5  and  C_37
    5  A    between atoms: N_7  and  C_9
    6  A    between atoms: C_8  and  C_11
                            x       y       z     vdW  Elec       q    Type
                         _______ _______ _______ _____ _____    ______ ____

>  <TORSDO>
F 6

$$$$
=
 OpenBabel11062412293D

 37 42  0  0  1  0  0  0  0  0999 V2000
  187.7890  177.7900  141.3340 C   0  0  0  0  0  0  0  0  0  0  0  0
  188.7190  177.4930  140.1990 C   0  0  2  0  0  3  0  0  0  0  0  0
  184.5380  179.2860  142.6820 C   0  0  2  0  0  3  0  0  0  0  0  0
  183.0160  178.6490  144.7120 C   0  0  0  0  0  1  0  0  0  0  0  0
  185.8520  178.6180  142.4650 C   0  0  0  0  0  0  0  0  0  0  0  0
  188.2440  177.2630  142.5270 C   0  0  0  0  0  0  0  0  0  0  0  0
  186.5700  178.4820  141.2670 C   0  0  0  0  0  3  0  0  0  0  0  0
  189.4950  176.5940  142.2880 C   0  0  0  0  0  0  0  0  0  0  0  0
  190.1790  176.0090  143.1680 O   0  0  0  0  0  0  0  0  0  0  0  0
  186.3200  178.0950  143.6510 C   0  0  0  0  0  0  0  0  0  0  0  0
  185.4510  178.3550  144.7340 N   0  0  0  0  0  2  0  0  0  0  0  0
  189.8700  176.6870  140.8460 C   0  0  0  0  0  2  0  0  0  0  0  0
  184.3570  179.1840  144.2300 C   0  0  1  0  0  3  0  0  0  0  0  0
  187.5310  177.3960  143.7250 C   0  0  0  0  0  3  0  0  0  0  0  0
  183.7950  177.6630  140.9260 C   0  0  0  0  0  3  0  0  0  0  0  0
  183.4480  178.6460  141.8590 C   0  0  0  0  0  0  0  0  0  0  0  0
  181.1150  178.4100  141.2200 C   0  0  0  0  0  3  0  0  0  0  0  0
  182.1000  179.0200  142.0010 C   0  0  0  0  0  3  0  0  0  0  0  0
  181.4690  177.4260  140.2930 C   0  0  0  0  0  3  0  0  0  0  0  0
  182.8090  177.0530  140.1450 C   0  0  0  0  0  3  0  0  0  0  0  0
  189.2550  178.7870  139.6060 C   0  0  0  0  0  2  0  0  0  0  0  0
  189.4110  178.6480  138.1020 C   0  0  0  0  0  2  0  0  0  0  0  0
  189.2120  176.5320  136.7480 C   0  0  1  0  0  3  0  0  0  0  0  0
  186.1270  175.5520  137.2400 C   0  0  2  0  0  3  0  0  0  0  0  0
  185.2710  176.8230  137.0960 C   0  0  1  0  0  3  0  0  0  0  0  0
  189.3320  174.5560  135.4310 C   0  0  0  0  0  2  0  0  0  0  0  0
  189.7120  176.9790  135.3890 C   0  0  0  0  0  2  0  0  0  0  0  0
  186.0200  178.0890  137.5160 C   0  0  0  0  0  2  0  0  0  0  0  0
  187.0800  175.3050  136.0690 C   0  0  0  0  0  2  0  0  0  0  0  0
  188.4570  177.5940  137.5650 C   0  0  2  0  0  3  0  0  0  0  0  0
  184.6530  176.9910  135.7140 C   0  0  0  0  0  1  0  0  0  0  0  0
  187.3430  178.2720  136.7800 C   0  0  0  0  0  2  0  0  0  0  0  0
  188.5250  175.1850  136.5480 C   0  0  2  0  0  3  0  0  0  0  0  0
  189.9020  175.6970  134.5940 C   0  0  0  0  0  2  0  0  0  0  0  0
  185.3390  174.3660  137.5910 N   0  0  0  0  0  2  0  0  0  0  0  0
  185.1210  173.5160  136.4250 C   0  0  0  0  0  2  0  0  0  0  0  0
  184.4740  172.2140  136.8560 C   0  0  0  0  0  1  0  0  0  0  0  0
  1  6  1  0  0  0  0
  2 21  1  1  0  0  0
  2 12  1  0  0  0  0
  2  1  1  0  0  0  0
  3 16  1  6  0  0  0
  3 13  1  0  0  0  0
  5  3  1  0  0  0  0
  5 10  2  0  0  0  0
  6 14  2  0  0  0  0
  7  1  2  0  0  0  0
  7  5  1  0  0  0  0
  8  6  1  0  0  0  0
  8  9  2  0  0  0  0
 10 14  1  0  0  0  0
 10 11  1  0  0  0  0
 12  8  1  0  0  0  0
 13  4  1  6  0  0  0
 13 11  1  0  0  0  0
 15 16  1  0  0  0  0
 16 18  2  0  0  0  0
 17 18  1  0  0  0  0
 19 17  2  0  0  0  0
 20 19  1  0  0  0  0
 20 15  2  0  0  0  0
 22 21  1  0  0  0  0
 23 27  1  6  0  0  0
 23 30  1  0  0  0  0
 24 35  1  6  0  0  0
 25 31  1  6  0  0  0
 25 24  1  0  0  0  0
 25 28  1  0  0  0  0
 29 33  1  0  0  0  0
 29 24  1  0  0  0  0
 30 22  1  6  0  0  0
 32 28  1  0  0  0  0
 32 30  1  0  0  0  0
 33 26  1  6  0  0  0
 33 23  1  0  0  0  0
 34 27  1  0  0  0  0
 34 26  1  0  0  0  0
 36 37  1  0  0  0  0
 36 35  1  0  0  0  0
M  END
>  <MODEL>
3

>  <REMARK>
 VINA RESULT:      -7.6      1.889      3.237
  Name = 
  6 active torsions:
  status: ('A' for Active; 'I' for Inactive)
    1  A    between atoms: C_2  and  N_7
    2  A    between atoms: C_4  and  C_28
    3  A    between atoms: C_4  and  C_37
    4  A    between atoms: C_5  and  C_37
    5  A    between atoms: N_7  and  C_9
    6  A    between atoms: C_8  and  C_11
                            x       y       z     vdW  Elec       q    Type
                         _______ _______ _______ _____ _____    ______ ____

>  <TORSDO>
F 6

$$$$
=
 OpenBabel11062412293D

 37 42  0  0  1  0  0  0  0  0999 V2000
  183.1140  177.3660  139.3150 C   0  0  0  0  0  0  0  0  0  0  0  0
  182.3340  178.0780  140.3770 C   0  0  2  0  0  3  0  0  0  0  0  0
  184.0230  174.1760  137.4140 C   0  0  2  0  0  3  0  0  0  0  0  0
  184.8260  173.7570  134.9590 C   0  0  0  0  0  1  0  0  0  0  0  0
  183.8790  175.5570  137.9520 C   0  0  0  0  0  0  0  0  0  0  0  0
  183.9020  178.2330  138.5830 C   0  0  0  0  0  0  0  0  0  0  0  0
  183.0760  175.9960  139.0160 C   0  0  0  0  0  3  0  0  0  0  0  0
  183.7210  179.5650  139.0970 C   0  0  0  0  0  0  0  0  0  0  0  0
  184.2990  180.5920  138.6560 O   0  0  0  0  0  0  0  0  0  0  0  0
  184.6680  176.4300  137.2350 C   0  0  0  0  0  0  0  0  0  0  0  0
  185.4040  175.7810  136.2190 N   0  0  0  0  0  2  0  0  0  0  0  0
  182.7480  179.5610  140.2290 C   0  0  0  0  0  2  0  0  0  0  0  0
  185.1330  174.3480  136.3280 C   0  0  1  0  0  3  0  0  0  0  0  0
  184.7060  177.8010  137.5210 C   0  0  0  0  0  3  0  0  0  0  0  0
  182.4350  172.2710  137.0690 C   0  0  0  0  0  3  0  0  0  0  0  0
  182.7070  173.6350  136.9140 C   0  0  0  0  0  0  0  0  0  0  0  0
  180.5480  173.9290  135.8380 C   0  0  0  0  0  3  0  0  0  0  0  0
  181.7570  174.4640  136.2930 C   0  0  0  0  0  3  0  0  0  0  0  0
  180.2820  172.5670  135.9990 C   0  0  0  0  0  3  0  0  0  0  0  0
  181.2260  171.7380  136.6140 C   0  0  0  0  0  3  0  0  0  0  0  0
  182.7270  177.5600  141.7530 C   0  0  0  0  0  2  0  0  0  0  0  0
  183.3930  178.6630  142.5560 C   0  0  0  0  0  2  0  0  0  0  0  0
  185.0510  178.1740  144.3900 C   0  0  1  0  0  3  0  0  0  0  0  0
  187.6860  177.0450  142.8090 C   0  0  2  0  0  3  0  0  0  0  0  0
  187.8830  178.0000  141.6180 C   0  0  1  0  0  3  0  0  0  0  0  0
  186.3810  177.7650  146.3180 C   0  0  0  0  0  2  0  0  0  0  0  0
  185.0670  179.4810  145.1580 C   0  0  0  0  0  2  0  0  0  0  0  0
  186.5670  178.5940  141.1140 C   0  0  0  0  0  2  0  0  0  0  0  0
  187.5560  177.7510  144.1600 C   0  0  0  0  0  2  0  0  0  0  0  0
  184.8330  178.2930  142.8720 C   0  0  2  0  0  3  0  0  0  0  0  0
  188.9100  179.0950  141.8750 C   0  0  0  0  0  1  0  0  0  0  0  0
  185.7700  179.2940  142.2100 C   0  0  0  0  0  2  0  0  0  0  0  0
  186.2560  177.3670  144.8610 C   0  0  2  0  0  3  0  0  0  0  0  0
  185.8150  179.1760  146.4460 C   0  0  0  0  0  2  0  0  0  0  0  0
  188.6590  175.9480  142.8320 N   0  0  0  0  0  2  0  0  0  0  0  0
  189.6700  176.1620  143.8630 C   0  0  0  0  0  2  0  0  0  0  0  0
  191.0400  176.2610  143.2220 C   0  0  0  0  0  1  0  0  0  0  0  0
  1  2  1  0  0  0  0
  2 21  1  1  0  0  0
  3 16  1  6  0  0  0
  3  5  1  0  0  0  0
  5  7  2  0  0  0  0
  6  8  1  0  0  0  0
  6  1  2  0  0  0  0
  7  1  1  0  0  0  0
  8 12  1  0  0  0  0
  9  8  2  0  0  0  0
 10 14  2  0  0  0  0
 10  5  1  0  0  0  0
 11 13  1  0  0  0  0
 11 10  1  0  0  0  0
 12  2  1  0  0  0  0
 13  4  1  6  0  0  0
 13  3  1  0  0  0  0
 14  6  1  0  0  0  0
 16 15  1  0  0  0  0
 17 19  2  0  0  0  0
 17 18  1  0  0  0  0
 18 16  2  0  0  0  0
 19 20  1  0  0  0  0
 20 15  2  0  0  0  0
 21 22  1  0  0  0  0
 23 33  1  0  0  0  0
 23 27  1  6  0  0  0
 24 35  1  1  0  0  0
 24 29  1  0  0  0  0
 25 31  1  1  0  0  0
 25 24  1  0  0  0  0
 26 34  1  0  0  0  0
 27 34  1  0  0  0  0
 28 25  1  0  0  0  0
 28 32  1  0  0  0  0
 30 22  1  1  0  0  0
 30 23  1  0  0  0  0
 32 30  1  0  0  0  0
 33 29  1  6  0  0  0
 33 26  1  0  0  0  0
 35 36  1  0  0  0  0
 37 36  1  0  0  0  0
M  END
>  <MODEL>
4

>  <REMARK>
 VINA RESULT:      -7.5      3.041      6.648
  Name = 
  6 active torsions:
  status: ('A' for Active; 'I' for Inactive)
    1  A    between atoms: C_2  and  N_7
    2  A    between atoms: C_4  and  C_28
    3  A    between atoms: C_4  and  C_37
    4  A    between atoms: C_5  and  C_37
    5  A    between atoms: N_7  and  C_9
    6  A    between atoms: C_8  and  C_11
                            x       y       z     vdW  Elec       q    Type
                         _______ _______ _______ _____ _____    ______ ____

>  <TORSDO>
F 6

$$$$
=
 OpenBabel11062412293D

 37 42  0  0  1  0  0  0  0  0999 V2000
  187.0110  177.7040  142.5590 C   0  0  0  0  0  0  0  0  0  0  0  0
  188.2790  177.2110  141.9330 C   0  0  2  0  0  3  0  0  0  0  0  0
  183.5010  179.1920  142.2650 C   0  0  2  0  0  3  0  0  0  0  0  0
  181.3610  178.9620  143.7500 C   0  0  0  0  0  1  0  0  0  0  0  0
  184.8050  178.6130  142.6960 C   0  0  0  0  0  0  0  0  0  0  0  0
  187.0160  177.5450  143.9310 C   0  0  0  0  0  0  0  0  0  0  0  0
  185.8970  178.2410  141.8980 C   0  0  0  0  0  3  0  0  0  0  0  0
  188.2680  176.9530  144.3230 C   0  0  0  0  0  0  0  0  0  0  0  0
  188.5970  176.6790  145.5060 O   0  0  0  0  0  0  0  0  0  0  0  0
  184.8240  178.4580  144.0650 C   0  0  0  0  0  0  0  0  0  0  0  0
  183.6320  178.9060  144.6750 N   0  0  0  0  0  2  0  0  0  0  0  0
  189.1250  176.7070  143.1260 C   0  0  0  0  0  2  0  0  0  0  0  0
  182.7880  179.4750  143.6250 C   0  0  1  0  0  3  0  0  0  0  0  0
  185.9290  177.9140  144.7330 C   0  0  0  0  0  3  0  0  0  0  0  0
  181.3920  178.4520  141.1340 C   0  0  0  0  0  3  0  0  0  0  0  0
  182.7660  178.2650  141.3280 C   0  0  0  0  0  0  0  0  0  0  0  0
  182.7120  176.3780  139.7990 C   0  0  0  0  0  3  0  0  0  0  0  0
  183.4240  177.2200  140.6570 C   0  0  0  0  0  3  0  0  0  0  0  0
  181.3410  176.5720  139.6080 C   0  0  0  0  0  3  0  0  0  0  0  0
  180.6820  177.6090  140.2750 C   0  0  0  0  0  3  0  0  0  0  0  0
  188.9940  178.3520  141.2280 C   0  0  0  0  0  2  0  0  0  0  0  0
  190.0680  177.8050  140.3040 C   0  0  0  0  0  2  0  0  0  0  0  0
  190.4090  176.1050  138.4760 C   0  0  1  0  0  3  0  0  0  0  0  0
  187.4330  175.7350  137.1590 C   0  0  2  0  0  3  0  0  0  0  0  0
  186.8820  177.1640  137.0000 C   0  0  1  0  0  3  0  0  0  0  0  0
  191.0150  174.4610  136.8680 C   0  0  0  0  0  2  0  0  0  0  0  0
  191.5670  176.7010  137.7020 C   0  0  0  0  0  2  0  0  0  0  0  0
  187.4160  178.1250  138.0630 C   0  0  0  0  0  2  0  0  0  0  0  0
  188.8260  175.5330  136.5580 C   0  0  0  0  0  2  0  0  0  0  0  0
  189.4350  177.1150  139.1070 C   0  0  2  0  0  3  0  0  0  0  0  0
  187.0710  177.7400  135.6020 C   0  0  0  0  0  1  0  0  0  0  0  0
  188.9390  178.1630  138.1210 C   0  0  0  0  0  2  0  0  0  0  0  0
  189.8080  175.0080  137.6020 C   0  0  2  0  0  3  0  0  0  0  0  0
  192.0260  175.5980  136.7610 C   0  0  0  0  0  2  0  0  0  0  0  0
  186.4790  174.7020  136.7440 N   0  0  0  0  0  2  0  0  0  0  0  0
  185.1260  175.0280  137.1850 C   0  0  0  0  0  2  0  0  0  0  0  0
  184.4230  173.7670  137.6480 C   0  0  0  0  0  1  0  0  0  0  0  0
  1  6  1  0  0  0  0
  2 21  1  1  0  0  0
  2  1  1  0  0  0  0
  2 12  1  0  0  0  0
  3 16  1  6  0  0  0
  3  5  1  0  0  0  0
  3 13  1  0  0  0  0
  5 10  2  0  0  0  0
  6  8  1  0  0  0  0
  6 14  2  0  0  0  0
  7  1  2  0  0  0  0
  7  5  1  0  0  0  0
  8  9  2  0  0  0  0
 10 11  1  0  0  0  0
 10 14  1  0  0  0  0
 12  8  1  0  0  0  0
 13  4  1  6  0  0  0
 13 11  1  0  0  0  0
 15 16  1  0  0  0  0
 17 18  1  0  0  0  0
 18 16  2  0  0  0  0
 19 17  2  0  0  0  0
 19 20  1  0  0  0  0
 20 15  2  0  0  0  0
 22 21  1  0  0  0  0
 23 27  1  6  0  0  0
 23 30  1  0  0  0  0
 24 35  1  6  0  0  0
 25 31  1  6  0  0  0
 25 24  1  0  0  0  0
 25 28  1  0  0  0  0
 26 33  1  0  0  0  0
 28 32  1  0  0  0  0
 29 24  1  0  0  0  0
 30 22  1  1  0  0  0
 32 30  1  0  0  0  0
 33 29  1  6  0  0  0
 33 23  1  0  0  0  0
 34 26  1  0  0  0  0
 34 27  1  0  0  0  0
 35 36  1  0  0  0  0
 36 37  1  0  0  0  0
M  END
>  <MODEL>
5

>  <REMARK>
 VINA RESULT:      -7.4      1.321      1.765
  Name = 
  6 active torsions:
  status: ('A' for Active; 'I' for Inactive)
    1  A    between atoms: C_2  and  N_7
    2  A    between atoms: C_4  and  C_28
    3  A    between atoms: C_4  and  C_37
    4  A    between atoms: C_5  and  C_37
    5  A    between atoms: N_7  and  C_9
    6  A    between atoms: C_8  and  C_11
                            x       y       z     vdW  Elec       q    Type
                         _______ _______ _______ _____ _____    ______ ____

>  <TORSDO>
F 6

$$$$
=
 OpenBabel11062412293D

 37 42  0  0  1  0  0  0  0  0999 V2000
  181.9640  178.7970  142.1510 C   0  0  0  0  0  0  0  0  0  0  0  0
  182.2390  178.4840  143.5890 C   0  0  2  0  0  3  0  0  0  0  0  0
  182.9870  178.7360  138.4670 C   0  0  2  0  0  3  0  0  0  0  0  0
  181.5950  178.6290  136.2550 C   0  0  0  0  0  1  0  0  0  0  0  0
  182.3210  178.9010  139.7890 C   0  0  0  0  0  0  0  0  0  0  0  0
  180.7180  179.3660  141.9740 C   0  0  0  0  0  0  0  0  0  0  0  0
  182.8040  178.5420  141.0570 C   0  0  0  0  0  3  0  0  0  0  0  0
  180.0790  179.4840  143.2580 C   0  0  0  0  0  0  0  0  0  0  0  0
  178.9320  179.9670  143.4500 O   0  0  0  0  0  0  0  0  0  0  0  0
  181.0790  179.4760  139.6260 C   0  0  0  0  0  0  0  0  0  0  0  0
  180.7950  179.7690  138.2740 N   0  0  0  0  0  2  0  0  0  0  0  0
  180.9650  178.9500  144.3340 C   0  0  0  0  0  2  0  0  0  0  0  0
  181.9820  179.4270  137.4910 C   0  0  1  0  0  3  0  0  0  0  0  0
  180.2300  179.7260  140.7110 C   0  0  0  0  0  3  0  0  0  0  0  0
  184.4710  176.9620  137.5080 C   0  0  0  0  0  3  0  0  0  0  0  0
  183.2830  177.2860  138.1720 C   0  0  0  0  0  0  0  0  0  0  0  0
  182.6960  174.9300  138.2470 C   0  0  0  0  0  3  0  0  0  0  0  0
  182.3930  176.2620  138.5390 C   0  0  0  0  0  3  0  0  0  0  0  0
  183.8860  174.6120  137.5870 C   0  0  0  0  0  3  0  0  0  0  0  0
  184.7730  175.6280  137.2170 C   0  0  0  0  0  3  0  0  0  0  0  0
  183.4470  179.2690  144.0760 C   0  0  0  0  0  2  0  0  0  0  0  0
  184.1070  178.5460  145.2370 C   0  0  0  0  0  2  0  0  0  0  0  0
  186.3470  177.7740  146.0950 C   0  0  1  0  0  3  0  0  0  0  0  0
  187.9170  176.7320  143.4170 C   0  0  2  0  0  3  0  0  0  0  0  0
  187.6600  177.8130  142.3520 C   0  0  1  0  0  3  0  0  0  0  0  0
  188.3410  177.0820  147.1900 C   0  0  0  0  0  2  0  0  0  0  0  0
  186.8130  178.9770  146.8890 C   0  0  0  0  0  2  0  0  0  0  0  0
  186.3150  178.5180  142.5380 C   0  0  0  0  0  2  0  0  0  0  0  0
  188.4530  177.2760  144.7430 C   0  0  0  0  0  2  0  0  0  0  0  0
  185.5010  178.0810  144.8480 C   0  0  2  0  0  3  0  0  0  0  0  0
  188.7900  178.8260  142.2240 C   0  0  0  0  0  1  0  0  0  0  0  0
  186.1420  179.1140  143.9310 C   0  0  0  0  0  2  0  0  0  0  0  0
  187.5590  176.8660  145.9100 C   0  0  2  0  0  3  0  0  0  0  0  0
  188.0170  178.4900  147.6800 C   0  0  0  0  0  2  0  0  0  0  0  0
  188.6990  175.6010  142.9100 N   0  0  0  0  0  2  0  0  0  0  0  0
  190.0720  175.6460  143.4050 C   0  0  0  0  0  2  0  0  0  0  0  0
  190.9570  176.3450  142.3920 C   0  0  0  0  0  1  0  0  0  0  0  0
  1  2  1  0  0  0  0
  2 21  1  1  0  0  0
  2 12  1  0  0  0  0
  3 16  1  6  0  0  0
  3  5  1  0  0  0  0
  5  7  1  0  0  0  0
  6  1  1  0  0  0  0
  6  8  1  0  0  0  0
  7  1  2  0  0  0  0
  8  9  2  0  0  0  0
  8 12  1  0  0  0  0
 10  5  2  0  0  0  0
 10 14  1  0  0  0  0
 11 10  1  0  0  0  0
 13  4  1  6  0  0  0
 13 11  1  0  0  0  0
 13  3  1  0  0  0  0
 14  6  2  0  0  0  0
 15 16  1  0  0  0  0
 16 18  2  0  0  0  0
 17 18  1  0  0  0  0
 19 17  2  0  0  0  0
 20 15  2  0  0  0  0
 20 19  1  0  0  0  0
 21 22  1  0  0  0  0
 23 27  1  6  0  0  0
 24 35  1  6  0  0  0
 24 29  1  0  0  0  0
 25 31  1  1  0  0  0
 25 28  1  0  0  0  0
 25 24  1  0  0  0  0
 26 34  1  0  0  0  0
 27 34  1  0  0  0  0
 28 32  1  0  0  0  0
 30 22  1  1  0  0  0
 30 23  1  0  0  0  0
 32 30  1  0  0  0  0
 33 29  1  6  0  0  0
 33 23  1  0  0  0  0
 33 26  1  0  0  0  0
 35 36  1  0  0  0  0
 37 36  1  0  0  0  0
M  END
>  <MODEL>
6

>  <REMARK>
 VINA RESULT:      -7.3      2.978      5.911
  Name = 
  6 active torsions:
  status: ('A' for Active; 'I' for Inactive)
    1  A    between atoms: C_2  and  N_7
    2  A    between atoms: C_4  and  C_28
    3  A    between atoms: C_4  and  C_37
    4  A    between atoms: C_5  and  C_37
    5  A    between atoms: N_7  and  C_9
    6  A    between atoms: C_8  and  C_11
                            x       y       z     vdW  Elec       q    Type
                         _______ _______ _______ _____ _____    ______ ____

>  <TORSDO>
F 6

$$$$
=
 OpenBabel11062412293D

 37 42  0  0  1  0  0  0  0  0999 V2000
  189.5440  177.2750  140.0780 C   0  0  0  0  0  0  0  0  0  0  0  0
  190.6120  177.0080  139.0630 C   0  0  2  0  0  3  0  0  0  0  0  0
  188.0040  176.7110  143.5320 C   0  0  2  0  0  3  0  0  0  0  0  0
  186.5590  178.2390  145.0870 C   0  0  0  0  0  1  0  0  0  0  0  0
  188.3550  177.1320  142.1470 C   0  0  0  0  0  0  0  0  0  0  0  0
  188.6350  178.2160  139.6360 C   0  0  0  0  0  0  0  0  0  0  0  0
  189.4320  176.7070  141.3550 C   0  0  0  0  0  3  0  0  0  0  0  0
  189.0110  178.6350  138.3120 C   0  0  0  0  0  0  0  0  0  0  0  0
  188.3890  179.4820  137.6190 O   0  0  0  0  0  0  0  0  0  0  0  0
  187.4490  178.0650  141.6910 C   0  0  0  0  0  0  0  0  0  0  0  0
  186.4380  178.3420  142.6390 N   0  0  0  0  0  2  0  0  0  0  0  0
  190.2490  177.9260  137.8720 C   0  0  0  0  0  2  0  0  0  0  0  0
  186.6560  177.4580  143.7840 C   0  0  1  0  0  3  0  0  0  0  0  0
  187.5570  178.6450  140.4210 C   0  0  0  0  0  3  0  0  0  0  0  0
  188.9140  176.7550  145.8640 C   0  0  0  0  0  3  0  0  0  0  0  0
  189.1120  177.0260  144.5050 C   0  0  0  0  0  0  0  0  0  0  0  0
  191.3310  177.8760  145.0110 C   0  0  0  0  0  3  0  0  0  0  0  0
  190.3270  177.5920  144.0820 C   0  0  0  0  0  3  0  0  0  0  0  0
  191.1290  177.5980  146.3660 C   0  0  0  0  0  3  0  0  0  0  0  0
  189.9200  177.0390  146.7920 C   0  0  0  0  0  3  0  0  0  0  0  0
  190.5730  175.5500  138.6320 C   0  0  0  0  0  2  0  0  0  0  0  0
  190.2610  175.4510  137.1490 C   0  0  0  0  0  2  0  0  0  0  0  0
  189.0280  173.3730  136.4380 C   0  0  1  0  0  3  0  0  0  0  0  0
  185.9060  173.9870  137.2140 C   0  0  2  0  0  3  0  0  0  0  0  0
  185.6460  175.4260  136.7310 C   0  0  1  0  0  3  0  0  0  0  0  0
  188.1430  171.2850  135.7200 C   0  0  0  0  0  2  0  0  0  0  0  0
  189.4870  173.2080  135.0030 C   0  0  0  0  0  2  0  0  0  0  0  0
  186.9000  176.3000  136.7750 C   0  0  0  0  0  2  0  0  0  0  0  0
  186.5100  173.0710  136.1480 C   0  0  0  0  0  2  0  0  0  0  0  0
  188.8950  174.8220  136.9360 C   0  0  2  0  0  3  0  0  0  0  0  0
  184.9800  175.5010  135.3630 C   0  0  0  0  0  1  0  0  0  0  0  0
  188.0710  175.7010  136.0040 C   0  0  0  0  0  2  0  0  0  0  0  0
  187.8230  172.4560  136.6270 C   0  0  2  0  0  3  0  0  0  0  0  0
  189.0220  171.8200  134.5940 C   0  0  0  0  0  2  0  0  0  0  0  0
  184.7490  173.3900  137.8880 N   0  0  0  0  0  2  0  0  0  0  0  0
  184.3160  172.1730  137.2090 C   0  0  0  0  0  2  0  0  0  0  0  0
  182.8460  172.2820  136.8530 C   0  0  0  0  0  1  0  0  0  0  0  0
  1  7  1  0  0  0  0
  2 21  1  6  0  0  0
  2  1  1  0  0  0  0
  3 13  1  0  0  0  0
  3 16  1  1  0  0  0
  5  3  1  0  0  0  0
  6  1  2  0  0  0  0
  6 14  1  0  0  0  0
  7  5  2  0  0  0  0
  8  6  1  0  0  0  0
  9  8  2  0  0  0  0
 10  5  1  0  0  0  0
 10 11  1  0  0  0  0
 11 13  1  0  0  0  0
 12  8  1  0  0  0  0
 12  2  1  0  0  0  0
 13  4  1  1  0  0  0
 14 10  2  0  0  0  0
 15 20  1  0  0  0  0
 16 15  2  0  0  0  0
 17 19  1  0  0  0  0
 18 16  1  0  0  0  0
 18 17  2  0  0  0  0
 19 20  2  0  0  0  0
 22 21  1  0  0  0  0
 23 27  1  6  0  0  0
 23 33  1  0  0  0  0
 23 30  1  0  0  0  0
 24 35  1  6  0  0  0
 25 31  1  6  0  0  0
 25 28  1  0  0  0  0
 25 24  1  0  0  0  0
 29 33  1  0  0  0  0
 29 24  1  0  0  0  0
 30 22  1  6  0  0  0
 32 28  1  0  0  0  0
 32 30  1  0  0  0  0
 33 26  1  6  0  0  0
 34 27  1  0  0  0  0
 34 26  1  0  0  0  0
 36 35  1  0  0  0  0
 37 36  1  0  0  0  0
M  END
>  <MODEL>
7

>  <REMARK>
 VINA RESULT:      -7.3      3.133      6.298
  Name = 
  6 active torsions:
  status: ('A' for Active; 'I' for Inactive)
    1  A    between atoms: C_2  and  N_7
    2  A    between atoms: C_4  and  C_28
    3  A    between atoms: C_4  and  C_37
    4  A    between atoms: C_5  and  C_37
    5  A    between atoms: N_7  and  C_9
    6  A    between atoms: C_8  and  C_11
                            x       y       z     vdW  Elec       q    Type
                         _______ _______ _______ _____ _____    ______ ____

>  <TORSDO>
F 6

$$$$
=
 OpenBabel11062412293D

 37 42  0  0  1  0  0  0  0  0999 V2000
  183.6770  178.1900  141.3940 C   0  0  0  0  0  0  0  0  0  0  0  0
  184.4360  177.9430  142.6620 C   0  0  2  0  0  3  0  0  0  0  0  0
  183.3320  177.8940  137.5980 C   0  0  2  0  0  3  0  0  0  0  0  0
  181.2480  177.7240  136.0270 C   0  0  0  0  0  1  0  0  0  0  0  0
  183.1790  178.1550  139.0570 C   0  0  0  0  0  0  0  0  0  0  0  0
  182.4580  178.7960  141.6310 C   0  0  0  0  0  0  0  0  0  0  0  0
  184.0720  177.8450  140.0930 C   0  0  0  0  0  3  0  0  0  0  0  0
  182.3160  179.0070  143.0480 C   0  0  0  0  0  0  0  0  0  0  0  0
  181.3200  179.5440  143.5990 O   0  0  0  0  0  0  0  0  0  0  0  0
  181.9700  178.7680  139.3040 C   0  0  0  0  0  0  0  0  0  0  0  0
  181.2320  179.0000  138.1220 N   0  0  0  0  0  2  0  0  0  0  0  0
  183.5150  178.4970  143.7750 C   0  0  0  0  0  2  0  0  0  0  0  0
  182.0600  178.5710  136.9960 C   0  0  1  0  0  3  0  0  0  0  0  0
  181.5630  179.1080  140.6000 C   0  0  0  0  0  3  0  0  0  0  0  0
  184.5100  175.9980  136.4620 C   0  0  0  0  0  3  0  0  0  0  0  0
  183.4800  176.4210  137.3100 C   0  0  0  0  0  0  0  0  0  0  0  0
  182.7680  174.1120  137.5740 C   0  0  0  0  0  3  0  0  0  0  0  0
  182.6050  175.4700  137.8640 C   0  0  0  0  0  3  0  0  0  0  0  0
  183.8000  173.6970  136.7290 C   0  0  0  0  0  3  0  0  0  0  0  0
  184.6710  174.6400  136.1730 C   0  0  0  0  0  3  0  0  0  0  0  0
  185.7520  178.7050  142.6420 C   0  0  0  0  0  2  0  0  0  0  0  0
  186.8660  177.8390  143.2020 C   0  0  0  0  0  2  0  0  0  0  0  0
  189.3270  177.4540  142.8250 C   0  0  1  0  0  3  0  0  0  0  0  0
  189.5500  176.7550  139.6340 C   0  0  2  0  0  3  0  0  0  0  0  0
  188.6600  177.7960  138.9290 C   0  0  1  0  0  3  0  0  0  0  0  0
  191.6790  177.1010  142.7780 C   0  0  0  0  0  2  0  0  0  0  0  0
  189.9380  178.7050  143.4230 C   0  0  0  0  0  2  0  0  0  0  0  0
  187.4840  178.2500  139.7960 C   0  0  0  0  0  2  0  0  0  0  0  0
  190.5720  177.3600  140.5990 C   0  0  0  0  0  2  0  0  0  0  0  0
  187.9520  177.6330  142.1600 C   0  0  2  0  0  3  0  0  0  0  0  0
  189.4300  178.9930  138.3880 C   0  0  0  0  0  1  0  0  0  0  0  0
  187.9170  178.7790  141.1580 C   0  0  0  0  0  2  0  0  0  0  0  0
  190.4190  176.7770  142.0010 C   0  0  2  0  0  3  0  0  0  0  0  0
  191.4300  178.4210  143.5020 C   0  0  0  0  0  2  0  0  0  0  0  0
  190.1470  175.7890  138.7060 N   0  0  0  0  0  2  0  0  0  0  0  0
  191.5880  175.9910  138.5900 C   0  0  0  0  0  2  0  0  0  0  0  0
  191.9450  176.3050  137.1510 C   0  0  0  0  0  1  0  0  0  0  0  0
  1  6  1  0  0  0  0
  1  2  1  0  0  0  0
  2 21  1  6  0  0  0
  2 12  1  0  0  0  0
  3 16  1  1  0  0  0
  3  5  1  0  0  0  0
  5 10  2  0  0  0  0
  5  7  1  0  0  0  0
  6  8  1  0  0  0  0
  7  1  2  0  0  0  0
  8  9  2  0  0  0  0
  8 12  1  0  0  0  0
 10 14  1  0  0  0  0
 11 10  1  0  0  0  0
 13  4  1  6  0  0  0
 13  3  1  0  0  0  0
 13 11  1  0  0  0  0
 14  6  2  0  0  0  0
 15 16  1  0  0  0  0
 16 18  2  0  0  0  0
 17 18  1  0  0  0  0
 19 17  2  0  0  0  0
 20 15  2  0  0  0  0
 20 19  1  0  0  0  0
 21 22  1  0  0  0  0
 23 27  1  6  0  0  0
 24 35  1  6  0  0  0
 24 29  1  0  0  0  0
 25 31  1  1  0  0  0
 25 24  1  0  0  0  0
 25 28  1  0  0  0  0
 26 34  1  0  0  0  0
 27 34  1  0  0  0  0
 28 32  1  0  0  0  0
 30 23  1  0  0  0  0
 30 22  1  1  0  0  0
 32 30  1  0  0  0  0
 33 29  1  6  0  0  0
 33 26  1  0  0  0  0
 33 23  1  0  0  0  0
 36 35  1  0  0  0  0
 37 36  1  0  0  0  0
M  END
>  <MODEL>
8

>  <REMARK>
 VINA RESULT:      -7.3      1.884      3.847
  Name = 
  6 active torsions:
  status: ('A' for Active; 'I' for Inactive)
    1  A    between atoms: C_2  and  N_7
    2  A    between atoms: C_4  and  C_28
    3  A    between atoms: C_4  and  C_37
    4  A    between atoms: C_5  and  C_37
    5  A    between atoms: N_7  and  C_9
    6  A    between atoms: C_8  and  C_11
                            x       y       z     vdW  Elec       q    Type
                         _______ _______ _______ _____ _____    ______ ____

>  <TORSDO>
F 6

$$$$
=
 OpenBabel11062412293D

 37 42  0  0  1  0  0  0  0  0999 V2000
  182.3470  178.1270  140.0430 C   0  0  0  0  0  0  0  0  0  0  0  0
  182.1290  178.2310  141.5200 C   0  0  2  0  0  3  0  0  0  0  0  0
  184.3630  176.8720  137.0460 C   0  0  2  0  0  3  0  0  0  0  0  0
  183.6780  176.2490  134.5990 C   0  0  0  0  0  1  0  0  0  0  0  0
  183.3860  177.4880  137.9870 C   0  0  0  0  0  0  0  0  0  0  0  0
  181.3360  178.7370  139.3260 C   0  0  0  0  0  0  0  0  0  0  0  0
  183.4050  177.4770  139.3890 C   0  0  0  0  0  3  0  0  0  0  0  0
  180.3860  179.2950  140.2530 C   0  0  0  0  0  0  0  0  0  0  0  0
  179.3460  179.9240  139.9270 O   0  0  0  0  0  0  0  0  0  0  0  0
  182.3760  178.1080  137.2830 C   0  0  0  0  0  0  0  0  0  0  0  0
  182.5570  178.0110  135.8850 N   0  0  0  0  0  2  0  0  0  0  0  0
  180.8060  179.0210  141.6590 C   0  0  0  0  0  2  0  0  0  0  0  0
  183.8330  177.3370  135.6520 C   0  0  1  0  0  3  0  0  0  0  0  0
  181.3120  178.7520  137.9260 C   0  0  0  0  0  3  0  0  0  0  0  0
  185.7140  174.7710  137.2230 C   0  0  0  0  0  3  0  0  0  0  0  0
  184.4530  175.3780  137.2390 C   0  0  0  0  0  0  0  0  0  0  0  0
  183.4250  173.2060  137.5970 C   0  0  0  0  0  3  0  0  0  0  0  0
  183.3060  174.5880  137.4240 C   0  0  0  0  0  3  0  0  0  0  0  0
  184.6870  172.6060  137.5830 C   0  0  0  0  0  3  0  0  0  0  0  0
  185.8310  173.3880  137.3960 C   0  0  0  0  0  3  0  0  0  0  0  0
  183.2690  179.0020  142.1670 C   0  0  0  0  0  2  0  0  0  0  0  0
  183.6140  178.3930  143.5150 C   0  0  0  0  0  2  0  0  0  0  0  0
  185.5600  177.9660  145.0580 C   0  0  1  0  0  3  0  0  0  0  0  0
  187.9660  176.9900  143.0640 C   0  0  2  0  0  3  0  0  0  0  0  0
  187.9290  177.9680  141.8760 C   0  0  1  0  0  3  0  0  0  0  0  0
  187.1930  177.5990  146.7470 C   0  0  0  0  0  2  0  0  0  0  0  0
  185.6330  179.2610  145.8400 C   0  0  0  0  0  2  0  0  0  0  0  0
  186.5230  178.5020  141.5950 C   0  0  0  0  0  2  0  0  0  0  0  0
  188.0160  177.6710  144.4330 C   0  0  0  0  0  2  0  0  0  0  0  0
  185.1020  178.0920  143.5950 C   0  0  2  0  0  3  0  0  0  0  0  0
  188.9300  179.1100  141.9920 C   0  0  0  0  0  1  0  0  0  0  0  0
  185.8750  179.1470  142.8160 C   0  0  0  0  0  2  0  0  0  0  0  0
  186.8610  177.2140  145.3200 C   0  0  2  0  0  3  0  0  0  0  0  0
  186.5870  178.9780  146.9890 C   0  0  0  0  0  2  0  0  0  0  0  0
  188.9820  175.9430  142.9130 N   0  0  0  0  0  2  0  0  0  0  0  0
  190.1160  176.1780  143.8010 C   0  0  0  0  0  2  0  0  0  0  0  0
  191.3420  176.5320  142.9810 C   0  0  0  0  0  1  0  0  0  0  0  0
  1  2  1  0  0  0  0
  2 12  1  0  0  0  0
  2 21  1  1  0  0  0
  3 16  1  6  0  0  0
  3  5  1  0  0  0  0
  5  7  2  0  0  0  0
  6  1  2  0  0  0  0
  6  8  1  0  0  0  0
  7  1  1  0  0  0  0
  8 12  1  0  0  0  0
  9  8  2  0  0  0  0
 10 14  2  0  0  0  0
 10  5  1  0  0  0  0
 11 10  1  0  0  0  0
 13  4  1  6  0  0  0
 13 11  1  0  0  0  0
 13  3  1  0  0  0  0
 14  6  1  0  0  0  0
 15 16  2  0  0  0  0
 15 20  1  0  0  0  0
 16 18  1  0  0  0  0
 18 17  2  0  0  0  0
 19 17  1  0  0  0  0
 20 19  2  0  0  0  0
 21 22  1  0  0  0  0
 23 33  1  0  0  0  0
 23 27  1  6  0  0  0
 24 35  1  6  0  0  0
 24 29  1  0  0  0  0
 25 31  1  1  0  0  0
 25 24  1  0  0  0  0
 26 34  1  0  0  0  0
 27 34  1  0  0  0  0
 28 25  1  0  0  0  0
 28 32  1  0  0  0  0
 30 22  1  1  0  0  0
 30 23  1  0  0  0  0
 32 30  1  0  0  0  0
 33 29  1  6  0  0  0
 33 26  1  0  0  0  0
 35 36  1  0  0  0  0
 37 36  1  0  0  0  0
M  END
>  <MODEL>
9

>  <REMARK>
 VINA RESULT:      -7.3      3.198      6.482
  Name = 
  6 active torsions:
  status: ('A' for Active; 'I' for Inactive)
    1  A    between atoms: C_2  and  N_7
    2  A    between atoms: C_4  and  C_28
    3  A    between atoms: C_4  and  C_37
    4  A    between atoms: C_5  and  C_37
    5  A    between atoms: N_7  and  C_9
    6  A    between atoms: C_8  and  C_11
                            x       y       z     vdW  Elec       q    Type
                         _______ _______ _______ _____ _____    ______ ____

>  <TORSDO>
F 6

$$$$
