=
 OpenBabel11062417413D

 39 43  0  0  1  0  0  0  0  0999 V2000
  183.6050  178.6850  144.2560 C   0  0  0  0  0  3  0  0  0  0  0  0
  181.0880  179.2240  137.7940 C   0  0  0  0  0  0  0  0  0  0  0  0
  185.4360  178.3500  142.6860 C   0  0  0  0  0  0  0  0  0  0  0  0
  185.7870  177.9400  145.0570 C   0  0  0  0  0  0  0  0  0  0  0  0
  182.6410  179.0730  139.4800 C   0  0  2  0  0  0  0  0  0  0  0  0
  185.3750  177.8950  146.2480 O   0  0  0  0  0  0  0  0  0  0  0  0
  181.1310  177.9590  138.0160 N   0  0  0  0  0  0  0  0  0  0  0  0
  186.7360  178.0110  142.4590 N   0  0  0  0  0  0  0  0  0  0  0  0
  184.0730  179.1280  139.2000 N   0  0  0  0  0  2  0  0  0  0  0  0
  185.0300  178.8130  140.2120 C   0  0  0  0  0  0  0  0  0  0  0  0
  182.0900  177.6840  139.0760 C   0  0  2  0  0  3  0  0  0  0  0  0
  184.9360  178.3270  144.0110 C   0  0  0  0  0  0  0  0  0  0  0  0
  181.9400  180.0020  138.6110 N   0  0  0  0  0  2  0  0  0  0  0  0
  182.3740  179.3990  140.8490 O   0  0  0  0  0  0  0  0  0  0  0  0
  182.7670  179.0490  143.2030 C   0  0  0  0  0  3  0  0  0  0  0  0
  187.5800  177.6470  143.4610 C   0  0  0  0  0  0  0  0  0  0  0  0
  186.2390  178.6630  139.8920 O   0  0  0  0  0  0  0  0  0  0  0  0
  184.5820  178.7160  141.6190 C   0  0  0  0  0  0  0  0  0  0  0  0
  183.2440  179.0510  141.8900 C   0  0  0  0  0  0  0  0  0  0  0  0
  187.1080  177.5920  144.7790 C   0  0  0  0  0  2  0  0  0  0  0  0
  179.9440  176.7030  139.8820 C   0  0  0  0  0  1  0  0  0  0  0  0
  181.4060  176.9290  140.2140 C   0  0  0  0  0  2  0  0  0  0  0  0
  180.2160  179.8040  136.8130 C   0  0  0  0  0  0  0  0  0  0  0  0
  179.5110  180.2750  136.0260 N   0  0  0  0  0  0  0  0  0  0  0  0
  188.9830  177.2400  143.1190 C   0  0  1  0  0  3  0  0  0  0  0  0
  189.4280  177.8270  141.8610 N   0  0  0  0  0  2  0  0  0  0  0  0
  190.1850  176.8090  141.1500 C   0  0  0  0  0  2  0  0  0  0  0  0
  191.0250  177.4530  140.0570 C   0  0  0  0  0  2  0  0  0  0  0  0
  190.5840  176.9920  138.6750 C   0  0  1  0  0  3  0  0  0  0  0  0
  190.3700  175.6120  138.6690 O   0  0  0  0  0  1  0  0  0  0  0  0
  189.3270  177.6930  138.2870 C   0  0  0  0  0  0  0  0  0  0  0  0
  189.1560  179.0420  138.5770 O   0  0  0  0  0  1  0  0  0  0  0  0
  188.4180  177.0620  137.6880 O   0  0  0  0  0  0  0  0  0  0  0  0
  189.9100  177.5650  144.2060 N   0  0  0  0  0  0  0  0  0  0  0  0
  191.7230  175.9960  144.7240 C   0  0  0  0  0  2  0  0  0  0  0  0
  191.6560  177.0060  145.8450 C   0  0  0  0  0  2  0  0  0  0  0  0
  190.3760  176.5520  145.1610 C   0  0  0  0  0  3  0  0  0  0  0  0
  190.5650  178.8050  144.1500 C   0  0  0  0  0  0  0  0  0  0  0  0
  191.1050  179.8270  144.1030 N   0  0  0  0  0  0  0  0  0  0  0  0
  2  7  2  0  0  0  0
  2 13  1  0  0  0  0
  3 12  2  0  0  0  0
  4  6  2  0  0  0  0
  5 13  1  6  0  0  0
  5 14  1  0  0  0  0
  7 11  1  0  0  0  0
  8  3  1  0  0  0  0
  8 16  2  0  0  0  0
  9  5  1  0  0  0  0
  9 10  1  0  0  0  0
 10 18  1  0  0  0  0
 11  5  1  0  0  0  0
 11 22  1  1  0  0  0
 12  1  1  0  0  0  0
 12  4  1  0  0  0  0
 14 19  1  0  0  0  0
 15  1  2  0  0  0  0
 16 20  1  0  0  0  0
 17 10  2  0  0  0  0
 18 19  2  0  0  0  0
 18  3  1  0  0  0  0
 19 15  1  0  0  0  0
 20  4  1  0  0  0  0
 21 22  1  0  0  0  0
 23  2  1  0  0  0  0
 24 23  3  0  0  0  0
 25 26  1  6  0  0  0
 25 16  1  0  0  0  0
 25 34  1  0  0  0  0
 27 26  1  0  0  0  0
 28 27  1  0  0  0  0
 29 30  1  1  0  0  0
 29 28  1  0  0  0  0
 31 32  1  0  0  0  0
 31 29  1  0  0  0  0
 33 31  2  0  0  0  0
 34 37  1  0  0  0  0
 35 37  1  0  0  0  0
 35 36  1  0  0  0  0
 37 36  1  0  0  0  0
 38 34  1  0  0  0  0
 39 38  3  0  0  0  0
M  END
>  <MODEL>
1

>  <REMARK>
 VINA RESULT:      -7.8      0.000      0.000
  Name = 
  11 active torsions:
  status: ('A' for Active; 'I' for Inactive)
    1  A    between atoms: N_1  and  C_10
    2  A    between atoms: N_1  and  C_22
    3  A    between atoms: C_4  and  C_14
    4  A    between atoms: C_8  and  C_20
    5  A    between atoms: C_8  and  C_36
    6  A    between atoms: C_10  and  C_36
    7  A    between atoms: C_17  and  C_31
    8  A    between atoms: C_22  and  N_24
    9  A    between atoms: C_22  and  C_29
   10  A    between atoms: N_24  and  C_27
   11  A    between atoms: N_24  and  C_37
                            x       y       z     vdW  Elec       q    Type
                         _______ _______ _______ _____ _____    ______ ____

>  <TORSDO>
F 11

$$$$
=
 OpenBabel11062417413D

 39 43  0  0  1  0  0  0  0  0999 V2000
  188.5460  177.7270  137.1740 C   0  0  0  0  0  3  0  0  0  0  0  0
  194.9460  175.0840  136.5140 C   0  0  0  0  0  0  0  0  0  0  0  0
  189.5460  177.5710  139.3890 C   0  0  0  0  0  0  0  0  0  0  0  0
  187.1950  178.1480  139.1630 C   0  0  0  0  0  0  0  0  0  0  0  0
  193.1400  176.0910  137.5140 C   0  0  2  0  0  0  0  0  0  0  0  0
  186.1680  178.3640  138.4640 O   0  0  0  0  0  0  0  0  0  0  0  0
  194.2170  174.0780  136.8430 N   0  0  0  0  0  0  0  0  0  0  0  0
  189.4180  177.6720  140.7410 N   0  0  0  0  0  0  0  0  0  0  0  0
  193.2020  176.5640  138.8930 N   0  0  0  0  0  2  0  0  0  0  0  0
  192.0200  176.9840  139.5780 C   0  0  0  0  0  0  0  0  0  0  0  0
  193.0080  174.5480  137.5040 C   0  0  2  0  0  3  0  0  0  0  0  0
  188.4210  177.8180  138.5650 C   0  0  0  0  0  0  0  0  0  0  0  0
  194.4080  176.3460  136.8540 N   0  0  0  0  0  2  0  0  0  0  0  0
  192.0840  176.7410  136.7950 O   0  0  0  0  0  0  0  0  0  0  0  0
  189.7670  177.3800  136.5970 C   0  0  0  0  0  3  0  0  0  0  0  0
  188.2420  178.0040  141.3380 C   0  0  0  0  0  0  0  0  0  0  0  0
  192.0670  177.1850  140.8200 O   0  0  0  0  0  0  0  0  0  0  0  0
  190.7820  177.2140  138.8000 C   0  0  0  0  0  0  0  0  0  0  0  0
  190.8760  177.1100  137.4010 C   0  0  0  0  0  0  0  0  0  0  0  0
  187.1050  178.2320  140.5510 C   0  0  0  0  0  2  0  0  0  0  0  0
  192.1530  172.8570  135.8850 C   0  0  0  0  0  1  0  0  0  0  0  0
  191.7760  174.0310  136.7670 C   0  0  0  0  0  2  0  0  0  0  0  0
  196.1960  174.9360  135.8260 C   0  0  0  0  0  0  0  0  0  0  0  0
  197.2060  174.8150  135.2750 N   0  0  0  0  0  0  0  0  0  0  0  0
  188.1730  178.0460  142.8360 C   0  0  1  0  0  3  0  0  0  0  0  0
  187.0410  177.2850  143.3500 N   0  0  0  0  0  2  0  0  0  0  0  0
  186.3570  178.1250  144.3200 C   0  0  0  0  0  2  0  0  0  0  0  0
  186.4320  177.4910  145.7010 C   0  0  0  0  0  2  0  0  0  0  0  0
  186.9100  178.4900  146.7450 C   0  0  1  0  0  3  0  0  0  0  0  0
  185.8270  178.9900  147.4710 O   0  0  0  0  0  1  0  0  0  0  0  0
  187.8690  177.8270  147.6750 C   0  0  0  0  0  0  0  0  0  0  0  0
  188.0530  178.3190  148.9620 O   0  0  0  0  0  1  0  0  0  0  0  0
  188.5090  176.8130  147.2950 O   0  0  0  0  0  0  0  0  0  0  0  0
  189.4290  177.5910  143.4390 N   0  0  0  0  0  0  0  0  0  0  0  0
  191.6290  178.2050  144.3320 C   0  0  0  0  0  2  0  0  0  0  0  0
  190.9610  179.4710  143.8490 C   0  0  0  0  0  2  0  0  0  0  0  0
  190.1230  178.3670  144.4740 C   0  0  0  0  0  3  0  0  0  0  0  0
  189.8120  176.2600  143.2080 C   0  0  0  0  0  0  0  0  0  0  0  0
  190.1270  175.1640  143.0180 N   0  0  0  0  0  0  0  0  0  0  0  0
  1 12  1  0  0  0  0
  2  7  2  0  0  0  0
  2 13  1  0  0  0  0
  3  8  1  0  0  0  0
  4 20  1  0  0  0  0
  5 14  1  6  0  0  0
  5  9  1  0  0  0  0
  6  4  2  0  0  0  0
  7 11  1  0  0  0  0
  8 16  2  0  0  0  0
  9 10  1  0  0  0  0
 10 17  2  0  0  0  0
 11 22  1  6  0  0  0
 11  5  1  0  0  0  0
 12  4  1  0  0  0  0
 12  3  2  0  0  0  0
 13  5  1  0  0  0  0
 14 19  1  0  0  0  0
 15  1  2  0  0  0  0
 15 19  1  0  0  0  0
 16 25  1  0  0  0  0
 18  3  1  0  0  0  0
 18 10  1  0  0  0  0
 19 18  2  0  0  0  0
 20 16  1  0  0  0  0
 21 22  1  0  0  0  0
 23  2  1  0  0  0  0
 24 23  3  0  0  0  0
 25 26  1  1  0  0  0
 25 34  1  0  0  0  0
 26 27  1  0  0  0  0
 27 28  1  0  0  0  0
 28 29  1  0  0  0  0
 29 30  1  1  0  0  0
 29 31  1  0  0  0  0
 31 32  1  0  0  0  0
 33 31  2  0  0  0  0
 34 37  1  0  0  0  0
 35 37  1  0  0  0  0
 36 35  1  0  0  0  0
 36 37  1  0  0  0  0
 38 34  1  0  0  0  0
 39 38  3  0  0  0  0
M  END
>  <MODEL>
2

>  <REMARK>
 VINA RESULT:      -7.4      4.070      9.032
  Name = 
  11 active torsions:
  status: ('A' for Active; 'I' for Inactive)
    1  A    between atoms: N_1  and  C_10
    2  A    between atoms: N_1  and  C_22
    3  A    between atoms: C_4  and  C_14
    4  A    between atoms: C_8  and  C_20
    5  A    between atoms: C_8  and  C_36
    6  A    between atoms: C_10  and  C_36
    7  A    between atoms: C_17  and  C_31
    8  A    between atoms: C_22  and  N_24
    9  A    between atoms: C_22  and  C_29
   10  A    between atoms: N_24  and  C_27
   11  A    between atoms: N_24  and  C_37
                            x       y       z     vdW  Elec       q    Type
                         _______ _______ _______ _____ _____    ______ ____

>  <TORSDO>
F 11

$$$$
=
 OpenBabel11062417413D

 39 43  0  0  1  0  0  0  0  0999 V2000
  187.9430  178.0710  138.2050 C   0  0  0  0  0  3  0  0  0  0  0  0
  194.1210  175.3310  136.5610 C   0  0  0  0  0  0  0  0  0  0  0  0
  189.2210  177.7680  140.2560 C   0  0  0  0  0  0  0  0  0  0  0  0
  186.8780  178.4080  140.3760 C   0  0  0  0  0  0  0  0  0  0  0  0
  192.4920  176.3190  137.8430 C   0  0  2  0  0  0  0  0  0  0  0  0
  185.7750  178.6850  139.8320 O   0  0  0  0  0  0  0  0  0  0  0  0
  193.4130  174.3240  136.9290 N   0  0  0  0  0  0  0  0  0  0  0  0
  189.2750  177.7960  141.6160 N   0  0  0  0  0  0  0  0  0  0  0  0
  192.7490  176.7120  139.2260 N   0  0  0  0  0  2  0  0  0  0  0  0
  191.6800  177.1180  140.0830 C   0  0  0  0  0  0  0  0  0  0  0  0
  192.3160  174.7820  137.7690 C   0  0  2  0  0  3  0  0  0  0  0  0
  188.0050  178.0860  139.6030 C   0  0  0  0  0  0  0  0  0  0  0  0
  193.6690  176.5830  137.0360 N   0  0  0  0  0  2  0  0  0  0  0  0
  191.3710  177.0310  137.3070 O   0  0  0  0  0  0  0  0  0  0  0  0
  189.0670  177.7300  137.4530 C   0  0  0  0  0  3  0  0  0  0  0  0
  188.1980  178.1190  142.3810 C   0  0  0  0  0  0  0  0  0  0  0  0
  191.8960  177.2470  141.3170 O   0  0  0  0  0  0  0  0  0  0  0  0
  190.3580  177.4190  139.4900 C   0  0  0  0  0  0  0  0  0  0  0  0
  190.2640  177.3910  138.0870 C   0  0  0  0  0  0  0  0  0  0  0  0
  186.9740  178.4160  141.7660 C   0  0  0  0  0  2  0  0  0  0  0  0
  191.2220  173.4550  135.9650 C   0  0  0  0  0  1  0  0  0  0  0  0
  190.9820  174.3340  137.1760 C   0  0  0  0  0  2  0  0  0  0  0  0
  195.2650  175.1950  135.7050 C   0  0  0  0  0  0  0  0  0  0  0  0
  196.1890  175.0830  135.0190 N   0  0  0  0  0  0  0  0  0  0  0  0
  188.3280  178.0780  143.8750 C   0  0  1  0  0  3  0  0  0  0  0  0
  187.4530  177.0750  144.4700 N   0  0  0  0  0  2  0  0  0  0  0  0
  187.0970  177.5430  145.8000 C   0  0  0  0  0  2  0  0  0  0  0  0
  186.2000  178.7670  145.6990 C   0  0  0  0  0  2  0  0  0  0  0  0
  184.7450  178.3740  145.4890 C   0  0  1  0  0  3  0  0  0  0  0  0
  183.9900  178.6860  146.6220 O   0  0  0  0  0  1  0  0  0  0  0  0
  184.1920  179.0970  144.3080 C   0  0  0  0  0  0  0  0  0  0  0  0
  184.8660  180.1900  143.7750 O   0  0  0  0  0  0  0  0  0  0  0  0
  183.1140  178.7100  143.7870 O   0  0  0  0  0  1  0  0  0  0  0  0
  189.7200  177.8670  144.2820 N   0  0  0  0  0  0  0  0  0  0  0  0
  191.7240  176.4530  144.2640 C   0  0  0  0  0  2  0  0  0  0  0  0
  191.2940  176.6190  145.7020 C   0  0  0  0  0  2  0  0  0  0  0  0
  190.2440  176.5340  144.6040 C   0  0  0  0  0  3  0  0  0  0  0  0
  190.6190  178.9270  144.0870 C   0  0  0  0  0  0  0  0  0  0  0  0
  191.3600  179.8010  143.9270 N   0  0  0  0  0  0  0  0  0  0  0  0
  1 12  1  0  0  0  0
  2  7  2  0  0  0  0
  2 13  1  0  0  0  0
  3  8  1  0  0  0  0
  4 20  1  0  0  0  0
  5 13  1  6  0  0  0
  5  9  1  0  0  0  0
  6  4  2  0  0  0  0
  7 11  1  0  0  0  0
  8 16  2  0  0  0  0
  9 10  1  0  0  0  0
 10 17  2  0  0  0  0
 11 22  1  6  0  0  0
 11  5  1  0  0  0  0
 12  3  2  0  0  0  0
 12  4  1  0  0  0  0
 14  5  1  0  0  0  0
 14 19  1  0  0  0  0
 15 19  1  0  0  0  0
 15  1  2  0  0  0  0
 16 25  1  0  0  0  0
 18 10  1  0  0  0  0
 18  3  1  0  0  0  0
 19 18  2  0  0  0  0
 20 16  1  0  0  0  0
 21 22  1  0  0  0  0
 23  2  1  0  0  0  0
 24 23  3  0  0  0  0
 25 34  1  0  0  0  0
 25 26  1  6  0  0  0
 26 27  1  0  0  0  0
 28 27  1  0  0  0  0
 29 28  1  0  0  0  0
 29 30  1  1  0  0  0
 31 29  1  0  0  0  0
 32 31  2  0  0  0  0
 33 31  1  0  0  0  0
 34 37  1  0  0  0  0
 35 37  1  0  0  0  0
 35 36  1  0  0  0  0
 37 36  1  0  0  0  0
 38 34  1  0  0  0  0
 39 38  3  0  0  0  0
M  END
>  <MODEL>
3

>  <REMARK>
 VINA RESULT:      -7.2      3.951      8.247
  Name = 
  11 active torsions:
  status: ('A' for Active; 'I' for Inactive)
    1  A    between atoms: N_1  and  C_10
    2  A    between atoms: N_1  and  C_22
    3  A    between atoms: C_4  and  C_14
    4  A    between atoms: C_8  and  C_20
    5  A    between atoms: C_8  and  C_36
    6  A    between atoms: C_10  and  C_36
    7  A    between atoms: C_17  and  C_31
    8  A    between atoms: C_22  and  N_24
    9  A    between atoms: C_22  and  C_29
   10  A    between atoms: N_24  and  C_27
   11  A    between atoms: N_24  and  C_37
                            x       y       z     vdW  Elec       q    Type
                         _______ _______ _______ _____ _____    ______ ____

>  <TORSDO>
F 11

$$$$
=
 OpenBabel11062417413D

 39 43  0  0  1  0  0  0  0  0999 V2000
  188.2330  177.8520  137.3330 C   0  0  0  0  0  3  0  0  0  0  0  0
  194.5880  175.1550  136.4800 C   0  0  0  0  0  0  0  0  0  0  0  0
  189.2920  177.6710  139.5180 C   0  0  0  0  0  0  0  0  0  0  0  0
  186.9400  178.2710  139.3610 C   0  0  0  0  0  0  0  0  0  0  0  0
  192.8190  176.1710  137.5350 C   0  0  2  0  0  0  0  0  0  0  0  0
  185.8970  178.5010  138.6910 O   0  0  0  0  0  0  0  0  0  0  0  0
  193.8590  174.1530  136.8210 N   0  0  0  0  0  0  0  0  0  0  0  0
  189.2010  177.7630  140.8740 N   0  0  0  0  0  0  0  0  0  0  0  0
  192.9230  176.6340  138.9160 N   0  0  0  0  0  2  0  0  0  0  0  0
  191.7640  177.0600  139.6360 C   0  0  0  0  0  0  0  0  0  0  0  0
  192.6730  174.6300  137.5190 C   0  0  2  0  0  3  0  0  0  0  0  0
  188.1470  177.9340  138.7280 C   0  0  0  0  0  0  0  0  0  0  0  0
  194.0710  176.4190  136.8440 N   0  0  0  0  0  2  0  0  0  0  0  0
  191.7500  176.8360  136.8510 O   0  0  0  0  0  0  0  0  0  0  0  0
  189.4350  177.4970  136.7200 C   0  0  0  0  0  3  0  0  0  0  0  0
  188.0450  178.1020  141.5050 C   0  0  0  0  0  0  0  0  0  0  0  0
  191.8460  177.2510  140.8780 O   0  0  0  0  0  0  0  0  0  0  0  0
  190.5080  177.3070  138.8940 C   0  0  0  0  0  0  0  0  0  0  0  0
  190.5630  177.2120  137.4920 C   0  0  0  0  0  0  0  0  0  0  0  0
  186.8890  178.3460  140.7510 C   0  0  0  0  0  2  0  0  0  0  0  0
  191.7620  173.6490  135.4160 C   0  0  0  0  0  1  0  0  0  0  0  0
  191.4160  174.1290  136.8120 C   0  0  0  0  0  2  0  0  0  0  0  0
  195.8180  175.0010  135.7570 C   0  0  0  0  0  0  0  0  0  0  0  0
  196.8090  174.8730  135.1750 N   0  0  0  0  0  0  0  0  0  0  0  0
  188.0170  178.1340  143.0050 C   0  0  1  0  0  3  0  0  0  0  0  0
  186.8790  177.4000  143.5430 N   0  0  0  0  0  2  0  0  0  0  0  0
  186.2610  178.2390  144.5580 C   0  0  0  0  0  2  0  0  0  0  0  0
  185.1890  179.1150  143.9280 C   0  0  0  0  0  2  0  0  0  0  0  0
  183.7930  178.6050  144.2560 C   0  0  1  0  0  3  0  0  0  0  0  0
  183.2920  179.2550  145.3860 O   0  0  0  0  0  1  0  0  0  0  0  0
  182.8840  178.8460  143.0990 C   0  0  0  0  0  0  0  0  0  0  0  0
  181.6300  179.4140  143.2970 O   0  0  0  0  0  1  0  0  0  0  0  0
  183.2560  178.5390  141.9370 O   0  0  0  0  0  0  0  0  0  0  0  0
  189.2750  177.6380  143.5700 N   0  0  0  0  0  0  0  0  0  0  0  0
  189.5810  177.7370  146.0020 C   0  0  0  0  0  2  0  0  0  0  0  0
  190.9160  177.3950  145.3860 C   0  0  0  0  0  2  0  0  0  0  0  0
  189.9690  178.3370  144.6590 C   0  0  0  0  0  3  0  0  0  0  0  0
  189.6610  176.3290  143.2420 C   0  0  0  0  0  0  0  0  0  0  0  0
  189.9800  175.2500  142.9710 N   0  0  0  0  0  0  0  0  0  0  0  0
  1 12  1  0  0  0  0
  2  7  2  0  0  0  0
  2 13  1  0  0  0  0
  3  8  1  0  0  0  0
  4 20  1  0  0  0  0
  5 13  1  6  0  0  0
  5  9  1  0  0  0  0
  6  4  2  0  0  0  0
  7 11  1  0  0  0  0
  8 16  2  0  0  0  0
  9 10  1  0  0  0  0
 10 17  2  0  0  0  0
 11 22  1  6  0  0  0
 11  5  1  0  0  0  0
 12  4  1  0  0  0  0
 12  3  2  0  0  0  0
 14 19  1  0  0  0  0
 14  5  1  0  0  0  0
 15  1  2  0  0  0  0
 15 19  1  0  0  0  0
 16 25  1  0  0  0  0
 18  3  1  0  0  0  0
 18 10  1  0  0  0  0
 19 18  2  0  0  0  0
 20 16  1  0  0  0  0
 21 22  1  0  0  0  0
 23  2  1  0  0  0  0
 24 23  3  0  0  0  0
 25 26  1  1  0  0  0
 25 34  1  0  0  0  0
 26 27  1  0  0  0  0
 28 29  1  0  0  0  0
 28 27  1  0  0  0  0
 29 30  1  1  0  0  0
 31 32  1  0  0  0  0
 31 29  1  0  0  0  0
 33 31  2  0  0  0  0
 34 37  1  0  0  0  0
 36 35  1  0  0  0  0
 37 36  1  0  0  0  0
 37 35  1  0  0  0  0
 38 34  1  0  0  0  0
 39 38  3  0  0  0  0
M  END
>  <MODEL>
4

>  <REMARK>
 VINA RESULT:      -7.1      3.568      8.664
  Name = 
  11 active torsions:
  status: ('A' for Active; 'I' for Inactive)
    1  A    between atoms: N_1  and  C_10
    2  A    between atoms: N_1  and  C_22
    3  A    between atoms: C_4  and  C_14
    4  A    between atoms: C_8  and  C_20
    5  A    between atoms: C_8  and  C_36
    6  A    between atoms: C_10  and  C_36
    7  A    between atoms: C_17  and  C_31
    8  A    between atoms: C_22  and  N_24
    9  A    between atoms: C_22  and  C_29
   10  A    between atoms: N_24  and  C_27
   11  A    between atoms: N_24  and  C_37
                            x       y       z     vdW  Elec       q    Type
                         _______ _______ _______ _____ _____    ______ ____

>  <TORSDO>
F 11

$$$$
=
 OpenBabel11062417413D

 39 43  0  0  1  0  0  0  0  0999 V2000
  187.2610  178.6270  138.2970 C   0  0  0  0  0  3  0  0  0  0  0  0
  193.3890  175.5350  137.1710 C   0  0  0  0  0  0  0  0  0  0  0  0
  188.1810  177.9360  140.4440 C   0  0  0  0  0  0  0  0  0  0  0  0
  185.9030  178.7800  140.3200 C   0  0  0  0  0  0  0  0  0  0  0  0
  191.6630  176.5010  138.3380 C   0  0  2  0  0  0  0  0  0  0  0  0
  184.9220  179.2320  139.6700 O   0  0  0  0  0  0  0  0  0  0  0  0
  192.5570  174.5620  137.2870 N   0  0  0  0  0  0  0  0  0  0  0  0
  188.0260  177.7810  141.7880 N   0  0  0  0  0  0  0  0  0  0  0  0
  191.7330  176.6840  139.7840 N   0  0  0  0  0  2  0  0  0  0  0  0
  190.5800  177.0780  140.5310 C   0  0  0  0  0  0  0  0  0  0  0  0
  191.3830  175.0120  138.0200 C   0  0  2  0  0  3  0  0  0  0  0  0
  187.1080  178.4530  139.6770 C   0  0  0  0  0  0  0  0  0  0  0  0
  192.9670  176.7520  137.7520 N   0  0  0  0  0  2  0  0  0  0  0  0
  190.6960  177.3830  137.7560 O   0  0  0  0  0  0  0  0  0  0  0  0
  188.4580  178.2790  137.6710 C   0  0  0  0  0  3  0  0  0  0  0  0
  186.8720  178.1060  142.4300 C   0  0  0  0  0  0  0  0  0  0  0  0
  190.6120  177.0230  141.7880 O   0  0  0  0  0  0  0  0  0  0  0  0
  189.3920  177.5800  139.8050 C   0  0  0  0  0  0  0  0  0  0  0  0
  189.5130  177.7450  138.4130 C   0  0  0  0  0  0  0  0  0  0  0  0
  185.7850  178.5980  141.6960 C   0  0  0  0  0  2  0  0  0  0  0  0
  190.0120  173.3110  136.8190 C   0  0  0  0  0  1  0  0  0  0  0  0
  190.1260  174.7770  137.1850 C   0  0  0  0  0  2  0  0  0  0  0  0
  194.6380  175.4010  136.4760 C   0  0  0  0  0  0  0  0  0  0  0  0
  195.6420  175.2950  135.9130 N   0  0  0  0  0  0  0  0  0  0  0  0
  186.7670  177.8580  143.9060 C   0  0  1  0  0  3  0  0  0  0  0  0
  187.9790  178.2540  144.6120 N   0  0  0  0  0  2  0  0  0  0  0  0
  188.6470  177.0370  145.0450 C   0  0  0  0  0  2  0  0  0  0  0  0
  189.9950  177.3750  145.6640 C   0  0  0  0  0  2  0  0  0  0  0  0
  190.1140  176.8190  147.0750 C   0  0  1  0  0  3  0  0  0  0  0  0
  191.4090  177.0040  147.5630 O   0  0  0  0  0  1  0  0  0  0  0  0
  189.1410  177.5080  147.9710 C   0  0  0  0  0  0  0  0  0  0  0  0
  187.9180  176.9160  148.2680 O   0  0  0  0  0  0  0  0  0  0  0  0
  189.4310  178.6270  148.4670 O   0  0  0  0  0  1  0  0  0  0  0  0
  185.5890  178.5200  144.4730 N   0  0  0  0  0  0  0  0  0  0  0  0
  183.1700  178.6260  144.8610 C   0  0  0  0  0  2  0  0  0  0  0  0
  183.5410  179.7840  143.9650 C   0  0  0  0  0  2  0  0  0  0  0  0
  184.2730  178.4570  143.8270 C   0  0  0  0  0  3  0  0  0  0  0  0
  185.6810  178.9840  145.7950 C   0  0  0  0  0  0  0  0  0  0  0  0
  185.7580  179.3660  146.8840 N   0  0  0  0  0  0  0  0  0  0  0  0
  1 12  1  0  0  0  0
  2  7  2  0  0  0  0
  2 13  1  0  0  0  0
  3  8  1  0  0  0  0
  4 20  1  0  0  0  0
  5 13  1  6  0  0  0
  5  9  1  0  0  0  0
  6  4  2  0  0  0  0
  7 11  1  0  0  0  0
  8 16  2  0  0  0  0
  9 10  1  0  0  0  0
 10 17  2  0  0  0  0
 11 22  1  6  0  0  0
 11  5  1  0  0  0  0
 12  4  1  0  0  0  0
 12  3  2  0  0  0  0
 14  5  1  0  0  0  0
 14 19  1  0  0  0  0
 15  1  2  0  0  0  0
 15 19  1  0  0  0  0
 16 25  1  0  0  0  0
 18  3  1  0  0  0  0
 18 10  1  0  0  0  0
 19 18  2  0  0  0  0
 20 16  1  0  0  0  0
 21 22  1  0  0  0  0
 23  2  1  0  0  0  0
 24 23  3  0  0  0  0
 25 34  1  0  0  0  0
 25 26  1  1  0  0  0
 26 27  1  0  0  0  0
 27 28  1  0  0  0  0
 28 29  1  0  0  0  0
 29 30  1  1  0  0  0
 29 31  1  0  0  0  0
 31 32  2  0  0  0  0
 31 33  1  0  0  0  0
 34 38  1  0  0  0  0
 36 35  1  0  0  0  0
 37 36  1  0  0  0  0
 37 34  1  0  0  0  0
 37 35  1  0  0  0  0
 38 39  3  0  0  0  0
M  END
>  <MODEL>
5

>  <REMARK>
 VINA RESULT:      -6.8      3.601      8.298
  Name = 
  11 active torsions:
  status: ('A' for Active; 'I' for Inactive)
    1  A    between atoms: N_1  and  C_10
    2  A    between atoms: N_1  and  C_22
    3  A    between atoms: C_4  and  C_14
    4  A    between atoms: C_8  and  C_20
    5  A    between atoms: C_8  and  C_36
    6  A    between atoms: C_10  and  C_36
    7  A    between atoms: C_17  and  C_31
    8  A    between atoms: C_22  and  N_24
    9  A    between atoms: C_22  and  C_29
   10  A    between atoms: N_24  and  C_27
   11  A    between atoms: N_24  and  C_37
                            x       y       z     vdW  Elec       q    Type
                         _______ _______ _______ _____ _____    ______ ____

>  <TORSDO>
F 11

$$$$
=
 OpenBabel11062417413D

 39 43  0  0  1  0  0  0  0  0999 V2000
  186.9250  176.6720  134.8660 C   0  0  0  0  0  3  0  0  0  0  0  0
  193.3260  175.2970  137.2170 C   0  0  0  0  0  0  0  0  0  0  0  0
  187.0250  177.2730  137.2240 C   0  0  0  0  0  0  0  0  0  0  0  0
  184.8890  177.2890  136.0620 C   0  0  0  0  0  0  0  0  0  0  0  0
  191.1870  176.1330  137.1990 C   0  0  2  0  0  0  0  0  0  0  0  0
  184.1860  177.1130  135.0300 O   0  0  0  0  0  0  0  0  0  0  0  0
  192.6300  174.2780  137.5720 N   0  0  0  0  0  0  0  0  0  0  0  0
  186.3860  177.6780  138.3570 N   0  0  0  0  0  0  0  0  0  0  0  0
  190.6770  176.9360  138.3070 N   0  0  0  0  0  2  0  0  0  0  0  0
  189.2890  177.2640  138.3970 C   0  0  0  0  0  0  0  0  0  0  0  0
  191.2210  174.6430  137.6160 C   0  0  2  0  0  3  0  0  0  0  0  0
  186.2760  177.0760  136.0380 C   0  0  0  0  0  0  0  0  0  0  0  0
  192.5790  176.4680  136.9570 N   0  0  0  0  0  2  0  0  0  0  0  0
  190.4230  176.3580  136.0090 O   0  0  0  0  0  0  0  0  0  0  0  0
  188.3020  176.4460  134.8640 C   0  0  0  0  0  3  0  0  0  0  0  0
  185.0460  177.9030  138.3960 C   0  0  0  0  0  0  0  0  0  0  0  0
  188.8430  177.7710  139.4600 O   0  0  0  0  0  0  0  0  0  0  0  0
  188.4210  177.0400  137.2200 C   0  0  0  0  0  0  0  0  0  0  0  0
  189.0460  176.6140  136.0340 C   0  0  0  0  0  0  0  0  0  0  0  0
  184.2740  177.6940  137.2450 C   0  0  0  0  0  2  0  0  0  0  0  0
  191.3420  172.9960  135.7480 C   0  0  0  0  0  1  0  0  0  0  0  0
  190.4150  173.7210  136.7040 C   0  0  0  0  0  2  0  0  0  0  0  0
  194.7520  175.2400  137.0640 C   0  0  0  0  0  0  0  0  0  0  0  0
  195.9020  175.1930  136.9460 N   0  0  0  0  0  0  0  0  0  0  0  0
  184.4120  178.2990  139.6970 C   0  0  1  0  0  3  0  0  0  0  0  0
  185.1190  179.4050  140.3310 N   0  0  0  0  0  2  0  0  0  0  0  0
  185.7410  178.8870  141.5400 C   0  0  0  0  0  2  0  0  0  0  0  0
  184.6830  178.2840  142.4520 C   0  0  0  0  0  2  0  0  0  0  0  0
  184.3790  179.1980  143.6300 C   0  0  1  0  0  3  0  0  0  0  0  0
  183.0000  179.2950  143.8260 O   0  0  0  0  0  1  0  0  0  0  0  0
  185.0210  178.6600  144.8640 C   0  0  0  0  0  0  0  0  0  0  0  0
  186.1180  177.8120  144.7720 O   0  0  0  0  0  0  0  0  0  0  0  0
  184.5710  178.9820  145.9940 O   0  0  0  0  0  1  0  0  0  0  0  0
  182.9920  178.6150  139.5220 N   0  0  0  0  0  0  0  0  0  0  0  0
  181.2650  176.9800  138.9230 C   0  0  0  0  0  2  0  0  0  0  0  0
  182.2620  176.2860  139.8210 C   0  0  0  0  0  2  0  0  0  0  0  0
  181.9300  177.7520  140.0530 C   0  0  0  0  0  3  0  0  0  0  0  0
  182.6670  179.9070  139.0780 C   0  0  0  0  0  0  0  0  0  0  0  0
  182.3980  180.9710  138.7120 N   0  0  0  0  0  0  0  0  0  0  0  0
  1 12  1  0  0  0  0
  2  7  2  0  0  0  0
  3  8  1  0  0  0  0
  4 20  1  0  0  0  0
  5 14  1  6  0  0  0
  5 11  1  0  0  0  0
  5  9  1  0  0  0  0
  6  4  2  0  0  0  0
  7 11  1  0  0  0  0
  8 16  2  0  0  0  0
  9 10  1  0  0  0  0
 10 17  2  0  0  0  0
 11 22  1  6  0  0  0
 12  4  1  0  0  0  0
 12  3  2  0  0  0  0
 13  5  1  0  0  0  0
 13  2  1  0  0  0  0
 14 19  1  0  0  0  0
 15  1  2  0  0  0  0
 15 19  1  0  0  0  0
 16 25  1  0  0  0  0
 18  3  1  0  0  0  0
 18 10  1  0  0  0  0
 19 18  2  0  0  0  0
 20 16  1  0  0  0  0
 21 22  1  0  0  0  0
 23  2  1  0  0  0  0
 24 23  3  0  0  0  0
 25 26  1  6  0  0  0
 26 27  1  0  0  0  0
 27 28  1  0  0  0  0
 28 29  1  0  0  0  0
 29 30  1  1  0  0  0
 29 31  1  0  0  0  0
 31 33  1  0  0  0  0
 32 31  2  0  0  0  0
 34 25  1  0  0  0  0
 34 37  1  0  0  0  0
 35 36  1  0  0  0  0
 35 37  1  0  0  0  0
 36 37  1  0  0  0  0
 38 34  1  0  0  0  0
 39 38  3  0  0  0  0
M  END
>  <MODEL>
6

>  <REMARK>
 VINA RESULT:      -6.3      3.260      9.421
  Name = 
  11 active torsions:
  status: ('A' for Active; 'I' for Inactive)
    1  A    between atoms: N_1  and  C_10
    2  A    between atoms: N_1  and  C_22
    3  A    between atoms: C_4  and  C_14
    4  A    between atoms: C_8  and  C_20
    5  A    between atoms: C_8  and  C_36
    6  A    between atoms: C_10  and  C_36
    7  A    between atoms: C_17  and  C_31
    8  A    between atoms: C_22  and  N_24
    9  A    between atoms: C_22  and  C_29
   10  A    between atoms: N_24  and  C_27
   11  A    between atoms: N_24  and  C_37
                            x       y       z     vdW  Elec       q    Type
                         _______ _______ _______ _____ _____    ______ ____

>  <TORSDO>
F 11

$$$$
=
 OpenBabel11062417413D

 39 43  0  0  1  0  0  0  0  0999 V2000
  185.2900  176.6850  134.9950 C   0  0  0  0  0  3  0  0  0  0  0  0
  191.8440  175.9900  137.2160 C   0  0  0  0  0  0  0  0  0  0  0  0
  185.4120  177.4830  137.2920 C   0  0  0  0  0  0  0  0  0  0  0  0
  183.2480  177.2430  136.2110 C   0  0  0  0  0  0  0  0  0  0  0  0
  189.6470  176.6600  137.2090 C   0  0  2  0  0  0  0  0  0  0  0  0
  182.5300  176.9320  135.2210 O   0  0  0  0  0  0  0  0  0  0  0  0
  191.2400  174.9540  137.6760 N   0  0  0  0  0  0  0  0  0  0  0  0
  184.7780  177.9290  138.4120 N   0  0  0  0  0  0  0  0  0  0  0  0
  189.1100  177.5090  138.2680 N   0  0  0  0  0  2  0  0  0  0  0  0
  187.7040  177.7390  138.3800 C   0  0  0  0  0  0  0  0  0  0  0  0
  189.8090  175.2150  137.7410 C   0  0  2  0  0  3  0  0  0  0  0  0
  184.6460  177.1340  136.1540 C   0  0  0  0  0  0  0  0  0  0  0  0
  191.0010  177.0770  136.8910 N   0  0  0  0  0  2  0  0  0  0  0  0
  188.8330  176.7290  136.0330 O   0  0  0  0  0  0  0  0  0  0  0  0
  186.6790  176.5640  134.9610 C   0  0  0  0  0  3  0  0  0  0  0  0
  183.4260  178.0560  138.4810 C   0  0  0  0  0  0  0  0  0  0  0  0
  187.2520  178.2960  139.4150 O   0  0  0  0  0  0  0  0  0  0  0  0
  186.8210  177.3550  137.2570 C   0  0  0  0  0  0  0  0  0  0  0  0
  187.4420  176.8810  136.0870 C   0  0  0  0  0  0  0  0  0  0  0  0
  182.6380  177.6970  137.3790 C   0  0  0  0  0  2  0  0  0  0  0  0
  190.0260  173.1950  136.2960 C   0  0  0  0  0  1  0  0  0  0  0  0
  189.0500  174.1640  136.9340 C   0  0  0  0  0  2  0  0  0  0  0  0
  193.2650  176.0280  137.0180 C   0  0  0  0  0  0  0  0  0  0  0  0
  194.4100  176.0560  136.8540 N   0  0  0  0  0  0  0  0  0  0  0  0
  182.8020  178.5080  139.7690 C   0  0  1  0  0  3  0  0  0  0  0  0
  183.7550  179.2160  140.6150 N   0  0  0  0  0  2  0  0  0  0  0  0
  183.9020  178.4480  141.8410 C   0  0  0  0  0  2  0  0  0  0  0  0
  184.9290  179.1080  142.7490 C   0  0  0  0  0  2  0  0  0  0  0  0
  184.3590  179.3650  144.1360 C   0  0  1  0  0  3  0  0  0  0  0  0
  183.1180  178.7410  144.2740 O   0  0  0  0  0  1  0  0  0  0  0  0
  185.2980  178.8420  145.1710 C   0  0  0  0  0  0  0  0  0  0  0  0
  186.1410  177.7760  144.8790 O   0  0  0  0  0  0  0  0  0  0  0  0
  185.3300  179.3730  146.3110 O   0  0  0  0  0  1  0  0  0  0  0  0
  181.6100  179.3240  139.5230 N   0  0  0  0  0  0  0  0  0  0  0  0
  179.6210  177.8910  139.4550 C   0  0  0  0  0  2  0  0  0  0  0  0
  180.3220  177.6400  140.7690 C   0  0  0  0  0  2  0  0  0  0  0  0
  180.3230  179.0370  140.1680 C   0  0  0  0  0  3  0  0  0  0  0  0
  181.7920  180.5570  138.8760 C   0  0  0  0  0  0  0  0  0  0  0  0
  181.9420  181.5720  138.3420 N   0  0  0  0  0  0  0  0  0  0  0  0
  1 12  1  0  0  0  0
  2  7  2  0  0  0  0
  3  8  1  0  0  0  0
  4 20  1  0  0  0  0
  5 14  1  6  0  0  0
  5 11  1  0  0  0  0
  5  9  1  0  0  0  0
  6  4  2  0  0  0  0
  7 11  1  0  0  0  0
  8 16  2  0  0  0  0
  9 10  1  0  0  0  0
 10 17  2  0  0  0  0
 11 22  1  6  0  0  0
 12  4  1  0  0  0  0
 12  3  2  0  0  0  0
 13  5  1  0  0  0  0
 13  2  1  0  0  0  0
 14 19  1  0  0  0  0
 15  1  2  0  0  0  0
 15 19  1  0  0  0  0
 16 25  1  0  0  0  0
 18  3  1  0  0  0  0
 18 10  1  0  0  0  0
 19 18  2  0  0  0  0
 20 16  1  0  0  0  0
 21 22  1  0  0  0  0
 23  2  1  0  0  0  0
 24 23  3  0  0  0  0
 25 26  1  6  0  0  0
 26 27  1  0  0  0  0
 27 28  1  0  0  0  0
 28 29  1  0  0  0  0
 29 30  1  6  0  0  0
 29 31  1  0  0  0  0
 31 33  1  0  0  0  0
 32 31  2  0  0  0  0
 34 25  1  0  0  0  0
 34 37  1  0  0  0  0
 35 37  1  0  0  0  0
 35 36  1  0  0  0  0
 37 36  1  0  0  0  0
 38 34  1  0  0  0  0
 39 38  3  0  0  0  0
M  END
>  <MODEL>
7

>  <REMARK>
 VINA RESULT:      -6.2      3.244      9.125
  Name = 
  11 active torsions:
  status: ('A' for Active; 'I' for Inactive)
    1  A    between atoms: N_1  and  C_10
    2  A    between atoms: N_1  and  C_22
    3  A    between atoms: C_4  and  C_14
    4  A    between atoms: C_8  and  C_20
    5  A    between atoms: C_8  and  C_36
    6  A    between atoms: C_10  and  C_36
    7  A    between atoms: C_17  and  C_31
    8  A    between atoms: C_22  and  N_24
    9  A    between atoms: C_22  and  C_29
   10  A    between atoms: N_24  and  C_27
   11  A    between atoms: N_24  and  C_37
                            x       y       z     vdW  Elec       q    Type
                         _______ _______ _______ _____ _____    ______ ____

>  <TORSDO>
F 11

$$$$
=
 OpenBabel11062417413D

 39 43  0  0  1  0  0  0  0  0999 V2000
  186.3770  178.4470  142.3180 C   0  0  0  0  0  3  0  0  0  0  0  0
  191.7290  176.3030  146.2100 C   0  0  0  0  0  0  0  0  0  0  0  0
  188.1080  177.5830  140.8380 C   0  0  0  0  0  0  0  0  0  0  0  0
  186.1800  178.7310  139.9010 C   0  0  0  0  0  0  0  0  0  0  0  0
  190.4230  176.5960  144.3440 C   0  0  2  0  0  0  0  0  0  0  0  0
  185.0860  179.3470  140.0270 O   0  0  0  0  0  0  0  0  0  0  0  0
  192.0690  177.4780  145.8180 N   0  0  0  0  0  0  0  0  0  0  0  0
  188.5810  177.3950  139.5750 N   0  0  0  0  0  0  0  0  0  0  0  0
  190.7890  176.0030  143.0610 N   0  0  0  0  0  2  0  0  0  0  0  0
  190.1010  176.3670  141.8620 C   0  0  0  0  0  0  0  0  0  0  0  0
  191.3220  177.8260  144.6180 C   0  0  2  0  0  3  0  0  0  0  0  0
  186.8770  178.2580  141.0240 C   0  0  0  0  0  0  0  0  0  0  0  0
  190.7440  175.6720  145.4160 N   0  0  0  0  0  2  0  0  0  0  0  0
  189.0260  176.9120  144.3830 O   0  0  0  0  0  0  0  0  0  0  0  0
  187.0920  177.9880  143.4240 C   0  0  0  0  0  3  0  0  0  0  0  0
  187.9130  177.8320  138.4750 C   0  0  0  0  0  0  0  0  0  0  0  0
  190.5690  176.0060  140.7500 O   0  0  0  0  0  0  0  0  0  0  0  0
  188.8330  177.1220  141.9630 C   0  0  0  0  0  0  0  0  0  0  0  0
  188.3180  177.3430  143.2530 C   0  0  0  0  0  0  0  0  0  0  0  0
  186.7040  178.5240  138.6270 C   0  0  0  0  0  2  0  0  0  0  0  0
  190.9120  180.1330  143.7670 C   0  0  0  0  0  1  0  0  0  0  0  0
  190.5520  179.1250  144.8410 C   0  0  0  0  0  2  0  0  0  0  0  0
  192.2830  175.6930  147.3850 C   0  0  0  0  0  0  0  0  0  0  0  0
  192.7320  175.2050  148.3330 N   0  0  0  0  0  0  0  0  0  0  0  0
  188.5270  177.6280  137.1210 C   0  0  1  0  0  3  0  0  0  0  0  0
  189.9170  177.1980  137.2140 N   0  0  0  0  0  2  0  0  0  0  0  0
  190.3280  176.7640  135.8880 C   0  0  0  0  0  2  0  0  0  0  0  0
  191.5170  175.8220  135.9940 C   0  0  0  0  0  2  0  0  0  0  0  0
  192.0080  175.7080  137.4300 C   0  0  1  0  0  3  0  0  0  0  0  0
  191.6330  174.4770  137.9740 O   0  0  0  0  0  1  0  0  0  0  0  0
  193.4940  175.8360  137.4660 C   0  0  0  0  0  0  0  0  0  0  0  0
  194.2640  174.8950  138.1390 O   0  0  0  0  0  1  0  0  0  0  0  0
  194.0520  176.7980  136.8780 O   0  0  0  0  0  0  0  0  0  0  0  0
  187.7410  176.6880  136.3170 N   0  0  0  0  0  0  0  0  0  0  0  0
  185.8200  177.3320  134.9350 C   0  0  0  0  0  2  0  0  0  0  0  0
  186.8340  178.4490  134.8580 C   0  0  0  0  0  2  0  0  0  0  0  0
  187.3060  177.0050  134.9520 C   0  0  0  0  0  3  0  0  0  0  0  0
  187.6490  175.3640  136.7750 C   0  0  0  0  0  0  0  0  0  0  0  0
  187.5740  174.2730  137.1520 N   0  0  0  0  0  0  0  0  0  0  0  0
  1 15  1  0  0  0  0
  2 23  1  0  0  0  0
  3 12  1  0  0  0  0
  3 18  2  0  0  0  0
  4  6  2  0  0  0  0
  4 12  1  0  0  0  0
  5  9  1  6  0  0  0
  5 14  1  0  0  0  0
  5 11  1  0  0  0  0
  5 13  1  0  0  0  0
  7  2  2  0  0  0  0
  8  3  1  0  0  0  0
 10 18  1  0  0  0  0
 10  9  1  0  0  0  0
 11 22  1  1  0  0  0
 11  7  1  0  0  0  0
 12  1  2  0  0  0  0
 13  2  1  0  0  0  0
 16 20  1  0  0  0  0
 16  8  2  0  0  0  0
 17 10  2  0  0  0  0
 18 19  1  0  0  0  0
 19 15  2  0  0  0  0
 19 14  1  0  0  0  0
 20  4  1  0  0  0  0
 21 22  1  0  0  0  0
 23 24  3  0  0  0  0
 25 26  1  1  0  0  0
 25 16  1  0  0  0  0
 27 28  1  0  0  0  0
 27 26  1  0  0  0  0
 28 29  1  0  0  0  0
 29 31  1  0  0  0  0
 29 30  1  6  0  0  0
 31 32  1  0  0  0  0
 33 31  2  0  0  0  0
 34 38  1  0  0  0  0
 34 25  1  0  0  0  0
 35 37  1  0  0  0  0
 36 35  1  0  0  0  0
 36 37  1  0  0  0  0
 37 34  1  0  0  0  0
 38 39  3  0  0  0  0
M  END
>  <MODEL>
8

>  <REMARK>
 VINA RESULT:      -5.8      3.722      8.605
  Name = 
  11 active torsions:
  status: ('A' for Active; 'I' for Inactive)
    1  A    between atoms: N_1  and  C_10
    2  A    between atoms: N_1  and  C_22
    3  A    between atoms: C_4  and  C_14
    4  A    between atoms: C_8  and  C_20
    5  A    between atoms: C_8  and  C_36
    6  A    between atoms: C_10  and  C_36
    7  A    between atoms: C_17  and  C_31
    8  A    between atoms: C_22  and  N_24
    9  A    between atoms: C_22  and  C_29
   10  A    between atoms: N_24  and  C_27
   11  A    between atoms: N_24  and  C_37
                            x       y       z     vdW  Elec       q    Type
                         _______ _______ _______ _____ _____    ______ ____

>  <TORSDO>
F 11

$$$$
=
 OpenBabel11062417413D

 39 43  0  0  1  0  0  0  0  0999 V2000
  189.0090  176.8750  136.3380 C   0  0  0  0  0  3  0  0  0  0  0  0
  195.5330  174.4630  136.3350 C   0  0  0  0  0  0  0  0  0  0  0  0
  190.0020  177.3380  138.5130 C   0  0  0  0  0  0  0  0  0  0  0  0
  187.6260  177.7240  138.1630 C   0  0  0  0  0  0  0  0  0  0  0  0
  193.6740  175.6030  137.0550 C   0  0  2  0  0  0  0  0  0  0  0  0
  186.5950  177.7040  137.4380 O   0  0  0  0  0  0  0  0  0  0  0  0
  194.8520  173.5400  136.9140 N   0  0  0  0  0  0  0  0  0  0  0  0
  189.8600  177.7740  139.7960 N   0  0  0  0  0  0  0  0  0  0  0  0
  193.7050  176.4160  138.2680 N   0  0  0  0  0  2  0  0  0  0  0  0
  192.5000  176.9390  138.8310 C   0  0  0  0  0  0  0  0  0  0  0  0
  193.6170  174.1050  137.4410 C   0  0  2  0  0  3  0  0  0  0  0  0
  188.8710  177.3120  137.6610 C   0  0  0  0  0  0  0  0  0  0  0  0
  194.9320  175.7420  136.3450 N   0  0  0  0  0  2  0  0  0  0  0  0
  192.5930  175.9970  136.2020 O   0  0  0  0  0  0  0  0  0  0  0  0
  190.2490  176.4510  135.8610 C   0  0  0  0  0  3  0  0  0  0  0  0
  188.6660  178.1910  140.2950 C   0  0  0  0  0  0  0  0  0  0  0  0
  192.5290  177.4520  139.9800 O   0  0  0  0  0  0  0  0  0  0  0  0
  191.2570  176.9030  138.0280 C   0  0  0  0  0  0  0  0  0  0  0  0
  191.3650  176.4490  136.7000 C   0  0  0  0  0  0  0  0  0  0  0  0
  187.5240  178.1550  139.4840 C   0  0  0  0  0  2  0  0  0  0  0  0
  192.8650  172.4210  135.7640 C   0  0  0  0  0  1  0  0  0  0  0  0
  192.4160  173.3580  136.8680 C   0  0  0  0  0  2  0  0  0  0  0  0
  196.7930  174.2050  135.6990 C   0  0  0  0  0  0  0  0  0  0  0  0
  197.8110  174.0010  135.1890 N   0  0  0  0  0  0  0  0  0  0  0  0
  188.5860  178.6110  141.7340 C   0  0  1  0  0  3  0  0  0  0  0  0
  187.2180  178.9150  142.1360 N   0  0  0  0  0  2  0  0  0  0  0  0
  186.7480  177.8060  142.9520 C   0  0  0  0  0  2  0  0  0  0  0  0
  185.6740  178.2880  143.9150 C   0  0  0  0  0  2  0  0  0  0  0  0
  184.4650  178.8360  143.1700 C   0  0  1  0  0  3  0  0  0  0  0  0
  183.9340  177.8590  142.3240 O   0  0  0  0  0  1  0  0  0  0  0  0
  183.4250  179.2690  144.1460 C   0  0  0  0  0  0  0  0  0  0  0  0
  183.5760  178.9970  145.5010 O   0  0  0  0  0  1  0  0  0  0  0  0
  182.4080  179.8900  143.7410 O   0  0  0  0  0  0  0  0  0  0  0  0
  189.1800  177.6020  142.6150 N   0  0  0  0  0  0  0  0  0  0  0  0
  191.1870  176.1930  142.6450 C   0  0  0  0  0  2  0  0  0  0  0  0
  190.0510  175.3830  143.2220 C   0  0  0  0  0  2  0  0  0  0  0  0
  189.7800  176.3680  142.0940 C   0  0  0  0  0  3  0  0  0  0  0  0
  189.4160  177.9680  143.9500 C   0  0  0  0  0  0  0  0  0  0  0  0
  189.6100  178.2690  145.0500 N   0  0  0  0  0  0  0  0  0  0  0  0
  1 12  1  0  0  0  0
  2 13  1  0  0  0  0
  2  7  2  0  0  0  0
  3  8  1  0  0  0  0
  4 20  1  0  0  0  0
  5 14  1  6  0  0  0
  5 11  1  0  0  0  0
  5  9  1  0  0  0  0
  6  4  2  0  0  0  0
  7 11  1  0  0  0  0
  8 16  2  0  0  0  0
  9 10  1  0  0  0  0
 10 17  2  0  0  0  0
 11 22  1  6  0  0  0
 12  4  1  0  0  0  0
 12  3  2  0  0  0  0
 13  5  1  0  0  0  0
 14 19  1  0  0  0  0
 15  1  2  0  0  0  0
 15 19  1  0  0  0  0
 16 25  1  0  0  0  0
 18  3  1  0  0  0  0
 18 10  1  0  0  0  0
 19 18  2  0  0  0  0
 20 16  1  0  0  0  0
 21 22  1  0  0  0  0
 23  2  1  0  0  0  0
 24 23  3  0  0  0  0
 25 26  1  1  0  0  0
 25 34  1  0  0  0  0
 26 27  1  0  0  0  0
 27 28  1  0  0  0  0
 29 30  1  6  0  0  0
 29 28  1  0  0  0  0
 29 31  1  0  0  0  0
 31 32  1  0  0  0  0
 33 31  2  0  0  0  0
 34 38  1  0  0  0  0
 35 36  1  0  0  0  0
 37 34  1  0  0  0  0
 37 35  1  0  0  0  0
 37 36  1  0  0  0  0
 38 39  3  0  0  0  0
M  END
>  <MODEL>
9

>  <REMARK>
 VINA RESULT:      -5.5      3.876      9.349
  Name = 
  11 active torsions:
  status: ('A' for Active; 'I' for Inactive)
    1  A    between atoms: N_1  and  C_10
    2  A    between atoms: N_1  and  C_22
    3  A    between atoms: C_4  and  C_14
    4  A    between atoms: C_8  and  C_20
    5  A    between atoms: C_8  and  C_36
    6  A    between atoms: C_10  and  C_36
    7  A    between atoms: C_17  and  C_31
    8  A    between atoms: C_22  and  N_24
    9  A    between atoms: C_22  and  C_29
   10  A    between atoms: N_24  and  C_27
   11  A    between atoms: N_24  and  C_37
                            x       y       z     vdW  Elec       q    Type
                         _______ _______ _______ _____ _____    ______ ____

>  <TORSDO>
F 11

$$$$
