=
 OpenBabel11062413523D

 25 28  0  0  1  0  0  0  0  0999 V2000
  187.5100  178.2840  139.8690 C   0  0  0  0  0  3  0  0  0  0  0  0
  189.5840  177.2710  139.1250 N   0  0  0  0  0  1  0  0  0  0  0  0
  190.3110  176.5680  141.7730 C   0  0  0  0  0  2  0  0  0  0  0  0
  190.6960  176.2700  143.2180 C   0  0  0  0  0  2  0  0  0  0  0  0
  186.9130  178.3060  142.1720 N   0  0  0  0  0  0  0  0  0  0  0  0
  190.7130  177.5270  144.0300 C   0  0  0  0  0  0  0  0  0  0  0  0
  191.7650  178.1260  144.1860 O   0  0  0  0  0  0  0  0  0  0  0  0
  188.2340  177.3410  143.9770 C   0  0  0  0  0  2  0  0  0  0  0  0
  188.6890  177.6100  140.1820 C   0  0  0  0  0  0  0  0  0  0  0  0
  186.6260  178.6280  140.8860 C   0  0  0  0  0  0  0  0  0  0  0  0
  188.0500  177.6490  142.5230 C   0  0  0  0  0  0  0  0  0  0  0  0
  189.4250  178.1000  144.5670 C   0  0  1  0  0  3  0  0  0  0  0  0
  185.4210  179.3160  140.5770 N   0  0  0  0  0  1  0  0  0  0  0  0
  188.9890  177.2780  141.5180 C   0  0  0  0  0  0  0  0  0  0  0  0
  190.3980  177.0470  146.6380 C   0  0  0  0  0  2  0  0  0  0  0  0
  189.8330  176.3850  147.7360 O   0  0  0  0  0  0  0  0  0  0  0  0
  188.4660  176.2920  147.4380 C   0  0  0  0  0  2  0  0  0  0  0  0
  188.0710  177.4920  146.6030 C   0  0  2  0  0  3  0  0  0  0  0  0
  189.3820  178.0370  146.1010 C   0  0  2  0  0  3  0  0  0  0  0  0
  187.3980  178.5380  147.4750 C   0  0  0  0  0  2  0  0  0  0  0  0
  185.9080  178.5890  147.1820 C   0  0  0  0  0  2  0  0  0  0  0  0
  185.6530  179.2730  145.8510 C   0  0  0  0  0  2  0  0  0  0  0  0
  184.5540  178.5570  145.0880 C   0  0  1  0  0  3  0  0  0  0  0  0
  183.3370  179.2290  145.3040 O   0  0  0  0  0  0  0  0  0  0  0  0
  183.9780  179.4630  144.0730 C   0  0  0  0  0  2  0  0  0  0  0  0
  1  9  2  0  0  0  0
  1 10  1  0  0  0  0
  2  9  1  0  0  0  0
  3  4  1  0  0  0  0
  4  6  1  0  0  0  0
  5 11  1  0  0  0  0
  6  7  2  0  0  0  0
  6 12  1  0  0  0  0
  9 14  1  0  0  0  0
 10  5  2  0  0  0  0
 11  8  1  0  0  0  0
 12  8  1  6  0  0  0
 12 19  1  0  0  0  0
 13 10  1  0  0  0  0
 14  3  1  0  0  0  0
 14 11  2  0  0  0  0
 15 16  1  0  0  0  0
 17 16  1  0  0  0  0
 18 17  1  0  0  0  0
 18 20  1  1  0  0  0
 19 18  1  0  0  0  0
 19 15  1  6  0  0  0
 21 20  1  0  0  0  0
 22 21  1  0  0  0  0
 23 24  1  0  0  0  0
 23 22  1  1  0  0  0
 25 23  1  0  0  0  0
 25 24  1  0  0  0  0
M  END
>  <MODEL>
1

>  <REMARK>
 VINA RESULT:      -8.4      0.000      0.000
  Name = 
  5 active torsions:
  status: ('A' for Active; 'I' for Inactive)
    1  A    between atoms: C_3  and  C_9
    2  A    between atoms: C_9  and  C_21
    3  A    between atoms: C_11  and  C_19
    4  A    between atoms: C_11  and  C_21
    5  A    between atoms: C_22  and  C_25
                            x       y       z     vdW  Elec       q    Type
                         _______ _______ _______ _____ _____    ______ ____

>  <TORSDO>
F 5

$$$$
=
 OpenBabel11062413523D

 25 28  0  0  1  0  0  0  0  0999 V2000
  190.0740  177.3190  148.3540 C   0  0  0  0  0  3  0  0  0  0  0  0
  192.2380  176.3600  147.8260 N   0  0  0  0  0  1  0  0  0  0  0  0
  191.8050  176.6570  145.0410 C   0  0  0  0  0  2  0  0  0  0  0  0
  191.5030  176.7710  143.5500 C   0  0  0  0  0  2  0  0  0  0  0  0
  188.6090  178.0630  146.6340 N   0  0  0  0  0  0  0  0  0  0  0  0
  190.2440  176.0380  143.2090 C   0  0  0  0  0  0  0  0  0  0  0  0
  190.3100  174.8890  142.8040 O   0  0  0  0  0  0  0  0  0  0  0  0
  189.0870  177.9790  144.2470 C   0  0  0  0  0  2  0  0  0  0  0  0
  191.0090  176.9410  147.3940 C   0  0  0  0  0  0  0  0  0  0  0  0
  188.8680  177.8820  147.9530 C   0  0  0  0  0  0  0  0  0  0  0  0
  189.4930  177.7100  145.6630 C   0  0  0  0  0  0  0  0  0  0  0  0
  188.9020  176.6810  143.4560 C   0  0  1  0  0  3  0  0  0  0  0  0
  187.9070  178.2710  148.9260 N   0  0  0  0  0  1  0  0  0  0  0  0
  190.7400  177.1240  146.0220 C   0  0  0  0  0  0  0  0  0  0  0  0
  189.1440  177.1100  140.9860 C   0  0  0  0  0  2  0  0  0  0  0  0
  188.6810  178.1230  140.1360 O   0  0  0  0  0  0  0  0  0  0  0  0
  188.0550  179.0470  140.9830 C   0  0  0  0  0  2  0  0  0  0  0  0
  187.4680  178.3010  142.1630 C   0  0  2  0  0  3  0  0  0  0  0  0
  188.1680  176.9670  142.1380 C   0  0  2  0  0  3  0  0  0  0  0  0
  185.9790  178.0860  141.9600 C   0  0  0  0  0  2  0  0  0  0  0  0
  185.1910  178.7820  143.0580 C   0  0  0  0  0  2  0  0  0  0  0  0
  185.4420  178.1120  144.3960 C   0  0  0  0  0  2  0  0  0  0  0  0
  185.2770  179.1080  145.5290 C   0  0  1  0  0  3  0  0  0  0  0  0
  183.9660  179.0150  146.0310 O   0  0  0  0  0  0  0  0  0  0  0  0
  184.9770  178.3920  146.7860 C   0  0  0  0  0  2  0  0  0  0  0  0
  3 14  1  0  0  0  0
  4  3  1  0  0  0  0
  5 10  2  0  0  0  0
  6 12  1  0  0  0  0
  6  4  1  0  0  0  0
  7  6  2  0  0  0  0
  8 11  1  0  0  0  0
  9  2  1  0  0  0  0
  9  1  2  0  0  0  0
 10  1  1  0  0  0  0
 10 13  1  0  0  0  0
 11 14  2  0  0  0  0
 11  5  1  0  0  0  0
 12  8  1  6  0  0  0
 14  9  1  0  0  0  0
 16 17  1  0  0  0  0
 16 15  1  0  0  0  0
 17 18  1  0  0  0  0
 18 20  1  6  0  0  0
 19 15  1  6  0  0  0
 19 18  1  0  0  0  0
 19 12  1  0  0  0  0
 20 21  1  0  0  0  0
 21 22  1  0  0  0  0
 23 22  1  6  0  0  0
 23 24  1  0  0  0  0
 23 25  1  0  0  0  0
 24 25  1  0  0  0  0
M  END
>  <MODEL>
2

>  <REMARK>
 VINA RESULT:      -8.1      2.826      5.281
  Name = 
  5 active torsions:
  status: ('A' for Active; 'I' for Inactive)
    1  A    between atoms: C_3  and  C_9
    2  A    between atoms: C_9  and  C_21
    3  A    between atoms: C_11  and  C_19
    4  A    between atoms: C_11  and  C_21
    5  A    between atoms: C_22  and  C_25
                            x       y       z     vdW  Elec       q    Type
                         _______ _______ _______ _____ _____    ______ ____

>  <TORSDO>
F 5

$$$$
=
 OpenBabel11062413523D

 25 28  0  0  1  0  0  0  0  0999 V2000
  181.7470  178.6130  141.5770 C   0  0  0  0  0  3  0  0  0  0  0  0
  181.1230  178.8110  143.9120 N   0  0  0  0  0  1  0  0  0  0  0  0
  183.8260  179.0800  144.7190 C   0  0  0  0  0  2  0  0  0  0  0  0
  185.2970  179.1530  145.1160 C   0  0  0  0  0  2  0  0  0  0  0  0
  184.0260  178.7200  140.9030 N   0  0  0  0  0  0  0  0  0  0  0  0
  186.0360  177.9470  144.6260 C   0  0  0  0  0  0  0  0  0  0  0  0
  186.1890  176.9940  145.3730 O   0  0  0  0  0  0  0  0  0  0  0  0
  185.9210  179.0470  142.3990 C   0  0  0  0  0  2  0  0  0  0  0  0
  182.1320  178.7860  142.9050 C   0  0  0  0  0  0  0  0  0  0  0  0
  182.7160  178.5820  140.5810 C   0  0  0  0  0  0  0  0  0  0  0  0
  184.4470  178.8910  142.1850 C   0  0  0  0  0  0  0  0  0  0  0  0
  186.5020  177.8750  143.1940 C   0  0  1  0  0  3  0  0  0  0  0  0
  182.3330  178.4060  139.2230 N   0  0  0  0  0  1  0  0  0  0  0  0
  183.4930  178.9260  143.2420 C   0  0  0  0  0  0  0  0  0  0  0  0
  188.5100  177.3420  141.7690 C   0  0  0  0  0  2  0  0  0  0  0  0
  189.6700  176.5860  141.9860 O   0  0  0  0  0  0  0  0  0  0  0  0
  189.4920  176.0070  143.2500 C   0  0  0  0  0  2  0  0  0  0  0  0
  188.6630  176.9470  144.1000 C   0  0  2  0  0  3  0  0  0  0  0  0
  188.0350  177.8850  143.1030 C   0  0  2  0  0  3  0  0  0  0  0  0
  189.5600  177.7400  145.0330 C   0  0  0  0  0  2  0  0  0  0  0  0
  189.0400  177.6600  146.4590 C   0  0  0  0  0  2  0  0  0  0  0  0
  189.9530  176.7920  147.3080 C   0  0  0  0  0  2  0  0  0  0  0  0
  191.3760  176.8500  146.7860 C   0  0  1  0  0  3  0  0  0  0  0  0
  192.2640  176.7520  147.8730 O   0  0  0  0  0  0  0  0  0  0  0  0
  192.0780  175.5890  147.1040 C   0  0  0  0  0  2  0  0  0  0  0  0
  1  9  1  0  0  0  0
  3  4  1  0  0  0  0
  5 11  2  0  0  0  0
  6  4  1  0  0  0  0
  6  7  2  0  0  0  0
  9 14  2  0  0  0  0
  9  2  1  0  0  0  0
 10  5  1  0  0  0  0
 10  1  2  0  0  0  0
 11  8  1  0  0  0  0
 11 14  1  0  0  0  0
 12  8  1  6  0  0  0
 12  6  1  0  0  0  0
 13 10  1  0  0  0  0
 14  3  1  0  0  0  0
 15 16  1  0  0  0  0
 16 17  1  0  0  0  0
 17 18  1  0  0  0  0
 18 20  1  1  0  0  0
 19 15  1  6  0  0  0
 19 12  1  0  0  0  0
 19 18  1  0  0  0  0
 20 21  1  0  0  0  0
 21 22  1  0  0  0  0
 23 25  1  0  0  0  0
 23 22  1  1  0  0  0
 23 24  1  0  0  0  0
 25 24  1  0  0  0  0
M  END
>  <MODEL>
3

>  <REMARK>
 VINA RESULT:      -8.0      2.302      5.760
  Name = 
  5 active torsions:
  status: ('A' for Active; 'I' for Inactive)
    1  A    between atoms: C_3  and  C_9
    2  A    between atoms: C_9  and  C_21
    3  A    between atoms: C_11  and  C_19
    4  A    between atoms: C_11  and  C_21
    5  A    between atoms: C_22  and  C_25
                            x       y       z     vdW  Elec       q    Type
                         _______ _______ _______ _____ _____    ______ ____

>  <TORSDO>
F 5

$$$$
=
 OpenBabel11062413523D

 25 28  0  0  1  0  0  0  0  0999 V2000
  187.5750  178.0880  147.2270 C   0  0  0  0  0  3  0  0  0  0  0  0
  185.3640  179.0430  146.9390 N   0  0  0  0  0  1  0  0  0  0  0  0
  185.2870  178.3030  144.2040 C   0  0  0  0  0  2  0  0  0  0  0  0
  185.3160  177.9480  142.7210 C   0  0  0  0  0  2  0  0  0  0  0  0
  188.6970  177.0270  145.4170 N   0  0  0  0  0  0  0  0  0  0  0  0
  186.5030  178.5660  142.0530 C   0  0  0  0  0  0  0  0  0  0  0  0
  186.3810  179.6410  141.4890 O   0  0  0  0  0  0  0  0  0  0  0  0
  187.8000  176.7610  143.1680 C   0  0  0  0  0  2  0  0  0  0  0  0
  186.4870  178.3520  146.3960 C   0  0  0  0  0  0  0  0  0  0  0  0
  188.6810  177.4190  146.7150 C   0  0  0  0  0  0  0  0  0  0  0  0
  187.6580  177.2630  144.5720 C   0  0  0  0  0  0  0  0  0  0  0  0
  187.8590  177.9130  142.1610 C   0  0  1  0  0  3  0  0  0  0  0  0
  189.7950  177.1450  147.5550 N   0  0  0  0  0  1  0  0  0  0  0  0
  186.5040  177.9480  145.0460 C   0  0  0  0  0  0  0  0  0  0  0  0
  189.8550  177.3950  140.7150 C   0  0  0  0  0  2  0  0  0  0  0  0
  190.2290  177.7760  139.4200 O   0  0  0  0  0  0  0  0  0  0  0  0
  189.2470  178.6900  139.0150 C   0  0  0  0  0  2  0  0  0  0  0  0
  187.9360  178.3160  139.6750 C   0  0  2  0  0  3  0  0  0  0  0  0
  188.3410  177.3970  140.7980 C   0  0  2  0  0  3  0  0  0  0  0  0
  187.0570  177.5540  138.6990 C   0  0  0  0  0  2  0  0  0  0  0  0
  186.0680  178.4960  138.0340 C   0  0  0  0  0  2  0  0  0  0  0  0
  184.6440  178.0300  138.2810 C   0  0  0  0  0  2  0  0  0  0  0  0
  183.9890  178.8720  139.3600 C   0  0  1  0  0  3  0  0  0  0  0  0
  184.2590  180.2290  139.1050 O   0  0  0  0  0  0  0  0  0  0  0  0
  182.9780  179.7640  138.7540 C   0  0  0  0  0  2  0  0  0  0  0  0
  3 14  1  0  0  0  0
  4  3  1  0  0  0  0
  5 10  2  0  0  0  0
  6 12  1  0  0  0  0
  6  4  1  0  0  0  0
  7  6  2  0  0  0  0
  8 11  1  0  0  0  0
  9  2  1  0  0  0  0
  9  1  2  0  0  0  0
 10  1  1  0  0  0  0
 10 13  1  0  0  0  0
 11 14  2  0  0  0  0
 11  5  1  0  0  0  0
 12  8  1  1  0  0  0
 14  9  1  0  0  0  0
 16 15  1  0  0  0  0
 17 16  1  0  0  0  0
 17 18  1  0  0  0  0
 18 20  1  6  0  0  0
 18 19  1  0  0  0  0
 19 15  1  1  0  0  0
 19 12  1  0  0  0  0
 21 22  1  0  0  0  0
 21 20  1  0  0  0  0
 23 22  1  6  0  0  0
 24 23  1  0  0  0  0
 25 24  1  0  0  0  0
 25 23  1  0  0  0  0
M  END
>  <MODEL>
4

>  <REMARK>
 VINA RESULT:      -7.6      3.149      6.497
  Name = 
  5 active torsions:
  status: ('A' for Active; 'I' for Inactive)
    1  A    between atoms: C_3  and  C_9
    2  A    between atoms: C_9  and  C_21
    3  A    between atoms: C_11  and  C_19
    4  A    between atoms: C_11  and  C_21
    5  A    between atoms: C_22  and  C_25
                            x       y       z     vdW  Elec       q    Type
                         _______ _______ _______ _____ _____    ______ ____

>  <TORSDO>
F 5

$$$$
=
 OpenBabel11062413523D

 25 28  0  0  1  0  0  0  0  0999 V2000
  182.8770  178.5810  141.7300 C   0  0  0  0  0  3  0  0  0  0  0  0
  181.9730  179.1170  143.9160 N   0  0  0  0  0  1  0  0  0  0  0  0
  184.5460  179.0770  145.1030 C   0  0  0  0  0  2  0  0  0  0  0  0
  185.9400  178.9770  145.7150 C   0  0  0  0  0  2  0  0  0  0  0  0
  185.2150  178.2820  141.4090 N   0  0  0  0  0  0  0  0  0  0  0  0
  186.5380  177.6320  145.4490 C   0  0  0  0  0  0  0  0  0  0  0  0
  186.4320  176.7520  146.2880 O   0  0  0  0  0  0  0  0  0  0  0  0
  186.9100  178.4900  143.1450 C   0  0  0  0  0  2  0  0  0  0  0  0
  183.0960  178.8380  143.0820 C   0  0  0  0  0  0  0  0  0  0  0  0
  183.9570  178.3020  140.9010 C   0  0  0  0  0  0  0  0  0  0  0  0
  185.4750  178.5280  142.7210 C   0  0  0  0  0  0  0  0  0  0  0  0
  187.1810  177.3380  144.1170 C   0  0  1  0  0  3  0  0  0  0  0  0
  183.7440  178.0390  139.5200 N   0  0  0  0  0  1  0  0  0  0  0  0
  184.4010  178.8140  143.6120 C   0  0  0  0  0  0  0  0  0  0  0  0
  189.2470  177.8740  145.4540 C   0  0  0  0  0  2  0  0  0  0  0  0
  190.5110  178.3750  145.1130 O   0  0  0  0  0  0  0  0  0  0  0  0
  190.4250  178.6670  143.7440 C   0  0  0  0  0  2  0  0  0  0  0  0
  189.4600  177.6940  143.1010 C   0  0  2  0  0  3  0  0  0  0  0  0
  188.6940  177.1160  144.2620 C   0  0  2  0  0  3  0  0  0  0  0  0
  190.2230  176.5810  142.4050 C   0  0  0  0  0  2  0  0  0  0  0  0
  190.0730  176.7010  140.8980 C   0  0  0  0  0  2  0  0  0  0  0  0
  189.1260  177.8350  140.5480 C   0  0  0  0  0  2  0  0  0  0  0  0
  188.4130  177.5470  139.2400 C   0  0  1  0  0  3  0  0  0  0  0  0
  187.5680  178.6300  138.9340 O   0  0  0  0  0  0  0  0  0  0  0  0
  188.7860  178.5620  138.2330 C   0  0  0  0  0  2  0  0  0  0  0  0
  1  9  1  0  0  0  0
  3  4  1  0  0  0  0
  5 11  2  0  0  0  0
  6  4  1  0  0  0  0
  6  7  2  0  0  0  0
  9 14  2  0  0  0  0
  9  2  1  0  0  0  0
 10  5  1  0  0  0  0
 10  1  2  0  0  0  0
 11  8  1  0  0  0  0
 11 14  1  0  0  0  0
 12  8  1  6  0  0  0
 12 19  1  0  0  0  0
 12  6  1  0  0  0  0
 13 10  1  0  0  0  0
 14  3  1  0  0  0  0
 16 15  1  0  0  0  0
 17 16  1  0  0  0  0
 18 20  1  1  0  0  0
 18 17  1  0  0  0  0
 18 19  1  0  0  0  0
 19 15  1  1  0  0  0
 21 20  1  0  0  0  0
 22 21  1  0  0  0  0
 23 22  1  1  0  0  0
 24 23  1  0  0  0  0
 25 24  1  0  0  0  0
 25 23  1  0  0  0  0
M  END
>  <MODEL>
5

>  <REMARK>
 VINA RESULT:      -7.2      2.313      5.353
  Name = 
  5 active torsions:
  status: ('A' for Active; 'I' for Inactive)
    1  A    between atoms: C_3  and  C_9
    2  A    between atoms: C_9  and  C_21
    3  A    between atoms: C_11  and  C_19
    4  A    between atoms: C_11  and  C_21
    5  A    between atoms: C_22  and  C_25
                            x       y       z     vdW  Elec       q    Type
                         _______ _______ _______ _____ _____    ______ ____

>  <TORSDO>
F 5

$$$$
=
 OpenBabel11062413523D

 25 28  0  0  1  0  0  0  0  0999 V2000
  187.4590  178.3100  147.4600 C   0  0  0  0  0  3  0  0  0  0  0  0
  185.2300  179.1660  147.0320 N   0  0  0  0  0  1  0  0  0  0  0  0
  185.2780  178.2420  144.3530 C   0  0  0  0  0  2  0  0  0  0  0  0
  185.3730  177.7900  142.9000 C   0  0  0  0  0  2  0  0  0  0  0  0
  188.6810  177.1710  145.7670 N   0  0  0  0  0  0  0  0  0  0  0  0
  186.5630  178.4040  142.2320 C   0  0  0  0  0  0  0  0  0  0  0  0
  186.4270  179.4330  141.5920 O   0  0  0  0  0  0  0  0  0  0  0  0
  187.8770  176.7240  143.5110 C   0  0  0  0  0  2  0  0  0  0  0  0
  186.3950  178.4800  146.5770 C   0  0  0  0  0  0  0  0  0  0  0  0
  188.6050  177.6480  147.0340 C   0  0  0  0  0  0  0  0  0  0  0  0
  187.6670  177.3130  144.8720 C   0  0  0  0  0  0  0  0  0  0  0  0
  187.9340  177.8070  142.4310 C   0  0  1  0  0  3  0  0  0  0  0  0
  189.6960  177.4710  147.9280 N   0  0  0  0  0  1  0  0  0  0  0  0
  186.4740  177.9880  145.2590 C   0  0  0  0  0  0  0  0  0  0  0  0
  189.7090  176.3640  141.3780 C   0  0  0  0  0  2  0  0  0  0  0  0
  190.6160  176.5660  140.3290 O   0  0  0  0  0  0  0  0  0  0  0  0
  190.4400  177.9050  139.9530 C   0  0  0  0  0  2  0  0  0  0  0  0
  188.9960  178.2900  140.1970 C   0  0  2  0  0  3  0  0  0  0  0  0
  188.4830  177.2190  141.1230 C   0  0  2  0  0  3  0  0  0  0  0  0
  188.2130  178.2420  138.8970 C   0  0  0  0  0  2  0  0  0  0  0  0
  189.0310  178.8440  137.7660 C   0  0  0  0  0  2  0  0  0  0  0  0
  188.7550  178.1110  136.4660 C   0  0  0  0  0  2  0  0  0  0  0  0
  187.6780  177.0610  136.6660 C   0  0  1  0  0  3  0  0  0  0  0  0
  186.5860  177.3640  135.8330 O   0  0  0  0  0  0  0  0  0  0  0  0
  187.4430  176.3370  135.3990 C   0  0  0  0  0  2  0  0  0  0  0  0
  3 14  1  0  0  0  0
  4  3  1  0  0  0  0
  5 10  2  0  0  0  0
  6 12  1  0  0  0  0
  6  4  1  0  0  0  0
  7  6  2  0  0  0  0
  8 11  1  0  0  0  0
  9  2  1  0  0  0  0
  9  1  2  0  0  0  0
 10  1  1  0  0  0  0
 10 13  1  0  0  0  0
 11 14  2  0  0  0  0
 11  5  1  0  0  0  0
 12  8  1  1  0  0  0
 14  9  1  0  0  0  0
 16 15  1  0  0  0  0
 17 18  1  0  0  0  0
 17 16  1  0  0  0  0
 18 20  1  6  0  0  0
 18 19  1  0  0  0  0
 19 15  1  1  0  0  0
 19 12  1  0  0  0  0
 21 20  1  0  0  0  0
 22 21  1  0  0  0  0
 23 22  1  6  0  0  0
 24 23  1  0  0  0  0
 25 24  1  0  0  0  0
 25 23  1  0  0  0  0
M  END
>  <MODEL>
6

>  <REMARK>
 VINA RESULT:      -7.2      3.476      7.083
  Name = 
  5 active torsions:
  status: ('A' for Active; 'I' for Inactive)
    1  A    between atoms: C_3  and  C_9
    2  A    between atoms: C_9  and  C_21
    3  A    between atoms: C_11  and  C_19
    4  A    between atoms: C_11  and  C_21
    5  A    between atoms: C_22  and  C_25
                            x       y       z     vdW  Elec       q    Type
                         _______ _______ _______ _____ _____    ______ ____

>  <TORSDO>
F 5

$$$$
=
 OpenBabel11062413523D

 25 28  0  0  1  0  0  0  0  0999 V2000
  190.5420  174.9610  135.8590 C   0  0  0  0  0  3  0  0  0  0  0  0
  189.0600  176.6490  134.9450 N   0  0  0  0  0  1  0  0  0  0  0  0
  189.1670  178.1800  137.3270 C   0  0  0  0  0  2  0  0  0  0  0  0
  189.1970  178.9380  138.6500 C   0  0  0  0  0  2  0  0  0  0  0  0
  191.4280  175.1670  138.0570 N   0  0  0  0  0  0  0  0  0  0  0  0
  188.7460  178.0580  139.7730 C   0  0  0  0  0  0  0  0  0  0  0  0
  187.5780  178.0870  140.1250 O   0  0  0  0  0  0  0  0  0  0  0  0
  190.9970  177.0200  139.5790 C   0  0  0  0  0  2  0  0  0  0  0  0
  189.8630  176.1670  136.0200 C   0  0  0  0  0  0  0  0  0  0  0  0
  191.3270  174.4720  136.8970 C   0  0  0  0  0  0  0  0  0  0  0  0
  190.7840  176.3480  138.2570 C   0  0  0  0  0  0  0  0  0  0  0  0
  189.7040  177.0750  140.3970 C   0  0  1  0  0  3  0  0  0  0  0  0
  192.0230  173.2420  136.7420 N   0  0  0  0  0  1  0  0  0  0  0  0
  189.9650  176.8890  137.2260 C   0  0  0  0  0  0  0  0  0  0  0  0
  191.5140  177.5480  142.0840 C   0  0  0  0  0  2  0  0  0  0  0  0
  191.8010  177.0340  143.3560 O   0  0  0  0  0  0  0  0  0  0  0  0
  190.8660  176.0090  143.5510 C   0  0  0  0  0  2  0  0  0  0  0  0
  189.5930  176.3690  142.8140 C   0  0  2  0  0  3  0  0  0  0  0  0
  190.0180  177.4490  141.8530 C   0  0  2  0  0  3  0  0  0  0  0  0
  188.5700  176.9370  143.7810 C   0  0  0  0  0  2  0  0  0  0  0  0
  189.2300  177.2790  145.1070 C   0  0  0  0  0  2  0  0  0  0  0  0
  188.1790  177.4890  146.1820 C   0  0  0  0  0  2  0  0  0  0  0  0
  188.6960  177.0160  147.5290 C   0  0  1  0  0  3  0  0  0  0  0  0
  189.3510  178.0860  148.1660 O   0  0  0  0  0  0  0  0  0  0  0  0
  188.0510  177.7870  148.6110 C   0  0  0  0  0  2  0  0  0  0  0  0
  1  9  2  0  0  0  0
  1 10  1  0  0  0  0
  2  9  1  0  0  0  0
  3  4  1  0  0  0  0
  4  6  1  0  0  0  0
  5 11  1  0  0  0  0
  6  7  2  0  0  0  0
  6 12  1  0  0  0  0
  9 14  1  0  0  0  0
 10  5  2  0  0  0  0
 11  8  1  0  0  0  0
 12  8  1  6  0  0  0
 12 19  1  0  0  0  0
 13 10  1  0  0  0  0
 14  3  1  0  0  0  0
 14 11  2  0  0  0  0
 15 16  1  0  0  0  0
 16 17  1  0  0  0  0
 18 17  1  0  0  0  0
 18 20  1  1  0  0  0
 19 15  1  6  0  0  0
 19 18  1  0  0  0  0
 20 21  1  0  0  0  0
 21 22  1  0  0  0  0
 23 22  1  6  0  0  0
 23 24  1  0  0  0  0
 23 25  1  0  0  0  0
 24 25  1  0  0  0  0
M  END
>  <MODEL>
7

>  <REMARK>
 VINA RESULT:      -7.1      3.114      5.420
  Name = 
  5 active torsions:
  status: ('A' for Active; 'I' for Inactive)
    1  A    between atoms: C_3  and  C_9
    2  A    between atoms: C_9  and  C_21
    3  A    between atoms: C_11  and  C_19
    4  A    between atoms: C_11  and  C_21
    5  A    between atoms: C_22  and  C_25
                            x       y       z     vdW  Elec       q    Type
                         _______ _______ _______ _____ _____    ______ ____

>  <TORSDO>
F 5

$$$$
=
 OpenBabel11062413523D

 25 28  0  0  1  0  0  0  0  0999 V2000
  189.2810  177.0970  145.0510 C   0  0  0  0  0  3  0  0  0  0  0  0
  188.3220  177.8290  147.1550 N   0  0  0  0  0  1  0  0  0  0  0  0
  185.7860  178.2640  145.9680 C   0  0  0  0  0  2  0  0  0  0  0  0
  184.4580  178.5500  145.2750 C   0  0  0  0  0  2  0  0  0  0  0  0
  187.9640  177.0000  143.0720 N   0  0  0  0  0  0  0  0  0  0  0  0
  184.6470  179.5170  144.1490 C   0  0  0  0  0  0  0  0  0  0  0  0
  184.4610  180.7070  144.3440 O   0  0  0  0  0  0  0  0  0  0  0  0
  185.6010  177.5740  142.9250 C   0  0  0  0  0  2  0  0  0  0  0  0
  188.1730  177.5510  145.7650 C   0  0  0  0  0  0  0  0  0  0  0  0
  189.1570  176.8250  143.6940 C   0  0  0  0  0  0  0  0  0  0  0  0
  186.8580  177.4410  143.7290 C   0  0  0  0  0  0  0  0  0  0  0  0
  185.1560  179.0350  142.8140 C   0  0  1  0  0  3  0  0  0  0  0  0
  190.2810  176.3610  142.9570 N   0  0  0  0  0  1  0  0  0  0  0  0
  186.9340  177.7370  145.1200 C   0  0  0  0  0  0  0  0  0  0  0  0
  182.7210  178.7600  142.2340 C   0  0  0  0  0  2  0  0  0  0  0  0
  182.0470  178.0900  141.2050 O   0  0  0  0  0  0  0  0  0  0  0  0
  183.0510  177.4200  140.4920 C   0  0  0  0  0  2  0  0  0  0  0  0
  184.3260  178.2330  140.5740 C   0  0  2  0  0  3  0  0  0  0  0  0
  184.0860  179.1770  141.7220 C   0  0  2  0  0  3  0  0  0  0  0  0
  184.5180  179.0370  139.3000 C   0  0  0  0  0  2  0  0  0  0  0  0
  185.6350  178.4380  138.4620 C   0  0  0  0  0  2  0  0  0  0  0  0
  186.8860  178.2510  139.3030 C   0  0  0  0  0  2  0  0  0  0  0  0
  188.0740  177.9170  138.4200 C   0  0  1  0  0  3  0  0  0  0  0  0
  188.9070  179.0470  138.3300 O   0  0  0  0  0  0  0  0  0  0  0  0
  189.3230  178.0240  139.2020 C   0  0  0  0  0  2  0  0  0  0  0  0
  1  9  1  0  0  0  0
  4  3  1  0  0  0  0
  5 10  1  0  0  0  0
  5 11  2  0  0  0  0
  6  7  2  0  0  0  0
  6  4  1  0  0  0  0
  8 11  1  0  0  0  0
  9  2  1  0  0  0  0
 10  1  2  0  0  0  0
 11 14  1  0  0  0  0
 12  8  1  1  0  0  0
 12  6  1  0  0  0  0
 13 10  1  0  0  0  0
 14  9  2  0  0  0  0
 14  3  1  0  0  0  0
 16 15  1  0  0  0  0
 17 18  1  0  0  0  0
 17 16  1  0  0  0  0
 18 20  1  6  0  0  0
 18 19  1  0  0  0  0
 19 15  1  1  0  0  0
 19 12  1  0  0  0  0
 21 20  1  0  0  0  0
 21 22  1  0  0  0  0
 23 25  1  0  0  0  0
 23 22  1  1  0  0  0
 24 23  1  0  0  0  0
 24 25  1  0  0  0  0
M  END
>  <MODEL>
8

>  <REMARK>
 VINA RESULT:      -7.0      2.751      6.879
  Name = 
  5 active torsions:
  status: ('A' for Active; 'I' for Inactive)
    1  A    between atoms: C_3  and  C_9
    2  A    between atoms: C_9  and  C_21
    3  A    between atoms: C_11  and  C_19
    4  A    between atoms: C_11  and  C_21
    5  A    between atoms: C_22  and  C_25
                            x       y       z     vdW  Elec       q    Type
                         _______ _______ _______ _____ _____    ______ ____

>  <TORSDO>
F 5

$$$$
=
 OpenBabel11062413523D

 25 28  0  0  1  0  0  0  0  0999 V2000
  185.5690  177.9580  144.4200 C   0  0  0  0  0  3  0  0  0  0  0  0
  187.3120  177.4320  146.0230 N   0  0  0  0  0  1  0  0  0  0  0  0
  189.3450  177.7520  144.0750 C   0  0  0  0  0  2  0  0  0  0  0  0
  190.4010  177.8680  142.9800 C   0  0  0  0  0  2  0  0  0  0  0  0
  186.1000  178.4890  142.1630 N   0  0  0  0  0  0  0  0  0  0  0  0
  190.0970  176.9310  141.8530 C   0  0  0  0  0  0  0  0  0  0  0  0
  190.6220  175.8300  141.8310 O   0  0  0  0  0  0  0  0  0  0  0  0
  188.3490  178.5870  141.2320 C   0  0  0  0  0  2  0  0  0  0  0  0
  186.9250  177.7950  144.6990 C   0  0  0  0  0  0  0  0  0  0  0  0
  185.1720  178.3070  143.1350 C   0  0  0  0  0  0  0  0  0  0  0  0
  187.4320  178.3410  142.3900 C   0  0  0  0  0  0  0  0  0  0  0  0
  189.0770  177.3090  140.8080 C   0  0  1  0  0  3  0  0  0  0  0  0
  183.7910  178.4760  142.8400 N   0  0  0  0  0  1  0  0  0  0  0  0
  187.8900  177.9800  143.6890 C   0  0  0  0  0  0  0  0  0  0  0  0
  189.1510  178.7100  138.7160 C   0  0  0  0  0  2  0  0  0  0  0  0
  189.0510  178.4080  137.3520 O   0  0  0  0  0  0  0  0  0  0  0  0
  188.7710  177.0350  137.3060 C   0  0  0  0  0  2  0  0  0  0  0  0
  189.4270  176.3680  138.4970 C   0  0  2  0  0  3  0  0  0  0  0  0
  189.7320  177.5070  139.4330 C   0  0  2  0  0  3  0  0  0  0  0  0
  190.7280  175.7070  138.0760 C   0  0  0  0  0  2  0  0  0  0  0  0
  191.9130  176.5640  138.4880 C   0  0  0  0  0  2  0  0  0  0  0  0
  193.2110  175.9360  138.0120 C   0  0  0  0  0  2  0  0  0  0  0  0
  193.3980  176.1660  136.5240 C   0  0  1  0  0  3  0  0  0  0  0  0
  194.5890  176.8860  136.3200 O   0  0  0  0  0  0  0  0  0  0  0  0
  194.6360  175.5030  136.0660 C   0  0  0  0  0  2  0  0  0  0  0  0
  1  9  1  0  0  0  0
  4  3  1  0  0  0  0
  5 11  2  0  0  0  0
  5 10  1  0  0  0  0
  6  4  1  0  0  0  0
  7  6  2  0  0  0  0
  8 11  1  0  0  0  0
  9  2  1  0  0  0  0
 10  1  2  0  0  0  0
 11 14  1  0  0  0  0
 12  8  1  1  0  0  0
 12  6  1  0  0  0  0
 13 10  1  0  0  0  0
 14  3  1  0  0  0  0
 14  9  2  0  0  0  0
 16 15  1  0  0  0  0
 17 16  1  0  0  0  0
 17 18  1  0  0  0  0
 18 20  1  6  0  0  0
 18 19  1  0  0  0  0
 19 15  1  6  0  0  0
 19 12  1  0  0  0  0
 20 21  1  0  0  0  0
 22 21  1  0  0  0  0
 23 22  1  1  0  0  0
 24 23  1  0  0  0  0
 25 24  1  0  0  0  0
 25 23  1  0  0  0  0
M  END
>  <MODEL>
9

>  <REMARK>
 VINA RESULT:      -6.9      3.652      7.719
  Name = 
  5 active torsions:
  status: ('A' for Active; 'I' for Inactive)
    1  A    between atoms: C_3  and  C_9
    2  A    between atoms: C_9  and  C_21
    3  A    between atoms: C_11  and  C_19
    4  A    between atoms: C_11  and  C_21
    5  A    between atoms: C_22  and  C_25
                            x       y       z     vdW  Elec       q    Type
                         _______ _______ _______ _____ _____    ______ ____

>  <TORSDO>
F 5

$$$$
