=
 OpenBabel11062413093D

 40 43  0  0  1  0  0  0  0  0999 V2000
  182.2330  178.6210  142.0330 C   0  0  0  0  0  2  0  0  0  0  0  0
  181.7480  179.7960  139.4150 C   0  0  0  0  0  0  0  0  0  0  0  0
  180.7590  179.6550  140.2480 N   0  0  0  0  0  0  0  0  0  0  0  0
  183.1500  179.3050  139.7610 C   0  0  1  0  0  3  0  0  0  0  0  0
  179.8710  178.8340  142.2380 O   0  0  0  0  0  0  0  0  0  0  0  0
  181.5110  180.6120  138.1910 C   0  0  0  0  0  1  0  0  0  0  0  0
  183.1240  178.2290  140.8620 C   0  0  1  0  0  3  0  0  0  0  0  0
  180.8880  179.0130  141.5210 C   0  0  0  0  0  0  0  0  0  0  0  0
  183.6710  177.3400  138.2130 C   0  0  0  0  0  2  0  0  0  0  0  0
  186.0590  177.7690  137.8900 C   0  0  2  0  0  3  0  0  0  0  0  0
  185.4680  178.8920  138.7370 C   0  0  0  0  0  2  0  0  0  0  0  0
  183.9640  178.7820  138.5660 C   0  0  2  0  0  3  0  0  0  0  0  0
  185.0850  175.3900  137.5410 C   0  0  0  0  0  1  0  0  0  0  0  0
  184.8820  176.8940  137.4240 C   0  0  1  0  0  3  0  0  0  0  0  0
  189.5910  177.2230  138.0630 C   0  0  2  0  0  0  0  0  0  0  0  0
  189.8040  178.3970  137.3370 O   0  0  0  0  0  1  0  0  0  0  0  0
  188.2810  176.6030  137.6010 C   0  0  0  0  0  2  0  0  0  0  0  0
  187.2150  177.0370  138.5950 C   0  0  1  0  0  3  0  0  0  0  0  0
  187.9070  177.8900  139.6510 C   0  0  0  0  0  2  0  0  0  0  0  0
  189.3860  177.5830  139.5340 C   0  0  1  0  0  3  0  0  0  0  0  0
  190.7520  176.2870  137.8460 C   0  0  0  0  0  0  0  0  0  0  0  0
  191.9130  176.7460  137.6850 O   0  0  0  0  0  0  0  0  0  0  0  0
  190.5660  174.9090  137.8960 O   0  0  0  0  0  1  0  0  0  0  0  0
  189.6890  176.5040  140.3760 O   0  0  0  0  0  0  0  0  0  0  0  0
  189.9610  178.5070  142.2540 O   0  0  0  0  0  1  0  0  0  0  0  0
  190.6940  177.1360  141.5890 P   0  0  0  0  0  0  0  0  0  0  0  0
  192.0310  177.5270  141.0000 O   0  0  0  0  0  0  0  0  0  0  0  0
  190.9290  175.9870  142.8090 O   0  0  0  0  0  1  0  0  0  0  0  0
  184.4400  177.8970  141.3100 O   0  0  0  0  0  0  0  0  0  0  0  0
  185.1830  178.6770  142.2050 C   0  0  0  0  0  0  0  0  0  0  0  0
  185.6780  179.7810  141.8470 O   0  0  0  0  0  0  0  0  0  0  0  0
  185.4150  178.1610  143.5890 C   0  0  2  0  0  3  0  0  0  0  0  0
  185.1500  178.6550  146.0350 C   0  0  0  0  0  2  0  0  0  0  0  0
  187.1260  177.3530  145.2420 C   0  0  0  0  0  2  0  0  0  0  0  0
  187.3230  176.8610  142.9210 O   0  0  0  0  0  1  0  0  0  0  0  0
  184.9090  179.1700  144.6200 C   0  0  0  0  0  2  0  0  0  0  0  0
  186.6360  178.3890  146.2500 C   0  0  2  0  0  3  0  0  0  0  0  0
  186.9000  177.8460  143.8150 C   0  0  1  0  0  3  0  0  0  0  0  0
  186.8550  177.8840  147.6640 C   0  0  0  0  0  2  0  0  0  0  0  0
  188.0150  178.4450  148.2000 O   0  0  0  0  0  1  0  0  0  0  0  0
  2  3  2  0  0  0  0
  3  8  1  0  0  0  0
  4  2  1  6  0  0  0
  4  7  1  0  0  0  0
  6  2  1  0  0  0  0
  7 29  1  1  0  0  0
  7  1  1  0  0  0  0
  8  1  1  0  0  0  0
  8  5  2  0  0  0  0
 10 18  1  0  0  0  0
 10 11  1  1  0  0  0
 12  9  1  1  0  0  0
 12 11  1  0  0  0  0
 12  4  1  0  0  0  0
 14 13  1  1  0  0  0
 14 10  1  0  0  0  0
 14  9  1  0  0  0  0
 15 16  1  6  0  0  0
 15 20  1  0  0  0  0
 17 15  1  0  0  0  0
 18 17  1  6  0  0  0
 18 19  1  0  0  0  0
 20 19  1  0  0  0  0
 20 24  1  1  0  0  0
 21 23  1  0  0  0  0
 21 15  1  0  0  0  0
 22 21  2  0  0  0  0
 24 26  1  0  0  0  0
 26 25  1  0  0  0  0
 26 28  1  0  0  0  0
 27 26  2  0  0  0  0
 29 30  1  0  0  0  0
 31 30  2  0  0  0  0
 32 30  1  6  0  0  0
 32 38  1  0  0  0  0
 32 36  1  0  0  0  0
 33 37  1  0  0  0  0
 34 37  1  0  0  0  0
 36 33  1  0  0  0  0
 37 39  1  1  0  0  0
 38 35  1  6  0  0  0
 38 34  1  0  0  0  0
 39 40  1  0  0  0  0
M  END
>  <MODEL>
1

>  <REMARK>
 VINA RESULT:      -7.9      0.000      0.000
  Name = 
  9 active torsions:
  status: ('A' for Active; 'I' for Inactive)
    1  A    between atoms: C_1  and  C_2
    2  A    between atoms: C_1  and  O_37
    3  A    between atoms: C_5  and  C_6
    4  A    between atoms: C_7  and  C_35
    5  A    between atoms: O_14  and  P_24
    6  A    between atoms: O_14  and  C_32
    7  A    between atoms: C_18  and  C_33
    8  A    between atoms: C_21  and  C_27
    9  A    between atoms: C_34  and  O_37
                            x       y       z     vdW  Elec       q    Type
                         _______ _______ _______ _____ _____    ______ ____

>  <TORSDO>
F 9

$$$$
=
 OpenBabel11062413093D

 40 43  0  0  1  0  0  0  0  0999 V2000
  182.4460  178.6850  142.9150 C   0  0  0  0  0  2  0  0  0  0  0  0
  180.7900  179.7340  140.7640 C   0  0  0  0  0  0  0  0  0  0  0  0
  180.3030  179.6550  141.9680 N   0  0  0  0  0  0  0  0  0  0  0  0
  182.1940  179.2320  140.4440 C   0  0  1  0  0  3  0  0  0  0  0  0
  180.4510  178.9560  144.1850 O   0  0  0  0  0  0  0  0  0  0  0  0
  180.0040  180.4900  139.7490 C   0  0  0  0  0  1  0  0  0  0  0  0
  182.6910  178.2150  141.4870 C   0  0  1  0  0  3  0  0  0  0  0  0
  181.0150  179.0770  143.0680 C   0  0  0  0  0  0  0  0  0  0  0  0
  181.9760  177.1710  138.9490 C   0  0  0  0  0  2  0  0  0  0  0  0
  183.9140  177.5740  137.5090 C   0  0  2  0  0  3  0  0  0  0  0  0
  183.7620  178.7500  138.4680 C   0  0  0  0  0  2  0  0  0  0  0  0
  182.3600  178.6320  139.0380 C   0  0  2  0  0  3  0  0  0  0  0  0
  182.9590  175.1790  137.8010 C   0  0  0  0  0  1  0  0  0  0  0  0
  182.6820  176.6730  137.7080 C   0  0  1  0  0  3  0  0  0  0  0  0
  187.1470  177.0920  136.0550 C   0  0  2  0  0  0  0  0  0  0  0  0
  186.9680  178.2430  135.2850 O   0  0  0  0  0  1  0  0  0  0  0  0
  185.7910  176.4340  136.2610 C   0  0  0  0  0  2  0  0  0  0  0  0
  185.2860  176.8860  137.6220 C   0  0  1  0  0  3  0  0  0  0  0  0
  186.3580  177.7870  138.2220 C   0  0  0  0  0  2  0  0  0  0  0  0
  187.6280  177.5000  137.4480 C   0  0  1  0  0  3  0  0  0  0  0  0
  188.1080  176.1680  135.3530 C   0  0  0  0  0  0  0  0  0  0  0  0
  187.8750  174.9320  135.3000 O   0  0  0  0  0  1  0  0  0  0  0  0
  189.2210  176.6790  134.6920 O   0  0  0  0  0  0  0  0  0  0  0  0
  188.3160  176.4560  138.0820 O   0  0  0  0  0  0  0  0  0  0  0  0
  190.3620  176.2350  139.9210 O   0  0  0  0  0  1  0  0  0  0  0  0
  189.7860  177.1250  138.6030 P   0  0  0  0  0  0  0  0  0  0  0  0
  189.5770  178.5610  139.0310 O   0  0  0  0  0  1  0  0  0  0  0  0
  190.9270  177.0680  137.3550 O   0  0  0  0  0  0  0  0  0  0  0  0
  184.0660  177.8810  141.2880 O   0  0  0  0  0  0  0  0  0  0  0  0
  185.1320  178.5470  141.9060 C   0  0  0  0  0  0  0  0  0  0  0  0
  185.4930  179.6920  141.5180 O   0  0  0  0  0  0  0  0  0  0  0  0
  185.8650  177.8610  143.0130 C   0  0  2  0  0  3  0  0  0  0  0  0
  186.1760  177.7350  145.5000 C   0  0  0  0  0  2  0  0  0  0  0  0
  188.1170  177.3180  143.9880 C   0  0  0  0  0  2  0  0  0  0  0  0
  187.7770  177.3990  141.6330 O   0  0  0  0  0  1  0  0  0  0  0  0
  185.4260  178.4240  144.3650 C   0  0  0  0  0  2  0  0  0  0  0  0
  187.6790  177.9170  145.3220 C   0  0  2  0  0  3  0  0  0  0  0  0
  187.3830  177.9940  142.8320 C   0  0  1  0  0  3  0  0  0  0  0  0
  188.4060  177.2300  146.4640 C   0  0  0  0  0  2  0  0  0  0  0  0
  187.9160  177.6860  147.6880 O   0  0  0  0  0  1  0  0  0  0  0  0
  1  8  1  0  0  0  0
  2  3  2  0  0  0  0
  3  8  1  0  0  0  0
  4  2  1  1  0  0  0
  4  7  1  0  0  0  0
  6  2  1  0  0  0  0
  7 29  1  1  0  0  0
  7  1  1  0  0  0  0
  8  5  2  0  0  0  0
  9 12  1  0  0  0  0
 10 18  1  0  0  0  0
 10 14  1  0  0  0  0
 10 11  1  1  0  0  0
 12 11  1  1  0  0  0
 12  4  1  0  0  0  0
 14 13  1  1  0  0  0
 14  9  1  0  0  0  0
 15 16  1  6  0  0  0
 15 17  1  0  0  0  0
 15 20  1  0  0  0  0
 18 17  1  6  0  0  0
 18 19  1  0  0  0  0
 20 24  1  1  0  0  0
 20 19  1  0  0  0  0
 21 15  1  0  0  0  0
 22 21  1  0  0  0  0
 23 21  2  0  0  0  0
 24 26  1  0  0  0  0
 26 27  1  0  0  0  0
 26 25  1  0  0  0  0
 28 26  2  0  0  0  0
 29 30  1  0  0  0  0
 31 30  2  0  0  0  0
 32 30  1  6  0  0  0
 32 36  1  0  0  0  0
 34 37  1  0  0  0  0
 36 33  1  0  0  0  0
 37 33  1  0  0  0  0
 37 39  1  1  0  0  0
 38 35  1  6  0  0  0
 38 32  1  0  0  0  0
 38 34  1  0  0  0  0
 39 40  1  0  0  0  0
M  END
>  <MODEL>
2

>  <REMARK>
 VINA RESULT:      -7.8      1.679      2.404
  Name = 
  9 active torsions:
  status: ('A' for Active; 'I' for Inactive)
    1  A    between atoms: C_1  and  C_2
    2  A    between atoms: C_1  and  O_37
    3  A    between atoms: C_5  and  C_6
    4  A    between atoms: C_7  and  C_35
    5  A    between atoms: O_14  and  P_24
    6  A    between atoms: O_14  and  C_32
    7  A    between atoms: C_18  and  C_33
    8  A    between atoms: C_21  and  C_27
    9  A    between atoms: C_34  and  O_37
                            x       y       z     vdW  Elec       q    Type
                         _______ _______ _______ _____ _____    ______ ____

>  <TORSDO>
F 9

$$$$
=
 OpenBabel11062413093D

 40 43  0  0  1  0  0  0  0  0999 V2000
  185.7490  178.8550  145.5700 C   0  0  0  0  0  2  0  0  0  0  0  0
  187.8930  177.4380  146.9360 C   0  0  0  0  0  0  0  0  0  0  0  0
  187.2430  178.3750  147.5620 N   0  0  0  0  0  0  0  0  0  0  0  0
  187.5940  177.1060  145.4770 C   0  0  1  0  0  3  0  0  0  0  0  0
  185.7050  180.1240  147.5840 O   0  0  0  0  0  0  0  0  0  0  0  0
  188.8130  176.5810  147.7360 C   0  0  0  0  0  1  0  0  0  0  0  0
  186.8980  178.2740  144.7560 C   0  0  1  0  0  3  0  0  0  0  0  0
  186.2320  179.1790  146.9440 C   0  0  0  0  0  0  0  0  0  0  0  0
  189.9770  177.6250  144.7180 C   0  0  0  0  0  2  0  0  0  0  0  0
  189.8370  176.6970  142.4570 C   0  0  2  0  0  3  0  0  0  0  0  0
  188.5230  176.4260  143.1820 C   0  0  0  0  0  2  0  0  0  0  0  0
  188.8130  176.6610  144.6530 C   0  0  2  0  0  3  0  0  0  0  0  0
  191.6010  178.5100  143.0340 C   0  0  0  0  0  1  0  0  0  0  0  0
  190.8030  177.2980  143.4940 C   0  0  1  0  0  3  0  0  0  0  0  0
  189.9100  176.6600  138.8800 C   0  0  2  0  0  0  0  0  0  0  0  0
  189.8260  175.2650  138.8970 O   0  0  0  0  0  1  0  0  0  0  0  0
  190.6800  177.1100  140.1120 C   0  0  0  0  0  2  0  0  0  0  0  0
  189.6460  177.4990  141.1580 C   0  0  1  0  0  3  0  0  0  0  0  0
  188.2740  177.2990  140.5280 C   0  0  0  0  0  2  0  0  0  0  0  0
  188.5040  177.2400  139.0320 C   0  0  1  0  0  3  0  0  0  0  0  0
  190.5910  177.1010  137.6110 C   0  0  0  0  0  0  0  0  0  0  0  0
  191.8480  177.0890  137.5290 O   0  0  0  0  0  1  0  0  0  0  0  0
  189.8400  177.4550  136.4940 O   0  0  0  0  0  0  0  0  0  0  0  0
  188.4240  178.5390  138.5120 O   0  0  0  0  0  0  0  0  0  0  0  0
  186.6450  177.0350  137.0320 O   0  0  0  0  0  1  0  0  0  0  0  0
  186.9840  178.5860  137.6140 P   0  0  0  0  0  0  0  0  0  0  0  0
  187.1380  179.5310  136.4420 O   0  0  0  0  0  0  0  0  0  0  0  0
  185.7040  179.1030  138.5920 O   0  0  0  0  0  1  0  0  0  0  0  0
  186.4590  177.9030  143.4470 O   0  0  0  0  0  0  0  0  0  0  0  0
  185.6030  178.6810  142.6570 C   0  0  0  0  0  0  0  0  0  0  0  0
  186.0120  179.7430  142.1120 O   0  0  0  0  0  0  0  0  0  0  0  0
  184.1800  178.2520  142.4990 C   0  0  2  0  0  3  0  0  0  0  0  0
  182.4360  177.4900  140.8640 C   0  0  0  0  0  2  0  0  0  0  0  0
  181.7720  178.8950  142.8170 C   0  0  0  0  0  2  0  0  0  0  0  0
  183.4440  179.5630  144.3750 O   0  0  0  0  0  1  0  0  0  0  0  0
  183.8880  177.9200  141.0360 C   0  0  0  0  0  2  0  0  0  0  0  0
  181.5010  178.5950  141.3440 C   0  0  2  0  0  3  0  0  0  0  0  0
  183.2200  179.3330  143.0160 C   0  0  1  0  0  3  0  0  0  0  0  0
  180.0620  178.1500  141.1600 C   0  0  0  0  0  2  0  0  0  0  0  0
  179.6160  177.4830  142.3010 O   0  0  0  0  0  1  0  0  0  0  0  0
  1  8  1  0  0  0  0
  2  3  2  0  0  0  0
  2  6  1  0  0  0  0
  4  2  1  1  0  0  0
  7 29  1  6  0  0  0
  7  4  1  0  0  0  0
  7  1  1  0  0  0  0
  8  3  1  0  0  0  0
  8  5  2  0  0  0  0
 10 11  1  1  0  0  0
 10 14  1  0  0  0  0
 12 11  1  6  0  0  0
 12  9  1  0  0  0  0
 12  4  1  0  0  0  0
 14 13  1  6  0  0  0
 14  9  1  0  0  0  0
 15 16  1  1  0  0  0
 15 20  1  0  0  0  0
 15 17  1  0  0  0  0
 18 17  1  6  0  0  0
 18 10  1  0  0  0  0
 19 18  1  0  0  0  0
 20 24  1  1  0  0  0
 20 19  1  0  0  0  0
 21 15  1  0  0  0  0
 22 21  1  0  0  0  0
 23 21  2  0  0  0  0
 25 26  1  0  0  0  0
 26 24  1  0  0  0  0
 26 28  1  0  0  0  0
 27 26  2  0  0  0  0
 30 29  1  0  0  0  0
 31 30  2  0  0  0  0
 32 30  1  6  0  0  0
 32 38  1  0  0  0  0
 33 36  1  0  0  0  0
 33 37  1  0  0  0  0
 34 38  1  0  0  0  0
 36 32  1  0  0  0  0
 37 39  1  1  0  0  0
 37 34  1  0  0  0  0
 38 35  1  1  0  0  0
 39 40  1  0  0  0  0
M  END
>  <MODEL>
3

>  <REMARK>
 VINA RESULT:      -7.1      2.761      6.297
  Name = 
  9 active torsions:
  status: ('A' for Active; 'I' for Inactive)
    1  A    between atoms: C_1  and  C_2
    2  A    between atoms: C_1  and  O_37
    3  A    between atoms: C_5  and  C_6
    4  A    between atoms: C_7  and  C_35
    5  A    between atoms: O_14  and  P_24
    6  A    between atoms: O_14  and  C_32
    7  A    between atoms: C_18  and  C_33
    8  A    between atoms: C_21  and  C_27
    9  A    between atoms: C_34  and  O_37
                            x       y       z     vdW  Elec       q    Type
                         _______ _______ _______ _____ _____    ______ ____

>  <TORSDO>
F 9

$$$$
=
 OpenBabel11062413093D

 40 43  0  0  1  0  0  0  0  0999 V2000
  190.5610  176.5810  139.7180 C   0  0  0  0  0  2  0  0  0  0  0  0
  188.5740  177.6980  137.9090 C   0  0  0  0  0  0  0  0  0  0  0  0
  189.7660  177.4270  137.4640 N   0  0  0  0  0  0  0  0  0  0  0  0
  188.2130  177.4970  139.3770 C   0  0  1  0  0  3  0  0  0  0  0  0
  191.9790  176.7950  137.8180 O   0  0  0  0  0  0  0  0  0  0  0  0
  187.5240  178.0410  136.9090 C   0  0  0  0  0  1  0  0  0  0  0  0
  189.4620  177.4760  140.2760 C   0  0  1  0  0  3  0  0  0  0  0  0
  190.8290  176.9540  138.2990 C   0  0  0  0  0  0  0  0  0  0  0  0
  187.0750  178.4740  141.4460 C   0  0  0  0  0  2  0  0  0  0  0  0
  184.8730  178.9050  140.4670 C   0  0  2  0  0  3  0  0  0  0  0  0
  185.8030  178.3830  139.3760 C   0  0  0  0  0  2  0  0  0  0  0  0
  187.2060  178.5150  139.9390 C   0  0  2  0  0  3  0  0  0  0  0  0
  185.1460  178.6100  143.0300 C   0  0  0  0  0  1  0  0  0  0  0  0
  185.7360  179.1200  141.7230 C   0  0  1  0  0  3  0  0  0  0  0  0
  181.3300  178.6460  140.0430 C   0  0  2  0  0  0  0  0  0  0  0  0
  181.3680  179.6970  139.1240 O   0  0  0  0  0  1  0  0  0  0  0  0
  182.4230  178.8720  141.0780 C   0  0  0  0  0  2  0  0  0  0  0  0
  183.6170  178.0340  140.6450 C   0  0  1  0  0  3  0  0  0  0  0  0
  183.2130  177.3010  139.3720 C   0  0  0  0  0  2  0  0  0  0  0  0
  181.6990  177.3490  139.3230 C   0  0  1  0  0  3  0  0  0  0  0  0
  179.9670  178.5920  140.6820 C   0  0  0  0  0  0  0  0  0  0  0  0
  178.9310  178.6280  139.9670 O   0  0  0  0  0  0  0  0  0  0  0  0
  179.8390  178.4280  142.0580 O   0  0  0  0  0  1  0  0  0  0  0  0
  181.1910  176.2260  139.9920 O   0  0  0  0  0  0  0  0  0  0  0  0
  181.7000  174.4890  137.9090 O   0  0  0  0  0  1  0  0  0  0  0  0
  180.4800  175.2590  138.7910 P   0  0  0  0  0  0  0  0  0  0  0  0
  179.6610  176.1200  137.8540 O   0  0  0  0  0  0  0  0  0  0  0  0
  179.4850  174.0890  139.4990 O   0  0  0  0  0  1  0  0  0  0  0  0
  189.1420  177.1120  141.6210 O   0  0  0  0  0  0  0  0  0  0  0  0
  189.9550  177.3950  142.7250 C   0  0  0  0  0  0  0  0  0  0  0  0
  191.0790  177.9500  142.5770 O   0  0  0  0  0  0  0  0  0  0  0  0
  189.4880  176.9920  144.0870 C   0  0  2  0  0  3  0  0  0  0  0  0
  187.8120  177.4460  145.8980 C   0  0  0  0  0  2  0  0  0  0  0  0
  190.1220  176.7200  146.5020 C   0  0  0  0  0  2  0  0  0  0  0  0
  191.6730  176.2520  144.7580 O   0  0  0  0  0  1  0  0  0  0  0  0
  188.2910  177.8460  144.5070 C   0  0  0  0  0  2  0  0  0  0  0  0
  188.9450  177.6030  146.9080 C   0  0  2  0  0  3  0  0  0  0  0  0
  190.6240  177.1020  145.1120 C   0  0  1  0  0  3  0  0  0  0  0  0
  188.4470  177.2070  148.2850 C   0  0  0  0  0  2  0  0  0  0  0  0
  188.0100  178.3350  148.9800 O   0  0  0  0  0  1  0  0  0  0  0  0
  1  7  1  0  0  0  0
  3  2  2  0  0  0  0
  3  8  1  0  0  0  0
  4  2  1  6  0  0  0
  4 12  1  0  0  0  0
  4  7  1  0  0  0  0
  5  8  2  0  0  0  0
  6  2  1  0  0  0  0
  7 29  1  1  0  0  0
  8  1  1  0  0  0  0
  9 14  1  0  0  0  0
 10 11  1  6  0  0  0
 10 18  1  0  0  0  0
 10 14  1  0  0  0  0
 12 11  1  6  0  0  0
 12  9  1  0  0  0  0
 14 13  1  1  0  0  0
 15 16  1  6  0  0  0
 15 21  1  0  0  0  0
 15 17  1  0  0  0  0
 18 19  1  6  0  0  0
 18 17  1  0  0  0  0
 20 19  1  0  0  0  0
 20 24  1  1  0  0  0
 20 15  1  0  0  0  0
 21 23  1  0  0  0  0
 22 21  2  0  0  0  0
 25 26  1  0  0  0  0
 26 28  1  0  0  0  0
 26 24  1  0  0  0  0
 27 26  2  0  0  0  0
 29 30  1  0  0  0  0
 31 30  2  0  0  0  0
 32 30  1  6  0  0  0
 32 36  1  0  0  0  0
 32 38  1  0  0  0  0
 33 37  1  0  0  0  0
 34 37  1  0  0  0  0
 36 33  1  0  0  0  0
 37 39  1  1  0  0  0
 38 35  1  6  0  0  0
 38 34  1  0  0  0  0
 39 40  1  0  0  0  0
M  END
>  <MODEL>
4

>  <REMARK>
 VINA RESULT:      -7.0      3.245      7.534
  Name = 
  9 active torsions:
  status: ('A' for Active; 'I' for Inactive)
    1  A    between atoms: C_1  and  C_2
    2  A    between atoms: C_1  and  O_37
    3  A    between atoms: C_5  and  C_6
    4  A    between atoms: C_7  and  C_35
    5  A    between atoms: O_14  and  P_24
    6  A    between atoms: O_14  and  C_32
    7  A    between atoms: C_18  and  C_33
    8  A    between atoms: C_21  and  C_27
    9  A    between atoms: C_34  and  O_37
                            x       y       z     vdW  Elec       q    Type
                         _______ _______ _______ _____ _____    ______ ____

>  <TORSDO>
F 9

$$$$
=
 OpenBabel11062413093D

 40 43  0  0  1  0  0  0  0  0999 V2000
  187.5010  177.1330  143.9940 C   0  0  0  0  0  2  0  0  0  0  0  0
  190.0110  177.0220  142.5250 C   0  0  0  0  0  0  0  0  0  0  0  0
  190.0250  176.9650  143.8250 N   0  0  0  0  0  0  0  0  0  0  0  0
  188.7070  177.2060  141.7560 C   0  0  1  0  0  3  0  0  0  0  0  0
  188.9480  177.1170  145.8840 O   0  0  0  0  0  0  0  0  0  0  0  0
  191.2820  176.7250  141.8060 C   0  0  0  0  0  1  0  0  0  0  0  0
  187.6030  177.8170  142.6370 C   0  0  1  0  0  3  0  0  0  0  0  0
  188.8490  177.0960  144.6310 C   0  0  0  0  0  0  0  0  0  0  0  0
  187.5160  178.2310  139.7420 C   0  0  0  0  0  2  0  0  0  0  0  0
  189.2920  177.9190  138.0860 C   0  0  2  0  0  3  0  0  0  0  0  0
  189.8010  177.4530  139.4460 C   0  0  0  0  0  2  0  0  0  0  0  0
  188.8310  178.0270  140.4620 C   0  0  2  0  0  3  0  0  0  0  0  0
  186.8200  178.1750  137.3400 C   0  0  0  0  0  1  0  0  0  0  0  0
  187.9160  178.5660  138.3220 C   0  0  1  0  0  3  0  0  0  0  0  0
  190.8840  174.9130  136.9770 C   0  0  2  0  0  0  0  0  0  0  0  0
  191.4000  174.7180  138.2600 O   0  0  0  0  0  1  0  0  0  0  0  0
  190.7870  176.4090  136.7200 C   0  0  0  0  0  2  0  0  0  0  0  0
  189.3510  176.8130  137.0170 C   0  0  1  0  0  3  0  0  0  0  0  0
  188.6040  175.5490  137.4240 C   0  0  0  0  0  2  0  0  0  0  0  0
  189.4490  174.3890  136.9380 C   0  0  1  0  0  3  0  0  0  0  0  0
  191.7810  174.2370  135.9730 C   0  0  0  0  0  0  0  0  0  0  0  0
  192.2640  174.8930  135.0120 O   0  0  0  0  0  0  0  0  0  0  0  0
  192.1450  172.9040  136.1370 O   0  0  0  0  0  1  0  0  0  0  0  0
  189.0550  174.0600  135.6330 O   0  0  0  0  0  0  0  0  0  0  0  0
  189.1910  171.3730  135.0250 O   0  0  0  0  0  0  0  0  0  0  0  0
  188.2500  172.5710  135.7570 P   0  0  0  0  0  0  0  0  0  0  0  0
  186.9130  172.6480  135.0540 O   0  0  0  0  0  1  0  0  0  0  0  0
  188.0110  172.1720  137.3840 O   0  0  0  0  0  1  0  0  0  0  0  0
  186.3380  177.8240  141.9730 O   0  0  0  0  0  0  0  0  0  0  0  0
  185.3730  178.8260  142.1350 C   0  0  0  0  0  0  0  0  0  0  0  0
  185.6820  180.0460  142.0430 O   0  0  0  0  0  0  0  0  0  0  0  0
  183.9690  178.4280  142.4610 C   0  0  2  0  0  3  0  0  0  0  0  0
  181.6100  178.3450  141.6100 C   0  0  0  0  0  2  0  0  0  0  0  0
  182.0370  178.7370  144.0380 C   0  0  0  0  0  2  0  0  0  0  0  0
  184.2860  178.7630  144.8200 O   0  0  0  0  0  1  0  0  0  0  0  0
  183.0450  178.7410  141.2840 C   0  0  0  0  0  2  0  0  0  0  0  0
  181.1330  179.0830  142.8570 C   0  0  2  0  0  3  0  0  0  0  0  0
  183.4820  179.1270  143.7380 C   0  0  1  0  0  3  0  0  0  0  0  0
  179.7020  178.6800  143.1620 C   0  0  0  0  0  2  0  0  0  0  0  0
  179.6810  177.6910  144.1450 O   0  0  0  0  0  1  0  0  0  0  0  0
  1  8  1  0  0  0  0
  2  3  2  0  0  0  0
  3  8  1  0  0  0  0
  4  2  1  1  0  0  0
  4  7  1  0  0  0  0
  6  2  1  0  0  0  0
  7 29  1  6  0  0  0
  7  1  1  0  0  0  0
  8  5  2  0  0  0  0
  9 12  1  0  0  0  0
 10 14  1  0  0  0  0
 10 11  1  1  0  0  0
 12 11  1  6  0  0  0
 12  4  1  0  0  0  0
 14 13  1  6  0  0  0
 14  9  1  0  0  0  0
 15 16  1  1  0  0  0
 17 15  1  0  0  0  0
 18 17  1  1  0  0  0
 18 19  1  0  0  0  0
 18 10  1  0  0  0  0
 20 24  1  6  0  0  0
 20 15  1  0  0  0  0
 20 19  1  0  0  0  0
 21 23  1  0  0  0  0
 21 15  1  0  0  0  0
 22 21  2  0  0  0  0
 24 26  1  0  0  0  0
 25 26  2  0  0  0  0
 26 28  1  0  0  0  0
 27 26  1  0  0  0  0
 29 30  1  0  0  0  0
 31 30  2  0  0  0  0
 32 30  1  6  0  0  0
 32 38  1  0  0  0  0
 33 37  1  0  0  0  0
 36 33  1  0  0  0  0
 36 32  1  0  0  0  0
 37 39  1  1  0  0  0
 37 34  1  0  0  0  0
 38 34  1  0  0  0  0
 38 35  1  1  0  0  0
 39 40  1  0  0  0  0
M  END
>  <MODEL>
5

>  <REMARK>
 VINA RESULT:      -6.6      3.064      5.980
  Name = 
  9 active torsions:
  status: ('A' for Active; 'I' for Inactive)
    1  A    between atoms: C_1  and  C_2
    2  A    between atoms: C_1  and  O_37
    3  A    between atoms: C_5  and  C_6
    4  A    between atoms: C_7  and  C_35
    5  A    between atoms: O_14  and  P_24
    6  A    between atoms: O_14  and  C_32
    7  A    between atoms: C_18  and  C_33
    8  A    between atoms: C_21  and  C_27
    9  A    between atoms: C_34  and  O_37
                            x       y       z     vdW  Elec       q    Type
                         _______ _______ _______ _____ _____    ______ ____

>  <TORSDO>
F 9

$$$$
=
 OpenBabel11062413093D

 40 43  0  0  1  0  0  0  0  0999 V2000
  181.1340  177.8560  140.7950 C   0  0  0  0  0  2  0  0  0  0  0  0
  179.8410  177.5290  138.2090 C   0  0  0  0  0  0  0  0  0  0  0  0
  179.1250  177.4820  139.2940 N   0  0  0  0  0  0  0  0  0  0  0  0
  181.3560  177.6950  138.2670 C   0  0  1  0  0  3  0  0  0  0  0  0
  178.9440  177.4090  141.6150 O   0  0  0  0  0  0  0  0  0  0  0  0
  179.1190  177.5970  136.9070 C   0  0  0  0  0  1  0  0  0  0  0  0
  181.9260  177.2730  139.6320 C   0  0  1  0  0  3  0  0  0  0  0  0
  179.6860  177.5490  140.6100 C   0  0  0  0  0  0  0  0  0  0  0  0
  182.1880  175.4680  137.3320 C   0  0  0  0  0  2  0  0  0  0  0  0
  184.3180  176.2450  136.4110 C   0  0  2  0  0  3  0  0  0  0  0  0
  183.5580  177.4440  136.9690 C   0  0  0  0  0  2  0  0  0  0  0  0
  182.1280  176.9690  137.1530 C   0  0  2  0  0  3  0  0  0  0  0  0
  183.9770  173.7480  137.0240 C   0  0  0  0  0  1  0  0  0  0  0  0
  183.3690  175.0370  136.4910 C   0  0  1  0  0  3  0  0  0  0  0  0
  187.8440  176.7780  136.1210 C   0  0  2  0  0  0  0  0  0  0  0  0
  187.6130  177.7490  135.1430 O   0  0  0  0  0  1  0  0  0  0  0  0
  186.7570  175.7200  136.0150 C   0  0  0  0  0  2  0  0  0  0  0  0
  185.7040  176.0670  137.0560 C   0  0  1  0  0  3  0  0  0  0  0  0
  186.1880  177.3130  137.7860 C   0  0  0  0  0  2  0  0  0  0  0  0
  187.6720  177.4170  137.4990 C   0  0  1  0  0  3  0  0  0  0  0  0
  189.2140  176.1860  135.9180 C   0  0  0  0  0  0  0  0  0  0  0  0
  189.3750  174.9370  135.9500 O   0  0  0  0  0  1  0  0  0  0  0  0
  190.2990  177.0040  135.6190 O   0  0  0  0  0  0  0  0  0  0  0  0
  188.3730  176.7090  138.4860 O   0  0  0  0  0  0  0  0  0  0  0  0
  190.9950  177.4600  138.9040 O   0  0  0  0  0  1  0  0  0  0  0  0
  189.3830  177.8470  139.2370 P   0  0  0  0  0  0  0  0  0  0  0  0
  189.1670  177.8180  140.7350 O   0  0  0  0  0  1  0  0  0  0  0  0
  189.0520  179.3980  138.6490 O   0  0  0  0  0  0  0  0  0  0  0  0
  183.3140  177.5930  139.7490 O   0  0  0  0  0  0  0  0  0  0  0  0
  183.8230  178.5720  140.6120 C   0  0  0  0  0  0  0  0  0  0  0  0
  184.1650  179.7060  140.1770 O   0  0  0  0  0  0  0  0  0  0  0  0
  183.9920  178.2380  142.0600 C   0  0  2  0  0  3  0  0  0  0  0  0
  183.1050  178.6300  144.3740 C   0  0  0  0  0  2  0  0  0  0  0  0
  185.5520  178.2770  144.0300 C   0  0  0  0  0  2  0  0  0  0  0  0
  186.3550  177.8620  141.8270 O   0  0  0  0  0  1  0  0  0  0  0  0
  182.9340  178.9590  142.8950 C   0  0  0  0  0  2  0  0  0  0  0  0
  184.5000  179.0290  144.8420 C   0  0  2  0  0  3  0  0  0  0  0  0
  185.4050  178.5930  142.5430 C   0  0  1  0  0  3  0  0  0  0  0  0
  184.6480  178.7000  146.3160 C   0  0  0  0  0  2  0  0  0  0  0  0
  185.7150  179.4120  146.8620 O   0  0  0  0  0  1  0  0  0  0  0  0
  2  3  2  0  0  0  0
  3  8  1  0  0  0  0
  4  2  1  1  0  0  0
  4  7  1  0  0  0  0
  6  2  1  0  0  0  0
  7 29  1  1  0  0  0
  7  1  1  0  0  0  0
  8  1  1  0  0  0  0
  8  5  2  0  0  0  0
 10 14  1  0  0  0  0
 10 11  1  1  0  0  0
 10 18  1  0  0  0  0
 12 11  1  1  0  0  0
 12  9  1  0  0  0  0
 12  4  1  0  0  0  0
 14 13  1  1  0  0  0
 14  9  1  0  0  0  0
 15 16  1  6  0  0  0
 15 20  1  0  0  0  0
 17 15  1  0  0  0  0
 18 17  1  6  0  0  0
 18 19  1  0  0  0  0
 20 19  1  0  0  0  0
 20 24  1  1  0  0  0
 21 22  1  0  0  0  0
 21 15  1  0  0  0  0
 23 21  2  0  0  0  0
 24 26  1  0  0  0  0
 25 26  1  0  0  0  0
 26 27  1  0  0  0  0
 28 26  2  0  0  0  0
 29 30  1  0  0  0  0
 31 30  2  0  0  0  0
 32 30  1  6  0  0  0
 32 38  1  0  0  0  0
 32 36  1  0  0  0  0
 33 37  1  0  0  0  0
 34 37  1  0  0  0  0
 36 33  1  0  0  0  0
 37 39  1  1  0  0  0
 38 35  1  6  0  0  0
 38 34  1  0  0  0  0
 39 40  1  0  0  0  0
M  END
>  <MODEL>
6

>  <REMARK>
 VINA RESULT:      -6.6      1.995      2.758
  Name = 
  9 active torsions:
  status: ('A' for Active; 'I' for Inactive)
    1  A    between atoms: C_1  and  C_2
    2  A    between atoms: C_1  and  O_37
    3  A    between atoms: C_5  and  C_6
    4  A    between atoms: C_7  and  C_35
    5  A    between atoms: O_14  and  P_24
    6  A    between atoms: O_14  and  C_32
    7  A    between atoms: C_18  and  C_33
    8  A    between atoms: C_21  and  C_27
    9  A    between atoms: C_34  and  O_37
                            x       y       z     vdW  Elec       q    Type
                         _______ _______ _______ _____ _____    ______ ____

>  <TORSDO>
F 9

$$$$
=
 OpenBabel11062413093D

 40 43  0  0  1  0  0  0  0  0999 V2000
  191.1990  176.6350  139.0590 C   0  0  0  0  0  2  0  0  0  0  0  0
  191.2640  174.7540  136.8390 C   0  0  0  0  0  0  0  0  0  0  0  0
  192.3810  175.1800  137.3510 N   0  0  0  0  0  0  0  0  0  0  0  0
  189.9170  175.2650  137.3410 C   0  0  1  0  0  3  0  0  0  0  0  0
  193.5630  176.5950  138.7740 O   0  0  0  0  0  0  0  0  0  0  0  0
  191.3330  173.6210  135.8730 C   0  0  0  0  0  1  0  0  0  0  0  0
  190.0510  176.6210  138.0580 C   0  0  1  0  0  3  0  0  0  0  0  0
  192.4460  176.1660  138.3870 C   0  0  0  0  0  0  0  0  0  0  0  0
  188.8870  176.6510  135.4580 C   0  0  0  0  0  2  0  0  0  0  0  0
  186.5410  176.0510  135.8220 C   0  0  2  0  0  3  0  0  0  0  0  0
  187.4080  175.2590  136.7960 C   0  0  0  0  0  2  0  0  0  0  0  0
  188.8250  175.3720  136.2640 C   0  0  2  0  0  3  0  0  0  0  0  0
  187.1680  178.2510  134.5990 C   0  0  0  0  0  1  0  0  0  0  0  0
  187.4990  176.7910  134.8720 C   0  0  1  0  0  3  0  0  0  0  0  0
  183.0820  176.4860  136.6270 C   0  0  2  0  0  0  0  0  0  0  0  0
  182.8490  175.1410  136.3310 O   0  0  0  0  0  1  0  0  0  0  0  0
  184.1980  176.9900  135.7240 C   0  0  0  0  0  2  0  0  0  0  0  0
  185.4840  176.9150  136.5330 C   0  0  1  0  0  3  0  0  0  0  0  0
  185.1150  176.3900  137.9150 C   0  0  0  0  0  2  0  0  0  0  0  0
  183.6200  176.5910  138.0540 C   0  0  1  0  0  3  0  0  0  0  0  0
  181.8110  177.2680  136.4220 C   0  0  0  0  0  0  0  0  0  0  0  0
  181.8420  178.3880  135.8480 O   0  0  0  0  0  0  0  0  0  0  0  0
  180.5840  176.7290  136.7960 O   0  0  0  0  0  1  0  0  0  0  0  0
  183.3850  177.8600  138.6010 O   0  0  0  0  0  0  0  0  0  0  0  0
  183.0860  178.1950  141.3240 O   0  0  0  0  0  1  0  0  0  0  0  0
  182.3480  177.6060  139.9210 P   0  0  0  0  0  0  0  0  0  0  0  0
  182.0790  176.1260  140.0880 O   0  0  0  0  0  1  0  0  0  0  0  0
  180.8860  178.4220  139.6790 O   0  0  0  0  0  0  0  0  0  0  0  0
  188.8260  177.0140  138.6810 O   0  0  0  0  0  0  0  0  0  0  0  0
  188.5830  178.2950  139.1920 C   0  0  0  0  0  0  0  0  0  0  0  0
  188.6770  179.3160  138.4570 O   0  0  0  0  0  0  0  0  0  0  0  0
  188.2460  178.4400  140.6420 C   0  0  2  0  0  3  0  0  0  0  0  0
  188.7550  177.6220  142.9590 C   0  0  0  0  0  2  0  0  0  0  0  0
  186.4290  178.3110  142.3730 C   0  0  0  0  0  2  0  0  0  0  0  0
  185.9900  179.1260  140.1790 O   0  0  0  0  0  1  0  0  0  0  0  0
  189.0990  177.4860  141.4790 C   0  0  0  0  0  2  0  0  0  0  0  0
  187.2750  177.3310  143.1820 C   0  0  2  0  0  3  0  0  0  0  0  0
  186.7510  178.1930  140.8850 C   0  0  1  0  0  3  0  0  0  0  0  0
  186.9550  177.4650  144.6600 C   0  0  0  0  0  2  0  0  0  0  0  0
  188.1210  177.3470  145.4160 O   0  0  0  0  0  1  0  0  0  0  0  0
  2  3  2  0  0  0  0
  3  8  1  0  0  0  0
  4  2  1  6  0  0  0
  4  7  1  0  0  0  0
  6  2  1  0  0  0  0
  7 29  1  1  0  0  0
  7  1  1  0  0  0  0
  8  5  2  0  0  0  0
  8  1  1  0  0  0  0
 10 18  1  0  0  0  0
 10 11  1  1  0  0  0
 12  9  1  1  0  0  0
 12 11  1  0  0  0  0
 12  4  1  0  0  0  0
 14 13  1  1  0  0  0
 14  9  1  0  0  0  0
 14 10  1  0  0  0  0
 15 16  1  6  0  0  0
 15 20  1  0  0  0  0
 17 15  1  0  0  0  0
 18 17  1  6  0  0  0
 18 19  1  0  0  0  0
 19 20  1  0  0  0  0
 20 24  1  6  0  0  0
 21 15  1  0  0  0  0
 21 23  1  0  0  0  0
 22 21  2  0  0  0  0
 24 26  1  0  0  0  0
 26 27  1  0  0  0  0
 26 25  1  0  0  0  0
 28 26  2  0  0  0  0
 29 30  1  0  0  0  0
 31 30  2  0  0  0  0
 32 30  1  6  0  0  0
 32 38  1  0  0  0  0
 32 36  1  0  0  0  0
 33 37  1  0  0  0  0
 34 37  1  0  0  0  0
 36 33  1  0  0  0  0
 37 39  1  1  0  0  0
 38 35  1  6  0  0  0
 38 34  1  0  0  0  0
 39 40  1  0  0  0  0
M  END
>  <MODEL>
7

>  <REMARK>
 VINA RESULT:      -6.5      3.481      7.437
  Name = 
  9 active torsions:
  status: ('A' for Active; 'I' for Inactive)
    1  A    between atoms: C_1  and  C_2
    2  A    between atoms: C_1  and  O_37
    3  A    between atoms: C_5  and  C_6
    4  A    between atoms: C_7  and  C_35
    5  A    between atoms: O_14  and  P_24
    6  A    between atoms: O_14  and  C_32
    7  A    between atoms: C_18  and  C_33
    8  A    between atoms: C_21  and  C_27
    9  A    between atoms: C_34  and  O_37
                            x       y       z     vdW  Elec       q    Type
                         _______ _______ _______ _____ _____    ______ ____

>  <TORSDO>
F 9

$$$$
=
 OpenBabel11062413093D

 40 43  0  0  1  0  0  0  0  0999 V2000
  184.5290  177.1510  137.6230 C   0  0  0  0  0  2  0  0  0  0  0  0
  186.8070  177.5220  135.8500 C   0  0  0  0  0  0  0  0  0  0  0  0
  185.8220  176.7580  135.4770 N   0  0  0  0  0  0  0  0  0  0  0  0
  186.8200  178.1820  137.2250 C   0  0  1  0  0  3  0  0  0  0  0  0
  183.8300  175.6390  135.9220 O   0  0  0  0  0  0  0  0  0  0  0  0
  187.8340  177.8750  134.8290 C   0  0  0  0  0  1  0  0  0  0  0  0
  185.8980  177.4530  138.2190 C   0  0  1  0  0  3  0  0  0  0  0  0
  184.7030  176.4530  136.3160 C   0  0  0  0  0  0  0  0  0  0  0  0
  189.1120  177.1360  137.6490 C   0  0  0  0  0  2  0  0  0  0  0  0
  189.5130  178.0580  139.8810 C   0  0  2  0  0  3  0  0  0  0  0  0
  188.2010  178.6220  139.3450 C   0  0  0  0  0  2  0  0  0  0  0  0
  188.2150  178.3370  137.8540 C   0  0  2  0  0  3  0  0  0  0  0  0
  190.7240  175.8980  139.1070 C   0  0  0  0  0  1  0  0  0  0  0  0
  190.1590  177.2620  138.7340 C   0  0  1  0  0  3  0  0  0  0  0  0
  190.6510  177.6420  143.2480 C   0  0  2  0  0  0  0  0  0  0  0  0
  191.2810  178.8880  143.1840 O   0  0  0  0  0  1  0  0  0  0  0  0
  190.6840  177.0150  141.8620 C   0  0  0  0  0  2  0  0  0  0  0  0
  189.3390  177.3110  141.2160 C   0  0  1  0  0  3  0  0  0  0  0  0
  188.5130  178.0880  142.2320 C   0  0  0  0  0  2  0  0  0  0  0  0
  189.1730  177.8540  143.5760 C   0  0  1  0  0  3  0  0  0  0  0  0
  191.3570  176.7800  144.2610 C   0  0  0  0  0  0  0  0  0  0  0  0
  191.7340  175.6190  143.9520 O   0  0  0  0  0  0  0  0  0  0  0  0
  191.6660  177.2820  145.5220 O   0  0  0  0  0  1  0  0  0  0  0  0
  188.6070  176.7130  144.1630 O   0  0  0  0  0  0  0  0  0  0  0  0
  186.2850  176.7720  145.6520 O   0  0  0  0  0  0  0  0  0  0  0  0
  187.9080  177.2440  145.6160 P   0  0  0  0  0  0  0  0  0  0  0  0
  187.9860  178.7520  145.7050 O   0  0  0  0  0  1  0  0  0  0  0  0
  188.7150  176.5570  146.9350 O   0  0  0  0  0  1  0  0  0  0  0  0
  185.7720  178.1700  139.4490 O   0  0  0  0  0  0  0  0  0  0  0  0
  184.6900  179.0020  139.7630 C   0  0  0  0  0  0  0  0  0  0  0  0
  184.5690  180.1390  139.2280 O   0  0  0  0  0  0  0  0  0  0  0  0
  183.6950  178.5390  140.7790 C   0  0  2  0  0  3  0  0  0  0  0  0
  181.2670  178.5120  141.4090 C   0  0  0  0  0  2  0  0  0  0  0  0
  183.0080  178.6120  143.1940 C   0  0  0  0  0  2  0  0  0  0  0  0
  185.3040  178.5880  142.5640 O   0  0  0  0  0  1  0  0  0  0  0  0
  182.2870  178.9740  140.3740 C   0  0  0  0  0  2  0  0  0  0  0  0
  181.6150  179.0810  142.7800 C   0  0  2  0  0  3  0  0  0  0  0  0
  184.0500  179.0660  142.1760 C   0  0  1  0  0  3  0  0  0  0  0  0
  180.5860  178.6160  143.7930 C   0  0  0  0  0  2  0  0  0  0  0  0
  179.6790  177.7450  143.1900 O   0  0  0  0  0  1  0  0  0  0  0  0
  1  7  1  0  0  0  0
  3  2  2  0  0  0  0
  3  8  1  0  0  0  0
  4  2  1  6  0  0  0
  4 12  1  0  0  0  0
  4  7  1  0  0  0  0
  5  8  2  0  0  0  0
  6  2  1  0  0  0  0
  7 29  1  1  0  0  0
  8  1  1  0  0  0  0
  9 14  1  0  0  0  0
 10 11  1  6  0  0  0
 10 18  1  0  0  0  0
 12  9  1  1  0  0  0
 12 11  1  0  0  0  0
 14 13  1  1  0  0  0
 14 10  1  0  0  0  0
 15 16  1  6  0  0  0
 15 20  1  0  0  0  0
 15 21  1  0  0  0  0
 17 15  1  0  0  0  0
 18 17  1  1  0  0  0
 18 19  1  0  0  0  0
 19 20  1  0  0  0  0
 20 24  1  6  0  0  0
 21 23  1  0  0  0  0
 22 21  2  0  0  0  0
 24 26  1  0  0  0  0
 26 25  2  0  0  0  0
 26 27  1  0  0  0  0
 26 28  1  0  0  0  0
 29 30  1  0  0  0  0
 31 30  2  0  0  0  0
 32 30  1  6  0  0  0
 32 38  1  0  0  0  0
 33 37  1  0  0  0  0
 36 32  1  0  0  0  0
 36 33  1  0  0  0  0
 37 34  1  0  0  0  0
 37 39  1  1  0  0  0
 38 35  1  1  0  0  0
 38 34  1  0  0  0  0
 40 39  1  0  0  0  0
M  END
>  <MODEL>
8

>  <REMARK>
 VINA RESULT:      -6.4      2.814      5.469
  Name = 
  9 active torsions:
  status: ('A' for Active; 'I' for Inactive)
    1  A    between atoms: C_1  and  C_2
    2  A    between atoms: C_1  and  O_37
    3  A    between atoms: C_5  and  C_6
    4  A    between atoms: C_7  and  C_35
    5  A    between atoms: O_14  and  P_24
    6  A    between atoms: O_14  and  C_32
    7  A    between atoms: C_18  and  C_33
    8  A    between atoms: C_21  and  C_27
    9  A    between atoms: C_34  and  O_37
                            x       y       z     vdW  Elec       q    Type
                         _______ _______ _______ _____ _____    ______ ____

>  <TORSDO>
F 9

$$$$
=
 OpenBabel11062413093D

 40 43  0  0  1  0  0  0  0  0999 V2000
  190.5790  177.1530  140.5730 C   0  0  0  0  0  2  0  0  0  0  0  0
  188.9850  176.9320  138.1490 C   0  0  0  0  0  0  0  0  0  0  0  0
  190.2680  176.7220  138.0940 N   0  0  0  0  0  0  0  0  0  0  0  0
  188.3060  177.3500  139.4490 C   0  0  1  0  0  3  0  0  0  0  0  0
  192.3810  176.7530  139.0710 O   0  0  0  0  0  0  0  0  0  0  0  0
  188.1740  176.5790  136.9490 C   0  0  0  0  0  1  0  0  0  0  0  0
  189.3030  177.9760  140.4400 C   0  0  1  0  0  3  0  0  0  0  0  0
  191.1400  176.8900  139.2170 C   0  0  0  0  0  0  0  0  0  0  0  0
  186.3020  178.4990  140.5400 C   0  0  0  0  0  2  0  0  0  0  0  0
  184.7780  178.4440  138.6250 C   0  0  2  0  0  3  0  0  0  0  0  0
  186.1270  177.8770  138.1950 C   0  0  0  0  0  2  0  0  0  0  0  0
  187.1080  178.2980  139.2750 C   0  0  2  0  0  3  0  0  0  0  0  0
  183.8560  178.6360  141.0420 C   0  0  0  0  0  1  0  0  0  0  0  0
  184.9570  178.9900  140.0520 C   0  0  1  0  0  3  0  0  0  0  0  0
  182.3860  177.0780  136.3410 C   0  0  2  0  0  0  0  0  0  0  0  0
  183.1420  177.5570  135.2690 O   0  0  0  0  0  1  0  0  0  0  0  0
  182.5480  178.0380  137.5110 C   0  0  0  0  0  2  0  0  0  0  0  0
  183.6210  177.4510  138.4140 C   0  0  1  0  0  3  0  0  0  0  0  0
  184.0680  176.1370  137.7860 C   0  0  0  0  0  2  0  0  0  0  0  0
  182.9790  175.7490  136.8080 C   0  0  1  0  0  3  0  0  0  0  0  0
  180.9450  176.9590  135.9190 C   0  0  0  0  0  0  0  0  0  0  0  0
  180.0320  177.4430  136.6400 O   0  0  0  0  0  1  0  0  0  0  0  0
  180.6130  176.3830  134.6970 O   0  0  0  0  0  0  0  0  0  0  0  0
  182.0280  174.9680  137.4800 O   0  0  0  0  0  0  0  0  0  0  0  0
  180.9780  172.4160  137.4970 O   0  0  0  0  0  1  0  0  0  0  0  0
  182.1890  173.4010  136.8470 P   0  0  0  0  0  0  0  0  0  0  0  0
  183.5410  172.8320  137.2180 O   0  0  0  0  0  1  0  0  0  0  0  0
  182.0330  173.4340  135.1630 O   0  0  0  0  0  0  0  0  0  0  0  0
  188.7070  178.2030  141.7190 O   0  0  0  0  0  0  0  0  0  0  0  0
  188.6490  177.2450  142.7390 C   0  0  0  0  0  0  0  0  0  0  0  0
  188.6740  176.0120  142.4710 O   0  0  0  0  0  0  0  0  0  0  0  0
  188.5160  177.7060  144.1540 C   0  0  2  0  0  3  0  0  0  0  0  0
  189.5170  177.5900  146.4530 C   0  0  0  0  0  2  0  0  0  0  0  0
  187.0410  177.7680  146.1880 C   0  0  0  0  0  2  0  0  0  0  0  0
  186.1280  177.9230  143.9940 O   0  0  0  0  0  1  0  0  0  0  0  0
  189.6490  177.1310  145.0050 C   0  0  0  0  0  2  0  0  0  0  0  0
  188.1680  177.1590  147.0190 C   0  0  2  0  0  3  0  0  0  0  0  0
  187.1480  177.3200  144.7320 C   0  0  1  0  0  3  0  0  0  0  0  0
  188.0590  177.6200  148.4610 C   0  0  0  0  0  2  0  0  0  0  0  0
  189.0420  178.5700  148.7370 O   0  0  0  0  0  1  0  0  0  0  0  0
  3  2  2  0  0  0  0
  3  8  1  0  0  0  0
  4  2  1  6  0  0  0
  4  7  1  0  0  0  0
  5  8  2  0  0  0  0
  6  2  1  0  0  0  0
  7  1  1  0  0  0  0
  7 29  1  1  0  0  0
  8  1  1  0  0  0  0
 10 11  1  1  0  0  0
 10 14  1  0  0  0  0
 12 11  1  6  0  0  0
 12  4  1  0  0  0  0
 12  9  1  0  0  0  0
 14  9  1  0  0  0  0
 14 13  1  1  0  0  0
 15 16  1  6  0  0  0
 15 20  1  0  0  0  0
 15 17  1  0  0  0  0
 18 17  1  6  0  0  0
 18 10  1  0  0  0  0
 19 18  1  0  0  0  0
 20 24  1  1  0  0  0
 20 19  1  0  0  0  0
 21 15  1  0  0  0  0
 21 22  1  0  0  0  0
 23 21  2  0  0  0  0
 26 27  1  0  0  0  0
 26 24  1  0  0  0  0
 26 25  1  0  0  0  0
 28 26  2  0  0  0  0
 29 30  1  0  0  0  0
 31 30  2  0  0  0  0
 32 30  1  6  0  0  0
 32 38  1  0  0  0  0
 32 36  1  0  0  0  0
 33 37  1  0  0  0  0
 34 37  1  0  0  0  0
 36 33  1  0  0  0  0
 37 39  1  1  0  0  0
 38 35  1  6  0  0  0
 38 34  1  0  0  0  0
 39 40  1  0  0  0  0
M  END
>  <MODEL>
9

>  <REMARK>
 VINA RESULT:      -6.3      3.931      7.071
  Name = 
  9 active torsions:
  status: ('A' for Active; 'I' for Inactive)
    1  A    between atoms: C_1  and  C_2
    2  A    between atoms: C_1  and  O_37
    3  A    between atoms: C_5  and  C_6
    4  A    between atoms: C_7  and  C_35
    5  A    between atoms: O_14  and  P_24
    6  A    between atoms: O_14  and  C_32
    7  A    between atoms: C_18  and  C_33
    8  A    between atoms: C_21  and  C_27
    9  A    between atoms: C_34  and  O_37
                            x       y       z     vdW  Elec       q    Type
                         _______ _______ _______ _____ _____    ______ ____

>  <TORSDO>
F 9

$$$$
