=
 OpenBabel11042422423D

 66 73  0  0  1  0  0  0  0  0999 V2000
  162.5140  208.0670  148.2660 C   0  0  2  0  0  3  0  0  0  0  0  0
  162.1770  209.4560  148.7050 C   0  0  0  0  0  0  0  0  0  0  0  0
  161.5540  210.3380  147.8200 O   0  0  0  0  0  0  0  0  0  0  0  0
  161.1590  211.6750  148.1450 C   0  0  0  0  0  0  0  0  0  0  0  0
  162.3840  212.5360  148.3940 C   0  0  2  0  0  3  0  0  0  0  0  0
  161.5150  212.1230  149.5700 C   0  0  0  0  0  0  0  0  0  0  0  0
  162.4790  209.8430  149.9330 C   0  0  0  0  0  3  0  0  0  0  0  0
  162.1910  211.1390  150.3600 O   0  0  0  0  0  0  0  0  0  0  0  0
  162.0740  213.9660  148.0040 C   0  0  0  0  0  2  0  0  0  0  0  0
  160.6140  214.0850  147.6190 C   0  0  0  0  0  2  0  0  0  0  0  0
  160.5080  214.4520  146.1530 C   0  0  0  0  0  2  0  0  0  0  0  0
  160.3450  213.1950  145.3130 C   0  0  0  0  0  2  0  0  0  0  0  0
  162.3140  214.2130  144.5960 C   0  0  0  0  0  1  0  0  0  0  0  0
  161.4960  213.0210  144.4410 N   0  0  0  0  0  0  0  0  0  0  0  0
  161.5140  211.8850  142.3550 N   0  0  0  0  0  0  0  0  0  0  0  0
  160.9950  213.0310  143.0760 C   0  0  1  0  0  3  0  0  0  0  0  0
  160.2230  211.9280  142.8600 O   0  0  0  0  0  0  0  0  0  0  0  0
  161.4820  212.1180  140.8960 C   0  0  0  0  0  0  0  0  0  0  0  0
  162.7620  212.2760  140.3430 O   0  0  0  0  0  1  0  0  0  0  0  0
  160.7440  213.2770  140.6440 O   0  0  0  0  0  1  0  0  0  0  0  0
  160.7970  210.9440  140.2060 C   0  0  0  0  0  2  0  0  0  0  0  0
  161.7280  210.1430  139.5680 F   0  0  0  0  0  0  0  0  0  0  0  0
  160.6950  206.4020  147.9230 C   0  0  0  0  0  2  0  0  0  0  0  0
  161.7870  206.1200  146.9070 C   0  0  2  0  0  3  0  0  0  0  0  0
  161.4610  207.5520  147.2950 C   0  0  2  0  0  3  0  0  0  0  0  0
  161.1860  205.8320  145.6190 N   0  0  0  0  0  2  0  0  0  0  0  0
  162.0760  204.9150  144.9320 C   0  0  0  0  0  2  0  0  0  0  0  0
  160.7190  201.4570  147.1780 C   0  0  2  0  0  3  0  0  0  0  0  0
  162.6390  203.9780  145.8880 N   0  0  0  0  0  2  0  0  0  0  0  0
  161.8480  202.9250  146.4310 C   0  0  0  0  0  0  0  0  0  0  0  0
  162.0820  201.9310  147.3070 N   0  0  0  0  0  0  0  0  0  0  0  0
  160.4120  202.4960  146.2810 C   0  0  1  0  0  3  0  0  0  0  0  0
  158.8990  202.5740  144.4290 F   0  0  0  0  0  0  0  0  0  0  0  0
  160.0780  201.9980  144.8650 C   0  0  2  0  0  3  0  0  0  0  0  0
  159.9720  200.1810  144.6850 S   0  0  0  0  0  1  0  0  0  0  0  0
  159.9660  201.6590  148.4860 C   0  0  0  0  0  2  0  0  0  0  0  0
  160.8100  202.4470  149.4810 C   0  0  2  0  0  3  0  0  0  0  0  0
  160.8790  200.3960  150.7330 O   0  0  0  0  0  0  0  0  0  0  0  0
  160.9930  201.3760  151.6420 O   0  0  0  0  0  0  0  0  0  0  0  0
  161.6110  201.5210  150.4150 C   0  0  0  0  0  3  0  0  0  0  0  0
  160.0010  203.3390  150.1910 O   0  0  0  0  0  0  0  0  0  0  0  0
  160.5930  204.5880  150.0020 C   0  0  0  0  0  2  0  0  0  0  0  0
  161.9160  204.5360  150.3930 F   0  0  0  0  0  0  0  0  0  0  0  0
  162.5770  207.2270  149.3800 O   0  0  0  0  0  0  0  0  0  0  0  0
  161.9470  207.9350  150.4090 C   0  0  0  0  0  2  0  0  0  0  0  0
  162.4190  207.4160  151.7550 C   0  0  0  0  0  2  0  0  0  0  0  0
  161.8860  208.2210  152.7960 O   0  0  0  0  0  0  0  0  0  0  0  0
  160.3590  206.6300  153.4770 O   0  0  0  0  0  0  0  0  0  0  0  0
  160.0650  208.7640  154.3350 N   0  0  0  0  0  2  0  0  0  0  0  0
  160.7720  207.8190  153.5370 C   0  0  0  0  0  0  0  0  0  0  0  0
  158.0110  213.1580  151.5090 C   0  0  0  0  0  1  0  0  0  0  0  0
  157.5000  212.3930  155.2030 C   0  0  2  0  0  3  0  0  0  0  0  0
  157.1000  214.4520  153.9750 O   0  0  0  0  0  0  0  0  0  0  0  0
  157.5150  213.2610  153.9920 C   0  0  0  0  0  0  0  0  0  0  0  0
  160.1960  212.1080  155.7280 O   0  0  0  0  0  1  0  0  0  0  0  0
  158.4450  211.2730  153.1840 C   0  0  2  0  0  3  0  0  0  0  0  0
  160.4580  210.1640  154.3970 C   0  0  1  0  0  3  0  0  0  0  0  0
  160.1900  210.9360  152.7750 S   0  0  0  0  0  0  0  0  0  0  0  0
  159.5800  210.9000  155.3870 C   0  0  2  0  0  3  0  0  0  0  0  0
  158.0940  212.6380  152.8630 N   0  0  0  0  0  0  0  0  0  0  0  0
  158.2350  211.1350  154.6990 C   0  0  1  0  0  3  0  0  0  0  0  0
  156.0750  212.0200  155.6550 C   0  0  2  0  0  3  0  0  0  0  0  0
  155.8740  212.2810  157.1400 C   0  0  0  0  0  1  0  0  0  0  0  0
  155.7960  210.5400  155.4150 C   0  0  0  0  0  2  0  0  0  0  0  0
  154.3380  210.1760  155.6520 C   0  0  0  0  0  2  0  0  0  0  0  0
  154.2020  209.4710  156.8510 O   0  0  0  0  0  1  0  0  0  0  0  0
  1  2  1  0  0  0  0
  1 44  1  1  0  0  0
  2  7  2  0  0  0  0
  3  4  1  0  0  0  0
  3  2  1  0  0  0  0
  4  5  1  0  0  0  0
  4  6  2  0  0  0  0
  5  9  1  6  0  0  0
  5  6  1  0  0  0  0
  6  8  1  0  0  0  0
  7  8  1  0  0  0  0
 10  9  1  0  0  0  0
 11 10  1  0  0  0  0
 12 11  1  0  0  0  0
 14 13  1  0  0  0  0
 14 12  1  0  0  0  0
 15 17  1  0  0  0  0
 15 16  1  0  0  0  0
 16 14  1  1  0  0  0
 17 16  1  0  0  0  0
 18 15  1  0  0  0  0
 19 18  1  0  0  0  0
 20 18  1  0  0  0  0
 21 18  1  0  0  0  0
 22 21  1  0  0  0  0
 24 26  1  6  0  0  0
 24 25  1  0  0  0  0
 24 23  1  0  0  0  0
 25 23  1  0  0  0  0
 25  1  1  1  0  0  0
 27 26  1  0  0  0  0
 27 29  1  0  0  0  0
 28 31  1  0  0  0  0
 28 36  1  1  0  0  0
 29 30  1  0  0  0  0
 30 31  2  0  0  0  0
 32 34  1  6  0  0  0
 32 30  1  0  0  0  0
 32 28  1  0  0  0  0
 34 33  1  1  0  0  0
 35 34  1  0  0  0  0
 37 36  1  6  0  0  0
 37 41  1  0  0  0  0
 37 40  1  0  0  0  0
 38 39  1  0  0  0  0
 40 38  1  0  0  0  0
 40 39  1  0  0  0  0
 42 41  1  0  0  0  0
 42 43  1  0  0  0  0
 44 45  1  0  0  0  0
 45 46  1  0  0  0  0
 46 47  1  0  0  0  0
 47 50  1  0  0  0  0
 48 50  2  0  0  0  0
 50 49  1  0  0  0  0
 51 60  1  0  0  0  0
 52 62  1  6  0  0  0
 53 54  2  0  0  0  0
 54 52  1  0  0  0  0
 56 58  1  1  0  0  0
 56 61  1  0  0  0  0
 57 49  1  6  0  0  0
 57 59  1  0  0  0  0
 58 57  1  0  0  0  0
 59 55  1  6  0  0  0
 60 56  1  0  0  0  0
 60 54  1  0  0  0  0
 61 52  1  0  0  0  0
 61 59  1  0  0  0  0
 62 63  1  0  0  0  0
 64 65  1  0  0  0  0
 64 62  1  0  0  0  0
 65 66  1  0  0  0  0
M  END
>  <MODEL>
1

>  <REMARK>
 VINA RESULT:      -3.7      0.000      0.000
  Name = 
  28 active torsions:
  status: ('A' for Active; 'I' for Inactive)
    1  A    between atoms: C_1  and  C_34
    2  A    between atoms: C_2  and  O_12
    3  A    between atoms: C_2  and  C_27
    4  A    between atoms: C_2  and  C_52
    5  A    between atoms: O_3  and  C_32
    6  A    between atoms: O_3  and  C_34
    7  A    between atoms: C_5  and  C_18
    8  A    between atoms: C_5  and  N_55
    9  A    between atoms: C_7  and  C_17
   10  A    between atoms: C_7  and  C_25
   11  A    between atoms: C_9  and  C_11
   12  A    between atoms: C_9  and  C_14
   13  A    between atoms: C_10  and  C_24
   14  A    between atoms: C_11  and  C_18
   15  A    between atoms: O_12  and  C_53
   16  A    between atoms: C_13  and  N_22
   17  A    between atoms: C_13  and  N_33
   18  A    between atoms: N_15  and  C_24
   19  A    between atoms: C_19  and  C_27
   20  A    between atoms: C_25  and  C_54
   21  A    between atoms: O_28  and  C_49
   22  A    between atoms: O_28  and  C_65
   23  A    between atoms: C_32  and  C_49
   24  A    between atoms: N_33  and  C_43
   25  A    between atoms: C_34  and  C_59
   26  A    between atoms: C_35  and  C_61
   27  A    between atoms: C_45  and  N_63
   28  A    between atoms: C_46  and  N_55
                            x       y       z     vdW  Elec       q    Type
                         _______ _______ _______ _____ _____    ______ ____

>  <TORSDO>
F 28

$$$$
=
 OpenBabel11042422423D

 66 73  0  0  1  0  0  0  0  0999 V2000
  161.1710  204.8980  144.9780 C   0  0  2  0  0  3  0  0  0  0  0  0
  161.2640  205.4600  146.3600 C   0  0  0  0  0  0  0  0  0  0  0  0
  160.8350  206.7640  146.6160 O   0  0  0  0  0  0  0  0  0  0  0  0
  160.8480  207.3890  147.9030 C   0  0  0  0  0  0  0  0  0  0  0  0
  162.2790  207.5960  148.3700 C   0  0  2  0  0  3  0  0  0  0  0  0
  161.4290  206.5250  149.0330 C   0  0  0  0  0  0  0  0  0  0  0  0
  161.7590  204.7170  147.3350 C   0  0  0  0  0  3  0  0  0  0  0  0
  161.8730  205.2250  148.6290 O   0  0  0  0  0  0  0  0  0  0  0  0
  162.3400  208.8230  149.2550 C   0  0  0  0  0  2  0  0  0  0  0  0
  161.3730  208.6680  150.4100 C   0  0  0  0  0  2  0  0  0  0  0  0
  161.7890  209.5850  151.5420 C   0  0  0  0  0  2  0  0  0  0  0  0
  160.5590  210.1990  152.1910 C   0  0  0  0  0  2  0  0  0  0  0  0
  162.1330  210.4590  153.8890 C   0  0  0  0  0  1  0  0  0  0  0  0
  160.9520  211.0630  153.2940 N   0  0  0  0  0  0  0  0  0  0  0  0
  159.3250  212.3000  154.5030 N   0  0  0  0  0  0  0  0  0  0  0  0
  159.8930  210.9850  154.2880 C   0  0  1  0  0  3  0  0  0  0  0  0
  158.7030  211.3370  153.7220 O   0  0  0  0  0  0  0  0  0  0  0  0
  158.6550  212.3790  155.8180 C   0  0  0  0  0  0  0  0  0  0  0  0
  159.0570  211.3600  156.6940 O   0  0  0  0  0  1  0  0  0  0  0  0
  157.2750  212.2780  155.6240 O   0  0  0  0  0  1  0  0  0  0  0  0
  158.9580  213.7260  156.4660 C   0  0  0  0  0  2  0  0  0  0  0  0
  160.3070  213.8330  156.7570 F   0  0  0  0  0  0  0  0  0  0  0  0
  160.3840  202.5520  144.7120 C   0  0  0  0  0  2  0  0  0  0  0  0
  160.9070  202.7120  146.1270 C   0  0  2  0  0  3  0  0  0  0  0  0
  161.5890  203.4350  144.9770 C   0  0  2  0  0  3  0  0  0  0  0  0
  161.6950  201.5480  146.4850 N   0  0  0  0  0  2  0  0  0  0  0  0
  161.0220  200.9080  147.5990 C   0  0  0  0  0  2  0  0  0  0  0  0
  160.2560  202.6650  151.4950 C   0  0  2  0  0  3  0  0  0  0  0  0
  161.7660  201.1540  148.8210 N   0  0  0  0  0  2  0  0  0  0  0  0
  161.1460  201.7830  149.9400 C   0  0  0  0  0  0  0  0  0  0  0  0
  161.5630  202.1310  151.1700 N   0  0  0  0  0  0  0  0  0  0  0  0
  159.7770  202.3510  150.2100 C   0  0  1  0  0  3  0  0  0  0  0  0
  159.2260  200.0360  150.4700 F   0  0  0  0  0  0  0  0  0  0  0  0
  158.6740  201.2790  150.2170 C   0  0  2  0  0  3  0  0  0  0  0  0
  157.6600  201.1980  148.6970 S   0  0  0  0  0  1  0  0  0  0  0  0
  160.3330  204.1760  151.6650 C   0  0  0  0  0  2  0  0  0  0  0  0
  161.6470  204.5820  152.3220 C   0  0  2  0  0  3  0  0  0  0  0  0
  160.1260  205.6560  153.8420 O   0  0  0  0  0  0  0  0  0  0  0  0
  160.5490  206.6220  153.0140 O   0  0  0  0  0  0  0  0  0  0  0  0
  161.4380  205.6440  153.4160 C   0  0  0  0  0  3  0  0  0  0  0  0
  162.5580  205.0000  151.3480 O   0  0  0  0  0  0  0  0  0  0  0  0
  163.2230  206.0850  151.9210 C   0  0  0  0  0  2  0  0  0  0  0  0
  164.3070  206.4290  151.1370 F   0  0  0  0  0  0  0  0  0  0  0  0
  162.0030  205.6240  144.1210 O   0  0  0  0  0  0  0  0  0  0  0  0
  161.2140  205.9100  143.0020 C   0  0  0  0  0  2  0  0  0  0  0  0
  162.0820  205.9420  141.7560 C   0  0  0  0  0  2  0  0  0  0  0  0
  161.8960  207.1730  141.0720 O   0  0  0  0  0  0  0  0  0  0  0  0
  162.1140  206.2200  138.9820 O   0  0  0  0  0  0  0  0  0  0  0  0
  161.9960  208.5350  139.0440 N   0  0  0  0  0  2  0  0  0  0  0  0
  161.9920  207.2610  139.6810 C   0  0  0  0  0  0  0  0  0  0  0  0
  161.5030  213.8090  137.1870 C   0  0  0  0  0  1  0  0  0  0  0  0
  158.8060  211.7450  138.9060 C   0  0  2  0  0  3  0  0  0  0  0  0
  158.9030  214.1390  138.4970 O   0  0  0  0  0  0  0  0  0  0  0  0
  159.4460  213.0030  138.4280 C   0  0  0  0  0  0  0  0  0  0  0  0
  160.3980  211.0850  141.0650 O   0  0  0  0  0  1  0  0  0  0  0  0
  161.0880  211.4040  137.9570 C   0  0  2  0  0  3  0  0  0  0  0  0
  161.9170  209.7740  139.8020 C   0  0  1  0  0  3  0  0  0  0  0  0
  162.6610  211.1190  138.8350 S   0  0  0  0  0  0  0  0  0  0  0  0
  160.4680  210.1440  140.0320 C   0  0  2  0  0  3  0  0  0  0  0  0
  160.7570  212.8120  137.9340 N   0  0  0  0  0  0  0  0  0  0  0  0
  159.9420  210.7200  138.7160 C   0  0  1  0  0  3  0  0  0  0  0  0
  157.5860  211.3350  138.0600 C   0  0  2  0  0  3  0  0  0  0  0  0
  156.5200  212.4210  138.0530 C   0  0  0  0  0  1  0  0  0  0  0  0
  156.9380  210.0700  138.6140 C   0  0  0  0  0  2  0  0  0  0  0  0
  156.0820  209.3530  137.5800 C   0  0  0  0  0  2  0  0  0  0  0  0
  155.5610  208.1720  138.1140 O   0  0  0  0  0  1  0  0  0  0  0  0
  1 44  1  6  0  0  0
  1  2  1  0  0  0  0
  2  3  1  0  0  0  0
  2  7  2  0  0  0  0
  3  4  1  0  0  0  0
  4  5  1  0  0  0  0
  4  6  2  0  0  0  0
  5  6  1  0  0  0  0
  5  9  1  1  0  0  0
  7  8  1  0  0  0  0
  8  6  1  0  0  0  0
  9 10  1  0  0  0  0
 10 11  1  0  0  0  0
 11 12  1  0  0  0  0
 12 14  1  0  0  0  0
 14 13  1  0  0  0  0
 15 18  1  0  0  0  0
 16 14  1  6  0  0  0
 16 15  1  0  0  0  0
 17 16  1  0  0  0  0
 17 15  1  0  0  0  0
 18 21  1  0  0  0  0
 18 19  1  0  0  0  0
 20 18  1  0  0  0  0
 21 22  1  0  0  0  0
 23 25  1  0  0  0  0
 23 24  1  0  0  0  0
 24 26  1  6  0  0  0
 25  1  1  1  0  0  0
 25 24  1  0  0  0  0
 26 27  1  0  0  0  0
 27 29  1  0  0  0  0
 28 36  1  6  0  0  0
 29 30  1  0  0  0  0
 30 32  1  0  0  0  0
 30 31  2  0  0  0  0
 31 28  1  0  0  0  0
 32 34  1  1  0  0  0
 32 28  1  0  0  0  0
 34 35  1  6  0  0  0
 34 33  1  0  0  0  0
 37 36  1  6  0  0  0
 37 40  1  0  0  0  0
 39 40  1  0  0  0  0
 39 38  1  0  0  0  0
 40 38  1  0  0  0  0
 41 42  1  0  0  0  0
 41 37  1  0  0  0  0
 43 42  1  0  0  0  0
 45 44  1  0  0  0  0
 46 45  1  0  0  0  0
 47 46  1  0  0  0  0
 48 50  2  0  0  0  0
 49 50  1  0  0  0  0
 50 47  1  0  0  0  0
 51 60  1  0  0  0  0
 52 62  1  6  0  0  0
 54 53  2  0  0  0  0
 54 52  1  0  0  0  0
 56 61  1  0  0  0  0
 56 58  1  1  0  0  0
 57 49  1  6  0  0  0
 57 59  1  0  0  0  0
 58 57  1  0  0  0  0
 59 55  1  1  0  0  0
 60 56  1  0  0  0  0
 60 54  1  0  0  0  0
 61 52  1  0  0  0  0
 61 59  1  0  0  0  0
 62 64  1  0  0  0  0
 63 62  1  0  0  0  0
 65 66  1  0  0  0  0
 65 64  1  0  0  0  0
M  END
>  <MODEL>
2

>  <REMARK>
 VINA RESULT:      -2.7      3.783     10.968
  Name = 
  28 active torsions:
  status: ('A' for Active; 'I' for Inactive)
    1  A    between atoms: C_1  and  C_34
    2  A    between atoms: C_2  and  O_12
    3  A    between atoms: C_2  and  C_27
    4  A    between atoms: C_2  and  C_52
    5  A    between atoms: O_3  and  C_32
    6  A    between atoms: O_3  and  C_34
    7  A    between atoms: C_5  and  C_18
    8  A    between atoms: C_5  and  N_55
    9  A    between atoms: C_7  and  C_17
   10  A    between atoms: C_7  and  C_25
   11  A    between atoms: C_9  and  C_11
   12  A    between atoms: C_9  and  C_14
   13  A    between atoms: C_10  and  C_24
   14  A    between atoms: C_11  and  C_18
   15  A    between atoms: O_12  and  C_53
   16  A    between atoms: C_13  and  N_22
   17  A    between atoms: C_13  and  N_33
   18  A    between atoms: N_15  and  C_24
   19  A    between atoms: C_19  and  C_27
   20  A    between atoms: C_25  and  C_54
   21  A    between atoms: O_28  and  C_49
   22  A    between atoms: O_28  and  C_65
   23  A    between atoms: C_32  and  C_49
   24  A    between atoms: N_33  and  C_43
   25  A    between atoms: C_34  and  C_59
   26  A    between atoms: C_35  and  C_61
   27  A    between atoms: C_45  and  N_63
   28  A    between atoms: C_46  and  N_55
                            x       y       z     vdW  Elec       q    Type
                         _______ _______ _______ _____ _____    ______ ____

>  <TORSDO>
F 28

$$$$
=
 OpenBabel11042422423D

 66 73  0  0  1  0  0  0  0  0999 V2000
  162.2080  211.7850  150.4840 C   0  0  2  0  0  3  0  0  0  0  0  0
  161.0140  212.4530  151.0850 C   0  0  0  0  0  0  0  0  0  0  0  0
  160.5970  212.1140  152.3740 O   0  0  0  0  0  0  0  0  0  0  0  0
  159.4910  212.7120  153.0570 C   0  0  0  0  0  0  0  0  0  0  0  0
  158.1890  212.3460  152.3650 C   0  0  2  0  0  3  0  0  0  0  0  0
  158.7230  213.7630  152.2420 C   0  0  0  0  0  0  0  0  0  0  0  0
  160.3530  213.3610  150.3870 C   0  0  0  0  0  3  0  0  0  0  0  0
  159.2260  213.9860  150.9200 O   0  0  0  0  0  0  0  0  0  0  0  0
  157.0760  212.3040  153.3910 C   0  0  0  0  0  2  0  0  0  0  0  0
  157.5390  211.5450  154.6170 C   0  0  0  0  0  2  0  0  0  0  0  0
  156.9730  212.2010  155.8600 C   0  0  0  0  0  2  0  0  0  0  0  0
  157.9900  213.1650  156.4470 C   0  0  0  0  0  2  0  0  0  0  0  0
  160.2060  213.2600  157.1610 C   0  0  0  0  0  1  0  0  0  0  0  0
  159.0100  212.4330  157.1820 N   0  0  0  0  0  0  0  0  0  0  0  0
  160.6780  210.8250  156.6580 N   0  0  0  0  0  0  0  0  0  0  0  0
  159.3120  211.2390  156.4080 C   0  0  1  0  0  3  0  0  0  0  0  0
  159.5890  210.2020  157.2490 O   0  0  0  0  0  0  0  0  0  0  0  0
  161.1880  209.9860  155.5530 C   0  0  0  0  0  0  0  0  0  0  0  0
  160.2750  209.8700  154.4940 O   0  0  0  0  0  1  0  0  0  0  0  0
  161.4570  208.7090  156.0490 O   0  0  0  0  0  1  0  0  0  0  0  0
  162.4840  210.5830  155.0150 C   0  0  0  0  0  2  0  0  0  0  0  0
  163.4250  210.6940  156.0240 F   0  0  0  0  0  0  0  0  0  0  0  0
  162.9780  211.9020  148.1190 C   0  0  0  0  0  2  0  0  0  0  0  0
  161.6330  212.5980  148.2080 C   0  0  2  0  0  3  0  0  0  0  0  0
  161.9090  211.3640  149.0520 C   0  0  2  0  0  3  0  0  0  0  0  0
  160.8170  212.2180  147.0710 N   0  0  0  0  0  2  0  0  0  0  0  0
  160.8650  213.3200  146.1290 C   0  0  0  0  0  2  0  0  0  0  0  0
  160.7840  212.4840  141.8700 C   0  0  2  0  0  3  0  0  0  0  0  0
  161.8280  213.0230  145.0840 N   0  0  0  0  0  2  0  0  0  0  0  0
  161.4030  212.7970  143.7430 C   0  0  0  0  0  0  0  0  0  0  0  0
  162.0400  212.5120  142.5930 N   0  0  0  0  0  0  0  0  0  0  0  0
  160.0670  212.7510  143.0500 C   0  0  1  0  0  3  0  0  0  0  0  0
  158.5810  214.2540  144.1730 F   0  0  0  0  0  0  0  0  0  0  0  0
  159.3520  214.1120  143.0330 C   0  0  2  0  0  3  0  0  0  0  0  0
  158.3200  214.4290  141.5560 S   0  0  0  0  0  1  0  0  0  0  0  0
  160.4860  211.0710  141.3870 C   0  0  0  0  0  2  0  0  0  0  0  0
  160.3580  211.0330  139.8690 C   0  0  2  0  0  3  0  0  0  0  0  0
  158.7960  211.1440  138.0450 O   0  0  0  0  0  0  0  0  0  0  0  0
  158.5460  212.2250  138.7980 O   0  0  0  0  0  0  0  0  0  0  0  0
  158.8860  211.0370  139.4170 C   0  0  0  0  0  3  0  0  0  0  0  0
  161.0620  209.9380  139.3590 O   0  0  0  0  0  0  0  0  0  0  0  0
  161.3440  210.2780  138.0350 C   0  0  0  0  0  2  0  0  0  0  0  0
  162.1800  211.3770  138.0080 F   0  0  0  0  0  0  0  0  0  0  0  0
  162.5470  210.6610  151.2420 O   0  0  0  0  0  0  0  0  0  0  0  0
  161.6620  209.6600  150.8290 C   0  0  0  0  0  2  0  0  0  0  0  0
  162.4290  208.3840  150.5340 C   0  0  0  0  0  2  0  0  0  0  0  0
  161.6550  207.5390  149.6940 O   0  0  0  0  0  0  0  0  0  0  0  0
  160.8470  208.7770  147.9230 O   0  0  0  0  0  0  0  0  0  0  0  0
  162.1030  206.9060  147.3750 N   0  0  0  0  0  2  0  0  0  0  0  0
  161.5180  207.7910  148.3270 C   0  0  0  0  0  0  0  0  0  0  0  0
  160.2770  202.3640  150.1230 C   0  0  0  0  0  1  0  0  0  0  0  0
  161.2180  202.5650  146.4400 C   0  0  2  0  0  3  0  0  0  0  0  0
  160.8900  200.6160  147.8530 O   0  0  0  0  0  0  0  0  0  0  0  0
  160.9410  201.8690  147.7270 C   0  0  0  0  0  0  0  0  0  0  0  0
  163.6970  203.6820  146.9220 O   0  0  0  0  0  1  0  0  0  0  0  0
  160.8720  204.1210  148.3600 C   0  0  2  0  0  3  0  0  0  0  0  0
  162.8390  205.7180  147.7810 C   0  0  1  0  0  3  0  0  0  0  0  0
  162.1160  205.0570  149.3100 S   0  0  0  0  0  0  0  0  0  0  0  0
  162.6990  204.6420  146.7250 C   0  0  2  0  0  3  0  0  0  0  0  0
  160.7920  202.7530  148.8210 N   0  0  0  0  0  0  0  0  0  0  0  0
  161.3040  204.0380  146.8880 C   0  0  1  0  0  3  0  0  0  0  0  0
  160.0830  202.3980  145.4120 C   0  0  2  0  0  3  0  0  0  0  0  0
  160.0660  200.9960  144.8210 C   0  0  0  0  0  1  0  0  0  0  0  0
  160.2470  203.3750  144.2520 C   0  0  0  0  0  2  0  0  0  0  0  0
  161.0880  204.5870  144.6260 C   0  0  0  0  0  2  0  0  0  0  0  0
  160.4950  205.7570  144.1450 O   0  0  0  0  0  1  0  0  0  0  0  0
  1  2  1  0  0  0  0
  1 44  1  1  0  0  0
  2  3  1  0  0  0  0
  3  4  1  0  0  0  0
  5  4  1  0  0  0  0
  5  9  1  1  0  0  0
  6  5  1  0  0  0  0
  6  4  2  0  0  0  0
  7  8  1  0  0  0  0
  7  2  2  0  0  0  0
  8  6  1  0  0  0  0
  9 10  1  0  0  0  0
 10 11  1  0  0  0  0
 11 12  1  0  0  0  0
 12 14  1  0  0  0  0
 13 14  1  0  0  0  0
 15 17  1  0  0  0  0
 16 15  1  0  0  0  0
 16 14  1  1  0  0  0
 16 17  1  0  0  0  0
 18 20  1  0  0  0  0
 18 15  1  0  0  0  0
 19 18  1  0  0  0  0
 21 18  1  0  0  0  0
 21 22  1  0  0  0  0
 23 24  1  0  0  0  0
 23 25  1  0  0  0  0
 24 26  1  6  0  0  0
 24 25  1  0  0  0  0
 25  1  1  1  0  0  0
 27 26  1  0  0  0  0
 28 36  1  1  0  0  0
 28 31  1  0  0  0  0
 28 32  1  0  0  0  0
 29 27  1  0  0  0  0
 30 29  1  0  0  0  0
 31 30  2  0  0  0  0
 32 34  1  6  0  0  0
 32 30  1  0  0  0  0
 34 35  1  6  0  0  0
 34 33  1  0  0  0  0
 37 36  1  1  0  0  0
 38 39  1  0  0  0  0
 38 40  1  0  0  0  0
 39 40  1  0  0  0  0
 40 37  1  0  0  0  0
 41 37  1  0  0  0  0
 42 41  1  0  0  0  0
 43 42  1  0  0  0  0
 45 44  1  0  0  0  0
 46 45  1  0  0  0  0
 47 46  1  0  0  0  0
 48 50  2  0  0  0  0
 49 50  1  0  0  0  0
 50 47  1  0  0  0  0
 52 62  1  6  0  0  0
 52 61  1  0  0  0  0
 52 54  1  0  0  0  0
 54 53  2  0  0  0  0
 54 60  1  0  0  0  0
 56 60  1  0  0  0  0
 56 58  1  1  0  0  0
 57 49  1  6  0  0  0
 57 58  1  0  0  0  0
 59 61  1  0  0  0  0
 59 55  1  1  0  0  0
 59 57  1  0  0  0  0
 60 51  1  0  0  0  0
 61 56  1  0  0  0  0
 63 62  1  0  0  0  0
 64 65  1  0  0  0  0
 64 62  1  0  0  0  0
 66 65  1  0  0  0  0
M  END
>  <MODEL>
3

>  <REMARK>
 VINA RESULT:      -2.3      2.984     11.230
  Name = 
  28 active torsions:
  status: ('A' for Active; 'I' for Inactive)
    1  A    between atoms: C_1  and  C_34
    2  A    between atoms: C_2  and  O_12
    3  A    between atoms: C_2  and  C_27
    4  A    between atoms: C_2  and  C_52
    5  A    between atoms: O_3  and  C_32
    6  A    between atoms: O_3  and  C_34
    7  A    between atoms: C_5  and  C_18
    8  A    between atoms: C_5  and  N_55
    9  A    between atoms: C_7  and  C_17
   10  A    between atoms: C_7  and  C_25
   11  A    between atoms: C_9  and  C_11
   12  A    between atoms: C_9  and  C_14
   13  A    between atoms: C_10  and  C_24
   14  A    between atoms: C_11  and  C_18
   15  A    between atoms: O_12  and  C_53
   16  A    between atoms: C_13  and  N_22
   17  A    between atoms: C_13  and  N_33
   18  A    between atoms: N_15  and  C_24
   19  A    between atoms: C_19  and  C_27
   20  A    between atoms: C_25  and  C_54
   21  A    between atoms: O_28  and  C_49
   22  A    between atoms: O_28  and  C_65
   23  A    between atoms: C_32  and  C_49
   24  A    between atoms: N_33  and  C_43
   25  A    between atoms: C_34  and  C_59
   26  A    between atoms: C_35  and  C_61
   27  A    between atoms: C_45  and  N_63
   28  A    between atoms: C_46  and  N_55
                            x       y       z     vdW  Elec       q    Type
                         _______ _______ _______ _____ _____    ______ ____

>  <TORSDO>
F 28

$$$$
=
 OpenBabel11042422423D

 66 73  0  0  1  0  0  0  0  0999 V2000
  160.9290  212.3050  148.4280 C   0  0  2  0  0  3  0  0  0  0  0  0
  160.5970  213.0170  147.1570 C   0  0  0  0  0  0  0  0  0  0  0  0
  159.3250  212.8930  146.5960 O   0  0  0  0  0  0  0  0  0  0  0  0
  158.8920  213.5560  145.4030 C   0  0  0  0  0  0  0  0  0  0  0  0
  159.6500  213.0190  144.2020 C   0  0  2  0  0  3  0  0  0  0  0  0
  159.9650  214.4140  144.7170 C   0  0  0  0  0  0  0  0  0  0  0  0
  161.5180  213.7600  146.5660 C   0  0  0  0  0  3  0  0  0  0  0  0
  161.2390  214.4210  145.3700 O   0  0  0  0  0  0  0  0  0  0  0  0
  158.7670  213.1120  142.9750 C   0  0  0  0  0  2  0  0  0  0  0  0
  159.3440  214.1240  142.0070 C   0  0  0  0  0  2  0  0  0  0  0  0
  159.5250  213.4750  140.6490 C   0  0  0  0  0  2  0  0  0  0  0  0
  160.6180  212.4210  140.7190 C   0  0  0  0  0  2  0  0  0  0  0  0
  161.1650  213.7790  138.9070 C   0  0  0  0  0  1  0  0  0  0  0  0
  161.4830  212.5160  139.5530 N   0  0  0  0  0  0  0  0  0  0  0  0
  161.4940  210.1740  139.1560 N   0  0  0  0  0  0  0  0  0  0  0  0
  161.0740  211.4610  138.6390 C   0  0  1  0  0  3  0  0  0  0  0  0
  160.1880  210.6310  139.2590 O   0  0  0  0  0  0  0  0  0  0  0  0
  161.5840  209.1710  138.0750 C   0  0  0  0  0  0  0  0  0  0  0  0
  162.4020  209.5890  137.0140 O   0  0  0  0  0  1  0  0  0  0  0  0
  160.3000  208.9340  137.5770 O   0  0  0  0  0  1  0  0  0  0  0  0
  162.1390  207.8660  138.6320 C   0  0  0  0  0  2  0  0  0  0  0  0
  161.4130  206.7860  138.1600 F   0  0  0  0  0  0  0  0  0  0  0  0
  159.9090  214.3260  149.4630 C   0  0  0  0  0  2  0  0  0  0  0  0
  160.8780  213.7250  150.4650 C   0  0  2  0  0  3  0  0  0  0  0  0
  160.0550  212.8200  149.5630 C   0  0  2  0  0  3  0  0  0  0  0  0
  160.2800  213.7440  151.7860 N   0  0  0  0  0  2  0  0  0  0  0  0
  158.9110  214.1950  151.6240 C   0  0  0  0  0  2  0  0  0  0  0  0
  158.0230  211.4470  154.8650 C   0  0  2  0  0  3  0  0  0  0  0  0
  158.0030  213.0870  151.8620 N   0  0  0  0  0  2  0  0  0  0  0  0
  158.0040  212.3980  153.1090 C   0  0  0  0  0  0  0  0  0  0  0  0
  157.3010  211.3670  153.6120 N   0  0  0  0  0  0  0  0  0  0  0  0
  158.8080  212.5080  154.3780 C   0  0  1  0  0  3  0  0  0  0  0  0
  159.7830  214.4470  155.3870 F   0  0  0  0  0  0  0  0  0  0  0  0
  158.5720  213.8320  155.1250 C   0  0  2  0  0  3  0  0  0  0  0  0
  157.6130  213.6880  156.6760 S   0  0  0  0  0  1  0  0  0  0  0  0
  158.8850  210.2070  155.0560 C   0  0  0  0  0  2  0  0  0  0  0  0
  160.3120  210.4600  154.5810 C   0  0  2  0  0  3  0  0  0  0  0  0
  161.9420  209.6210  153.0260 O   0  0  0  0  0  0  0  0  0  0  0  0
  161.3230  210.6270  152.3910 O   0  0  0  0  0  0  0  0  0  0  0  0
  160.5880  209.8000  153.2180 C   0  0  0  0  0  3  0  0  0  0  0  0
  161.2210  210.0480  155.5600 O   0  0  0  0  0  0  0  0  0  0  0  0
  161.4700  211.1910  156.3210 C   0  0  0  0  0  2  0  0  0  0  0  0
  162.6260  211.0150  157.0550 F   0  0  0  0  0  0  0  0  0  0  0  0
  162.2750  212.5090  148.7420 O   0  0  0  0  0  0  0  0  0  0  0  0
  162.8540  211.2360  148.7160 C   0  0  0  0  0  2  0  0  0  0  0  0
  161.8090  210.1890  149.0570 C   0  0  0  0  0  2  0  0  0  0  0  0
  162.1270  208.9630  148.4150 O   0  0  0  0  0  0  0  0  0  0  0  0
  160.3130  209.0190  146.9900 O   0  0  0  0  0  0  0  0  0  0  0  0
  161.3780  206.9710  147.2110 N   0  0  0  0  0  2  0  0  0  0  0  0
  161.2480  208.3570  147.5140 C   0  0  0  0  0  0  0  0  0  0  0  0
  161.2500  204.2370  152.1120 C   0  0  0  0  0  1  0  0  0  0  0  0
  161.0730  202.6850  148.6410 C   0  0  2  0  0  3  0  0  0  0  0  0
  161.5130  201.6370  150.7880 O   0  0  0  0  0  0  0  0  0  0  0  0
  161.2980  202.6800  150.1130 C   0  0  0  0  0  0  0  0  0  0  0  0
  163.3420  203.9680  147.7260 O   0  0  0  0  0  1  0  0  0  0  0  0
  161.0000  204.9570  149.6690 C   0  0  2  0  0  3  0  0  0  0  0  0
  162.4010  206.1420  147.8290 C   0  0  1  0  0  3  0  0  0  0  0  0
  162.2670  206.2690  149.6360 S   0  0  0  0  0  0  0  0  0  0  0  0
  162.1710  204.6890  147.4700 C   0  0  2  0  0  3  0  0  0  0  0  0
  161.3020  203.9730  150.6840 N   0  0  0  0  0  0  0  0  0  0  0  0
  161.0110  204.1950  148.3360 C   0  0  1  0  0  3  0  0  0  0  0  0
  159.7460  202.0160  148.2350 C   0  0  2  0  0  3  0  0  0  0  0  0
  159.1280  201.2510  149.3950 C   0  0  0  0  0  1  0  0  0  0  0  0
  159.9620  201.0190  147.1000 C   0  0  0  0  0  2  0  0  0  0  0  0
  160.8210  201.5870  145.9800 C   0  0  0  0  0  2  0  0  0  0  0  0
  160.1740  201.4440  144.7500 O   0  0  0  0  0  1  0  0  0  0  0  0
  1 44  1  1  0  0  0
  2  1  1  0  0  0  0
  3  2  1  0  0  0  0
  4  3  1  0  0  0  0
  5  9  1  6  0  0  0
  5  6  1  0  0  0  0
  5  4  1  0  0  0  0
  6  8  1  0  0  0  0
  6  4  2  0  0  0  0
  7  2  2  0  0  0  0
  8  7  1  0  0  0  0
 10  9  1  0  0  0  0
 11 12  1  0  0  0  0
 11 10  1  0  0  0  0
 13 14  1  0  0  0  0
 14 12  1  0  0  0  0
 15 17  1  0  0  0  0
 16 15  1  0  0  0  0
 16 17  1  0  0  0  0
 16 14  1  1  0  0  0
 18 21  1  0  0  0  0
 18 15  1  0  0  0  0
 19 18  1  0  0  0  0
 20 18  1  0  0  0  0
 22 21  1  0  0  0  0
 23 25  1  0  0  0  0
 23 24  1  0  0  0  0
 24 26  1  1  0  0  0
 25  1  1  6  0  0  0
 25 24  1  0  0  0  0
 27 26  1  0  0  0  0
 27 29  1  0  0  0  0
 28 36  1  6  0  0  0
 29 30  1  0  0  0  0
 30 31  2  0  0  0  0
 30 32  1  0  0  0  0
 31 28  1  0  0  0  0
 32 28  1  0  0  0  0
 32 34  1  1  0  0  0
 34 33  1  1  0  0  0
 34 35  1  0  0  0  0
 37 36  1  1  0  0  0
 37 41  1  0  0  0  0
 38 40  1  0  0  0  0
 39 38  1  0  0  0  0
 39 40  1  0  0  0  0
 40 37  1  0  0  0  0
 41 42  1  0  0  0  0
 42 43  1  0  0  0  0
 45 44  1  0  0  0  0
 45 46  1  0  0  0  0
 47 46  1  0  0  0  0
 48 50  2  0  0  0  0
 49 50  1  0  0  0  0
 50 47  1  0  0  0  0
 52 62  1  1  0  0  0
 52 54  1  0  0  0  0
 54 60  1  0  0  0  0
 54 53  2  0  0  0  0
 56 58  1  6  0  0  0
 56 60  1  0  0  0  0
 57 49  1  6  0  0  0
 57 58  1  0  0  0  0
 59 55  1  1  0  0  0
 59 57  1  0  0  0  0
 59 61  1  0  0  0  0
 60 51  1  0  0  0  0
 61 52  1  0  0  0  0
 61 56  1  0  0  0  0
 62 63  1  0  0  0  0
 64 62  1  0  0  0  0
 65 64  1  0  0  0  0
 66 65  1  0  0  0  0
M  END
>  <MODEL>
4

>  <REMARK>
 VINA RESULT:      -2.1      3.051      9.237
  Name = 
  28 active torsions:
  status: ('A' for Active; 'I' for Inactive)
    1  A    between atoms: C_1  and  C_34
    2  A    between atoms: C_2  and  O_12
    3  A    between atoms: C_2  and  C_27
    4  A    between atoms: C_2  and  C_52
    5  A    between atoms: O_3  and  C_32
    6  A    between atoms: O_3  and  C_34
    7  A    between atoms: C_5  and  C_18
    8  A    between atoms: C_5  and  N_55
    9  A    between atoms: C_7  and  C_17
   10  A    between atoms: C_7  and  C_25
   11  A    between atoms: C_9  and  C_11
   12  A    between atoms: C_9  and  C_14
   13  A    between atoms: C_10  and  C_24
   14  A    between atoms: C_11  and  C_18
   15  A    between atoms: O_12  and  C_53
   16  A    between atoms: C_13  and  N_22
   17  A    between atoms: C_13  and  N_33
   18  A    between atoms: N_15  and  C_24
   19  A    between atoms: C_19  and  C_27
   20  A    between atoms: C_25  and  C_54
   21  A    between atoms: O_28  and  C_49
   22  A    between atoms: O_28  and  C_65
   23  A    between atoms: C_32  and  C_49
   24  A    between atoms: N_33  and  C_43
   25  A    between atoms: C_34  and  C_59
   26  A    between atoms: C_35  and  C_61
   27  A    between atoms: C_45  and  N_63
   28  A    between atoms: C_46  and  N_55
                            x       y       z     vdW  Elec       q    Type
                         _______ _______ _______ _____ _____    ______ ____

>  <TORSDO>
F 28

$$$$
=
 OpenBabel11042422423D

 66 73  0  0  1  0  0  0  0  0999 V2000
  160.9850  212.2530  148.3770 C   0  0  2  0  0  3  0  0  0  0  0  0
  160.7020  212.8660  147.0440 C   0  0  0  0  0  0  0  0  0  0  0  0
  159.6670  212.3690  146.2500 O   0  0  0  0  0  0  0  0  0  0  0  0
  159.2900  212.8990  144.9750 C   0  0  0  0  0  0  0  0  0  0  0  0
  160.3960  212.6620  143.9620 C   0  0  2  0  0  3  0  0  0  0  0  0
  160.1550  214.0690  144.4830 C   0  0  0  0  0  0  0  0  0  0  0  0
  161.4430  213.8760  146.6190 C   0  0  0  0  0  3  0  0  0  0  0  0
  161.2110  214.4520  145.3700 O   0  0  0  0  0  0  0  0  0  0  0  0
  159.7850  212.5130  142.5850 C   0  0  0  0  0  2  0  0  0  0  0  0
  160.8810  212.4710  141.5410 C   0  0  0  0  0  2  0  0  0  0  0  0
  160.6090  213.5180  140.4810 C   0  0  0  0  0  2  0  0  0  0  0  0
  159.2180  213.3210  139.9020 C   0  0  0  0  0  2  0  0  0  0  0  0
  158.3290  213.4430  137.7520 C   0  0  0  0  0  1  0  0  0  0  0  0
  159.3050  212.7430  138.5700 N   0  0  0  0  0  0  0  0  0  0  0  0
  157.7950  211.1200  137.7170 N   0  0  0  0  0  0  0  0  0  0  0  0
  158.8520  211.3650  138.6780 C   0  0  1  0  0  3  0  0  0  0  0  0
  159.1030  210.7040  137.5120 O   0  0  0  0  0  0  0  0  0  0  0  0
  156.9670  209.9650  138.1230 C   0  0  0  0  0  0  0  0  0  0  0  0
  157.2070  209.5630  139.4460 O   0  0  0  0  0  1  0  0  0  0  0  0
  157.2500  208.8910  137.2760 O   0  0  0  0  0  1  0  0  0  0  0  0
  155.4910  210.3200  137.9830 C   0  0  0  0  0  2  0  0  0  0  0  0
  154.8770  210.3450  139.2230 F   0  0  0  0  0  0  0  0  0  0  0  0
  159.6860  214.2280  149.1590 C   0  0  0  0  0  2  0  0  0  0  0  0
  160.6530  213.8370  150.2620 C   0  0  2  0  0  3  0  0  0  0  0  0
  159.9920  212.7640  149.4120 C   0  0  2  0  0  3  0  0  0  0  0  0
  159.9760  213.9050  151.5430 N   0  0  0  0  0  2  0  0  0  0  0  0
  158.5760  214.1690  151.2680 C   0  0  0  0  0  2  0  0  0  0  0  0
  158.4860  211.0800  154.3180 C   0  0  2  0  0  3  0  0  0  0  0  0
  157.7940  212.9810  151.5580 N   0  0  0  0  0  2  0  0  0  0  0  0
  158.0740  212.1830  152.7040 C   0  0  0  0  0  0  0  0  0  0  0  0
  157.5400  211.0620  153.2210 N   0  0  0  0  0  0  0  0  0  0  0  0
  159.1030  212.2350  153.8030 C   0  0  1  0  0  3  0  0  0  0  0  0
  159.8460  214.4460  154.3380 F   0  0  0  0  0  0  0  0  0  0  0  0
  158.9470  213.4650  154.7140 C   0  0  2  0  0  3  0  0  0  0  0  0
  159.1200  213.1320  156.5040 S   0  0  0  0  0  1  0  0  0  0  0  0
  159.4350  209.8940  154.2130 C   0  0  0  0  0  2  0  0  0  0  0  0
  160.0310  209.5540  155.5750 C   0  0  2  0  0  3  0  0  0  0  0  0
  161.8170  210.9140  156.4340 O   0  0  0  0  0  0  0  0  0  0  0  0
  161.8520  211.0720  155.1030 O   0  0  0  0  0  0  0  0  0  0  0  0
  161.5440  209.8310  155.6240 C   0  0  0  0  0  3  0  0  0  0  0  0
  159.7250  208.2320  155.9120 O   0  0  0  0  0  0  0  0  0  0  0  0
  160.9310  207.5420  155.7860 C   0  0  0  0  0  2  0  0  0  0  0  0
  160.9290  206.8200  154.6090 F   0  0  0  0  0  0  0  0  0  0  0  0
  162.2850  212.5770  148.7740 O   0  0  0  0  0  0  0  0  0  0  0  0
  162.9560  211.3530  148.8630 C   0  0  0  0  0  2  0  0  0  0  0  0
  161.9930  210.2700  149.3150 C   0  0  0  0  0  2  0  0  0  0  0  0
  162.2640  209.0620  148.6190 O   0  0  0  0  0  0  0  0  0  0  0  0
  160.5280  209.3160  147.1200 O   0  0  0  0  0  0  0  0  0  0  0  0
  161.4600  207.1970  147.2570 N   0  0  0  0  0  2  0  0  0  0  0  0
  161.3970  208.5680  147.6420 C   0  0  0  0  0  0  0  0  0  0  0  0
  160.4710  202.9190  150.7540 C   0  0  0  0  0  1  0  0  0  0  0  0
  161.4920  202.6720  147.0950 C   0  0  2  0  0  3  0  0  0  0  0  0
  161.5050  200.9690  148.8280 O   0  0  0  0  0  0  0  0  0  0  0  0
  161.3100  202.1660  148.4840 C   0  0  0  0  0  0  0  0  0  0  0  0
  163.6790  204.3340  147.3800 O   0  0  0  0  0  1  0  0  0  0  0  0
  160.7720  204.4320  148.7120 C   0  0  2  0  0  3  0  0  0  0  0  0
  162.4010  206.2700  147.8670 C   0  0  1  0  0  3  0  0  0  0  0  0
  161.7670  205.7490  149.4870 S   0  0  0  0  0  0  0  0  0  0  0  0
  162.5190  205.0240  147.0150 C   0  0  2  0  0  3  0  0  0  0  0  0
  160.9480  203.1750  149.4060 N   0  0  0  0  0  0  0  0  0  0  0  0
  161.2660  204.1860  147.2790 C   0  0  1  0  0  3  0  0  0  0  0  0
  160.4520  202.1050  146.1100 C   0  0  2  0  0  3  0  0  0  0  0  0
  160.8780  200.7500  145.5670 C   0  0  0  0  0  1  0  0  0  0  0  0
  160.2690  203.0340  144.9140 C   0  0  0  0  0  2  0  0  0  0  0  0
  161.4930  203.9000  144.6560 C   0  0  0  0  0  2  0  0  0  0  0  0
  161.1930  204.9050  143.7340 O   0  0  0  0  0  1  0  0  0  0  0  0
  1 44  1  1  0  0  0
  2  1  1  0  0  0  0
  3  2  1  0  0  0  0
  4  3  1  0  0  0  0
  5  9  1  6  0  0  0
  5  6  1  0  0  0  0
  5  4  1  0  0  0  0
  6  4  2  0  0  0  0
  6  8  1  0  0  0  0
  7  2  2  0  0  0  0
  8  7  1  0  0  0  0
 10  9  1  0  0  0  0
 11 10  1  0  0  0  0
 12 11  1  0  0  0  0
 13 14  1  0  0  0  0
 14 12  1  0  0  0  0
 15 18  1  0  0  0  0
 15 16  1  0  0  0  0
 16 14  1  6  0  0  0
 17 15  1  0  0  0  0
 17 16  1  0  0  0  0
 18 19  1  0  0  0  0
 20 18  1  0  0  0  0
 21 18  1  0  0  0  0
 21 22  1  0  0  0  0
 23 25  1  0  0  0  0
 23 24  1  0  0  0  0
 24 26  1  1  0  0  0
 25  1  1  6  0  0  0
 25 24  1  0  0  0  0
 27 26  1  0  0  0  0
 27 29  1  0  0  0  0
 28 36  1  6  0  0  0
 29 30  1  0  0  0  0
 30 31  2  0  0  0  0
 30 32  1  0  0  0  0
 31 28  1  0  0  0  0
 32 28  1  0  0  0  0
 32 34  1  1  0  0  0
 34 33  1  6  0  0  0
 34 35  1  0  0  0  0
 37 36  1  6  0  0  0
 37 40  1  0  0  0  0
 37 41  1  0  0  0  0
 39 40  1  0  0  0  0
 39 38  1  0  0  0  0
 40 38  1  0  0  0  0
 42 41  1  0  0  0  0
 43 42  1  0  0  0  0
 44 45  1  0  0  0  0
 45 46  1  0  0  0  0
 47 46  1  0  0  0  0
 48 50  2  0  0  0  0
 49 50  1  0  0  0  0
 50 47  1  0  0  0  0
 52 62  1  6  0  0  0
 52 61  1  0  0  0  0
 52 54  1  0  0  0  0
 54 53  2  0  0  0  0
 54 60  1  0  0  0  0
 56 60  1  0  0  0  0
 56 58  1  1  0  0  0
 57 49  1  6  0  0  0
 57 58  1  0  0  0  0
 59 61  1  0  0  0  0
 59 55  1  1  0  0  0
 59 57  1  0  0  0  0
 60 51  1  0  0  0  0
 61 56  1  0  0  0  0
 63 62  1  0  0  0  0
 64 62  1  0  0  0  0
 65 64  1  0  0  0  0
 66 65  1  0  0  0  0
M  END
>  <MODEL>
5

>  <REMARK>
 VINA RESULT:      -1.8      3.195      9.508
  Name = 
  28 active torsions:
  status: ('A' for Active; 'I' for Inactive)
    1  A    between atoms: C_1  and  C_34
    2  A    between atoms: C_2  and  O_12
    3  A    between atoms: C_2  and  C_27
    4  A    between atoms: C_2  and  C_52
    5  A    between atoms: O_3  and  C_32
    6  A    between atoms: O_3  and  C_34
    7  A    between atoms: C_5  and  C_18
    8  A    between atoms: C_5  and  N_55
    9  A    between atoms: C_7  and  C_17
   10  A    between atoms: C_7  and  C_25
   11  A    between atoms: C_9  and  C_11
   12  A    between atoms: C_9  and  C_14
   13  A    between atoms: C_10  and  C_24
   14  A    between atoms: C_11  and  C_18
   15  A    between atoms: O_12  and  C_53
   16  A    between atoms: C_13  and  N_22
   17  A    between atoms: C_13  and  N_33
   18  A    between atoms: N_15  and  C_24
   19  A    between atoms: C_19  and  C_27
   20  A    between atoms: C_25  and  C_54
   21  A    between atoms: O_28  and  C_49
   22  A    between atoms: O_28  and  C_65
   23  A    between atoms: C_32  and  C_49
   24  A    between atoms: N_33  and  C_43
   25  A    between atoms: C_34  and  C_59
   26  A    between atoms: C_35  and  C_61
   27  A    between atoms: C_45  and  N_63
   28  A    between atoms: C_46  and  N_55
                            x       y       z     vdW  Elec       q    Type
                         _______ _______ _______ _____ _____    ______ ____

>  <TORSDO>
F 28

$$$$
=
 OpenBabel11042422423D

 66 73  0  0  1  0  0  0  0  0999 V2000
  161.2590  212.1970  147.5730 C   0  0  2  0  0  3  0  0  0  0  0  0
  160.8000  212.6900  146.2390 C   0  0  0  0  0  0  0  0  0  0  0  0
  160.2490  211.8000  145.3150 O   0  0  0  0  0  0  0  0  0  0  0  0
  159.7490  212.1680  144.0260 C   0  0  0  0  0  0  0  0  0  0  0  0
  160.8880  212.6370  143.1380 C   0  0  2  0  0  3  0  0  0  0  0  0
  159.8990  213.6560  143.6780 C   0  0  0  0  0  0  0  0  0  0  0  0
  160.9240  213.9720  145.9390 C   0  0  0  0  0  3  0  0  0  0  0  0
  160.5190  214.4530  144.6930 O   0  0  0  0  0  0  0  0  0  0  0  0
  160.5570  212.3160  141.6950 C   0  0  0  0  0  2  0  0  0  0  0  0
  161.4760  211.2230  141.1920 C   0  0  0  0  0  2  0  0  0  0  0  0
  161.0370  210.7930  139.8070 C   0  0  0  0  0  2  0  0  0  0  0  0
  159.5890  210.3320  139.8410 C   0  0  0  0  0  2  0  0  0  0  0  0
  159.2860  211.6320  137.9310 C   0  0  0  0  0  1  0  0  0  0  0  0
  159.0360  210.3160  138.4960 N   0  0  0  0  0  0  0  0  0  0  0  0
  156.9290  211.0830  137.7120 N   0  0  0  0  0  0  0  0  0  0  0  0
  157.5940  210.1850  138.6350 C   0  0  1  0  0  3  0  0  0  0  0  0
  157.0580  209.7240  137.4690 O   0  0  0  0  0  0  0  0  0  0  0  0
  155.5510  211.3770  138.1580 C   0  0  0  0  0  0  0  0  0  0  0  0
  154.9750  212.4540  137.4670 O   0  0  0  0  0  1  0  0  0  0  0  0
  155.5790  211.6890  139.5200 O   0  0  0  0  0  1  0  0  0  0  0  0
  154.6750  210.1460  137.9580 C   0  0  0  0  0  2  0  0  0  0  0  0
  153.3410  210.4620  138.1480 F   0  0  0  0  0  0  0  0  0  0  0  0
  160.1710  214.2350  148.5010 C   0  0  0  0  0  2  0  0  0  0  0  0
  161.1430  213.7090  149.5410 C   0  0  2  0  0  3  0  0  0  0  0  0
  160.3580  212.7400  148.6730 C   0  0  2  0  0  3  0  0  0  0  0  0
  160.5280  213.7720  150.8530 N   0  0  0  0  0  2  0  0  0  0  0  0
  159.1200  213.4710  150.6740 C   0  0  0  0  0  2  0  0  0  0  0  0
  158.9540  211.8870  154.7130 C   0  0  2  0  0  3  0  0  0  0  0  0
  158.8100  212.2030  151.3080 N   0  0  0  0  0  2  0  0  0  0  0  0
  158.8670  212.0610  152.7250 C   0  0  0  0  0  0  0  0  0  0  0  0
  158.6410  211.0450  153.5760 N   0  0  0  0  0  0  0  0  0  0  0  0
  159.2340  212.9750  153.8650 C   0  0  1  0  0  3  0  0  0  0  0  0
  158.1100  214.4510  155.3770 F   0  0  0  0  0  0  0  0  0  0  0  0
  158.2520  214.1460  154.0350 C   0  0  2  0  0  3  0  0  0  0  0  0
  156.6000  213.8890  153.2900 S   0  0  0  0  0  1  0  0  0  0  0  0
  160.2330  211.4090  155.3850 C   0  0  0  0  0  2  0  0  0  0  0  0
  160.4270  209.9110  155.1800 C   0  0  2  0  0  3  0  0  0  0  0  0
  160.5400  207.9130  156.5130 O   0  0  0  0  0  0  0  0  0  0  0  0
  159.3400  207.8800  155.9160 O   0  0  0  0  0  0  0  0  0  0  0  0
  159.8440  209.0920  156.3460 C   0  0  0  0  0  3  0  0  0  0  0  0
  161.7790  209.6300  154.9630 O   0  0  0  0  0  0  0  0  0  0  0  0
  162.3680  210.8710  154.7180 C   0  0  0  0  0  2  0  0  0  0  0  0
  163.6960  210.8350  155.0930 F   0  0  0  0  0  0  0  0  0  0  0  0
  162.5750  212.6120  147.7980 O   0  0  0  0  0  0  0  0  0  0  0  0
  163.2250  211.4940  148.3290 C   0  0  0  0  0  2  0  0  0  0  0  0
  162.2030  210.5240  148.8930 C   0  0  0  0  0  2  0  0  0  0  0  0
  162.3720  209.2450  148.3000 O   0  0  0  0  0  0  0  0  0  0  0  0
  160.3560  209.2260  147.1780 O   0  0  0  0  0  0  0  0  0  0  0  0
  161.2870  207.1540  147.6450 N   0  0  0  0  0  2  0  0  0  0  0  0
  161.3130  208.5790  147.6790 C   0  0  0  0  0  0  0  0  0  0  0  0
  161.0830  203.9870  152.2740 C   0  0  0  0  0  1  0  0  0  0  0  0
  161.2420  202.7460  148.6790 C   0  0  2  0  0  3  0  0  0  0  0  0
  161.6340  201.5440  150.7540 O   0  0  0  0  0  0  0  0  0  0  0  0
  161.3770  202.6250  150.1570 C   0  0  0  0  0  0  0  0  0  0  0  0
  163.4520  204.2730  148.0330 O   0  0  0  0  0  1  0  0  0  0  0  0
  160.9240  204.9040  149.8910 C   0  0  2  0  0  3  0  0  0  0  0  0
  162.3350  206.3510  148.2570 C   0  0  1  0  0  3  0  0  0  0  0  0
  162.0820  206.3040  150.0550 S   0  0  0  0  0  0  0  0  0  0  0  0
  162.2450  204.9240  147.7610 C   0  0  2  0  0  3  0  0  0  0  0  0
  161.2430  203.8580  150.8360 N   0  0  0  0  0  0  0  0  0  0  0  0
  161.0780  204.2690  148.5010 C   0  0  1  0  0  3  0  0  0  0  0  0
  160.0010  202.0190  148.1290 C   0  0  2  0  0  3  0  0  0  0  0  0
  158.9530  201.8060  149.2110 C   0  0  0  0  0  1  0  0  0  0  0  0
  160.3710  200.6440  147.5810 C   0  0  0  0  0  2  0  0  0  0  0  0
  161.0650  200.7220  146.2300 C   0  0  0  0  0  2  0  0  0  0  0  0
  161.3210  199.4390  145.7390 O   0  0  0  0  0  1  0  0  0  0  0  0
  1 44  1  1  0  0  0
  2  1  1  0  0  0  0
  3  2  1  0  0  0  0
  4  3  1  0  0  0  0
  5  9  1  6  0  0  0
  5  6  1  0  0  0  0
  5  4  1  0  0  0  0
  6  4  2  0  0  0  0
  6  8  1  0  0  0  0
  7  2  2  0  0  0  0
  8  7  1  0  0  0  0
 10  9  1  0  0  0  0
 11 12  1  0  0  0  0
 11 10  1  0  0  0  0
 13 14  1  0  0  0  0
 14 12  1  0  0  0  0
 15 18  1  0  0  0  0
 15 16  1  0  0  0  0
 16 14  1  6  0  0  0
 17 15  1  0  0  0  0
 17 16  1  0  0  0  0
 18 20  1  0  0  0  0
 19 18  1  0  0  0  0
 21 22  1  0  0  0  0
 21 18  1  0  0  0  0
 23 25  1  0  0  0  0
 23 24  1  0  0  0  0
 24 26  1  1  0  0  0
 25  1  1  6  0  0  0
 25 24  1  0  0  0  0
 27 26  1  0  0  0  0
 27 29  1  0  0  0  0
 28 36  1  6  0  0  0
 29 30  1  0  0  0  0
 30 31  2  0  0  0  0
 30 32  1  0  0  0  0
 31 28  1  0  0  0  0
 32 34  1  1  0  0  0
 32 28  1  0  0  0  0
 34 35  1  1  0  0  0
 34 33  1  0  0  0  0
 37 36  1  1  0  0  0
 37 40  1  0  0  0  0
 39 40  1  0  0  0  0
 39 38  1  0  0  0  0
 40 38  1  0  0  0  0
 41 37  1  0  0  0  0
 42 41  1  0  0  0  0
 42 43  1  0  0  0  0
 44 45  1  0  0  0  0
 45 46  1  0  0  0  0
 47 46  1  0  0  0  0
 48 50  2  0  0  0  0
 49 50  1  0  0  0  0
 50 47  1  0  0  0  0
 52 62  1  1  0  0  0
 52 54  1  0  0  0  0
 54 53  2  0  0  0  0
 54 60  1  0  0  0  0
 56 58  1  6  0  0  0
 56 60  1  0  0  0  0
 57 49  1  6  0  0  0
 57 58  1  0  0  0  0
 59 55  1  1  0  0  0
 59 57  1  0  0  0  0
 59 61  1  0  0  0  0
 60 51  1  0  0  0  0
 61 52  1  0  0  0  0
 61 56  1  0  0  0  0
 62 63  1  0  0  0  0
 64 62  1  0  0  0  0
 65 64  1  0  0  0  0
 66 65  1  0  0  0  0
M  END
>  <MODEL>
6

>  <REMARK>
 VINA RESULT:      -0.8      3.493      9.392
  Name = 
  28 active torsions:
  status: ('A' for Active; 'I' for Inactive)
    1  A    between atoms: C_1  and  C_34
    2  A    between atoms: C_2  and  O_12
    3  A    between atoms: C_2  and  C_27
    4  A    between atoms: C_2  and  C_52
    5  A    between atoms: O_3  and  C_32
    6  A    between atoms: O_3  and  C_34
    7  A    between atoms: C_5  and  C_18
    8  A    between atoms: C_5  and  N_55
    9  A    between atoms: C_7  and  C_17
   10  A    between atoms: C_7  and  C_25
   11  A    between atoms: C_9  and  C_11
   12  A    between atoms: C_9  and  C_14
   13  A    between atoms: C_10  and  C_24
   14  A    between atoms: C_11  and  C_18
   15  A    between atoms: O_12  and  C_53
   16  A    between atoms: C_13  and  N_22
   17  A    between atoms: C_13  and  N_33
   18  A    between atoms: N_15  and  C_24
   19  A    between atoms: C_19  and  C_27
   20  A    between atoms: C_25  and  C_54
   21  A    between atoms: O_28  and  C_49
   22  A    between atoms: O_28  and  C_65
   23  A    between atoms: C_32  and  C_49
   24  A    between atoms: N_33  and  C_43
   25  A    between atoms: C_34  and  C_59
   26  A    between atoms: C_35  and  C_61
   27  A    between atoms: C_45  and  N_63
   28  A    between atoms: C_46  and  N_55
                            x       y       z     vdW  Elec       q    Type
                         _______ _______ _______ _____ _____    ______ ____

>  <TORSDO>
F 28

$$$$
