=
 OpenBabel11042422563D

 62 63  0  0  1  0  0  0  0  0999 V2000
  162.2880  204.7060  146.3220 C   0  0  1  0  0  3  0  0  0  0  0  0
  163.8020  204.5770  146.2760 C   0  0  0  0  0  2  0  0  0  0  0  0
  164.1690  203.6870  145.2630 O   0  0  0  0  0  1  0  0  0  0  0  0
  161.8390  205.8660  145.4270 C   0  0  2  0  0  3  0  0  0  0  0  0
  159.3930  205.9430  145.5870 N   0  0  0  0  0  1  0  0  0  0  0  0
  160.6230  206.5610  146.0530 C   0  0  1  0  0  3  0  0  0  0  0  0
  160.6830  206.5590  147.5790 C   0  0  0  0  0  2  0  0  0  0  0  0
  161.7530  207.5080  148.0940 C   0  0  0  0  0  2  0  0  0  0  0  0
  161.3040  208.9490  147.9230 C   0  0  0  0  0  2  0  0  0  0  0  0
  162.4740  209.8900  148.1470 C   0  0  0  0  0  2  0  0  0  0  0  0
  162.0300  211.3100  148.2640 C   0  0  0  0  0  0  0  0  0  0  0  0
  162.7890  212.1680  148.7940 O   0  0  0  0  0  0  0  0  0  0  0  0
  162.0980  214.0530  145.9910 C   0  0  0  0  0  1  0  0  0  0  0  0
  160.7190  211.6650  147.8090 N   0  0  0  0  0  0  0  0  0  0  0  0
  159.2480  212.7710  145.9650 C   0  0  0  0  0  2  0  0  0  0  0  0
  160.0280  213.3630  144.8400 C   0  0  0  0  0  2  0  0  0  0  0  0
  161.2520  212.8730  145.5330 C   0  0  2  0  0  3  0  0  0  0  0  0
  160.4790  212.2890  146.6980 C   0  0  0  0  0  0  0  0  0  0  0  0
  161.5280  205.4040  144.0750 N   0  0  0  0  0  2  0  0  0  0  0  0
  161.7940  206.5030  143.1560 C   0  0  0  0  0  2  0  0  0  0  0  0
  161.7020  206.0210  141.7140 C   0  0  0  0  0  2  0  0  0  0  0  0
  163.0230  207.8840  141.1140 O   0  0  0  0  0  0  0  0  0  0  0  0
  162.1970  207.0600  140.7560 C   0  0  0  0  0  0  0  0  0  0  0  0
  161.7420  207.0450  139.3310 C   0  0  0  0  0  2  0  0  0  0  0  0
  161.0260  208.3390  138.9560 C   0  0  2  0  0  3  0  0  0  0  0  0
  162.3710  207.9480  137.0130 O   0  0  0  0  0  1  0  0  0  0  0  0
  161.1910  208.5500  137.4540 C   0  0  0  0  0  2  0  0  0  0  0  0
  161.5960  209.5220  139.7600 C   0  0  2  0  0  3  0  0  0  0  0  0
  159.3240  210.5750  139.7960 O   0  0  0  0  0  0  0  0  0  0  0  0
  160.6550  210.6170  141.6580 O   0  0  0  0  0  1  0  0  0  0  0  0
  160.5050  210.2690  140.4590 C   0  0  0  0  0  0  0  0  0  0  0  0
  162.3810  210.4940  138.8830 C   0  0  0  0  0  2  0  0  0  0  0  0
  163.4730  211.1530  139.7040 C   0  0  0  0  0  2  0  0  0  0  0  0
  163.0830  212.4490  140.0430 O   0  0  0  0  0  1  0  0  0  0  0  0
  161.5430  203.1150  145.8350 S   0  0  0  0  0  0  0  0  0  0  0  0
  161.6170  202.4800  147.5360 C   0  0  0  0  0  2  0  0  0  0  0  0
  160.0650  202.0220  149.8790 O   0  0  0  0  0  0  0  0  0  0  0  0
  160.4390  203.2010  149.6500 C   0  0  0  0  0  0  0  0  0  0  0  0
  161.1710  203.5080  148.4640 N   0  0  0  0  0  2  0  0  0  0  0  0
  160.0730  204.3020  150.5860 C   0  0  0  0  0  2  0  0  0  0  0  0
  161.2350  204.8310  151.2140 O   0  0  0  0  0  0  0  0  0  0  0  0
  160.7540  204.1620  153.3740 O   0  0  0  0  0  0  0  0  0  0  0  0
  161.3310  204.9750  152.6010 C   0  0  0  0  0  0  0  0  0  0  0  0
  163.1430  206.4850  152.3650 F   0  0  0  0  0  0  0  0  0  0  0  0
  162.0790  206.1280  153.1820 C   0  0  1  0  0  3  0  0  0  0  0  0
  161.1510  207.3240  153.4340 C   0  0  1  0  0  3  0  0  0  0  0  0
  161.1130  210.0140  156.8540 C   0  0  1  0  0  3  0  0  0  0  0  0
  161.3430  209.7960  154.2840 C   0  0  0  0  0  2  0  0  0  0  0  0
  160.3900  207.4820  157.1500 C   0  0  0  0  0  2  0  0  0  0  0  0
  161.0670  207.0940  155.8810 C   0  0  0  0  0  2  0  0  0  0  0  0
  160.4060  207.1800  154.7260 C   0  0  0  0  0  2  0  0  0  0  0  0
  161.8930  208.6930  153.3520 C   0  0  2  0  0  3  0  0  0  0  0  0
  159.9810  208.9780  157.1120 C   0  0  2  0  0  3  0  0  0  0  0  0
  163.1290  210.6030  155.6640 O   0  0  0  0  0  1  0  0  0  0  0  0
  162.0380  209.7360  155.6490 C   0  0  1  0  0  3  0  0  0  0  0  0
  161.0250  208.6650  150.9850 N   0  0  0  0  0  1  0  0  0  0  0  0
  161.9250  209.2010  151.9470 C   0  0  0  0  0  0  0  0  0  0  0  0
  162.7640  210.0740  151.6000 O   0  0  0  0  0  0  0  0  0  0  0  0
  161.6660  212.1620  156.8840 C   0  0  0  0  0  1  0  0  0  0  0  0
  160.5760  211.3010  156.7620 O   0  0  0  0  0  0  0  0  0  0  0  0
  158.2450  210.3140  156.7570 C   0  0  0  0  0  1  0  0  0  0  0  0
  158.8950  209.1860  156.2480 O   0  0  0  0  0  0  0  0  0  0  0  0
  1  2  1  6  0  0  0
  3  2  1  0  0  0  0
  4 19  1  6  0  0  0
  4  6  1  0  0  0  0
  4  1  1  0  0  0  0
  6  5  1  1  0  0  0
  6  7  1  0  0  0  0
  7  8  1  0  0  0  0
  9  8  1  0  0  0  0
  9 10  1  0  0  0  0
 10 11  1  0  0  0  0
 11 12  2  0  0  0  0
 14 11  1  0  0  0  0
 15 18  1  0  0  0  0
 16 17  1  0  0  0  0
 16 15  1  0  0  0  0
 17 13  1  1  0  0  0
 17 18  1  0  0  0  0
 18 14  2  0  0  0  0
 20 19  1  0  0  0  0
 21 20  1  0  0  0  0
 23 22  2  0  0  0  0
 23 21  1  0  0  0  0
 24 23  1  0  0  0  0
 25 27  1  6  0  0  0
 25 24  1  0  0  0  0
 25 28  1  0  0  0  0
 26 27  1  0  0  0  0
 28 32  1  6  0  0  0
 28 31  1  0  0  0  0
 29 31  2  0  0  0  0
 31 30  1  0  0  0  0
 32 33  1  0  0  0  0
 33 34  1  0  0  0  0
 35  1  1  0  0  0  0
 35 36  1  0  0  0  0
 36 39  1  0  0  0  0
 38 37  2  0  0  0  0
 38 40  1  0  0  0  0
 39 38  1  0  0  0  0
 40 41  1  0  0  0  0
 41 43  1  0  0  0  0
 43 45  1  0  0  0  0
 43 42  2  0  0  0  0
 45 44  1  6  0  0  0
 46 45  1  1  0  0  0
 46 51  1  0  0  0  0
 47 60  1  6  0  0  0
 47 53  1  0  0  0  0
 48 55  1  0  0  0  0
 50 49  1  0  0  0  0
 51 50  1  0  0  0  0
 52 57  1  6  0  0  0
 52 46  1  0  0  0  0
 52 48  1  0  0  0  0
 53 62  1  6  0  0  0
 53 49  1  0  0  0  0
 55 54  1  6  0  0  0
 55 47  1  0  0  0  0
 56 57  1  0  0  0  0
 58 57  2  0  0  0  0
 60 59  1  0  0  0  0
 62 61  1  0  0  0  0
M  END
>  <MODEL>
1

>  <REMARK>
 VINA RESULT:      -2.5      0.000      0.000
  Name = 
  31 active torsions:
  status: ('A' for Active; 'I' for Inactive)
    1  A    between atoms: C_1  and  C_42
    2  A    between atoms: C_4  and  C_48
    3  A    between atoms: C_6  and  C_25
    4  A    between atoms: C_6  and  C_46
    5  A    between atoms: C_6  and  C_49
    6  A    between atoms: N_7  and  C_28
    7  A    between atoms: C_9  and  C_26
    8  A    between atoms: C_9  and  C_28
    9  A    between atoms: C_14  and  C_47
   10  A    between atoms: C_16  and  C_41
   11  A    between atoms: C_17  and  O_62
   12  A    between atoms: C_23  and  C_25
   13  A    between atoms: C_23  and  C_56
   14  A    between atoms: O_24  and  C_43
   15  A    between atoms: C_26  and  C_32
   16  A    between atoms: C_30  and  S_53
   17  A    between atoms: C_30  and  N_55
   18  A    between atoms: O_31  and  C_47
   19  A    between atoms: O_31  and  C_60
   20  A    between atoms: C_32  and  C_54
   21  A    between atoms: C_36  and  C_59
   22  A    between atoms: C_42  and  C_60
   23  A    between atoms: C_44  and  N_45
   24  A    between atoms: C_44  and  C_56
   25  A    between atoms: N_45  and  C_58
   26  A    between atoms: C_48  and  S_53
   27  A    between atoms: C_48  and  C_58
   28  A    between atoms: C_49  and  C_59
   29  A    between atoms: C_49  and  C_61
   30  A    between atoms: C_50  and  C_54
   31  A    between atoms: C_50  and  C_58
                            x       y       z     vdW  Elec       q    Type
                         _______ _______ _______ _____ _____    ______ ____

>  <TORSDO>
F 31

$$$$
=
 OpenBabel11042422563D

 62 63  0  0  1  0  0  0  0  0999 V2000
  161.3930  205.5060  146.9700 C   0  0  1  0  0  3  0  0  0  0  0  0
  162.5830  204.7310  146.4260 C   0  0  0  0  0  2  0  0  0  0  0  0
  163.7380  205.0870  147.1280 O   0  0  0  0  0  1  0  0  0  0  0  0
  161.8830  206.6400  147.8760 C   0  0  2  0  0  3  0  0  0  0  0  0
  159.8190  206.5020  149.1930 N   0  0  0  0  0  1  0  0  0  0  0  0
  161.2690  206.4850  149.2730 C   0  0  1  0  0  3  0  0  0  0  0  0
  161.7570  205.2210  149.9780 C   0  0  0  0  0  2  0  0  0  0  0  0
  160.6280  204.5330  150.7280 C   0  0  0  0  0  2  0  0  0  0  0  0
  161.1620  203.8520  151.9760 C   0  0  0  0  0  2  0  0  0  0  0  0
  160.8470  204.6900  153.2030 C   0  0  0  0  0  2  0  0  0  0  0  0
  161.6310  205.9600  153.2240 C   0  0  0  0  0  0  0  0  0  0  0  0
  162.6980  206.0550  152.5590 O   0  0  0  0  0  0  0  0  0  0  0  0
  162.1900  209.1310  151.6990 C   0  0  0  0  0  1  0  0  0  0  0  0
  161.1740  207.0410  154.0460 N   0  0  0  0  0  0  0  0  0  0  0  0
  160.3350  209.5040  154.1850 C   0  0  0  0  0  2  0  0  0  0  0  0
  160.3090  210.2120  152.8740 C   0  0  0  0  0  2  0  0  0  0  0  0
  160.7890  208.9400  152.2650 C   0  0  2  0  0  3  0  0  0  0  0  0
  160.8480  208.2110  153.5930 C   0  0  0  0  0  0  0  0  0  0  0  0
  161.5540  207.9490  147.3130 N   0  0  0  0  0  2  0  0  0  0  0  0
  162.1360  208.9650  148.1790 C   0  0  0  0  0  2  0  0  0  0  0  0
  161.3020  210.2400  148.1330 C   0  0  0  0  0  2  0  0  0  0  0  0
  163.0770  211.3840  149.1900 O   0  0  0  0  0  0  0  0  0  0  0  0
  162.1370  211.4510  148.4150 C   0  0  0  0  0  0  0  0  0  0  0  0
  161.8730  212.7300  147.6860 C   0  0  0  0  0  2  0  0  0  0  0  0
  160.5520  213.3600  148.1170 C   0  0  2  0  0  3  0  0  0  0  0  0
  160.5080  214.0680  150.4040 O   0  0  0  0  0  1  0  0  0  0  0  0
  160.2940  212.9700  149.5690 C   0  0  0  0  0  2  0  0  0  0  0  0
  159.4090  212.8990  147.1940 C   0  0  2  0  0  3  0  0  0  0  0  0
  159.2260  211.9330  144.8910 O   0  0  0  0  0  0  0  0  0  0  0  0
  160.8620  213.4540  145.3880 O   0  0  0  0  0  1  0  0  0  0  0  0
  159.8770  212.7790  145.7790 C   0  0  0  0  0  0  0  0  0  0  0  0
  158.2080  213.8400  147.2440 C   0  0  0  0  0  2  0  0  0  0  0  0
  157.5210  213.7200  148.5900 C   0  0  0  0  0  2  0  0  0  0  0  0
  156.3070  214.4070  148.5580 O   0  0  0  0  0  1  0  0  0  0  0  0
  160.3880  206.1070  145.5710 S   0  0  0  0  0  0  0  0  0  0  0  0
  161.6100  205.5310  144.3560 C   0  0  0  0  0  2  0  0  0  0  0  0
  163.2860  206.6320  142.3340 O   0  0  0  0  0  0  0  0  0  0  0  0
  162.0870  206.3970  142.0320 C   0  0  0  0  0  0  0  0  0  0  0  0
  161.1810  205.8980  143.0150 N   0  0  0  0  0  2  0  0  0  0  0  0
  161.5850  206.6910  140.6600 C   0  0  0  0  0  2  0  0  0  0  0  0
  161.9200  208.0210  140.2790 O   0  0  0  0  0  0  0  0  0  0  0  0
  160.2110  208.3740  138.7630 O   0  0  0  0  0  0  0  0  0  0  0  0
  161.3910  208.6230  139.1330 C   0  0  0  0  0  0  0  0  0  0  0  0
  162.3770  209.0320  137.0170 F   0  0  0  0  0  0  0  0  0  0  0  0
  162.2400  209.5290  138.3070 C   0  0  1  0  0  3  0  0  0  0  0  0
  161.6800  210.9570  138.2920 C   0  0  1  0  0  3  0  0  0  0  0  0
  158.8130  212.7420  141.0360 C   0  0  1  0  0  3  0  0  0  0  0  0
  161.1860  212.8760  140.0080 C   0  0  0  0  0  2  0  0  0  0  0  0
  158.0430  210.8260  139.3750 C   0  0  0  0  0  2  0  0  0  0  0  0
  159.4510  210.3860  139.1600 C   0  0  0  0  0  2  0  0  0  0  0  0
  160.1840  210.9620  138.2050 C   0  0  0  0  0  2  0  0  0  0  0  0
  162.1850  211.8180  139.4910 C   0  0  2  0  0  3  0  0  0  0  0  0
  157.9970  212.3230  139.7780 C   0  0  2  0  0  3  0  0  0  0  0  0
  160.8240  212.5180  142.3500 O   0  0  0  0  0  1  0  0  0  0  0  0
  160.2830  212.2730  141.0900 C   0  0  1  0  0  3  0  0  0  0  0  0
  163.4970  213.8480  138.7700 N   0  0  0  0  0  1  0  0  0  0  0  0
  163.4840  212.4800  139.1640 C   0  0  0  0  0  0  0  0  0  0  0  0
  164.5620  211.8290  139.1990 O   0  0  0  0  0  0  0  0  0  0  0  0
  158.3490  214.3030  142.5420 C   0  0  0  0  0  1  0  0  0  0  0  0
  158.7420  214.1260  141.2160 O   0  0  0  0  0  0  0  0  0  0  0  0
  157.1270  213.1400  137.9070 C   0  0  0  0  0  1  0  0  0  0  0  0
  158.2880  213.1530  138.6840 O   0  0  0  0  0  0  0  0  0  0  0  0
  1  2  1  6  0  0  0
  1  4  1  0  0  0  0
  2  3  1  0  0  0  0
  4 19  1  6  0  0  0
  4  6  1  0  0  0  0
  6  5  1  6  0  0  0
  6  7  1  0  0  0  0
  7  8  1  0  0  0  0
  8  9  1  0  0  0  0
  9 10  1  0  0  0  0
 10 11  1  0  0  0  0
 11 14  1  0  0  0  0
 12 11  2  0  0  0  0
 16 15  1  0  0  0  0
 17 13  1  1  0  0  0
 17 16  1  0  0  0  0
 17 18  1  0  0  0  0
 18 14  2  0  0  0  0
 18 15  1  0  0  0  0
 19 20  1  0  0  0  0
 21 20  1  0  0  0  0
 21 23  1  0  0  0  0
 23 22  2  0  0  0  0
 24 23  1  0  0  0  0
 25 24  1  6  0  0  0
 25 27  1  0  0  0  0
 27 26  1  0  0  0  0
 28 32  1  6  0  0  0
 28 25  1  0  0  0  0
 29 31  2  0  0  0  0
 30 31  1  0  0  0  0
 31 28  1  0  0  0  0
 32 33  1  0  0  0  0
 34 33  1  0  0  0  0
 35  1  1  0  0  0  0
 36 35  1  0  0  0  0
 38 37  2  0  0  0  0
 38 39  1  0  0  0  0
 39 36  1  0  0  0  0
 40 38  1  0  0  0  0
 41 40  1  0  0  0  0
 42 43  2  0  0  0  0
 43 41  1  0  0  0  0
 45 44  1  6  0  0  0
 45 43  1  0  0  0  0
 46 45  1  1  0  0  0
 46 52  1  0  0  0  0
 47 55  1  0  0  0  0
 47 60  1  6  0  0  0
 48 55  1  0  0  0  0
 49 53  1  0  0  0  0
 50 49  1  0  0  0  0
 51 46  1  0  0  0  0
 51 50  1  0  0  0  0
 52 57  1  6  0  0  0
 52 48  1  0  0  0  0
 53 62  1  6  0  0  0
 53 47  1  0  0  0  0
 55 54  1  1  0  0  0
 56 57  1  0  0  0  0
 57 58  2  0  0  0  0
 60 59  1  0  0  0  0
 61 62  1  0  0  0  0
M  END
>  <MODEL>
2

>  <REMARK>
 VINA RESULT:      -2.0      3.287     11.092
  Name = 
  31 active torsions:
  status: ('A' for Active; 'I' for Inactive)
    1  A    between atoms: C_1  and  C_42
    2  A    between atoms: C_4  and  C_48
    3  A    between atoms: C_6  and  C_25
    4  A    between atoms: C_6  and  C_46
    5  A    between atoms: C_6  and  C_49
    6  A    between atoms: N_7  and  C_28
    7  A    between atoms: C_9  and  C_26
    8  A    between atoms: C_9  and  C_28
    9  A    between atoms: C_14  and  C_47
   10  A    between atoms: C_16  and  C_41
   11  A    between atoms: C_17  and  O_62
   12  A    between atoms: C_23  and  C_25
   13  A    between atoms: C_23  and  C_56
   14  A    between atoms: O_24  and  C_43
   15  A    between atoms: C_26  and  C_32
   16  A    between atoms: C_30  and  S_53
   17  A    between atoms: C_30  and  N_55
   18  A    between atoms: O_31  and  C_47
   19  A    between atoms: O_31  and  C_60
   20  A    between atoms: C_32  and  C_54
   21  A    between atoms: C_36  and  C_59
   22  A    between atoms: C_42  and  C_60
   23  A    between atoms: C_44  and  N_45
   24  A    between atoms: C_44  and  C_56
   25  A    between atoms: N_45  and  C_58
   26  A    between atoms: C_48  and  S_53
   27  A    between atoms: C_48  and  C_58
   28  A    between atoms: C_49  and  C_59
   29  A    between atoms: C_49  and  C_61
   30  A    between atoms: C_50  and  C_54
   31  A    between atoms: C_50  and  C_58
                            x       y       z     vdW  Elec       q    Type
                         _______ _______ _______ _____ _____    ______ ____

>  <TORSDO>
F 31

$$$$
=
 OpenBabel11042422563D

 62 63  0  0  1  0  0  0  0  0999 V2000
  161.4880  205.2900  147.7670 C   0  0  1  0  0  3  0  0  0  0  0  0
  162.5480  204.2370  147.4830 C   0  0  0  0  0  2  0  0  0  0  0  0
  163.0790  204.4350  146.2060 O   0  0  0  0  0  1  0  0  0  0  0  0
  162.0340  206.3190  148.7620 C   0  0  2  0  0  3  0  0  0  0  0  0
  159.8710  205.6630  149.7130 N   0  0  0  0  0  1  0  0  0  0  0  0
  161.0610  206.4650  149.9390 C   0  0  1  0  0  3  0  0  0  0  0  0
  161.7130  206.1000  151.2720 C   0  0  0  0  0  2  0  0  0  0  0  0
  162.6710  207.1840  151.7360 C   0  0  0  0  0  2  0  0  0  0  0  0
  162.2660  207.6920  153.1090 C   0  0  0  0  0  2  0  0  0  0  0  0
  160.8450  207.2620  153.4270 C   0  0  0  0  0  2  0  0  0  0  0  0
  160.4720  207.5770  154.8370 C   0  0  0  0  0  0  0  0  0  0  0  0
  159.5790  206.9030  155.4200 O   0  0  0  0  0  0  0  0  0  0  0  0
  159.6460  210.6930  153.3190 C   0  0  0  0  0  1  0  0  0  0  0  0
  161.1080  208.6810  155.4910 N   0  0  0  0  0  0  0  0  0  0  0  0
  161.0970  211.2300  156.0330 C   0  0  0  0  0  2  0  0  0  0  0  0
  159.9780  211.9810  155.3960 C   0  0  0  0  0  2  0  0  0  0  0  0
  159.5240  210.6770  154.8360 C   0  0  2  0  0  3  0  0  0  0  0  0
  160.6700  209.9000  155.4530 C   0  0  0  0  0  0  0  0  0  0  0  0
  162.2590  207.6120  148.1190 N   0  0  0  0  0  2  0  0  0  0  0  0
  161.3740  208.5830  148.7470 C   0  0  0  0  0  2  0  0  0  0  0  0
  162.1850  209.6300  149.5010 C   0  0  0  0  0  2  0  0  0  0  0  0
  162.6320  211.3230  147.9160 O   0  0  0  0  0  0  0  0  0  0  0  0
  162.0040  210.9940  148.9090 C   0  0  0  0  0  0  0  0  0  0  0  0
  160.9920  211.9340  149.4840 C   0  0  0  0  0  2  0  0  0  0  0  0
  160.9650  213.2600  148.7300 C   0  0  2  0  0  3  0  0  0  0  0  0
  160.6540  213.8500  151.0300 O   0  0  0  0  0  1  0  0  0  0  0  0
  160.6510  214.3660  149.7320 C   0  0  0  0  0  2  0  0  0  0  0  0
  159.9260  213.2130  147.5940 C   0  0  2  0  0  3  0  0  0  0  0  0
  159.8710  213.2690  145.0920 O   0  0  0  0  0  0  0  0  0  0  0  0
  161.7290  213.9700  146.2300 O   0  0  0  0  0  1  0  0  0  0  0  0
  160.5620  213.5030  146.2730 C   0  0  0  0  0  0  0  0  0  0  0  0
  158.7770  214.1920  147.8200 C   0  0  0  0  0  2  0  0  0  0  0  0
  157.4610  213.5240  147.4700 C   0  0  0  0  0  2  0  0  0  0  0  0
  156.7190  214.3620  146.6370 O   0  0  0  0  0  1  0  0  0  0  0  0
  160.9660  206.0440  146.1910 S   0  0  0  0  0  0  0  0  0  0  0  0
  160.6960  204.4200  145.4230 C   0  0  0  0  0  2  0  0  0  0  0  0
  160.7620  206.7880  143.8440 O   0  0  0  0  0  0  0  0  0  0  0  0
  161.1040  205.7110  143.2920 C   0  0  0  0  0  0  0  0  0  0  0  0
  161.0410  204.4800  144.0110 N   0  0  0  0  0  2  0  0  0  0  0  0
  161.5280  205.6990  141.8630 C   0  0  0  0  0  2  0  0  0  0  0  0
  161.6110  207.0270  141.3560 O   0  0  0  0  0  0  0  0  0  0  0  0
  163.5420  207.0000  140.0840 O   0  0  0  0  0  0  0  0  0  0  0  0
  162.3320  207.3380  140.1980 C   0  0  0  0  0  0  0  0  0  0  0  0
  160.9350  207.2910  138.2840 F   0  0  0  0  0  0  0  0  0  0  0  0
  161.6870  208.1210  139.1050 C   0  0  1  0  0  3  0  0  0  0  0  0
  160.8320  209.2640  139.6690 C   0  0  1  0  0  3  0  0  0  0  0  0
  161.4420  213.5470  139.2060 C   0  0  1  0  0  3  0  0  0  0  0  0
  159.8400  211.5460  138.8440 C   0  0  0  0  0  2  0  0  0  0  0  0
  163.1430  212.1130  140.6460 C   0  0  0  0  0  2  0  0  0  0  0  0
  162.6830  210.8470  140.0100 C   0  0  0  0  0  2  0  0  0  0  0  0
  161.6430  210.1880  140.5240 C   0  0  0  0  0  2  0  0  0  0  0  0
  160.0580  210.0430  138.5610 C   0  0  2  0  0  3  0  0  0  0  0  0
  162.0190  213.1820  140.6050 C   0  0  2  0  0  3  0  0  0  0  0  0
  160.7340  212.8140  137.0180 O   0  0  0  0  0  1  0  0  0  0  0  0
  161.0170  212.3660  138.3060 C   0  0  1  0  0  3  0  0  0  0  0  0
  157.5600  209.9060  138.8800 N   0  0  0  0  0  1  0  0  0  0  0  0
  158.7420  209.3960  138.2730 C   0  0  0  0  0  0  0  0  0  0  0  0
  158.6750  208.3840  137.5270 O   0  0  0  0  0  0  0  0  0  0  0  0
  159.3350  213.7100  139.8810 C   0  0  0  0  0  1  0  0  0  0  0  0
  160.3850  214.4520  139.3430 O   0  0  0  0  0  0  0  0  0  0  0  0
  161.6280  212.8080  142.7570 C   0  0  0  0  0  1  0  0  0  0  0  0
  160.9940  212.8760  141.5130 O   0  0  0  0  0  0  0  0  0  0  0  0
  1  2  1  6  0  0  0
  1  4  1  0  0  0  0
  3  2  1  0  0  0  0
  4 19  1  6  0  0  0
  4  6  1  0  0  0  0
  6  5  1  6  0  0  0
  6  7  1  0  0  0  0
  7  8  1  0  0  0  0
  8  9  1  0  0  0  0
  9 10  1  0  0  0  0
 10 11  1  0  0  0  0
 11 12  2  0  0  0  0
 11 14  1  0  0  0  0
 16 15  1  0  0  0  0
 17 13  1  6  0  0  0
 17 16  1  0  0  0  0
 17 18  1  0  0  0  0
 18 14  2  0  0  0  0
 18 15  1  0  0  0  0
 19 20  1  0  0  0  0
 20 21  1  0  0  0  0
 22 23  2  0  0  0  0
 23 24  1  0  0  0  0
 23 21  1  0  0  0  0
 25 24  1  1  0  0  0
 25 27  1  0  0  0  0
 27 26  1  0  0  0  0
 28 32  1  1  0  0  0
 28 25  1  0  0  0  0
 29 31  2  0  0  0  0
 30 31  1  0  0  0  0
 31 28  1  0  0  0  0
 33 32  1  0  0  0  0
 34 33  1  0  0  0  0
 35  1  1  0  0  0  0
 36 35  1  0  0  0  0
 38 37  2  0  0  0  0
 38 39  1  0  0  0  0
 39 36  1  0  0  0  0
 40 38  1  0  0  0  0
 41 40  1  0  0  0  0
 42 43  2  0  0  0  0
 43 41  1  0  0  0  0
 45 44  1  1  0  0  0
 45 43  1  0  0  0  0
 46 45  1  6  0  0  0
 46 51  1  0  0  0  0
 47 60  1  1  0  0  0
 47 53  1  0  0  0  0
 50 51  1  0  0  0  0
 50 49  1  0  0  0  0
 52 57  1  1  0  0  0
 52 48  1  0  0  0  0
 52 46  1  0  0  0  0
 53 49  1  0  0  0  0
 53 62  1  1  0  0  0
 55 54  1  6  0  0  0
 55 48  1  0  0  0  0
 55 47  1  0  0  0  0
 57 56  1  0  0  0  0
 58 57  2  0  0  0  0
 60 59  1  0  0  0  0
 62 61  1  0  0  0  0
M  END
>  <MODEL>
3

>  <REMARK>
 VINA RESULT:      -1.7      3.168     11.145
  Name = 
  31 active torsions:
  status: ('A' for Active; 'I' for Inactive)
    1  A    between atoms: C_1  and  C_42
    2  A    between atoms: C_4  and  C_48
    3  A    between atoms: C_6  and  C_25
    4  A    between atoms: C_6  and  C_46
    5  A    between atoms: C_6  and  C_49
    6  A    between atoms: N_7  and  C_28
    7  A    between atoms: C_9  and  C_26
    8  A    between atoms: C_9  and  C_28
    9  A    between atoms: C_14  and  C_47
   10  A    between atoms: C_16  and  C_41
   11  A    between atoms: C_17  and  O_62
   12  A    between atoms: C_23  and  C_25
   13  A    between atoms: C_23  and  C_56
   14  A    between atoms: O_24  and  C_43
   15  A    between atoms: C_26  and  C_32
   16  A    between atoms: C_30  and  S_53
   17  A    between atoms: C_30  and  N_55
   18  A    between atoms: O_31  and  C_47
   19  A    between atoms: O_31  and  C_60
   20  A    between atoms: C_32  and  C_54
   21  A    between atoms: C_36  and  C_59
   22  A    between atoms: C_42  and  C_60
   23  A    between atoms: C_44  and  N_45
   24  A    between atoms: C_44  and  C_56
   25  A    between atoms: N_45  and  C_58
   26  A    between atoms: C_48  and  S_53
   27  A    between atoms: C_48  and  C_58
   28  A    between atoms: C_49  and  C_59
   29  A    between atoms: C_49  and  C_61
   30  A    between atoms: C_50  and  C_54
   31  A    between atoms: C_50  and  C_58
                            x       y       z     vdW  Elec       q    Type
                         _______ _______ _______ _____ _____    ______ ____

>  <TORSDO>
F 31

$$$$
=
 OpenBabel11042422563D

 62 63  0  0  1  0  0  0  0  0999 V2000
  162.3460  205.0100  145.6760 C   0  0  1  0  0  3  0  0  0  0  0  0
  163.8170  204.6320  145.6000 C   0  0  0  0  0  2  0  0  0  0  0  0
  164.2350  204.1170  146.8300 O   0  0  0  0  0  1  0  0  0  0  0  0
  161.4980  203.9330  144.9930 C   0  0  2  0  0  3  0  0  0  0  0  0
  159.4170  204.4000  143.7820 N   0  0  0  0  0  1  0  0  0  0  0  0
  160.8650  204.5060  143.7180 C   0  0  1  0  0  3  0  0  0  0  0  0
  161.2890  205.9520  143.4660 C   0  0  0  0  0  2  0  0  0  0  0  0
  162.2380  206.0530  142.2830 C   0  0  0  0  0  2  0  0  0  0  0  0
  161.5160  206.6270  141.0760 C   0  0  0  0  0  2  0  0  0  0  0  0
  162.5170  207.0060  140.0000 C   0  0  0  0  0  2  0  0  0  0  0  0
  161.8500  207.2840  138.6940 C   0  0  0  0  0  0  0  0  0  0  0  0
  162.2680  206.7290  137.6410 O   0  0  0  0  0  0  0  0  0  0  0  0
  162.7910  210.4760  139.9650 C   0  0  0  0  0  1  0  0  0  0  0  0
  160.7670  208.2200  138.6550 N   0  0  0  0  0  0  0  0  0  0  0  0
  160.0040  210.7100  138.5720 C   0  0  0  0  0  2  0  0  0  0  0  0
  161.1270  211.6900  138.6080 C   0  0  0  0  0  2  0  0  0  0  0  0
  162.0470  210.5190  138.6370 C   0  0  2  0  0  3  0  0  0  0  0  0
  160.9180  209.5070  138.6290 C   0  0  0  0  0  0  0  0  0  0  0  0
  160.4670  203.4200  145.8920 N   0  0  0  0  0  2  0  0  0  0  0  0
  161.0810  202.4100  146.7440 C   0  0  0  0  0  2  0  0  0  0  0  0
  160.3830  202.3630  148.0970 C   0  0  0  0  0  2  0  0  0  0  0  0
  161.2550  200.1780  148.3060 O   0  0  0  0  0  0  0  0  0  0  0  0
  160.7780  201.1460  148.8760 C   0  0  0  0  0  0  0  0  0  0  0  0
  160.6660  201.1400  150.3670 C   0  0  0  0  0  2  0  0  0  0  0  0
  161.6040  202.1610  151.0060 C   0  0  2  0  0  3  0  0  0  0  0  0
  163.6800  201.8790  152.1650 O   0  0  0  0  0  1  0  0  0  0  0  0
  162.3450  201.4720  152.1470 C   0  0  0  0  0  2  0  0  0  0  0  0
  160.8110  203.3850  151.5010 C   0  0  2  0  0  3  0  0  0  0  0  0
  162.4320  205.2050  150.9250 O   0  0  0  0  0  1  0  0  0  0  0  0
  160.3800  205.1120  149.9150 O   0  0  0  0  0  0  0  0  0  0  0  0
  161.1890  204.6130  150.7380 C   0  0  0  0  0  0  0  0  0  0  0  0
  161.0150  203.6420  152.9920 C   0  0  0  0  0  2  0  0  0  0  0  0
  160.3740  204.9610  153.3740 C   0  0  0  0  0  2  0  0  0  0  0  0
  161.3660  205.9180  153.5910 O   0  0  0  0  0  1  0  0  0  0  0  0
  161.8890  205.2620  147.4230 S   0  0  0  0  0  0  0  0  0  0  0  0
  161.2630  206.9360  147.0910 C   0  0  0  0  0  2  0  0  0  0  0  0
  160.5920  207.7850  149.7240 O   0  0  0  0  0  0  0  0  0  0  0  0
  161.6450  208.2470  149.2140 C   0  0  0  0  0  0  0  0  0  0  0  0
  162.0090  207.9050  147.8770 N   0  0  0  0  0  2  0  0  0  0  0  0
  162.4970  209.2010  149.9800 C   0  0  0  0  0  2  0  0  0  0  0  0
  162.4940  208.8720  151.3650 O   0  0  0  0  0  0  0  0  0  0  0  0
  162.8170  210.4350  153.0370 O   0  0  0  0  0  0  0  0  0  0  0  0
  162.0170  209.7540  152.3390 C   0  0  0  0  0  0  0  0  0  0  0  0
  160.0290  208.6270  152.9690 F   0  0  0  0  0  0  0  0  0  0  0  0
  160.5520  209.8590  152.5970 C   0  0  1  0  0  3  0  0  0  0  0  0
  160.2470  210.9290  153.6540 C   0  0  1  0  0  3  0  0  0  0  0  0
  156.4520  212.9020  154.4520 C   0  0  1  0  0  3  0  0  0  0  0  0
  158.3740  211.4570  155.4100 C   0  0  0  0  0  2  0  0  0  0  0  0
  157.7400  213.3740  152.1850 C   0  0  0  0  0  2  0  0  0  0  0  0
  158.5540  212.1360  152.3390 C   0  0  0  0  0  2  0  0  0  0  0  0
  159.6940  212.1750  153.0310 C   0  0  0  0  0  2  0  0  0  0  0  0
  159.3250  210.4050  154.7980 C   0  0  2  0  0  3  0  0  0  0  0  0
  157.2700  213.8900  153.5710 C   0  0  2  0  0  3  0  0  0  0  0  0
  156.1240  210.6490  155.2530 O   0  0  0  0  0  1  0  0  0  0  0  0
  157.0490  211.4910  154.6410 C   0  0  1  0  0  3  0  0  0  0  0  0
  161.4250  210.2790  156.1890 N   0  0  0  0  0  1  0  0  0  0  0  0
  160.1310  209.7710  155.8850 C   0  0  0  0  0  0  0  0  0  0  0  0
  159.6900  208.7700  156.5090 O   0  0  0  0  0  0  0  0  0  0  0  0
  157.4080  213.5370  156.3510 C   0  0  0  0  0  1  0  0  0  0  0  0
  156.1790  213.4790  155.6960 O   0  0  0  0  0  0  0  0  0  0  0  0
  159.4350  214.3540  153.4370 C   0  0  0  0  0  1  0  0  0  0  0  0
  158.3340  214.4520  154.2920 O   0  0  0  0  0  0  0  0  0  0  0  0
  1  2  1  1  0  0  0
  1 35  1  0  0  0  0
  2  3  1  0  0  0  0
  4  1  1  0  0  0  0
  4 19  1  1  0  0  0
  6  5  1  1  0  0  0
  6  4  1  0  0  0  0
  7  6  1  0  0  0  0
  8  7  1  0  0  0  0
  9  8  1  0  0  0  0
 10  9  1  0  0  0  0
 11 10  1  0  0  0  0
 12 11  2  0  0  0  0
 14 11  1  0  0  0  0
 15 16  1  0  0  0  0
 15 18  1  0  0  0  0
 16 17  1  0  0  0  0
 17 13  1  1  0  0  0
 18 17  1  0  0  0  0
 18 14  2  0  0  0  0
 19 20  1  0  0  0  0
 20 21  1  0  0  0  0
 21 23  1  0  0  0  0
 22 23  2  0  0  0  0
 23 24  1  0  0  0  0
 25 24  1  1  0  0  0
 25 28  1  0  0  0  0
 25 27  1  0  0  0  0
 27 26  1  0  0  0  0
 28 32  1  1  0  0  0
 30 31  2  0  0  0  0
 31 29  1  0  0  0  0
 31 28  1  0  0  0  0
 32 33  1  0  0  0  0
 33 34  1  0  0  0  0
 36 35  1  0  0  0  0
 36 39  1  0  0  0  0
 38 37  2  0  0  0  0
 38 40  1  0  0  0  0
 39 38  1  0  0  0  0
 40 41  1  0  0  0  0
 41 43  1  0  0  0  0
 43 45  1  0  0  0  0
 43 42  2  0  0  0  0
 45 44  1  1  0  0  0
 46 45  1  6  0  0  0
 46 52  1  0  0  0  0
 47 55  1  0  0  0  0
 47 60  1  1  0  0  0
 49 50  1  0  0  0  0
 49 53  1  0  0  0  0
 50 51  1  0  0  0  0
 51 46  1  0  0  0  0
 52 48  1  0  0  0  0
 52 57  1  1  0  0  0
 53 62  1  1  0  0  0
 53 47  1  0  0  0  0
 55 54  1  1  0  0  0
 55 48  1  0  0  0  0
 57 56  1  0  0  0  0
 57 58  2  0  0  0  0
 60 59  1  0  0  0  0
 61 62  1  0  0  0  0
M  END
>  <MODEL>
4

>  <REMARK>
 VINA RESULT:       0.2      2.857      8.128
  Name = 
  31 active torsions:
  status: ('A' for Active; 'I' for Inactive)
    1  A    between atoms: C_1  and  C_42
    2  A    between atoms: C_4  and  C_48
    3  A    between atoms: C_6  and  C_25
    4  A    between atoms: C_6  and  C_46
    5  A    between atoms: C_6  and  C_49
    6  A    between atoms: N_7  and  C_28
    7  A    between atoms: C_9  and  C_26
    8  A    between atoms: C_9  and  C_28
    9  A    between atoms: C_14  and  C_47
   10  A    between atoms: C_16  and  C_41
   11  A    between atoms: C_17  and  O_62
   12  A    between atoms: C_23  and  C_25
   13  A    between atoms: C_23  and  C_56
   14  A    between atoms: O_24  and  C_43
   15  A    between atoms: C_26  and  C_32
   16  A    between atoms: C_30  and  S_53
   17  A    between atoms: C_30  and  N_55
   18  A    between atoms: O_31  and  C_47
   19  A    between atoms: O_31  and  C_60
   20  A    between atoms: C_32  and  C_54
   21  A    between atoms: C_36  and  C_59
   22  A    between atoms: C_42  and  C_60
   23  A    between atoms: C_44  and  N_45
   24  A    between atoms: C_44  and  C_56
   25  A    between atoms: N_45  and  C_58
   26  A    between atoms: C_48  and  S_53
   27  A    between atoms: C_48  and  C_58
   28  A    between atoms: C_49  and  C_59
   29  A    between atoms: C_49  and  C_61
   30  A    between atoms: C_50  and  C_54
   31  A    between atoms: C_50  and  C_58
                            x       y       z     vdW  Elec       q    Type
                         _______ _______ _______ _____ _____    ______ ____

>  <TORSDO>
F 31

$$$$
