=
 OpenBabel11052411593D

 61 64  0  0  1  0  0  0  0  0999 V2000
  161.4650  205.4860  144.3730 C   0  0  2  0  0  3  0  0  0  0  0  0
  160.4220  206.3530  145.1210 C   0  0  1  0  0  3  0  0  0  0  0  0
  159.1570  205.5670  145.5140 C   0  0  0  0  0  2  0  0  0  0  0  0
  158.8650  204.4410  144.5240 C   0  0  0  0  0  1  0  0  0  0  0  0
  161.0090  207.0840  146.3590 C   0  0  0  0  0  2  0  0  0  0  0  0
  161.1760  206.1770  147.5710 C   0  0  0  0  0  2  0  0  0  0  0  0
  160.5390  206.7170  148.8550 C   0  0  1  0  0  3  0  0  0  0  0  0
  160.4180  205.5780  149.8710 C   0  0  0  0  0  1  0  0  0  0  0  0
  161.3260  207.8650  149.4900 C   0  0  0  0  0  2  0  0  0  0  0  0
  162.3110  207.3440  150.4180 N   0  0  0  0  0  2  0  0  0  0  0  0
  160.8950  207.7090  152.3030 N   0  0  0  0  0  2  0  0  0  0  0  0
  162.1400  208.1100  151.6450 C   0  0  2  0  0  3  0  0  0  0  0  0
  160.9670  208.9880  151.5580 C   0  0  2  0  0  3  0  0  0  0  0  0
  161.0370  210.1570  152.5330 C   0  0  0  0  0  0  0  0  0  0  0  0
  162.2030  210.3610  153.2400 O   0  0  0  0  0  1  0  0  0  0  0  0
  160.0010  210.9990  152.6790 C   0  0  0  0  0  3  0  0  0  0  0  0
  159.8590  212.1330  153.6660 C   0  0  2  0  0  3  0  0  0  0  0  0
  159.0680  211.7450  155.2320 S   0  0  0  0  0  0  0  0  0  0  0  0
  158.9230  213.0270  155.9970 O   0  0  0  0  0  0  0  0  0  0  0  0
  157.6880  211.1960  154.9590 O   0  0  0  0  0  0  0  0  0  0  0  0
  161.2470  211.2890  156.5050 C   0  0  0  0  0  1  0  0  0  0  0  0
  160.0050  210.6230  156.1640 N   0  0  0  0  0  2  0  0  0  0  0  0
  159.2400  213.3590  152.9940 C   0  0  0  0  0  2  0  0  0  0  0  0
  157.9300  213.7320  153.6660 C   0  0  0  0  0  2  0  0  0  0  0  0
  156.8200  213.7500  152.6320 C   0  0  0  0  0  1  0  0  0  0  0  0
  161.2320  205.4270  142.8500 C   0  0  0  0  0  2  0  0  0  0  0  0
  161.9030  206.6200  142.2040 C   0  0  0  0  0  2  0  0  0  0  0  0
  162.1300  206.3670  140.7260 C   0  0  0  0  0  2  0  0  0  0  0  0
  162.7000  207.6410  140.1190 C   0  0  0  0  0  2  0  0  0  0  0  0
  161.3270  212.2120  139.2910 C   0  0  0  0  0  2  0  0  0  0  0  0
  160.8560  211.9140  137.8520 C   0  0  1  0  0  3  0  0  0  0  0  0
  159.8970  209.5980  138.4640 C   0  0  0  0  0  0  0  0  0  0  0  0
  161.5840  210.8310  137.3250 O   0  0  0  0  0  0  0  0  0  0  0  0
  158.8560  209.6230  139.1000 O   0  0  0  0  0  0  0  0  0  0  0  0
  160.8900  208.5060  138.7150 C   0  0  0  0  0  2  0  0  0  0  0  0
  161.6130  208.6980  140.0460 C   0  0  2  0  0  3  0  0  0  0  0  0
  162.2740  210.0750  140.1600 C   0  0  0  0  0  2  0  0  0  0  0  0
  161.2300  211.1470  140.3900 C   0  0  1  0  0  3  0  0  0  0  0  0
  160.1820  210.6420  137.4250 C   0  0  2  0  0  3  0  0  0  0  0  0
  161.5020  211.7920  141.7480 C   0  0  0  0  0  2  0  0  0  0  0  0
  160.2230  211.9290  142.5770 C   0  0  0  0  0  2  0  0  0  0  0  0
  161.4200  213.4460  146.7600 C   0  0  0  0  0  2  0  0  0  0  0  0
  162.2790  213.2220  145.5270 C   0  0  0  0  0  2  0  0  0  0  0  0
  160.4860  212.2190  144.0560 C   0  0  2  0  0  3  0  0  0  0  0  0
  159.3310  212.9820  146.2270 C   0  0  0  0  0  2  0  0  0  0  0  0
  160.4530  212.4370  146.8560 O   0  0  0  0  0  0  0  0  0  0  0  0
  159.1650  212.3920  144.8260 C   0  0  0  0  0  2  0  0  0  0  0  0
  161.4780  213.3780  144.2430 C   0  0  0  0  0  2  0  0  0  0  0  0
  161.4800  204.0880  145.0220 C   0  0  0  0  0  2  0  0  0  0  0  0
  163.6250  204.8580  145.4510 C   0  0  0  0  0  1  0  0  0  0  0  0
  162.7740  203.6780  145.5590 N   0  0  0  0  0  0  0  0  0  0  0  0
  162.5420  203.4200  146.9830 C   0  0  0  0  0  2  0  0  0  0  0  0
  161.1610  202.8580  147.3380 C   0  0  0  0  0  2  0  0  0  0  0  0
  161.1190  201.7220  148.3600 C   0  0  2  0  0  3  0  0  0  0  0  0
  161.6590  199.8380  146.8450 C   0  0  0  0  0  1  0  0  0  0  0  0
  160.5730  200.4720  147.6890 C   0  0  0  0  0  2  0  0  0  0  0  0
  160.2070  202.0890  149.4370 N   0  0  0  0  0  2  0  0  0  0  0  0
  160.6980  201.4840  150.6720 C   0  0  0  0  0  2  0  0  0  0  0  0
  160.4170  203.3390  152.3200 O   0  0  0  0  0  1  0  0  0  0  0  0
  161.2540  202.5460  151.5620 C   0  0  0  0  0  0  0  0  0  0  0  0
  162.5040  202.6930  151.6370 O   0  0  0  0  0  0  0  0  0  0  0  0
  1 26  1  6  0  0  0
  1 49  1  0  0  0  0
  1  2  1  0  0  0  0
  2  3  1  1  0  0  0
  2  5  1  0  0  0  0
  4  3  1  0  0  0  0
  5  6  1  0  0  0  0
  6  7  1  0  0  0  0
  7  9  1  0  0  0  0
  7  8  1  1  0  0  0
  9 10  1  0  0  0  0
 12 10  1  6  0  0  0
 12 11  1  0  0  0  0
 13 12  1  0  0  0  0
 13 11  1  0  0  0  0
 13 14  1  1  0  0  0
 14 16  2  0  0  0  0
 14 15  1  0  0  0  0
 17 16  1  6  0  0  0
 17 18  1  0  0  0  0
 18 19  2  0  0  0  0
 18 22  1  0  0  0  0
 20 18  2  0  0  0  0
 22 21  1  0  0  0  0
 23 17  1  0  0  0  0
 23 24  1  0  0  0  0
 25 24  1  0  0  0  0
 27 26  1  0  0  0  0
 28 27  1  0  0  0  0
 29 28  1  0  0  0  0
 30 38  1  0  0  0  0
 31 30  1  1  0  0  0
 32 35  1  0  0  0  0
 32 34  2  0  0  0  0
 33 31  1  0  0  0  0
 35 36  1  0  0  0  0
 36 29  1  6  0  0  0
 36 37  1  0  0  0  0
 37 38  1  0  0  0  0
 38 40  1  1  0  0  0
 39 33  1  6  0  0  0
 39 31  1  0  0  0  0
 39 32  1  0  0  0  0
 40 41  1  0  0  0  0
 42 46  1  0  0  0  0
 43 42  1  0  0  0  0
 44 41  1  6  0  0  0
 44 48  1  0  0  0  0
 44 47  1  0  0  0  0
 45 46  1  0  0  0  0
 47 45  1  0  0  0  0
 48 43  1  0  0  0  0
 49 51  1  0  0  0  0
 50 51  1  0  0  0  0
 51 52  1  0  0  0  0
 52 53  1  0  0  0  0
 54 53  1  6  0  0  0
 54 57  1  0  0  0  0
 55 56  1  0  0  0  0
 56 54  1  0  0  0  0
 57 58  1  0  0  0  0
 58 60  1  0  0  0  0
 60 61  2  0  0  0  0
 60 59  1  0  0  0  0
M  END
>  <MODEL>
1

>  <REMARK>
 VINA RESULT:      -3.4      0.000      0.000
  Name = 
  31 active torsions:
  status: ('A' for Active; 'I' for Inactive)
    1  A    between atoms: C_1  and  N_8
    2  A    between atoms: C_1  and  C_21
    3  A    between atoms: C_1  and  C_28
    4  A    between atoms: C_4  and  S_15
    5  A    between atoms: C_4  and  C_46
    6  A    between atoms: C_4  and  C_51
    7  A    between atoms: C_7  and  N_8
    8  A    between atoms: C_7  and  C_42
    9  A    between atoms: C_9  and  C_34
   10  A    between atoms: C_9  and  C_39
   11  A    between atoms: C_10  and  C_53
   12  A    between atoms: C_11  and  C_29
   13  A    between atoms: C_11  and  C_39
   14  A    between atoms: C_14  and  C_36
   15  A    between atoms: C_14  and  C_43
   16  A    between atoms: S_15  and  N_38
   17  A    between atoms: C_19  and  C_45
   18  A    between atoms: C_23  and  N_41
   19  A    between atoms: C_23  and  C_43
   20  A    between atoms: C_25  and  C_58
   21  A    between atoms: C_26  and  C_28
   22  A    between atoms: C_26  and  N_59
   23  A    between atoms: C_32  and  C_55
   24  A    between atoms: C_32  and  N_59
   25  A    between atoms: C_33  and  C_51
   26  A    between atoms: C_34  and  C_55
   27  A    between atoms: C_35  and  N_41
   28  A    between atoms: C_36  and  C_53
   29  A    between atoms: C_47  and  C_49
   30  A    between atoms: C_47  and  C_58
   31  A    between atoms: C_53  and  C_55
                            x       y       z     vdW  Elec       q    Type
                         _______ _______ _______ _____ _____    ______ ____

>  <TORSDO>
F 31

$$$$
=
 OpenBabel11052411593D

 61 64  0  0  1  0  0  0  0  0999 V2000
  161.5670  205.4300  144.5700 C   0  0  2  0  0  3  0  0  0  0  0  0
  160.6480  206.4090  145.3440 C   0  0  1  0  0  3  0  0  0  0  0  0
  159.2420  205.8370  145.6020 C   0  0  0  0  0  2  0  0  0  0  0  0
  158.9440  204.6440  144.6950 C   0  0  0  0  0  1  0  0  0  0  0  0
  161.2750  206.9170  146.6700 C   0  0  0  0  0  2  0  0  0  0  0  0
  161.1490  205.9220  147.8160 C   0  0  0  0  0  2  0  0  0  0  0  0
  160.5250  206.5030  149.0880 C   0  0  1  0  0  3  0  0  0  0  0  0
  160.4560  205.4080  150.1560 C   0  0  0  0  0  1  0  0  0  0  0  0
  161.2940  207.6990  149.6550 C   0  0  0  0  0  2  0  0  0  0  0  0
  162.3030  207.2460  150.5920 N   0  0  0  0  0  2  0  0  0  0  0  0
  161.0500  207.2470  152.6220 N   0  0  0  0  0  2  0  0  0  0  0  0
  162.0450  207.9720  151.8290 C   0  0  2  0  0  3  0  0  0  0  0  0
  160.6630  208.4650  151.8720 C   0  0  2  0  0  3  0  0  0  0  0  0
  160.4880  209.6370  152.8300 C   0  0  0  0  0  0  0  0  0  0  0  0
  161.2040  209.6420  154.0080 O   0  0  0  0  0  1  0  0  0  0  0  0
  159.6820  210.6660  152.5230 C   0  0  0  0  0  3  0  0  0  0  0  0
  159.3120  211.8450  153.3910 C   0  0  2  0  0  3  0  0  0  0  0  0
  158.9060  213.3760  152.5400 S   0  0  0  0  0  0  0  0  0  0  0  0
  157.6710  213.1270  151.7260 O   0  0  0  0  0  0  0  0  0  0  0  0
  158.5930  214.4360  153.5680 O   0  0  0  0  0  0  0  0  0  0  0  0
  159.7290  213.6960  150.1320 C   0  0  0  0  0  1  0  0  0  0  0  0
  160.1890  213.8890  151.4940 N   0  0  0  0  0  2  0  0  0  0  0  0
  160.3540  212.0540  154.4910 C   0  0  0  0  0  2  0  0  0  0  0  0
  159.6770  212.3870  155.8090 C   0  0  0  0  0  2  0  0  0  0  0  0
  158.8000  211.2240  156.2340 C   0  0  0  0  0  1  0  0  0  0  0  0
  161.2660  205.3740  143.0590 C   0  0  0  0  0  2  0  0  0  0  0  0
  161.9620  206.5320  142.3770 C   0  0  0  0  0  2  0  0  0  0  0  0
  162.1490  206.2450  140.8990 C   0  0  0  0  0  2  0  0  0  0  0  0
  162.7280  207.4950  140.2530 C   0  0  0  0  0  2  0  0  0  0  0  0
  161.3700  212.0320  139.2350 C   0  0  0  0  0  2  0  0  0  0  0  0
  160.9290  211.6820  137.7980 C   0  0  1  0  0  3  0  0  0  0  0  0
  159.9590  209.3890  138.4740 C   0  0  0  0  0  0  0  0  0  0  0  0
  161.6670  210.5820  137.3260 O   0  0  0  0  0  0  0  0  0  0  0  0
  158.9050  209.4360  139.0880 O   0  0  0  0  0  0  0  0  0  0  0  0
  160.9470  208.3070  138.7830 C   0  0  0  0  0  2  0  0  0  0  0  0
  161.6430  208.5470  140.1210 C   0  0  2  0  0  3  0  0  0  0  0  0
  162.3010  209.9290  140.1990 C   0  0  0  0  0  2  0  0  0  0  0  0
  161.2520  211.0070  140.3700 C   0  0  1  0  0  3  0  0  0  0  0  0
  160.2640  210.3950  137.4040 C   0  0  2  0  0  3  0  0  0  0  0  0
  161.4980  211.7010  141.7090 C   0  0  0  0  0  2  0  0  0  0  0  0
  160.2230  211.7690  142.5530 C   0  0  0  0  0  2  0  0  0  0  0  0
  161.4410  214.3490  146.1710 C   0  0  0  0  0  2  0  0  0  0  0  0
  162.2660  213.3640  145.3600 C   0  0  0  0  0  2  0  0  0  0  0  0
  160.4060  212.5270  143.8690 C   0  0  2  0  0  3  0  0  0  0  0  0
  159.4290  214.4510  145.2730 C   0  0  0  0  0  2  0  0  0  0  0  0
  160.1360  213.8630  146.3260 O   0  0  0  0  0  0  0  0  0  0  0  0
  159.1980  213.4380  144.1520 C   0  0  0  0  0  2  0  0  0  0  0  0
  161.7630  213.2460  143.9300 C   0  0  0  0  0  2  0  0  0  0  0  0
  161.4670  204.0460  145.2430 C   0  0  0  0  0  2  0  0  0  0  0  0
  163.5690  204.7230  145.9530 C   0  0  0  0  0  1  0  0  0  0  0  0
  162.7210  203.5450  145.7970 N   0  0  0  0  0  0  0  0  0  0  0  0
  162.3860  203.0510  147.1360 C   0  0  0  0  0  2  0  0  0  0  0  0
  160.9020  202.7640  147.3840 C   0  0  0  0  0  2  0  0  0  0  0  0
  160.5440  201.3670  147.8920 C   0  0  2  0  0  3  0  0  0  0  0  0
  161.4480  201.5760  150.1890 C   0  0  0  0  0  1  0  0  0  0  0  0
  160.1820  201.4540  149.3670 C   0  0  0  0  0  2  0  0  0  0  0  0
  161.7130  200.5050  147.7660 N   0  0  0  0  0  2  0  0  0  0  0  0
  161.2690  199.2140  147.2470 C   0  0  0  0  0  2  0  0  0  0  0  0
  160.4740  200.2480  145.1180 O   0  0  0  0  0  1  0  0  0  0  0  0
  161.2070  199.2690  145.7560 C   0  0  0  0  0  0  0  0  0  0  0  0
  161.8580  198.4250  145.0830 O   0  0  0  0  0  0  0  0  0  0  0  0
  1 26  1  6  0  0  0
  1 49  1  0  0  0  0
  1  2  1  0  0  0  0
  2  3  1  1  0  0  0
  2  5  1  0  0  0  0
  4  3  1  0  0  0  0
  5  6  1  0  0  0  0
  6  7  1  0  0  0  0
  7  9  1  0  0  0  0
  7  8  1  1  0  0  0
  9 10  1  0  0  0  0
 12 10  1  6  0  0  0
 12 13  1  0  0  0  0
 12 11  1  0  0  0  0
 13 11  1  0  0  0  0
 13 14  1  1  0  0  0
 14 15  1  0  0  0  0
 16 14  2  0  0  0  0
 17 16  1  6  0  0  0
 17 23  1  0  0  0  0
 18 17  1  0  0  0  0
 18 20  2  0  0  0  0
 19 18  2  0  0  0  0
 21 22  1  0  0  0  0
 22 18  1  0  0  0  0
 23 24  1  0  0  0  0
 24 25  1  0  0  0  0
 27 26  1  0  0  0  0
 28 27  1  0  0  0  0
 29 28  1  0  0  0  0
 30 38  1  0  0  0  0
 31 30  1  1  0  0  0
 32 35  1  0  0  0  0
 32 34  2  0  0  0  0
 33 31  1  0  0  0  0
 35 36  1  0  0  0  0
 36 37  1  0  0  0  0
 36 29  1  6  0  0  0
 37 38  1  0  0  0  0
 38 40  1  1  0  0  0
 39 33  1  6  0  0  0
 39 31  1  0  0  0  0
 39 32  1  0  0  0  0
 40 41  1  0  0  0  0
 42 46  1  0  0  0  0
 43 42  1  0  0  0  0
 44 41  1  6  0  0  0
 44 48  1  0  0  0  0
 44 47  1  0  0  0  0
 45 46  1  0  0  0  0
 47 45  1  0  0  0  0
 48 43  1  0  0  0  0
 49 51  1  0  0  0  0
 51 50  1  0  0  0  0
 51 52  1  0  0  0  0
 52 53  1  0  0  0  0
 54 53  1  1  0  0  0
 54 56  1  0  0  0  0
 56 55  1  0  0  0  0
 57 54  1  0  0  0  0
 58 57  1  0  0  0  0
 59 60  1  0  0  0  0
 60 58  1  0  0  0  0
 61 60  2  0  0  0  0
M  END
>  <MODEL>
2

>  <REMARK>
 VINA RESULT:      -2.9      1.929      2.523
  Name = 
  31 active torsions:
  status: ('A' for Active; 'I' for Inactive)
    1  A    between atoms: C_1  and  N_8
    2  A    between atoms: C_1  and  C_21
    3  A    between atoms: C_1  and  C_28
    4  A    between atoms: C_4  and  S_15
    5  A    between atoms: C_4  and  C_46
    6  A    between atoms: C_4  and  C_51
    7  A    between atoms: C_7  and  N_8
    8  A    between atoms: C_7  and  C_42
    9  A    between atoms: C_9  and  C_34
   10  A    between atoms: C_9  and  C_39
   11  A    between atoms: C_10  and  C_53
   12  A    between atoms: C_11  and  C_29
   13  A    between atoms: C_11  and  C_39
   14  A    between atoms: C_14  and  C_36
   15  A    between atoms: C_14  and  C_43
   16  A    between atoms: S_15  and  N_38
   17  A    between atoms: C_19  and  C_45
   18  A    between atoms: C_23  and  N_41
   19  A    between atoms: C_23  and  C_43
   20  A    between atoms: C_25  and  C_58
   21  A    between atoms: C_26  and  C_28
   22  A    between atoms: C_26  and  N_59
   23  A    between atoms: C_32  and  C_55
   24  A    between atoms: C_32  and  N_59
   25  A    between atoms: C_33  and  C_51
   26  A    between atoms: C_34  and  C_55
   27  A    between atoms: C_35  and  N_41
   28  A    between atoms: C_36  and  C_53
   29  A    between atoms: C_47  and  C_49
   30  A    between atoms: C_47  and  C_58
   31  A    between atoms: C_53  and  C_55
                            x       y       z     vdW  Elec       q    Type
                         _______ _______ _______ _____ _____    ______ ____

>  <TORSDO>
F 31

$$$$
=
 OpenBabel11052411593D

 61 64  0  0  1  0  0  0  0  0999 V2000
  160.8730  205.5980  148.1810 C   0  0  2  0  0  3  0  0  0  0  0  0
  161.9390  204.4780  148.0860 C   0  0  1  0  0  3  0  0  0  0  0  0
  161.4160  203.1080  148.5550 C   0  0  0  0  0  2  0  0  0  0  0  0
  160.8050  202.3140  147.4020 C   0  0  0  0  0  1  0  0  0  0  0  0
  162.5760  204.3580  146.6750 C   0  0  0  0  0  2  0  0  0  0  0  0
  162.0310  205.3740  145.6800 C   0  0  0  0  0  2  0  0  0  0  0  0
  161.5420  204.7660  144.3630 C   0  0  1  0  0  3  0  0  0  0  0  0
  160.3250  203.8800  144.6420 C   0  0  0  0  0  1  0  0  0  0  0  0
  161.1620  205.8110  143.3120 C   0  0  0  0  0  2  0  0  0  0  0  0
  162.2390  205.9750  142.3570 N   0  0  0  0  0  2  0  0  0  0  0  0
  162.0520  206.0190  139.9790 N   0  0  0  0  0  2  0  0  0  0  0  0
  161.6570  206.6810  141.2230 C   0  0  2  0  0  3  0  0  0  0  0  0
  162.7010  207.2870  140.3880 C   0  0  2  0  0  3  0  0  0  0  0  0
  162.1780  208.4400  139.5390 C   0  0  0  0  0  0  0  0  0  0  0  0
  162.3330  208.3790  138.1700 O   0  0  0  0  0  1  0  0  0  0  0  0
  161.5450  209.4810  140.1030 C   0  0  0  0  0  3  0  0  0  0  0  0
  161.0620  210.7460  139.4340 C   0  0  2  0  0  3  0  0  0  0  0  0
  159.4480  210.6750  138.6460 S   0  0  0  0  0  0  0  0  0  0  0  0
  158.5970  209.7310  139.4410 O   0  0  0  0  0  0  0  0  0  0  0  0
  158.8180  212.0450  138.7000 O   0  0  0  0  0  0  0  0  0  0  0  0
  159.1370  208.7220  137.0120 C   0  0  0  0  0  1  0  0  0  0  0  0
  159.5570  210.1100  137.0110 N   0  0  0  0  0  2  0  0  0  0  0  0
  162.1360  211.3090  138.5030 C   0  0  0  0  0  2  0  0  0  0  0  0
  162.5990  212.6730  138.9860 C   0  0  0  0  0  2  0  0  0  0  0  0
  163.8360  213.0880  138.2120 C   0  0  0  0  0  1  0  0  0  0  0  0
  161.4060  206.9870  147.7750 C   0  0  0  0  0  2  0  0  0  0  0  0
  160.9800  207.9990  148.8160 C   0  0  0  0  0  2  0  0  0  0  0  0
  162.1940  208.6410  149.4600 C   0  0  0  0  0  2  0  0  0  0  0  0
  162.6330  209.7970  148.5730 C   0  0  0  0  0  2  0  0  0  0  0  0
  161.0290  214.3670  148.5230 C   0  0  0  0  0  2  0  0  0  0  0  0
  161.0220  214.4520  146.9820 C   0  0  1  0  0  3  0  0  0  0  0  0
  160.2050  212.0230  146.6840 C   0  0  0  0  0  0  0  0  0  0  0  0
  161.9890  213.5800  146.4510 O   0  0  0  0  0  0  0  0  0  0  0  0
  159.0310  211.8370  146.9600 O   0  0  0  0  0  0  0  0  0  0  0  0
  161.2060  210.9410  146.9460 C   0  0  0  0  0  2  0  0  0  0  0  0
  161.4970  210.7930  148.4370 C   0  0  2  0  0  3  0  0  0  0  0  0
  161.9340  212.1120  149.0830 C   0  0  0  0  0  2  0  0  0  0  0  0
  160.7500  213.0420  149.2430 C   0  0  1  0  0  3  0  0  0  0  0  0
  160.6480  213.3180  146.0720 C   0  0  2  0  0  3  0  0  0  0  0  0
  160.5520  213.3060  150.7350 C   0  0  0  0  0  2  0  0  0  0  0  0
  159.0890  213.1380  151.1490 C   0  0  0  0  0  2  0  0  0  0  0  0
  158.1410  213.3110  155.6560 C   0  0  0  0  0  2  0  0  0  0  0  0
  158.7650  214.3640  154.7540 C   0  0  0  0  0  2  0  0  0  0  0  0
  158.9010  212.9600  152.6580 C   0  0  2  0  0  3  0  0  0  0  0  0
  157.6350  211.5630  154.4110 C   0  0  0  0  0  2  0  0  0  0  0  0
  158.6060  212.0400  155.2950 O   0  0  0  0  0  0  0  0  0  0  0  0
  158.1300  211.6650  152.9680 C   0  0  0  0  0  2  0  0  0  0  0  0
  158.3070  214.2170  153.3110 C   0  0  0  0  0  2  0  0  0  0  0  0
  160.2900  205.5840  149.6080 C   0  0  0  0  0  2  0  0  0  0  0  0
  162.4940  205.6460  150.3260 C   0  0  0  0  0  1  0  0  0  0  0  0
  161.1910  205.0630  150.6310 N   0  0  0  0  0  0  0  0  0  0  0  0
  160.7240  205.6430  151.8940 C   0  0  0  0  0  3  0  0  0  0  0  0
  161.3500  206.9880  152.2770 C   0  0  0  0  0  3  0  0  0  0  0  0
  160.8180  207.6620  153.5420 C   0  0  2  0  0  3  0  0  0  0  0  0
  161.6910  209.7180  152.4680 C   0  0  0  0  0  1  0  0  0  0  0  0
  160.5300  209.1250  153.2400 C   0  0  0  0  0  2  0  0  0  0  0  0
  161.8480  207.6100  154.5730 N   0  0  0  0  0  2  0  0  0  0  0  0
  161.4100  208.4390  155.6920 C   0  0  0  0  0  2  0  0  0  0  0  0
  158.9520  208.5970  156.1060 O   0  0  0  0  0  0  0  0  0  0  0  0
  160.1330  207.8970  156.2450 C   0  0  0  0  0  0  0  0  0  0  0  0
  160.1400  206.7740  156.8190 O   0  0  0  0  0  1  0  0  0  0  0  0
  1 26  1  1  0  0  0
  1 49  1  0  0  0  0
  2  5  1  6  0  0  0
  2  1  1  0  0  0  0
  2  3  1  0  0  0  0
  4  3  1  0  0  0  0
  6  5  1  0  0  0  0
  7  8  1  1  0  0  0
  7  6  1  0  0  0  0
  9  7  1  0  0  0  0
 10  9  1  0  0  0  0
 11 13  1  0  0  0  0
 11 12  1  0  0  0  0
 12 10  1  1  0  0  0
 13 14  1  6  0  0  0
 13 12  1  0  0  0  0
 14 16  2  0  0  0  0
 15 14  1  0  0  0  0
 17 23  1  6  0  0  0
 17 16  1  0  0  0  0
 18 20  2  0  0  0  0
 18 17  1  0  0  0  0
 18 19  2  0  0  0  0
 22 21  1  0  0  0  0
 22 18  1  0  0  0  0
 23 24  1  0  0  0  0
 25 24  1  0  0  0  0
 26 27  1  0  0  0  0
 27 28  1  0  0  0  0
 29 28  1  0  0  0  0
 30 38  1  0  0  0  0
 31 30  1  1  0  0  0
 32 35  1  0  0  0  0
 32 34  2  0  0  0  0
 33 31  1  0  0  0  0
 35 36  1  0  0  0  0
 36 29  1  6  0  0  0
 36 37  1  0  0  0  0
 37 38  1  0  0  0  0
 38 40  1  1  0  0  0
 39 33  1  1  0  0  0
 39 32  1  0  0  0  0
 39 31  1  0  0  0  0
 40 41  1  0  0  0  0
 43 42  1  0  0  0  0
 44 41  1  6  0  0  0
 44 47  1  0  0  0  0
 44 48  1  0  0  0  0
 45 46  1  0  0  0  0
 46 42  1  0  0  0  0
 47 45  1  0  0  0  0
 48 43  1  0  0  0  0
 49 51  1  0  0  0  0
 50 51  1  0  0  0  0
 51 52  1  0  0  0  0
 52 53  2  0  0  0  0
 54 53  1  6  0  0  0
 54 57  1  0  0  0  0
 55 56  1  0  0  0  0
 56 54  1  0  0  0  0
 57 58  1  0  0  0  0
 58 60  1  0  0  0  0
 59 60  2  0  0  0  0
 60 61  1  0  0  0  0
M  END
>  <MODEL>
3

>  <REMARK>
 VINA RESULT:      -2.7      3.318     10.101
  Name = 
  31 active torsions:
  status: ('A' for Active; 'I' for Inactive)
    1  A    between atoms: C_1  and  N_8
    2  A    between atoms: C_1  and  C_21
    3  A    between atoms: C_1  and  C_28
    4  A    between atoms: C_4  and  S_15
    5  A    between atoms: C_4  and  C_46
    6  A    between atoms: C_4  and  C_51
    7  A    between atoms: C_7  and  N_8
    8  A    between atoms: C_7  and  C_42
    9  A    between atoms: C_9  and  C_34
   10  A    between atoms: C_9  and  C_39
   11  A    between atoms: C_10  and  C_53
   12  A    between atoms: C_11  and  C_29
   13  A    between atoms: C_11  and  C_39
   14  A    between atoms: C_14  and  C_36
   15  A    between atoms: C_14  and  C_43
   16  A    between atoms: S_15  and  N_38
   17  A    between atoms: C_19  and  C_45
   18  A    between atoms: C_23  and  N_41
   19  A    between atoms: C_23  and  C_43
   20  A    between atoms: C_25  and  C_58
   21  A    between atoms: C_26  and  C_28
   22  A    between atoms: C_26  and  N_59
   23  A    between atoms: C_32  and  C_55
   24  A    between atoms: C_32  and  N_59
   25  A    between atoms: C_33  and  C_51
   26  A    between atoms: C_34  and  C_55
   27  A    between atoms: C_35  and  N_41
   28  A    between atoms: C_36  and  C_53
   29  A    between atoms: C_47  and  C_49
   30  A    between atoms: C_47  and  C_58
   31  A    between atoms: C_53  and  C_55
                            x       y       z     vdW  Elec       q    Type
                         _______ _______ _______ _____ _____    ______ ____

>  <TORSDO>
F 31

$$$$
=
 OpenBabel11052411593D

 61 64  0  0  1  0  0  0  0  0999 V2000
  161.0990  206.7290  149.6680 C   0  0  2  0  0  3  0  0  0  0  0  0
  161.5920  207.4430  148.3850 C   0  0  1  0  0  3  0  0  0  0  0  0
  162.4050  208.7170  148.6810 C   0  0  0  0  0  2  0  0  0  0  0  0
  161.6170  209.9800  148.3360 C   0  0  0  0  0  1  0  0  0  0  0  0
  162.3830  206.5090  147.4300 C   0  0  0  0  0  2  0  0  0  0  0  0
  161.5540  205.3460  146.9030 C   0  0  0  0  0  2  0  0  0  0  0  0
  160.8250  205.6370  145.5880 C   0  0  1  0  0  3  0  0  0  0  0  0
  160.0600  206.9560  145.7210 C   0  0  0  0  0  1  0  0  0  0  0  0
  161.7590  205.7270  144.3790 C   0  0  0  0  0  2  0  0  0  0  0  0
  161.1060  205.1930  143.2010 N   0  0  0  0  0  2  0  0  0  0  0  0
  162.7170  206.8100  142.5060 N   0  0  0  0  0  2  0  0  0  0  0  0
  161.8590  205.7080  142.0650 C   0  0  2  0  0  3  0  0  0  0  0  0
  161.4690  207.0890  141.7570 C   0  0  2  0  0  3  0  0  0  0  0  0
  161.7970  207.4850  140.3220 C   0  0  0  0  0  0  0  0  0  0  0  0
  162.3200  206.5310  139.4750 O   0  0  0  0  0  1  0  0  0  0  0  0
  161.5500  208.7260  139.8740 C   0  0  0  0  0  3  0  0  0  0  0  0
  161.9070  209.3150  138.5300 C   0  0  2  0  0  3  0  0  0  0  0  0
  162.4370  211.0320  138.5180 S   0  0  0  0  0  0  0  0  0  0  0  0
  163.0410  211.3290  139.8580 O   0  0  0  0  0  0  0  0  0  0  0  0
  163.5050  211.2050  137.4650 O   0  0  0  0  0  0  0  0  0  0  0  0
  161.4380  213.3660  138.8850 C   0  0  0  0  0  1  0  0  0  0  0  0
  161.1110  212.1120  138.2340 N   0  0  0  0  0  2  0  0  0  0  0  0
  160.7990  209.0440  137.5110 C   0  0  0  0  0  2  0  0  0  0  0  0
  159.4360  209.0850  138.1800 C   0  0  0  0  0  2  0  0  0  0  0  0
  158.3640  208.7540  137.1600 C   0  0  0  0  0  1  0  0  0  0  0  0
  160.7290  207.7010  150.8060 C   0  0  0  0  0  2  0  0  0  0  0  0
  161.9360  207.8960  151.6980 C   0  0  0  0  0  2  0  0  0  0  0  0
  161.7750  209.1420  152.5480 C   0  0  0  0  0  2  0  0  0  0  0  0
  160.3990  209.7250  152.2590 C   0  0  0  0  0  2  0  0  0  0  0  0
  157.4720  213.1840  153.9690 C   0  0  0  0  0  2  0  0  0  0  0  0
  157.1810  212.4270  155.2820 C   0  0  1  0  0  3  0  0  0  0  0  0
  159.5920  211.5350  155.4980 C   0  0  0  0  0  0  0  0  0  0  0  0
  157.3040  211.0420  155.0720 O   0  0  0  0  0  0  0  0  0  0  0  0
  160.4210  212.3670  155.8310 O   0  0  0  0  0  0  0  0  0  0  0  0
  159.9850  210.4310  154.5660 C   0  0  0  0  0  2  0  0  0  0  0  0
  160.1680  210.9400  153.1380 C   0  0  2  0  0  3  0  0  0  0  0  0
  158.9330  211.6820  152.6180 C   0  0  0  0  0  2  0  0  0  0  0  0
  158.8250  213.0480  153.2600 C   0  0  1  0  0  3  0  0  0  0  0  0
  158.1900  211.6020  156.0260 C   0  0  2  0  0  3  0  0  0  0  0  0
  158.9300  214.1010  152.1590 C   0  0  0  0  0  2  0  0  0  0  0  0
  158.0860  213.7300  150.9380 C   0  0  0  0  0  2  0  0  0  0  0  0
  160.9570  213.6130  147.3360 C   0  0  0  0  0  2  0  0  0  0  0  0
  161.2300  213.9900  148.7820 C   0  0  0  0  0  2  0  0  0  0  0  0
  158.8510  213.8330  149.6160 C   0  0  2  0  0  3  0  0  0  0  0  0
  158.8440  213.0030  147.1790 C   0  0  0  0  0  2  0  0  0  0  0  0
  159.6970  214.0860  146.9500 O   0  0  0  0  0  0  0  0  0  0  0  0
  158.0400  213.2190  148.4610 C   0  0  0  0  0  2  0  0  0  0  0  0
  160.2810  213.2870  149.7400 C   0  0  0  0  0  2  0  0  0  0  0  0
  162.1740  205.7080  150.0910 C   0  0  0  0  0  2  0  0  0  0  0  0
  160.2400  204.7720  150.9650 C   0  0  0  0  0  1  0  0  0  0  0  0
  161.6540  204.5010  150.7260 N   0  0  0  0  0  0  0  0  0  0  0  0
  161.7440  203.4530  149.7040 C   0  0  0  0  0  3  0  0  0  0  0  0
  160.4130  203.0170  149.0840 C   0  0  0  0  0  3  0  0  0  0  0  0
  160.4190  201.7180  148.2780 C   0  0  2  0  0  3  0  0  0  0  0  0
  160.1770  200.5720  150.4620 C   0  0  0  0  0  1  0  0  0  0  0  0
  160.9450  200.5930  149.1560 C   0  0  0  0  0  2  0  0  0  0  0  0
  161.3270  201.8680  147.1470 N   0  0  0  0  0  2  0  0  0  0  0  0
  161.0010  200.8370  146.1660 C   0  0  0  0  0  2  0  0  0  0  0  0
  160.1610  202.6430  144.6600 O   0  0  0  0  0  0  0  0  0  0  0  0
  160.0120  201.3760  145.1850 C   0  0  0  0  0  0  0  0  0  0  0  0
  159.0510  200.6470  144.8190 O   0  0  0  0  0  1  0  0  0  0  0  0
  1 49  1  1  0  0  0
  1 26  1  0  0  0  0
  2  5  1  1  0  0  0
  2  3  1  0  0  0  0
  2  1  1  0  0  0  0
  4  3  1  0  0  0  0
  6  5  1  0  0  0  0
  7  8  1  1  0  0  0
  7  6  1  0  0  0  0
  9  7  1  0  0  0  0
 10  9  1  0  0  0  0
 12 11  1  0  0  0  0
 12 10  1  1  0  0  0
 13 14  1  6  0  0  0
 13 12  1  0  0  0  0
 13 11  1  0  0  0  0
 15 14  1  0  0  0  0
 16 14  2  0  0  0  0
 17 23  1  6  0  0  0
 17 16  1  0  0  0  0
 18 17  1  0  0  0  0
 18 19  2  0  0  0  0
 20 18  2  0  0  0  0
 22 18  1  0  0  0  0
 22 21  1  0  0  0  0
 23 24  1  0  0  0  0
 25 24  1  0  0  0  0
 26 27  1  0  0  0  0
 27 28  1  0  0  0  0
 29 28  1  0  0  0  0
 31 30  1  6  0  0  0
 31 39  1  0  0  0  0
 32 34  2  0  0  0  0
 32 39  1  0  0  0  0
 33 31  1  0  0  0  0
 35 32  1  0  0  0  0
 36 29  1  6  0  0  0
 36 35  1  0  0  0  0
 37 36  1  0  0  0  0
 37 38  1  0  0  0  0
 38 40  1  6  0  0  0
 38 30  1  0  0  0  0
 39 33  1  6  0  0  0
 41 40  1  0  0  0  0
 42 43  1  0  0  0  0
 43 48  1  0  0  0  0
 44 48  1  0  0  0  0
 44 41  1  1  0  0  0
 45 47  1  0  0  0  0
 46 45  1  0  0  0  0
 46 42  1  0  0  0  0
 47 44  1  0  0  0  0
 49 51  1  0  0  0  0
 51 50  1  0  0  0  0
 52 51  1  0  0  0  0
 53 52  2  0  0  0  0
 54 53  1  1  0  0  0
 54 56  1  0  0  0  0
 56 55  1  0  0  0  0
 57 54  1  0  0  0  0
 58 57  1  0  0  0  0
 59 60  2  0  0  0  0
 60 58  1  0  0  0  0
 61 60  1  0  0  0  0
M  END
>  <MODEL>
4

>  <REMARK>
 VINA RESULT:      -2.7      3.491     10.974
  Name = 
  31 active torsions:
  status: ('A' for Active; 'I' for Inactive)
    1  A    between atoms: C_1  and  N_8
    2  A    between atoms: C_1  and  C_21
    3  A    between atoms: C_1  and  C_28
    4  A    between atoms: C_4  and  S_15
    5  A    between atoms: C_4  and  C_46
    6  A    between atoms: C_4  and  C_51
    7  A    between atoms: C_7  and  N_8
    8  A    between atoms: C_7  and  C_42
    9  A    between atoms: C_9  and  C_34
   10  A    between atoms: C_9  and  C_39
   11  A    between atoms: C_10  and  C_53
   12  A    between atoms: C_11  and  C_29
   13  A    between atoms: C_11  and  C_39
   14  A    between atoms: C_14  and  C_36
   15  A    between atoms: C_14  and  C_43
   16  A    between atoms: S_15  and  N_38
   17  A    between atoms: C_19  and  C_45
   18  A    between atoms: C_23  and  N_41
   19  A    between atoms: C_23  and  C_43
   20  A    between atoms: C_25  and  C_58
   21  A    between atoms: C_26  and  C_28
   22  A    between atoms: C_26  and  N_59
   23  A    between atoms: C_32  and  C_55
   24  A    between atoms: C_32  and  N_59
   25  A    between atoms: C_33  and  C_51
   26  A    between atoms: C_34  and  C_55
   27  A    between atoms: C_35  and  N_41
   28  A    between atoms: C_36  and  C_53
   29  A    between atoms: C_47  and  C_49
   30  A    between atoms: C_47  and  C_58
   31  A    between atoms: C_53  and  C_55
                            x       y       z     vdW  Elec       q    Type
                         _______ _______ _______ _____ _____    ______ ____

>  <TORSDO>
F 31

$$$$
=
 OpenBabel11052411593D

 61 64  0  0  1  0  0  0  0  0999 V2000
  161.0640  205.4600  148.1430 C   0  0  2  0  0  3  0  0  0  0  0  0
  162.0540  204.3150  147.8140 C   0  0  1  0  0  3  0  0  0  0  0  0
  161.5760  202.9430  148.3240 C   0  0  0  0  0  2  0  0  0  0  0  0
  160.9670  202.1050  147.2000 C   0  0  0  0  0  1  0  0  0  0  0  0
  162.4160  204.2340  146.3060 C   0  0  0  0  0  2  0  0  0  0  0  0
  162.0710  205.5010  145.5350 C   0  0  0  0  0  2  0  0  0  0  0  0
  161.0190  205.3060  144.4390 C   0  0  1  0  0  3  0  0  0  0  0  0
  159.6280  205.2870  145.0790 C   0  0  0  0  0  1  0  0  0  0  0  0
  161.0540  206.3900  143.3600 C   0  0  0  0  0  2  0  0  0  0  0  0
  162.1470  206.1470  142.4410 N   0  0  0  0  0  2  0  0  0  0  0  0
  162.4560  205.8470  140.0940 N   0  0  0  0  0  2  0  0  0  0  0  0
  161.6360  206.4940  141.1210 C   0  0  2  0  0  3  0  0  0  0  0  0
  162.6130  207.2940  140.3720 C   0  0  2  0  0  3  0  0  0  0  0  0
  161.9700  208.1140  139.2600 C   0  0  0  0  0  0  0  0  0  0  0  0
  162.3900  207.9140  137.9620 O   0  0  0  0  0  1  0  0  0  0  0  0
  160.9870  208.9890  139.5260 C   0  0  0  0  0  3  0  0  0  0  0  0
  160.3190  209.9510  138.5730 C   0  0  2  0  0  3  0  0  0  0  0  0
  160.9390  211.6380  138.5640 S   0  0  0  0  0  0  0  0  0  0  0  0
  162.4120  211.5800  138.8350 O   0  0  0  0  0  0  0  0  0  0  0  0
  160.7310  212.2260  137.1890 O   0  0  0  0  0  0  0  0  0  0  0  0
  158.7860  212.7740  139.3720 C   0  0  0  0  0  1  0  0  0  0  0  0
  160.1700  212.6110  139.7740 N   0  0  0  0  0  2  0  0  0  0  0  0
  158.7980  209.8940  138.7270 C   0  0  0  0  0  2  0  0  0  0  0  0
  158.1220  209.9430  137.3680 C   0  0  0  0  0  2  0  0  0  0  0  0
  156.8150  209.1760  137.4280 C   0  0  0  0  0  1  0  0  0  0  0  0
  161.6720  206.8660  147.9570 C   0  0  0  0  0  2  0  0  0  0  0  0
  161.4390  207.6710  149.2170 C   0  0  0  0  0  2  0  0  0  0  0  0
  162.5940  208.6240  149.4610 C   0  0  0  0  0  2  0  0  0  0  0  0
  162.5800  209.6640  148.3490 C   0  0  0  0  0  2  0  0  0  0  0  0
  160.5160  213.5570  150.3590 C   0  0  0  0  0  2  0  0  0  0  0  0
  160.7630  214.4480  149.1240 C   0  0  1  0  0  3  0  0  0  0  0  0
  160.2800  212.5480  147.4470 C   0  0  0  0  0  0  0  0  0  0  0  0
  161.8960  213.9940  148.4260 O   0  0  0  0  0  0  0  0  0  0  0  0
  159.1040  212.2410  147.3410 O   0  0  0  0  0  0  0  0  0  0  0  0
  161.3350  211.4950  147.3050 C   0  0  0  0  0  2  0  0  0  0  0  0
  161.3810  210.5770  148.5240 C   0  0  2  0  0  3  0  0  0  0  0  0
  161.5540  211.3520  149.8340 C   0  0  0  0  0  2  0  0  0  0  0  0
  160.2650  212.0520  150.2110 C   0  0  1  0  0  3  0  0  0  0  0  0
  160.6770  213.9720  147.7030 C   0  0  2  0  0  3  0  0  0  0  0  0
  159.7860  211.4820  151.5450 C   0  0  0  0  0  2  0  0  0  0  0  0
  160.1910  212.3750  152.7190 C   0  0  0  0  0  2  0  0  0  0  0  0
  156.7560  211.8570  155.7480 C   0  0  0  0  0  2  0  0  0  0  0  0
  156.7340  211.7660  154.2310 C   0  0  0  0  0  2  0  0  0  0  0  0
  159.1370  212.4340  153.8280 C   0  0  2  0  0  3  0  0  0  0  0  0
  158.8370  212.2280  156.3770 C   0  0  0  0  0  2  0  0  0  0  0  0
  157.6220  212.8810  156.1510 O   0  0  0  0  0  0  0  0  0  0  0  0
  159.8000  212.4760  155.2160 C   0  0  0  0  0  2  0  0  0  0  0  0
  158.0790  211.3310  153.6700 C   0  0  0  0  0  2  0  0  0  0  0  0
  160.5270  205.2340  149.5700 C   0  0  0  0  0  2  0  0  0  0  0  0
  162.5360  205.5720  150.6790 C   0  0  0  0  0  1  0  0  0  0  0  0
  161.4690  204.5950  150.4830 N   0  0  0  0  0  0  0  0  0  0  0  0
  160.7500  204.4560  151.7520 C   0  0  0  0  0  2  0  0  0  0  0  0
  160.3240  205.7670  152.4200 C   0  0  0  0  0  2  0  0  0  0  0  0
  161.4320  206.7730  152.7370 C   0  0  2  0  0  3  0  0  0  0  0  0
  160.5180  206.1690  154.9600 C   0  0  0  0  0  1  0  0  0  0  0  0
  161.7170  206.7390  154.2310 C   0  0  0  0  0  2  0  0  0  0  0  0
  160.9650  208.1120  152.3990 N   0  0  0  0  0  2  0  0  0  0  0  0
  160.9000  208.8930  153.6310 C   0  0  0  0  0  2  0  0  0  0  0  0
  162.4350  210.4000  154.8990 O   0  0  0  0  0  1  0  0  0  0  0  0
  162.0800  209.8050  153.7060 C   0  0  0  0  0  0  0  0  0  0  0  0
  162.7700  210.0050  152.6700 O   0  0  0  0  0  0  0  0  0  0  0  0
  1 26  1  1  0  0  0
  1 49  1  0  0  0  0
  2  5  1  6  0  0  0
  2  1  1  0  0  0  0
  2  3  1  0  0  0  0
  4  3  1  0  0  0  0
  6  5  1  0  0  0  0
  7  8  1  1  0  0  0
  7  6  1  0  0  0  0
  9  7  1  0  0  0  0
 10  9  1  0  0  0  0
 11 13  1  0  0  0  0
 11 12  1  0  0  0  0
 12 10  1  1  0  0  0
 13 14  1  6  0  0  0
 13 12  1  0  0  0  0
 14 16  2  0  0  0  0
 15 14  1  0  0  0  0
 17 23  1  1  0  0  0
 17 16  1  0  0  0  0
 18 17  1  0  0  0  0
 18 19  2  0  0  0  0
 18 22  1  0  0  0  0
 20 18  2  0  0  0  0
 21 22  1  0  0  0  0
 24 25  1  0  0  0  0
 24 23  1  0  0  0  0
 26 27  1  0  0  0  0
 27 28  1  0  0  0  0
 29 28  1  0  0  0  0
 31 30  1  1  0  0  0
 33 31  1  0  0  0  0
 34 32  2  0  0  0  0
 35 32  1  0  0  0  0
 35 36  1  0  0  0  0
 36 29  1  6  0  0  0
 36 37  1  0  0  0  0
 37 38  1  0  0  0  0
 38 30  1  0  0  0  0
 38 40  1  1  0  0  0
 39 32  1  1  0  0  0
 39 33  1  0  0  0  0
 39 31  1  0  0  0  0
 40 41  1  0  0  0  0
 42 46  1  0  0  0  0
 43 42  1  0  0  0  0
 44 41  1  6  0  0  0
 44 47  1  0  0  0  0
 46 45  1  0  0  0  0
 47 45  1  0  0  0  0
 48 44  1  0  0  0  0
 48 43  1  0  0  0  0
 49 51  1  0  0  0  0
 51 50  1  0  0  0  0
 51 52  1  0  0  0  0
 52 53  1  0  0  0  0
 54 53  1  1  0  0  0
 54 56  1  0  0  0  0
 56 55  1  0  0  0  0
 57 54  1  0  0  0  0
 57 58  1  0  0  0  0
 58 60  1  0  0  0  0
 60 59  1  0  0  0  0
 61 60  2  0  0  0  0
M  END
>  <MODEL>
5

>  <REMARK>
 VINA RESULT:      -1.2      3.304     10.356
  Name = 
  31 active torsions:
  status: ('A' for Active; 'I' for Inactive)
    1  A    between atoms: C_1  and  N_8
    2  A    between atoms: C_1  and  C_21
    3  A    between atoms: C_1  and  C_28
    4  A    between atoms: C_4  and  S_15
    5  A    between atoms: C_4  and  C_46
    6  A    between atoms: C_4  and  C_51
    7  A    between atoms: C_7  and  N_8
    8  A    between atoms: C_7  and  C_42
    9  A    between atoms: C_9  and  C_34
   10  A    between atoms: C_9  and  C_39
   11  A    between atoms: C_10  and  C_53
   12  A    between atoms: C_11  and  C_29
   13  A    between atoms: C_11  and  C_39
   14  A    between atoms: C_14  and  C_36
   15  A    between atoms: C_14  and  C_43
   16  A    between atoms: S_15  and  N_38
   17  A    between atoms: C_19  and  C_45
   18  A    between atoms: C_23  and  N_41
   19  A    between atoms: C_23  and  C_43
   20  A    between atoms: C_25  and  C_58
   21  A    between atoms: C_26  and  C_28
   22  A    between atoms: C_26  and  N_59
   23  A    between atoms: C_32  and  C_55
   24  A    between atoms: C_32  and  N_59
   25  A    between atoms: C_33  and  C_51
   26  A    between atoms: C_34  and  C_55
   27  A    between atoms: C_35  and  N_41
   28  A    between atoms: C_36  and  C_53
   29  A    between atoms: C_47  and  C_49
   30  A    between atoms: C_47  and  C_58
   31  A    between atoms: C_53  and  C_55
                            x       y       z     vdW  Elec       q    Type
                         _______ _______ _______ _____ _____    ______ ____

>  <TORSDO>
F 31

$$$$
=
 OpenBabel11052411593D

 61 64  0  0  1  0  0  0  0  0999 V2000
  160.7330  205.5520  145.6140 C   0  0  2  0  0  3  0  0  0  0  0  0
  161.1730  205.1270  144.1910 C   0  0  1  0  0  3  0  0  0  0  0  0
  160.1470  204.2170  143.4910 C   0  0  0  0  0  2  0  0  0  0  0  0
  159.4260  203.3100  144.4870 C   0  0  0  0  0  1  0  0  0  0  0  0
  161.5400  206.3280  143.2790 C   0  0  0  0  0  2  0  0  0  0  0  0
  161.6860  205.9480  141.8120 C   0  0  0  0  0  2  0  0  0  0  0  0
  161.8810  207.1390  140.8680 C   0  0  1  0  0  3  0  0  0  0  0  0
  163.3510  207.5660  140.9000 C   0  0  0  0  0  1  0  0  0  0  0  0
  161.4830  206.8420  139.4210 C   0  0  0  0  0  2  0  0  0  0  0  0
  162.1870  207.7300  138.5170 N   0  0  0  0  0  2  0  0  0  0  0  0
  161.6950  209.6270  137.1570 N   0  0  0  0  0  2  0  0  0  0  0  0
  161.3400  208.9080  138.3820 C   0  0  2  0  0  3  0  0  0  0  0  0
  162.1340  210.1390  138.4770 C   0  0  2  0  0  3  0  0  0  0  0  0
  161.2940  211.3480  138.8740 C   0  0  0  0  0  0  0  0  0  0  0  0
  161.1670  212.3890  137.9800 O   0  0  0  0  0  1  0  0  0  0  0  0
  160.6580  211.3890  140.0560 C   0  0  0  0  0  3  0  0  0  0  0  0
  159.8800  212.5380  140.6510 C   0  0  2  0  0  3  0  0  0  0  0  0
  160.2070  212.9250  142.3750 S   0  0  0  0  0  0  0  0  0  0  0  0
  158.8880  212.9730  143.0870 O   0  0  0  0  0  0  0  0  0  0  0  0
  161.0330  211.8130  142.9760 O   0  0  0  0  0  0  0  0  0  0  0  0
  162.1240  214.4530  141.6230 C   0  0  0  0  0  1  0  0  0  0  0  0
  161.0090  214.4520  142.5490 N   0  0  0  0  0  2  0  0  0  0  0  0
  158.3850  212.3830  140.3670 C   0  0  0  0  0  2  0  0  0  0  0  0
  157.8980  213.4930  139.4510 C   0  0  0  0  0  2  0  0  0  0  0  0
  157.5950  212.9180  138.0800 C   0  0  0  0  0  1  0  0  0  0  0  0
  160.9080  207.0610  145.8830 C   0  0  0  0  0  2  0  0  0  0  0  0
  161.8790  207.2450  147.0290 C   0  0  0  0  0  2  0  0  0  0  0  0
  161.1580  207.7660  148.2580 C   0  0  0  0  0  2  0  0  0  0  0  0
  162.0470  208.8190  148.9050 C   0  0  0  0  0  2  0  0  0  0  0  0
  160.7980  208.0700  153.5250 C   0  0  0  0  0  2  0  0  0  0  0  0
  160.5830  206.5560  153.3240 C   0  0  1  0  0  3  0  0  0  0  0  0
  162.5810  206.3150  151.7100 C   0  0  0  0  0  0  0  0  0  0  0  0
  160.2180  206.2970  151.9910 O   0  0  0  0  0  0  0  0  0  0  0  0
  163.6800  206.3750  152.2370 O   0  0  0  0  0  0  0  0  0  0  0  0
  162.3940  206.8560  150.3260 C   0  0  0  0  0  2  0  0  0  0  0  0
  162.4060  208.3830  150.3130 C   0  0  2  0  0  3  0  0  0  0  0  0
  161.3810  208.9850  151.2790 C   0  0  0  0  0  2  0  0  0  0  0  0
  161.8500  208.8350  152.7110 C   0  0  1  0  0  3  0  0  0  0  0  0
  161.4230  205.6910  152.4290 C   0  0  2  0  0  3  0  0  0  0  0  0
  162.0330  210.2320  153.3010 C   0  0  0  0  0  2  0  0  0  0  0  0
  161.1910  210.4280  154.5640 C   0  0  0  0  0  2  0  0  0  0  0  0
  157.8180  213.5390  154.1450 C   0  0  0  0  0  2  0  0  0  0  0  0
  158.2480  212.4390  153.1890 C   0  0  0  0  0  2  0  0  0  0  0  0
  160.2590  211.6400  154.4910 C   0  0  2  0  0  3  0  0  0  0  0  0
  159.0770  213.4000  155.9510 C   0  0  0  0  0  2  0  0  0  0  0  0
  158.9450  214.1080  154.7530 O   0  0  0  0  0  0  0  0  0  0  0  0
  160.2040  212.3730  155.8430 C   0  0  0  0  0  2  0  0  0  0  0  0
  158.8820  211.2670  153.9210 C   0  0  0  0  0  2  0  0  0  0  0  0
  161.4920  204.6790  146.6320 C   0  0  0  0  0  2  0  0  0  0  0  0
  163.8060  204.5270  146.5950 C   0  0  0  0  0  1  0  0  0  0  0  0
  162.5950  203.9050  146.0700 N   0  0  0  0  0  0  0  0  0  0  0  0
  162.4790  202.5710  146.6680 C   0  0  0  0  0  3  0  0  0  0  0  0
  161.3430  202.3960  147.6810 C   0  0  0  0  0  3  0  0  0  0  0  0
  161.0120  200.9650  148.1080 C   0  0  2  0  0  3  0  0  0  0  0  0
  161.0420  200.0160  145.8200 C   0  0  0  0  0  1  0  0  0  0  0  0
  160.1720  200.3070  147.0260 C   0  0  0  0  0  2  0  0  0  0  0  0
  160.2180  201.0100  149.3300 N   0  0  0  0  0  2  0  0  0  0  0  0
  161.1340  200.9830  150.4670 C   0  0  0  0  0  2  0  0  0  0  0  0
  162.2100  202.7970  151.8030 O   0  0  0  0  0  1  0  0  0  0  0  0
  161.0880  202.2960  151.1760 C   0  0  0  0  0  0  0  0  0  0  0  0
  160.0160  202.9600  151.1710 O   0  0  0  0  0  0  0  0  0  0  0  0
  1 26  1  1  0  0  0
  1 49  1  0  0  0  0
  2  5  1  6  0  0  0
  2  1  1  0  0  0  0
  3  2  1  0  0  0  0
  3  4  1  0  0  0  0
  6  5  1  0  0  0  0
  7  8  1  6  0  0  0
  7  6  1  0  0  0  0
  9  7  1  0  0  0  0
 10  9  1  0  0  0  0
 11 12  1  0  0  0  0
 11 13  1  0  0  0  0
 12 13  1  0  0  0  0
 12 10  1  6  0  0  0
 13 14  1  1  0  0  0
 14 16  2  0  0  0  0
 15 14  1  0  0  0  0
 17 16  1  1  0  0  0
 17 18  1  0  0  0  0
 18 22  1  0  0  0  0
 18 20  2  0  0  0  0
 18 19  2  0  0  0  0
 21 22  1  0  0  0  0
 23 17  1  0  0  0  0
 24 23  1  0  0  0  0
 25 24  1  0  0  0  0
 26 27  1  0  0  0  0
 27 28  1  0  0  0  0
 28 29  1  0  0  0  0
 31 30  1  6  0  0  0
 32 34  2  0  0  0  0
 33 39  1  0  0  0  0
 33 31  1  0  0  0  0
 35 32  1  0  0  0  0
 36 29  1  6  0  0  0
 36 35  1  0  0  0  0
 36 37  1  0  0  0  0
 37 38  1  0  0  0  0
 38 40  1  1  0  0  0
 38 30  1  0  0  0  0
 39 32  1  6  0  0  0
 39 31  1  0  0  0  0
 40 41  1  0  0  0  0
 42 46  1  0  0  0  0
 43 48  1  0  0  0  0
 43 42  1  0  0  0  0
 44 41  1  1  0  0  0
 44 47  1  0  0  0  0
 46 45  1  0  0  0  0
 47 45  1  0  0  0  0
 48 44  1  0  0  0  0
 51 50  1  0  0  0  0
 51 49  1  0  0  0  0
 51 52  1  0  0  0  0
 52 53  2  0  0  0  0
 53 54  1  0  0  0  0
 54 56  1  6  0  0  0
 54 57  1  0  0  0  0
 55 56  1  0  0  0  0
 57 58  1  0  0  0  0
 58 60  1  0  0  0  0
 60 59  1  0  0  0  0
 61 60  2  0  0  0  0
M  END
>  <MODEL>
6

>  <REMARK>
 VINA RESULT:      -1.1      3.254     10.184
  Name = 
  31 active torsions:
  status: ('A' for Active; 'I' for Inactive)
    1  A    between atoms: C_1  and  N_8
    2  A    between atoms: C_1  and  C_21
    3  A    between atoms: C_1  and  C_28
    4  A    between atoms: C_4  and  S_15
    5  A    between atoms: C_4  and  C_46
    6  A    between atoms: C_4  and  C_51
    7  A    between atoms: C_7  and  N_8
    8  A    between atoms: C_7  and  C_42
    9  A    between atoms: C_9  and  C_34
   10  A    between atoms: C_9  and  C_39
   11  A    between atoms: C_10  and  C_53
   12  A    between atoms: C_11  and  C_29
   13  A    between atoms: C_11  and  C_39
   14  A    between atoms: C_14  and  C_36
   15  A    between atoms: C_14  and  C_43
   16  A    between atoms: S_15  and  N_38
   17  A    between atoms: C_19  and  C_45
   18  A    between atoms: C_23  and  N_41
   19  A    between atoms: C_23  and  C_43
   20  A    between atoms: C_25  and  C_58
   21  A    between atoms: C_26  and  C_28
   22  A    between atoms: C_26  and  N_59
   23  A    between atoms: C_32  and  C_55
   24  A    between atoms: C_32  and  N_59
   25  A    between atoms: C_33  and  C_51
   26  A    between atoms: C_34  and  C_55
   27  A    between atoms: C_35  and  N_41
   28  A    between atoms: C_36  and  C_53
   29  A    between atoms: C_47  and  C_49
   30  A    between atoms: C_47  and  C_58
   31  A    between atoms: C_53  and  C_55
                            x       y       z     vdW  Elec       q    Type
                         _______ _______ _______ _____ _____    ______ ____

>  <TORSDO>
F 31

$$$$
=
 OpenBabel11052411593D

 61 64  0  0  1  0  0  0  0  0999 V2000
  160.9320  204.1540  150.1670 C   0  0  2  0  0  3  0  0  0  0  0  0
  160.7160  204.5510  151.6480 C   0  0  1  0  0  3  0  0  0  0  0  0
  161.0200  203.4040  152.6290 C   0  0  0  0  0  2  0  0  0  0  0  0
  161.9230  202.3460  151.9950 C   0  0  0  0  0  1  0  0  0  0  0  0
  161.4920  205.8320  152.0580 C   0  0  0  0  0  2  0  0  0  0  0  0
  161.5800  206.0250  153.5660 C   0  0  0  0  0  2  0  0  0  0  0  0
  160.7320  207.1820  154.1040 C   0  0  1  0  0  3  0  0  0  0  0  0
  160.9610  207.3120  155.6120 C   0  0  0  0  0  1  0  0  0  0  0  0
  161.0400  208.5250  153.4380 C   0  0  0  0  0  2  0  0  0  0  0  0
  161.9010  209.3200  154.2910 N   0  0  0  0  0  2  0  0  0  0  0  0
  161.5110  211.0160  155.9220 N   0  0  0  0  0  2  0  0  0  0  0  0
  161.1520  210.5330  154.5870 C   0  0  2  0  0  3  0  0  0  0  0  0
  160.2220  210.3180  155.7030 C   0  0  2  0  0  3  0  0  0  0  0  0
  159.0750  211.3220  155.7120 C   0  0  0  0  0  0  0  0  0  0  0  0
  159.3190  212.6030  156.1600 O   0  0  0  0  0  1  0  0  0  0  0  0
  157.8570  210.9830  155.2590 C   0  0  0  0  0  3  0  0  0  0  0  0
  156.5930  211.8080  155.2930 C   0  0  2  0  0  3  0  0  0  0  0  0
  156.5460  213.2570  154.2300 S   0  0  0  0  0  0  0  0  0  0  0  0
  155.1090  213.5370  153.9100 O   0  0  0  0  0  0  0  0  0  0  0  0
  157.1040  214.4360  154.9890 O   0  0  0  0  0  0  0  0  0  0  0  0
  157.1940  214.1610  151.9200 C   0  0  0  0  0  1  0  0  0  0  0  0
  157.4230  213.0000  152.7580 N   0  0  0  0  0  2  0  0  0  0  0  0
  156.2000  212.1360  156.7340 C   0  0  0  0  0  2  0  0  0  0  0  0
  155.2030  211.1180  157.2610 C   0  0  0  0  0  2  0  0  0  0  0  0
  154.8580  210.1340  156.1590 C   0  0  0  0  0  1  0  0  0  0  0  0
  160.3690  205.1860  149.1680 C   0  0  0  0  0  2  0  0  0  0  0  0
  161.4830  206.1210  148.7490 C   0  0  0  0  0  2  0  0  0  0  0  0
  161.2020  207.5320  149.2290 C   0  0  0  0  0  2  0  0  0  0  0  0
  161.5860  208.4880  148.1080 C   0  0  0  0  0  2  0  0  0  0  0  0
  160.9050  213.1490  149.2360 C   0  0  0  0  0  2  0  0  0  0  0  0
  160.5570  212.8440  150.7080 C   0  0  1  0  0  3  0  0  0  0  0  0
  162.3020  210.9550  150.9060 C   0  0  0  0  0  0  0  0  0  0  0  0
  160.0020  211.5560  150.8110 O   0  0  0  0  0  0  0  0  0  0  0  0
  163.4620  211.3280  150.9640 O   0  0  0  0  0  0  0  0  0  0  0  0
  161.9740  209.6640  150.2200 C   0  0  0  0  0  2  0  0  0  0  0  0
  162.0950  209.7880  148.7030 C   0  0  2  0  0  3  0  0  0  0  0  0
  161.2530  210.9370  148.1400 C   0  0  0  0  0  2  0  0  0  0  0  0
  161.8940  212.2710  148.4590 C   0  0  1  0  0  3  0  0  0  0  0  0
  161.2070  211.7680  151.5290 C   0  0  2  0  0  3  0  0  0  0  0  0
  162.2530  212.9540  147.1410 C   0  0  0  0  0  2  0  0  0  0  0  0
  161.0380  213.0800  146.2190 C   0  0  0  0  0  2  0  0  0  0  0  0
  162.6330  213.5990  141.9280 C   0  0  0  0  0  2  0  0  0  0  0  0
  163.3940  213.4160  143.2300 C   0  0  0  0  0  2  0  0  0  0  0  0
  161.4020  213.4630  144.7830 C   0  0  2  0  0  3  0  0  0  0  0  0
  160.4770  213.5040  142.3810 C   0  0  0  0  0  2  0  0  0  0  0  0
  161.5130  214.4120  142.1420 O   0  0  0  0  0  0  0  0  0  0  0  0
  160.1600  213.4370  143.8750 C   0  0  0  0  0  2  0  0  0  0  0  0
  162.5850  212.6360  144.2550 C   0  0  0  0  0  2  0  0  0  0  0  0
  160.3410  202.7460  149.9570 C   0  0  0  0  0  2  0  0  0  0  0  0
  159.4190  202.1620  147.9100 C   0  0  0  0  0  1  0  0  0  0  0  0
  160.6640  202.1330  148.6720 N   0  0  0  0  0  0  0  0  0  0  0  0
  161.6060  203.0520  148.0270 C   0  0  0  0  0  2  0  0  0  0  0  0
  161.0260  203.9150  146.9030 C   0  0  0  0  0  2  0  0  0  0  0  0
  161.1850  203.3900  145.4760 C   0  0  2  0  0  3  0  0  0  0  0  0
  162.5090  205.4830  145.5630 C   0  0  0  0  0  1  0  0  0  0  0  0
  162.2130  204.2410  144.7470 C   0  0  0  0  0  2  0  0  0  0  0  0
  159.9120  203.5270  144.7780 N   0  0  0  0  0  2  0  0  0  0  0  0
  159.7240  202.3430  143.9430 C   0  0  0  0  0  2  0  0  0  0  0  0
  158.6710  200.9440  145.7230 O   0  0  0  0  0  1  0  0  0  0  0  0
  159.6860  201.1250  144.8050 C   0  0  0  0  0  0  0  0  0  0  0  0
  160.5780  200.2460  144.6670 O   0  0  0  0  0  0  0  0  0  0  0  0
  1 26  1  6  0  0  0
  1  2  1  0  0  0  0
  2  5  1  1  0  0  0
  2  3  1  0  0  0  0
  4  3  1  0  0  0  0
  5  6  1  0  0  0  0
  6  7  1  0  0  0  0
  7  8  1  1  0  0  0
  9  7  1  0  0  0  0
  9 10  1  0  0  0  0
 12 10  1  1  0  0  0
 12 13  1  0  0  0  0
 12 11  1  0  0  0  0
 13 14  1  6  0  0  0
 13 11  1  0  0  0  0
 14 15  1  0  0  0  0
 16 14  2  0  0  0  0
 17 16  1  1  0  0  0
 17 23  1  0  0  0  0
 18 20  2  0  0  0  0
 18 17  1  0  0  0  0
 19 18  2  0  0  0  0
 21 22  1  0  0  0  0
 22 18  1  0  0  0  0
 23 24  1  0  0  0  0
 25 24  1  0  0  0  0
 27 26  1  0  0  0  0
 27 28  1  0  0  0  0
 29 28  1  0  0  0  0
 31 30  1  6  0  0  0
 31 33  1  0  0  0  0
 31 39  1  0  0  0  0
 32 34  2  0  0  0  0
 32 39  1  0  0  0  0
 35 32  1  0  0  0  0
 36 29  1  6  0  0  0
 36 35  1  0  0  0  0
 37 38  1  0  0  0  0
 37 36  1  0  0  0  0
 38 40  1  6  0  0  0
 38 30  1  0  0  0  0
 39 33  1  6  0  0  0
 41 40  1  0  0  0  0
 42 46  1  0  0  0  0
 42 43  1  0  0  0  0
 43 48  1  0  0  0  0
 44 41  1  1  0  0  0
 45 47  1  0  0  0  0
 46 45  1  0  0  0  0
 47 44  1  0  0  0  0
 48 44  1  0  0  0  0
 49  1  1  0  0  0  0
 50 51  1  0  0  0  0
 51 49  1  0  0  0  0
 52 51  1  0  0  0  0
 53 52  1  0  0  0  0
 54 56  1  6  0  0  0
 54 53  1  0  0  0  0
 56 55  1  0  0  0  0
 57 54  1  0  0  0  0
 58 57  1  0  0  0  0
 58 60  1  0  0  0  0
 60 59  1  0  0  0  0
 61 60  2  0  0  0  0
M  END
>  <MODEL>
7

>  <REMARK>
 VINA RESULT:      -0.5      3.202      6.713
  Name = 
  31 active torsions:
  status: ('A' for Active; 'I' for Inactive)
    1  A    between atoms: C_1  and  N_8
    2  A    between atoms: C_1  and  C_21
    3  A    between atoms: C_1  and  C_28
    4  A    between atoms: C_4  and  S_15
    5  A    between atoms: C_4  and  C_46
    6  A    between atoms: C_4  and  C_51
    7  A    between atoms: C_7  and  N_8
    8  A    between atoms: C_7  and  C_42
    9  A    between atoms: C_9  and  C_34
   10  A    between atoms: C_9  and  C_39
   11  A    between atoms: C_10  and  C_53
   12  A    between atoms: C_11  and  C_29
   13  A    between atoms: C_11  and  C_39
   14  A    between atoms: C_14  and  C_36
   15  A    between atoms: C_14  and  C_43
   16  A    between atoms: S_15  and  N_38
   17  A    between atoms: C_19  and  C_45
   18  A    between atoms: C_23  and  N_41
   19  A    between atoms: C_23  and  C_43
   20  A    between atoms: C_25  and  C_58
   21  A    between atoms: C_26  and  C_28
   22  A    between atoms: C_26  and  N_59
   23  A    between atoms: C_32  and  C_55
   24  A    between atoms: C_32  and  N_59
   25  A    between atoms: C_33  and  C_51
   26  A    between atoms: C_34  and  C_55
   27  A    between atoms: C_35  and  N_41
   28  A    between atoms: C_36  and  C_53
   29  A    between atoms: C_47  and  C_49
   30  A    between atoms: C_47  and  C_58
   31  A    between atoms: C_53  and  C_55
                            x       y       z     vdW  Elec       q    Type
                         _______ _______ _______ _____ _____    ______ ____

>  <TORSDO>
F 31

$$$$
