=
 OpenBabel11042420173D

 70 72  0  0  1  0  0  0  0  0999 V2000
  161.9390  207.3870  148.2340 C   0  0  0  0  0  0  0  0  0  0  0  0
  164.4510  212.5680  147.4040 C   0  0  0  0  0  2  0  0  0  0  0  0
  162.1180  210.9440  140.9430 C   0  0  0  0  0  2  0  0  0  0  0  0
  161.0870  211.2120  147.4870 O   0  0  0  0  0  1  0  0  0  0  0  0
  160.3970  209.2310  141.5690 C   0  0  0  0  0  2  0  0  0  0  0  0
  162.0880  206.1940  148.8550 C   0  0  0  0  0  0  0  0  0  0  0  0
  162.7460  212.4000  145.6680 C   0  0  0  0  0  2  0  0  0  0  0  0
  162.6840  213.3910  142.8180 C   0  0  0  0  0  2  0  0  0  0  0  0
  162.6420  213.8690  145.2760 C   0  0  0  0  0  2  0  0  0  0  0  0
  160.6290  210.6470  141.0660 C   0  0  0  0  0  2  0  0  0  0  0  0
  159.7330  209.8420  143.8920 C   0  0  0  0  0  1  0  0  0  0  0  0
  160.7490  209.1010  143.0430 C   0  0  1  0  0  3  0  0  0  0  0  0
  161.3080  207.6310  145.8440 C   0  0  0  0  0  2  0  0  0  0  0  0
  162.1170  209.4780  149.5850 C   0  0  0  0  0  2  0  0  0  0  0  0
  162.3870  212.3970  140.5490 C   0  0  2  0  0  3  0  0  0  0  0  0
  162.9770  210.2940  148.6240 C   0  0  0  0  0  2  0  0  0  0  0  0
  161.1850  208.5310  148.8480 C   0  0  0  0  0  2  0  0  0  0  0  0
  162.2870  211.5720  148.1110 C   0  0  1  0  0  0  0  0  0  0  0  0
  161.8060  207.3020  144.4390 C   0  0  2  0  0  3  0  0  0  0  0  0
  162.7500  205.0580  148.1310 C   0  0  0  0  0  1  0  0  0  0  0  0
  162.4490  207.5830  146.8360 C   0  0  0  0  0  2  0  0  0  0  0  0
  161.8250  213.3760  141.5730 C   0  0  0  0  0  2  0  0  0  0  0  0
  161.8950  213.9990  143.9600 C   0  0  0  0  0  2  0  0  0  0  0  0
  163.1880  212.2490  147.0940 C   0  0  0  0  0  0  0  0  0  0  0  0
  160.7360  207.6260  143.4140 C   0  0  0  0  0  2  0  0  0  0  0  0
  161.3710  204.3540  152.0840 C   0  0  0  0  0  3  0  0  0  0  0  0
  161.7800  204.6360  150.7800 C   0  0  0  0  0  3  0  0  0  0  0  0
  161.0220  206.9140  151.0260 C   0  0  0  0  0  3  0  0  0  0  0  0
  161.5950  205.9140  150.2300 C   0  0  0  0  0  0  0  0  0  0  0  0
  160.7660  205.3470  152.8590 C   0  0  0  0  0  0  0  0  0  0  0  0
  160.6050  206.6330  152.3310 C   0  0  0  0  0  3  0  0  0  0  0  0
  160.3710  205.0380  154.2670 C   0  0  0  0  0  2  0  0  0  0  0  0
  160.3870  206.2640  155.1200 C   0  0  0  0  0  0  0  0  0  0  0  0
  161.5900  206.6950  155.7450 N   0  0  0  0  0  1  0  0  0  0  0  0
  159.3300  206.9390  155.2620 O   0  0  0  0  0  0  0  0  0  0  0  0
  161.7090  212.7720  138.9050 S   0  0  0  0  0  0  0  0  0  0  0  0
  160.6150  211.3220  138.9420 C   0  0  0  0  0  2  0  0  0  0  0  0
  160.3650  210.7900  137.5310 C   0  0  2  0  0  3  0  0  0  0  0  0
  157.7840  210.9350  137.1660 C   0  0  1  0  0  3  0  0  0  0  0  0
  158.8640  208.6330  137.1600 C   0  0  0  0  0  1  0  0  0  0  0  0
  158.9900  210.1190  137.4340 C   0  0  1  0  0  0  0  0  0  0  0  0
  158.1290  210.5220  138.4710 O   0  0  0  0  0  0  0  0  0  0  0  0
  158.0990  212.2910  137.0170 O   0  0  0  0  0  1  0  0  0  0  0  0
  161.1600  208.5100  137.3430 O   0  0  0  0  0  1  0  0  0  0  0  0
  162.6920  210.1770  137.6320 O   0  0  0  0  0  1  0  0  0  0  0  0
  161.4670  209.8400  137.0500 C   0  0  0  0  0  3  0  0  0  0  0  0
  161.9320  212.5390  149.2550 C   0  0  0  0  0  2  0  0  0  0  0  0
  160.4930  213.0530  149.2240 C   0  0  0  0  0  2  0  0  0  0  0  0
  158.9140  213.7670  151.0810 C   0  0  0  0  0  0  0  0  0  0  0  0
  160.1880  213.8090  150.4320 N   0  0  0  0  0  2  0  0  0  0  0  0
  157.9300  213.2100  150.5290 O   0  0  0  0  0  0  0  0  0  0  0  0
  158.7410  214.4350  152.7370 S   0  0  0  0  0  0  0  0  0  0  0  0
  158.8270  212.8430  153.6440 C   0  0  1  0  0  3  0  0  0  0  0  0
  158.6450  211.6800  152.6780 C   0  0  0  0  0  1  0  0  0  0  0  0
  160.0830  212.6830  154.5230 C   0  0  2  0  0  3  0  0  0  0  0  0
  160.9630  211.1320  154.0650 P   0  0  2  0  0  0  0  0  0  0  0  0
  159.8250  209.9150  153.7530 O   0  0  0  0  0  1  0  0  0  0  0  0
  162.0380  210.5700  155.4190 C   0  0  0  0  0  1  0  0  0  0  0  0
  161.8040  211.3250  152.8250 O   0  0  0  0  0  0  0  0  0  0  0  0
  159.6630  212.7660  156.3640 P   0  0  1  0  0  0  0  0  0  0  0  0
  161.2190  213.2300  156.9830 O   0  0  0  0  0  1  0  0  0  0  0  0
  158.8290  214.4260  156.4980 C   0  0  0  0  0  1  0  0  0  0  0  0
  162.1290  205.8850  144.3440 N   0  0  0  0  0  2  0  0  0  0  0  0
  161.0780  205.2570  143.5610 C   0  0  0  0  0  2  0  0  0  0  0  0
  160.1210  204.6460  146.1630 O   0  0  0  0  0  0  0  0  0  0  0  0
  160.8420  203.9160  144.0680 N   0  0  0  0  0  2  0  0  0  0  0  0
  160.3660  203.6770  145.3950 C   0  0  0  0  0  0  0  0  0  0  0  0
  160.1560  202.2990  145.8600 C   0  0  0  0  0  0  0  0  0  0  0  0
  161.0340  201.6920  146.8990 C   0  0  0  0  0  1  0  0  0  0  0  0
  159.2290  201.6100  145.3590 O   0  0  0  0  0  0  0  0  0  0  0  0
  1 17  1  0  0  0  0
  1  6  2  0  0  0  0
  3 10  1  0  0  0  0
  5 12  1  0  0  0  0
  6 29  1  0  0  0  0
  7 24  1  0  0  0  0
  8 23  1  0  0  0  0
  9  7  1  0  0  0  0
 10  5  1  0  0  0  0
 12 25  1  0  0  0  0
 12 11  1  1  0  0  0
 13 21  1  0  0  0  0
 15 36  1  6  0  0  0
 15  3  1  0  0  0  0
 15 22  1  0  0  0  0
 16 14  1  0  0  0  0
 17 14  1  0  0  0  0
 18  4  1  6  0  0  0
 18 16  1  0  0  0  0
 18 47  1  0  0  0  0
 19 63  1  1  0  0  0
 19 13  1  0  0  0  0
 20  6  1  0  0  0  0
 21  1  1  0  0  0  0
 22  8  1  0  0  0  0
 23  9  1  0  0  0  0
 24  2  2  0  0  0  0
 24 18  1  0  0  0  0
 25 19  1  0  0  0  0
 26 30  1  0  0  0  0
 27 26  2  0  0  0  0
 28 31  1  0  0  0  0
 29 27  1  0  0  0  0
 29 28  2  0  0  0  0
 30 32  1  0  0  0  0
 31 30  2  0  0  0  0
 32 33  1  0  0  0  0
 33 35  2  0  0  0  0
 33 34  1  0  0  0  0
 36 37  1  0  0  0  0
 38 37  1  1  0  0  0
 39 43  1  1  0  0  0
 39 41  1  0  0  0  0
 39 42  1  0  0  0  0
 41 40  1  6  0  0  0
 41 38  1  0  0  0  0
 41 42  1  0  0  0  0
 46 44  1  0  0  0  0
 46 38  1  0  0  0  0
 46 45  1  0  0  0  0
 48 47  1  0  0  0  0
 48 50  1  0  0  0  0
 49 52  1  0  0  0  0
 50 49  1  0  0  0  0
 51 49  2  0  0  0  0
 52 53  1  0  0  0  0
 53 54  1  6  0  0  0
 55 53  1  6  0  0  0
 55 60  1  0  0  0  0
 56 55  1  0  0  0  0
 56 58  1  1  0  0  0
 57 56  1  0  0  0  0
 59 56  2  0  0  0  0
 60 62  1  6  0  0  0
 60 61  1  0  0  0  0
 64 66  1  0  0  0  0
 64 63  1  0  0  0  0
 66 67  1  0  0  0  0
 67 68  1  0  0  0  0
 67 65  2  0  0  0  0
 68 69  1  0  0  0  0
 70 68  2  0  0  0  0
M  END
>  <MODEL>
1

>  <REMARK>
 VINA RESULT:      18.9      0.000      0.000
  Name = 
  20 active torsions:
  status: ('A' for Active; 'I' for Inactive)
    1  A    between atoms: C_3  and  C_15
    2  A    between atoms: C_3  and  P_16
    3  A    between atoms: C_3  and  P_28
    4  A    between atoms: C_5  and  C_51
    5  A    between atoms: C_7  and  C_21
    6  A    between atoms: S_12  and  C_41
    7  A    between atoms: S_12  and  C_46
    8  A    between atoms: C_13  and  C_26
    9  A    between atoms: C_14  and  S_54
   10  A    between atoms: C_15  and  S_54
   11  A    between atoms: C_17  and  C_25
   12  A    between atoms: C_19  and  C_45
   13  A    between atoms: C_19  and  C_55
   14  A    between atoms: C_21  and  C_47
   15  A    between atoms: N_24  and  C_56
   16  A    between atoms: C_25  and  C_41
   17  A    between atoms: C_25  and  C_66
   18  A    between atoms: N_32  and  C_45
   19  A    between atoms: N_40  and  C_56
   20  A    between atoms: N_40  and  C_57
                            x       y       z     vdW  Elec       q    Type
                         _______ _______ _______ _____ _____    ______ ____

>  <TORSDO>
F 20

$$$$
=
 OpenBabel11042420173D

 70 72  0  0  1  0  0  0  0  0999 V2000
  160.4490  202.9140  148.1760 C   0  0  0  0  0  0  0  0  0  0  0  0
  160.0930  208.2960  145.9960 C   0  0  0  0  0  2  0  0  0  0  0  0
  160.5020  209.4810  152.9420 C   0  0  0  0  0  2  0  0  0  0  0  0
  162.6110  206.2120  147.5720 O   0  0  0  0  0  1  0  0  0  0  0  0
  161.4820  207.2860  153.6550 C   0  0  0  0  0  2  0  0  0  0  0  0
  159.9440  201.6640  148.0690 C   0  0  0  0  0  0  0  0  0  0  0  0
  161.2840  208.5420  148.1090 C   0  0  0  0  0  2  0  0  0  0  0  0
  161.2650  210.7420  150.1760 C   0  0  0  0  0  2  0  0  0  0  0  0
  161.8940  209.9210  147.8950 C   0  0  0  0  0  2  0  0  0  0  0  0
  161.7500  208.7680  153.4450 C   0  0  0  0  0  2  0  0  0  0  0  0
  162.7040  206.4710  151.6410 C   0  0  0  0  0  1  0  0  0  0  0  0
  161.3530  206.5520  152.3290 C   0  0  1  0  0  3  0  0  0  0  0  0
  160.7250  204.1150  150.3320 C   0  0  0  0  0  2  0  0  0  0  0  0
  161.3370  204.0310  146.1270 C   0  0  0  0  0  2  0  0  0  0  0  0
  160.7700  210.9500  152.6120 C   0  0  2  0  0  3  0  0  0  0  0  0
  160.7240  205.4130  146.3420 C   0  0  0  0  0  2  0  0  0  0  0  0
  161.6840  203.3540  147.4430 C   0  0  0  0  0  2  0  0  0  0  0  0
  161.7700  206.5330  146.4990 C   0  0  1  0  0  0  0  0  0  0  0  0
  159.9150  204.6680  151.5020 C   0  0  2  0  0  3  0  0  0  0  0  0
  158.7770  201.2590  148.9240 C   0  0  0  0  0  1  0  0  0  0  0  0
  159.8370  203.9010  149.1260 C   0  0  0  0  0  2  0  0  0  0  0  0
  161.8320  211.1050  151.5300 C   0  0  0  0  0  2  0  0  0  0  0  0
  162.4060  210.4690  149.2150 C   0  0  0  0  0  2  0  0  0  0  0  0
  161.0580  207.8390  146.8030 C   0  0  0  0  0  0  0  0  0  0  0  0
  160.8420  205.1470  152.6030 C   0  0  0  0  0  2  0  0  0  0  0  0
  160.7190  199.7110  144.9210 C   0  0  0  0  0  3  0  0  0  0  0  0
  160.1750  200.6450  145.8020 C   0  0  0  0  0  3  0  0  0  0  0  0
  161.4160  199.6630  147.6240 C   0  0  0  0  0  3  0  0  0  0  0  0
  160.5030  200.6230  147.1670 C   0  0  0  0  0  0  0  0  0  0  0  0
  161.6010  198.7340  145.3920 C   0  0  0  0  0  0  0  0  0  0  0  0
  161.9590  198.7210  146.7440 C   0  0  0  0  0  3  0  0  0  0  0  0
  162.2060  197.7670  144.4260 C   0  0  0  0  0  2  0  0  0  0  0  0
  161.2100  196.7490  143.9760 C   0  0  0  0  0  0  0  0  0  0  0  0
  161.5880  195.7170  143.0740 N   0  0  0  0  0  1  0  0  0  0  0  0
  160.0320  196.7880  144.4270 O   0  0  0  0  0  0  0  0  0  0  0  0
  161.2620  211.8810  154.0930 S   0  0  0  0  0  0  0  0  0  0  0  0
  159.7020  212.8130  154.1180 C   0  0  0  0  0  2  0  0  0  0  0  0
  158.6500  212.0950  154.9650 C   0  0  2  0  0  3  0  0  0  0  0  0
  156.0670  212.1050  155.3450 C   0  0  1  0  0  3  0  0  0  0  0  0
  157.0070  213.5660  153.4880 C   0  0  0  0  0  1  0  0  0  0  0  0
  157.2350  212.4690  154.5100 C   0  0  1  0  0  0  0  0  0  0  0  0
  156.4520  211.3350  154.2260 O   0  0  0  0  0  0  0  0  0  0  0  0
  156.4540  211.4390  156.5140 O   0  0  0  0  0  1  0  0  0  0  0  0
  159.2520  213.6520  156.7190 O   0  0  0  0  0  1  0  0  0  0  0  0
  159.7340  211.4400  157.0130 O   0  0  0  0  0  1  0  0  0  0  0  0
  158.8230  212.3470  156.4660 C   0  0  0  0  0  3  0  0  0  0  0  0
  162.6600  206.6750  145.2520 C   0  0  0  0  0  2  0  0  0  0  0  0
  162.1230  205.9690  144.0080 C   0  0  0  0  0  2  0  0  0  0  0  0
  161.9410  206.6440  141.5660 C   0  0  0  0  0  0  0  0  0  0  0  0
  161.8080  206.9330  142.9610 N   0  0  0  0  0  2  0  0  0  0  0  0
  162.5170  205.5940  141.1790 O   0  0  0  0  0  0  0  0  0  0  0  0
  161.2010  207.7460  140.3590 S   0  0  0  0  0  0  0  0  0  0  0  0
  162.1570  209.2500  140.7950 C   0  0  1  0  0  3  0  0  0  0  0  0
  163.6500  208.9600  140.7240 C   0  0  0  0  0  1  0  0  0  0  0  0
  161.7650  210.5050  139.9910 C   0  0  2  0  0  3  0  0  0  0  0  0
  160.3990  210.0910  138.8280 P   0  0  2  0  0  0  0  0  0  0  0  0
  158.9600  209.9010  139.7030 O   0  0  0  0  0  1  0  0  0  0  0  0
  160.7410  208.5360  137.9510 C   0  0  0  0  0  1  0  0  0  0  0  0
  160.1950  211.1880  137.8100 O   0  0  0  0  0  0  0  0  0  0  0  0
  163.2570  211.2720  139.1210 P   0  0  1  0  0  0  0  0  0  0  0  0
  162.9280  210.7530  137.4960 O   0  0  0  0  0  1  0  0  0  0  0  0
  162.7300  213.0470  138.9350 C   0  0  0  0  0  1  0  0  0  0  0  0
  159.0470  203.6300  152.0410 N   0  0  0  0  0  2  0  0  0  0  0  0
  159.8340  202.8660  152.9940 C   0  0  0  0  0  2  0  0  0  0  0  0
  160.5950  200.6590  151.3800 O   0  0  0  0  0  0  0  0  0  0  0  0
  161.1650  202.6510  152.4510 N   0  0  0  0  0  2  0  0  0  0  0  0
  161.4840  201.5100  151.6510 C   0  0  0  0  0  0  0  0  0  0  0  0
  162.8500  201.3360  151.1370 C   0  0  0  0  0  0  0  0  0  0  0  0
  163.1260  201.2900  149.6740 C   0  0  0  0  0  1  0  0  0  0  0  0
  163.8040  201.2030  151.9480 O   0  0  0  0  0  0  0  0  0  0  0  0
  1 21  1  0  0  0  0
  2 24  2  0  0  0  0
  3 10  1  0  0  0  0
  6  1  2  0  0  0  0
  6 20  1  0  0  0  0
  8 22  1  0  0  0  0
  9  7  1  0  0  0  0
  9 23  1  0  0  0  0
 10  5  1  0  0  0  0
 12 11  1  1  0  0  0
 12 25  1  0  0  0  0
 12  5  1  0  0  0  0
 13 19  1  0  0  0  0
 14 16  1  0  0  0  0
 14 17  1  0  0  0  0
 15  3  1  0  0  0  0
 15 36  1  1  0  0  0
 16 18  1  0  0  0  0
 17  1  1  0  0  0  0
 18 24  1  0  0  0  0
 18  4  1  1  0  0  0
 19 63  1  1  0  0  0
 19 25  1  0  0  0  0
 21 13  1  0  0  0  0
 22 15  1  0  0  0  0
 23  8  1  0  0  0  0
 24  7  1  0  0  0  0
 26 30  2  0  0  0  0
 26 27  1  0  0  0  0
 27 29  2  0  0  0  0
 29 28  1  0  0  0  0
 29  6  1  0  0  0  0
 30 31  1  0  0  0  0
 31 28  2  0  0  0  0
 32 30  1  0  0  0  0
 33 32  1  0  0  0  0
 33 35  2  0  0  0  0
 34 33  1  0  0  0  0
 36 37  1  0  0  0  0
 38 37  1  6  0  0  0
 38 46  1  0  0  0  0
 39 43  1  1  0  0  0
 41 40  1  6  0  0  0
 41 38  1  0  0  0  0
 41 39  1  0  0  0  0
 42 41  1  0  0  0  0
 42 39  1  0  0  0  0
 46 44  1  0  0  0  0
 46 45  1  0  0  0  0
 47 18  1  0  0  0  0
 48 47  1  0  0  0  0
 49 50  1  0  0  0  0
 50 48  1  0  0  0  0
 51 49  2  0  0  0  0
 52 53  1  0  0  0  0
 52 49  1  0  0  0  0
 53 54  1  6  0  0  0
 55 53  1  6  0  0  0
 56 58  1  6  0  0  0
 56 57  1  0  0  0  0
 56 55  1  0  0  0  0
 59 56  2  0  0  0  0
 60 62  1  6  0  0  0
 60 55  1  0  0  0  0
 61 60  1  0  0  0  0
 63 64  1  0  0  0  0
 65 67  2  0  0  0  0
 66 64  1  0  0  0  0
 67 66  1  0  0  0  0
 68 67  1  0  0  0  0
 68 70  2  0  0  0  0
 69 68  1  0  0  0  0
M  END
>  <MODEL>
2

>  <REMARK>
 VINA RESULT:      21.8      4.048     12.033
  Name = 
  20 active torsions:
  status: ('A' for Active; 'I' for Inactive)
    1  A    between atoms: C_3  and  C_15
    2  A    between atoms: C_3  and  P_16
    3  A    between atoms: C_3  and  P_28
    4  A    between atoms: C_5  and  C_51
    5  A    between atoms: C_7  and  C_21
    6  A    between atoms: S_12  and  C_41
    7  A    between atoms: S_12  and  C_46
    8  A    between atoms: C_13  and  C_26
    9  A    between atoms: C_14  and  S_54
   10  A    between atoms: C_15  and  S_54
   11  A    between atoms: C_17  and  C_25
   12  A    between atoms: C_19  and  C_45
   13  A    between atoms: C_19  and  C_55
   14  A    between atoms: C_21  and  C_47
   15  A    between atoms: N_24  and  C_56
   16  A    between atoms: C_25  and  C_41
   17  A    between atoms: C_25  and  C_66
   18  A    between atoms: N_32  and  C_45
   19  A    between atoms: N_40  and  C_56
   20  A    between atoms: N_40  and  C_57
                            x       y       z     vdW  Elec       q    Type
                         _______ _______ _______ _____ _____    ______ ____

>  <TORSDO>
F 20

$$$$
=
 OpenBabel11042420173D

 70 73  0  0  1  0  0  0  0  0999 V2000
  160.7810  207.8370  146.9770 C   0  0  0  0  0  0  0  0  0  0  0  0
  157.9170  212.8210  147.8680 C   0  0  0  0  0  2  0  0  0  0  0  0
  160.1900  211.1810  154.3460 C   0  0  0  0  0  2  0  0  0  0  0  0
  161.3630  211.6880  147.8400 O   0  0  0  0  0  1  0  0  0  0  0  0
  162.0340  209.6000  153.7230 C   0  0  0  0  0  2  0  0  0  0  0  0
  160.7260  206.6550  146.3220 C   0  0  0  0  0  0  0  0  0  0  0  0
  159.5850  212.7180  149.6430 C   0  0  0  0  0  2  0  0  0  0  0  0
  159.5110  213.6350  152.5180 C   0  0  0  0  0  2  0  0  0  0  0  0
  159.5830  214.1790  150.0750 C   0  0  0  0  0  2  0  0  0  0  0  0
  161.6970  210.9840  154.2550 C   0  0  0  0  0  2  0  0  0  0  0  0
  162.7140  210.3140  151.4340 C   0  0  0  0  0  1  0  0  0  0  0  0
  161.7280  209.4860  152.2380 C   0  0  1  0  0  3  0  0  0  0  0  0
  161.3360  208.0580  149.3870 C   0  0  0  0  0  2  0  0  0  0  0  0
  160.5010  209.9480  145.6730 C   0  0  0  0  0  2  0  0  0  0  0  0
  159.8170  212.6030  154.7690 C   0  0  2  0  0  3  0  0  0  0  0  0
  159.5650  210.6800  146.6310 C   0  0  0  0  0  2  0  0  0  0  0  0
  161.4740  209.0430  146.4110 C   0  0  0  0  0  2  0  0  0  0  0  0
  160.1570  211.9860  147.1940 C   0  0  1  0  0  0  0  0  0  0  0  0
  160.8260  207.6610  150.7700 C   0  0  2  0  0  3  0  0  0  0  0  0
  160.1220  205.4590  147.0000 C   0  0  0  0  0  1  0  0  0  0  0  0
  160.2250  207.9630  148.3650 C   0  0  0  0  0  2  0  0  0  0  0  0
  160.3380  213.6430  153.7850 C   0  0  0  0  0  2  0  0  0  0  0  0
  160.2880  214.3230  151.4120 C   0  0  0  0  0  2  0  0  0  0  0  0
  159.1890  212.5770  148.2030 C   0  0  0  0  0  0  0  0  0  0  0  0
  161.8460  208.0260  151.8310 C   0  0  0  0  0  2  0  0  0  0  0  0
  161.2510  207.0260  142.5920 C   0  0  0  0  0  3  0  0  0  0  0  0
  160.7320  207.1670  143.8790 C   0  0  0  0  0  3  0  0  0  0  0  0
  162.3620  205.5980  144.7180 C   0  0  0  0  0  3  0  0  0  0  0  0
  161.2700  206.4430  144.9540 C   0  0  0  0  0  0  0  0  0  0  0  0
  162.3170  206.1530  142.3580 C   0  0  0  0  0  0  0  0  0  0  0  0
  162.8800  205.4490  143.4270 C   0  0  0  0  0  3  0  0  0  0  0  0
  162.8860  206.0450  140.9800 C   0  0  0  0  0  2  0  0  0  0  0  0
  162.7550  207.3320  140.2320 C   0  0  0  0  0  0  0  0  0  0  0  0
  162.5990  207.3340  138.8180 N   0  0  0  0  0  1  0  0  0  0  0  0
  162.7510  208.4230  140.8660 O   0  0  0  0  0  0  0  0  0  0  0  0
  160.4280  212.9770  156.4390 S   0  0  2  0  0  3  0  0  0  0  0  0
  159.6510  211.4910  157.1380 C   0  0  0  0  0  2  0  0  0  0  0  0
  158.1640  211.4350  156.7860 C   0  0  2  0  0  3  0  0  0  0  0  0
  158.6830  209.0460  155.8690 C   0  0  1  0  0  3  0  0  0  0  0  0
  156.5360  210.1770  155.1090 C   0  0  0  0  0  1  0  0  0  0  0  0
  157.8750  210.2850  155.8140 C   0  0  1  0  0  0  0  0  0  0  0  0
  158.9410  210.0620  154.9230 O   0  0  0  0  0  0  0  0  0  0  0  0
  159.6520  209.1030  156.8790 O   0  0  0  0  0  1  0  0  0  0  0  0
  158.4870  213.8220  156.5420 O   0  0  0  0  0  0  0  0  0  0  0  0
  156.3570  213.0250  156.7320 O   0  0  0  0  0  1  0  0  0  0  0  0
  157.6340  212.7610  156.2320 C   0  0  2  0  0  3  0  0  0  0  0  0
  160.4770  213.0040  146.0840 C   0  0  0  0  0  2  0  0  0  0  0  0
  159.5050  212.9790  144.9050 C   0  0  0  0  0  2  0  0  0  0  0  0
  161.1300  212.8320  142.9580 C   0  0  0  0  0  0  0  0  0  0  0  0
  160.1290  213.5290  143.7080 N   0  0  0  0  0  2  0  0  0  0  0  0
  161.6530  211.7800  143.4060 O   0  0  0  0  0  0  0  0  0  0  0  0
  161.5770  213.4180  141.3220 S   0  0  0  0  0  0  0  0  0  0  0  0
  161.3100  211.8400  140.4260 C   0  0  1  0  0  3  0  0  0  0  0  0
  160.3680  210.9410  141.2160 C   0  0  0  0  0  1  0  0  0  0  0  0
  160.8640  212.0100  138.9610 C   0  0  2  0  0  3  0  0  0  0  0  0
  159.3860  210.9600  138.6400 P   0  0  2  0  0  0  0  0  0  0  0  0
  158.7320  210.4490  140.1180 O   0  0  0  0  0  1  0  0  0  0  0  0
  159.8340  209.4840  137.6770 C   0  0  0  0  0  1  0  0  0  0  0  0
  158.3220  211.7250  137.8890 O   0  0  0  0  0  0  0  0  0  0  0  0
  162.2770  211.6690  137.7540 P   0  0  1  0  0  0  0  0  0  0  0  0
  162.3930  213.2350  137.0120 O   0  0  0  0  0  1  0  0  0  0  0  0
  163.7710  211.7970  138.8580 C   0  0  0  0  0  1  0  0  0  0  0  0
  160.5940  206.2240  150.8210 N   0  0  0  0  0  2  0  0  0  0  0  0
  160.7640  205.7150  149.4710 C   0  0  0  0  0  2  0  0  0  0  0  0
  159.7870  203.5690  151.0530 O   0  0  0  0  0  0  0  0  0  0  0  0
  161.3550  204.3880  149.5330 N   0  0  0  0  0  2  0  0  0  0  0  0
  160.8170  203.3530  150.3590 C   0  0  0  0  0  0  0  0  0  0  0  0
  161.4620  202.0330  150.3930 C   0  0  0  0  0  0  0  0  0  0  0  0
  162.0880  201.5100  151.6390 C   0  0  0  0  0  1  0  0  0  0  0  0
  161.5040  201.3370  149.3440 O   0  0  0  0  0  0  0  0  0  0  0  0
  1 21  1  0  0  0  0
  2 24  2  0  0  0  0
  3 15  1  0  0  0  0
  5 10  1  0  0  0  0
  6  1  2  0  0  0  0
  6 20  1  0  0  0  0
  7  9  1  0  0  0  0
  8 22  1  0  0  0  0
  9 23  1  0  0  0  0
 10  3  1  0  0  0  0
 12 11  1  6  0  0  0
 12  5  1  0  0  0  0
 13 19  1  0  0  0  0
 14 17  1  0  0  0  0
 14 16  1  0  0  0  0
 15 22  1  6  0  0  0
 15 36  1  0  0  0  0
 16 18  1  0  0  0  0
 17  1  1  0  0  0  0
 18  4  1  1  0  0  0
 18 24  1  0  0  0  0
 19 63  1  6  0  0  0
 19 25  1  0  0  0  0
 21 13  1  0  0  0  0
 23  8  1  0  0  0  0
 24  7  1  0  0  0  0
 25 12  1  0  0  0  0
 26 27  1  0  0  0  0
 27 29  2  0  0  0  0
 28 29  1  0  0  0  0
 29  6  1  0  0  0  0
 30 26  2  0  0  0  0
 30 31  1  0  0  0  0
 31 28  2  0  0  0  0
 32 30  1  0  0  0  0
 33 35  2  0  0  0  0
 33 32  1  0  0  0  0
 34 33  1  0  0  0  0
 36 44  1  0  0  0  0
 36 37  1  1  0  0  0
 38 37  1  6  0  0  0
 39 43  1  1  0  0  0
 41 40  1  6  0  0  0
 41 39  1  0  0  0  0
 41 38  1  0  0  0  0
 42 41  1  0  0  0  0
 42 39  1  0  0  0  0
 46 44  1  0  0  0  0
 46 45  1  1  0  0  0
 46 38  1  0  0  0  0
 47 18  1  0  0  0  0
 48 47  1  0  0  0  0
 49 51  2  0  0  0  0
 49 50  1  0  0  0  0
 50 48  1  0  0  0  0
 52 49  1  0  0  0  0
 53 54  1  1  0  0  0
 53 52  1  0  0  0  0
 55 53  1  1  0  0  0
 56 58  1  6  0  0  0
 56 55  1  0  0  0  0
 56 57  1  0  0  0  0
 59 56  2  0  0  0  0
 60 62  1  1  0  0  0
 60 55  1  0  0  0  0
 61 60  1  0  0  0  0
 64 66  1  0  0  0  0
 64 63  1  0  0  0  0
 66 67  1  0  0  0  0
 67 68  1  0  0  0  0
 67 65  2  0  0  0  0
 68 69  1  0  0  0  0
 70 68  2  0  0  0  0
M  END
>  <MODEL>
3

>  <REMARK>
 VINA RESULT:      21.9      3.880     11.951
  Name = 
  20 active torsions:
  status: ('A' for Active; 'I' for Inactive)
    1  A    between atoms: C_3  and  C_15
    2  A    between atoms: C_3  and  P_16
    3  A    between atoms: C_3  and  P_28
    4  A    between atoms: C_5  and  C_51
    5  A    between atoms: C_7  and  C_21
    6  A    between atoms: S_12  and  C_41
    7  A    between atoms: S_12  and  C_46
    8  A    between atoms: C_13  and  C_26
    9  A    between atoms: C_14  and  S_54
   10  A    between atoms: C_15  and  S_54
   11  A    between atoms: C_17  and  C_25
   12  A    between atoms: C_19  and  C_45
   13  A    between atoms: C_19  and  C_55
   14  A    between atoms: C_21  and  C_47
   15  A    between atoms: N_24  and  C_56
   16  A    between atoms: C_25  and  C_41
   17  A    between atoms: C_25  and  C_66
   18  A    between atoms: N_32  and  C_45
   19  A    between atoms: N_40  and  C_56
   20  A    between atoms: N_40  and  C_57
                            x       y       z     vdW  Elec       q    Type
                         _______ _______ _______ _____ _____    ______ ____

>  <TORSDO>
F 20

$$$$
