=
 OpenBabel11052410003D

 39 40  0  0  1  0  0  0  0  0999 V2000
  161.4880  207.4040  149.9560 C   0  0  2  0  0  3  0  0  0  0  0  0
  161.2120  203.5150  148.1080 C   0  0  0  0  0  0  0  0  0  0  0  0
  161.7080  204.6040  147.3730 C   0  0  0  0  0  3  0  0  0  0  0  0
  161.4030  206.0570  149.2940 C   0  0  0  0  0  0  0  0  0  0  0  0
  161.8020  205.8670  147.9620 C   0  0  0  0  0  3  0  0  0  0  0  0
  160.9120  204.9730  150.0270 C   0  0  0  0  0  3  0  0  0  0  0  0
  160.8160  203.7090  149.4360 C   0  0  0  0  0  3  0  0  0  0  0  0
  160.7040  200.5690  145.7710 O   0  0  0  0  0  1  0  0  0  0  0  0
  160.8640  201.8960  146.1510 C   0  0  0  0  0  0  0  0  0  0  0  0
  161.0870  202.2060  147.5340 N   0  0  0  0  0  2  0  0  0  0  0  0
  160.8310  202.7990  145.2730 O   0  0  0  0  0  0  0  0  0  0  0  0
  162.0650  208.4960  149.0990 C   0  0  0  0  0  0  0  0  0  0  0  0
  162.8370  208.1810  148.1490 O   0  0  0  0  0  0  0  0  0  0  0  0
  161.7390  209.8690  149.3440 N   0  0  0  0  0  0  0  0  0  0  0  0
  162.1220  210.8220  148.5540 C   0  0  0  0  0  3  0  0  0  0  0  0
  161.7830  212.2410  148.8660 C   0  0  0  0  0  2  0  0  0  0  0  0
  160.6490  212.7500  147.9850 C   0  0  0  0  0  2  0  0  0  0  0  0
  160.2520  212.4930  145.5020 N   0  0  0  0  0  2  0  0  0  0  0  0
  161.1030  212.9140  146.5700 C   0  0  0  0  0  0  0  0  0  0  0  0
  162.2220  213.4460  146.3270 O   0  0  0  0  0  0  0  0  0  0  0  0
  160.6320  212.6540  144.1060 C   0  0  0  0  0  1  0  0  0  0  0  0
  162.0620  207.3590  151.3770 C   0  0  0  0  0  2  0  0  0  0  0  0
  161.0480  207.7250  152.4570 C   0  0  1  0  0  3  0  0  0  0  0  0
  161.3450  205.4350  153.3310 C   0  0  0  0  0  2  0  0  0  0  0  0
  161.0770  206.7160  153.5720 C   0  0  0  0  0  3  0  0  0  0  0  0
  160.1620  210.0590  152.3580 C   0  0  0  0  0  1  0  0  0  0  0  0
  161.2610  209.1750  152.9280 C   0  0  1  0  0  3  0  0  0  0  0  0
  159.9930  209.4530  155.0760 C   0  0  0  0  0  3  0  0  0  0  0  0
  161.9730  210.6090  154.8080 N   0  0  0  0  0  0  0  0  0  0  0  0
  161.3550  209.3340  154.4570 C   0  0  2  0  0  3  0  0  0  0  0  0
  159.9550  210.6390  155.6550 C   0  0  0  0  0  0  0  0  0  0  0  0
  161.1780  211.3340  155.4790 N   0  0  0  0  0  0  0  0  0  0  0  0
  157.6950  211.6410  155.8480 C   0  0  0  0  0  3  0  0  0  0  0  0
  158.7970  211.1440  156.4060 C   0  0  0  0  0  3  0  0  0  0  0  0
  157.5350  211.7150  154.4690 O   0  0  0  0  0  0  0  0  0  0  0  0
  157.6780  213.2180  153.6590 P   0  0  0  0  0  0  0  0  0  0  0  0
  156.3570  213.9520  153.7210 O   0  0  0  0  0  1  0  0  0  0  0  0
  158.1050  212.9590  152.0430 O   0  0  0  0  0  0  0  0  0  0  0  0
  158.8720  214.1470  154.4140 O   0  0  0  0  0  1  0  0  0  0  0  0
  1 22  1  1  0  0  0
  2  7  1  0  0  0  0
  3  5  1  0  0  0  0
  3  2  2  0  0  0  0
  4  1  1  0  0  0  0
  4  6  1  0  0  0  0
  5  4  2  0  0  0  0
  7  6  2  0  0  0  0
  8  9  1  0  0  0  0
  9 10  1  0  0  0  0
 10  2  1  0  0  0  0
 11  9  2  0  0  0  0
 12 14  1  0  0  0  0
 12  1  1  0  0  0  0
 13 12  2  0  0  0  0
 15 16  1  0  0  0  0
 15 14  2  0  0  0  0
 17 16  1  0  0  0  0
 18 19  1  0  0  0  0
 19 17  1  0  0  0  0
 20 19  2  0  0  0  0
 21 18  1  0  0  0  0
 23 22  1  6  0  0  0
 23 27  1  0  0  0  0
 23 25  1  0  0  0  0
 24 25  2  0  0  0  0
 27 26  1  1  0  0  0
 28 31  2  0  0  0  0
 29 32  2  0  0  0  0
 30 27  1  6  0  0  0
 30 29  1  0  0  0  0
 30 28  1  0  0  0  0
 31 34  1  0  0  0  0
 32 31  1  0  0  0  0
 33 34  2  0  0  0  0
 35 33  1  0  0  0  0
 36 37  1  0  0  0  0
 36 39  1  0  0  0  0
 36 35  1  0  0  0  0
 38 36  2  0  0  0  0
M  END
>  <MODEL>
1

>  <REMARK>
 VINA RESULT:      -7.9      0.000      0.000
  Name = 
  15 active torsions:
  status: ('A' for Active; 'I' for Inactive)
    1  A    between atoms: C_1  and  O_5
    2  A    between atoms: C_2  and  N_21
    3  A    between atoms: O_5  and  P_7
    4  A    between atoms: C_12  and  C_35
    5  A    between atoms: C_13  and  C_15
    6  A    between atoms: C_15  and  C_35
    7  A    between atoms: C_16  and  C_25
    8  A    between atoms: C_16  and  C_37
    9  A    between atoms: C_17  and  C_19
   10  A    between atoms: C_18  and  C_31
   11  A    between atoms: C_18  and  C_35
   12  A    between atoms: C_22  and  C_25
   13  A    between atoms: C_23  and  C_31
   14  A    between atoms: N_28  and  C_32
   15  A    between atoms: C_31  and  C_32
                            x       y       z     vdW  Elec       q    Type
                         _______ _______ _______ _____ _____    ______ ____

>  <TORSDO>
F 15

$$$$
=
 OpenBabel11052410003D

 39 40  0  0  1  0  0  0  0  0999 V2000
  161.6080  208.7940  151.7790 C   0  0  2  0  0  3  0  0  0  0  0  0
  159.9990  211.7890  154.4360 C   0  0  0  0  0  0  0  0  0  0  0  0
  159.2790  211.4110  153.2920 C   0  0  0  0  0  3  0  0  0  0  0  0
  161.0270  209.8370  152.6930 C   0  0  0  0  0  0  0  0  0  0  0  0
  159.7900  210.4420  152.4250 C   0  0  0  0  0  3  0  0  0  0  0  0
  161.7440  210.2110  153.8330 C   0  0  0  0  0  3  0  0  0  0  0  0
  161.2330  211.1820  154.6990 C   0  0  0  0  0  3  0  0  0  0  0  0
  158.2830  213.6600  157.2550 O   0  0  0  0  0  1  0  0  0  0  0  0
  158.7240  212.5680  156.5190 C   0  0  0  0  0  0  0  0  0  0  0  0
  159.5140  212.7890  155.3420 N   0  0  0  0  0  2  0  0  0  0  0  0
  158.4400  211.4030  156.9090 O   0  0  0  0  0  0  0  0  0  0  0  0
  161.9920  209.2930  150.4130 C   0  0  0  0  0  0  0  0  0  0  0  0
  162.3040  208.4530  149.5230 O   0  0  0  0  0  0  0  0  0  0  0  0
  161.9940  210.6950  150.1200 N   0  0  0  0  0  0  0  0  0  0  0  0
  161.9780  211.1470  148.9060 C   0  0  0  0  0  3  0  0  0  0  0  0
  162.0110  212.6160  148.6490 C   0  0  0  0  0  2  0  0  0  0  0  0
  160.8610  213.0510  147.7500 C   0  0  0  0  0  2  0  0  0  0  0  0
  162.5980  213.3250  145.9340 N   0  0  0  0  0  2  0  0  0  0  0  0
  161.2580  213.0000  146.3100 C   0  0  0  0  0  0  0  0  0  0  0  0
  160.4150  212.6470  145.4380 O   0  0  0  0  0  0  0  0  0  0  0  0
  163.0450  213.2640  144.5500 C   0  0  0  0  0  1  0  0  0  0  0  0
  160.8210  207.4790  151.7630 C   0  0  0  0  0  2  0  0  0  0  0  0
  161.5340  206.3310  152.4720 C   0  0  1  0  0  3  0  0  0  0  0  0
  160.7810  206.9410  154.7430 C   0  0  0  0  0  2  0  0  0  0  0  0
  160.8640  206.0240  153.7830 C   0  0  0  0  0  3  0  0  0  0  0  0
  161.2060  203.8630  152.2760 C   0  0  0  0  0  1  0  0  0  0  0  0
  161.6590  205.1140  151.5380 C   0  0  1  0  0  3  0  0  0  0  0  0
  160.5650  203.9260  149.6180 C   0  0  0  0  0  2  0  0  0  0  0  0
  161.7840  205.8360  149.1810 N   0  0  0  0  0  2  0  0  0  0  0  0
  160.9110  205.2650  150.2020 C   0  0  2  0  0  3  0  0  0  0  0  0
  161.1940  203.8570  148.4590 C   0  0  0  0  0  0  0  0  0  0  0  0
  161.9370  205.0370  148.2090 N   0  0  0  0  0  0  0  0  0  0  0  0
  161.4110  202.7480  146.2510 C   0  0  0  0  0  3  0  0  0  0  0  0
  161.0990  202.7090  147.5450 C   0  0  0  0  0  3  0  0  0  0  0  0
  161.8770  203.9060  145.6380 O   0  0  0  0  0  0  0  0  0  0  0  0
  160.8170  204.8870  144.7160 P   0  0  0  0  0  0  0  0  0  0  0  0
  161.5750  205.5020  143.5620 O   0  0  0  0  0  0  0  0  0  0  0  0
  160.1790  206.1130  145.6910 O   0  0  0  0  0  1  0  0  0  0  0  0
  159.5560  203.9340  144.1160 O   0  0  0  0  0  1  0  0  0  0  0  0
  1 22  1  6  0  0  0
  1  4  1  0  0  0  0
  2  7  1  0  0  0  0
  2 10  1  0  0  0  0
  3  2  2  0  0  0  0
  4  6  1  0  0  0  0
  5  4  2  0  0  0  0
  5  3  1  0  0  0  0
  6  7  2  0  0  0  0
  9 11  2  0  0  0  0
  9  8  1  0  0  0  0
 10  9  1  0  0  0  0
 12  1  1  0  0  0  0
 13 12  2  0  0  0  0
 14 12  1  0  0  0  0
 15 14  2  0  0  0  0
 16 15  1  0  0  0  0
 17 16  1  0  0  0  0
 18 19  1  0  0  0  0
 19 17  1  0  0  0  0
 20 19  2  0  0  0  0
 21 18  1  0  0  0  0
 23 22  1  6  0  0  0
 23 25  1  0  0  0  0
 25 24  2  0  0  0  0
 27 26  1  1  0  0  0
 27 23  1  0  0  0  0
 28 30  1  0  0  0  0
 29 30  1  0  0  0  0
 30 27  1  1  0  0  0
 31 28  1  0  0  0  0
 32 31  2  0  0  0  0
 32 29  1  0  0  0  0
 33 34  2  0  0  0  0
 34 31  1  0  0  0  0
 35 33  1  0  0  0  0
 36 35  1  0  0  0  0
 36 38  1  0  0  0  0
 37 36  2  0  0  0  0
 39 36  1  0  0  0  0
M  END
>  <MODEL>
2

>  <REMARK>
 VINA RESULT:      -7.8      2.828      8.653
  Name = 
  15 active torsions:
  status: ('A' for Active; 'I' for Inactive)
    1  A    between atoms: C_1  and  O_5
    2  A    between atoms: C_2  and  N_21
    3  A    between atoms: O_5  and  P_7
    4  A    between atoms: C_12  and  C_35
    5  A    between atoms: C_13  and  C_15
    6  A    between atoms: C_15  and  C_35
    7  A    between atoms: C_16  and  C_25
    8  A    between atoms: C_16  and  C_37
    9  A    between atoms: C_17  and  C_19
   10  A    between atoms: C_18  and  C_31
   11  A    between atoms: C_18  and  C_35
   12  A    between atoms: C_22  and  C_25
   13  A    between atoms: C_23  and  C_31
   14  A    between atoms: N_28  and  C_32
   15  A    between atoms: C_31  and  C_32
                            x       y       z     vdW  Elec       q    Type
                         _______ _______ _______ _____ _____    ______ ____

>  <TORSDO>
F 15

$$$$
=
 OpenBabel11052410003D

 39 40  0  0  1  0  0  0  0  0999 V2000
  161.1700  209.9830  152.3330 C   0  0  2  0  0  3  0  0  0  0  0  0
  158.6050  212.3520  154.8680 C   0  0  0  0  0  0  0  0  0  0  0  0
  159.9090  212.0450  155.2860 C   0  0  0  0  0  3  0  0  0  0  0  0
  160.2950  210.8120  153.2310 C   0  0  0  0  0  0  0  0  0  0  0  0
  160.7490  211.2790  154.4730 C   0  0  0  0  0  3  0  0  0  0  0  0
  158.9970  211.1200  152.8120 C   0  0  0  0  0  3  0  0  0  0  0  0
  158.1570  211.8850  153.6270 C   0  0  0  0  0  3  0  0  0  0  0  0
  155.7340  213.5460  157.0410 O   0  0  0  0  0  1  0  0  0  0  0  0
  156.5280  212.6470  156.3410 C   0  0  0  0  0  0  0  0  0  0  0  0
  157.7100  213.1230  155.6800 N   0  0  0  0  0  2  0  0  0  0  0  0
  156.2080  211.4280  156.3150 O   0  0  0  0  0  0  0  0  0  0  0  0
  161.6200  210.6720  151.0750 C   0  0  0  0  0  0  0  0  0  0  0  0
  162.6110  210.2070  150.4460 O   0  0  0  0  0  0  0  0  0  0  0  0
  160.9310  211.8310  150.5890 N   0  0  0  0  0  0  0  0  0  0  0  0
  161.1850  212.3510  149.4310 C   0  0  0  0  0  3  0  0  0  0  0  0
  160.4630  213.5750  148.9790 C   0  0  0  0  0  2  0  0  0  0  0  0
  159.4200  214.0160  149.9990 C   0  0  0  0  0  2  0  0  0  0  0  0
  156.9130  214.2150  150.2540 N   0  0  0  0  0  2  0  0  0  0  0  0
  158.0360  213.7650  149.4930 C   0  0  0  0  0  0  0  0  0  0  0  0
  157.8690  213.1800  148.3870 O   0  0  0  0  0  0  0  0  0  0  0  0
  155.5450  214.0210  149.7940 C   0  0  0  0  0  1  0  0  0  0  0  0
  160.6530  208.5570  152.1110 C   0  0  0  0  0  2  0  0  0  0  0  0
  161.6660  207.4750  152.4780 C   0  0  1  0  0  3  0  0  0  0  0  0
  160.4400  207.3530  154.6180 C   0  0  0  0  0  2  0  0  0  0  0  0
  161.2470  206.7670  153.7370 C   0  0  0  0  0  3  0  0  0  0  0  0
  161.4310  205.1320  151.6460 C   0  0  0  0  0  1  0  0  0  0  0  0
  161.9050  206.5310  151.2860 C   0  0  1  0  0  3  0  0  0  0  0  0
  160.7400  205.8470  149.1710 C   0  0  0  0  0  2  0  0  0  0  0  0
  162.2750  207.5690  149.0760 N   0  0  0  0  0  2  0  0  0  0  0  0
  161.2660  207.0060  149.9680 C   0  0  2  0  0  3  0  0  0  0  0  0
  161.4120  205.8480  148.0350 C   0  0  0  0  0  0  0  0  0  0  0  0
  162.3500  206.9100  147.9950 N   0  0  0  0  0  0  0  0  0  0  0  0
  161.3420  203.5660  147.0660 C   0  0  0  0  0  3  0  0  0  0  0  0
  161.1830  204.8840  146.9500 C   0  0  0  0  0  3  0  0  0  0  0  0
  161.7380  202.9730  148.2600 O   0  0  0  0  0  0  0  0  0  0  0  0
  160.9580  201.5560  148.8240 P   0  0  0  0  0  0  0  0  0  0  0  0
  159.4600  201.7210  148.6980 O   0  0  0  0  0  1  0  0  0  0  0  0
  161.3620  201.2870  150.4440 O   0  0  0  0  0  1  0  0  0  0  0  0
  161.4580  200.2360  147.8940 O   0  0  0  0  0  0  0  0  0  0  0  0
  1 22  1  6  0  0  0
  1  4  1  0  0  0  0
  2  3  1  0  0  0  0
  2 10  1  0  0  0  0
  4  5  1  0  0  0  0
  5  3  2  0  0  0  0
  6  4  2  0  0  0  0
  6  7  1  0  0  0  0
  7  2  2  0  0  0  0
  9  8  1  0  0  0  0
 10  9  1  0  0  0  0
 11  9  2  0  0  0  0
 12  1  1  0  0  0  0
 13 12  2  0  0  0  0
 14 12  1  0  0  0  0
 15 14  2  0  0  0  0
 16 15  1  0  0  0  0
 16 17  1  0  0  0  0
 19 17  1  0  0  0  0
 19 18  1  0  0  0  0
 20 19  2  0  0  0  0
 21 18  1  0  0  0  0
 23 22  1  6  0  0  0
 23 25  1  0  0  0  0
 25 24  2  0  0  0  0
 27 26  1  1  0  0  0
 27 23  1  0  0  0  0
 28 30  1  0  0  0  0
 29 30  1  0  0  0  0
 30 27  1  1  0  0  0
 31 28  1  0  0  0  0
 32 31  2  0  0  0  0
 32 29  1  0  0  0  0
 33 35  1  0  0  0  0
 34 33  2  0  0  0  0
 34 31  1  0  0  0  0
 35 36  1  0  0  0  0
 36 38  1  0  0  0  0
 37 36  1  0  0  0  0
 39 36  2  0  0  0  0
M  END
>  <MODEL>
3

>  <REMARK>
 VINA RESULT:      -7.4      3.330      9.002
  Name = 
  15 active torsions:
  status: ('A' for Active; 'I' for Inactive)
    1  A    between atoms: C_1  and  O_5
    2  A    between atoms: C_2  and  N_21
    3  A    between atoms: O_5  and  P_7
    4  A    between atoms: C_12  and  C_35
    5  A    between atoms: C_13  and  C_15
    6  A    between atoms: C_15  and  C_35
    7  A    between atoms: C_16  and  C_25
    8  A    between atoms: C_16  and  C_37
    9  A    between atoms: C_17  and  C_19
   10  A    between atoms: C_18  and  C_31
   11  A    between atoms: C_18  and  C_35
   12  A    between atoms: C_22  and  C_25
   13  A    between atoms: C_23  and  C_31
   14  A    between atoms: N_28  and  C_32
   15  A    between atoms: C_31  and  C_32
                            x       y       z     vdW  Elec       q    Type
                         _______ _______ _______ _____ _____    ______ ____

>  <TORSDO>
F 15

$$$$
=
 OpenBabel11052410003D

 39 40  0  0  1  0  0  0  0  0999 V2000
  161.2210  208.7840  150.9510 C   0  0  2  0  0  3  0  0  0  0  0  0
  161.5750  205.7550  147.8990 C   0  0  0  0  0  0  0  0  0  0  0  0
  162.3560  206.9200  147.8210 C   0  0  0  0  0  3  0  0  0  0  0  0
  161.3620  207.7410  149.8780 C   0  0  0  0  0  0  0  0  0  0  0  0
  162.2490  207.9070  148.8040 C   0  0  0  0  0  3  0  0  0  0  0  0
  160.5870  206.5800  149.9580 C   0  0  0  0  0  3  0  0  0  0  0  0
  160.6920  205.5940  148.9730 C   0  0  0  0  0  3  0  0  0  0  0  0
  161.1450  203.6330  144.7840 O   0  0  0  0  0  0  0  0  0  0  0  0
  161.0280  204.7450  145.6070 C   0  0  0  0  0  0  0  0  0  0  0  0
  161.6460  204.7270  146.9020 N   0  0  0  0  0  2  0  0  0  0  0  0
  160.3990  205.7570  145.1950 O   0  0  0  0  0  1  0  0  0  0  0  0
  162.0850  210.0010  150.7680 C   0  0  0  0  0  0  0  0  0  0  0  0
  163.1560  210.0940  151.4310 O   0  0  0  0  0  0  0  0  0  0  0  0
  161.7100  211.0340  149.8480 N   0  0  0  0  0  0  0  0  0  0  0  0
  162.4680  211.3880  148.8600 C   0  0  0  0  0  3  0  0  0  0  0  0
  162.0480  212.4890  147.9450 C   0  0  0  0  0  2  0  0  0  0  0  0
  160.6730  213.0300  148.3170 C   0  0  0  0  0  2  0  0  0  0  0  0
  160.1850  212.6060  145.8730 N   0  0  0  0  0  2  0  0  0  0  0  0
  159.7010  212.8340  147.1980 C   0  0  0  0  0  0  0  0  0  0  0  0
  158.4600  212.8470  147.4350 O   0  0  0  0  0  0  0  0  0  0  0  0
  159.2820  212.3810  144.7530 C   0  0  0  0  0  1  0  0  0  0  0  0
  161.2410  208.2150  152.3740 C   0  0  0  0  0  2  0  0  0  0  0  0
  160.7750  209.2070  153.4360 C   0  0  1  0  0  3  0  0  0  0  0  0
  159.7290  211.3960  152.9760 C   0  0  0  0  0  2  0  0  0  0  0  0
  159.6650  210.0690  152.9010 C   0  0  0  0  0  3  0  0  0  0  0  0
  160.9020  207.0350  154.6620 C   0  0  0  0  0  1  0  0  0  0  0  0
  160.4180  208.4740  154.7410 C   0  0  1  0  0  3  0  0  0  0  0  0
  159.8640  209.9660  156.6820 C   0  0  0  0  0  2  0  0  0  0  0  0
  161.9330  210.1820  155.6820 N   0  0  0  0  0  2  0  0  0  0  0  0
  160.9420  209.1620  156.0150 C   0  0  2  0  0  3  0  0  0  0  0  0
  160.2800  211.2180  156.6730 C   0  0  0  0  0  0  0  0  0  0  0  0
  161.5500  211.3320  156.0540 N   0  0  0  0  0  0  0  0  0  0  0  0
  158.4510  212.8930  156.7040 C   0  0  0  0  0  3  0  0  0  0  0  0
  159.5240  212.3340  157.2600 C   0  0  0  0  0  3  0  0  0  0  0  0
  157.9310  212.4490  155.4920 O   0  0  0  0  0  0  0  0  0  0  0  0
  156.2380  212.2950  155.2800 P   0  0  0  0  0  0  0  0  0  0  0  0
  155.8190  213.0310  154.0260 O   0  0  0  0  0  0  0  0  0  0  0  0
  155.4320  212.9510  156.6150 O   0  0  0  0  0  1  0  0  0  0  0  0
  155.8410  210.6590  155.1310 O   0  0  0  0  0  1  0  0  0  0  0  0
  1 22  1  1  0  0  0
  2  7  1  0  0  0  0
  3  2  2  0  0  0  0
  3  5  1  0  0  0  0
  4  6  1  0  0  0  0
  4  1  1  0  0  0  0
  5  4  2  0  0  0  0
  7  6  2  0  0  0  0
  8  9  2  0  0  0  0
  9 10  1  0  0  0  0
 10  2  1  0  0  0  0
 11  9  1  0  0  0  0
 12  1  1  0  0  0  0
 12 13  2  0  0  0  0
 14 12  1  0  0  0  0
 15 14  2  0  0  0  0
 16 17  1  0  0  0  0
 16 15  1  0  0  0  0
 18 19  1  0  0  0  0
 19 20  2  0  0  0  0
 19 17  1  0  0  0  0
 21 18  1  0  0  0  0
 23 22  1  6  0  0  0
 23 27  1  0  0  0  0
 25 24  2  0  0  0  0
 25 23  1  0  0  0  0
 27 26  1  6  0  0  0
 29 30  1  0  0  0  0
 29 32  1  0  0  0  0
 30 27  1  6  0  0  0
 30 28  1  0  0  0  0
 31 28  1  0  0  0  0
 31 34  1  0  0  0  0
 32 31  2  0  0  0  0
 33 34  2  0  0  0  0
 35 33  1  0  0  0  0
 36 35  1  0  0  0  0
 36 38  1  0  0  0  0
 37 36  2  0  0  0  0
 39 36  1  0  0  0  0
M  END
>  <MODEL>
4

>  <REMARK>
 VINA RESULT:      -7.2      1.769      2.566
  Name = 
  15 active torsions:
  status: ('A' for Active; 'I' for Inactive)
    1  A    between atoms: C_1  and  O_5
    2  A    between atoms: C_2  and  N_21
    3  A    between atoms: O_5  and  P_7
    4  A    between atoms: C_12  and  C_35
    5  A    between atoms: C_13  and  C_15
    6  A    between atoms: C_15  and  C_35
    7  A    between atoms: C_16  and  C_25
    8  A    between atoms: C_16  and  C_37
    9  A    between atoms: C_17  and  C_19
   10  A    between atoms: C_18  and  C_31
   11  A    between atoms: C_18  and  C_35
   12  A    between atoms: C_22  and  C_25
   13  A    between atoms: C_23  and  C_31
   14  A    between atoms: N_28  and  C_32
   15  A    between atoms: C_31  and  C_32
                            x       y       z     vdW  Elec       q    Type
                         _______ _______ _______ _____ _____    ______ ____

>  <TORSDO>
F 15

$$$$
=
 OpenBabel11052410003D

 39 40  0  0  1  0  0  0  0  0999 V2000
  161.6030  206.4940  149.5240 C   0  0  2  0  0  3  0  0  0  0  0  0
  161.1040  202.8000  147.3490 C   0  0  0  0  0  0  0  0  0  0  0  0
  160.7560  202.8630  148.7080 C   0  0  0  0  0  3  0  0  0  0  0  0
  161.4190  205.1980  148.7840 C   0  0  0  0  0  0  0  0  0  0  0  0
  160.9130  204.0540  149.4210 C   0  0  0  0  0  3  0  0  0  0  0  0
  161.7630  205.1370  147.4310 C   0  0  0  0  0  3  0  0  0  0  0  0
  161.6070  203.9440  146.7180 C   0  0  0  0  0  3  0  0  0  0  0  0
  160.1750  200.1740  144.7740 O   0  0  0  0  0  1  0  0  0  0  0  0
  160.2580  201.4350  145.3510 C   0  0  0  0  0  0  0  0  0  0  0  0
  160.9710  201.5930  146.5870 N   0  0  0  0  0  2  0  0  0  0  0  0
  159.7250  202.4180  144.7720 O   0  0  0  0  0  0  0  0  0  0  0  0
  162.1400  207.6250  148.6920 C   0  0  0  0  0  0  0  0  0  0  0  0
  163.0670  207.3900  147.8670 O   0  0  0  0  0  0  0  0  0  0  0  0
  161.6030  208.9480  148.8200 N   0  0  0  0  0  0  0  0  0  0  0  0
  162.3250  210.0070  148.6420 C   0  0  0  0  0  3  0  0  0  0  0  0
  161.7290  211.3640  148.8160 C   0  0  0  0  0  2  0  0  0  0  0  0
  162.6350  212.4490  148.2470 C   0  0  0  0  0  2  0  0  0  0  0  0
  162.5130  213.2600  145.8560 N   0  0  0  0  0  2  0  0  0  0  0  0
  161.9420  213.2130  147.1650 C   0  0  0  0  0  0  0  0  0  0  0  0
  160.8460  213.7900  147.4090 O   0  0  0  0  0  0  0  0  0  0  0  0
  161.8650  213.9660  144.7590 C   0  0  0  0  0  1  0  0  0  0  0  0
  162.2960  206.3370  150.8820 C   0  0  0  0  0  2  0  0  0  0  0  0
  161.3310  206.3510  152.0650 C   0  0  1  0  0  3  0  0  0  0  0  0
  160.6360  204.0200  152.4950 C   0  0  0  0  0  2  0  0  0  0  0  0
  161.4080  205.0540  152.8230 C   0  0  0  0  0  3  0  0  0  0  0  0
  161.7250  208.8170  152.0490 C   0  0  0  0  0  1  0  0  0  0  0  0
  161.5670  207.5950  152.9400 C   0  0  1  0  0  3  0  0  0  0  0  0
  160.1020  209.2790  154.0860 C   0  0  0  0  0  3  0  0  0  0  0  0
  161.0070  207.5680  155.3440 N   0  0  0  0  0  0  0  0  0  0  0  0
  160.4820  207.8290  154.0070 C   0  0  2  0  0  3  0  0  0  0  0  0
  160.4050  209.6720  155.3100 C   0  0  0  0  0  0  0  0  0  0  0  0
  160.9600  208.6100  156.0660 N   0  0  0  0  0  0  0  0  0  0  0  0
  159.0160  211.6940  155.6770 C   0  0  0  0  0  3  0  0  0  0  0  0
  160.1630  211.0310  155.8140 C   0  0  0  0  0  3  0  0  0  0  0  0
  157.9140  211.1360  155.0380 O   0  0  0  0  0  0  0  0  0  0  0  0
  156.3280  211.4740  155.5920 P   0  0  0  0  0  0  0  0  0  0  0  0
  155.4380  210.2790  155.3330 O   0  0  0  0  0  1  0  0  0  0  0  0
  155.7130  212.8220  154.7770 O   0  0  0  0  0  0  0  0  0  0  0  0
  156.3730  211.7920  157.2510 O   0  0  0  0  0  1  0  0  0  0  0  0
  1 22  1  1  0  0  0
  2  3  1  0  0  0  0
  3  5  2  0  0  0  0
  4  5  1  0  0  0  0
  4  1  1  0  0  0  0
  6  4  2  0  0  0  0
  7  2  2  0  0  0  0
  7  6  1  0  0  0  0
  8  9  1  0  0  0  0
  9 10  1  0  0  0  0
 10  2  1  0  0  0  0
 11  9  2  0  0  0  0
 12 14  1  0  0  0  0
 12  1  1  0  0  0  0
 13 12  2  0  0  0  0
 15 16  1  0  0  0  0
 15 14  2  0  0  0  0
 17 16  1  0  0  0  0
 18 19  1  0  0  0  0
 19 20  2  0  0  0  0
 19 17  1  0  0  0  0
 21 18  1  0  0  0  0
 23 22  1  6  0  0  0
 23 25  1  0  0  0  0
 23 27  1  0  0  0  0
 24 25  2  0  0  0  0
 27 26  1  6  0  0  0
 28 31  2  0  0  0  0
 29 32  2  0  0  0  0
 30 27  1  6  0  0  0
 30 28  1  0  0  0  0
 30 29  1  0  0  0  0
 31 34  1  0  0  0  0
 31 32  1  0  0  0  0
 33 34  2  0  0  0  0
 35 36  1  0  0  0  0
 35 33  1  0  0  0  0
 36 39  1  0  0  0  0
 37 36  1  0  0  0  0
 38 36  2  0  0  0  0
M  END
>  <MODEL>
5

>  <REMARK>
 VINA RESULT:      -7.1      1.548      2.040
  Name = 
  15 active torsions:
  status: ('A' for Active; 'I' for Inactive)
    1  A    between atoms: C_1  and  O_5
    2  A    between atoms: C_2  and  N_21
    3  A    between atoms: O_5  and  P_7
    4  A    between atoms: C_12  and  C_35
    5  A    between atoms: C_13  and  C_15
    6  A    between atoms: C_15  and  C_35
    7  A    between atoms: C_16  and  C_25
    8  A    between atoms: C_16  and  C_37
    9  A    between atoms: C_17  and  C_19
   10  A    between atoms: C_18  and  C_31
   11  A    between atoms: C_18  and  C_35
   12  A    between atoms: C_22  and  C_25
   13  A    between atoms: C_23  and  C_31
   14  A    between atoms: N_28  and  C_32
   15  A    between atoms: C_31  and  C_32
                            x       y       z     vdW  Elec       q    Type
                         _______ _______ _______ _____ _____    ______ ____

>  <TORSDO>
F 15

$$$$
=
 OpenBabel11052410003D

 39 40  0  0  1  0  0  0  0  0999 V2000
  161.0080  208.2110  152.6020 C   0  0  2  0  0  3  0  0  0  0  0  0
  160.0610  211.7270  154.9170 C   0  0  0  0  0  0  0  0  0  0  0  0
  160.9840  210.7930  155.4120 C   0  0  0  0  0  3  0  0  0  0  0  0
  160.6950  209.4310  153.4230 C   0  0  0  0  0  0  0  0  0  0  0  0
  161.2990  209.6510  154.6710 C   0  0  0  0  0  3  0  0  0  0  0  0
  159.7780  210.3620  152.9280 C   0  0  0  0  0  3  0  0  0  0  0  0
  159.4620  211.5030  153.6710 C   0  0  0  0  0  3  0  0  0  0  0  0
  158.4020  214.2510  157.2130 O   0  0  0  0  0  1  0  0  0  0  0  0
  158.6600  213.0140  156.6350 C   0  0  0  0  0  0  0  0  0  0  0  0
  159.7020  212.9040  155.6540 N   0  0  0  0  0  2  0  0  0  0  0  0
  157.9900  212.0100  156.9960 O   0  0  0  0  0  0  0  0  0  0  0  0
  161.2300  206.9540  153.3960 C   0  0  0  0  0  0  0  0  0  0  0  0
  161.0550  206.9830  154.6460 O   0  0  0  0  0  0  0  0  0  0  0  0
  161.6210  205.7370  152.7470 N   0  0  0  0  0  0  0  0  0  0  0  0
  160.7880  204.7700  152.5320 C   0  0  0  0  0  3  0  0  0  0  0  0
  161.2480  203.5100  151.8790 C   0  0  0  0  0  2  0  0  0  0  0  0
  160.4430  203.2070  150.6210 C   0  0  0  0  0  2  0  0  0  0  0  0
  160.6870  201.7670  148.5570 N   0  0  0  0  0  2  0  0  0  0  0  0
  160.9460  201.9710  149.9480 C   0  0  0  0  0  0  0  0  0  0  0  0
  161.6180  201.1270  150.6060 O   0  0  0  0  0  0  0  0  0  0  0  0
  161.1770  200.5950  147.8470 C   0  0  0  0  0  1  0  0  0  0  0  0
  162.0590  208.4530  151.5130 C   0  0  0  0  0  2  0  0  0  0  0  0
  161.5210  209.2120  150.3020 C   0  0  1  0  0  3  0  0  0  0  0  0
  161.6720  211.6580  150.0030 C   0  0  0  0  0  2  0  0  0  0  0  0
  162.2940  210.4850  150.0920 C   0  0  0  0  0  3  0  0  0  0  0  0
  162.7400  208.5160  148.2360 C   0  0  0  0  0  1  0  0  0  0  0  0
  161.4830  208.2980  149.0640 C   0  0  1  0  0  3  0  0  0  0  0  0
  162.4130  205.9790  148.8280 C   0  0  0  0  0  2  0  0  0  0  0  0
  160.1270  206.2690  148.6900 N   0  0  0  0  0  2  0  0  0  0  0  0
  161.2910  206.8050  149.3890 C   0  0  2  0  0  3  0  0  0  0  0  0
  161.8610  205.1470  147.9650 C   0  0  0  0  0  0  0  0  0  0  0  0
  160.4580  205.3400  147.8930 N   0  0  0  0  0  0  0  0  0  0  0  0
  162.9750  204.2640  145.9330 C   0  0  0  0  0  3  0  0  0  0  0  0
  162.6140  204.1360  147.2090 C   0  0  0  0  0  3  0  0  0  0  0  0
  162.6730  205.4000  145.1910 O   0  0  0  0  0  0  0  0  0  0  0  0
  161.2090  205.4940  144.3060 P   0  0  0  0  0  0  0  0  0  0  0  0
  160.3470  206.5990  144.8730 O   0  0  0  0  0  1  0  0  0  0  0  0
  160.3820  204.0220  144.4130 O   0  0  0  0  0  1  0  0  0  0  0  0
  161.5560  205.8270  142.6860 O   0  0  0  0  0  0  0  0  0  0  0  0
  1 22  1  1  0  0  0
  1 12  1  0  0  0  0
  1  4  1  0  0  0  0
  2  3  1  0  0  0  0
  2 10  1  0  0  0  0
  4  5  1  0  0  0  0
  5  3  2  0  0  0  0
  6  4  2  0  0  0  0
  6  7  1  0  0  0  0
  7  2  2  0  0  0  0
  9 11  2  0  0  0  0
  9  8  1  0  0  0  0
 10  9  1  0  0  0  0
 12 13  2  0  0  0  0
 14 12  1  0  0  0  0
 15 14  2  0  0  0  0
 16 15  1  0  0  0  0
 17 16  1  0  0  0  0
 18 19  1  0  0  0  0
 19 20  2  0  0  0  0
 19 17  1  0  0  0  0
 21 18  1  0  0  0  0
 23 25  1  6  0  0  0
 23 22  1  0  0  0  0
 24 25  2  0  0  0  0
 27 26  1  1  0  0  0
 27 23  1  0  0  0  0
 28 30  1  0  0  0  0
 29 30  1  0  0  0  0
 30 27  1  6  0  0  0
 31 28  1  0  0  0  0
 32 31  2  0  0  0  0
 32 29  1  0  0  0  0
 33 34  2  0  0  0  0
 34 31  1  0  0  0  0
 35 33  1  0  0  0  0
 36 38  1  0  0  0  0
 36 37  1  0  0  0  0
 36 35  1  0  0  0  0
 39 36  2  0  0  0  0
M  END
>  <MODEL>
6

>  <REMARK>
 VINA RESULT:      -6.5      3.491     10.050
  Name = 
  15 active torsions:
  status: ('A' for Active; 'I' for Inactive)
    1  A    between atoms: C_1  and  O_5
    2  A    between atoms: C_2  and  N_21
    3  A    between atoms: O_5  and  P_7
    4  A    between atoms: C_12  and  C_35
    5  A    between atoms: C_13  and  C_15
    6  A    between atoms: C_15  and  C_35
    7  A    between atoms: C_16  and  C_25
    8  A    between atoms: C_16  and  C_37
    9  A    between atoms: C_17  and  C_19
   10  A    between atoms: C_18  and  C_31
   11  A    between atoms: C_18  and  C_35
   12  A    between atoms: C_22  and  C_25
   13  A    between atoms: C_23  and  C_31
   14  A    between atoms: N_28  and  C_32
   15  A    between atoms: C_31  and  C_32
                            x       y       z     vdW  Elec       q    Type
                         _______ _______ _______ _____ _____    ______ ____

>  <TORSDO>
F 15

$$$$
=
 OpenBabel11052410003D

 39 40  0  0  1  0  0  0  0  0999 V2000
  162.1920  206.9640  150.3450 C   0  0  2  0  0  3  0  0  0  0  0  0
  162.1020  210.9840  148.7780 C   0  0  0  0  0  0  0  0  0  0  0  0
  161.9370  209.8920  147.9110 C   0  0  0  0  0  3  0  0  0  0  0  0
  162.1540  208.3560  149.7780 C   0  0  0  0  0  0  0  0  0  0  0  0
  161.9640  208.5870  148.4080 C   0  0  0  0  0  3  0  0  0  0  0  0
  162.3150  209.4430  150.6440 C   0  0  0  0  0  3  0  0  0  0  0  0
  162.2900  210.7490  150.1460 C   0  0  0  0  0  3  0  0  0  0  0  0
  161.2670  214.2630  147.0630 O   0  0  0  0  0  0  0  0  0  0  0  0
  161.0870  212.9530  147.4880 C   0  0  0  0  0  0  0  0  0  0  0  0
  162.0940  212.3370  148.3040 N   0  0  0  0  0  2  0  0  0  0  0  0
  160.0360  212.3360  147.1670 O   0  0  0  0  0  1  0  0  0  0  0  0
  161.1830  206.0160  149.7600 C   0  0  0  0  0  0  0  0  0  0  0  0
  159.9800  206.3890  149.6630 O   0  0  0  0  0  0  0  0  0  0  0  0
  161.5770  204.7140  149.3080 N   0  0  0  0  0  0  0  0  0  0  0  0
  160.9790  204.1120  148.3300 C   0  0  0  0  0  3  0  0  0  0  0  0
  161.4060  202.7450  147.9130 C   0  0  0  0  0  2  0  0  0  0  0  0
  161.1850  202.5210  146.4220 C   0  0  0  0  0  2  0  0  0  0  0  0
  160.7870  204.3500  144.7230 N   0  0  0  0  0  2  0  0  0  0  0  0
  161.6750  203.6880  145.6280 C   0  0  0  0  0  0  0  0  0  0  0  0
  162.8600  204.0980  145.7780 O   0  0  0  0  0  0  0  0  0  0  0  0
  161.2040  205.5080  143.9460 C   0  0  0  0  0  1  0  0  0  0  0  0
  162.2720  206.9220  151.8750 C   0  0  0  0  0  2  0  0  0  0  0  0
  160.9930  206.4230  152.5410 C   0  0  1  0  0  3  0  0  0  0  0  0
  160.8350  203.9590  152.4990 C   0  0  0  0  0  2  0  0  0  0  0  0
  161.2080  205.0610  153.1430 C   0  0  0  0  0  3  0  0  0  0  0  0
  160.6490  206.9500  154.9580 C   0  0  0  0  0  1  0  0  0  0  0  0
  160.4600  207.4660  153.5400 C   0  0  1  0  0  3  0  0  0  0  0  0
  161.3880  209.4810  154.7110 C   0  0  0  0  0  2  0  0  0  0  0  0
  160.1030  209.8000  152.8210 N   0  0  0  0  0  2  0  0  0  0  0  0
  161.0770  208.8660  153.3770 C   0  0  2  0  0  3  0  0  0  0  0  0
  160.6550  210.5760  154.7910 C   0  0  0  0  0  0  0  0  0  0  0  0
  159.8730  210.7550  153.6230 N   0  0  0  0  0  0  0  0  0  0  0  0
  159.9200  212.5810  156.0530 C   0  0  0  0  0  3  0  0  0  0  0  0
  160.6830  211.4950  155.9380 C   0  0  0  0  0  3  0  0  0  0  0  0
  158.9970  212.9410  155.0770 O   0  0  0  0  0  0  0  0  0  0  0  0
  157.3150  212.8130  155.3840 P   0  0  0  0  0  0  0  0  0  0  0  0
  156.5770  212.6280  154.0770 O   0  0  0  0  0  0  0  0  0  0  0  0
  156.7660  214.2170  156.1500 O   0  0  0  0  0  1  0  0  0  0  0  0
  157.0310  211.4790  156.3830 O   0  0  0  0  0  1  0  0  0  0  0  0
  1 22  1  1  0  0  0
  2  7  1  0  0  0  0
  3  5  1  0  0  0  0
  3  2  2  0  0  0  0
  4  1  1  0  0  0  0
  4  6  1  0  0  0  0
  5  4  2  0  0  0  0
  7  6  2  0  0  0  0
  8  9  2  0  0  0  0
  9 10  1  0  0  0  0
 10  2  1  0  0  0  0
 11  9  1  0  0  0  0
 12  1  1  0  0  0  0
 13 12  2  0  0  0  0
 14 12  1  0  0  0  0
 15 14  2  0  0  0  0
 16 15  1  0  0  0  0
 17 16  1  0  0  0  0
 18 19  1  0  0  0  0
 19 20  2  0  0  0  0
 19 17  1  0  0  0  0
 21 18  1  0  0  0  0
 23 22  1  1  0  0  0
 23 25  1  0  0  0  0
 23 27  1  0  0  0  0
 24 25  2  0  0  0  0
 27 26  1  1  0  0  0
 28 31  1  0  0  0  0
 29 30  1  0  0  0  0
 29 32  1  0  0  0  0
 30 27  1  1  0  0  0
 30 28  1  0  0  0  0
 31 34  1  0  0  0  0
 32 31  2  0  0  0  0
 34 33  2  0  0  0  0
 35 36  1  0  0  0  0
 35 33  1  0  0  0  0
 36 38  1  0  0  0  0
 36 39  1  0  0  0  0
 37 36  2  0  0  0  0
M  END
>  <MODEL>
7

>  <REMARK>
 VINA RESULT:      -6.5      1.887      5.936
  Name = 
  15 active torsions:
  status: ('A' for Active; 'I' for Inactive)
    1  A    between atoms: C_1  and  O_5
    2  A    between atoms: C_2  and  N_21
    3  A    between atoms: O_5  and  P_7
    4  A    between atoms: C_12  and  C_35
    5  A    between atoms: C_13  and  C_15
    6  A    between atoms: C_15  and  C_35
    7  A    between atoms: C_16  and  C_25
    8  A    between atoms: C_16  and  C_37
    9  A    between atoms: C_17  and  C_19
   10  A    between atoms: C_18  and  C_31
   11  A    between atoms: C_18  and  C_35
   12  A    between atoms: C_22  and  C_25
   13  A    between atoms: C_23  and  C_31
   14  A    between atoms: N_28  and  C_32
   15  A    between atoms: C_31  and  C_32
                            x       y       z     vdW  Elec       q    Type
                         _______ _______ _______ _____ _____    ______ ____

>  <TORSDO>
F 15

$$$$
=
 OpenBabel11052410003D

 39 40  0  0  1  0  0  0  0  0999 V2000
  161.3460  208.0750  152.1910 C   0  0  2  0  0  3  0  0  0  0  0  0
  160.8770  203.8800  151.2920 C   0  0  0  0  0  0  0  0  0  0  0  0
  161.5110  204.2730  152.4820 C   0  0  0  0  0  3  0  0  0  0  0  0
  161.1910  206.6080  151.8990 C   0  0  0  0  0  0  0  0  0  0  0  0
  161.6670  205.6280  152.7830 C   0  0  0  0  0  3  0  0  0  0  0  0
  160.5570  206.2180  150.7160 C   0  0  0  0  0  3  0  0  0  0  0  0
  160.4030  204.8620  150.4130 C   0  0  0  0  0  3  0  0  0  0  0  0
  160.5850  200.5740  149.4540 O   0  0  0  0  0  1  0  0  0  0  0  0
  160.8440  201.9270  149.6320 C   0  0  0  0  0  0  0  0  0  0  0  0
  160.7110  202.5000  150.9410 N   0  0  0  0  0  2  0  0  0  0  0  0
  161.2090  202.6230  148.6460 O   0  0  0  0  0  0  0  0  0  0  0  0
  162.2820  208.8070  151.2710 C   0  0  0  0  0  0  0  0  0  0  0  0
  162.7130  209.9430  151.6160 O   0  0  0  0  0  0  0  0  0  0  0  0
  162.6900  208.2240  150.0270 N   0  0  0  0  0  0  0  0  0  0  0  0
  161.8720  208.0680  149.0350 C   0  0  0  0  0  3  0  0  0  0  0  0
  162.3360  207.4290  147.7690 C   0  0  0  0  0  2  0  0  0  0  0  0
  161.2090  206.6660  147.0840 C   0  0  0  0  0  2  0  0  0  0  0  0
  160.8280  204.5340  145.7790 N   0  0  0  0  0  2  0  0  0  0  0  0
  161.6810  205.3310  146.6050 C   0  0  0  0  0  0  0  0  0  0  0  0
  162.8370  204.9270  146.9110 O   0  0  0  0  0  0  0  0  0  0  0  0
  161.2480  203.2400  145.2620 C   0  0  0  0  0  1  0  0  0  0  0  0
  161.5600  208.3900  153.6760 C   0  0  0  0  0  2  0  0  0  0  0  0
  160.5960  209.4390  154.2230 C   0  0  1  0  0  3  0  0  0  0  0  0
  159.3900  211.1860  152.9610 C   0  0  0  0  0  2  0  0  0  0  0  0
  159.6470  209.8940  153.1480 C   0  0  0  0  0  3  0  0  0  0  0  0
  160.3090  207.4790  155.7450 C   0  0  0  0  0  1  0  0  0  0  0  0
  159.8950  208.9200  155.4910 C   0  0  1  0  0  3  0  0  0  0  0  0
  159.3250  211.0540  156.6820 C   0  0  0  0  0  3  0  0  0  0  0  0
  161.5010  210.2880  156.7740 N   0  0  0  0  0  0  0  0  0  0  0  0
  160.1300  209.7880  156.7410 C   0  0  2  0  0  3  0  0  0  0  0  0
  160.1980  212.0440  156.6860 C   0  0  0  0  0  0  0  0  0  0  0  0
  161.5270  211.5550  156.7410 N   0  0  0  0  0  0  0  0  0  0  0  0
  158.5740  213.9130  156.5360 C   0  0  0  0  0  3  0  0  0  0  0  0
  159.8220  213.4650  156.6660 C   0  0  0  0  0  3  0  0  0  0  0  0
  157.4890  213.0500  156.4180 O   0  0  0  0  0  0  0  0  0  0  0  0
  156.4260  213.1740  155.0800 P   0  0  0  0  0  0  0  0  0  0  0  0
  156.0080  211.7890  154.6390 O   0  0  0  0  0  1  0  0  0  0  0  0
  157.2040  213.9620  153.8020 O   0  0  0  0  0  0  0  0  0  0  0  0
  155.0570  214.0550  155.5350 O   0  0  0  0  0  1  0  0  0  0  0  0
  1 22  1  1  0  0  0
  2  3  1  0  0  0  0
  3  5  2  0  0  0  0
  4  1  1  0  0  0  0
  4  5  1  0  0  0  0
  6  4  2  0  0  0  0
  7  6  1  0  0  0  0
  7  2  2  0  0  0  0
  8  9  1  0  0  0  0
  9 10  1  0  0  0  0
 10  2  1  0  0  0  0
 11  9  2  0  0  0  0
 12 13  2  0  0  0  0
 12  1  1  0  0  0  0
 14 12  1  0  0  0  0
 15 14  2  0  0  0  0
 16 15  1  0  0  0  0
 17 16  1  0  0  0  0
 18 19  1  0  0  0  0
 19 20  2  0  0  0  0
 19 17  1  0  0  0  0
 21 18  1  0  0  0  0
 22 23  1  0  0  0  0
 23 25  1  6  0  0  0
 23 27  1  0  0  0  0
 24 25  2  0  0  0  0
 27 26  1  1  0  0  0
 28 31  2  0  0  0  0
 28 30  1  0  0  0  0
 30 27  1  6  0  0  0
 30 29  1  0  0  0  0
 31 32  1  0  0  0  0
 32 29  2  0  0  0  0
 33 34  2  0  0  0  0
 34 31  1  0  0  0  0
 35 33  1  0  0  0  0
 36 39  1  0  0  0  0
 36 35  1  0  0  0  0
 37 36  1  0  0  0  0
 38 36  2  0  0  0  0
M  END
>  <MODEL>
8

>  <REMARK>
 VINA RESULT:      -6.5      2.817      4.130
  Name = 
  15 active torsions:
  status: ('A' for Active; 'I' for Inactive)
    1  A    between atoms: C_1  and  O_5
    2  A    between atoms: C_2  and  N_21
    3  A    between atoms: O_5  and  P_7
    4  A    between atoms: C_12  and  C_35
    5  A    between atoms: C_13  and  C_15
    6  A    between atoms: C_15  and  C_35
    7  A    between atoms: C_16  and  C_25
    8  A    between atoms: C_16  and  C_37
    9  A    between atoms: C_17  and  C_19
   10  A    between atoms: C_18  and  C_31
   11  A    between atoms: C_18  and  C_35
   12  A    between atoms: C_22  and  C_25
   13  A    between atoms: C_23  and  C_31
   14  A    between atoms: N_28  and  C_32
   15  A    between atoms: C_31  and  C_32
                            x       y       z     vdW  Elec       q    Type
                         _______ _______ _______ _____ _____    ______ ____

>  <TORSDO>
F 15

$$$$
=
 OpenBabel11052410003D

 39 40  0  0  1  0  0  0  0  0999 V2000
  161.5360  207.9570  149.7190 C   0  0  2  0  0  3  0  0  0  0  0  0
  161.3380  204.1020  147.7920 C   0  0  0  0  0  0  0  0  0  0  0  0
  162.2680  205.0560  147.3510 C   0  0  0  0  0  3  0  0  0  0  0  0
  161.4860  206.6190  149.0350 C   0  0  0  0  0  0  0  0  0  0  0  0
  162.3420  206.3070  147.9680 C   0  0  0  0  0  3  0  0  0  0  0  0
  160.5610  205.6680  149.4770 C   0  0  0  0  0  3  0  0  0  0  0  0
  160.4870  204.4170  148.8580 C   0  0  0  0  0  3  0  0  0  0  0  0
  161.1430  200.3790  147.0860 O   0  0  0  0  0  0  0  0  0  0  0  0
  161.1960  201.5430  147.8430 C   0  0  0  0  0  0  0  0  0  0  0  0
  161.2230  202.8120  147.1750 N   0  0  0  0  0  2  0  0  0  0  0  0
  161.1990  201.4640  149.1010 O   0  0  0  0  0  1  0  0  0  0  0  0
  162.0970  209.0740  148.8840 C   0  0  0  0  0  0  0  0  0  0  0  0
  163.0970  208.8420  148.1470 O   0  0  0  0  0  0  0  0  0  0  0  0
  161.5040  210.3780  148.9100 N   0  0  0  0  0  0  0  0  0  0  0  0
  162.1110  211.4230  148.4460 C   0  0  0  0  0  3  0  0  0  0  0  0
  161.4650  212.7660  148.5220 C   0  0  0  0  0  2  0  0  0  0  0  0
  160.7490  212.9660  149.8520 C   0  0  0  0  0  2  0  0  0  0  0  0
  158.3920  213.4680  150.6160 N   0  0  0  0  0  2  0  0  0  0  0  0
  159.4350  213.6510  149.6560 C   0  0  0  0  0  0  0  0  0  0  0  0
  159.2630  214.4060  148.6580 O   0  0  0  0  0  0  0  0  0  0  0  0
  157.1030  214.1330  150.4880 C   0  0  0  0  0  1  0  0  0  0  0  0
  162.0990  207.9020  151.1440 C   0  0  0  0  0  2  0  0  0  0  0  0
  161.2010  207.1570  152.1270 C   0  0  1  0  0  3  0  0  0  0  0  0
  161.8510  204.7780  152.2600 C   0  0  0  0  0  2  0  0  0  0  0  0
  161.9440  206.0100  152.7550 C   0  0  0  0  0  3  0  0  0  0  0  0
  160.8370  207.6130  154.5560 C   0  0  0  0  0  1  0  0  0  0  0  0
  160.5900  208.1330  153.1490 C   0  0  1  0  0  3  0  0  0  0  0  0
  161.1350  210.2750  154.3380 C   0  0  0  0  0  2  0  0  0  0  0  0
  160.1120  210.3910  152.2720 N   0  0  0  0  0  2  0  0  0  0  0  0
  161.0830  209.5850  153.0050 C   0  0  2  0  0  3  0  0  0  0  0  0
  160.2930  211.2890  154.2600 C   0  0  0  0  0  0  0  0  0  0  0  0
  159.6740  211.3430  152.9860 N   0  0  0  0  0  0  0  0  0  0  0  0
  159.0390  213.0940  155.4080 C   0  0  0  0  0  3  0  0  0  0  0  0
  160.0640  212.2450  155.3520 C   0  0  0  0  0  3  0  0  0  0  0  0
  158.0640  213.1410  154.4170 O   0  0  0  0  0  0  0  0  0  0  0  0
  156.4430  212.7140  154.7740 P   0  0  0  0  0  0  0  0  0  0  0  0
  156.0970  213.1770  156.1710 O   0  0  0  0  0  1  0  0  0  0  0  0
  156.2580  211.0360  154.6720 O   0  0  0  0  0  1  0  0  0  0  0  0
  155.4120  213.4620  153.6620 O   0  0  0  0  0  0  0  0  0  0  0  0
  1 22  1  1  0  0  0
  2  7  1  0  0  0  0
  3  2  2  0  0  0  0
  3  5  1  0  0  0  0
  4  6  1  0  0  0  0
  4  1  1  0  0  0  0
  5  4  2  0  0  0  0
  7  6  2  0  0  0  0
  8  9  2  0  0  0  0
  9 11  1  0  0  0  0
 10  2  1  0  0  0  0
 10  9  1  0  0  0  0
 12 14  1  0  0  0  0
 12  1  1  0  0  0  0
 13 12  2  0  0  0  0
 15 16  1  0  0  0  0
 15 14  2  0  0  0  0
 16 17  1  0  0  0  0
 19 17  1  0  0  0  0
 19 18  1  0  0  0  0
 20 19  2  0  0  0  0
 21 18  1  0  0  0  0
 23 22  1  6  0  0  0
 23 25  1  0  0  0  0
 23 27  1  0  0  0  0
 24 25  2  0  0  0  0
 27 26  1  1  0  0  0
 29 32  1  0  0  0  0
 29 30  1  0  0  0  0
 30 27  1  1  0  0  0
 30 28  1  0  0  0  0
 31 28  1  0  0  0  0
 31 34  1  0  0  0  0
 32 31  2  0  0  0  0
 34 33  2  0  0  0  0
 35 36  1  0  0  0  0
 35 33  1  0  0  0  0
 36 37  1  0  0  0  0
 38 36  1  0  0  0  0
 39 36  2  0  0  0  0
M  END
>  <MODEL>
9

>  <REMARK>
 VINA RESULT:      -6.4      1.914      2.460
  Name = 
  15 active torsions:
  status: ('A' for Active; 'I' for Inactive)
    1  A    between atoms: C_1  and  O_5
    2  A    between atoms: C_2  and  N_21
    3  A    between atoms: O_5  and  P_7
    4  A    between atoms: C_12  and  C_35
    5  A    between atoms: C_13  and  C_15
    6  A    between atoms: C_15  and  C_35
    7  A    between atoms: C_16  and  C_25
    8  A    between atoms: C_16  and  C_37
    9  A    between atoms: C_17  and  C_19
   10  A    between atoms: C_18  and  C_31
   11  A    between atoms: C_18  and  C_35
   12  A    between atoms: C_22  and  C_25
   13  A    between atoms: C_23  and  C_31
   14  A    between atoms: N_28  and  C_32
   15  A    between atoms: C_31  and  C_32
                            x       y       z     vdW  Elec       q    Type
                         _______ _______ _______ _____ _____    ______ ____

>  <TORSDO>
F 15

$$$$
