=
 OpenBabel11052409443D

 31 34  0  0  1  0  0  0  0  0999 V2000
  161.4890  208.8980  149.3010 C   0  0  0  0  0  1  0  0  0  0  0  0
  161.2050  205.0950  153.6760 C   0  0  0  0  0  1  0  0  0  0  0  0
  159.2380  208.3090  155.8040 O   0  0  0  0  0  1  0  0  0  0  0  0
  160.5180  208.5330  155.2940 C   0  0  2  0  0  0  0  0  0  0  0  0
  160.5810  209.4600  154.2500 C   0  0  0  0  0  0  0  0  0  0  0  0
  161.4020  207.9700  150.4660 C   0  0  0  0  0  0  0  0  0  0  0  0
  161.7530  204.3360  150.9320 N   0  0  0  0  0  1  0  0  0  0  0  0
  161.2700  206.0990  152.5690 C   0  0  0  0  0  0  0  0  0  0  0  0
  161.1270  208.4430  151.7590 C   0  0  0  0  0  0  0  0  0  0  0  0
  160.9160  209.8750  152.0080 C   0  0  0  0  0  3  0  0  0  0  0  0
  160.7940  208.0300  154.0190 C   0  0  0  0  0  0  0  0  0  0  0  0
  160.6240  210.4350  153.3000 C   0  0  0  0  0  0  0  0  0  0  0  0
  161.5960  206.6370  150.2550 N   0  0  0  0  0  0  0  0  0  0  0  0
  161.0670  207.4580  152.8150 C   0  0  0  0  0  0  0  0  0  0  0  0
  161.5370  205.7080  151.2490 C   0  0  0  0  0  0  0  0  0  0  0  0
  156.7420  212.2890  153.8850 C   0  0  1  0  0  3  0  0  0  0  0  0
  158.3270  212.5080  151.9320 C   0  0  0  0  0  2  0  0  0  0  0  0
  156.6210  214.2560  152.3490 C   0  0  0  0  0  1  0  0  0  0  0  0
  159.6450  212.3040  154.7170 N   0  0  0  0  0  2  0  0  0  0  0  0
  158.7440  211.2590  155.2150 C   0  0  2  0  0  3  0  0  0  0  0  0
  160.4530  211.9100  153.5490 C   0  0  2  0  0  3  0  0  0  0  0  0
  157.5220  211.0340  154.3110 C   0  0  0  0  0  2  0  0  0  0  0  0
  156.2370  212.9580  155.0010 O   0  0  0  0  0  1  0  0  0  0  0  0
  158.3190  211.5780  156.6350 C   0  0  0  0  0  1  0  0  0  0  0  0
  160.0960  212.9200  152.0590 S   0  0  0  0  0  0  0  0  0  0  0  0
  157.5460  213.2490  153.0050 C   0  0  1  0  0  3  0  0  0  0  0  0
  161.6230  208.6080  156.2390 N   0  0  0  0  0  2  0  0  0  0  0  0
  161.3340  209.6610  157.2020 C   0  0  0  0  0  2  0  0  0  0  0  0
  162.1890  210.8450  156.9210 C   0  0  0  0  0  0  0  0  0  0  0  0
  161.7850  212.0230  157.2610 N   0  0  0  0  0  1  0  0  0  0  0  0
  163.3620  210.7010  156.1260 N   0  0  0  0  0  2  0  0  0  0  0  0
  1  6  1  0  0  0  0
  4  3  1  1  0  0  0
  4 27  1  0  0  0  0
  5  4  1  0  0  0  0
  6  9  1  0  0  0  0
  7 15  1  0  0  0  0
  8 14  1  0  0  0  0
  8  2  1  0  0  0  0
  9 10  2  0  0  0  0
  9 14  1  0  0  0  0
 10 12  1  0  0  0  0
 11  5  1  0  0  0  0
 11  4  1  0  0  0  0
 12  5  2  0  0  0  0
 13  6  2  0  0  0  0
 13 15  1  0  0  0  0
 14 11  2  0  0  0  0
 15  8  2  0  0  0  0
 16 22  1  0  0  0  0
 16 23  1  1  0  0  0
 17 25  1  0  0  0  0
 17 26  1  0  0  0  0
 19 20  1  0  0  0  0
 20 24  1  1  0  0  0
 21 12  1  6  0  0  0
 21 19  1  0  0  0  0
 22 20  1  0  0  0  0
 25 21  1  0  0  0  0
 26 18  1  6  0  0  0
 26 16  1  0  0  0  0
 27 28  1  0  0  0  0
 29 28  1  0  0  0  0
 29 30  1  0  0  0  0
 31 29  2  0  0  0  0
M  END
>  <MODEL>
1

>  <REMARK>
 VINA RESULT:      -6.2      0.000      0.000
  Name = 
  4 active torsions:
  status: ('A' for Active; 'I' for Inactive)
    1  A    between atoms: C_5  and  N_14
    2  A    between atoms: C_7  and  C_31
    3  A    between atoms: N_14  and  C_31
    4  A    between atoms: C_19  and  C_25
                            x       y       z     vdW  Elec       q    Type
                         _______ _______ _______ _____ _____    ______ ____

>  <TORSDO>
F 4

$$$$
=
 OpenBabel11052409443D

 31 34  0  0  1  0  0  0  0  0999 V2000
  162.2230  208.5620  148.7680 C   0  0  0  0  0  1  0  0  0  0  0  0
  160.6170  207.3890  154.2200 C   0  0  0  0  0  1  0  0  0  0  0  0
  158.6200  211.2230  154.0240 O   0  0  0  0  0  1  0  0  0  0  0  0
  159.9940  211.1750  153.7860 C   0  0  2  0  0  0  0  0  0  0  0  0
  160.3740  211.4720  152.4750 C   0  0  0  0  0  0  0  0  0  0  0  0
  161.7940  208.3240  150.1760 C   0  0  0  0  0  0  0  0  0  0  0  0
  161.6350  205.3860  152.3880 N   0  0  0  0  0  1  0  0  0  0  0  0
  161.0210  207.7230  152.8190 C   0  0  0  0  0  0  0  0  0  0  0  0
  161.3100  209.3680  150.9800 C   0  0  0  0  0  0  0  0  0  0  0  0
  161.2120  210.7380  150.4580 C   0  0  0  0  0  3  0  0  0  0  0  0
  160.4720  210.1140  153.0130 C   0  0  0  0  0  0  0  0  0  0  0  0
  160.7220  211.8560  151.2160 C   0  0  0  0  0  0  0  0  0  0  0  0
  161.8780  207.0590  150.6790 N   0  0  0  0  0  0  0  0  0  0  0  0
  160.9230  209.0260  152.3300 C   0  0  0  0  0  0  0  0  0  0  0  0
  161.5120  206.7360  151.9510 C   0  0  0  0  0  0  0  0  0  0  0  0
  157.3230  213.4050  149.0020 C   0  0  1  0  0  3  0  0  0  0  0  0
  159.6470  212.8720  148.1730 C   0  0  0  0  0  2  0  0  0  0  0  0
  158.2130  214.4530  146.9160 C   0  0  0  0  0  1  0  0  0  0  0  0
  159.4750  214.0630  151.0160 N   0  0  0  0  0  2  0  0  0  0  0  0
  158.3070  213.2730  151.4210 C   0  0  2  0  0  3  0  0  0  0  0  0
  160.6670  213.2640  150.6820 C   0  0  2  0  0  3  0  0  0  0  0  0
  157.6270  212.5540  150.2450 C   0  0  0  0  0  2  0  0  0  0  0  0
  156.4580  214.4530  149.3220 O   0  0  0  0  0  1  0  0  0  0  0  0
  157.3210  214.1530  152.1640 C   0  0  0  0  0  1  0  0  0  0  0  0
  161.1930  213.4600  148.9350 S   0  0  0  0  0  0  0  0  0  0  0  0
  158.5720  213.9390  148.2960 C   0  0  1  0  0  3  0  0  0  0  0  0
  160.8810  211.7100  154.8110 N   0  0  0  0  0  2  0  0  0  0  0  0
  160.7320  210.9030  156.0140 C   0  0  0  0  0  2  0  0  0  0  0  0
  162.0290  210.2550  156.3460 C   0  0  0  0  0  0  0  0  0  0  0  0
  163.1210  210.7000  155.8230 N   0  0  0  0  0  2  0  0  0  0  0  0
  162.0450  209.0430  157.0930 N   0  0  0  0  0  1  0  0  0  0  0  0
  1  6  1  0  0  0  0
  4  3  1  1  0  0  0
  4 27  1  0  0  0  0
  5 11  1  0  0  0  0
  5  4  1  0  0  0  0
  6 13  2  0  0  0  0
  6  9  1  0  0  0  0
  8  2  1  0  0  0  0
  9 14  1  0  0  0  0
 10  9  2  0  0  0  0
 10 12  1  0  0  0  0
 11  4  1  0  0  0  0
 12  5  2  0  0  0  0
 13 15  1  0  0  0  0
 14  8  1  0  0  0  0
 14 11  2  0  0  0  0
 15  7  1  0  0  0  0
 15  8  2  0  0  0  0
 16 23  1  1  0  0  0
 16 22  1  0  0  0  0
 17 26  1  0  0  0  0
 17 25  1  0  0  0  0
 19 20  1  0  0  0  0
 20 24  1  6  0  0  0
 21 19  1  0  0  0  0
 21 12  1  6  0  0  0
 22 20  1  0  0  0  0
 25 21  1  0  0  0  0
 26 18  1  6  0  0  0
 26 16  1  0  0  0  0
 27 28  1  0  0  0  0
 28 29  1  0  0  0  0
 29 31  1  0  0  0  0
 30 29  2  0  0  0  0
M  END
>  <MODEL>
2

>  <REMARK>
 VINA RESULT:      -5.5      2.415      3.241
  Name = 
  4 active torsions:
  status: ('A' for Active; 'I' for Inactive)
    1  A    between atoms: C_5  and  N_14
    2  A    between atoms: C_7  and  C_31
    3  A    between atoms: N_14  and  C_31
    4  A    between atoms: C_19  and  C_25
                            x       y       z     vdW  Elec       q    Type
                         _______ _______ _______ _____ _____    ______ ____

>  <TORSDO>
F 4

$$$$
=
 OpenBabel11052409443D

 31 34  0  0  1  0  0  0  0  0999 V2000
  159.5430  210.2640  154.6950 C   0  0  0  0  0  1  0  0  0  0  0  0
  159.7000  213.9450  150.2120 C   0  0  0  0  0  1  0  0  0  0  0  0
  161.2250  210.5510  148.0030 O   0  0  0  0  0  1  0  0  0  0  0  0
  161.9170  210.9700  149.1410 C   0  0  2  0  0  0  0  0  0  0  0  0
  161.8860  210.0730  150.2110 C   0  0  0  0  0  0  0  0  0  0  0  0
  159.6220  211.1670  153.5110 C   0  0  0  0  0  0  0  0  0  0  0  0
  158.1960  214.4460  152.6380 N   0  0  0  0  0  1  0  0  0  0  0  0
  159.6780  212.9750  151.3500 C   0  0  0  0  0  0  0  0  0  0  0  0
  160.3800  210.8260  152.3790 C   0  0  0  0  0  0  0  0  0  0  0  0
  161.1260  209.5620  152.3260 C   0  0  0  0  0  3  0  0  0  0  0  0
  161.1540  211.3390  150.2510 C   0  0  0  0  0  0  0  0  0  0  0  0
  161.9180  209.1400  151.2030 C   0  0  0  0  0  0  0  0  0  0  0  0
  158.9370  212.3460  153.5430 N   0  0  0  0  0  0  0  0  0  0  0  0
  160.3890  211.7750  151.2900 C   0  0  0  0  0  0  0  0  0  0  0  0
  158.9430  213.2400  152.5150 C   0  0  0  0  0  0  0  0  0  0  0  0
  160.3850  205.4470  149.5090 C   0  0  1  0  0  3  0  0  0  0  0  0
  160.8330  206.0180  151.9270 C   0  0  0  0  0  2  0  0  0  0  0  0
  160.7400  203.6500  151.2070 C   0  0  0  0  0  1  0  0  0  0  0  0
  162.8360  207.1720  149.8800 N   0  0  0  0  0  2  0  0  0  0  0  0
  161.8180  207.5460  148.8930 C   0  0  2  0  0  3  0  0  0  0  0  0
  162.7130  207.8600  151.1780 C   0  0  2  0  0  3  0  0  0  0  0  0
  160.4340  206.9520  149.1980 C   0  0  0  0  0  2  0  0  0  0  0  0
  160.8570  204.7050  148.4250 O   0  0  0  0  0  1  0  0  0  0  0  0
  162.2810  207.1610  147.5020 C   0  0  0  0  0  1  0  0  0  0  0  0
  162.3890  206.7100  152.5700 S   0  0  0  0  0  0  0  0  0  0  0  0
  161.1270  205.0550  150.7880 C   0  0  1  0  0  3  0  0  0  0  0  0
  163.1940  211.6440  148.9510 N   0  0  0  0  0  2  0  0  0  0  0  0
  163.2450  212.1570  147.5890 C   0  0  0  0  0  2  0  0  0  0  0  0
  162.5710  213.4820  147.5270 C   0  0  0  0  0  0  0  0  0  0  0  0
  162.9980  214.4530  148.2620 N   0  0  0  0  0  1  0  0  0  0  0  0
  161.3580  213.6270  146.7970 N   0  0  0  0  0  2  0  0  0  0  0  0
  2  8  1  0  0  0  0
  4  3  1  6  0  0  0
  4  5  1  0  0  0  0
  4 11  1  0  0  0  0
  5 11  2  0  0  0  0
  5 12  1  0  0  0  0
  6 13  1  0  0  0  0
  6  1  1  0  0  0  0
  8 15  1  0  0  0  0
  9  6  2  0  0  0  0
 10  9  1  0  0  0  0
 11 14  1  0  0  0  0
 12 10  2  0  0  0  0
 14  8  2  0  0  0  0
 14  9  1  0  0  0  0
 15  7  1  0  0  0  0
 15 13  2  0  0  0  0
 16 23  1  6  0  0  0
 16 26  1  0  0  0  0
 17 25  1  0  0  0  0
 19 21  1  0  0  0  0
 20 24  1  6  0  0  0
 20 22  1  0  0  0  0
 20 19  1  0  0  0  0
 21 12  1  6  0  0  0
 21 25  1  0  0  0  0
 22 16  1  0  0  0  0
 26 18  1  1  0  0  0
 26 17  1  0  0  0  0
 27  4  1  0  0  0  0
 28 27  1  0  0  0  0
 29 28  1  0  0  0  0
 29 30  1  0  0  0  0
 31 29  2  0  0  0  0
M  END
>  <MODEL>
3

>  <REMARK>
 VINA RESULT:      -5.2      3.797      7.871
  Name = 
  4 active torsions:
  status: ('A' for Active; 'I' for Inactive)
    1  A    between atoms: C_5  and  N_14
    2  A    between atoms: C_7  and  C_31
    3  A    between atoms: N_14  and  C_31
    4  A    between atoms: C_19  and  C_25
                            x       y       z     vdW  Elec       q    Type
                         _______ _______ _______ _____ _____    ______ ____

>  <TORSDO>
F 4

$$$$
=
 OpenBabel11052409443D

 31 34  0  0  1  0  0  0  0  0999 V2000
  162.3220  208.9390  148.8890 C   0  0  0  0  0  1  0  0  0  0  0  0
  160.5760  207.8990  154.3250 C   0  0  0  0  0  1  0  0  0  0  0  0
  158.3720  211.5980  153.8910 O   0  0  0  0  0  1  0  0  0  0  0  0
  159.7550  211.6210  153.7050 C   0  0  2  0  0  0  0  0  0  0  0  0
  160.1680  211.8860  152.3970 C   0  0  0  0  0  0  0  0  0  0  0  0
  161.8530  208.7340  150.2900 C   0  0  0  0  0  0  0  0  0  0  0  0
  161.7770  205.8860  152.6200 N   0  0  0  0  0  1  0  0  0  0  0  0
  161.0150  208.1980  152.9260 C   0  0  0  0  0  0  0  0  0  0  0  0
  161.2800  209.7800  151.0300 C   0  0  0  0  0  0  0  0  0  0  0  0
  161.1240  211.1190  150.4450 C   0  0  0  0  0  3  0  0  0  0  0  0
  160.3220  210.5590  152.9960 C   0  0  0  0  0  0  0  0  0  0  0  0
  160.5420  212.2370  151.1360 C   0  0  0  0  0  0  0  0  0  0  0  0
  161.9900  207.4990  150.8500 N   0  0  0  0  0  0  0  0  0  0  0  0
  160.8610  209.4720  152.3790 C   0  0  0  0  0  0  0  0  0  0  0  0
  161.5940  207.2070  152.1210 C   0  0  0  0  0  0  0  0  0  0  0  0
  157.3080  213.3930  148.4780 C   0  0  1  0  0  3  0  0  0  0  0  0
  159.7530  213.0510  147.9480 C   0  0  0  0  0  2  0  0  0  0  0  0
  158.3450  214.4520  146.4660 C   0  0  0  0  0  1  0  0  0  0  0  0
  159.1370  214.3110  150.6990 N   0  0  0  0  0  2  0  0  0  0  0  0
  158.0040  213.4300  150.9980 C   0  0  2  0  0  3  0  0  0  0  0  0
  160.4270  213.6160  150.5400 C   0  0  2  0  0  3  0  0  0  0  0  0
  157.5350  212.6130  149.7830 C   0  0  0  0  0  2  0  0  0  0  0  0
  156.3220  214.3660  148.6500 O   0  0  0  0  0  1  0  0  0  0  0  0
  156.8620  214.2380  151.5830 C   0  0  0  0  0  1  0  0  0  0  0  0
  161.1380  213.8040  148.8590 S   0  0  0  0  0  0  0  0  0  0  0  0
  158.5800  214.0180  147.9000 C   0  0  1  0  0  3  0  0  0  0  0  0
  160.5690  212.2490  154.7370 N   0  0  0  0  0  2  0  0  0  0  0  0
  160.9790  211.2240  155.6860 C   0  0  0  0  0  2  0  0  0  0  0  0
  159.9730  211.1210  156.7770 C   0  0  0  0  0  0  0  0  0  0  0  0
  159.5910  209.9590  157.1900 N   0  0  0  0  0  2  0  0  0  0  0  0
  159.3060  212.2900  157.2400 N   0  0  0  0  0  1  0  0  0  0  0  0
  1  6  1  0  0  0  0
  4  3  1  1  0  0  0
  4 27  1  0  0  0  0
  5 11  1  0  0  0  0
  5  4  1  0  0  0  0
  6 13  2  0  0  0  0
  6  9  1  0  0  0  0
  8  2  1  0  0  0  0
  9 14  1  0  0  0  0
 10  9  2  0  0  0  0
 10 12  1  0  0  0  0
 11  4  1  0  0  0  0
 12  5  2  0  0  0  0
 13 15  1  0  0  0  0
 14  8  1  0  0  0  0
 14 11  2  0  0  0  0
 15  7  1  0  0  0  0
 15  8  2  0  0  0  0
 16 23  1  1  0  0  0
 16 22  1  0  0  0  0
 17 25  1  0  0  0  0
 19 20  1  0  0  0  0
 20 24  1  6  0  0  0
 21 19  1  0  0  0  0
 21 12  1  6  0  0  0
 22 20  1  0  0  0  0
 25 21  1  0  0  0  0
 26 18  1  6  0  0  0
 26 17  1  0  0  0  0
 26 16  1  0  0  0  0
 27 28  1  0  0  0  0
 28 29  1  0  0  0  0
 29 30  2  0  0  0  0
 29 31  1  0  0  0  0
M  END
>  <MODEL>
4

>  <REMARK>
 VINA RESULT:      -5.0      2.694      3.706
  Name = 
  4 active torsions:
  status: ('A' for Active; 'I' for Inactive)
    1  A    between atoms: C_5  and  N_14
    2  A    between atoms: C_7  and  C_31
    3  A    between atoms: N_14  and  C_31
    4  A    between atoms: C_19  and  C_25
                            x       y       z     vdW  Elec       q    Type
                         _______ _______ _______ _____ _____    ______ ____

>  <TORSDO>
F 4

$$$$
=
 OpenBabel11052409443D

 31 34  0  0  1  0  0  0  0  0999 V2000
  161.1780  212.5830  148.8410 C   0  0  0  0  0  1  0  0  0  0  0  0
  155.9100  214.2130  150.6480 C   0  0  0  0  0  1  0  0  0  0  0  0
  157.6560  214.0280  154.6040 O   0  0  0  0  0  1  0  0  0  0  0  0
  157.6830  212.8800  153.8090 C   0  0  2  0  0  0  0  0  0  0  0  0
  158.9560  212.4860  153.3900 C   0  0  0  0  0  0  0  0  0  0  0  0
  159.8410  212.9840  149.3670 C   0  0  0  0  0  0  0  0  0  0  0  0
  156.8020  214.4530  147.9010 N   0  0  0  0  0  1  0  0  0  0  0  0
  157.2760  213.7850  150.2140 C   0  0  0  0  0  0  0  0  0  0  0  0
  159.5100  212.8270  150.7220 C   0  0  0  0  0  0  0  0  0  0  0  0
  160.4760  212.2580  151.6720 C   0  0  0  0  0  3  0  0  0  0  0  0
  157.9800  213.0490  152.4540 C   0  0  0  0  0  0  0  0  0  0  0  0
  160.2150  212.0730  153.0740 C   0  0  0  0  0  0  0  0  0  0  0  0
  158.9320  213.5130  148.5000 N   0  0  0  0  0  0  0  0  0  0  0  0
  158.1870  213.2470  151.1230 C   0  0  0  0  0  0  0  0  0  0  0  0
  157.6840  213.9110  148.8780 C   0  0  0  0  0  0  0  0  0  0  0  0
  160.5100  207.7840  153.6810 C   0  0  1  0  0  3  0  0  0  0  0  0
  159.6550  209.5550  155.2630 C   0  0  0  0  0  2  0  0  0  0  0  0
  160.4410  207.3780  156.1450 C   0  0  0  0  0  1  0  0  0  0  0  0
  162.0550  210.3720  153.5010 N   0  0  0  0  0  2  0  0  0  0  0  0
  161.5500  209.7330  152.2820 C   0  0  2  0  0  3  0  0  0  0  0  0
  161.1980  211.4490  154.0290 C   0  0  2  0  0  3  0  0  0  0  0  0
  160.3550  208.8020  152.5390 C   0  0  0  0  0  2  0  0  0  0  0  0
  161.5810  206.9240  153.4310 O   0  0  0  0  0  1  0  0  0  0  0  0
  162.6740  208.9960  151.5810 C   0  0  0  0  0  1  0  0  0  0  0  0
  160.5400  211.0840  155.7030 S   0  0  0  0  0  0  0  0  0  0  0  0
  160.6480  208.4210  155.0650 C   0  0  1  0  0  3  0  0  0  0  0  0
  156.7960  211.7830  154.1690 N   0  0  0  0  0  2  0  0  0  0  0  0
  155.7760  212.2940  155.0730 C   0  0  0  0  0  2  0  0  0  0  0  0
  155.8890  211.6150  156.3920 C   0  0  0  0  0  0  0  0  0  0  0  0
  154.8540  211.0470  156.9130 N   0  0  0  0  0  2  0  0  0  0  0  0
  157.0840  211.7440  157.1560 N   0  0  0  0  0  1  0  0  0  0  0  0
  1  6  1  0  0  0  0
  4 27  1  0  0  0  0
  4  3  1  1  0  0  0
  5  4  1  0  0  0  0
  6  9  1  0  0  0  0
  7 15  1  0  0  0  0
  8  2  1  0  0  0  0
  8 14  1  0  0  0  0
  9 14  2  0  0  0  0
  9 10  1  0  0  0  0
 10 12  2  0  0  0  0
 11  5  2  0  0  0  0
 11  4  1  0  0  0  0
 12  5  1  0  0  0  0
 13 15  1  0  0  0  0
 13  6  2  0  0  0  0
 14 11  1  0  0  0  0
 15  8  2  0  0  0  0
 16 23  1  6  0  0  0
 16 26  1  0  0  0  0
 17 25  1  0  0  0  0
 19 21  1  0  0  0  0
 20 24  1  1  0  0  0
 20 22  1  0  0  0  0
 20 19  1  0  0  0  0
 21 12  1  6  0  0  0
 21 25  1  0  0  0  0
 22 16  1  0  0  0  0
 26 17  1  0  0  0  0
 26 18  1  1  0  0  0
 27 28  1  0  0  0  0
 28 29  1  0  0  0  0
 29 30  2  0  0  0  0
 29 31  1  0  0  0  0
M  END
>  <MODEL>
5

>  <REMARK>
 VINA RESULT:      -4.9      2.929      6.422
  Name = 
  4 active torsions:
  status: ('A' for Active; 'I' for Inactive)
    1  A    between atoms: C_5  and  N_14
    2  A    between atoms: C_7  and  C_31
    3  A    between atoms: N_14  and  C_31
    4  A    between atoms: C_19  and  C_25
                            x       y       z     vdW  Elec       q    Type
                         _______ _______ _______ _____ _____    ______ ____

>  <TORSDO>
F 4

$$$$
=
 OpenBabel11052409443D

 31 34  0  0  1  0  0  0  0  0999 V2000
  161.7920  211.4200  148.2540 C   0  0  0  0  0  1  0  0  0  0  0  0
  159.4520  212.7230  153.4020 C   0  0  0  0  0  1  0  0  0  0  0  0
  162.0460  209.6070  154.9130 O   0  0  0  0  0  1  0  0  0  0  0  0
  161.1320  209.2830  153.9090 C   0  0  2  0  0  0  0  0  0  0  0  0
  161.7030  208.9570  152.6770 C   0  0  0  0  0  0  0  0  0  0  0  0
  161.2140  211.6990  149.6010 C   0  0  0  0  0  0  0  0  0  0  0  0
  159.2750  214.4530  151.0830 N   0  0  0  0  0  1  0  0  0  0  0  0
  160.0670  212.3600  152.0880 C   0  0  0  0  0  0  0  0  0  0  0  0
  161.3610  210.7910  150.6620 C   0  0  0  0  0  0  0  0  0  0  0  0
  162.0910  209.5290  150.4780 C   0  0  0  0  0  3  0  0  0  0  0  0
  160.9670  210.2080  152.8740 C   0  0  0  0  0  0  0  0  0  0  0  0
  162.2890  208.5540  151.5150 C   0  0  0  0  0  0  0  0  0  0  0  0
  160.5320  212.8640  149.7900 N   0  0  0  0  0  0  0  0  0  0  0  0
  160.7600  211.1600  151.9230 C   0  0  0  0  0  0  0  0  0  0  0  0
  159.9680  213.2130  150.9800 C   0  0  0  0  0  0  0  0  0  0  0  0
  160.4450  205.1630  149.5280 C   0  0  1  0  0  3  0  0  0  0  0  0
  161.0590  205.4340  151.9610 C   0  0  0  0  0  2  0  0  0  0  0  0
  160.7840  203.1700  150.9950 C   0  0  0  0  0  1  0  0  0  0  0  0
  163.0120  206.7000  149.9330 N   0  0  0  0  0  2  0  0  0  0  0  0
  161.9660  207.2370  149.0570 C   0  0  2  0  0  3  0  0  0  0  0  0
  163.0030  207.2450  151.3020 C   0  0  2  0  0  3  0  0  0  0  0  0
  160.5670  206.6880  149.3800 C   0  0  0  0  0  2  0  0  0  0  0  0
  160.8110  204.5230  148.3420 O   0  0  0  0  0  1  0  0  0  0  0  0
  162.3270  206.9860  147.6060 C   0  0  0  0  0  1  0  0  0  0  0  0
  162.6880  205.9650  152.5790 S   0  0  0  0  0  0  0  0  0  0  0  0
  161.2310  204.5900  150.7090 C   0  0  1  0  0  3  0  0  0  0  0  0
  159.9770  208.4750  154.2760 N   0  0  0  0  0  2  0  0  0  0  0  0
  159.7930  208.5630  155.7170 C   0  0  0  0  0  2  0  0  0  0  0  0
  159.2250  209.8930  156.0690 C   0  0  0  0  0  0  0  0  0  0  0  0
  159.6840  210.5360  157.0890 N   0  0  0  0  0  1  0  0  0  0  0  0
  158.0670  210.3700  155.3930 N   0  0  0  0  0  2  0  0  0  0  0  0
  1  6  1  0  0  0  0
  4 27  1  0  0  0  0
  4  3  1  1  0  0  0
  5 11  1  0  0  0  0
  5  4  1  0  0  0  0
  6 13  2  0  0  0  0
  6  9  1  0  0  0  0
  8  2  1  0  0  0  0
  9 14  1  0  0  0  0
 10  9  2  0  0  0  0
 10 12  1  0  0  0  0
 11  4  1  0  0  0  0
 12  5  2  0  0  0  0
 13 15  1  0  0  0  0
 14  8  1  0  0  0  0
 14 11  2  0  0  0  0
 15  7  1  0  0  0  0
 15  8  2  0  0  0  0
 16 23  1  6  0  0  0
 16 26  1  0  0  0  0
 17 25  1  0  0  0  0
 19 21  1  0  0  0  0
 20 24  1  6  0  0  0
 20 22  1  0  0  0  0
 20 19  1  0  0  0  0
 21 12  1  6  0  0  0
 21 25  1  0  0  0  0
 22 16  1  0  0  0  0
 26 18  1  1  0  0  0
 26 17  1  0  0  0  0
 27 28  1  0  0  0  0
 28 29  1  0  0  0  0
 29 30  1  0  0  0  0
 31 29  2  0  0  0  0
M  END
>  <MODEL>
6

>  <REMARK>
 VINA RESULT:      -4.8      2.966      6.602
  Name = 
  4 active torsions:
  status: ('A' for Active; 'I' for Inactive)
    1  A    between atoms: C_5  and  N_14
    2  A    between atoms: C_7  and  C_31
    3  A    between atoms: N_14  and  C_31
    4  A    between atoms: C_19  and  C_25
                            x       y       z     vdW  Elec       q    Type
                         _______ _______ _______ _____ _____    ______ ____

>  <TORSDO>
F 4

$$$$
=
 OpenBabel11052409443D

 31 34  0  0  1  0  0  0  0  0999 V2000
  162.2380  207.3140  147.8170 C   0  0  0  0  0  1  0  0  0  0  0  0
  160.6990  206.6720  153.3760 C   0  0  0  0  0  1  0  0  0  0  0  0
  159.7040  210.8780  153.1620 O   0  0  0  0  0  1  0  0  0  0  0  0
  161.0090  210.4860  152.8580 C   0  0  2  0  0  0  0  0  0  0  0  0
  161.3760  210.6570  151.5210 C   0  0  0  0  0  0  0  0  0  0  0  0
  161.8430  207.2140  149.2520 C   0  0  0  0  0  0  0  0  0  0  0  0
  161.0860  204.4470  151.5580 N   0  0  0  0  0  1  0  0  0  0  0  0
  161.0950  206.8700  151.9470 C   0  0  0  0  0  0  0  0  0  0  0  0
  161.6770  208.3600  150.0470 C   0  0  0  0  0  0  0  0  0  0  0  0
  161.8930  209.7010  149.4880 C   0  0  0  0  0  3  0  0  0  0  0  0
  161.1650  209.3260  152.0940 C   0  0  0  0  0  0  0  0  0  0  0  0
  161.7370  210.9200  150.2340 C   0  0  0  0  0  0  0  0  0  0  0  0
  161.6400  205.9770  149.7890 N   0  0  0  0  0  0  0  0  0  0  0  0
  161.2950  208.1480  151.4240 C   0  0  0  0  0  0  0  0  0  0  0  0
  161.2770  205.7770  151.0860 C   0  0  0  0  0  0  0  0  0  0  0  0
  158.7130  213.2190  148.1300 C   0  0  1  0  0  3  0  0  0  0  0  0
  160.7900  212.1130  147.2140 C   0  0  0  0  0  2  0  0  0  0  0  0
  159.7250  213.9760  145.9750 C   0  0  0  0  0  1  0  0  0  0  0  0
  161.0610  213.3620  150.0240 N   0  0  0  0  0  2  0  0  0  0  0  0
  159.7580  212.8920  150.5050 C   0  0  2  0  0  3  0  0  0  0  0  0
  162.0020  212.2880  149.6610 C   0  0  2  0  0  3  0  0  0  0  0  0
  158.8620  212.3410  149.3840 C   0  0  0  0  0  2  0  0  0  0  0  0
  158.1500  214.4530  148.4570 O   0  0  0  0  0  1  0  0  0  0  0  0
  159.0580  214.0020  151.2650 C   0  0  0  0  0  1  0  0  0  0  0  0
  162.4700  212.3150  147.8870 S   0  0  0  0  0  0  0  0  0  0  0  0
  160.0170  213.4150  147.3530 C   0  0  1  0  0  3  0  0  0  0  0  0
  162.0550  210.8010  153.8200 N   0  0  0  0  0  2  0  0  0  0  0  0
  161.4510  210.9020  155.1410 C   0  0  0  0  0  2  0  0  0  0  0  0
  162.2720  210.1490  156.1260 C   0  0  0  0  0  0  0  0  0  0  0  0
  161.9510  208.9380  156.4350 N   0  0  0  0  0  2  0  0  0  0  0  0
  163.2970  210.8170  156.8540 N   0  0  0  0  0  1  0  0  0  0  0  0
  1  6  1  0  0  0  0
  4  3  1  1  0  0  0
  4 27  1  0  0  0  0
  5 11  1  0  0  0  0
  5  4  1  0  0  0  0
  6 13  2  0  0  0  0
  6  9  1  0  0  0  0
  8  2  1  0  0  0  0
  9 14  1  0  0  0  0
 10  9  2  0  0  0  0
 10 12  1  0  0  0  0
 11  4  1  0  0  0  0
 12  5  2  0  0  0  0
 13 15  1  0  0  0  0
 14  8  1  0  0  0  0
 14 11  2  0  0  0  0
 15  7  1  0  0  0  0
 15  8  2  0  0  0  0
 16 23  1  1  0  0  0
 16 22  1  0  0  0  0
 17 26  1  0  0  0  0
 17 25  1  0  0  0  0
 19 20  1  0  0  0  0
 20 24  1  6  0  0  0
 21 19  1  0  0  0  0
 21 12  1  6  0  0  0
 22 20  1  0  0  0  0
 25 21  1  0  0  0  0
 26 18  1  6  0  0  0
 26 16  1  0  0  0  0
 27 28  1  0  0  0  0
 28 29  1  0  0  0  0
 29 30  2  0  0  0  0
 29 31  1  0  0  0  0
M  END
>  <MODEL>
7

>  <REMARK>
 VINA RESULT:      -4.8      2.916      3.864
  Name = 
  4 active torsions:
  status: ('A' for Active; 'I' for Inactive)
    1  A    between atoms: C_5  and  N_14
    2  A    between atoms: C_7  and  C_31
    3  A    between atoms: N_14  and  C_31
    4  A    between atoms: C_19  and  C_25
                            x       y       z     vdW  Elec       q    Type
                         _______ _______ _______ _____ _____    ______ ____

>  <TORSDO>
F 4

$$$$
=
 OpenBabel11052409443D

 31 34  0  0  1  0  0  0  0  0999 V2000
  161.1140  206.2150  154.6570 C   0  0  0  0  0  1  0  0  0  0  0  0
  161.2050  203.6890  149.4340 C   0  0  0  0  0  1  0  0  0  0  0  0
  163.5500  207.1320  148.2610 O   0  0  0  0  0  1  0  0  0  0  0  0
  162.2790  207.3440  148.7960 C   0  0  2  0  0  0  0  0  0  0  0  0
  162.2640  207.9650  150.0470 C   0  0  0  0  0  0  0  0  0  0  0  0
  161.1570  205.6230  153.2890 C   0  0  0  0  0  0  0  0  0  0  0  0
  160.4810  202.2950  151.8700 N   0  0  0  0  0  1  0  0  0  0  0  0
  161.1930  204.3690  150.7660 C   0  0  0  0  0  0  0  0  0  0  0  0
  161.5270  206.3890  152.1720 C   0  0  0  0  0  0  0  0  0  0  0  0
  161.8820  207.8070  152.3150 C   0  0  0  0  0  3  0  0  0  0  0  0
  161.9060  206.5540  149.8870 C   0  0  0  0  0  0  0  0  0  0  0  0
  162.2760  208.6540  151.2220 C   0  0  0  0  0  0  0  0  0  0  0  0
  160.8300  204.3090  153.1360 N   0  0  0  0  0  0  0  0  0  0  0  0
  161.5340  205.7160  150.8930 C   0  0  0  0  0  0  0  0  0  0  0  0
  160.8380  203.6730  151.9320 C   0  0  0  0  0  0  0  0  0  0  0  0
  159.5410  211.4840  153.0560 C   0  0  1  0  0  3  0  0  0  0  0  0
  160.2360  211.2890  150.6360 C   0  0  0  0  0  2  0  0  0  0  0  0
  159.3330  213.4280  151.5000 C   0  0  0  0  0  1  0  0  0  0  0  0
  162.4380  210.7020  152.7200 N   0  0  0  0  0  2  0  0  0  0  0  0
  161.5700  209.9340  153.6190 C   0  0  2  0  0  3  0  0  0  0  0  0
  162.5970  210.1180  151.3760 C   0  0  2  0  0  3  0  0  0  0  0  0
  160.0790  210.0600  153.2720 C   0  0  0  0  0  2  0  0  0  0  0  0
  159.7000  212.2510  154.2110 O   0  0  0  0  0  1  0  0  0  0  0  0
  161.8300  210.3390  155.0570 C   0  0  0  0  0  1  0  0  0  0  0  0
  161.9550  211.2040  150.0430 S   0  0  0  0  0  0  0  0  0  0  0  0
  160.1520  212.2010  151.8500 C   0  0  1  0  0  3  0  0  0  0  0  0
  161.2230  207.7770  147.8910 N   0  0  0  0  0  2  0  0  0  0  0  0
  160.4250  206.6160  147.5260 C   0  0  0  0  0  2  0  0  0  0  0  0
  160.8720  206.0950  146.2070 C   0  0  0  0  0  0  0  0  0  0  0  0
  160.1010  206.2060  145.1780 N   0  0  0  0  0  2  0  0  0  0  0  0
  162.0650  205.3230  146.1170 N   0  0  0  0  0  1  0  0  0  0  0  0
  2  8  1  0  0  0  0
  4  3  1  6  0  0  0
  4 11  1  0  0  0  0
  4  5  1  0  0  0  0
  5 12  1  0  0  0  0
  6  1  1  0  0  0  0
  7 15  1  0  0  0  0
  8 14  2  0  0  0  0
  8 15  1  0  0  0  0
  9 10  1  0  0  0  0
  9  6  2  0  0  0  0
 11  5  2  0  0  0  0
 11 14  1  0  0  0  0
 12 10  2  0  0  0  0
 13  6  1  0  0  0  0
 14  9  1  0  0  0  0
 15 13  2  0  0  0  0
 16 22  1  0  0  0  0
 16 23  1  1  0  0  0
 17 26  1  0  0  0  0
 19 20  1  0  0  0  0
 20 24  1  1  0  0  0
 21 12  1  1  0  0  0
 21 19  1  0  0  0  0
 22 20  1  0  0  0  0
 25 17  1  0  0  0  0
 25 21  1  0  0  0  0
 26 18  1  6  0  0  0
 26 16  1  0  0  0  0
 27  4  1  0  0  0  0
 28 27  1  0  0  0  0
 29 28  1  0  0  0  0
 30 29  2  0  0  0  0
 31 29  1  0  0  0  0
M  END
>  <MODEL>
8

>  <REMARK>
 VINA RESULT:      -4.5      2.856      5.804
  Name = 
  4 active torsions:
  status: ('A' for Active; 'I' for Inactive)
    1  A    between atoms: C_5  and  N_14
    2  A    between atoms: C_7  and  C_31
    3  A    between atoms: N_14  and  C_31
    4  A    between atoms: C_19  and  C_25
                            x       y       z     vdW  Elec       q    Type
                         _______ _______ _______ _____ _____    ______ ____

>  <TORSDO>
F 4

$$$$
=
 OpenBabel11052409443D

 31 34  0  0  1  0  0  0  0  0999 V2000
  160.8330  206.0860  153.4390 C   0  0  0  0  0  1  0  0  0  0  0  0
  161.9780  207.1930  147.8590 C   0  0  0  0  0  1  0  0  0  0  0  0
  163.2210  211.0780  149.3070 O   0  0  0  0  0  1  0  0  0  0  0  0
  161.9180  210.6530  149.5730 C   0  0  2  0  0  0  0  0  0  0  0  0
  161.6460  210.4020  150.9200 C   0  0  0  0  0  0  0  0  0  0  0  0
  161.1310  206.4350  152.0200 C   0  0  0  0  0  0  0  0  0  0  0  0
  161.5820  204.5210  148.9090 N   0  0  0  0  0  1  0  0  0  0  0  0
  161.6860  206.9400  149.3040 C   0  0  0  0  0  0  0  0  0  0  0  0
  161.3090  207.7670  151.6160 C   0  0  0  0  0  0  0  0  0  0  0  0
  161.2060  208.8680  152.5830 C   0  0  0  0  0  3  0  0  0  0  0  0
  161.7450  209.3170  149.9430 C   0  0  0  0  0  0  0  0  0  0  0  0
  161.3820  210.2550  152.2480 C   0  0  0  0  0  0  0  0  0  0  0  0
  161.2290  205.4270  151.1070 N   0  0  0  0  0  0  0  0  0  0  0  0
  161.5920  207.9920  150.2160 C   0  0  0  0  0  0  0  0  0  0  0  0
  161.4970  205.6370  149.7880 C   0  0  0  0  0  0  0  0  0  0  0  0
  159.1310  209.8480  155.9390 C   0  0  1  0  0  3  0  0  0  0  0  0
  158.5770  211.2040  153.8830 C   0  0  0  0  0  2  0  0  0  0  0  0
  157.5610  211.7860  156.0670 C   0  0  0  0  0  1  0  0  0  0  0  0
  161.5660  211.0800  154.6460 N   0  0  0  0  0  2  0  0  0  0  0  0
  161.5580  209.6540  154.9850 C   0  0  2  0  0  3  0  0  0  0  0  0
  161.2320  211.3770  153.2420 C   0  0  2  0  0  3  0  0  0  0  0  0
  160.1430  209.0640  155.0860 C   0  0  0  0  0  2  0  0  0  0  0  0
  159.5700  209.9410  157.2610 O   0  0  0  0  0  1  0  0  0  0  0  0
  162.3360  209.4230  156.2660 C   0  0  0  0  0  1  0  0  0  0  0  0
  159.7040  212.3780  153.0660 S   0  0  0  0  0  0  0  0  0  0  0  0
  158.7990  211.2360  155.3870 C   0  0  1  0  0  3  0  0  0  0  0  0
  160.8320  211.2930  148.8440 N   0  0  0  0  0  2  0  0  0  0  0  0
  161.2670  212.6230  148.4420 C   0  0  0  0  0  2  0  0  0  0  0  0
  161.2200  212.7390  146.9600 C   0  0  0  0  0  0  0  0  0  0  0  0
  160.2450  212.2060  146.3050 N   0  0  0  0  0  1  0  0  0  0  0  0
  162.3330  213.2810  146.2560 N   0  0  0  0  0  2  0  0  0  0  0  0
  2  8  1  0  0  0  0
  4  3  1  6  0  0  0
  4 11  1  0  0  0  0
  4  5  1  0  0  0  0
  5 12  1  0  0  0  0
  6  1  1  0  0  0  0
  7 15  1  0  0  0  0
  8 15  2  0  0  0  0
  8 14  1  0  0  0  0
  9  6  1  0  0  0  0
  9 10  1  0  0  0  0
 11 14  1  0  0  0  0
 11  5  2  0  0  0  0
 12 10  2  0  0  0  0
 13  6  2  0  0  0  0
 14  9  2  0  0  0  0
 15 13  1  0  0  0  0
 16 23  1  1  0  0  0
 17 26  1  0  0  0  0
 19 20  1  0  0  0  0
 20 22  1  0  0  0  0
 20 24  1  1  0  0  0
 21 12  1  6  0  0  0
 21 19  1  0  0  0  0
 22 16  1  0  0  0  0
 25 21  1  0  0  0  0
 25 17  1  0  0  0  0
 26 16  1  0  0  0  0
 26 18  1  1  0  0  0
 27  4  1  0  0  0  0
 28 27  1  0  0  0  0
 29 28  1  0  0  0  0
 30 29  1  0  0  0  0
 31 29  2  0  0  0  0
M  END
>  <MODEL>
9

>  <REMARK>
 VINA RESULT:      -4.3      3.007      5.225
  Name = 
  4 active torsions:
  status: ('A' for Active; 'I' for Inactive)
    1  A    between atoms: C_5  and  N_14
    2  A    between atoms: C_7  and  C_31
    3  A    between atoms: N_14  and  C_31
    4  A    between atoms: C_19  and  C_25
                            x       y       z     vdW  Elec       q    Type
                         _______ _______ _______ _____ _____    ______ ____

>  <TORSDO>
F 4

$$$$
