=
 OpenBabel11042421253D

 33 38  0  0  1  0  0  0  0  0999 V2000
  160.9860  205.9500  150.5180 C   0  0  1  0  0  3  0  0  0  0  0  0
  160.5540  203.9210  149.0120 C   0  0  0  0  0  3  0  0  0  0  0  0
  161.4530  207.3570  152.5470 C   0  0  0  0  0  0  0  0  0  0  0  0
  161.7130  206.7180  149.4180 C   0  0  0  0  0  2  0  0  0  0  0  0
  160.8020  207.3510  153.7900 C   0  0  0  0  0  3  0  0  0  0  0  0
  161.1880  203.6850  151.3170 C   0  0  0  0  0  0  0  0  0  0  0  0
  160.8130  209.7730  153.8380 C   0  0  0  0  0  0  0  0  0  0  0  0
  160.5150  202.5270  148.9040 C   0  0  0  0  0  3  0  0  0  0  0  0
  160.9170  204.4940  150.2330 C   0  0  0  0  0  0  0  0  0  0  0  0
  160.8310  201.7410  150.0220 C   0  0  0  0  0  3  0  0  0  0  0  0
  162.4160  208.6550  150.5890 C   0  0  0  0  0  2  0  0  0  0  0  0
  161.4540  209.7870  152.5920 C   0  0  0  0  0  3  0  0  0  0  0  0
  161.7740  208.5910  151.9440 C   0  0  0  0  0  0  0  0  0  0  0  0
  161.4950  208.1540  149.5730 N   0  0  0  0  0  2  0  0  0  0  0  0
  161.7740  206.0710  151.8270 C   0  0  1  0  0  3  0  0  0  0  0  0
  161.5850  204.5370  152.8250 S   0  0  0  0  0  0  0  0  0  0  0  0
  161.1590  202.3310  151.2050 N   0  0  0  0  0  0  0  0  0  0  0  0
  160.4880  208.5510  154.4330 C   0  0  0  0  0  3  0  0  0  0  0  0
  160.4740  211.0440  154.5570 C   0  0  1  0  0  3  0  0  0  0  0  0
  158.3750  210.3060  155.4350 O   0  0  0  0  0  0  0  0  0  0  0  0
  157.8430  214.4530  153.2560 C   0  0  1  0  0  3  0  0  0  0  0  0
  159.0010  211.1970  154.7990 C   0  0  0  0  0  0  0  0  0  0  0  0
  158.3090  212.3520  154.2960 N   0  0  0  0  0  0  0  0  0  0  0  0
  158.0060  212.6100  151.6580 O   0  0  0  0  0  1  0  0  0  0  0  0
  158.9770  213.5140  153.7070 C   0  0  1  0  0  3  0  0  0  0  0  0
  156.9090  212.5830  154.2900 C   0  0  0  0  0  0  0  0  0  0  0  0
  155.9940  211.6650  154.5790 C   0  0  0  0  0  1  0  0  0  0  0  0
  158.6830  213.7020  152.2140 C   0  0  2  0  0  3  0  0  0  0  0  0
  156.5910  213.7740  153.6050 N   0  0  0  0  0  0  0  0  0  0  0  0
  162.6290  210.7370  155.8260 N   0  0  0  0  0  2  0  0  0  0  0  0
  163.4810  210.8870  156.9930 C   0  0  0  0  0  1  0  0  0  0  0  0
  160.8260  211.8680  156.7820 O   0  0  0  0  0  0  0  0  0  0  0  0
  161.3040  211.2600  155.7850 C   0  0  0  0  0  0  0  0  0  0  0  0
  1  4  1  6  0  0  0
  1 15  1  0  0  0  0
  2  9  1  0  0  0  0
  3  5  1  0  0  0  0
  4 14  1  0  0  0  0
  5 18  2  0  0  0  0
  6 16  1  0  0  0  0
  7 18  1  0  0  0  0
  7 19  1  0  0  0  0
  8  2  2  0  0  0  0
  8 10  1  0  0  0  0
  9  1  1  0  0  0  0
  9  6  2  0  0  0  0
 10 17  2  0  0  0  0
 11 13  1  0  0  0  0
 12  7  2  0  0  0  0
 13  3  2  0  0  0  0
 13 12  1  0  0  0  0
 14 11  1  0  0  0  0
 15  3  1  1  0  0  0
 15 16  1  0  0  0  0
 17  6  1  0  0  0  0
 19 22  1  1  0  0  0
 19 33  1  0  0  0  0
 21 29  1  1  0  0  0
 21 25  1  0  0  0  0
 22 20  2  0  0  0  0
 23 22  1  0  0  0  0
 25 23  1  1  0  0  0
 26 23  1  0  0  0  0
 26 27  1  0  0  0  0
 28 24  1  1  0  0  0
 28 21  1  0  0  0  0
 28 25  1  0  0  0  0
 29 26  2  0  0  0  0
 30 31  1  0  0  0  0
 33 30  1  0  0  0  0
 33 32  2  0  0  0  0
M  END
>  <MODEL>
1

>  <REMARK>
 VINA RESULT:      -9.0      0.000      0.000
  Name = 
  3 active torsions:
  status: ('A' for Active; 'I' for Inactive)
    1  A    between atoms: C_10  and  C_21
    2  A    between atoms: C_11  and  C_21
    3  A    between atoms: C_21  and  C_32
                            x       y       z     vdW  Elec       q    Type
                         _______ _______ _______ _____ _____    ______ ____

>  <TORSDO>
F 3

$$$$
=
 OpenBabel11042421253D

 33 38  0  0  1  0  0  0  0  0999 V2000
  161.0520  205.7320  149.7040 C   0  0  1  0  0  3  0  0  0  0  0  0
  160.6060  203.4130  148.7070 C   0  0  0  0  0  3  0  0  0  0  0  0
  161.5170  207.5690  151.3540 C   0  0  0  0  0  0  0  0  0  0  0  0
  161.8030  206.2130  148.4650 C   0  0  0  0  0  2  0  0  0  0  0  0
  160.8520  207.8620  152.5540 C   0  0  0  0  0  3  0  0  0  0  0  0
  161.2100  203.7150  151.0130 C   0  0  0  0  0  0  0  0  0  0  0  0
  160.9000  210.2280  152.0340 C   0  0  0  0  0  0  0  0  0  0  0  0
  160.5470  202.0320  148.9280 C   0  0  0  0  0  3  0  0  0  0  0  0
  160.9640  204.2510  149.7660 C   0  0  0  0  0  0  0  0  0  0  0  0
  160.8380  201.5270  150.2030 C   0  0  0  0  0  3  0  0  0  0  0  0
  162.5210  208.3610  149.1610 C   0  0  0  0  0  2  0  0  0  0  0  0
  161.5540  209.9420  150.8290 C   0  0  0  0  0  3  0  0  0  0  0  0
  161.8640  208.6240  150.4830 C   0  0  0  0  0  0  0  0  0  0  0  0
  161.6050  207.6470  148.2770 N   0  0  0  0  0  2  0  0  0  0  0  0
  161.8270  206.1470  150.9590 C   0  0  1  0  0  3  0  0  0  0  0  0
  161.6030  204.8910  152.2850 S   0  0  0  0  0  0  0  0  0  0  0  0
  161.1620  202.3730  151.2200 N   0  0  0  0  0  0  0  0  0  0  0  0
  160.5500  209.1830  152.8940 C   0  0  0  0  0  3  0  0  0  0  0  0
  160.5730  211.6350  152.4310 C   0  0  1  0  0  3  0  0  0  0  0  0
  158.2180  211.8530  152.0640 O   0  0  0  0  0  0  0  0  0  0  0  0
  160.5870  214.4530  148.9230 C   0  0  1  0  0  3  0  0  0  0  0  0
  159.3800  212.1810  151.7000 C   0  0  0  0  0  0  0  0  0  0  0  0
  159.5690  213.0650  150.5830 N   0  0  0  0  0  0  0  0  0  0  0  0
  160.6230  212.0790  148.3390 O   0  0  0  0  0  1  0  0  0  0  0  0
  160.8620  213.6390  150.2020 C   0  0  1  0  0  3  0  0  0  0  0  0
  158.5790  213.5430  149.6860 C   0  0  0  0  0  0  0  0  0  0  0  0
  157.3350  213.0840  149.6240 C   0  0  0  0  0  1  0  0  0  0  0  0
  161.3810  213.1410  148.8480 C   0  0  2  0  0  3  0  0  0  0  0  0
  159.1570  214.2950  148.6410 N   0  0  0  0  0  0  0  0  0  0  0  0
  161.3760  211.0770  154.7530 N   0  0  0  0  0  2  0  0  0  0  0  0
  161.3400  211.1900  156.2010 C   0  0  0  0  0  1  0  0  0  0  0  0
  159.6410  212.6020  154.4190 O   0  0  0  0  0  0  0  0  0  0  0  0
  160.4950  211.8220  153.9150 C   0  0  0  0  0  0  0  0  0  0  0  0
  1  4  1  6  0  0  0
  1  9  1  0  0  0  0
  1 15  1  0  0  0  0
  2  8  2  0  0  0  0
  2  9  1  0  0  0  0
  3  5  1  0  0  0  0
  5 18  2  0  0  0  0
  6 17  1  0  0  0  0
  6 16  1  0  0  0  0
  7 19  1  0  0  0  0
  7 18  1  0  0  0  0
  8 10  1  0  0  0  0
  9  6  2  0  0  0  0
 10 17  2  0  0  0  0
 11 13  1  0  0  0  0
 12  7  2  0  0  0  0
 13 12  1  0  0  0  0
 13  3  2  0  0  0  0
 14  4  1  0  0  0  0
 14 11  1  0  0  0  0
 15  3  1  1  0  0  0
 15 16  1  0  0  0  0
 19 22  1  6  0  0  0
 19 33  1  0  0  0  0
 21 29  1  6  0  0  0
 21 25  1  0  0  0  0
 22 20  2  0  0  0  0
 23 22  1  0  0  0  0
 25 23  1  6  0  0  0
 26 23  1  0  0  0  0
 27 26  1  0  0  0  0
 28 24  1  6  0  0  0
 28 21  1  0  0  0  0
 28 25  1  0  0  0  0
 29 26  2  0  0  0  0
 30 31  1  0  0  0  0
 33 32  2  0  0  0  0
 33 30  1  0  0  0  0
M  END
>  <MODEL>
2

>  <REMARK>
 VINA RESULT:      -8.6      2.191      2.766
  Name = 
  3 active torsions:
  status: ('A' for Active; 'I' for Inactive)
    1  A    between atoms: C_10  and  C_21
    2  A    between atoms: C_11  and  C_21
    3  A    between atoms: C_21  and  C_32
                            x       y       z     vdW  Elec       q    Type
                         _______ _______ _______ _____ _____    ______ ____

>  <TORSDO>
F 3

$$$$
=
 OpenBabel11042421253D

 33 38  0  0  1  0  0  0  0  0999 V2000
  160.9190  204.9690  149.4870 C   0  0  1  0  0  3  0  0  0  0  0  0
  160.4660  202.7240  148.3340 C   0  0  0  0  0  3  0  0  0  0  0  0
  161.4390  206.6800  151.2510 C   0  0  0  0  0  0  0  0  0  0  0  0
  161.5860  205.5650  148.2510 C   0  0  0  0  0  2  0  0  0  0  0  0
  160.8390  206.8600  152.5070 C   0  0  0  0  0  3  0  0  0  0  0  0
  161.1970  202.8590  150.6190 C   0  0  0  0  0  0  0  0  0  0  0  0
  160.8040  209.2600  152.1770 C   0  0  0  0  0  0  0  0  0  0  0  0
  160.4510  201.3290  148.4450 C   0  0  0  0  0  3  0  0  0  0  0  0
  160.8670  203.4850  149.4350 C   0  0  0  0  0  0  0  0  0  0  0  0
  160.8270  200.7320  149.6570 C   0  0  0  0  0  3  0  0  0  0  0  0
  162.2960  207.6700  149.0760 C   0  0  0  0  0  2  0  0  0  0  0  0
  161.3930  209.0880  150.9180 C   0  0  0  0  0  3  0  0  0  0  0  0
  161.7110  207.8100  150.4500 C   0  0  0  0  0  0  0  0  0  0  0  0
  161.3450  207.0040  148.1900 N   0  0  0  0  0  2  0  0  0  0  0  0
  161.7560  205.3030  150.7270 C   0  0  1  0  0  3  0  0  0  0  0  0
  161.6380  203.9410  151.9570 S   0  0  0  0  0  0  0  0  0  0  0  0
  161.1910  201.5040  150.7200 N   0  0  0  0  0  0  0  0  0  0  0  0
  160.5280  208.1410  152.9680 C   0  0  0  0  0  3  0  0  0  0  0  0
  160.4690  210.6220  152.7040 C   0  0  1  0  0  3  0  0  0  0  0  0
  162.4140  210.7070  154.0940 O   0  0  0  0  0  0  0  0  0  0  0  0
  158.6830  212.3890  156.4370 C   0  0  1  0  0  3  0  0  0  0  0  0
  161.1790  210.9370  153.9880 C   0  0  0  0  0  0  0  0  0  0  0  0
  160.4450  211.4890  155.0940 N   0  0  0  0  0  0  0  0  0  0  0  0
  158.6600  209.9460  156.3390 O   0  0  0  0  0  1  0  0  0  0  0  0
  159.0590  211.9520  155.0080 C   0  0  1  0  0  3  0  0  0  0  0  0
  160.9100  211.6960  156.4190 C   0  0  0  0  0  0  0  0  0  0  0  0
  162.0550  211.2230  156.8970 C   0  0  0  0  0  2  0  0  0  0  0  0
  158.0770  211.1140  155.8330 C   0  0  2  0  0  3  0  0  0  0  0  0
  159.8710  212.1440  157.2610 N   0  0  0  0  0  2  0  0  0  0  0  0
  159.7090  212.8070  151.7030 N   0  0  0  0  0  2  0  0  0  0  0  0
  159.7670  213.8740  150.7200 C   0  0  0  0  0  1  0  0  0  0  0  0
  161.4790  211.6110  150.7650 O   0  0  0  0  0  0  0  0  0  0  0  0
  160.6050  211.6980  151.6710 C   0  0  0  0  0  0  0  0  0  0  0  0
  1  4  1  6  0  0  0
  1 15  1  0  0  0  0
  2  8  2  0  0  0  0
  2  9  1  0  0  0  0
  3  5  1  0  0  0  0
  5 18  2  0  0  0  0
  6 17  1  0  0  0  0
  6 16  1  0  0  0  0
  7 19  1  0  0  0  0
  7 18  1  0  0  0  0
  8 10  1  0  0  0  0
  9  1  1  0  0  0  0
  9  6  2  0  0  0  0
 10 17  2  0  0  0  0
 11 13  1  0  0  0  0
 12  7  2  0  0  0  0
 13 12  1  0  0  0  0
 13  3  2  0  0  0  0
 14  4  1  0  0  0  0
 14 11  1  0  0  0  0
 15  3  1  1  0  0  0
 15 16  1  0  0  0  0
 19 33  1  6  0  0  0
 19 22  1  0  0  0  0
 21 29  1  1  0  0  0
 22 20  2  0  0  0  0
 22 23  1  0  0  0  0
 23 26  1  0  0  0  0
 25 23  1  1  0  0  0
 25 28  1  0  0  0  0
 25 21  1  0  0  0  0
 26 27  2  0  0  0  0
 26 29  1  0  0  0  0
 28 24  1  1  0  0  0
 28 21  1  0  0  0  0
 31 30  1  0  0  0  0
 32 33  2  0  0  0  0
 33 30  1  0  0  0  0
M  END
>  <MODEL>
3

>  <REMARK>
 VINA RESULT:      -7.9      1.788      3.379
  Name = 
  3 active torsions:
  status: ('A' for Active; 'I' for Inactive)
    1  A    between atoms: C_10  and  C_21
    2  A    between atoms: C_11  and  C_21
    3  A    between atoms: C_21  and  C_32
                            x       y       z     vdW  Elec       q    Type
                         _______ _______ _______ _____ _____    ______ ____

>  <TORSDO>
F 3

$$$$
=
 OpenBabel11042421253D

 33 38  0  0  1  0  0  0  0  0999 V2000
  160.8610  205.0350  150.3520 C   0  0  1  0  0  3  0  0  0  0  0  0
  160.2690  203.1240  148.7490 C   0  0  0  0  0  3  0  0  0  0  0  0
  161.5830  206.2830  152.4100 C   0  0  0  0  0  0  0  0  0  0  0  0
  161.3950  205.9220  149.2310 C   0  0  0  0  0  2  0  0  0  0  0  0
  161.1230  206.1460  153.7280 C   0  0  0  0  0  3  0  0  0  0  0  0
  161.2430  202.7210  150.9080 C   0  0  0  0  0  0  0  0  0  0  0  0
  161.0720  208.5540  153.9890 C   0  0  0  0  0  0  0  0  0  0  0  0
  160.2540  201.7420  148.5240 C   0  0  0  0  0  3  0  0  0  0  0  0
  160.7920  203.6060  149.9510 C   0  0  0  0  0  0  0  0  0  0  0  0
  160.7540  200.8800  149.5090 C   0  0  0  0  0  3  0  0  0  0  0  0
  162.2070  207.7800  150.4560 C   0  0  0  0  0  2  0  0  0  0  0  0
  161.5200  208.6990  152.6710 C   0  0  0  0  0  3  0  0  0  0  0  0
  161.7760  207.5760  151.8790 C   0  0  0  0  0  0  0  0  0  0  0  0
  161.1610  207.3290  149.5440 N   0  0  0  0  0  2  0  0  0  0  0  0
  161.8300  205.0770  151.5390 C   0  0  1  0  0  3  0  0  0  0  0  0
  161.8340  203.4580  152.4120 S   0  0  0  0  0  0  0  0  0  0  0  0
  161.2370  201.3810  150.6810 N   0  0  0  0  0  0  0  0  0  0  0  0
  160.8740  207.2740  154.5140 C   0  0  0  0  0  3  0  0  0  0  0  0
  160.8070  209.7450  154.8600 C   0  0  1  0  0  3  0  0  0  0  0  0
  158.6330  208.9180  155.4210 O   0  0  0  0  0  0  0  0  0  0  0  0
  158.5170  213.6150  155.0180 C   0  0  1  0  0  3  0  0  0  0  0  0
  159.3490  209.9250  155.1670 C   0  0  0  0  0  0  0  0  0  0  0  0
  158.7730  211.2420  155.1600 N   0  0  0  0  0  0  0  0  0  0  0  0
  158.5470  212.5230  152.8310 O   0  0  0  0  0  1  0  0  0  0  0  0
  159.5540  212.4760  155.0540 C   0  0  1  0  0  3  0  0  0  0  0  0
  157.4000  211.5830  155.2670 C   0  0  0  0  0  0  0  0  0  0  0  0
  156.4010  210.7120  155.1940 C   0  0  0  0  0  1  0  0  0  0  0  0
  159.3080  213.2500  153.7540 C   0  0  2  0  0  3  0  0  0  0  0  0
  157.2030  212.9690  155.0990 N   0  0  0  0  0  0  0  0  0  0  0  0
  162.7960  210.6710  156.0990 N   0  0  0  0  0  2  0  0  0  0  0  0
  163.6980  210.7450  157.2360 C   0  0  0  0  0  1  0  0  0  0  0  0
  161.4490  209.0230  157.0560 O   0  0  0  0  0  0  0  0  0  0  0  0
  161.6790  209.7850  156.0770 C   0  0  0  0  0  0  0  0  0  0  0  0
  1  4  1  6  0  0  0
  1 15  1  0  0  0  0
  2  9  1  0  0  0  0
  3  5  1  0  0  0  0
  4 14  1  0  0  0  0
  5 18  2  0  0  0  0
  6 16  1  0  0  0  0
  7 18  1  0  0  0  0
  7 19  1  0  0  0  0
  8  2  2  0  0  0  0
  8 10  1  0  0  0  0
  9  1  1  0  0  0  0
  9  6  2  0  0  0  0
 10 17  2  0  0  0  0
 11 13  1  0  0  0  0
 12  7  2  0  0  0  0
 13  3  2  0  0  0  0
 13 12  1  0  0  0  0
 14 11  1  0  0  0  0
 15  3  1  1  0  0  0
 15 16  1  0  0  0  0
 17  6  1  0  0  0  0
 19 22  1  1  0  0  0
 19 33  1  0  0  0  0
 21 25  1  0  0  0  0
 21 29  1  6  0  0  0
 22 20  2  0  0  0  0
 23 22  1  0  0  0  0
 23 26  1  0  0  0  0
 25 23  1  6  0  0  0
 27 26  1  0  0  0  0
 28 24  1  6  0  0  0
 28 21  1  0  0  0  0
 28 25  1  0  0  0  0
 29 26  2  0  0  0  0
 30 31  1  0  0  0  0
 33 30  1  0  0  0  0
 33 32  2  0  0  0  0
M  END
>  <MODEL>
4

>  <REMARK>
 VINA RESULT:      -7.6      1.220      1.326
  Name = 
  3 active torsions:
  status: ('A' for Active; 'I' for Inactive)
    1  A    between atoms: C_10  and  C_21
    2  A    between atoms: C_11  and  C_21
    3  A    between atoms: C_21  and  C_32
                            x       y       z     vdW  Elec       q    Type
                         _______ _______ _______ _____ _____    ______ ____

>  <TORSDO>
F 3

$$$$
=
 OpenBabel11042421253D

 33 38  0  0  1  0  0  0  0  0999 V2000
  161.0500  206.6080  150.4090 C   0  0  1  0  0  3  0  0  0  0  0  0
  160.8020  204.3830  149.1600 C   0  0  0  0  0  3  0  0  0  0  0  0
  161.2980  208.2870  152.2620 C   0  0  0  0  0  0  0  0  0  0  0  0
  161.8590  207.2460  149.2840 C   0  0  0  0  0  2  0  0  0  0  0  0
  160.5360  208.4250  153.4320 C   0  0  0  0  0  3  0  0  0  0  0  0
  161.2260  204.4780  151.5230 C   0  0  0  0  0  0  0  0  0  0  0  0
  160.4900  210.8310  153.1510 C   0  0  0  0  0  0  0  0  0  0  0  0
  160.8040  202.9860  149.2390 C   0  0  0  0  0  3  0  0  0  0  0  0
  161.0390  205.1250  150.3200 C   0  0  0  0  0  0  0  0  0  0  0  0
  161.0320  202.3680  150.4770 C   0  0  0  0  0  3  0  0  0  0  0  0
  162.4080  209.3440  150.2380 C   0  0  0  0  0  2  0  0  0  0  0  0
  161.2420  210.7000  151.9760 C   0  0  0  0  0  3  0  0  0  0  0  0
  161.6470  209.4400  151.5270 C   0  0  0  0  0  0  0  0  0  0  0  0
  161.5960  208.6820  149.2230 N   0  0  0  0  0  2  0  0  0  0  0  0
  161.7120  206.9290  151.7540 C   0  0  1  0  0  3  0  0  0  0  0  0
  161.4640  205.5350  152.9300 S   0  0  0  0  0  0  0  0  0  0  0  0
  161.2370  203.1200  151.5940 N   0  0  0  0  0  0  0  0  0  0  0  0
  160.1380  209.6890  153.8750 C   0  0  0  0  0  3  0  0  0  0  0  0
  160.0590  212.1740  153.6580 C   0  0  1  0  0  3  0  0  0  0  0  0
  158.4370  213.2410  152.2610 O   0  0  0  0  0  0  0  0  0  0  0  0
  156.2770  210.8700  155.7170 C   0  0  1  0  0  3  0  0  0  0  0  0
  158.6500  212.5150  153.2690 C   0  0  0  0  0  0  0  0  0  0  0  0
  157.5520  212.0220  154.0550 N   0  0  0  0  0  0  0  0  0  0  0  0
  157.2140  212.9800  156.5200 O   0  0  0  0  0  1  0  0  0  0  0  0
  157.6910  211.0340  155.1270 C   0  0  1  0  0  3  0  0  0  0  0  0
  156.1820  212.3690  153.9330 C   0  0  0  0  0  0  0  0  0  0  0  0
  155.7220  213.3680  153.1900 C   0  0  0  0  0  2  0  0  0  0  0  0
  157.3710  211.5890  156.5200 C   0  0  2  0  0  3  0  0  0  0  0  0
  155.4120  211.7750  154.9550 N   0  0  0  0  0  2  0  0  0  0  0  0
  161.0000  211.3280  155.8370 N   0  0  0  0  0  2  0  0  0  0  0  0
  161.2780  211.4340  157.2590 C   0  0  0  0  0  1  0  0  0  0  0  0
  159.9560  213.4120  155.7100 O   0  0  0  0  0  0  0  0  0  0  0  0
  160.3350  212.3640  155.1170 C   0  0  0  0  0  0  0  0  0  0  0  0
  1  4  1  6  0  0  0
  1 15  1  0  0  0  0
  2  8  2  0  0  0  0
  2  9  1  0  0  0  0
  3  5  1  0  0  0  0
  5 18  2  0  0  0  0
  6 17  1  0  0  0  0
  6 16  1  0  0  0  0
  7 19  1  0  0  0  0
  7 18  1  0  0  0  0
  8 10  1  0  0  0  0
  9  1  1  0  0  0  0
  9  6  2  0  0  0  0
 10 17  2  0  0  0  0
 11 13  1  0  0  0  0
 12  7  2  0  0  0  0
 13 12  1  0  0  0  0
 13  3  2  0  0  0  0
 14  4  1  0  0  0  0
 14 11  1  0  0  0  0
 15  3  1  1  0  0  0
 15 16  1  0  0  0  0
 19 22  1  1  0  0  0
 19 33  1  0  0  0  0
 20 22  2  0  0  0  0
 21 29  1  6  0  0  0
 21 28  1  0  0  0  0
 22 23  1  0  0  0  0
 25 23  1  6  0  0  0
 25 21  1  0  0  0  0
 25 28  1  0  0  0  0
 26 23  1  0  0  0  0
 26 29  1  0  0  0  0
 27 26  2  0  0  0  0
 28 24  1  6  0  0  0
 30 31  1  0  0  0  0
 33 32  2  0  0  0  0
 33 30  1  0  0  0  0
M  END
>  <MODEL>
5

>  <REMARK>
 VINA RESULT:      -6.5      1.345      2.123
  Name = 
  3 active torsions:
  status: ('A' for Active; 'I' for Inactive)
    1  A    between atoms: C_10  and  C_21
    2  A    between atoms: C_11  and  C_21
    3  A    between atoms: C_21  and  C_32
                            x       y       z     vdW  Elec       q    Type
                         _______ _______ _______ _____ _____    ______ ____

>  <TORSDO>
F 3

$$$$
=
 OpenBabel11042421253D

 33 38  0  0  1  0  0  0  0  0999 V2000
  161.1020  204.6450  147.5880 C   0  0  1  0  0  3  0  0  0  0  0  0
  160.6100  203.0180  145.6690 C   0  0  0  0  0  3  0  0  0  0  0  0
  161.5700  205.5510  149.8850 C   0  0  0  0  0  0  0  0  0  0  0  0
  161.9160  205.5800  146.6990 C   0  0  0  0  0  2  0  0  0  0  0  0
  160.8710  205.3230  151.0800 C   0  0  0  0  0  3  0  0  0  0  0  0
  161.1370  202.2530  147.8850 C   0  0  0  0  0  0  0  0  0  0  0  0
  161.0230  207.6730  151.6490 C   0  0  0  0  0  0  0  0  0  0  0  0
  160.4930  201.6840  145.2610 C   0  0  0  0  0  3  0  0  0  0  0  0
  160.9580  203.2910  146.9940 C   0  0  0  0  0  0  0  0  0  0  0  0
  160.7170  200.6590  146.1920 C   0  0  0  0  0  3  0  0  0  0  0  0
  162.6840  207.1710  148.2780 C   0  0  0  0  0  2  0  0  0  0  0  0
  161.7120  207.9100  150.4530 C   0  0  0  0  0  3  0  0  0  0  0  0
  161.9870  206.8620  149.5700 C   0  0  0  0  0  0  0  0  0  0  0  0
  161.7770  206.9610  147.1550 N   0  0  0  0  0  2  0  0  0  0  0  0
  161.8430  204.4310  148.9130 C   0  0  1  0  0  3  0  0  0  0  0  0
  161.5240  202.7350  149.5500 S   0  0  0  0  0  0  0  0  0  0  0  0
  161.0330  200.9590  147.4830 N   0  0  0  0  0  0  0  0  0  0  0  0
  160.6040  206.3760  151.9580 C   0  0  0  0  0  3  0  0  0  0  0  0
  160.7320  208.7800  152.6160 C   0  0  1  0  0  3  0  0  0  0  0  0
  161.5960  207.2970  154.2830 O   0  0  0  0  0  0  0  0  0  0  0  0
  160.4470  211.4300  156.2410 C   0  0  1  0  0  3  0  0  0  0  0  0
  161.1240  208.4380  154.0240 C   0  0  0  0  0  0  0  0  0  0  0  0
  160.9500  209.4070  155.0710 N   0  0  0  0  0  0  0  0  0  0  0  0
  158.4710  210.0560  155.8100 O   0  0  0  0  0  1  0  0  0  0  0  0
  160.5820  210.8050  154.8390 C   0  0  1  0  0  3  0  0  0  0  0  0
  161.1130  209.2060  156.4660 C   0  0  0  0  0  0  0  0  0  0  0  0
  161.2640  208.0200  157.0430 C   0  0  0  0  0  2  0  0  0  0  0  0
  159.1980  211.1750  155.3860 C   0  0  2  0  0  3  0  0  0  0  0  0
  160.7390  210.3550  157.1940 N   0  0  0  0  0  2  0  0  0  0  0  0
  160.3340  211.0920  151.6950 N   0  0  0  0  0  2  0  0  0  0  0  0
  160.7720  212.3910  151.2160 C   0  0  0  0  0  1  0  0  0  0  0  0
  162.4950  210.3410  152.1570 O   0  0  0  0  0  0  0  0  0  0  0  0
  161.2550  210.1080  152.1600 C   0  0  0  0  0  0  0  0  0  0  0  0
  1  4  1  6  0  0  0
  1 15  1  0  0  0  0
  2  9  1  0  0  0  0
  3  5  1  0  0  0  0
  4 14  1  0  0  0  0
  5 18  2  0  0  0  0
  6 16  1  0  0  0  0
  7 18  1  0  0  0  0
  7 19  1  0  0  0  0
  8  2  2  0  0  0  0
  8 10  1  0  0  0  0
  9  1  1  0  0  0  0
  9  6  2  0  0  0  0
 10 17  2  0  0  0  0
 11 13  1  0  0  0  0
 12  7  2  0  0  0  0
 13  3  2  0  0  0  0
 13 12  1  0  0  0  0
 14 11  1  0  0  0  0
 15 16  1  1  0  0  0
 15  3  1  0  0  0  0
 17  6  1  0  0  0  0
 19 33  1  6  0  0  0
 19 22  1  0  0  0  0
 21 29  1  1  0  0  0
 22 20  2  0  0  0  0
 22 23  1  0  0  0  0
 23 26  1  0  0  0  0
 25 23  1  1  0  0  0
 25 28  1  0  0  0  0
 25 21  1  0  0  0  0
 26 27  2  0  0  0  0
 26 29  1  0  0  0  0
 28 24  1  1  0  0  0
 28 21  1  0  0  0  0
 30 33  1  0  0  0  0
 31 30  1  0  0  0  0
 32 33  2  0  0  0  0
M  END
>  <MODEL>
6

>  <REMARK>
 VINA RESULT:      -6.0      2.452      4.141
  Name = 
  3 active torsions:
  status: ('A' for Active; 'I' for Inactive)
    1  A    between atoms: C_10  and  C_21
    2  A    between atoms: C_11  and  C_21
    3  A    between atoms: C_21  and  C_32
                            x       y       z     vdW  Elec       q    Type
                         _______ _______ _______ _____ _____    ______ ____

>  <TORSDO>
F 3

$$$$
