=
 OpenBabel11042422353D

 33 37  0  0  1  0  0  0  0  0999 V2000
  161.1440  205.8220  152.5190 C   0  0  0  0  0  3  0  0  0  0  0  0
  161.6750  207.0280  150.4710 C   0  0  0  0  0  3  0  0  0  0  0  0
  161.7490  210.3160  151.9390 C   0  0  0  0  0  3  0  0  0  0  0  0
  161.4110  205.8180  151.1310 C   0  0  0  0  0  0  0  0  0  0  0  0
  161.8890  209.4980  150.8210 C   0  0  0  0  0  0  0  0  0  0  0  0
  161.6650  208.2000  151.2270 C   0  0  0  0  0  0  0  0  0  0  0  0
  161.4080  208.1730  152.5420 N   0  0  0  0  0  0  0  0  0  0  0  0
  161.4560  209.4420  152.9850 C   0  0  0  0  0  0  0  0  0  0  0  0
  161.1450  207.0320  153.2270 C   0  0  0  0  0  3  0  0  0  0  0  0
  161.2220  209.8050  154.3530 N   0  0  0  0  0  2  0  0  0  0  0  0
  158.0500  211.6770  155.0480 C   0  0  0  0  0  3  0  0  0  0  0  0
  158.7560  211.5150  156.3900 C   0  0  0  0  0  3  0  0  0  0  0  0
  159.9790  210.7910  156.1080 N   0  0  0  0  0  0  0  0  0  0  0  0
  160.0870  210.5190  154.8570 C   0  0  0  0  0  0  0  0  0  0  0  0
  158.9570  211.0030  154.0290 C   0  0  0  0  0  2  0  0  0  0  0  0
  160.6590  205.4450  148.3130 O   0  0  0  0  0  0  0  0  0  0  0  0
  161.0450  204.4510  148.9890 C   0  0  0  0  0  0  0  0  0  0  0  0
  161.4180  204.6050  150.3670 N   0  0  0  0  0  2  0  0  0  0  0  0
  161.1150  203.1220  148.3580 C   0  0  0  0  0  0  0  0  0  0  0  0
  161.1390  201.7560  146.3900 N   0  0  0  0  0  0  0  0  0  0  0  0
  161.0740  202.9880  146.9640 C   0  0  0  0  0  3  0  0  0  0  0  0
  161.2870  200.7110  148.5310 C   0  0  0  0  0  3  0  0  0  0  0  0
  161.3060  199.4160  146.5340 F   0  0  0  0  0  0  0  0  0  0  0  0
  161.2430  200.6260  147.1390 C   0  0  0  0  0  0  0  0  0  0  0  0
  161.2220  201.9660  149.1390 C   0  0  0  0  0  3  0  0  0  0  0  0
  162.1600  209.9640  149.4310 C   0  0  0  0  0  2  0  0  0  0  0  0
  161.9080  211.4550  149.3270 C   0  0  0  0  0  2  0  0  0  0  0  0
  162.7050  212.0220  148.1700 C   0  0  0  0  0  2  0  0  0  0  0  0
  160.5050  212.6290  147.2420 C   0  0  0  0  0  2  0  0  0  0  0  0
  161.9050  213.1020  147.4630 C   0  0  2  0  0  3  0  0  0  0  0  0
  161.4900  212.9770  145.2600 N   0  0  0  0  0  0  0  0  0  0  0  0
  160.3110  212.5750  145.9350 C   0  0  0  0  0  3  0  0  0  0  0  0
  162.3900  213.2750  146.1020 N   0  0  0  0  0  2  0  0  0  0  0  0
  1  9  2  0  0  0  0
  2  4  2  0  0  0  0
  2  6  1  0  0  0  0
  3  8  2  0  0  0  0
  4  1  1  0  0  0  0
  5  6  2  0  0  0  0
  5  3  1  0  0  0  0
  6  7  1  0  0  0  0
  7  8  1  0  0  0  0
  7  9  1  0  0  0  0
  8 10  1  0  0  0  0
 10 14  1  0  0  0  0
 11 12  2  0  0  0  0
 13 12  1  0  0  0  0
 14 13  2  0  0  0  0
 15 14  1  0  0  0  0
 15 11  1  0  0  0  0
 16 17  2  0  0  0  0
 17 18  1  0  0  0  0
 18  4  1  0  0  0  0
 19 17  1  0  0  0  0
 19 25  1  0  0  0  0
 20 21  1  0  0  0  0
 20 24  2  0  0  0  0
 21 19  2  0  0  0  0
 22 25  2  0  0  0  0
 23 24  1  0  0  0  0
 24 22  1  0  0  0  0
 26  5  1  0  0  0  0
 27 26  1  0  0  0  0
 28 27  1  0  0  0  0
 29 30  1  0  0  0  0
 30 28  1  6  0  0  0
 31 32  2  0  0  0  0
 31 33  1  0  0  0  0
 32 29  1  0  0  0  0
 33 30  1  0  0  0  0
M  END
>  <MODEL>
1

>  <REMARK>
 VINA RESULT:      -8.6      0.000      0.000
  Name = 
  7 active torsions:
  status: ('A' for Active; 'I' for Inactive)
    1  A    between atoms: C_3  and  C_12
    2  A    between atoms: N_4  and  C_32
    3  A    between atoms: C_5  and  C_25
    4  A    between atoms: C_19  and  N_27
    5  A    between atoms: C_21  and  C_31
    6  A    between atoms: C_25  and  C_30
    7  A    between atoms: C_30  and  C_31
                            x       y       z     vdW  Elec       q    Type
                         _______ _______ _______ _____ _____    ______ ____

>  <TORSDO>
F 7

$$$$
=
 OpenBabel11042422353D

 33 37  0  0  1  0  0  0  0  0999 V2000
  161.1860  206.9940  149.2610 C   0  0  0  0  0  3  0  0  0  0  0  0
  161.0370  205.9100  151.4370 C   0  0  0  0  0  3  0  0  0  0  0  0
  160.9880  208.9300  153.3970 C   0  0  0  0  0  3  0  0  0  0  0  0
  161.1190  205.8160  150.0380 C   0  0  0  0  0  0  0  0  0  0  0  0
  160.9500  207.5400  153.3350 C   0  0  0  0  0  0  0  0  0  0  0  0
  161.0220  207.1830  152.0050 C   0  0  0  0  0  0  0  0  0  0  0  0
  161.0880  208.2830  151.2420 N   0  0  0  0  0  0  0  0  0  0  0  0
  161.0670  209.3450  152.0680 C   0  0  0  0  0  0  0  0  0  0  0  0
  161.1710  208.2470  149.8880 C   0  0  0  0  0  3  0  0  0  0  0  0
  161.1310  210.7000  151.6050 N   0  0  0  0  0  2  0  0  0  0  0  0
  158.2470  212.9040  152.5370 C   0  0  0  0  0  3  0  0  0  0  0  0
  159.2040  213.7700  151.7250 C   0  0  0  0  0  3  0  0  0  0  0  0
  160.3130  212.9080  151.3720 N   0  0  0  0  0  0  0  0  0  0  0  0
  160.1520  211.7210  151.8350 C   0  0  0  0  0  0  0  0  0  0  0  0
  158.8970  211.5310  152.6010 C   0  0  0  0  0  2  0  0  0  0  0  0
  161.2420  205.1340  147.1810 O   0  0  0  0  0  0  0  0  0  0  0  0
  161.1950  204.2080  148.0380 C   0  0  0  0  0  0  0  0  0  0  0  0
  161.1340  204.5140  149.4400 N   0  0  0  0  0  2  0  0  0  0  0  0
  161.2030  202.8030  147.5960 C   0  0  0  0  0  0  0  0  0  0  0  0
  161.0190  201.1740  145.8490 N   0  0  0  0  0  0  0  0  0  0  0  0
  161.0100  202.4750  146.2480 C   0  0  0  0  0  3  0  0  0  0  0  0
  161.4090  200.4390  148.0870 C   0  0  0  0  0  3  0  0  0  0  0  0
  161.2150  198.8760  146.3010 F   0  0  0  0  0  0  0  0  0  0  0  0
  161.2120  200.1590  146.7340 C   0  0  0  0  0  0  0  0  0  0  0  0
  161.4030  201.7670  148.5160 C   0  0  0  0  0  3  0  0  0  0  0  0
  160.9110  206.6170  154.5050 C   0  0  0  0  0  2  0  0  0  0  0  0
  160.4600  207.3700  155.7410 C   0  0  0  0  0  2  0  0  0  0  0  0
  161.6740  207.8300  156.5230 C   0  0  0  0  0  2  0  0  0  0  0  0
  160.0360  209.6470  156.8170 C   0  0  0  0  0  2  0  0  0  0  0  0
  161.3640  209.1230  157.2580 C   0  0  2  0  0  3  0  0  0  0  0  0
  161.6350  211.1140  156.2570 N   0  0  0  0  0  0  0  0  0  0  0  0
  160.2490  210.8170  156.2390 C   0  0  0  0  0  3  0  0  0  0  0  0
  162.2710  210.1750  156.8240 N   0  0  0  0  0  2  0  0  0  0  0  0
  1  9  2  0  0  0  0
  1  4  1  0  0  0  0
  2  6  1  0  0  0  0
  4  2  2  0  0  0  0
  5  3  1  0  0  0  0
  5 26  1  0  0  0  0
  6  5  2  0  0  0  0
  7  6  1  0  0  0  0
  7  8  1  0  0  0  0
  8  3  2  0  0  0  0
  9  7  1  0  0  0  0
 10 14  1  0  0  0  0
 10  8  1  0  0  0  0
 11 15  1  0  0  0  0
 12 11  2  0  0  0  0
 13 12  1  0  0  0  0
 13 14  2  0  0  0  0
 14 15  1  0  0  0  0
 16 17  2  0  0  0  0
 17 18  1  0  0  0  0
 18  4  1  0  0  0  0
 19 17  1  0  0  0  0
 19 25  1  0  0  0  0
 20 21  1  0  0  0  0
 20 24  2  0  0  0  0
 21 19  2  0  0  0  0
 22 25  2  0  0  0  0
 23 24  1  0  0  0  0
 24 22  1  0  0  0  0
 26 27  1  0  0  0  0
 27 28  1  0  0  0  0
 29 30  1  0  0  0  0
 30 28  1  6  0  0  0
 31 33  1  0  0  0  0
 32 31  2  0  0  0  0
 32 29  1  0  0  0  0
 33 30  1  0  0  0  0
M  END
>  <MODEL>
2

>  <REMARK>
 VINA RESULT:      -8.2      2.617      5.215
  Name = 
  7 active torsions:
  status: ('A' for Active; 'I' for Inactive)
    1  A    between atoms: C_3  and  C_12
    2  A    between atoms: N_4  and  C_32
    3  A    between atoms: C_5  and  C_25
    4  A    between atoms: C_19  and  N_27
    5  A    between atoms: C_21  and  C_31
    6  A    between atoms: C_25  and  C_30
    7  A    between atoms: C_30  and  C_31
                            x       y       z     vdW  Elec       q    Type
                         _______ _______ _______ _____ _____    ______ ____

>  <TORSDO>
F 7

$$$$
=
 OpenBabel11042422353D

 33 37  0  0  1  0  0  0  0  0999 V2000
  161.0020  204.7460  152.4130 C   0  0  0  0  0  3  0  0  0  0  0  0
  161.4990  206.1280  150.4700 C   0  0  0  0  0  3  0  0  0  0  0  0
  161.6080  209.2730  152.2220 C   0  0  0  0  0  3  0  0  0  0  0  0
  161.2430  204.8640  151.0250 C   0  0  0  0  0  0  0  0  0  0  0  0
  161.7260  208.5570  151.0330 C   0  0  0  0  0  0  0  0  0  0  0  0
  161.5060  207.2280  151.3280 C   0  0  0  0  0  0  0  0  0  0  0  0
  161.2720  207.0850  152.6390 N   0  0  0  0  0  0  0  0  0  0  0  0
  161.3320  208.3100  153.1920 C   0  0  0  0  0  0  0  0  0  0  0  0
  161.0180  205.8880  153.2250 C   0  0  0  0  0  3  0  0  0  0  0  0
  161.1230  208.5510  154.5900 N   0  0  0  0  0  2  0  0  0  0  0  0
  158.8170  211.3750  155.4570 C   0  0  0  0  0  3  0  0  0  0  0  0
  159.2860  210.7820  156.7810 C   0  0  0  0  0  3  0  0  0  0  0  0
  160.1760  209.6930  156.4330 N   0  0  0  0  0  0  0  0  0  0  0  0
  160.2910  209.5680  155.1590 C   0  0  0  0  0  0  0  0  0  0  0  0
  159.5010  210.5490  154.3780 C   0  0  0  0  0  2  0  0  0  0  0  0
  161.0460  204.8200  148.0920 O   0  0  0  0  0  0  0  0  0  0  0  0
  161.1360  203.7310  148.7240 C   0  0  0  0  0  0  0  0  0  0  0  0
  161.2340  203.7240  150.1570 N   0  0  0  0  0  2  0  0  0  0  0  0
  161.1430  202.4570  147.9850 C   0  0  0  0  0  0  0  0  0  0  0  0
  161.4710  200.0840  147.9400 N   0  0  0  0  0  0  0  0  0  0  0  0
  161.4670  201.2560  148.6310 C   0  0  0  0  0  3  0  0  0  0  0  0
  160.8370  201.2070  145.9320 C   0  0  0  0  0  3  0  0  0  0  0  0
  161.1790  198.8510  145.9610 F   0  0  0  0  0  0  0  0  0  0  0  0
  161.1660  200.0360  146.6160 C   0  0  0  0  0  0  0  0  0  0  0  0
  160.8270  202.4200  146.6220 C   0  0  0  0  0  3  0  0  0  0  0  0
  161.9740  209.1430  149.6860 C   0  0  0  0  0  2  0  0  0  0  0  0
  162.0640  210.6530  149.7880 C   0  0  0  0  0  2  0  0  0  0  0  0
  161.8120  211.2670  148.4260 C   0  0  0  0  0  2  0  0  0  0  0  0
  160.9430  213.5720  148.3530 C   0  0  0  0  0  2  0  0  0  0  0  0
  162.1820  212.7410  148.4400 C   0  0  2  0  0  3  0  0  0  0  0  0
  162.2120  213.9420  146.5430 N   0  0  0  0  0  0  0  0  0  0  0  0
  161.0100  214.2590  147.2250 C   0  0  0  0  0  3  0  0  0  0  0  0
  162.8770  213.0940  147.2110 N   0  0  0  0  0  2  0  0  0  0  0  0
  1  9  2  0  0  0  0
  2  4  2  0  0  0  0
  2  6  1  0  0  0  0
  3  8  2  0  0  0  0
  4  1  1  0  0  0  0
  5  6  2  0  0  0  0
  5  3  1  0  0  0  0
  6  7  1  0  0  0  0
  7  8  1  0  0  0  0
  7  9  1  0  0  0  0
  8 10  1  0  0  0  0
 10 14  1  0  0  0  0
 11 12  2  0  0  0  0
 13 12  1  0  0  0  0
 14 13  2  0  0  0  0
 15 14  1  0  0  0  0
 15 11  1  0  0  0  0
 16 17  2  0  0  0  0
 17 18  1  0  0  0  0
 18  4  1  0  0  0  0
 19 21  1  0  0  0  0
 19 17  1  0  0  0  0
 20 21  2  0  0  0  0
 22 24  2  0  0  0  0
 22 25  1  0  0  0  0
 23 24  1  0  0  0  0
 24 20  1  0  0  0  0
 25 19  2  0  0  0  0
 26 27  1  0  0  0  0
 26  5  1  0  0  0  0
 28 27  1  0  0  0  0
 29 30  1  0  0  0  0
 30 28  1  6  0  0  0
 31 33  1  0  0  0  0
 31 32  2  0  0  0  0
 32 29  1  0  0  0  0
 33 30  1  0  0  0  0
M  END
>  <MODEL>
3

>  <REMARK>
 VINA RESULT:      -8.2      1.082      1.367
  Name = 
  7 active torsions:
  status: ('A' for Active; 'I' for Inactive)
    1  A    between atoms: C_3  and  C_12
    2  A    between atoms: N_4  and  C_32
    3  A    between atoms: C_5  and  C_25
    4  A    between atoms: C_19  and  N_27
    5  A    between atoms: C_21  and  C_31
    6  A    between atoms: C_25  and  C_30
    7  A    between atoms: C_30  and  C_31
                            x       y       z     vdW  Elec       q    Type
                         _______ _______ _______ _____ _____    ______ ____

>  <TORSDO>
F 7

$$$$
=
 OpenBabel11042422353D

 33 37  0  0  1  0  0  0  0  0999 V2000
  161.7970  209.5730  150.5880 C   0  0  0  0  0  3  0  0  0  0  0  0
  161.3770  207.3000  151.3550 C   0  0  0  0  0  3  0  0  0  0  0  0
  161.0320  208.1030  154.8480 C   0  0  0  0  0  3  0  0  0  0  0  0
  161.6440  208.1960  150.3080 C   0  0  0  0  0  0  0  0  0  0  0  0
  161.0210  207.1550  153.8290 C   0  0  0  0  0  0  0  0  0  0  0  0
  161.2720  207.8170  152.6460 C   0  0  0  0  0  0  0  0  0  0  0  0
  161.4230  209.1270  152.8810 N   0  0  0  0  0  0  0  0  0  0  0  0
  161.2800  209.3150  154.2060 C   0  0  0  0  0  0  0  0  0  0  0  0
  161.6840  210.0350  151.9070 C   0  0  0  0  0  3  0  0  0  0  0  0
  161.3870  210.6010  154.8320 N   0  0  0  0  0  2  0  0  0  0  0  0
  158.1580  212.2690  155.7460 C   0  0  0  0  0  3  0  0  0  0  0  0
  159.2700  213.2190  156.1790 C   0  0  0  0  0  3  0  0  0  0  0  0
  160.5110  212.5630  155.8200 N   0  0  0  0  0  0  0  0  0  0  0  0
  160.2990  211.4240  155.2670 C   0  0  0  0  0  0  0  0  0  0  0  0
  158.8650  211.0690  155.1350 C   0  0  0  0  0  2  0  0  0  0  0  0
  159.8490  206.3130  148.9380 O   0  0  0  0  0  0  0  0  0  0  0  0
  160.8620  206.7580  148.3300 C   0  0  0  0  0  0  0  0  0  0  0  0
  161.7540  207.6790  148.9750 N   0  0  0  0  0  2  0  0  0  0  0  0
  161.1290  206.3310  146.9460 C   0  0  0  0  0  0  0  0  0  0  0  0
  160.3790  205.9870  144.6970 N   0  0  0  0  0  0  0  0  0  0  0  0
  160.1220  206.3850  145.9730 C   0  0  0  0  0  3  0  0  0  0  0  0
  162.6370  205.4580  145.2620 C   0  0  0  0  0  3  0  0  0  0  0  0
  161.8230  205.1430  143.0460 F   0  0  0  0  0  0  0  0  0  0  0  0
  161.6040  205.5290  144.3260 C   0  0  0  0  0  0  0  0  0  0  0  0
  162.3940  205.8610  146.5760 C   0  0  0  0  0  3  0  0  0  0  0  0
  160.8400  205.6860  154.0080 C   0  0  0  0  0  2  0  0  0  0  0  0
  161.6100  204.9370  152.9390 C   0  0  0  0  0  2  0  0  0  0  0  0
  160.7460  203.8220  152.3830 C   0  0  0  0  0  2  0  0  0  0  0  0
  161.3740  203.7660  150.0010 C   0  0  0  0  0  2  0  0  0  0  0  0
  161.5040  203.0580  151.3110 C   0  0  2  0  0  3  0  0  0  0  0  0
  160.4230  201.7420  149.8480 N   0  0  0  0  0  0  0  0  0  0  0  0
  160.7350  202.9520  149.1770 C   0  0  0  0  0  3  0  0  0  0  0  0
  160.8460  201.7880  151.0420 N   0  0  0  0  0  2  0  0  0  0  0  0
  1  9  2  0  0  0  0
  2  6  1  0  0  0  0
  4  1  1  0  0  0  0
  4  2  2  0  0  0  0
  5 26  1  0  0  0  0
  5  3  1  0  0  0  0
  6  7  1  0  0  0  0
  6  5  2  0  0  0  0
  7  8  1  0  0  0  0
  8 10  1  0  0  0  0
  8  3  2  0  0  0  0
  9  7  1  0  0  0  0
 10 14  1  0  0  0  0
 11 12  2  0  0  0  0
 13 12  1  0  0  0  0
 14 13  2  0  0  0  0
 15 14  1  0  0  0  0
 15 11  1  0  0  0  0
 17 16  2  0  0  0  0
 17 18  1  0  0  0  0
 18  4  1  0  0  0  0
 19 17  1  0  0  0  0
 20 21  1  0  0  0  0
 21 19  2  0  0  0  0
 22 25  2  0  0  0  0
 23 24  1  0  0  0  0
 24 20  2  0  0  0  0
 24 22  1  0  0  0  0
 25 19  1  0  0  0  0
 27 26  1  0  0  0  0
 28 27  1  0  0  0  0
 29 30  1  0  0  0  0
 30 28  1  1  0  0  0
 31 33  1  0  0  0  0
 32 31  2  0  0  0  0
 32 29  1  0  0  0  0
 33 30  1  0  0  0  0
M  END
>  <MODEL>
4

>  <REMARK>
 VINA RESULT:      -8.2      2.956      5.725
  Name = 
  7 active torsions:
  status: ('A' for Active; 'I' for Inactive)
    1  A    between atoms: C_3  and  C_12
    2  A    between atoms: N_4  and  C_32
    3  A    between atoms: C_5  and  C_25
    4  A    between atoms: C_19  and  N_27
    5  A    between atoms: C_21  and  C_31
    6  A    between atoms: C_25  and  C_30
    7  A    between atoms: C_30  and  C_31
                            x       y       z     vdW  Elec       q    Type
                         _______ _______ _______ _____ _____    ______ ____

>  <TORSDO>
F 7

$$$$
=
 OpenBabel11042422353D

 33 37  0  0  1  0  0  0  0  0999 V2000
  160.8560  203.2330  152.0060 C   0  0  0  0  0  3  0  0  0  0  0  0
  161.5410  204.8140  150.2840 C   0  0  0  0  0  3  0  0  0  0  0  0
  161.5610  207.7330  152.3930 C   0  0  0  0  0  3  0  0  0  0  0  0
  161.2160  203.5020  150.6660 C   0  0  0  0  0  0  0  0  0  0  0  0
  161.7650  207.1550  151.1430 C   0  0  0  0  0  0  0  0  0  0  0  0
  161.4960  205.8080  151.2620 C   0  0  0  0  0  0  0  0  0  0  0  0
  161.1500  205.5230  152.5240 N   0  0  0  0  0  0  0  0  0  0  0  0
  161.1850  206.6740  153.2190 C   0  0  0  0  0  0  0  0  0  0  0  0
  160.8250  204.2740  152.9440 C   0  0  0  0  0  3  0  0  0  0  0  0
  160.8630  206.7590  154.6140 N   0  0  0  0  0  2  0  0  0  0  0  0
  160.3860  210.2100  155.9940 C   0  0  0  0  0  3  0  0  0  0  0  0
  160.1650  209.2490  157.1570 C   0  0  0  0  0  3  0  0  0  0  0  0
  160.3520  207.9200  156.6110 N   0  0  0  0  0  0  0  0  0  0  0  0
  160.6370  207.9610  155.3590 C   0  0  0  0  0  0  0  0  0  0  0  0
  160.7020  209.3310  154.7940 C   0  0  0  0  0  2  0  0  0  0  0  0
  160.4400  203.6740  147.8350 O   0  0  0  0  0  0  0  0  0  0  0  0
  160.8730  202.5810  148.2940 C   0  0  0  0  0  0  0  0  0  0  0  0
  161.2590  202.4700  149.6730 N   0  0  0  0  0  2  0  0  0  0  0  0
  160.9850  201.4100  147.4080 C   0  0  0  0  0  0  0  0  0  0  0  0
  161.7480  199.1760  147.0050 N   0  0  0  0  0  0  0  0  0  0  0  0
  161.6490  200.2520  147.8310 C   0  0  0  0  0  3  0  0  0  0  0  0
  160.5410  200.3180  145.2900 C   0  0  0  0  0  3  0  0  0  0  0  0
  161.3290  198.0950  144.9600 F   0  0  0  0  0  0  0  0  0  0  0  0
  161.2130  199.1860  145.7550 C   0  0  0  0  0  0  0  0  0  0  0  0
  160.4300  201.4330  146.1230 C   0  0  0  0  0  3  0  0  0  0  0  0
  162.1370  207.8840  149.8970 C   0  0  0  0  0  2  0  0  0  0  0  0
  161.1960  207.4990  148.7730 C   0  0  0  0  0  2  0  0  0  0  0  0
  161.9980  207.2200  147.5170 C   0  0  0  0  0  2  0  0  0  0  0  0
  162.5470  205.3860  145.9660 C   0  0  0  0  0  2  0  0  0  0  0  0
  161.4770  205.9690  146.8310 C   0  0  2  0  0  3  0  0  0  0  0  0
  160.8210  206.0180  144.6840 N   0  0  0  0  0  0  0  0  0  0  0  0
  162.1120  205.4350  144.7180 C   0  0  0  0  0  3  0  0  0  0  0  0
  160.4530  206.3220  145.8590 N   0  0  0  0  0  2  0  0  0  0  0  0
  1  9  2  0  0  0  0
  2  4  2  0  0  0  0
  2  6  1  0  0  0  0
  3  8  2  0  0  0  0
  4  1  1  0  0  0  0
  5  6  2  0  0  0  0
  5  3  1  0  0  0  0
  6  7  1  0  0  0  0
  7  9  1  0  0  0  0
  7  8  1  0  0  0  0
  8 10  1  0  0  0  0
 10 14  1  0  0  0  0
 11 12  2  0  0  0  0
 13 12  1  0  0  0  0
 14 13  2  0  0  0  0
 15 14  1  0  0  0  0
 15 11  1  0  0  0  0
 16 17  2  0  0  0  0
 17 18  1  0  0  0  0
 18  4  1  0  0  0  0
 19 21  1  0  0  0  0
 19 17  1  0  0  0  0
 20 21  2  0  0  0  0
 22 24  2  0  0  0  0
 22 25  1  0  0  0  0
 23 24  1  0  0  0  0
 24 20  1  0  0  0  0
 25 19  2  0  0  0  0
 26  5  1  0  0  0  0
 27 26  1  0  0  0  0
 28 27  1  0  0  0  0
 29 30  1  0  0  0  0
 30 28  1  6  0  0  0
 31 32  2  0  0  0  0
 31 33  1  0  0  0  0
 32 29  1  0  0  0  0
 33 30  1  0  0  0  0
M  END
>  <MODEL>
5

>  <REMARK>
 VINA RESULT:      -7.6      3.123      3.814
  Name = 
  7 active torsions:
  status: ('A' for Active; 'I' for Inactive)
    1  A    between atoms: C_3  and  C_12
    2  A    between atoms: N_4  and  C_32
    3  A    between atoms: C_5  and  C_25
    4  A    between atoms: C_19  and  N_27
    5  A    between atoms: C_21  and  C_31
    6  A    between atoms: C_25  and  C_30
    7  A    between atoms: C_30  and  C_31
                            x       y       z     vdW  Elec       q    Type
                         _______ _______ _______ _____ _____    ______ ____

>  <TORSDO>
F 7

$$$$
=
 OpenBabel11042422353D

 33 37  0  0  1  0  0  0  0  0999 V2000
  162.3270  207.4440  147.7180 C   0  0  0  0  0  3  0  0  0  0  0  0
  161.5110  206.5930  149.8490 C   0  0  0  0  0  3  0  0  0  0  0  0
  161.5530  209.7450  151.5910 C   0  0  0  0  0  3  0  0  0  0  0  0
  161.8840  206.3640  148.5150 C   0  0  0  0  0  0  0  0  0  0  0  0
  161.2890  208.3780  151.5910 C   0  0  0  0  0  0  0  0  0  0  0  0
  161.5920  207.8990  150.3340 C   0  0  0  0  0  0  0  0  0  0  0  0
  162.0160  208.9020  149.5550 N   0  0  0  0  0  0  0  0  0  0  0  0
  161.9970  210.0230  150.2990 C   0  0  0  0  0  0  0  0  0  0  0  0
  162.3900  208.7340  148.2610 C   0  0  0  0  0  3  0  0  0  0  0  0
  162.3970  211.3050  149.7970 N   0  0  0  0  0  2  0  0  0  0  0  0
  160.5310  212.5650  146.8010 C   0  0  0  0  0  3  0  0  0  0  0  0
  161.5580  213.6370  147.1490 C   0  0  0  0  0  3  0  0  0  0  0  0
  162.2720  213.1390  148.3070 N   0  0  0  0  0  0  0  0  0  0  0  0
  161.8340  211.9860  148.6700 C   0  0  0  0  0  0  0  0  0  0  0  0
  160.7300  211.4630  147.8300 C   0  0  0  0  0  2  0  0  0  0  0  0
  160.6300  204.0140  149.7600 O   0  0  0  0  0  0  0  0  0  0  0  0
  161.1850  203.8970  148.6320 C   0  0  0  0  0  0  0  0  0  0  0  0
  161.8050  205.0280  148.0020 N   0  0  0  0  0  2  0  0  0  0  0  0
  161.1960  202.5880  147.9570 C   0  0  0  0  0  0  0  0  0  0  0  0
  160.8400  201.2600  145.9940 N   0  0  0  0  0  0  0  0  0  0  0  0
  160.8280  202.4740  146.6100 C   0  0  0  0  0  3  0  0  0  0  0  0
  161.5810  200.1950  147.9980 C   0  0  0  0  0  3  0  0  0  0  0  0
  161.2080  198.9390  146.0110 F   0  0  0  0  0  0  0  0  0  0  0  0
  161.2060  200.1300  146.6560 C   0  0  0  0  0  0  0  0  0  0  0  0
  161.5740  201.4310  148.6480 C   0  0  0  0  0  3  0  0  0  0  0  0
  160.8300  207.5800  152.7640 C   0  0  0  0  0  2  0  0  0  0  0  0
  160.5640  208.4990  153.9400 C   0  0  0  0  0  2  0  0  0  0  0  0
  161.0900  207.8590  155.2090 C   0  0  0  0  0  2  0  0  0  0  0  0
  161.0340  210.2500  155.8010 C   0  0  0  0  0  3  0  0  0  0  0  0
  161.0640  208.8610  156.3510 C   0  0  2  0  0  3  0  0  0  0  0  0
  162.9230  209.9550  156.9710 N   0  0  0  0  0  0  0  0  0  0  0  0
  162.1450  210.8510  156.1950 C   0  0  0  0  0  3  0  0  0  0  0  0
  162.3310  208.8380  157.0660 N   0  0  0  0  0  0  0  0  0  0  0  0
  1  9  2  0  0  0  0
  1  4  1  0  0  0  0
  2  6  1  0  0  0  0
  4  2  2  0  0  0  0
  5  3  1  0  0  0  0
  5 26  1  0  0  0  0
  6  5  2  0  0  0  0
  7  8  1  0  0  0  0
  7  6  1  0  0  0  0
  8  3  2  0  0  0  0
  9  7  1  0  0  0  0
 10  8  1  0  0  0  0
 11 12  2  0  0  0  0
 11 15  1  0  0  0  0
 12 13  1  0  0  0  0
 13 14  2  0  0  0  0
 14 10  1  0  0  0  0
 15 14  1  0  0  0  0
 17 16  2  0  0  0  0
 18  4  1  0  0  0  0
 18 17  1  0  0  0  0
 19 17  1  0  0  0  0
 19 25  1  0  0  0  0
 20 21  1  0  0  0  0
 20 24  2  0  0  0  0
 21 19  2  0  0  0  0
 22 25  2  0  0  0  0
 23 24  1  0  0  0  0
 24 22  1  0  0  0  0
 26 27  1  0  0  0  0
 27 28  1  0  0  0  0
 29 32  2  0  0  0  0
 29 30  1  0  0  0  0
 30 28  1  6  0  0  0
 30 33  1  0  0  0  0
 31 33  2  0  0  0  0
 32 31  1  0  0  0  0
M  END
>  <MODEL>
6

>  <REMARK>
 VINA RESULT:      -7.4      1.816      5.904
  Name = 
  7 active torsions:
  status: ('A' for Active; 'I' for Inactive)
    1  A    between atoms: C_3  and  C_12
    2  A    between atoms: N_4  and  C_32
    3  A    between atoms: C_5  and  C_25
    4  A    between atoms: C_19  and  N_27
    5  A    between atoms: C_21  and  C_31
    6  A    between atoms: C_25  and  C_30
    7  A    between atoms: C_30  and  C_31
                            x       y       z     vdW  Elec       q    Type
                         _______ _______ _______ _____ _____    ______ ____

>  <TORSDO>
F 7

$$$$
=
 OpenBabel11042422353D

 33 37  0  0  1  0  0  0  0  0999 V2000
  161.1160  205.8100  153.4420 C   0  0  0  0  0  3  0  0  0  0  0  0
  161.5080  207.0230  151.3660 C   0  0  0  0  0  3  0  0  0  0  0  0
  161.3670  210.3280  152.7900 C   0  0  0  0  0  3  0  0  0  0  0  0
  161.3500  205.8060  152.0480 C   0  0  0  0  0  0  0  0  0  0  0  0
  161.5430  209.5070  151.6800 C   0  0  0  0  0  0  0  0  0  0  0  0
  161.4270  208.2020  152.1080 C   0  0  0  0  0  0  0  0  0  0  0  0
  161.2020  208.1740  153.4290 N   0  0  0  0  0  0  0  0  0  0  0  0
  161.1640  209.4500  153.8540 C   0  0  0  0  0  0  0  0  0  0  0  0
  161.0410  207.0260  154.1340 C   0  0  0  0  0  3  0  0  0  0  0  0
  160.9340  209.8140  155.2220 N   0  0  0  0  0  2  0  0  0  0  0  0
  157.8230  211.7880  155.9080 C   0  0  0  0  0  3  0  0  0  0  0  0
  158.5150  211.5960  157.2530 C   0  0  0  0  0  3  0  0  0  0  0  0
  159.7150  210.8320  156.9750 N   0  0  0  0  0  0  0  0  0  0  0  0
  159.8210  210.5630  155.7230 C   0  0  0  0  0  0  0  0  0  0  0  0
  158.7130  211.0890  154.8910 C   0  0  0  0  0  2  0  0  0  0  0  0
  159.9630  205.1140  149.5490 O   0  0  0  0  0  0  0  0  0  0  0  0
  160.7420  204.2740  150.0790 C   0  0  0  0  0  0  0  0  0  0  0  0
  161.4320  204.5860  151.2990 N   0  0  0  0  0  2  0  0  0  0  0  0
  160.9460  202.9630  149.4390 C   0  0  0  0  0  0  0  0  0  0  0  0
  161.2910  201.6450  147.4690 N   0  0  0  0  0  0  0  0  0  0  0  0
  161.1040  202.8610  148.0510 C   0  0  0  0  0  3  0  0  0  0  0  0
  161.1780  200.5560  149.5910 C   0  0  0  0  0  3  0  0  0  0  0  0
  161.5190  199.3090  147.5920 F   0  0  0  0  0  0  0  0  0  0  0  0
  161.3300  200.5020  148.2040 C   0  0  0  0  0  0  0  0  0  0  0  0
  160.9840  201.7930  150.2070 C   0  0  0  0  0  3  0  0  0  0  0  0
  161.7470  209.9710  150.2780 C   0  0  0  0  0  2  0  0  0  0  0  0
  162.5710  208.9550  149.5120 C   0  0  0  0  0  2  0  0  0  0  0  0
  161.9210  208.6870  148.1700 C   0  0  0  0  0  2  0  0  0  0  0  0
  162.6220  206.4200  147.5040 C   0  0  0  0  0  2  0  0  0  0  0  0
  161.5020  207.2300  148.0720 C   0  0  2  0  0  3  0  0  0  0  0  0
  160.8670  206.3390  146.1120 N   0  0  0  0  0  0  0  0  0  0  0  0
  162.1980  205.9180  146.3560 C   0  0  0  0  0  3  0  0  0  0  0  0
  160.4650  207.0740  147.0630 N   0  0  0  0  0  2  0  0  0  0  0  0
  1  9  2  0  0  0  0
  2  4  2  0  0  0  0
  2  6  1  0  0  0  0
  3  8  2  0  0  0  0
  4  1  1  0  0  0  0
  5  6  2  0  0  0  0
  5  3  1  0  0  0  0
  6  7  1  0  0  0  0
  7  8  1  0  0  0  0
  7  9  1  0  0  0  0
  8 10  1  0  0  0  0
 10 14  1  0  0  0  0
 11 12  2  0  0  0  0
 13 12  1  0  0  0  0
 14 13  2  0  0  0  0
 15 14  1  0  0  0  0
 15 11  1  0  0  0  0
 16 17  2  0  0  0  0
 17 18  1  0  0  0  0
 18  4  1  0  0  0  0
 19 17  1  0  0  0  0
 19 25  1  0  0  0  0
 20 21  1  0  0  0  0
 20 24  2  0  0  0  0
 21 19  2  0  0  0  0
 22 25  2  0  0  0  0
 23 24  1  0  0  0  0
 24 22  1  0  0  0  0
 26  5  1  0  0  0  0
 27 26  1  0  0  0  0
 28 27  1  0  0  0  0
 29 30  1  0  0  0  0
 30 28  1  6  0  0  0
 31 32  2  0  0  0  0
 31 33  1  0  0  0  0
 32 29  1  0  0  0  0
 33 30  1  0  0  0  0
M  END
>  <MODEL>
7

>  <REMARK>
 VINA RESULT:      -7.2      2.310      2.801
  Name = 
  7 active torsions:
  status: ('A' for Active; 'I' for Inactive)
    1  A    between atoms: C_3  and  C_12
    2  A    between atoms: N_4  and  C_32
    3  A    between atoms: C_5  and  C_25
    4  A    between atoms: C_19  and  N_27
    5  A    between atoms: C_21  and  C_31
    6  A    between atoms: C_25  and  C_30
    7  A    between atoms: C_30  and  C_31
                            x       y       z     vdW  Elec       q    Type
                         _______ _______ _______ _____ _____    ______ ____

>  <TORSDO>
F 7

$$$$
=
 OpenBabel11042422353D

 33 37  0  0  1  0  0  0  0  0999 V2000
  161.9650  209.4740  150.2200 C   0  0  0  0  0  3  0  0  0  0  0  0
  161.2830  207.6690  151.7060 C   0  0  0  0  0  3  0  0  0  0  0  0
  161.6570  205.0050  149.3110 C   0  0  0  0  0  3  0  0  0  0  0  0
  161.5230  209.0350  151.4880 C   0  0  0  0  0  0  0  0  0  0  0  0
  161.3360  205.4240  150.6000 C   0  0  0  0  0  0  0  0  0  0  0  0
  161.4980  206.7920  150.6430 C   0  0  0  0  0  0  0  0  0  0  0  0
  161.9170  207.2380  149.4500 N   0  0  0  0  0  0  0  0  0  0  0  0
  162.0180  206.1710  148.6370 C   0  0  0  0  0  0  0  0  0  0  0  0
  162.1610  208.5470  149.1880 C   0  0  0  0  0  3  0  0  0  0  0  0
  162.4340  206.2650  147.2680 N   0  0  0  0  0  2  0  0  0  0  0  0
  160.3560  204.3900  144.7760 C   0  0  0  0  0  3  0  0  0  0  0  0
  161.4660  205.0720  143.9830 C   0  0  0  0  0  3  0  0  0  0  0  0
  162.2610  205.7930  144.9570 N   0  0  0  0  0  0  0  0  0  0  0  0
  161.8010  205.6390  146.1460 C   0  0  0  0  0  0  0  0  0  0  0  0
  160.5950  204.7800  146.2260 C   0  0  0  0  0  2  0  0  0  0  0  0
  159.0980  210.5800  152.1030 O   0  0  0  0  0  0  0  0  0  0  0  0
  160.1100  210.6920  152.8490 C   0  0  0  0  0  0  0  0  0  0  0  0
  161.3080  209.9490  152.5710 N   0  0  0  0  0  2  0  0  0  0  0  0
  160.0630  211.5910  154.0150 C   0  0  0  0  0  0  0  0  0  0  0  0
  159.2580  213.5880  155.0660 N   0  0  0  0  0  0  0  0  0  0  0  0
  159.2950  212.7630  153.9840 C   0  0  0  0  0  3  0  0  0  0  0  0
  160.7340  212.1520  156.2750 C   0  0  0  0  0  3  0  0  0  0  0  0
  159.8950  214.1520  157.2570 F   0  0  0  0  0  0  0  0  0  0  0  0
  159.9560  213.3080  156.1990 C   0  0  0  0  0  0  0  0  0  0  0  0
  160.7860  211.2930  155.1760 C   0  0  0  0  0  3  0  0  0  0  0  0
  160.8400  204.5490  151.7010 C   0  0  0  0  0  2  0  0  0  0  0  0
  160.1520  203.3300  151.1200 C   0  0  0  0  0  2  0  0  0  0  0  0
  161.1700  202.2280  150.9080 C   0  0  0  0  0  2  0  0  0  0  0  0
  161.6630  200.7280  149.0160 C   0  0  0  0  0  2  0  0  0  0  0  0
  160.6070  201.1660  149.9780 C   0  0  2  0  0  3  0  0  0  0  0  0
  159.9770  201.6790  147.8850 N   0  0  0  0  0  0  0  0  0  0  0  0
  161.2450  201.0490  147.8030 C   0  0  0  0  0  3  0  0  0  0  0  0
  159.6090  201.7520  149.0960 N   0  0  0  0  0  2  0  0  0  0  0  0
  1  4  1  0  0  0  0
  3  5  1  0  0  0  0
  4  2  2  0  0  0  0
  4 18  1  0  0  0  0
  5  6  2  0  0  0  0
  5 26  1  0  0  0  0
  6  2  1  0  0  0  0
  7  6  1  0  0  0  0
  8  3  2  0  0  0  0
  8  7  1  0  0  0  0
  9  7  1  0  0  0  0
  9  1  2  0  0  0  0
 10  8  1  0  0  0  0
 11 15  1  0  0  0  0
 12 11  2  0  0  0  0
 12 13  1  0  0  0  0
 13 14  2  0  0  0  0
 14 15  1  0  0  0  0
 14 10  1  0  0  0  0
 16 17  2  0  0  0  0
 17 19  1  0  0  0  0
 18 17  1  0  0  0  0
 19 25  1  0  0  0  0
 20 24  2  0  0  0  0
 21 19  2  0  0  0  0
 21 20  1  0  0  0  0
 24 22  1  0  0  0  0
 24 23  1  0  0  0  0
 25 22  2  0  0  0  0
 27 26  1  0  0  0  0
 28 27  1  0  0  0  0
 29 30  1  0  0  0  0
 30 28  1  1  0  0  0
 31 33  1  0  0  0  0
 32 31  2  0  0  0  0
 32 29  1  0  0  0  0
 33 30  1  0  0  0  0
M  END
>  <MODEL>
8

>  <REMARK>
 VINA RESULT:      -7.1      4.354     10.102
  Name = 
  7 active torsions:
  status: ('A' for Active; 'I' for Inactive)
    1  A    between atoms: C_3  and  C_12
    2  A    between atoms: N_4  and  C_32
    3  A    between atoms: C_5  and  C_25
    4  A    between atoms: C_19  and  N_27
    5  A    between atoms: C_21  and  C_31
    6  A    between atoms: C_25  and  C_30
    7  A    between atoms: C_30  and  C_31
                            x       y       z     vdW  Elec       q    Type
                         _______ _______ _______ _____ _____    ______ ____

>  <TORSDO>
F 7

$$$$
=
 OpenBabel11042422353D

 33 37  0  0  1  0  0  0  0  0999 V2000
  160.1780  213.7880  149.8910 C   0  0  0  0  0  3  0  0  0  0  0  0
  161.3130  211.6390  150.0510 C   0  0  0  0  0  3  0  0  0  0  0  0
  160.4440  210.9730  153.4820 C   0  0  0  0  0  3  0  0  0  0  0  0
  160.9600  212.7710  149.2990 C   0  0  0  0  0  0  0  0  0  0  0  0
  161.0750  210.5760  152.3060 C   0  0  0  0  0  0  0  0  0  0  0  0
  160.8660  211.5680  151.3710 C   0  0  0  0  0  0  0  0  0  0  0  0
  160.1260  212.5490  151.9050 N   0  0  0  0  0  0  0  0  0  0  0  0
  159.8630  212.2030  153.1780 C   0  0  0  0  0  0  0  0  0  0  0  0
  159.7600  213.6630  151.2230 C   0  0  0  0  0  3  0  0  0  0  0  0
  159.0960  213.0220  154.0710 N   0  0  0  0  0  2  0  0  0  0  0  0
  155.9030  211.5340  155.3490 C   0  0  0  0  0  3  0  0  0  0  0  0
  156.0100  212.9210  155.9740 C   0  0  0  0  0  3  0  0  0  0  0  0
  157.2470  213.4850  155.4720 N   0  0  0  0  0  0  0  0  0  0  0  0
  157.8500  212.6700  154.6830 C   0  0  0  0  0  0  0  0  0  0  0  0
  157.1450  211.3800  154.4860 C   0  0  0  0  0  2  0  0  0  0  0  0
  159.3740  212.4990  146.8380 O   0  0  0  0  0  0  0  0  0  0  0  0
  160.6140  212.7210  146.7550 C   0  0  0  0  0  0  0  0  0  0  0  0
  161.4120  212.8580  147.9410 N   0  0  0  0  0  2  0  0  0  0  0  0
  161.2480  212.8420  145.4310 C   0  0  0  0  0  0  0  0  0  0  0  0
  161.1310  212.6410  143.0470 N   0  0  0  0  0  0  0  0  0  0  0  0
  160.5370  212.5260  144.2660 C   0  0  0  0  0  3  0  0  0  0  0  0
  163.1650  213.3840  144.0520 C   0  0  0  0  0  3  0  0  0  0  0  0
  162.9770  213.1620  141.6890 F   0  0  0  0  0  0  0  0  0  0  0  0
  162.4180  213.0590  142.9180 C   0  0  0  0  0  0  0  0  0  0  0  0
  162.5740  213.2730  145.3110 C   0  0  0  0  0  3  0  0  0  0  0  0
  161.8850  209.3380  152.1270 C   0  0  0  0  0  2  0  0  0  0  0  0
  160.9810  208.1780  151.7610 C   0  0  0  0  0  2  0  0  0  0  0  0
  161.6960  207.2700  150.7810 C   0  0  0  0  0  2  0  0  0  0  0  0
  160.4910  206.3950  148.8180 C   0  0  0  0  0  2  0  0  0  0  0  0
  161.2420  207.5670  149.3630 C   0  0  2  0  0  3  0  0  0  0  0  0
  162.3410  206.7240  147.5960 N   0  0  0  0  0  0  0  0  0  0  0  0
  161.1760  205.9380  147.7830 C   0  0  0  0  0  3  0  0  0  0  0  0
  162.3910  207.6380  148.4730 N   0  0  0  0  0  2  0  0  0  0  0  0
  1  9  2  0  0  0  0
  2  6  1  0  0  0  0
  4  1  1  0  0  0  0
  4  2  2  0  0  0  0
  5  3  1  0  0  0  0
  6  7  1  0  0  0  0
  6  5  2  0  0  0  0
  7  8  1  0  0  0  0
  8  3  2  0  0  0  0
  8 10  1  0  0  0  0
  9  7  1  0  0  0  0
 10 14  1  0  0  0  0
 11 12  2  0  0  0  0
 13 12  1  0  0  0  0
 14 13  2  0  0  0  0
 15 14  1  0  0  0  0
 15 11  1  0  0  0  0
 17 16  2  0  0  0  0
 17 18  1  0  0  0  0
 18  4  1  0  0  0  0
 19 17  1  0  0  0  0
 20 21  1  0  0  0  0
 21 19  2  0  0  0  0
 22 25  2  0  0  0  0
 23 24  1  0  0  0  0
 24 20  2  0  0  0  0
 24 22  1  0  0  0  0
 25 19  1  0  0  0  0
 26  5  1  0  0  0  0
 27 26  1  0  0  0  0
 28 27  1  0  0  0  0
 29 30  1  0  0  0  0
 30 28  1  1  0  0  0
 31 32  2  0  0  0  0
 31 33  1  0  0  0  0
 32 29  1  0  0  0  0
 33 30  1  0  0  0  0
M  END
>  <MODEL>
9

>  <REMARK>
 VINA RESULT:      -7.1      3.879      7.420
  Name = 
  7 active torsions:
  status: ('A' for Active; 'I' for Inactive)
    1  A    between atoms: C_3  and  C_12
    2  A    between atoms: N_4  and  C_32
    3  A    between atoms: C_5  and  C_25
    4  A    between atoms: C_19  and  N_27
    5  A    between atoms: C_21  and  C_31
    6  A    between atoms: C_25  and  C_30
    7  A    between atoms: C_30  and  C_31
                            x       y       z     vdW  Elec       q    Type
                         _______ _______ _______ _____ _____    ______ ____

>  <TORSDO>
F 7

$$$$
