=
 OpenBabel11052411173D

 27 30  0  0  1  0  0  0  0  0999 V2000
  161.3030  204.8220  150.4570 C   0  0  1  0  0  3  0  0  0  0  0  0
  160.3140  206.5610  147.1960 C   0  0  0  0  0  3  0  0  0  0  0  0
  161.2390  205.2220  148.9980 C   0  0  0  0  0  0  0  0  0  0  0  0
  161.1450  205.9160  146.2770 C   0  0  0  0  0  0  0  0  0  0  0  0
  162.0700  204.5750  148.0790 C   0  0  0  0  0  3  0  0  0  0  0  0
  160.3580  206.2180  148.5490 C   0  0  0  0  0  3  0  0  0  0  0  0
  162.0260  204.9180  146.7260 C   0  0  0  0  0  3  0  0  0  0  0  0
  161.3340  205.3680  143.8720 C   0  0  0  0  0  1  0  0  0  0  0  0
  161.0770  206.2820  144.9290 O   0  0  0  0  0  0  0  0  0  0  0  0
  160.8880  203.1600  152.1020 C   0  0  0  0  0  1  0  0  0  0  0  0
  161.2580  203.3700  150.7090 N   0  0  0  0  0  0  0  0  0  0  0  0
  160.9650  201.7040  148.9470 C   0  0  0  0  0  2  0  0  0  0  0  0
  158.9710  200.6520  149.8170 N   0  0  0  0  0  1  0  0  0  0  0  0
  160.2600  201.2050  150.1870 C   0  0  2  0  0  3  0  0  0  0  0  0
  160.2710  202.6910  149.8680 C   0  0  1  0  0  3  0  0  0  0  0  0
  162.4500  205.4850  151.2210 C   0  0  0  0  0  2  0  0  0  0  0  0
  161.7430  209.1300  151.6580 N   0  0  0  0  0  0  0  0  0  0  0  0
  162.0810  207.8890  151.3010 N   0  0  0  0  0  0  0  0  0  0  0  0
  160.9440  211.0210  152.8530 N   0  0  0  0  0  1  0  0  0  0  0  0
  161.4540  206.4880  153.2150 C   0  0  0  0  0  3  0  0  0  0  0  0
  160.0280  208.3600  155.8510 C   0  0  0  0  0  3  0  0  0  0  0  0
  160.9420  207.4300  154.0720 C   0  0  0  0  0  0  0  0  0  0  0  0
  161.9790  206.6990  151.9490 C   0  0  0  0  0  0  0  0  0  0  0  0
  160.2540  209.3780  154.9920 N   0  0  0  0  0  0  0  0  0  0  0  0
  161.1780  209.6180  152.7910 C   0  0  0  0  0  0  0  0  0  0  0  0
  160.8130  208.8500  153.8880 C   0  0  0  0  0  0  0  0  0  0  0  0
  160.4380  207.1470  155.3210 C   0  0  0  0  0  3  0  0  0  0  0  0
  1 11  1  0  0  0  0
  1 16  1  6  0  0  0
  2  6  1  0  0  0  0
  3  1  1  0  0  0  0
  4  7  1  0  0  0  0
  4  2  2  0  0  0  0
  5  3  1  0  0  0  0
  6  3  2  0  0  0  0
  7  5  2  0  0  0  0
  8  9  1  0  0  0  0
  9  4  1  0  0  0  0
 11 10  1  0  0  0  0
 12 15  1  0  0  0  0
 12 14  1  0  0  0  0
 14 13  1  6  0  0  0
 15 14  1  0  0  0  0
 15 11  1  1  0  0  0
 16 23  1  0  0  0  0
 17 25  1  0  0  0  0
 18 17  2  0  0  0  0
 18 23  1  0  0  0  0
 20 22  1  0  0  0  0
 22 27  2  0  0  0  0
 23 20  2  0  0  0  0
 24 21  2  0  0  0  0
 25 19  1  0  0  0  0
 25 26  2  0  0  0  0
 26 22  1  0  0  0  0
 26 24  1  0  0  0  0
 27 21  1  0  0  0  0
M  END
>  <MODEL>
1

>  <REMARK>
 VINA RESULT:      -7.4      0.000      0.000
  Name = 
  6 active torsions:
  status: ('A' for Active; 'I' for Inactive)
    1  A    between atoms: C_6  and  C_12
    2  A    between atoms: C_6  and  C_21
    3  A    between atoms: C_7  and  C_12
    4  A    between atoms: C_12  and  N_16
    5  A    between atoms: C_13  and  O_23
    6  A    between atoms: N_16  and  C_20
                            x       y       z     vdW  Elec       q    Type
                         _______ _______ _______ _____ _____    ______ ____

>  <TORSDO>
F 6

$$$$
=
 OpenBabel11052411173D

 27 30  0  0  1  0  0  0  0  0999 V2000
  161.2740  208.1500  151.1310 C   0  0  1  0  0  3  0  0  0  0  0  0
  162.3480  206.9790  147.6510 C   0  0  0  0  0  3  0  0  0  0  0  0
  161.3540  207.3810  149.8300 C   0  0  0  0  0  0  0  0  0  0  0  0
  161.4490  205.9340  147.4230 C   0  0  0  0  0  0  0  0  0  0  0  0
  160.4530  206.3360  149.6020 C   0  0  0  0  0  3  0  0  0  0  0  0
  162.3030  207.7000  148.8470 C   0  0  0  0  0  3  0  0  0  0  0  0
  160.4980  205.6150  148.4060 C   0  0  0  0  0  3  0  0  0  0  0  0
  160.8210  205.6400  145.0480 C   0  0  0  0  0  1  0  0  0  0  0  0
  161.5200  205.2310  146.2160 O   0  0  0  0  0  0  0  0  0  0  0  0
  162.3870  206.3560  152.2190 C   0  0  0  0  0  1  0  0  0  0  0  0
  161.3030  207.3200  152.3500 N   0  0  0  0  0  0  0  0  0  0  0  0
  160.2360  208.6990  154.0610 C   0  0  0  0  0  2  0  0  0  0  0  0
  161.4850  207.8880  155.9640 N   0  0  0  0  0  1  0  0  0  0  0  0
  160.8240  207.4830  154.7370 C   0  0  2  0  0  3  0  0  0  0  0  0
  161.5420  208.1140  153.5560 C   0  0  1  0  0  3  0  0  0  0  0  0
  162.2730  209.3050  151.2190 C   0  0  0  0  0  2  0  0  0  0  0  0
  160.0950  212.3150  151.6430 N   0  0  0  0  0  0  0  0  0  0  0  0
  160.7940  211.1790  151.6950 N   0  0  0  0  0  0  0  0  0  0  0  0
  159.1480  214.3790  150.9480 N   0  0  0  0  0  1  0  0  0  0  0  0
  162.0030  211.0820  149.5620 C   0  0  0  0  0  3  0  0  0  0  0  0
  161.3300  213.8720  147.5000 C   0  0  0  0  0  3  0  0  0  0  0  0
  161.5780  212.2450  148.9690 C   0  0  0  0  0  0  0  0  0  0  0  0
  161.6410  210.5930  150.8080 C   0  0  0  0  0  0  0  0  0  0  0  0
  160.5480  214.2130  148.5470 N   0  0  0  0  0  0  0  0  0  0  0  0
  160.0000  213.2690  150.6840 C   0  0  0  0  0  0  0  0  0  0  0  0
  160.6720  213.2410  149.4690 C   0  0  0  0  0  0  0  0  0  0  0  0
  161.9810  212.6680  147.7230 C   0  0  0  0  0  3  0  0  0  0  0  0
  1 16  1  1  0  0  0
  1 11  1  0  0  0  0
  2  6  1  0  0  0  0
  3  1  1  0  0  0  0
  4  2  2  0  0  0  0
  4  7  1  0  0  0  0
  5  3  1  0  0  0  0
  6  3  2  0  0  0  0
  7  5  2  0  0  0  0
  8  9  1  0  0  0  0
  9  4  1  0  0  0  0
 10 11  1  0  0  0  0
 12 14  1  0  0  0  0
 14 13  1  1  0  0  0
 15 11  1  6  0  0  0
 15 12  1  0  0  0  0
 15 14  1  0  0  0  0
 17 18  1  0  0  0  0
 20 23  1  0  0  0  0
 21 27  2  0  0  0  0
 21 24  1  0  0  0  0
 22 26  1  0  0  0  0
 22 20  2  0  0  0  0
 23 16  1  0  0  0  0
 23 18  2  0  0  0  0
 24 26  2  0  0  0  0
 25 19  1  0  0  0  0
 25 17  2  0  0  0  0
 26 25  1  0  0  0  0
 27 22  1  0  0  0  0
M  END
>  <MODEL>
2

>  <REMARK>
 VINA RESULT:      -7.0      3.078      5.544
  Name = 
  6 active torsions:
  status: ('A' for Active; 'I' for Inactive)
    1  A    between atoms: C_6  and  C_12
    2  A    between atoms: C_6  and  C_21
    3  A    between atoms: C_7  and  C_12
    4  A    between atoms: C_12  and  N_16
    5  A    between atoms: C_13  and  O_23
    6  A    between atoms: N_16  and  C_20
                            x       y       z     vdW  Elec       q    Type
                         _______ _______ _______ _____ _____    ______ ____

>  <TORSDO>
F 6

$$$$
=
 OpenBabel11052411173D

 27 30  0  0  1  0  0  0  0  0999 V2000
  161.2750  204.8680  150.5270 C   0  0  1  0  0  3  0  0  0  0  0  0
  162.0540  204.9910  146.7840 C   0  0  0  0  0  3  0  0  0  0  0  0
  161.2440  205.2370  149.0590 C   0  0  0  0  0  0  0  0  0  0  0  0
  161.1590  205.9720  146.3480 C   0  0  0  0  0  0  0  0  0  0  0  0
  160.3480  206.2200  148.6250 C   0  0  0  0  0  3  0  0  0  0  0  0
  162.0980  204.6240  148.1300 C   0  0  0  0  0  3  0  0  0  0  0  0
  160.3040  206.5860  147.2780 C   0  0  0  0  0  3  0  0  0  0  0  0
  161.2950  205.3600  143.9550 C   0  0  0  0  0  1  0  0  0  0  0  0
  161.1390  206.3170  144.9940 O   0  0  0  0  0  0  0  0  0  0  0  0
  160.9350  203.2330  152.2150 C   0  0  0  0  0  1  0  0  0  0  0  0
  161.2580  203.4200  150.8070 N   0  0  0  0  0  0  0  0  0  0  0  0
  160.9360  201.8800  148.9400 C   0  0  0  0  0  2  0  0  0  0  0  0
  159.1580  200.5590  149.9050 N   0  0  0  0  0  1  0  0  0  0  0  0
  160.4210  201.2120  150.1930 C   0  0  2  0  0  3  0  0  0  0  0  0
  160.2550  202.7120  150.0110 C   0  0  1  0  0  3  0  0  0  0  0  0
  162.3820  205.5750  151.3100 C   0  0  0  0  0  2  0  0  0  0  0  0
  160.9450  206.8960  154.4990 N   0  0  0  0  0  0  0  0  0  0  0  0
  161.4560  206.2240  153.4650 N   0  0  0  0  0  0  0  0  0  0  0  0
  160.0860  208.6060  155.9060 N   0  0  0  0  0  1  0  0  0  0  0  0
  161.7410  207.9020  151.6980 C   0  0  0  0  0  3  0  0  0  0  0  0
  160.7100  211.1240  152.7160 C   0  0  0  0  0  3  0  0  0  0  0  0
  161.2800  209.0280  152.3320 C   0  0  0  0  0  0  0  0  0  0  0  0
  161.8170  206.6180  152.2150 C   0  0  0  0  0  0  0  0  0  0  0  0
  160.4350  210.4630  153.8610 N   0  0  0  0  0  0  0  0  0  0  0  0
  160.6200  208.2040  154.6480 C   0  0  0  0  0  0  0  0  0  0  0  0
  160.7700  209.1750  153.6670 C   0  0  0  0  0  0  0  0  0  0  0  0
  161.2310  210.2760  151.7520 C   0  0  0  0  0  3  0  0  0  0  0  0
  1 11  1  0  0  0  0
  1 16  1  6  0  0  0
  2  6  1  0  0  0  0
  3  1  1  0  0  0  0
  4  2  2  0  0  0  0
  4  7  1  0  0  0  0
  5  3  1  0  0  0  0
  6  3  2  0  0  0  0
  7  5  2  0  0  0  0
  8  9  1  0  0  0  0
  9  4  1  0  0  0  0
 11 10  1  0  0  0  0
 12 15  1  0  0  0  0
 12 14  1  0  0  0  0
 14 13  1  6  0  0  0
 15 14  1  0  0  0  0
 15 11  1  1  0  0  0
 16 23  1  0  0  0  0
 17 25  1  0  0  0  0
 18 17  2  0  0  0  0
 20 23  2  0  0  0  0
 20 22  1  0  0  0  0
 21 24  2  0  0  0  0
 22 26  1  0  0  0  0
 23 18  1  0  0  0  0
 25 19  1  0  0  0  0
 26 24  1  0  0  0  0
 26 25  2  0  0  0  0
 27 22  2  0  0  0  0
 27 21  1  0  0  0  0
M  END
>  <MODEL>
3

>  <REMARK>
 VINA RESULT:      -7.0      0.980      2.115
  Name = 
  6 active torsions:
  status: ('A' for Active; 'I' for Inactive)
    1  A    between atoms: C_6  and  C_12
    2  A    between atoms: C_6  and  C_21
    3  A    between atoms: C_7  and  C_12
    4  A    between atoms: C_12  and  N_16
    5  A    between atoms: C_13  and  O_23
    6  A    between atoms: N_16  and  C_20
                            x       y       z     vdW  Elec       q    Type
                         _______ _______ _______ _____ _____    ______ ____

>  <TORSDO>
F 6

$$$$
=
 OpenBabel11052411173D

 27 30  0  0  1  0  0  0  0  0999 V2000
  161.2530  208.0810  151.1940 C   0  0  1  0  0  3  0  0  0  0  0  0
  160.5730  205.5510  148.4050 C   0  0  0  0  0  3  0  0  0  0  0  0
  161.3270  207.3230  149.8850 C   0  0  0  0  0  0  0  0  0  0  0  0
  161.5160  205.9370  147.4480 C   0  0  0  0  0  0  0  0  0  0  0  0
  162.2710  207.7090  148.9290 C   0  0  0  0  0  3  0  0  0  0  0  0
  160.4770  206.2380  149.6170 C   0  0  0  0  0  3  0  0  0  0  0  0
  162.3670  207.0220  147.7170 C   0  0  0  0  0  3  0  0  0  0  0  0
  160.8920  205.6340  145.0740 C   0  0  0  0  0  1  0  0  0  0  0  0
  161.5880  205.2290  146.2450 O   0  0  0  0  0  0  0  0  0  0  0  0
  162.3530  206.2770  152.2780 C   0  0  0  0  0  1  0  0  0  0  0  0
  161.2670  207.2400  152.4050 N   0  0  0  0  0  0  0  0  0  0  0  0
  160.1730  208.5750  154.1330 C   0  0  0  0  0  2  0  0  0  0  0  0
  161.4380  207.7630  156.0260 N   0  0  0  0  0  1  0  0  0  0  0  0
  160.7850  207.3610  154.7940 C   0  0  2  0  0  3  0  0  0  0  0  0
  161.4910  208.0220  153.6210 C   0  0  1  0  0  3  0  0  0  0  0  0
  162.2670  209.2220  151.2950 C   0  0  0  0  0  2  0  0  0  0  0  0
  161.5300  212.1730  149.1220 N   0  0  0  0  0  0  0  0  0  0  0  0
  161.9300  211.0540  149.7290 N   0  0  0  0  0  0  0  0  0  0  0  0
  160.4740  214.2400  148.6140 N   0  0  0  0  0  1  0  0  0  0  0  0
  160.7930  211.0740  151.9040 C   0  0  0  0  0  3  0  0  0  0  0  0
  158.7480  213.9230  152.3330 C   0  0  0  0  0  3  0  0  0  0  0  0
  160.0870  212.2480  151.8180 C   0  0  0  0  0  0  0  0  0  0  0  0
  161.6390  210.5300  150.9500 C   0  0  0  0  0  0  0  0  0  0  0  0
  159.2110  214.2030  151.0960 N   0  0  0  0  0  0  0  0  0  0  0  0
  160.6920  213.1630  149.5200 C   0  0  0  0  0  0  0  0  0  0  0  0
  160.0360  213.2000  150.7430 C   0  0  0  0  0  0  0  0  0  0  0  0
  159.2640  212.7280  152.8110 C   0  0  0  0  0  3  0  0  0  0  0  0
  1 16  1  1  0  0  0
  1 11  1  0  0  0  0
  2  6  1  0  0  0  0
  3  1  1  0  0  0  0
  4  7  1  0  0  0  0
  4  2  2  0  0  0  0
  5  3  1  0  0  0  0
  6  3  2  0  0  0  0
  7  5  2  0  0  0  0
  8  9  1  0  0  0  0
  9  4  1  0  0  0  0
 10 11  1  0  0  0  0
 12 14  1  0  0  0  0
 14 13  1  1  0  0  0
 15 11  1  6  0  0  0
 15 12  1  0  0  0  0
 15 14  1  0  0  0  0
 17 25  2  0  0  0  0
 17 18  1  0  0  0  0
 18 23  2  0  0  0  0
 19 25  1  0  0  0  0
 21 27  2  0  0  0  0
 22 20  2  0  0  0  0
 22 27  1  0  0  0  0
 23 16  1  0  0  0  0
 23 20  1  0  0  0  0
 24 21  1  0  0  0  0
 25 26  1  0  0  0  0
 26 24  2  0  0  0  0
 26 22  1  0  0  0  0
M  END
>  <MODEL>
4

>  <REMARK>
 VINA RESULT:      -6.9      2.742      4.947
  Name = 
  6 active torsions:
  status: ('A' for Active; 'I' for Inactive)
    1  A    between atoms: C_6  and  C_12
    2  A    between atoms: C_6  and  C_21
    3  A    between atoms: C_7  and  C_12
    4  A    between atoms: C_12  and  N_16
    5  A    between atoms: C_13  and  O_23
    6  A    between atoms: N_16  and  C_20
                            x       y       z     vdW  Elec       q    Type
                         _______ _______ _______ _____ _____    ______ ____

>  <TORSDO>
F 6

$$$$
=
 OpenBabel11052411173D

 27 30  0  0  1  0  0  0  0  0999 V2000
  160.9150  209.8590  154.0290 C   0  0  1  0  0  3  0  0  0  0  0  0
  161.1550  207.3010  151.1940 C   0  0  0  0  0  3  0  0  0  0  0  0
  161.1830  209.2190  152.6830 C   0  0  0  0  0  0  0  0  0  0  0  0
  161.7160  208.0730  150.1730 C   0  0  0  0  0  0  0  0  0  0  0  0
  161.7450  209.9920  151.6630 C   0  0  0  0  0  3  0  0  0  0  0  0
  160.8890  207.8680  152.4430 C   0  0  0  0  0  3  0  0  0  0  0  0
  162.0110  209.4250  150.4150 C   0  0  0  0  0  3  0  0  0  0  0  0
  161.1090  206.5040  148.3600 C   0  0  0  0  0  1  0  0  0  0  0  0
  161.9710  207.4770  148.9350 O   0  0  0  0  0  0  0  0  0  0  0  0
  162.4940  210.3330  155.7380 C   0  0  0  0  0  1  0  0  0  0  0  0
  161.6690  209.2820  155.1570 N   0  0  0  0  0  0  0  0  0  0  0  0
  159.4940  208.2610  155.5930 C   0  0  0  0  0  2  0  0  0  0  0  0
  160.2080  206.6640  157.2600 N   0  0  0  0  0  1  0  0  0  0  0  0
  160.5660  207.2730  155.9930 C   0  0  2  0  0  3  0  0  0  0  0  0
  160.7900  208.7610  156.2040 C   0  0  1  0  0  3  0  0  0  0  0  0
  161.0200  211.3850  154.0090 C   0  0  0  0  0  2  0  0  0  0  0  0
  158.2280  213.4050  152.5600 N   0  0  0  0  0  0  0  0  0  0  0  0
  159.3380  212.7410  152.8900 N   0  0  0  0  0  0  0  0  0  0  0  0
  156.0510  214.3550  152.5720 N   0  0  0  0  0  1  0  0  0  0  0  0
  158.8660  211.7780  155.0960 C   0  0  0  0  0  3  0  0  0  0  0  0
  155.6280  212.5820  156.2580 C   0  0  0  0  0  3  0  0  0  0  0  0
  157.5870  212.2270  155.3090 C   0  0  0  0  0  0  0  0  0  0  0  0
  159.6690  212.0160  153.9910 C   0  0  0  0  0  0  0  0  0  0  0  0
  155.5760  213.2340  155.0760 N   0  0  0  0  0  0  0  0  0  0  0  0
  157.0530  213.5740  153.2160 C   0  0  0  0  0  0  0  0  0  0  0  0
  156.7580  213.0410  154.4640 C   0  0  0  0  0  0  0  0  0  0  0  0
  156.8490  211.9510  156.4370 C   0  0  0  0  0  3  0  0  0  0  0  0
  1 16  1  6  0  0  0
  1 11  1  0  0  0  0
  2  6  1  0  0  0  0
  3  1  1  0  0  0  0
  4  7  1  0  0  0  0
  4  2  2  0  0  0  0
  5  3  1  0  0  0  0
  6  3  2  0  0  0  0
  7  5  2  0  0  0  0
  8  9  1  0  0  0  0
  9  4  1  0  0  0  0
 11 10  1  0  0  0  0
 12 14  1  0  0  0  0
 12 15  1  0  0  0  0
 14 15  1  0  0  0  0
 14 13  1  1  0  0  0
 15 11  1  6  0  0  0
 17 18  2  0  0  0  0
 17 25  1  0  0  0  0
 18 23  1  0  0  0  0
 19 25  1  0  0  0  0
 20 22  1  0  0  0  0
 21 27  1  0  0  0  0
 22 27  2  0  0  0  0
 23 16  1  0  0  0  0
 23 20  2  0  0  0  0
 24 21  2  0  0  0  0
 25 26  2  0  0  0  0
 26 24  1  0  0  0  0
 26 22  1  0  0  0  0
M  END
>  <MODEL>
5

>  <REMARK>
 VINA RESULT:      -6.5      3.636      6.460
  Name = 
  6 active torsions:
  status: ('A' for Active; 'I' for Inactive)
    1  A    between atoms: C_6  and  C_12
    2  A    between atoms: C_6  and  C_21
    3  A    between atoms: C_7  and  C_12
    4  A    between atoms: C_12  and  N_16
    5  A    between atoms: C_13  and  O_23
    6  A    between atoms: N_16  and  C_20
                            x       y       z     vdW  Elec       q    Type
                         _______ _______ _______ _____ _____    ______ ____

>  <TORSDO>
F 6

$$$$
=
 OpenBabel11052411173D

 27 30  0  0  1  0  0  0  0  0999 V2000
  161.9920  208.3070  150.7500 C   0  0  1  0  0  3  0  0  0  0  0  0
  160.5930  204.9420  149.5850 C   0  0  0  0  0  3  0  0  0  0  0  0
  161.6850  206.8270  150.6570 C   0  0  0  0  0  0  0  0  0  0  0  0
  161.1300  204.0750  150.5400 C   0  0  0  0  0  0  0  0  0  0  0  0
  162.2220  205.9610  151.6140 C   0  0  0  0  0  3  0  0  0  0  0  0
  160.8670  206.3100  149.6410 C   0  0  0  0  0  3  0  0  0  0  0  0
  161.9480  204.5920  151.5580 C   0  0  0  0  0  3  0  0  0  0  0  0
  160.5610  202.0590  149.2250 C   0  0  0  0  0  1  0  0  0  0  0  0
  160.8370  202.7110  150.4570 O   0  0  0  0  0  0  0  0  0  0  0  0
  162.3170  207.9410  148.4260 C   0  0  0  0  0  1  0  0  0  0  0  0
  162.3970  208.9420  149.4820 N   0  0  0  0  0  0  0  0  0  0  0  0
  161.9910  211.3270  149.8110 C   0  0  0  0  0  2  0  0  0  0  0  0
  161.4160  211.8810  147.5300 N   0  0  0  0  0  1  0  0  0  0  0  0
  162.3230  211.1040  148.3540 C   0  0  2  0  0  3  0  0  0  0  0  0
  161.5260  210.0600  149.1180 C   0  0  1  0  0  3  0  0  0  0  0  0
  160.8990  209.1130  151.4530 C   0  0  0  0  0  2  0  0  0  0  0  0
  162.2490  210.6610  154.5770 N   0  0  0  0  0  0  0  0  0  0  0  0
  161.8680  210.2810  153.3560 N   0  0  0  0  0  0  0  0  0  0  0  0
  162.6030  210.7740  156.9240 N   0  0  0  0  0  1  0  0  0  0  0  0
  160.6270  208.1930  153.7020 C   0  0  0  0  0  3  0  0  0  0  0  0
  160.4670  207.2650  157.1070 C   0  0  0  0  0  3  0  0  0  0  0  0
  160.7120  208.0620  155.0650 C   0  0  0  0  0  0  0  0  0  0  0  0
  161.1600  209.2060  152.9190 C   0  0  0  0  0  0  0  0  0  0  0  0
  161.1840  208.4000  157.2510 N   0  0  0  0  0  0  0  0  0  0  0  0
  162.0520  210.0990  155.7960 C   0  0  0  0  0  0  0  0  0  0  0  0
  161.3550  208.9200  156.0220 C   0  0  0  0  0  0  0  0  0  0  0  0
  160.1580  207.0230  155.7770 C   0  0  0  0  0  3  0  0  0  0  0  0
  1 16  1  6  0  0  0
  2  6  2  0  0  0  0
  2  4  1  0  0  0  0
  3  1  1  0  0  0  0
  3  5  2  0  0  0  0
  4  7  2  0  0  0  0
  6  3  1  0  0  0  0
  7  5  1  0  0  0  0
  8  9  1  0  0  0  0
  9  4  1  0  0  0  0
 10 11  1  0  0  0  0
 11  1  1  0  0  0  0
 14 13  1  6  0  0  0
 14 15  1  0  0  0  0
 14 12  1  0  0  0  0
 15 11  1  1  0  0  0
 15 12  1  0  0  0  0
 16 23  1  0  0  0  0
 17 25  1  0  0  0  0
 18 17  2  0  0  0  0
 20 22  1  0  0  0  0
 21 24  2  0  0  0  0
 22 27  2  0  0  0  0
 22 26  1  0  0  0  0
 23 18  1  0  0  0  0
 23 20  2  0  0  0  0
 25 26  2  0  0  0  0
 25 19  1  0  0  0  0
 26 24  1  0  0  0  0
 27 21  1  0  0  0  0
M  END
>  <MODEL>
6

>  <REMARK>
 VINA RESULT:      -6.5      3.045      5.205
  Name = 
  6 active torsions:
  status: ('A' for Active; 'I' for Inactive)
    1  A    between atoms: C_6  and  C_12
    2  A    between atoms: C_6  and  C_21
    3  A    between atoms: C_7  and  C_12
    4  A    between atoms: C_12  and  N_16
    5  A    between atoms: C_13  and  O_23
    6  A    between atoms: N_16  and  C_20
                            x       y       z     vdW  Elec       q    Type
                         _______ _______ _______ _____ _____    ______ ____

>  <TORSDO>
F 6

$$$$
=
 OpenBabel11052411173D

 27 30  0  0  1  0  0  0  0  0999 V2000
  160.8950  209.2710  155.1530 C   0  0  1  0  0  3  0  0  0  0  0  0
  158.6370  211.7150  153.2650 C   0  0  0  0  0  3  0  0  0  0  0  0
  159.7500  210.1960  154.7980 C   0  0  0  0  0  0  0  0  0  0  0  0
  157.6120  211.9170  154.1940 C   0  0  0  0  0  0  0  0  0  0  0  0
  158.7250  210.3970  155.7280 C   0  0  0  0  0  3  0  0  0  0  0  0
  159.7010  210.8610  153.5630 C   0  0  0  0  0  3  0  0  0  0  0  0
  157.6610  211.2520  155.4300 C   0  0  0  0  0  3  0  0  0  0  0  0
  155.9430  213.6330  154.8190 C   0  0  0  0  0  1  0  0  0  0  0  0
  156.5610  212.7780  153.8660 O   0  0  0  0  0  0  0  0  0  0  0  0
  161.3320  208.2680  157.2610 C   0  0  0  0  0  1  0  0  0  0  0  0
  161.4860  209.4920  156.4860 N   0  0  0  0  0  0  0  0  0  0  0  0
  163.1600  210.8460  155.3330 C   0  0  0  0  0  2  0  0  0  0  0  0
  164.4910  211.4370  157.2610 N   0  0  0  0  0  1  0  0  0  0  0  0
  163.1310  211.2690  156.7830 C   0  0  2  0  0  3  0  0  0  0  0  0
  162.9120  209.8110  156.4150 C   0  0  1  0  0  3  0  0  0  0  0  0
  160.5780  207.7930  154.9210 C   0  0  0  0  0  2  0  0  0  0  0  0
  161.7730  208.3160  151.4180 N   0  0  0  0  0  0  0  0  0  0  0  0
  161.3760  208.3520  152.6910 N   0  0  0  0  0  0  0  0  0  0  0  0
  162.3300  207.5980  149.2220 N   0  0  0  0  0  1  0  0  0  0  0  0
  160.7540  206.0400  153.2270 C   0  0  0  0  0  3  0  0  0  0  0  0
  161.1990  203.8530  150.4870 C   0  0  0  0  0  3  0  0  0  0  0  0
  161.0120  205.4180  152.0310 C   0  0  0  0  0  0  0  0  0  0  0  0
  160.9170  207.3840  153.5280 C   0  0  0  0  0  0  0  0  0  0  0  0
  161.6090  204.9930  149.8920 N   0  0  0  0  0  0  0  0  0  0  0  0
  161.8550  207.2930  150.5300 C   0  0  0  0  0  0  0  0  0  0  0  0
  161.5100  205.9760  150.8050 C   0  0  0  0  0  0  0  0  0  0  0  0
  160.8240  204.0730  151.8040 C   0  0  0  0  0  3  0  0  0  0  0  0
  1 16  1  1  0  0  0
  1 11  1  0  0  0  0
  2  6  2  0  0  0  0
  2  4  1  0  0  0  0
  3  1  1  0  0  0  0
  3  5  2  0  0  0  0
  4  7  2  0  0  0  0
  6  3  1  0  0  0  0
  7  5  1  0  0  0  0
  9  4  1  0  0  0  0
  9  8  1  0  0  0  0
 11 10  1  0  0  0  0
 12 15  1  0  0  0  0
 12 14  1  0  0  0  0
 14 13  1  1  0  0  0
 15 11  1  6  0  0  0
 15 14  1  0  0  0  0
 17 18  1  0  0  0  0
 18 23  2  0  0  0  0
 19 25  1  0  0  0  0
 20 23  1  0  0  0  0
 21 27  2  0  0  0  0
 22 20  2  0  0  0  0
 23 16  1  0  0  0  0
 24 21  1  0  0  0  0
 24 26  2  0  0  0  0
 25 26  1  0  0  0  0
 25 17  2  0  0  0  0
 26 22  1  0  0  0  0
 27 22  1  0  0  0  0
M  END
>  <MODEL>
7

>  <REMARK>
 VINA RESULT:      -6.5      3.572      8.274
  Name = 
  6 active torsions:
  status: ('A' for Active; 'I' for Inactive)
    1  A    between atoms: C_6  and  C_12
    2  A    between atoms: C_6  and  C_21
    3  A    between atoms: C_7  and  C_12
    4  A    between atoms: C_12  and  N_16
    5  A    between atoms: C_13  and  O_23
    6  A    between atoms: N_16  and  C_20
                            x       y       z     vdW  Elec       q    Type
                         _______ _______ _______ _____ _____    ______ ____

>  <TORSDO>
F 6

$$$$
=
 OpenBabel11052411173D

 27 30  0  0  1  0  0  0  0  0999 V2000
  161.5190  208.6570  151.0010 C   0  0  1  0  0  3  0  0  0  0  0  0
  160.7060  206.8440  154.2700 C   0  0  0  0  0  3  0  0  0  0  0  0
  161.0470  208.3660  152.4090 C   0  0  0  0  0  0  0  0  0  0  0  0
  160.1380  207.8750  155.0230 C   0  0  0  0  0  0  0  0  0  0  0  0
  160.4770  209.3990  153.1610 C   0  0  0  0  0  3  0  0  0  0  0  0
  161.1580  207.0850  152.9710 C   0  0  0  0  0  3  0  0  0  0  0  0
  160.0250  209.1570  154.4600 C   0  0  0  0  0  3  0  0  0  0  0  0
  160.4710  206.8680  157.2580 C   0  0  0  0  0  1  0  0  0  0  0  0
  159.6950  207.6020  156.3200 O   0  0  0  0  0  0  0  0  0  0  0  0
  162.6860  210.5930  151.7290 C   0  0  0  0  0  1  0  0  0  0  0  0
  161.7810  210.0790  150.7100 N   0  0  0  0  0  0  0  0  0  0  0  0
  161.3450  210.4690  148.3390 C   0  0  0  0  0  2  0  0  0  0  0  0
  163.1210  212.0570  147.9350 N   0  0  0  0  0  1  0  0  0  0  0  0
  162.0950  211.6640  148.8820 C   0  0  2  0  0  3  0  0  0  0  0  0
  162.4090  210.2710  149.4020 C   0  0  1  0  0  3  0  0  0  0  0  0
  162.6850  207.7720  150.5540 C   0  0  0  0  0  2  0  0  0  0  0  0
  162.0190  206.1880  147.2340 N   0  0  0  0  0  0  0  0  0  0  0  0
  162.3240  206.9330  148.2990 N   0  0  0  0  0  0  0  0  0  0  0  0
  161.2950  204.4250  145.8170 N   0  0  0  0  0  1  0  0  0  0  0  0
  161.7450  205.5390  150.2330 C   0  0  0  0  0  3  0  0  0  0  0  0
  160.4520  202.3890  149.2890 C   0  0  0  0  0  3  0  0  0  0  0  0
  161.2810  204.4080  149.6090 C   0  0  0  0  0  0  0  0  0  0  0  0
  162.2190  206.6960  149.6330 C   0  0  0  0  0  0  0  0  0  0  0  0
  160.6600  202.8900  148.0520 N   0  0  0  0  0  0  0  0  0  0  0  0
  161.5030  204.9380  147.1290 C   0  0  0  0  0  0  0  0  0  0  0  0
  161.1670  204.1270  148.2040 C   0  0  0  0  0  0  0  0  0  0  0  0
  160.8220  203.2930  150.2730 C   0  0  0  0  0  3  0  0  0  0  0  0
  1 16  1  1  0  0  0
  1  3  1  0  0  0  0
  2  4  1  0  0  0  0
  3  6  1  0  0  0  0
  3  5  2  0  0  0  0
  4  9  1  0  0  0  0
  5  7  1  0  0  0  0
  6  2  2  0  0  0  0
  7  4  2  0  0  0  0
  9  8  1  0  0  0  0
 11  1  1  0  0  0  0
 11 10  1  0  0  0  0
 12 14  1  0  0  0  0
 12 15  1  0  0  0  0
 14 13  1  6  0  0  0
 14 15  1  0  0  0  0
 15 11  1  1  0  0  0
 17 18  1  0  0  0  0
 18 23  2  0  0  0  0
 19 25  1  0  0  0  0
 21 27  2  0  0  0  0
 22 20  2  0  0  0  0
 22 27  1  0  0  0  0
 23 20  1  0  0  0  0
 23 16  1  0  0  0  0
 24 26  2  0  0  0  0
 24 21  1  0  0  0  0
 25 17  2  0  0  0  0
 25 26  1  0  0  0  0
 26 22  1  0  0  0  0
M  END
>  <MODEL>
8

>  <REMARK>
 VINA RESULT:      -6.5      3.345      7.811
  Name = 
  6 active torsions:
  status: ('A' for Active; 'I' for Inactive)
    1  A    between atoms: C_6  and  C_12
    2  A    between atoms: C_6  and  C_21
    3  A    between atoms: C_7  and  C_12
    4  A    between atoms: C_12  and  N_16
    5  A    between atoms: C_13  and  O_23
    6  A    between atoms: N_16  and  C_20
                            x       y       z     vdW  Elec       q    Type
                         _______ _______ _______ _____ _____    ______ ____

>  <TORSDO>
F 6

$$$$
=
 OpenBabel11052411173D

 27 30  0  0  1  0  0  0  0  0999 V2000
  160.9210  209.6590  153.5250 C   0  0  1  0  0  3  0  0  0  0  0  0
  161.1890  206.6910  151.1270 C   0  0  0  0  0  3  0  0  0  0  0  0
  161.2030  208.8170  152.2990 C   0  0  0  0  0  0  0  0  0  0  0  0
  161.7630  207.2950  150.0050 C   0  0  0  0  0  0  0  0  0  0  0  0
  161.7780  209.4220  151.1770 C   0  0  0  0  0  3  0  0  0  0  0  0
  160.9100  207.4460  152.2690 C   0  0  0  0  0  3  0  0  0  0  0  0
  162.0570  208.6680  150.0360 C   0  0  0  0  0  3  0  0  0  0  0  0
  161.0050  205.8940  148.1120 C   0  0  0  0  0  1  0  0  0  0  0  0
  162.0300  206.5120  148.8780 O   0  0  0  0  0  0  0  0  0  0  0  0
  162.5100  210.3510  155.1490 C   0  0  0  0  0  1  0  0  0  0  0  0
  161.6450  209.2510  154.7440 N   0  0  0  0  0  0  0  0  0  0  0  0
  159.4370  208.3820  155.3210 C   0  0  0  0  0  2  0  0  0  0  0  0
  160.0860  207.0950  157.2610 N   0  0  0  0  0  1  0  0  0  0  0  0
  160.4750  207.4560  155.9100 C   0  0  2  0  0  3  0  0  0  0  0  0
  160.7390  208.9510  155.8530 C   0  0  1  0  0  3  0  0  0  0  0  0
  161.0530  211.1630  153.2760 C   0  0  0  0  0  2  0  0  0  0  0  0
  157.8980  212.2780  154.9430 N   0  0  0  0  0  0  0  0  0  0  0  0
  159.0690  211.7770  154.5450 N   0  0  0  0  0  0  0  0  0  0  0  0
  155.8060  213.4020  155.0210 N   0  0  0  0  0  1  0  0  0  0  0  0
  159.3000  212.4900  152.2080 C   0  0  0  0  0  3  0  0  0  0  0  0
  156.5450  214.4080  151.1030 C   0  0  0  0  0  3  0  0  0  0  0  0
  158.1350  213.1940  152.0350 C   0  0  0  0  0  0  0  0  0  0  0  0
  159.7250  211.8380  153.3550 C   0  0  0  0  0  0  0  0  0  0  0  0
  156.1270  214.1810  152.3670 N   0  0  0  0  0  0  0  0  0  0  0  0
  156.9700  213.0230  154.2920 C   0  0  0  0  0  0  0  0  0  0  0  0
  157.0740  213.4410  152.9720 C   0  0  0  0  0  0  0  0  0  0  0  0
  157.7760  213.8170  150.8600 C   0  0  0  0  0  3  0  0  0  0  0  0
  1 16  1  6  0  0  0
  1 11  1  0  0  0  0
  2  6  1  0  0  0  0
  3  1  1  0  0  0  0
  4  7  1  0  0  0  0
  4  2  2  0  0  0  0
  5  3  1  0  0  0  0
  6  3  2  0  0  0  0
  7  5  2  0  0  0  0
  8  9  1  0  0  0  0
  9  4  1  0  0  0  0
 11 10  1  0  0  0  0
 12 15  1  0  0  0  0
 12 14  1  0  0  0  0
 14 13  1  1  0  0  0
 15 11  1  6  0  0  0
 15 14  1  0  0  0  0
 16 23  1  0  0  0  0
 18 17  1  0  0  0  0
 20 23  1  0  0  0  0
 21 24  1  0  0  0  0
 22 20  2  0  0  0  0
 22 26  1  0  0  0  0
 23 18  2  0  0  0  0
 24 26  2  0  0  0  0
 25 17  2  0  0  0  0
 25 19  1  0  0  0  0
 26 25  1  0  0  0  0
 27 21  2  0  0  0  0
 27 22  1  0  0  0  0
M  END
>  <MODEL>
9

>  <REMARK>
 VINA RESULT:      -6.4      3.527      6.578
  Name = 
  6 active torsions:
  status: ('A' for Active; 'I' for Inactive)
    1  A    between atoms: C_6  and  C_12
    2  A    between atoms: C_6  and  C_21
    3  A    between atoms: C_7  and  C_12
    4  A    between atoms: C_12  and  N_16
    5  A    between atoms: C_13  and  O_23
    6  A    between atoms: N_16  and  C_20
                            x       y       z     vdW  Elec       q    Type
                         _______ _______ _______ _____ _____    ______ ____

>  <TORSDO>
F 6

$$$$
