=
 OpenBabel11042421343D

 45 49  0  0  1  0  0  0  0  0999 V2000
  159.0890  214.4260  150.2030 C   0  0  0  0  0  2  0  0  0  0  0  0
  160.2520  213.6710  149.5860 C   0  0  2  0  0  0  0  0  0  0  0  0
  160.5710  212.4690  150.4480 C   0  0  2  0  0  3  0  0  0  0  0  0
  161.5010  214.4520  149.2090 C   0  0  0  0  0  1  0  0  0  0  0  0
  160.0020  212.2600  149.0440 C   0  0  2  0  0  3  0  0  0  0  0  0
  158.4600  213.4890  151.2260 C   0  0  1  0  0  3  0  0  0  0  0  0
  159.4700  212.3610  151.4970 C   0  0  2  0  0  3  0  0  0  0  0  0
  157.8150  214.2140  152.4230 C   0  0  1  0  0  3  0  0  0  0  0  0
  156.3150  214.3590  152.2120 C   0  0  0  0  0  1  0  0  0  0  0  0
  158.1100  213.5530  153.7660 C   0  0  0  0  0  2  0  0  0  0  0  0
  157.6630  214.4530  154.9060 C   0  0  0  0  0  2  0  0  0  0  0  0
  156.3460  214.1470  155.2570 O   0  0  0  0  0  0  0  0  0  0  0  0
  156.4390  212.9770  156.0210 C   0  0  1  0  0  3  0  0  0  0  0  0
  157.6280  212.9960  156.7680 O   0  0  0  0  0  1  0  0  0  0  0  0
  155.2380  212.8700  156.9520 C   0  0  0  0  0  2  0  0  0  0  0  0
  155.4120  210.8160  156.1200 C   0  0  0  0  0  1  0  0  0  0  0  0
  154.9670  211.5290  157.2400 O   0  0  0  0  0  0  0  0  0  0  0  0
  160.0590  212.4420  152.8310 N   0  0  0  0  0  2  0  0  0  0  0  0
  160.3910  211.2980  153.6360 C   0  0  0  0  0  0  0  0  0  0  0  0
  159.5280  210.8450  154.5380 C   0  0  0  0  0  2  0  0  0  0  0  0
  161.6430  210.4920  153.3490 C   0  0  1  0  0  3  0  0  0  0  0  0
  162.3400  209.8920  154.5890 C   0  0  2  0  0  3  0  0  0  0  0  0
  160.3370  207.6830  153.6970 C   0  0  0  0  0  2  0  0  0  0  0  0
  161.4610  209.4670  152.2570 C   0  0  0  0  0  0  0  0  0  0  0  0
  161.3910  207.6100  154.6940 N   0  0  0  0  0  2  0  0  0  0  0  0
  162.0460  206.9410  148.3340 C   0  0  0  0  0  3  0  0  0  0  0  0
  160.8960  208.2090  152.4170 C   0  0  0  0  0  0  0  0  0  0  0  0
  161.7360  208.3940  150.3250 C   0  0  0  0  0  0  0  0  0  0  0  0
  161.5590  205.6900  148.7310 C   0  0  0  0  0  0  0  0  0  0  0  0
  160.9670  205.3750  149.9630 C   0  0  0  0  0  3  0  0  0  0  0  0
  160.7330  206.1610  151.0840 C   0  0  0  0  0  3  0  0  0  0  0  0
  161.9690  209.6000  150.9710 C   0  0  0  0  0  3  0  0  0  0  0  0
  162.1380  208.1410  149.0280 C   0  0  0  0  0  3  0  0  0  0  0  0
  161.4610  208.9030  155.3670 C   0  0  0  0  0  2  0  0  0  0  0  0
  161.0700  207.4950  151.2530 C   0  0  0  0  0  0  0  0  0  0  0  0
  162.7530  210.9070  155.4350 F   0  0  0  0  0  0  0  0  0  0  0  0
  161.1790  203.3180  148.0380 O   0  0  0  0  0  1  0  0  0  0  0  0
  161.7230  204.5770  147.7730 C   0  0  0  0  0  0  0  0  0  0  0  0
  162.2820  204.7820  146.6580 O   0  0  0  0  0  0  0  0  0  0  0  0
  161.0970  211.7870  148.0900 C   0  0  0  0  0  2  0  0  0  0  0  0
  160.5780  211.6690  146.6650 C   0  0  0  0  0  2  0  0  0  0  0  0
  162.4480  213.7740  146.1740 O   0  0  0  0  0  1  0  0  0  0  0  0
  160.9380  213.1740  145.7030 P   0  0  0  0  0  0  0  0  0  0  0  0
  160.9620  212.8210  144.0470 O   0  0  0  0  0  0  0  0  0  0  0  0
  159.8750  214.2170  145.9770 O   0  0  0  0  0  1  0  0  0  0  0  0
  1  6  1  0  0  0  0
  2  4  1  6  0  0  0
  2  1  1  0  0  0  0
  2  3  1  0  0  0  0
  3  7  1  0  0  0  0
  5  2  1  0  0  0  0
  5  3  1  0  0  0  0
  6  7  1  0  0  0  0
  6  8  1  0  0  0  0
  7 18  1  0  0  0  0
  8 10  1  0  0  0  0
  9  8  1  0  0  0  0
 10 11  1  0  0  0  0
 11 12  1  0  0  0  0
 12 13  1  0  0  0  0
 13 14  1  0  0  0  0
 13 15  1  0  0  0  0
 15 17  1  0  0  0  0
 16 17  1  0  0  0  0
 18 19  1  0  0  0  0
 19 20  2  0  0  0  0
 21 19  1  0  0  0  0
 21 22  1  0  0  0  0
 22 34  1  0  0  0  0
 22 36  1  0  0  0  0
 23 25  1  0  0  0  0
 24 27  1  0  0  0  0
 24 21  1  0  0  0  0
 25 34  1  0  0  0  0
 26 29  2  0  0  0  0
 26 33  1  0  0  0  0
 27 23  1  0  0  0  0
 28 32  1  0  0  0  0
 28 35  1  0  0  0  0
 29 30  1  0  0  0  0
 30 31  2  0  0  0  0
 31 35  1  0  0  0  0
 32 24  2  0  0  0  0
 33 28  2  0  0  0  0
 35 27  2  0  0  0  0
 38 37  1  0  0  0  0
 38 29  1  0  0  0  0
 39 38  2  0  0  0  0
 40  5  1  0  0  0  0
 41 40  1  0  0  0  0
 43 45  1  0  0  0  0
 43 42  1  0  0  0  0
 43 41  1  0  0  0  0
 44 43  2  0  0  0  0
M  END
>  <MODEL>
1

>  <REMARK>
 VINA RESULT:      -5.5      0.000      0.000
  Name = 
  14 active torsions:
  status: ('A' for Active; 'I' for Inactive)
    1  A    between atoms: C_1  and  C_31
    2  A    between atoms: N_3  and  C_31
    3  A    between atoms: N_3  and  C_44
    4  A    between atoms: C_5  and  O_10
    5  A    between atoms: C_5  and  C_16
    6  A    between atoms: C_16  and  O_26
    7  A    between atoms: C_17  and  C_32
    8  A    between atoms: P_22  and  C_28
    9  A    between atoms: C_25  and  C_36
   10  A    between atoms: O_26  and  C_33
   11  A    between atoms: C_28  and  C_36
   12  A    between atoms: C_30  and  C_41
   13  A    between atoms: C_30  and  C_42
   14  A    between atoms: C_33  and  C_41
                            x       y       z     vdW  Elec       q    Type
                         _______ _______ _______ _____ _____    ______ ____

>  <TORSDO>
F 14

$$$$
=
 OpenBabel11042421343D

 45 49  0  0  1  0  0  0  0  0999 V2000
  160.2250  212.2390  151.4710 C   0  0  0  0  0  2  0  0  0  0  0  0
  160.0220  211.3530  152.6850 C   0  0  2  0  0  0  0  0  0  0  0  0
  160.8110  210.0760  152.5000 C   0  0  2  0  0  3  0  0  0  0  0  0
  158.6010  211.0840  153.1540 C   0  0  0  0  0  1  0  0  0  0  0  0
  161.2250  211.0650  153.5890 C   0  0  2  0  0  3  0  0  0  0  0  0
  161.4230  211.6750  150.7190 C   0  0  1  0  0  3  0  0  0  0  0  0
  161.6730  210.2550  151.2540 C   0  0  2  0  0  3  0  0  0  0  0  0
  161.3650  211.8960  149.1950 C   0  0  1  0  0  3  0  0  0  0  0  0
  160.5970  213.1700  148.8710 C   0  0  0  0  0  1  0  0  0  0  0  0
  162.7380  211.9090  148.5290 C   0  0  0  0  0  2  0  0  0  0  0  0
  162.8590  213.1020  147.5950 C   0  0  0  0  0  2  0  0  0  0  0  0
  163.0450  212.6540  146.2850 O   0  0  0  0  0  0  0  0  0  0  0  0
  162.4400  213.6280  145.4810 C   0  0  1  0  0  3  0  0  0  0  0  0
  163.0250  213.6130  144.2040 O   0  0  0  0  0  1  0  0  0  0  0  0
  160.9450  213.3570  145.3760 C   0  0  0  0  0  2  0  0  0  0  0  0
  159.2700  212.5830  144.1380 C   0  0  0  0  0  1  0  0  0  0  0  0
  160.6160  212.9630  144.0760 O   0  0  0  0  0  0  0  0  0  0  0  0
  161.3390  209.2190  150.2790 N   0  0  0  0  0  2  0  0  0  0  0  0
  161.2000  207.8240  150.6010 C   0  0  0  0  0  0  0  0  0  0  0  0
  160.0630  207.3700  151.1160 C   0  0  0  0  0  2  0  0  0  0  0  0
  162.2720  206.8310  150.1980 C   0  0  1  0  0  3  0  0  0  0  0  0
  163.1130  206.2620  151.3610 C   0  0  2  0  0  3  0  0  0  0  0  0
  160.7340  204.2730  151.0960 C   0  0  0  0  0  2  0  0  0  0  0  0
  161.7700  205.7430  149.2820 C   0  0  0  0  0  0  0  0  0  0  0  0
  161.9400  204.1510  151.8970 N   0  0  0  0  0  2  0  0  0  0  0  0
  161.3100  202.8000  145.6440 C   0  0  0  0  0  3  0  0  0  0  0  0
  161.1010  204.5940  149.6850 C   0  0  0  0  0  0  0  0  0  0  0  0
  161.5500  204.4630  147.4720 C   0  0  0  0  0  0  0  0  0  0  0  0
  160.7620  201.6710  146.2630 C   0  0  0  0  0  0  0  0  0  0  0  0
  160.3770  201.5580  147.6070 C   0  0  0  0  0  3  0  0  0  0  0  0
  160.4520  202.4710  148.6510 C   0  0  0  0  0  3  0  0  0  0  0  0
  162.0400  205.6820  147.9220 C   0  0  0  0  0  3  0  0  0  0  0  0
  161.6700  204.0360  146.1640 C   0  0  0  0  0  3  0  0  0  0  0  0
  162.2850  205.4800  152.3910 C   0  0  0  0  0  2  0  0  0  0  0  0
  160.9690  203.7560  148.6020 C   0  0  0  0  0  0  0  0  0  0  0  0
  163.7940  207.2850  151.9960 F   0  0  0  0  0  0  0  0  0  0  0  0
  161.2570  199.2710  145.7710 O   0  0  0  0  0  1  0  0  0  0  0  0
  160.6110  200.4610  145.4290 C   0  0  0  0  0  0  0  0  0  0  0  0
  159.8190  200.4680  144.4440 O   0  0  0  0  0  0  0  0  0  0  0  0
  160.8230  210.5420  154.9660 C   0  0  0  0  0  2  0  0  0  0  0  0
  161.6160  209.2990  155.3420 C   0  0  0  0  0  2  0  0  0  0  0  0
  158.9470  208.5740  156.0630 O   0  0  0  0  0  1  0  0  0  0  0  0
  160.5180  207.9630  155.9130 P   0  0  0  0  0  0  0  0  0  0  0  0
  160.5220  206.6830  154.8040 O   0  0  0  0  0  0  0  0  0  0  0  0
  160.9910  207.4590  157.2610 O   0  0  0  0  0  1  0  0  0  0  0  0
  1  2  1  0  0  0  0
  2  4  1  1  0  0  0
  2  5  1  0  0  0  0
  3  2  1  0  0  0  0
  3  5  1  0  0  0  0
  5 40  1  0  0  0  0
  6  7  1  0  0  0  0
  6  1  1  0  0  0  0
  7  3  1  0  0  0  0
  8  6  1  0  0  0  0
  9  8  1  0  0  0  0
 10  8  1  0  0  0  0
 11 10  1  0  0  0  0
 12 11  1  0  0  0  0
 13 12  1  0  0  0  0
 14 13  1  0  0  0  0
 15 13  1  0  0  0  0
 17 16  1  0  0  0  0
 17 15  1  0  0  0  0
 18 19  1  0  0  0  0
 18  7  1  0  0  0  0
 19 20  2  0  0  0  0
 21 19  1  0  0  0  0
 21 22  1  0  0  0  0
 22 36  1  0  0  0  0
 22 34  1  0  0  0  0
 23 25  1  0  0  0  0
 24 27  1  0  0  0  0
 24 21  1  0  0  0  0
 25 34  1  0  0  0  0
 26 33  1  0  0  0  0
 26 29  2  0  0  0  0
 27 23  1  0  0  0  0
 28 32  1  0  0  0  0
 28 35  1  0  0  0  0
 29 30  1  0  0  0  0
 30 31  2  0  0  0  0
 32 24  2  0  0  0  0
 33 28  2  0  0  0  0
 35 31  1  0  0  0  0
 35 27  2  0  0  0  0
 38 37  1  0  0  0  0
 38 29  1  0  0  0  0
 39 38  2  0  0  0  0
 40 41  1  0  0  0  0
 41 43  1  0  0  0  0
 43 42  1  0  0  0  0
 43 45  1  0  0  0  0
 44 43  2  0  0  0  0
M  END
>  <MODEL>
2

>  <REMARK>
 VINA RESULT:      -5.2      3.344      7.500
  Name = 
  14 active torsions:
  status: ('A' for Active; 'I' for Inactive)
    1  A    between atoms: C_1  and  C_31
    2  A    between atoms: N_3  and  C_31
    3  A    between atoms: N_3  and  C_44
    4  A    between atoms: C_5  and  O_10
    5  A    between atoms: C_5  and  C_16
    6  A    between atoms: C_16  and  O_26
    7  A    between atoms: C_17  and  C_32
    8  A    between atoms: P_22  and  C_28
    9  A    between atoms: C_25  and  C_36
   10  A    between atoms: O_26  and  C_33
   11  A    between atoms: C_28  and  C_36
   12  A    between atoms: C_30  and  C_41
   13  A    between atoms: C_30  and  C_42
   14  A    between atoms: C_33  and  C_41
                            x       y       z     vdW  Elec       q    Type
                         _______ _______ _______ _____ _____    ______ ____

>  <TORSDO>
F 14

$$$$
=
 OpenBabel11042421343D

 45 49  0  0  1  0  0  0  0  0999 V2000
  158.4730  213.3930  152.5330 C   0  0  0  0  0  2  0  0  0  0  0  0
  158.6930  212.2750  153.5350 C   0  0  2  0  0  0  0  0  0  0  0  0
  159.8530  211.4210  153.0730 C   0  0  2  0  0  3  0  0  0  0  0  0
  157.4970  211.4360  153.9550 C   0  0  0  0  0  1  0  0  0  0  0  0
  159.9950  212.2620  154.3420 C   0  0  2  0  0  3  0  0  0  0  0  0
  159.7220  213.4460  151.6640 C   0  0  1  0  0  3  0  0  0  0  0  0
  160.4900  212.1310  151.8830 C   0  0  2  0  0  3  0  0  0  0  0  0
  159.4590  213.9230  150.2220 C   0  0  1  0  0  3  0  0  0  0  0  0
  160.7610  214.3450  149.5550 C   0  0  0  0  0  1  0  0  0  0  0  0
  158.7210  212.8980  149.3670 C   0  0  0  0  0  2  0  0  0  0  0  0
  158.2360  213.5390  148.0770 C   0  0  0  0  0  2  0  0  0  0  0  0
  158.9910  213.0630  147.0030 O   0  0  0  0  0  0  0  0  0  0  0  0
  158.0570  212.4970  146.1270 C   0  0  1  0  0  3  0  0  0  0  0  0
  156.7940  213.0670  146.3540 O   0  0  0  0  0  1  0  0  0  0  0  0
  158.4870  212.7360  144.6860 C   0  0  0  0  0  2  0  0  0  0  0  0
  160.4550  213.3340  143.8410 C   0  0  0  0  0  1  0  0  0  0  0  0
  159.3910  213.8010  144.6210 O   0  0  0  0  0  0  0  0  0  0  0  0
  160.4470  211.2540  150.7150 N   0  0  0  0  0  2  0  0  0  0  0  0
  161.5690  211.0150  149.8460 C   0  0  0  0  0  0  0  0  0  0  0  0
  161.8560  211.8760  148.8770 C   0  0  0  0  0  2  0  0  0  0  0  0
  162.5350  209.8820  150.1320 C   0  0  1  0  0  3  0  0  0  0  0  0
  163.0180  209.7820  151.5960 C   0  0  2  0  0  3  0  0  0  0  0  0
  160.4690  207.9990  151.5100 C   0  0  0  0  0  2  0  0  0  0  0  0
  162.0730  208.5480  149.6010 C   0  0  0  0  0  0  0  0  0  0  0  0
  161.4480  208.1400  152.5740 N   0  0  0  0  0  2  0  0  0  0  0  0
  161.9330  204.4200  147.3540 C   0  0  0  0  0  3  0  0  0  0  0  0
  161.1660  207.7010  150.2250 C   0  0  0  0  0  0  0  0  0  0  0  0
  162.0410  206.6620  148.4160 C   0  0  0  0  0  0  0  0  0  0  0  0
  161.1010  203.6710  148.1940 C   0  0  0  0  0  0  0  0  0  0  0  0
  160.4330  204.1330  149.3380 C   0  0  0  0  0  3  0  0  0  0  0  0
  160.4280  205.3840  149.9420 C   0  0  0  0  0  3  0  0  0  0  0  0
  162.6080  207.9280  148.4800 C   0  0  0  0  0  3  0  0  0  0  0  0
  162.3630  205.7380  147.4420 C   0  0  0  0  0  3  0  0  0  0  0  0
  161.8840  209.5330  152.5990 C   0  0  0  0  0  2  0  0  0  0  0  0
  161.1350  206.5070  149.5430 C   0  0  0  0  0  0  0  0  0  0  0  0
  163.7010  210.9330  151.9470 F   0  0  0  0  0  0  0  0  0  0  0  0
  161.2030  201.7610  146.5840 O   0  0  0  0  0  0  0  0  0  0  0  0
  160.9430  202.2380  147.8710 C   0  0  0  0  0  0  0  0  0  0  0  0
  160.6570  201.4140  148.7850 O   0  0  0  0  0  1  0  0  0  0  0  0
  159.9180  211.3750  155.5820 C   0  0  0  0  0  2  0  0  0  0  0  0
  161.0100  211.7230  156.5830 C   0  0  0  0  0  2  0  0  0  0  0  0
  163.7580  211.3250  157.2590 O   0  0  0  0  0  1  0  0  0  0  0  0
  162.4940  210.6990  156.3250 P   0  0  0  0  0  0  0  0  0  0  0  0
  162.1910  209.0980  156.7860 O   0  0  0  0  0  1  0  0  0  0  0  0
  162.8860  210.7330  154.8630 O   0  0  0  0  0  0  0  0  0  0  0  0
  1  2  1  0  0  0  0
  2  4  1  1  0  0  0
  2  5  1  0  0  0  0
  3  2  1  0  0  0  0
  3  5  1  0  0  0  0
  5 40  1  0  0  0  0
  6  7  1  0  0  0  0
  6  1  1  0  0  0  0
  7  3  1  0  0  0  0
  8  6  1  0  0  0  0
  9  8  1  0  0  0  0
 10  8  1  0  0  0  0
 11 10  1  0  0  0  0
 12 11  1  0  0  0  0
 13 14  1  0  0  0  0
 13 12  1  0  0  0  0
 15 13  1  0  0  0  0
 16 17  1  0  0  0  0
 17 15  1  0  0  0  0
 18  7  1  0  0  0  0
 19 21  1  0  0  0  0
 19 18  1  0  0  0  0
 20 19  2  0  0  0  0
 21 22  1  0  0  0  0
 22 36  1  0  0  0  0
 22 34  1  0  0  0  0
 23 25  1  0  0  0  0
 24 21  1  0  0  0  0
 24 27  1  0  0  0  0
 25 34  1  0  0  0  0
 26 33  1  0  0  0  0
 26 29  2  0  0  0  0
 27 23  1  0  0  0  0
 28 32  1  0  0  0  0
 28 35  1  0  0  0  0
 29 30  1  0  0  0  0
 30 31  2  0  0  0  0
 32 24  2  0  0  0  0
 33 28  2  0  0  0  0
 35 31  1  0  0  0  0
 35 27  2  0  0  0  0
 37 38  2  0  0  0  0
 38 29  1  0  0  0  0
 38 39  1  0  0  0  0
 40 41  1  0  0  0  0
 43 41  1  0  0  0  0
 43 44  1  0  0  0  0
 43 42  1  0  0  0  0
 45 43  2  0  0  0  0
M  END
>  <MODEL>
3

>  <REMARK>
 VINA RESULT:      -4.0      3.062      6.525
  Name = 
  14 active torsions:
  status: ('A' for Active; 'I' for Inactive)
    1  A    between atoms: C_1  and  C_31
    2  A    between atoms: N_3  and  C_31
    3  A    between atoms: N_3  and  C_44
    4  A    between atoms: C_5  and  O_10
    5  A    between atoms: C_5  and  C_16
    6  A    between atoms: C_16  and  O_26
    7  A    between atoms: C_17  and  C_32
    8  A    between atoms: P_22  and  C_28
    9  A    between atoms: C_25  and  C_36
   10  A    between atoms: O_26  and  C_33
   11  A    between atoms: C_28  and  C_36
   12  A    between atoms: C_30  and  C_41
   13  A    between atoms: C_30  and  C_42
   14  A    between atoms: C_33  and  C_41
                            x       y       z     vdW  Elec       q    Type
                         _______ _______ _______ _____ _____    ______ ____

>  <TORSDO>
F 14

$$$$
=
 OpenBabel11042421343D

 45 49  0  0  1  0  0  0  0  0999 V2000
  160.7690  212.3800  149.7970 C   0  0  0  0  0  2  0  0  0  0  0  0
  161.7620  211.2330  149.7830 C   0  0  2  0  0  0  0  0  0  0  0  0
  161.6330  210.4540  151.0740 C   0  0  2  0  0  3  0  0  0  0  0  0
  163.2130  211.5380  149.4430 C   0  0  0  0  0  1  0  0  0  0  0  0
  161.2230  209.8000  149.7550 C   0  0  2  0  0  3  0  0  0  0  0  0
  159.7830  212.0830  150.9180 C   0  0  1  0  0  3  0  0  0  0  0  0
  160.4110  210.9970  151.8070 C   0  0  2  0  0  3  0  0  0  0  0  0
  159.1980  213.3440  151.5840 C   0  0  1  0  0  3  0  0  0  0  0  0
  159.0160  214.4530  150.5570 C   0  0  0  0  0  1  0  0  0  0  0  0
  157.8960  213.0870  152.3370 C   0  0  0  0  0  2  0  0  0  0  0  0
  157.6730  214.1620  153.3870 C   0  0  0  0  0  2  0  0  0  0  0  0
  156.7070  213.7320  154.3010 O   0  0  0  0  0  0  0  0  0  0  0  0
  157.3530  213.7460  155.5430 C   0  0  1  0  0  3  0  0  0  0  0  0
  158.5610  214.4530  155.4370 O   0  0  0  0  0  1  0  0  0  0  0  0
  156.4550  214.3980  156.5860 C   0  0  0  0  0  2  0  0  0  0  0  0
  156.3010  212.2250  157.0270 C   0  0  0  0  0  1  0  0  0  0  0  0
  155.6220  213.4400  157.1730 O   0  0  0  0  0  0  0  0  0  0  0  0
  160.8160  211.5060  153.1160 N   0  0  0  0  0  2  0  0  0  0  0  0
  160.7250  210.7520  154.3370 C   0  0  0  0  0  0  0  0  0  0  0  0
  159.6590  210.8780  155.1190 C   0  0  0  0  0  2  0  0  0  0  0  0
  161.7480  209.6810  154.6580 C   0  0  1  0  0  3  0  0  0  0  0  0
  161.9840  209.4250  156.1630 C   0  0  2  0  0  3  0  0  0  0  0  0
  159.7010  207.4520  155.4020 C   0  0  0  0  0  2  0  0  0  0  0  0
  161.5340  208.3970  153.8970 C   0  0  0  0  0  0  0  0  0  0  0  0
  160.4630  207.5330  156.6360 N   0  0  0  0  0  2  0  0  0  0  0  0
  162.2380  204.6190  151.1870 C   0  0  0  0  0  3  0  0  0  0  0  0
  160.6350  207.3960  154.2390 C   0  0  0  0  0  0  0  0  0  0  0  0
  161.9140  206.6950  152.5100 C   0  0  0  0  0  0  0  0  0  0  0  0
  161.3640  203.6910  151.7670 C   0  0  0  0  0  0  0  0  0  0  0  0
  160.4640  203.9310  152.8160 C   0  0  0  0  0  3  0  0  0  0  0  0
  160.2180  205.0820  153.5530 C   0  0  0  0  0  3  0  0  0  0  0  0
  162.3170  207.9850  152.8260 C   0  0  0  0  0  3  0  0  0  0  0  0
  162.4970  205.9450  151.5090 C   0  0  0  0  0  3  0  0  0  0  0  0
  160.7300  208.9420  156.9050 C   0  0  0  0  0  2  0  0  0  0  0  0
  160.8530  206.3070  153.4260 C   0  0  0  0  0  0  0  0  0  0  0  0
  162.4650  210.5740  156.7670 F   0  0  0  0  0  0  0  0  0  0  0  0
  160.7240  201.9410  150.1000 O   0  0  0  0  0  0  0  0  0  0  0  0
  161.4230  202.3080  151.2520 C   0  0  0  0  0  0  0  0  0  0  0  0
  162.1850  201.4630  151.8020 O   0  0  0  0  0  1  0  0  0  0  0  0
  162.2710  208.7780  149.3180 C   0  0  0  0  0  2  0  0  0  0  0  0
  162.0520  208.3380  147.8780 C   0  0  0  0  0  2  0  0  0  0  0  0
  160.2660  206.5020  149.1470 O   0  0  0  0  0  1  0  0  0  0  0  0
  161.2740  206.6930  147.8010 P   0  0  0  0  0  0  0  0  0  0  0  0
  160.3580  206.5420  146.3850 O   0  0  0  0  0  0  0  0  0  0  0  0
  162.3460  205.6240  147.8200 O   0  0  0  0  0  1  0  0  0  0  0  0
  1  6  1  0  0  0  0
  2  4  1  6  0  0  0
  2  1  1  0  0  0  0
  2  3  1  0  0  0  0
  3  7  1  0  0  0  0
  5  2  1  0  0  0  0
  5  3  1  0  0  0  0
  6  8  1  0  0  0  0
  6  7  1  0  0  0  0
  7 18  1  0  0  0  0
  8 10  1  0  0  0  0
  9  8  1  0  0  0  0
 10 11  1  0  0  0  0
 11 12  1  0  0  0  0
 12 13  1  0  0  0  0
 13 15  1  0  0  0  0
 14 13  1  0  0  0  0
 15 17  1  0  0  0  0
 16 17  1  0  0  0  0
 18 19  1  0  0  0  0
 19 21  1  0  0  0  0
 19 20  2  0  0  0  0
 21 22  1  0  0  0  0
 22 36  1  0  0  0  0
 22 34  1  0  0  0  0
 23 25  1  0  0  0  0
 24 27  1  0  0  0  0
 24 21  1  0  0  0  0
 25 34  1  0  0  0  0
 26 33  1  0  0  0  0
 26 29  2  0  0  0  0
 27 23  1  0  0  0  0
 28 32  1  0  0  0  0
 28 35  1  0  0  0  0
 29 30  1  0  0  0  0
 30 31  2  0  0  0  0
 32 24  2  0  0  0  0
 33 28  2  0  0  0  0
 35 31  1  0  0  0  0
 35 27  2  0  0  0  0
 37 38  2  0  0  0  0
 38 29  1  0  0  0  0
 38 39  1  0  0  0  0
 40  5  1  0  0  0  0
 41 40  1  0  0  0  0
 43 45  1  0  0  0  0
 43 41  1  0  0  0  0
 43 42  1  0  0  0  0
 44 43  2  0  0  0  0
M  END
>  <MODEL>
4

>  <REMARK>
 VINA RESULT:      -3.3      2.645      3.395
  Name = 
  14 active torsions:
  status: ('A' for Active; 'I' for Inactive)
    1  A    between atoms: C_1  and  C_31
    2  A    between atoms: N_3  and  C_31
    3  A    between atoms: N_3  and  C_44
    4  A    between atoms: C_5  and  O_10
    5  A    between atoms: C_5  and  C_16
    6  A    between atoms: C_16  and  O_26
    7  A    between atoms: C_17  and  C_32
    8  A    between atoms: P_22  and  C_28
    9  A    between atoms: C_25  and  C_36
   10  A    between atoms: O_26  and  C_33
   11  A    between atoms: C_28  and  C_36
   12  A    between atoms: C_30  and  C_41
   13  A    between atoms: C_30  and  C_42
   14  A    between atoms: C_33  and  C_41
                            x       y       z     vdW  Elec       q    Type
                         _______ _______ _______ _____ _____    ______ ____

>  <TORSDO>
F 14

$$$$
=
 OpenBabel11042421343D

 45 49  0  0  1  0  0  0  0  0999 V2000
  161.9060  210.2430  153.9540 C   0  0  0  0  0  2  0  0  0  0  0  0
  162.1760  210.6020  152.5050 C   0  0  2  0  0  0  0  0  0  0  0  0
  161.3440  209.7070  151.6130 C   0  0  2  0  0  3  0  0  0  0  0  0
  163.6210  210.6880  152.0400 C   0  0  0  0  0  1  0  0  0  0  0  0
  161.0370  211.2030  151.6760 C   0  0  2  0  0  3  0  0  0  0  0  0
  160.6410  209.3940  153.9600 C   0  0  1  0  0  3  0  0  0  0  0  0
  160.3970  208.9250  152.5160 C   0  0  2  0  0  3  0  0  0  0  0  0
  160.5910  208.3570  155.0990 C   0  0  1  0  0  3  0  0  0  0  0  0
  161.9340  208.2840  155.8110 C   0  0  0  0  0  1  0  0  0  0  0  0
  159.4630  208.6030  156.0970 C   0  0  0  0  0  2  0  0  0  0  0  0
  159.3000  210.0920  156.3520 C   0  0  0  0  0  2  0  0  0  0  0  0
  158.0490  210.5130  155.8930 O   0  0  0  0  0  0  0  0  0  0  0  0
  158.1610  211.9030  155.7630 C   0  0  1  0  0  3  0  0  0  0  0  0
  158.5890  212.2200  154.4640 O   0  0  0  0  0  1  0  0  0  0  0  0
  156.8160  212.5590  156.0470 C   0  0  0  0  0  2  0  0  0  0  0  0
  155.5180  214.2810  155.5100 C   0  0  0  0  0  1  0  0  0  0  0  0
  156.4410  213.3740  154.9750 O   0  0  0  0  0  0  0  0  0  0  0  0
  160.6320  207.4930  152.3430 N   0  0  0  0  0  2  0  0  0  0  0  0
  160.6870  206.8340  151.0650 C   0  0  0  0  0  0  0  0  0  0  0  0
  159.8570  207.1960  150.0940 C   0  0  0  0  0  2  0  0  0  0  0  0
  161.7980  205.8520  150.7540 C   0  0  1  0  0  3  0  0  0  0  0  0
  162.4720  205.2070  151.9850 C   0  0  2  0  0  3  0  0  0  0  0  0
  160.1400  203.2670  151.2880 C   0  0  0  0  0  2  0  0  0  0  0  0
  161.4190  204.8230  149.7180 C   0  0  0  0  0  0  0  0  0  0  0  0
  161.2260  203.0850  152.2360 N   0  0  0  0  0  2  0  0  0  0  0  0
  161.4400  202.0960  145.8870 C   0  0  0  0  0  3  0  0  0  0  0  0
  160.6960  203.6620  149.9600 C   0  0  0  0  0  0  0  0  0  0  0  0
  161.4400  203.6500  147.8240 C   0  0  0  0  0  0  0  0  0  0  0  0
  160.8080  200.9410  146.3620 C   0  0  0  0  0  0  0  0  0  0  0  0
  160.2450  200.7570  147.6330 C   0  0  0  0  0  3  0  0  0  0  0  0
  160.1820  201.6090  148.7280 C   0  0  0  0  0  3  0  0  0  0  0  0
  161.8700  204.8350  148.4050 C   0  0  0  0  0  3  0  0  0  0  0  0
  161.7330  203.2960  146.5220 C   0  0  0  0  0  3  0  0  0  0  0  0
  161.5080  204.3790  152.8470 C   0  0  0  0  0  2  0  0  0  0  0  0
  160.7070  202.8880  148.8230 C   0  0  0  0  0  0  0  0  0  0  0  0
  163.0660  206.1840  152.7640 F   0  0  0  0  0  0  0  0  0  0  0  0
  160.1650  199.8810  144.1900 O   0  0  0  0  0  0  0  0  0  0  0  0
  160.7650  199.7810  145.4470 C   0  0  0  0  0  0  0  0  0  0  0  0
  161.3560  198.7090  145.7610 O   0  0  0  0  0  1  0  0  0  0  0  0
  161.5280  211.9030  150.4100 C   0  0  0  0  0  2  0  0  0  0  0  0
  160.4900  212.8790  149.8770 C   0  0  0  0  0  2  0  0  0  0  0  0
  162.4270  213.8550  148.0160 O   0  0  0  0  0  1  0  0  0  0  0  0
  160.8270  213.3200  148.1420 P   0  0  0  0  0  0  0  0  0  0  0  0
  160.6010  211.9740  147.1390 O   0  0  0  0  0  0  0  0  0  0  0  0
  159.8910  214.4290  147.7100 O   0  0  0  0  0  1  0  0  0  0  0  0
  1  6  1  0  0  0  0
  2  4  1  6  0  0  0
  2  1  1  0  0  0  0
  3  5  1  0  0  0  0
  3  2  1  0  0  0  0
  3  7  1  0  0  0  0
  5  2  1  0  0  0  0
  6  8  1  0  0  0  0
  7  6  1  0  0  0  0
  8  9  1  0  0  0  0
  8 10  1  0  0  0  0
 10 11  1  0  0  0  0
 12 11  1  0  0  0  0
 13 12  1  0  0  0  0
 13 15  1  0  0  0  0
 14 13  1  0  0  0  0
 17 16  1  0  0  0  0
 17 15  1  0  0  0  0
 18  7  1  0  0  0  0
 19 18  1  0  0  0  0
 20 19  2  0  0  0  0
 21 19  1  0  0  0  0
 21 22  1  0  0  0  0
 22 36  1  0  0  0  0
 22 34  1  0  0  0  0
 23 25  1  0  0  0  0
 24 27  1  0  0  0  0
 24 21  1  0  0  0  0
 25 34  1  0  0  0  0
 26 29  2  0  0  0  0
 26 33  1  0  0  0  0
 27 23  1  0  0  0  0
 28 32  1  0  0  0  0
 28 35  1  0  0  0  0
 29 30  1  0  0  0  0
 30 31  2  0  0  0  0
 31 35  1  0  0  0  0
 32 24  2  0  0  0  0
 33 28  2  0  0  0  0
 35 27  2  0  0  0  0
 37 38  2  0  0  0  0
 38 39  1  0  0  0  0
 38 29  1  0  0  0  0
 40  5  1  0  0  0  0
 41 40  1  0  0  0  0
 42 43  1  0  0  0  0
 43 41  1  0  0  0  0
 44 43  2  0  0  0  0
 45 43  1  0  0  0  0
M  END
>  <MODEL>
5

>  <REMARK>
 VINA RESULT:      -3.2      2.599      4.848
  Name = 
  14 active torsions:
  status: ('A' for Active; 'I' for Inactive)
    1  A    between atoms: C_1  and  C_31
    2  A    between atoms: N_3  and  C_31
    3  A    between atoms: N_3  and  C_44
    4  A    between atoms: C_5  and  O_10
    5  A    between atoms: C_5  and  C_16
    6  A    between atoms: C_16  and  O_26
    7  A    between atoms: C_17  and  C_32
    8  A    between atoms: P_22  and  C_28
    9  A    between atoms: C_25  and  C_36
   10  A    between atoms: O_26  and  C_33
   11  A    between atoms: C_28  and  C_36
   12  A    between atoms: C_30  and  C_41
   13  A    between atoms: C_30  and  C_42
   14  A    between atoms: C_33  and  C_41
                            x       y       z     vdW  Elec       q    Type
                         _______ _______ _______ _____ _____    ______ ____

>  <TORSDO>
F 14

$$$$
=
 OpenBabel11042421343D

 45 49  0  0  1  0  0  0  0  0999 V2000
  162.0020  206.9410  146.6830 C   0  0  0  0  0  2  0  0  0  0  0  0
  162.1930  205.4370  146.6150 C   0  0  2  0  0  0  0  0  0  0  0  0
  162.1030  204.8650  148.0120 C   0  0  2  0  0  3  0  0  0  0  0  0
  163.3930  204.8960  145.8520 C   0  0  0  0  0  1  0  0  0  0  0  0
  161.0160  204.5320  146.9900 C   0  0  2  0  0  3  0  0  0  0  0  0
  161.4250  207.2390  148.0610 C   0  0  1  0  0  3  0  0  0  0  0  0
  161.6490  205.9930  148.9330 C   0  0  2  0  0  3  0  0  0  0  0  0
  161.8260  208.6190  148.6180 C   0  0  1  0  0  3  0  0  0  0  0  0
  163.3410  208.7540  148.6690 C   0  0  0  0  0  1  0  0  0  0  0  0
  161.2050  209.7870  147.8570 C   0  0  0  0  0  2  0  0  0  0  0  0
  161.9320  211.0800  148.1910 C   0  0  0  0  0  2  0  0  0  0  0  0
  161.0590  212.1600  148.0400 O   0  0  0  0  0  0  0  0  0  0  0  0
  161.8880  213.2870  147.9680 C   0  0  1  0  0  3  0  0  0  0  0  0
  163.2330  212.8810  147.9670 O   0  0  0  0  0  1  0  0  0  0  0  0
  161.5790  214.0770  146.7030 C   0  0  0  0  0  2  0  0  0  0  0  0
  162.3150  213.3400  144.7390 C   0  0  0  0  0  1  0  0  0  0  0  0
  162.6930  214.0920  145.8580 O   0  0  0  0  0  0  0  0  0  0  0  0
  162.6540  206.2060  149.9720 N   0  0  0  0  0  2  0  0  0  0  0  0
  162.3470  206.3620  151.3690 C   0  0  0  0  0  0  0  0  0  0  0  0
  163.3180  206.3130  152.2730 C   0  0  0  0  0  2  0  0  0  0  0  0
  160.9520  206.7570  151.8100 C   0  0  1  0  0  3  0  0  0  0  0  0
  160.1650  205.6630  152.5640 C   0  0  2  0  0  3  0  0  0  0  0  0
  161.6530  207.2180  154.8120 C   0  0  0  0  0  2  0  0  0  0  0  0
  160.9010  208.0820  152.5300 C   0  0  0  0  0  0  0  0  0  0  0  0
  160.6220  206.2020  154.9350 N   0  0  0  0  0  2  0  0  0  0  0  0
  159.7470  212.4650  153.7810 C   0  0  0  0  0  3  0  0  0  0  0  0
  161.1960  208.2840  153.8720 C   0  0  0  0  0  0  0  0  0  0  0  0
  160.3810  210.1990  152.9880 C   0  0  0  0  0  0  0  0  0  0  0  0
  159.9710  212.4310  155.1620 C   0  0  0  0  0  0  0  0  0  0  0  0
  160.5040  211.3620  155.8980 C   0  0  0  0  0  3  0  0  0  0  0  0
  160.9120  210.0970  155.4920 C   0  0  0  0  0  3  0  0  0  0  0  0
  160.4130  209.2550  151.9700 C   0  0  0  0  0  3  0  0  0  0  0  0
  159.9160  211.4870  152.8100 C   0  0  0  0  0  3  0  0  0  0  0  0
  160.8320  205.2220  153.8740 C   0  0  0  0  0  2  0  0  0  0  0  0
  160.8610  209.5750  154.2100 C   0  0  0  0  0  0  0  0  0  0  0  0
  159.9830  204.5640  151.7440 F   0  0  0  0  0  0  0  0  0  0  0  0
  160.4220  214.1900  156.8810 O   0  0  0  0  0  1  0  0  0  0  0  0
  159.5660  213.6250  155.9330 C   0  0  0  0  0  0  0  0  0  0  0  0
  158.4720  214.2020  155.6730 O   0  0  0  0  0  0  0  0  0  0  0  0
  161.1800  203.1010  146.4830 C   0  0  0  0  0  2  0  0  0  0  0  0
  160.0750  202.1960  147.0060 C   0  0  0  0  0  2  0  0  0  0  0  0
  159.0880  200.9450  149.3790 O   0  0  0  0  0  1  0  0  0  0  0  0
  160.5020  201.5040  148.6350 P   0  0  0  0  0  0  0  0  0  0  0  0
  161.5930  200.2210  148.4610 O   0  0  0  0  0  0  0  0  0  0  0  0
  161.1290  202.5810  149.4950 O   0  0  0  0  0  1  0  0  0  0  0  0
  1  6  1  0  0  0  0
  2  4  1  6  0  0  0
  2  1  1  0  0  0  0
  2  5  1  0  0  0  0
  2  3  1  0  0  0  0
  3  7  1  0  0  0  0
  5  3  1  0  0  0  0
  6  8  1  0  0  0  0
  6  7  1  0  0  0  0
  7 18  1  0  0  0  0
  8  9  1  0  0  0  0
 10 11  1  0  0  0  0
 10  8  1  0  0  0  0
 12 11  1  0  0  0  0
 13 12  1  0  0  0  0
 14 13  1  0  0  0  0
 15 13  1  0  0  0  0
 16 17  1  0  0  0  0
 17 15  1  0  0  0  0
 18 19  1  0  0  0  0
 19 21  1  0  0  0  0
 19 20  2  0  0  0  0
 21 24  1  0  0  0  0
 21 22  1  0  0  0  0
 22 34  1  0  0  0  0
 23 25  1  0  0  0  0
 24 27  1  0  0  0  0
 26 29  2  0  0  0  0
 27 35  2  0  0  0  0
 27 23  1  0  0  0  0
 28 35  1  0  0  0  0
 29 30  1  0  0  0  0
 29 38  1  0  0  0  0
 31 30  2  0  0  0  0
 32 24  2  0  0  0  0
 32 28  1  0  0  0  0
 33 28  2  0  0  0  0
 33 26  1  0  0  0  0
 34 25  1  0  0  0  0
 35 31  1  0  0  0  0
 36 22  1  0  0  0  0
 38 37  1  0  0  0  0
 39 38  2  0  0  0  0
 40  5  1  0  0  0  0
 40 41  1  0  0  0  0
 41 43  1  0  0  0  0
 43 42  1  0  0  0  0
 43 45  1  0  0  0  0
 44 43  2  0  0  0  0
M  END
>  <MODEL>
6

>  <REMARK>
 VINA RESULT:      -2.9      3.275      8.871
  Name = 
  14 active torsions:
  status: ('A' for Active; 'I' for Inactive)
    1  A    between atoms: C_1  and  C_31
    2  A    between atoms: N_3  and  C_31
    3  A    between atoms: N_3  and  C_44
    4  A    between atoms: C_5  and  O_10
    5  A    between atoms: C_5  and  C_16
    6  A    between atoms: C_16  and  O_26
    7  A    between atoms: C_17  and  C_32
    8  A    between atoms: P_22  and  C_28
    9  A    between atoms: C_25  and  C_36
   10  A    between atoms: O_26  and  C_33
   11  A    between atoms: C_28  and  C_36
   12  A    between atoms: C_30  and  C_41
   13  A    between atoms: C_30  and  C_42
   14  A    between atoms: C_33  and  C_41
                            x       y       z     vdW  Elec       q    Type
                         _______ _______ _______ _____ _____    ______ ____

>  <TORSDO>
F 14

$$$$
=
 OpenBabel11042421343D

 45 49  0  0  1  0  0  0  0  0999 V2000
  162.2210  210.3280  154.6430 C   0  0  0  0  0  2  0  0  0  0  0  0
  162.5640  210.5860  153.1880 C   0  0  2  0  0  0  0  0  0  0  0  0
  162.1040  209.4080  152.3580 C   0  0  2  0  0  3  0  0  0  0  0  0
  163.9840  211.0080  152.8450 C   0  0  0  0  0  1  0  0  0  0  0  0
  161.4180  210.7640  152.1880 C   0  0  2  0  0  3  0  0  0  0  0  0
  161.2260  209.1750  154.6540 C   0  0  1  0  0  3  0  0  0  0  0  0
  161.2870  208.5030  153.2730 C   0  0  2  0  0  3  0  0  0  0  0  0
  161.3060  208.2940  155.9160 C   0  0  1  0  0  3  0  0  0  0  0  0
  162.3340  208.8510  156.8900 C   0  0  0  0  0  1  0  0  0  0  0  0
  159.9600  208.0950  156.6060 C   0  0  0  0  0  2  0  0  0  0  0  0
  159.0390  209.2670  156.3130 C   0  0  0  0  0  2  0  0  0  0  0  0
  159.3360  210.3250  157.1750 O   0  0  0  0  0  0  0  0  0  0  0  0
  158.7880  211.4580  156.5600 C   0  0  1  0  0  3  0  0  0  0  0  0
  159.8210  212.3030  156.1240 O   0  0  0  0  0  1  0  0  0  0  0  0
  157.9230  211.0370  155.3790 C   0  0  0  0  0  2  0  0  0  0  0  0
  156.2950  212.4210  154.7660 C   0  0  0  0  0  1  0  0  0  0  0  0
  156.5830  211.3530  155.6240 O   0  0  0  0  0  0  0  0  0  0  0  0
  161.9010  207.1770  153.3190 N   0  0  0  0  0  2  0  0  0  0  0  0
  161.9820  206.2870  152.1920 C   0  0  0  0  0  0  0  0  0  0  0  0
  163.0670  205.5440  152.0070 C   0  0  0  0  0  2  0  0  0  0  0  0
  160.7730  206.0540  151.3090 C   0  0  1  0  0  3  0  0  0  0  0  0
  160.2210  207.3110  150.6020 C   0  0  2  0  0  3  0  0  0  0  0  0
  162.2990  206.1590  148.5930 C   0  0  0  0  0  2  0  0  0  0  0  0
  160.9410  204.9000  150.3510 C   0  0  0  0  0  0  0  0  0  0  0  0
  161.3350  207.2280  148.3960 N   0  0  0  0  0  2  0  0  0  0  0  0
  160.2310  200.9090  147.9680 C   0  0  0  0  0  3  0  0  0  0  0  0
  161.6050  204.9530  149.1330 C   0  0  0  0  0  0  0  0  0  0  0  0
  160.5920  202.9420  149.3480 C   0  0  0  0  0  0  0  0  0  0  0  0
  160.8360  201.2040  146.7410 C   0  0  0  0  0  0  0  0  0  0  0  0
  161.5450  202.3700  146.4150 C   0  0  0  0  0  3  0  0  0  0  0  0
  161.8090  203.5090  147.1650 C   0  0  0  0  0  3  0  0  0  0  0  0
  160.3250  203.6650  150.5030 C   0  0  0  0  0  3  0  0  0  0  0  0
  160.1090  201.6680  149.1250 C   0  0  0  0  0  3  0  0  0  0  0  0
  161.2270  207.9690  149.6480 C   0  0  0  0  0  2  0  0  0  0  0  0
  161.3920  203.7710  148.4610 C   0  0  0  0  0  0  0  0  0  0  0  0
  159.8030  208.2360  151.5430 F   0  0  0  0  0  0  0  0  0  0  0  0
  160.0020  200.5260  144.4830 O   0  0  0  0  0  0  0  0  0  0  0  0
  160.6770  200.2050  145.6630 C   0  0  0  0  0  0  0  0  0  0  0  0
  161.2340  199.0750  145.7640 O   0  0  0  0  0  1  0  0  0  0  0  0
  161.8620  211.4270  150.8860 C   0  0  0  0  0  2  0  0  0  0  0  0
  160.7810  212.3430  150.3320 C   0  0  0  0  0  2  0  0  0  0  0  0
  161.9400  214.4310  148.7610 O   0  0  0  0  0  1  0  0  0  0  0  0
  161.1950  212.9150  148.6530 P   0  0  0  0  0  0  0  0  0  0  0  0
  162.2490  211.8220  147.9020 O   0  0  0  0  0  1  0  0  0  0  0  0
  159.9290  213.0350  147.8310 O   0  0  0  0  0  0  0  0  0  0  0  0
  1  6  1  0  0  0  0
  2  4  1  6  0  0  0
  2  1  1  0  0  0  0
  3  2  1  0  0  0  0
  3  7  1  0  0  0  0
  5  3  1  0  0  0  0
  5  2  1  0  0  0  0
  6  8  1  0  0  0  0
  7 18  1  0  0  0  0
  7  6  1  0  0  0  0
  8 10  1  0  0  0  0
  8  9  1  0  0  0  0
 11 10  1  0  0  0  0
 11 12  1  0  0  0  0
 13 12  1  0  0  0  0
 14 13  1  0  0  0  0
 15 17  1  0  0  0  0
 15 13  1  0  0  0  0
 16 17  1  0  0  0  0
 19 18  1  0  0  0  0
 20 19  2  0  0  0  0
 21 19  1  0  0  0  0
 22 21  1  0  0  0  0
 22 36  1  0  0  0  0
 23 27  1  0  0  0  0
 24 32  1  0  0  0  0
 24 21  1  0  0  0  0
 25 23  1  0  0  0  0
 25 34  1  0  0  0  0
 26 33  2  0  0  0  0
 27 24  2  0  0  0  0
 28 32  2  0  0  0  0
 29 26  1  0  0  0  0
 30 29  2  0  0  0  0
 30 31  1  0  0  0  0
 31 35  2  0  0  0  0
 33 28  1  0  0  0  0
 34 22  1  0  0  0  0
 35 27  1  0  0  0  0
 35 28  1  0  0  0  0
 37 38  2  0  0  0  0
 38 39  1  0  0  0  0
 38 29  1  0  0  0  0
 40  5  1  0  0  0  0
 41 40  1  0  0  0  0
 43 42  1  0  0  0  0
 43 41  1  0  0  0  0
 44 43  1  0  0  0  0
 45 43  2  0  0  0  0
M  END
>  <MODEL>
7

>  <REMARK>
 VINA RESULT:      -2.9      2.601      5.189
  Name = 
  14 active torsions:
  status: ('A' for Active; 'I' for Inactive)
    1  A    between atoms: C_1  and  C_31
    2  A    between atoms: N_3  and  C_31
    3  A    between atoms: N_3  and  C_44
    4  A    between atoms: C_5  and  O_10
    5  A    between atoms: C_5  and  C_16
    6  A    between atoms: C_16  and  O_26
    7  A    between atoms: C_17  and  C_32
    8  A    between atoms: P_22  and  C_28
    9  A    between atoms: C_25  and  C_36
   10  A    between atoms: O_26  and  C_33
   11  A    between atoms: C_28  and  C_36
   12  A    between atoms: C_30  and  C_41
   13  A    between atoms: C_30  and  C_42
   14  A    between atoms: C_33  and  C_41
                            x       y       z     vdW  Elec       q    Type
                         _______ _______ _______ _____ _____    ______ ____

>  <TORSDO>
F 14

$$$$
=
 OpenBabel11042421343D

 45 49  0  0  1  0  0  0  0  0999 V2000
  160.9340  212.1060  149.5000 C   0  0  0  0  0  2  0  0  0  0  0  0
  161.8630  210.9080  149.5670 C   0  0  2  0  0  0  0  0  0  0  0  0
  161.7050  210.2370  150.9130 C   0  0  2  0  0  3  0  0  0  0  0  0
  163.3240  211.1060  149.1950 C   0  0  0  0  0  1  0  0  0  0  0  0
  161.2460  209.5090  149.6500 C   0  0  2  0  0  3  0  0  0  0  0  0
  159.9450  211.9500  150.6470 C   0  0  1  0  0  3  0  0  0  0  0  0
  160.5220  210.9010  151.6120 C   0  0  2  0  0  3  0  0  0  0  0  0
  159.4370  213.2870  151.2190 C   0  0  1  0  0  3  0  0  0  0  0  0
  160.1960  214.4530  150.6030 C   0  0  0  0  0  1  0  0  0  0  0  0
  157.9310  213.4830  151.0660 C   0  0  0  0  0  2  0  0  0  0  0  0
  157.4960  213.1380  149.6520 C   0  0  0  0  0  2  0  0  0  0  0  0
  157.2660  214.3130  148.9320 O   0  0  0  0  0  0  0  0  0  0  0  0
  157.2210  213.9120  147.5910 C   0  0  1  0  0  3  0  0  0  0  0  0
  156.0420  214.3910  146.9970 O   0  0  0  0  0  1  0  0  0  0  0  0
  158.4370  214.4500  146.8490 C   0  0  0  0  0  2  0  0  0  0  0  0
  160.1560  213.0950  146.4690 C   0  0  0  0  0  1  0  0  0  0  0  0
  158.9180  213.4930  145.9510 O   0  0  0  0  0  0  0  0  0  0  0  0
  160.9690  211.4830  152.8750 N   0  0  0  0  0  2  0  0  0  0  0  0
  160.8400  210.8340  154.1520 C   0  0  0  0  0  0  0  0  0  0  0  0
  159.7900  211.0870  154.9260 C   0  0  0  0  0  2  0  0  0  0  0  0
  161.7980  209.7290  154.5520 C   0  0  1  0  0  3  0  0  0  0  0  0
  161.9330  209.4930  156.0720 C   0  0  2  0  0  3  0  0  0  0  0  0
  159.6190  207.6000  155.2110 C   0  0  0  0  0  2  0  0  0  0  0  0
  161.5760  208.4390  153.8020 C   0  0  0  0  0  0  0  0  0  0  0  0
  160.3100  207.6740  156.4870 N   0  0  0  0  0  2  0  0  0  0  0  0
  162.2800  204.5820  151.2060 C   0  0  0  0  0  3  0  0  0  0  0  0
  160.6170  207.4820  154.1080 C   0  0  0  0  0  0  0  0  0  0  0  0
  161.9650  206.6960  152.4700 C   0  0  0  0  0  0  0  0  0  0  0  0
  161.3360  203.7030  151.7480 C   0  0  0  0  0  0  0  0  0  0  0  0
  160.3860  204.0000  152.7370 C   0  0  0  0  0  3  0  0  0  0  0  0
  160.1450  205.1750  153.4380 C   0  0  0  0  0  3  0  0  0  0  0  0
  162.4030  207.9750  152.7880 C   0  0  0  0  0  3  0  0  0  0  0  0
  162.5750  205.9030  151.5190 C   0  0  0  0  0  3  0  0  0  0  0  0
  160.6190  209.0760  156.7470 C   0  0  0  0  0  2  0  0  0  0  0  0
  160.8370  206.3700  153.3280 C   0  0  0  0  0  0  0  0  0  0  0  0
  162.4250  210.6330  156.6840 F   0  0  0  0  0  0  0  0  0  0  0  0
  160.4500  201.8600  150.3090 O   0  0  0  0  0  0  0  0  0  0  0  0
  161.3680  202.3080  151.2610 C   0  0  0  0  0  0  0  0  0  0  0  0
  162.2890  201.5300  151.6400 O   0  0  0  0  0  1  0  0  0  0  0  0
  162.2310  208.4010  149.2850 C   0  0  0  0  0  2  0  0  0  0  0  0
  162.0860  207.9860  147.8290 C   0  0  0  0  0  2  0  0  0  0  0  0
  160.0960  206.2170  148.8680 O   0  0  0  0  0  1  0  0  0  0  0  0
  161.2970  206.3510  147.6830 P   0  0  0  0  0  0  0  0  0  0  0  0
  160.6000  206.1690  146.1500 O   0  0  0  0  0  0  0  0  0  0  0  0
  162.3320  205.2670  147.8940 O   0  0  0  0  0  1  0  0  0  0  0  0
  1  2  1  0  0  0  0
  1  6  1  0  0  0  0
  2  4  1  6  0  0  0
  2  5  1  0  0  0  0
  2  3  1  0  0  0  0
  3  7  1  0  0  0  0
  5  3  1  0  0  0  0
  6  8  1  0  0  0  0
  6  7  1  0  0  0  0
  7 18  1  0  0  0  0
  9  8  1  0  0  0  0
 10  8  1  0  0  0  0
 11 10  1  0  0  0  0
 12 11  1  0  0  0  0
 13 12  1  0  0  0  0
 14 13  1  0  0  0  0
 15 13  1  0  0  0  0
 17 16  1  0  0  0  0
 17 15  1  0  0  0  0
 18 19  1  0  0  0  0
 19 21  1  0  0  0  0
 19 20  2  0  0  0  0
 21 22  1  0  0  0  0
 22 36  1  0  0  0  0
 22 34  1  0  0  0  0
 23 25  1  0  0  0  0
 24 27  1  0  0  0  0
 24 21  1  0  0  0  0
 25 34  1  0  0  0  0
 26 33  1  0  0  0  0
 26 29  2  0  0  0  0
 27 23  1  0  0  0  0
 28 32  1  0  0  0  0
 28 35  1  0  0  0  0
 29 30  1  0  0  0  0
 30 31  2  0  0  0  0
 32 24  2  0  0  0  0
 33 28  2  0  0  0  0
 35 31  1  0  0  0  0
 35 27  2  0  0  0  0
 37 38  2  0  0  0  0
 38 39  1  0  0  0  0
 38 29  1  0  0  0  0
 40  5  1  0  0  0  0
 41 40  1  0  0  0  0
 43 41  1  0  0  0  0
 43 45  1  0  0  0  0
 43 42  1  0  0  0  0
 44 43  2  0  0  0  0
M  END
>  <MODEL>
8

>  <REMARK>
 VINA RESULT:      -2.8      3.068      5.088
  Name = 
  14 active torsions:
  status: ('A' for Active; 'I' for Inactive)
    1  A    between atoms: C_1  and  C_31
    2  A    between atoms: N_3  and  C_31
    3  A    between atoms: N_3  and  C_44
    4  A    between atoms: C_5  and  O_10
    5  A    between atoms: C_5  and  C_16
    6  A    between atoms: C_16  and  O_26
    7  A    between atoms: C_17  and  C_32
    8  A    between atoms: P_22  and  C_28
    9  A    between atoms: C_25  and  C_36
   10  A    between atoms: O_26  and  C_33
   11  A    between atoms: C_28  and  C_36
   12  A    between atoms: C_30  and  C_41
   13  A    between atoms: C_30  and  C_42
   14  A    between atoms: C_33  and  C_41
                            x       y       z     vdW  Elec       q    Type
                         _______ _______ _______ _____ _____    ______ ____

>  <TORSDO>
F 14

$$$$
=
 OpenBabel11042421343D

 45 49  0  0  1  0  0  0  0  0999 V2000
  161.2180  211.1390  151.1610 C   0  0  0  0  0  2  0  0  0  0  0  0
  160.9450  210.3370  152.4200 C   0  0  2  0  0  0  0  0  0  0  0  0
  161.8330  209.1130  152.4260 C   0  0  2  0  0  3  0  0  0  0  0  0
  159.5020  209.9990  152.7620 C   0  0  0  0  0  1  0  0  0  0  0  0
  162.0590  210.2120  153.4630 C   0  0  2  0  0  3  0  0  0  0  0  0
  162.5250  210.6100  150.5870 C   0  0  1  0  0  3  0  0  0  0  0  0
  162.8100  209.2590  151.2640 C   0  0  2  0  0  3  0  0  0  0  0  0
  162.6170  210.7080  149.0520 C   0  0  1  0  0  3  0  0  0  0  0  0
  161.2280  210.8230  148.4410 C   0  0  0  0  0  1  0  0  0  0  0  0
  163.5160  211.8420  148.5670 C   0  0  0  0  0  2  0  0  0  0  0  0
  162.6840  212.9280  147.9070 C   0  0  0  0  0  2  0  0  0  0  0  0
  163.0730  213.0720  146.5730 O   0  0  0  0  0  0  0  0  0  0  0  0
  161.8740  213.1470  145.8530 C   0  0  1  0  0  3  0  0  0  0  0  0
  160.9310  213.8860  146.5850 O   0  0  0  0  0  1  0  0  0  0  0  0
  162.1210  213.8050  144.5020 C   0  0  0  0  0  2  0  0  0  0  0  0
  162.2380  213.0760  142.4060 C   0  0  0  0  0  1  0  0  0  0  0  0
  162.8330  212.9400  143.6660 O   0  0  0  0  0  0  0  0  0  0  0  0
  162.6530  208.1280  150.3520 N   0  0  0  0  0  2  0  0  0  0  0  0
  162.4200  206.7750  150.7790 C   0  0  0  0  0  0  0  0  0  0  0  0
  163.2600  206.1900  151.6250 C   0  0  0  0  0  2  0  0  0  0  0  0
  161.1320  206.0640  150.4130 C   0  0  1  0  0  3  0  0  0  0  0  0
  160.0320  206.9630  149.8080 C   0  0  2  0  0  3  0  0  0  0  0  0
  161.6460  205.9670  147.3400 C   0  0  0  0  0  2  0  0  0  0  0  0
  161.3460  204.8130  149.5980 C   0  0  0  0  0  0  0  0  0  0  0  0
  160.3890  206.6930  147.3750 N   0  0  0  0  0  2  0  0  0  0  0  0
  161.2050  200.3580  148.0990 C   0  0  0  0  0  3  0  0  0  0  0  0
  161.5560  204.7690  148.2260 C   0  0  0  0  0  0  0  0  0  0  0  0
  161.3270  202.6620  149.0170 C   0  0  0  0  0  0  0  0  0  0  0  0
  161.2850  200.5260  146.7120 C   0  0  0  0  0  0  0  0  0  0  0  0
  161.4660  201.7350  146.0250 C   0  0  0  0  0  3  0  0  0  0  0  0
  161.5830  203.0370  146.4960 C   0  0  0  0  0  3  0  0  0  0  0  0
  161.2170  203.5240  150.1000 C   0  0  0  0  0  3  0  0  0  0  0  0
  161.2140  201.2900  149.1280 C   0  0  0  0  0  3  0  0  0  0  0  0
  160.4450  207.6330  148.4900 C   0  0  0  0  0  2  0  0  0  0  0  0
  161.5220  203.4560  147.8150 C   0  0  0  0  0  0  0  0  0  0  0  0
  159.6590  207.9330  150.7220 F   0  0  0  0  0  0  0  0  0  0  0  0
  161.7320  198.1110  146.2430 O   0  0  0  0  0  1  0  0  0  0  0  0
  161.1190  199.3140  145.8830 C   0  0  0  0  0  0  0  0  0  0  0  0
  160.3440  199.3340  144.8860 O   0  0  0  0  0  0  0  0  0  0  0  0
  161.5470  209.7690  154.8320 C   0  0  0  0  0  2  0  0  0  0  0  0
  161.4390  208.2540  154.9210 C   0  0  0  0  0  2  0  0  0  0  0  0
  161.1210  206.6430  157.2600 O   0  0  0  0  0  1  0  0  0  0  0  0
  160.3170  207.7490  156.2640 P   0  0  0  0  0  0  0  0  0  0  0  0
  159.8510  209.0970  157.1780 O   0  0  0  0  0  1  0  0  0  0  0  0
  159.0850  207.0930  155.6760 O   0  0  0  0  0  0  0  0  0  0  0  0
  1  2  1  0  0  0  0
  2  3  1  0  0  0  0
  2  4  1  1  0  0  0
  2  5  1  0  0  0  0
  3  5  1  0  0  0  0
  5 40  1  0  0  0  0
  6  1  1  0  0  0  0
  6  7  1  0  0  0  0
  7  3  1  0  0  0  0
  8  6  1  0  0  0  0
  9  8  1  0  0  0  0
 10  8  1  0  0  0  0
 11 10  1  0  0  0  0
 12 11  1  0  0  0  0
 13 12  1  0  0  0  0
 13 14  1  0  0  0  0
 15 13  1  0  0  0  0
 16 17  1  0  0  0  0
 17 15  1  0  0  0  0
 18 19  1  0  0  0  0
 18  7  1  0  0  0  0
 19 20  2  0  0  0  0
 21 19  1  0  0  0  0
 22 21  1  0  0  0  0
 22 36  1  0  0  0  0
 23 25  1  0  0  0  0
 23 27  1  0  0  0  0
 24 32  1  0  0  0  0
 24 21  1  0  0  0  0
 25 34  1  0  0  0  0
 26 33  2  0  0  0  0
 27 24  2  0  0  0  0
 28 33  1  0  0  0  0
 28 32  2  0  0  0  0
 29 26  1  0  0  0  0
 30 31  1  0  0  0  0
 30 29  2  0  0  0  0
 31 35  2  0  0  0  0
 34 22  1  0  0  0  0
 35 27  1  0  0  0  0
 35 28  1  0  0  0  0
 38 37  1  0  0  0  0
 38 29  1  0  0  0  0
 39 38  2  0  0  0  0
 40 41  1  0  0  0  0
 41 43  1  0  0  0  0
 43 44  1  0  0  0  0
 43 42  1  0  0  0  0
 45 43  2  0  0  0  0
M  END
>  <MODEL>
9

>  <REMARK>
 VINA RESULT:      -2.6      3.883      8.225
  Name = 
  14 active torsions:
  status: ('A' for Active; 'I' for Inactive)
    1  A    between atoms: C_1  and  C_31
    2  A    between atoms: N_3  and  C_31
    3  A    between atoms: N_3  and  C_44
    4  A    between atoms: C_5  and  O_10
    5  A    between atoms: C_5  and  C_16
    6  A    between atoms: C_16  and  O_26
    7  A    between atoms: C_17  and  C_32
    8  A    between atoms: P_22  and  C_28
    9  A    between atoms: C_25  and  C_36
   10  A    between atoms: O_26  and  C_33
   11  A    between atoms: C_28  and  C_36
   12  A    between atoms: C_30  and  C_41
   13  A    between atoms: C_30  and  C_42
   14  A    between atoms: C_33  and  C_41
                            x       y       z     vdW  Elec       q    Type
                         _______ _______ _______ _____ _____    ______ ____

>  <TORSDO>
F 14

$$$$
