=
 OpenBabel11042422083D

 50 54  0  0  1  0  0  0  0  0999 V2000
  160.1550  212.2810  147.7930 C   0  0  2  0  0  3  0  0  0  0  0  0
  161.4590  212.4780  150.0110 C   0  0  2  0  0  3  0  0  0  0  0  0
  159.9590  213.7510  148.1550 C   0  0  2  0  0  3  0  0  0  0  0  0
  160.7580  214.1380  149.7530 S   0  0  0  0  0  0  0  0  0  0  0  0
  161.7640  211.7090  148.4040 S   0  0  0  0  0  0  0  0  0  0  0  0
  161.0200  212.7210  145.4560 C   0  0  0  0  0  0  0  0  0  0  0  0
  162.3610  213.6110  145.8780 S   0  0  0  0  0  0  0  0  0  0  0  0
  162.9660  213.8030  144.3410 N   0  0  0  0  0  0  0  0  0  0  0  0
  162.0810  213.1620  143.5280 C   0  0  0  0  0  0  0  0  0  0  0  0
  161.0150  212.5340  144.1210 N   0  0  0  0  0  0  0  0  0  0  0  0
  160.0860  212.1110  146.3470 N   0  0  0  0  0  2  0  0  0  0  0  0
  162.3280  213.0570  142.0680 C   0  0  0  0  0  2  0  0  0  0  0  0
  161.6460  211.8130  141.5140 C   0  0  0  0  0  2  0  0  0  0  0  0
  162.0450  213.0240  139.4710 O   0  0  0  0  0  1  0  0  0  0  0  0
  161.5140  211.8340  139.9820 C   0  0  2  0  0  0  0  0  0  0  0  0
  160.0340  211.7650  139.6090 C   0  0  0  0  0  2  0  0  0  0  0  0
  159.7280  212.6980  138.6150 O   0  0  0  0  0  1  0  0  0  0  0  0
  161.8950  209.4450  139.9590 O   0  0  0  0  0  1  0  0  0  0  0  0
  162.2450  210.6450  139.3330 C   0  0  1  0  0  3  0  0  0  0  0  0
  161.9980  210.5450  137.8320 C   0  0  0  0  0  2  0  0  0  0  0  0
  161.8870  209.0920  137.4230 C   0  0  0  0  0  1  0  0  0  0  0  0
  157.9450  214.4530  147.0450 O   0  0  0  0  0  0  0  0  0  0  0  0
  158.5000  214.1540  148.1410 C   0  0  0  0  0  0  0  0  0  0  0  0
  157.7130  214.2750  149.3850 C   0  0  0  0  0  0  0  0  0  0  0  0
  158.2010  214.3230  150.6780 C   0  0  0  0  0  3  0  0  0  0  0  0
  157.0590  214.4150  151.4500 C   0  0  0  0  0  0  0  0  0  0  0  0
  156.3320  214.3530  149.4420 C   0  0  0  0  0  3  0  0  0  0  0  0
  155.9830  214.4400  150.7040 O   0  0  0  0  0  0  0  0  0  0  0  0
  157.0350  214.4530  152.9410 C   0  0  0  0  0  2  0  0  0  0  0  0
  157.7870  213.2770  153.5520 C   0  0  0  0  0  0  0  0  0  0  0  0
  157.8580  212.2590  152.6170 F   0  0  0  0  0  0  0  0  0  0  0  0
  159.0710  213.6620  153.9000 F   0  0  0  0  0  0  0  0  0  0  0  0
  157.1250  212.8150  154.6770 F   0  0  0  0  0  0  0  0  0  0  0  0
  160.5300  211.6150  150.8560 C   0  0  0  0  0  2  0  0  0  0  0  0
  161.4350  209.4480  150.1850 N   0  0  0  0  0  2  0  0  0  0  0  0
  161.2950  208.4500  152.8880 C   0  0  2  0  0  3  0  0  0  0  0  0
  161.8890  207.3120  149.3900 O   0  0  0  0  0  0  0  0  0  0  0  0
  160.4730  209.6430  152.4020 C   0  0  0  0  0  2  0  0  0  0  0  0
  161.2530  210.3540  151.3090 C   0  0  2  0  0  3  0  0  0  0  0  0
  161.5550  207.4310  151.7570 C   0  0  1  0  0  3  0  0  0  0  0  0
  161.6720  208.0490  150.3860 C   0  0  0  0  0  0  0  0  0  0  0  0
  160.5430  208.6200  155.2620 C   0  0  0  0  0  2  0  0  0  0  0  0
  161.4810  207.5850  155.1140 O   0  0  0  0  0  0  0  0  0  0  0  0
  160.5720  207.7620  154.0500 C   0  0  2  0  0  3  0  0  0  0  0  0
  162.8000  206.5920  152.0430 C   0  0  0  0  0  2  0  0  0  0  0  0
  162.6110  205.1290  151.6860 C   0  0  0  0  0  2  0  0  0  0  0  0
  161.1740  204.6960  151.9350 C   0  0  0  0  0  2  0  0  0  0  0  0
  160.5270  203.4230  149.8770 O   0  0  0  0  0  0  0  0  0  0  0  0
  160.8960  203.4130  151.2300 C   0  0  0  0  0  0  0  0  0  0  0  0
  161.0410  202.3210  151.8380 O   0  0  0  0  0  1  0  0  0  0  0  0
  1 11  1  6  0  0  0
  1  3  1  0  0  0  0
  1  5  1  0  0  0  0
  2 34  1  1  0  0  0
  3 23  1  1  0  0  0
  3  4  1  0  0  0  0
  4  2  1  0  0  0  0
  5  2  1  0  0  0  0
  6  7  1  0  0  0  0
  6 11  1  0  0  0  0
  8  7  1  0  0  0  0
  9 10  1  0  0  0  0
  9  8  2  0  0  0  0
 10  6  2  0  0  0  0
 12  9  1  0  0  0  0
 13 12  1  0  0  0  0
 15 14  1  6  0  0  0
 15 13  1  0  0  0  0
 16 15  1  0  0  0  0
 17 16  1  0  0  0  0
 19 18  1  1  0  0  0
 19 15  1  0  0  0  0
 20 19  1  0  0  0  0
 21 20  1  0  0  0  0
 22 23  2  0  0  0  0
 23 24  1  0  0  0  0
 24 27  2  0  0  0  0
 24 25  1  0  0  0  0
 25 26  2  0  0  0  0
 26 29  1  0  0  0  0
 27 28  1  0  0  0  0
 28 26  1  0  0  0  0
 29 30  1  0  0  0  0
 30 32  1  0  0  0  0
 30 33  1  0  0  0  0
 31 30  1  0  0  0  0
 35 41  1  0  0  0  0
 35 39  1  0  0  0  0
 36 38  1  6  0  0  0
 36 44  1  0  0  0  0
 37 41  2  0  0  0  0
 39 34  1  6  0  0  0
 39 38  1  0  0  0  0
 40 45  1  1  0  0  0
 40 36  1  0  0  0  0
 41 40  1  0  0  0  0
 43 42  1  0  0  0  0
 44 43  1  0  0  0  0
 44 42  1  1  0  0  0
 46 47  1  0  0  0  0
 46 45  1  0  0  0  0
 48 49  2  0  0  0  0
 49 50  1  0  0  0  0
 49 47  1  0  0  0  0
M  END
>  <MODEL>
1

>  <REMARK>
 VINA RESULT:      -5.1      0.000      0.000
  Name = 
  18 active torsions:
  status: ('A' for Active; 'I' for Inactive)
    1  A    between atoms: C_2  and  N_40
    2  A    between atoms: C_3  and  C_25
    3  A    between atoms: C_3  and  C_44
    4  A    between atoms: C_4  and  C_19
    5  A    between atoms: C_4  and  C_35
    6  A    between atoms: C_7  and  C_9
    7  A    between atoms: C_7  and  C_43
    8  A    between atoms: C_10  and  C_17
    9  A    between atoms: C_11  and  C_46
   10  A    between atoms: C_12  and  C_35
   11  A    between atoms: C_13  and  C_37
   12  A    between atoms: C_13  and  C_44
   13  A    between atoms: C_17  and  C_38
   14  A    between atoms: C_18  and  C_44
   15  A    between atoms: C_19  and  C_39
   16  A    between atoms: C_21  and  C_48
   17  A    between atoms: C_24  and  C_48
   18  A    between atoms: C_25  and  C_33
                            x       y       z     vdW  Elec       q    Type
                         _______ _______ _______ _____ _____    ______ ____

>  <TORSDO>
F 18

$$$$
=
 OpenBabel11042422083D

 50 54  0  0  1  0  0  0  0  0999 V2000
  161.2480  208.9840  153.5080 C   0  0  2  0  0  3  0  0  0  0  0  0
  161.2100  209.8830  155.9270 C   0  0  2  0  0  3  0  0  0  0  0  0
  161.4830  210.4790  153.3040 C   0  0  2  0  0  3  0  0  0  0  0  0
  161.4420  211.3680  154.9000 S   0  0  0  0  0  0  0  0  0  0  0  0
  161.9590  208.4640  155.0940 S   0  0  0  0  0  0  0  0  0  0  0  0
  161.5610  206.8560  152.1780 C   0  0  0  0  0  0  0  0  0  0  0  0
  160.4370  205.9250  152.9780 S   0  0  0  0  0  0  0  0  0  0  0  0
  160.5870  204.5680  152.0290 N   0  0  0  0  0  0  0  0  0  0  0  0
  161.5340  204.8860  151.1020 C   0  0  0  0  0  0  0  0  0  0  0  0
  162.0660  206.1490  151.1470 N   0  0  0  0  0  0  0  0  0  0  0  0
  161.8590  208.2300  152.4210 N   0  0  0  0  0  2  0  0  0  0  0  0
  161.8910  203.9320  150.0220 C   0  0  0  0  0  2  0  0  0  0  0  0
  160.9290  204.0900  148.8510 C   0  0  0  0  0  2  0  0  0  0  0  0
  162.7750  205.4190  148.0640 O   0  0  0  0  0  1  0  0  0  0  0  0
  161.5050  204.9480  147.7140 C   0  0  2  0  0  0  0  0  0  0  0  0
  160.5900  206.1500  147.4840 C   0  0  0  0  0  2  0  0  0  0  0  0
  160.1360  206.6680  148.6990 O   0  0  0  0  0  1  0  0  0  0  0  0
  162.8830  204.3050  145.8330 O   0  0  0  0  0  1  0  0  0  0  0  0
  161.6160  204.1510  146.4020 C   0  0  1  0  0  3  0  0  0  0  0  0
  161.2970  202.6710  146.5780 C   0  0  0  0  0  2  0  0  0  0  0  0
  160.5240  202.1640  145.3800 C   0  0  0  0  0  1  0  0  0  0  0  0
  159.2890  211.1400  152.5760 O   0  0  0  0  0  0  0  0  0  0  0  0
  160.5210  211.0770  152.2990 C   0  0  0  0  0  0  0  0  0  0  0  0
  160.9680  211.5300  150.9670 C   0  0  0  0  0  0  0  0  0  0  0  0
  160.6330  212.7130  150.3340 C   0  0  0  0  0  3  0  0  0  0  0  0
  161.2920  212.6280  149.1220 C   0  0  0  0  0  0  0  0  0  0  0  0
  161.8050  210.8150  150.1280 C   0  0  0  0  0  3  0  0  0  0  0  0
  161.9760  211.5160  149.0320 O   0  0  0  0  0  0  0  0  0  0  0  0
  161.2210  213.6490  148.0370 C   0  0  0  0  0  2  0  0  0  0  0  0
  160.5100  213.1160  146.7990 C   0  0  0  0  0  0  0  0  0  0  0  0
  159.7430  214.1310  146.2540 F   0  0  0  0  0  0  0  0  0  0  0  0
  161.4370  212.6960  145.8610 F   0  0  0  0  0  0  0  0  0  0  0  0
  159.6860  212.0560  147.1370 F   0  0  0  0  0  0  0  0  0  0  0  0
  159.7320  209.6300  156.2020 C   0  0  0  0  0  2  0  0  0  0  0  0
  159.1050  211.9670  156.5340 N   0  0  0  0  0  2  0  0  0  0  0  0
  156.6450  211.6110  155.0700 C   0  0  2  0  0  3  0  0  0  0  0  0
  158.4030  214.0600  157.2600 O   0  0  0  0  0  0  0  0  0  0  0  0
  157.4190  210.4460  155.6850 C   0  0  0  0  0  2  0  0  0  0  0  0
  158.8970  210.7970  155.6940 C   0  0  2  0  0  3  0  0  0  0  0  0
  156.8140  212.9100  155.8880 C   0  0  1  0  0  3  0  0  0  0  0  0
  158.1530  213.0380  156.5710 C   0  0  0  0  0  0  0  0  0  0  0  0
  154.7020  210.4790  156.1530 C   0  0  0  0  0  2  0  0  0  0  0  0
  155.0300  209.8460  154.9440 O   0  0  0  0  0  0  0  0  0  0  0  0
  155.1600  211.2500  154.9700 C   0  0  2  0  0  3  0  0  0  0  0  0
  156.5670  214.1450  155.0220 C   0  0  0  0  0  2  0  0  0  0  0  0
  157.3110  214.0870  153.7000 C   0  0  0  0  0  2  0  0  0  0  0  0
  156.3360  214.1240  152.5330 C   0  0  0  0  0  2  0  0  0  0  0  0
  158.4470  214.4520  151.2250 O   0  0  0  0  0  1  0  0  0  0  0  0
  157.0820  214.1320  151.2430 C   0  0  0  0  0  0  0  0  0  0  0  0
  156.4950  213.8040  150.1780 O   0  0  0  0  0  0  0  0  0  0  0  0
  1 11  1  6  0  0  0
  1  5  1  0  0  0  0
  2 34  1  6  0  0  0
  3 23  1  6  0  0  0
  3  1  1  0  0  0  0
  3  4  1  0  0  0  0
  4  2  1  0  0  0  0
  5  2  1  0  0  0  0
  6 11  1  0  0  0  0
  6  7  1  0  0  0  0
  8  7  1  0  0  0  0
  9 10  1  0  0  0  0
  9  8  2  0  0  0  0
 10  6  2  0  0  0  0
 12  9  1  0  0  0  0
 13 12  1  0  0  0  0
 15 14  1  1  0  0  0
 15 13  1  0  0  0  0
 16 15  1  0  0  0  0
 16 17  1  0  0  0  0
 19 18  1  1  0  0  0
 19 20  1  0  0  0  0
 19 15  1  0  0  0  0
 21 20  1  0  0  0  0
 23 22  2  0  0  0  0
 24 23  1  0  0  0  0
 25 24  1  0  0  0  0
 26 25  2  0  0  0  0
 27 24  2  0  0  0  0
 28 26  1  0  0  0  0
 28 27  1  0  0  0  0
 29 26  1  0  0  0  0
 30 33  1  0  0  0  0
 30 29  1  0  0  0  0
 31 30  1  0  0  0  0
 32 30  1  0  0  0  0
 35 41  1  0  0  0  0
 36 38  1  1  0  0  0
 36 40  1  0  0  0  0
 38 39  1  0  0  0  0
 39 34  1  1  0  0  0
 39 35  1  0  0  0  0
 40 45  1  6  0  0  0
 40 41  1  0  0  0  0
 41 37  2  0  0  0  0
 43 44  1  0  0  0  0
 43 42  1  0  0  0  0
 44 36  1  0  0  0  0
 44 42  1  1  0  0  0
 46 45  1  0  0  0  0
 47 46  1  0  0  0  0
 48 49  1  0  0  0  0
 49 47  1  0  0  0  0
 50 49  2  0  0  0  0
M  END
>  <MODEL>
2

>  <REMARK>
 VINA RESULT:      -4.7      5.265      8.684
  Name = 
  18 active torsions:
  status: ('A' for Active; 'I' for Inactive)
    1  A    between atoms: C_2  and  N_40
    2  A    between atoms: C_3  and  C_25
    3  A    between atoms: C_3  and  C_44
    4  A    between atoms: C_4  and  C_19
    5  A    between atoms: C_4  and  C_35
    6  A    between atoms: C_7  and  C_9
    7  A    between atoms: C_7  and  C_43
    8  A    between atoms: C_10  and  C_17
    9  A    between atoms: C_11  and  C_46
   10  A    between atoms: C_12  and  C_35
   11  A    between atoms: C_13  and  C_37
   12  A    between atoms: C_13  and  C_44
   13  A    between atoms: C_17  and  C_38
   14  A    between atoms: C_18  and  C_44
   15  A    between atoms: C_19  and  C_39
   16  A    between atoms: C_21  and  C_48
   17  A    between atoms: C_24  and  C_48
   18  A    between atoms: C_25  and  C_33
                            x       y       z     vdW  Elec       q    Type
                         _______ _______ _______ _____ _____    ______ ____

>  <TORSDO>
F 18

$$$$
=
 OpenBabel11042422083D

 50 54  0  0  1  0  0  0  0  0999 V2000
  160.6560  212.7880  148.9050 C   0  0  2  0  0  3  0  0  0  0  0  0
  161.3610  213.5770  146.5520 C   0  0  2  0  0  3  0  0  0  0  0  0
  162.0780  212.2430  148.7920 C   0  0  2  0  0  3  0  0  0  0  0  0
  162.7930  212.6280  147.1550 S   0  0  0  0  0  0  0  0  0  0  0  0
  160.5150  214.3300  147.9600 S   0  0  0  0  0  0  0  0  0  0  0  0
  159.0420  213.4960  150.7200 C   0  0  0  0  0  0  0  0  0  0  0  0
  157.7090  213.7320  149.7530 S   0  0  0  0  0  0  0  0  0  0  0  0
  156.6390  214.0980  150.9720 N   0  0  0  0  0  0  0  0  0  0  0  0
  157.3710  214.0320  152.1190 C   0  0  0  0  0  0  0  0  0  0  0  0
  158.6910  213.6760  152.0090 N   0  0  0  0  0  0  0  0  0  0  0  0
  160.3260  213.0330  150.3040 N   0  0  0  0  0  2  0  0  0  0  0  0
  156.7300  214.2320  153.4430 C   0  0  0  0  0  2  0  0  0  0  0  0
  157.7710  214.1100  154.5480 C   0  0  0  0  0  2  0  0  0  0  0  0
  158.0980  213.1190  156.7190 O   0  0  0  0  0  1  0  0  0  0  0  0
  157.5400  212.8910  155.4560 C   0  0  2  0  0  0  0  0  0  0  0  0
  158.2250  211.6730  154.8380 C   0  0  0  0  0  2  0  0  0  0  0  0
  159.5920  211.9040  154.6680 O   0  0  0  0  0  1  0  0  0  0  0  0
  155.5540  211.8700  154.5260 O   0  0  0  0  0  1  0  0  0  0  0  0
  156.0410  212.5850  155.6240 C   0  0  1  0  0  3  0  0  0  0  0  0
  155.7290  211.8380  156.9160 C   0  0  0  0  0  2  0  0  0  0  0  0
  155.0530  210.5210  156.6000 C   0  0  0  0  0  1  0  0  0  0  0  0
  162.4250  209.9420  148.1850 O   0  0  0  0  0  0  0  0  0  0  0  0
  162.1490  210.7630  149.1050 C   0  0  0  0  0  0  0  0  0  0  0  0
  161.8380  210.2360  150.4490 C   0  0  0  0  0  0  0  0  0  0  0  0
  161.3360  208.9850  150.7580 C   0  0  0  0  0  3  0  0  0  0  0  0
  161.2110  209.0180  152.1330 C   0  0  0  0  0  0  0  0  0  0  0  0
  162.0000  210.9390  151.6310 C   0  0  0  0  0  3  0  0  0  0  0  0
  161.6140  210.1650  152.6180 O   0  0  0  0  0  0  0  0  0  0  0  0
  160.6640  207.9100  152.9690 C   0  0  0  0  0  2  0  0  0  0  0  0
  160.9760  208.1050  154.4480 C   0  0  0  0  0  0  0  0  0  0  0  0
  161.6130  209.3240  154.6110 F   0  0  0  0  0  0  0  0  0  0  0  0
  159.8050  208.1050  155.1850 F   0  0  0  0  0  0  0  0  0  0  0  0
  161.8060  207.0940  154.9020 F   0  0  0  0  0  0  0  0  0  0  0  0
  160.4080  212.6900  145.7590 C   0  0  0  0  0  2  0  0  0  0  0  0
  158.9810  213.7530  144.0870 N   0  0  0  0  0  2  0  0  0  0  0  0
  160.5270  212.6340  141.9230 C   0  0  2  0  0  3  0  0  0  0  0  0
  157.3370  214.4400  142.5940 O   0  0  0  0  0  0  0  0  0  0  0  0
  160.5430  212.0570  143.3380 C   0  0  0  0  0  2  0  0  0  0  0  0
  160.3000  213.1870  144.3250 C   0  0  2  0  0  3  0  0  0  0  0  0
  159.1640  213.2740  141.5790 C   0  0  1  0  0  3  0  0  0  0  0  0
  158.4540  213.8860  142.7600 C   0  0  0  0  0  0  0  0  0  0  0  0
  162.3110  211.2440  140.8670 C   0  0  0  0  0  2  0  0  0  0  0  0
  161.6930  212.0650  139.9100 O   0  0  0  0  0  0  0  0  0  0  0  0
  160.8540  211.5330  140.9110 C   0  0  2  0  0  3  0  0  0  0  0  0
  159.3090  214.3220  140.4760 C   0  0  0  0  0  2  0  0  0  0  0  0
  158.2400  214.1940  139.4060 C   0  0  0  0  0  2  0  0  0  0  0  0
  158.5230  213.0020  138.5040 C   0  0  0  0  0  2  0  0  0  0  0  0
  157.3890  210.9140  137.7120 O   0  0  0  0  0  0  0  0  0  0  0  0
  157.3500  212.0840  138.4850 C   0  0  0  0  0  0  0  0  0  0  0  0
  156.3460  212.3360  139.2010 O   0  0  0  0  0  1  0  0  0  0  0  0
  1 11  1  1  0  0  0
  2 34  1  1  0  0  0
  2  4  1  0  0  0  0
  2  5  1  0  0  0  0
  3  1  1  0  0  0  0
  3 23  1  6  0  0  0
  4  3  1  0  0  0  0
  5  1  1  0  0  0  0
  6 10  2  0  0  0  0
  7  6  1  0  0  0  0
  7  8  1  0  0  0  0
  8  9  2  0  0  0  0
  9 12  1  0  0  0  0
 10  9  1  0  0  0  0
 11  6  1  0  0  0  0
 12 13  1  0  0  0  0
 13 15  1  0  0  0  0
 15 19  1  0  0  0  0
 15 14  1  1  0  0  0
 16 15  1  0  0  0  0
 17 16  1  0  0  0  0
 19 18  1  6  0  0  0
 19 20  1  0  0  0  0
 21 20  1  0  0  0  0
 22 23  2  0  0  0  0
 23 24  1  0  0  0  0
 24 25  1  0  0  0  0
 24 27  2  0  0  0  0
 25 26  2  0  0  0  0
 26 28  1  0  0  0  0
 26 29  1  0  0  0  0
 27 28  1  0  0  0  0
 29 30  1  0  0  0  0
 30 31  1  0  0  0  0
 30 33  1  0  0  0  0
 30 32  1  0  0  0  0
 35 39  1  0  0  0  0
 36 38  1  1  0  0  0
 37 41  2  0  0  0  0
 38 39  1  0  0  0  0
 39 34  1  1  0  0  0
 40 45  1  6  0  0  0
 40 36  1  0  0  0  0
 40 41  1  0  0  0  0
 41 35  1  0  0  0  0
 43 42  1  0  0  0  0
 43 44  1  0  0  0  0
 44 42  1  1  0  0  0
 44 36  1  0  0  0  0
 46 45  1  0  0  0  0
 47 46  1  0  0  0  0
 48 49  2  0  0  0  0
 49 47  1  0  0  0  0
 49 50  1  0  0  0  0
M  END
>  <MODEL>
3

>  <REMARK>
 VINA RESULT:      -4.4      3.138     11.430
  Name = 
  18 active torsions:
  status: ('A' for Active; 'I' for Inactive)
    1  A    between atoms: C_2  and  N_40
    2  A    between atoms: C_3  and  C_25
    3  A    between atoms: C_3  and  C_44
    4  A    between atoms: C_4  and  C_19
    5  A    between atoms: C_4  and  C_35
    6  A    between atoms: C_7  and  C_9
    7  A    between atoms: C_7  and  C_43
    8  A    between atoms: C_10  and  C_17
    9  A    between atoms: C_11  and  C_46
   10  A    between atoms: C_12  and  C_35
   11  A    between atoms: C_13  and  C_37
   12  A    between atoms: C_13  and  C_44
   13  A    between atoms: C_17  and  C_38
   14  A    between atoms: C_18  and  C_44
   15  A    between atoms: C_19  and  C_39
   16  A    between atoms: C_21  and  C_48
   17  A    between atoms: C_24  and  C_48
   18  A    between atoms: C_25  and  C_33
                            x       y       z     vdW  Elec       q    Type
                         _______ _______ _______ _____ _____    ______ ____

>  <TORSDO>
F 18

$$$$
=
 OpenBabel11042422083D

 50 54  0  0  1  0  0  0  0  0999 V2000
  160.1640  207.7550  154.8340 C   0  0  2  0  0  3  0  0  0  0  0  0
  161.3940  208.9020  156.7900 C   0  0  2  0  0  3  0  0  0  0  0  0
  161.1930  208.6190  154.1080 C   0  0  2  0  0  3  0  0  0  0  0  0
  162.1750  209.5970  155.2990 S   0  0  0  0  0  0  0  0  0  0  0  0
  160.8310  207.2220  156.4340 S   0  0  0  0  0  0  0  0  0  0  0  0
  160.7860  205.9370  153.1880 C   0  0  0  0  0  0  0  0  0  0  0  0
  162.4070  206.2940  153.0650 S   0  0  0  0  0  0  0  0  0  0  0  0
  162.8140  205.0320  152.0620 N   0  0  0  0  0  0  0  0  0  0  0  0
  161.6480  204.3610  151.8420 C   0  0  0  0  0  0  0  0  0  0  0  0
  160.5230  204.8250  152.4740 N   0  0  0  0  0  0  0  0  0  0  0  0
  159.8310  206.5900  154.0240 N   0  0  0  0  0  2  0  0  0  0  0  0
  161.6280  203.1140  151.0370 C   0  0  0  0  0  2  0  0  0  0  0  0
  160.8370  203.3370  149.7550 C   0  0  0  0  0  2  0  0  0  0  0  0
  159.1120  201.8340  149.0040 O   0  0  0  0  0  1  0  0  0  0  0  0
  160.4980  202.0270  149.0260 C   0  0  2  0  0  0  0  0  0  0  0  0
  161.1370  200.8590  149.7770 C   0  0  0  0  0  2  0  0  0  0  0  0
  161.7450  199.9700  148.8880 O   0  0  0  0  0  1  0  0  0  0  0  0
  160.0160  201.6480  146.6850 O   0  0  0  0  0  1  0  0  0  0  0  0
  161.0210  202.0310  147.5780 C   0  0  1  0  0  3  0  0  0  0  0  0
  161.6070  203.3760  147.1640 C   0  0  0  0  0  2  0  0  0  0  0  0
  161.2430  203.6760  145.7260 C   0  0  0  0  0  1  0  0  0  0  0  0
  159.5080  210.1420  153.3170 O   0  0  0  0  0  0  0  0  0  0  0  0
  160.5590  209.4930  153.0470 C   0  0  0  0  0  0  0  0  0  0  0  0
  161.0930  209.5600  151.6720 C   0  0  0  0  0  0  0  0  0  0  0  0
  161.3270  208.4990  150.8160 C   0  0  0  0  0  3  0  0  0  0  0  0
  161.8400  209.1030  149.6850 C   0  0  0  0  0  0  0  0  0  0  0  0
  161.4560  210.7260  151.0200 C   0  0  0  0  0  3  0  0  0  0  0  0
  161.8960  210.4040  149.8270 O   0  0  0  0  0  0  0  0  0  0  0  0
  162.3020  208.3820  148.4640 C   0  0  0  0  0  2  0  0  0  0  0  0
  161.5970  207.0420  148.2940 C   0  0  0  0  0  0  0  0  0  0  0  0
  161.6330  206.6850  146.9560 F   0  0  0  0  0  0  0  0  0  0  0  0
  162.2400  206.0680  149.0390 F   0  0  0  0  0  0  0  0  0  0  0  0
  160.2780  207.1370  148.7030 F   0  0  0  0  0  0  0  0  0  0  0  0
  160.2360  209.7740  157.2610 C   0  0  0  0  0  2  0  0  0  0  0  0
  160.4470  212.1350  156.6750 N   0  0  0  0  0  2  0  0  0  0  0  0
  158.2050  211.9810  154.8660 C   0  0  2  0  0  3  0  0  0  0  0  0
  160.4560  214.4530  156.5110 O   0  0  0  0  0  0  0  0  0  0  0  0
  158.4390  210.9660  155.9840 C   0  0  0  0  0  2  0  0  0  0  0  0
  159.9340  210.8490  156.2270 C   0  0  2  0  0  3  0  0  0  0  0  0
  158.7310  213.3830  155.2430 C   0  0  1  0  0  3  0  0  0  0  0  0
  159.9400  213.3660  156.1440 C   0  0  0  0  0  0  0  0  0  0  0  0
  155.8740  211.8040  155.7400 C   0  0  0  0  0  2  0  0  0  0  0  0
  156.1220  210.7990  154.7910 O   0  0  0  0  0  0  0  0  0  0  0  0
  156.7110  212.0570  154.5400 C   0  0  2  0  0  3  0  0  0  0  0  0
  159.0390  214.2120  153.9970 C   0  0  0  0  0  2  0  0  0  0  0  0
  159.3890  213.3500  152.7970 C   0  0  0  0  0  2  0  0  0  0  0  0
  159.0650  214.0780  151.5000 C   0  0  0  0  0  2  0  0  0  0  0  0
  157.0410  213.9090  150.0350 O   0  0  0  0  0  0  0  0  0  0  0  0
  157.5890  214.1420  151.3040 C   0  0  0  0  0  0  0  0  0  0  0  0
  156.8360  214.3580  152.2890 O   0  0  0  0  0  1  0  0  0  0  0  0
  1 11  1  6  0  0  0
  1  5  1  0  0  0  0
  2 34  1  6  0  0  0
  3 23  1  6  0  0  0
  3  1  1  0  0  0  0
  3  4  1  0  0  0  0
  4  2  1  0  0  0  0
  5  2  1  0  0  0  0
  6 11  1  0  0  0  0
  7  6  1  0  0  0  0
  8  7  1  0  0  0  0
  9  8  2  0  0  0  0
  9 10  1  0  0  0  0
 10  6  2  0  0  0  0
 12  9  1  0  0  0  0
 13 12  1  0  0  0  0
 15 14  1  6  0  0  0
 15 13  1  0  0  0  0
 15 16  1  0  0  0  0
 17 16  1  0  0  0  0
 19 18  1  6  0  0  0
 19 15  1  0  0  0  0
 20 19  1  0  0  0  0
 21 20  1  0  0  0  0
 23 22  2  0  0  0  0
 24 23  1  0  0  0  0
 25 24  1  0  0  0  0
 26 28  1  0  0  0  0
 26 25  2  0  0  0  0
 27 24  2  0  0  0  0
 28 27  1  0  0  0  0
 29 26  1  0  0  0  0
 30 29  1  0  0  0  0
 30 33  1  0  0  0  0
 30 32  1  0  0  0  0
 31 30  1  0  0  0  0
 36 40  1  0  0  0  0
 36 38  1  1  0  0  0
 38 39  1  0  0  0  0
 39 35  1  0  0  0  0
 39 34  1  1  0  0  0
 40 45  1  6  0  0  0
 40 41  1  0  0  0  0
 41 37  2  0  0  0  0
 41 35  1  0  0  0  0
 43 42  1  0  0  0  0
 44 43  1  0  0  0  0
 44 36  1  0  0  0  0
 44 42  1  1  0  0  0
 46 45  1  0  0  0  0
 47 46  1  0  0  0  0
 48 49  2  0  0  0  0
 49 47  1  0  0  0  0
 49 50  1  0  0  0  0
M  END
>  <MODEL>
4

>  <REMARK>
 VINA RESULT:      -4.2      6.214      9.654
  Name = 
  18 active torsions:
  status: ('A' for Active; 'I' for Inactive)
    1  A    between atoms: C_2  and  N_40
    2  A    between atoms: C_3  and  C_25
    3  A    between atoms: C_3  and  C_44
    4  A    between atoms: C_4  and  C_19
    5  A    between atoms: C_4  and  C_35
    6  A    between atoms: C_7  and  C_9
    7  A    between atoms: C_7  and  C_43
    8  A    between atoms: C_10  and  C_17
    9  A    between atoms: C_11  and  C_46
   10  A    between atoms: C_12  and  C_35
   11  A    between atoms: C_13  and  C_37
   12  A    between atoms: C_13  and  C_44
   13  A    between atoms: C_17  and  C_38
   14  A    between atoms: C_18  and  C_44
   15  A    between atoms: C_19  and  C_39
   16  A    between atoms: C_21  and  C_48
   17  A    between atoms: C_24  and  C_48
   18  A    between atoms: C_25  and  C_33
                            x       y       z     vdW  Elec       q    Type
                         _______ _______ _______ _____ _____    ______ ____

>  <TORSDO>
F 18

$$$$
=
 OpenBabel11042422083D

 50 54  0  0  1  0  0  0  0  0999 V2000
  160.5780  211.7530  147.5690 C   0  0  2  0  0  3  0  0  0  0  0  0
  162.3310  211.0100  149.3100 C   0  0  2  0  0  3  0  0  0  0  0  0
  160.8940  213.0610  148.2900 C   0  0  2  0  0  3  0  0  0  0  0  0
  162.0960  212.7840  149.6390 S   0  0  0  0  0  0  0  0  0  0  0  0
  162.0490  210.6910  147.5530 S   0  0  0  0  0  0  0  0  0  0  0  0
  160.9500  212.7740  145.2840 C   0  0  0  0  0  0  0  0  0  0  0  0
  162.4880  213.3530  145.5470 S   0  0  0  0  0  0  0  0  0  0  0  0
  162.7510  213.9290  144.0090 N   0  0  0  0  0  0  0  0  0  0  0  0
  161.6040  213.6540  143.3260 C   0  0  0  0  0  0  0  0  0  0  0  0
  160.6090  212.9930  143.9990 N   0  0  0  0  0  0  0  0  0  0  0  0
  160.1520  212.0270  146.2020 N   0  0  0  0  0  2  0  0  0  0  0  0
  161.4890  213.9630  141.8780 C   0  0  0  0  0  2  0  0  0  0  0  0
  162.3100  212.9670  141.0680 C   0  0  0  0  0  2  0  0  0  0  0  0
  160.4790  213.1690  139.5180 O   0  0  0  0  0  1  0  0  0  0  0  0
  161.5070  212.3150  139.9310 C   0  0  2  0  0  0  0  0  0  0  0  0
  160.8830  211.0180  140.4420 C   0  0  0  0  0  2  0  0  0  0  0  0
  161.4240  209.9120  139.7820 O   0  0  0  0  0  1  0  0  0  0  0  0
  161.8890  212.5730  137.5560 O   0  0  0  0  0  1  0  0  0  0  0  0
  162.4010  211.9920  138.7190 C   0  0  1  0  0  3  0  0  0  0  0  0
  163.8510  212.4140  138.9220 C   0  0  0  0  0  2  0  0  0  0  0  0
  164.0880  213.7680  138.2890 C   0  0  0  0  0  1  0  0  0  0  0  0
  158.9200  214.3940  147.9630 O   0  0  0  0  0  0  0  0  0  0  0  0
  159.6440  213.7590  148.7820 C   0  0  0  0  0  0  0  0  0  0  0  0
  159.2740  213.7800  150.2110 C   0  0  0  0  0  0  0  0  0  0  0  0
  158.1880  213.1590  150.8000 C   0  0  0  0  0  3  0  0  0  0  0  0
  158.2980  213.5120  152.1320 C   0  0  0  0  0  0  0  0  0  0  0  0
  159.9760  214.4490  151.1990 C   0  0  0  0  0  3  0  0  0  0  0  0
  159.3550  214.2560  152.3390 O   0  0  0  0  0  0  0  0  0  0  0  0
  157.3320  213.1270  153.2010 C   0  0  0  0  0  2  0  0  0  0  0  0
  157.8980  212.0500  154.1190 C   0  0  0  0  0  0  0  0  0  0  0  0
  158.1250  212.6030  155.3680 F   0  0  0  0  0  0  0  0  0  0  0  0
  156.9950  211.0080  154.2440 F   0  0  0  0  0  0  0  0  0  0  0  0
  159.0920  211.5650  153.6120 F   0  0  0  0  0  0  0  0  0  0  0  0
  161.4000  210.1630  150.1700 C   0  0  0  0  0  2  0  0  0  0  0  0
  161.2460  208.2580  148.6500 N   0  0  0  0  0  2  0  0  0  0  0  0
  161.4280  206.3830  150.8350 C   0  0  2  0  0  3  0  0  0  0  0  0
  160.6690  206.5440  147.1900 O   0  0  0  0  0  0  0  0  0  0  0  0
  161.0100  207.8400  151.0260 C   0  0  0  0  0  2  0  0  0  0  0  0
  161.6970  208.6840  149.9660 C   0  0  2  0  0  3  0  0  0  0  0  0
  161.0040  205.8390  149.4530 C   0  0  1  0  0  3  0  0  0  0  0  0
  160.9940  206.8770  148.3590 C   0  0  0  0  0  0  0  0  0  0  0  0
  161.7360  205.3880  153.1030 C   0  0  0  0  0  2  0  0  0  0  0  0
  161.6270  204.3790  152.1320 O   0  0  0  0  0  0  0  0  0  0  0  0
  160.8180  205.5200  151.9430 C   0  0  2  0  0  3  0  0  0  0  0  0
  161.8820  204.6630  149.0280 C   0  0  0  0  0  2  0  0  0  0  0  0
  161.4120  204.0230  147.7350 C   0  0  0  0  0  2  0  0  0  0  0  0
  161.4640  202.5050  147.8380 C   0  0  0  0  0  2  0  0  0  0  0  0
  161.4320  201.1530  149.9470 O   0  0  0  0  0  1  0  0  0  0  0  0
  160.7870  202.0540  149.0860 C   0  0  0  0  0  0  0  0  0  0  0  0
  159.6570  202.5190  149.3890 O   0  0  0  0  0  0  0  0  0  0  0  0
  1 11  1  6  0  0  0
  1  3  1  0  0  0  0
  2  4  1  0  0  0  0
  2 34  1  1  0  0  0
  3 23  1  1  0  0  0
  3  4  1  0  0  0  0
  5  1  1  0  0  0  0
  5  2  1  0  0  0  0
  6  7  1  0  0  0  0
  6 11  1  0  0  0  0
  8  7  1  0  0  0  0
  9 10  1  0  0  0  0
  9  8  2  0  0  0  0
 10  6  2  0  0  0  0
 12  9  1  0  0  0  0
 13 12  1  0  0  0  0
 15 14  1  6  0  0  0
 15 16  1  0  0  0  0
 15 13  1  0  0  0  0
 17 16  1  0  0  0  0
 19 18  1  6  0  0  0
 19 20  1  0  0  0  0
 19 15  1  0  0  0  0
 21 20  1  0  0  0  0
 22 23  2  0  0  0  0
 23 24  1  0  0  0  0
 24 25  1  0  0  0  0
 24 27  2  0  0  0  0
 25 26  2  0  0  0  0
 26 28  1  0  0  0  0
 26 29  1  0  0  0  0
 27 28  1  0  0  0  0
 29 30  1  0  0  0  0
 30 32  1  0  0  0  0
 30 31  1  0  0  0  0
 33 30  1  0  0  0  0
 35 39  1  0  0  0  0
 36 38  1  1  0  0  0
 36 44  1  0  0  0  0
 37 41  2  0  0  0  0
 39 34  1  1  0  0  0
 39 38  1  0  0  0  0
 40 45  1  6  0  0  0
 40 36  1  0  0  0  0
 41 35  1  0  0  0  0
 41 40  1  0  0  0  0
 43 42  1  0  0  0  0
 44 43  1  0  0  0  0
 44 42  1  1  0  0  0
 46 47  1  0  0  0  0
 46 45  1  0  0  0  0
 47 49  1  0  0  0  0
 49 50  2  0  0  0  0
 49 48  1  0  0  0  0
M  END
>  <MODEL>
5

>  <REMARK>
 VINA RESULT:      -3.9      1.833      2.542
  Name = 
  18 active torsions:
  status: ('A' for Active; 'I' for Inactive)
    1  A    between atoms: C_2  and  N_40
    2  A    between atoms: C_3  and  C_25
    3  A    between atoms: C_3  and  C_44
    4  A    between atoms: C_4  and  C_19
    5  A    between atoms: C_4  and  C_35
    6  A    between atoms: C_7  and  C_9
    7  A    between atoms: C_7  and  C_43
    8  A    between atoms: C_10  and  C_17
    9  A    between atoms: C_11  and  C_46
   10  A    between atoms: C_12  and  C_35
   11  A    between atoms: C_13  and  C_37
   12  A    between atoms: C_13  and  C_44
   13  A    between atoms: C_17  and  C_38
   14  A    between atoms: C_18  and  C_44
   15  A    between atoms: C_19  and  C_39
   16  A    between atoms: C_21  and  C_48
   17  A    between atoms: C_24  and  C_48
   18  A    between atoms: C_25  and  C_33
                            x       y       z     vdW  Elec       q    Type
                         _______ _______ _______ _____ _____    ______ ____

>  <TORSDO>
F 18

$$$$
=
 OpenBabel11042422083D

 50 54  0  0  1  0  0  0  0  0999 V2000
  161.1250  212.8350  148.9330 C   0  0  2  0  0  3  0  0  0  0  0  0
  161.9540  213.6500  146.6300 C   0  0  2  0  0  3  0  0  0  0  0  0
  162.3160  211.9160  148.6720 C   0  0  2  0  0  3  0  0  0  0  0  0
  163.0580  212.2620  147.0380 S   0  0  0  0  0  0  0  0  0  0  0  0
  161.4170  214.4500  148.1590 S   0  0  0  0  0  0  0  0  0  0  0  0
  159.6530  213.2810  150.9410 C   0  0  0  0  0  0  0  0  0  0  0  0
  158.1980  213.3580  150.1380 S   0  0  0  0  0  0  0  0  0  0  0  0
  157.2370  213.5510  151.4810 N   0  0  0  0  0  0  0  0  0  0  0  0
  158.0990  213.5570  152.5370 C   0  0  0  0  0  0  0  0  0  0  0  0
  159.4320  213.3830  152.2670 N   0  0  0  0  0  0  0  0  0  0  0  0
  160.9300  213.0020  150.3670 N   0  0  0  0  0  2  0  0  0  0  0  0
  157.5940  213.6410  153.9310 C   0  0  0  0  0  2  0  0  0  0  0  0
  157.8130  212.3120  154.6430 C   0  0  0  0  0  2  0  0  0  0  0  0
  157.3850  211.1260  156.6940 O   0  0  0  0  0  1  0  0  0  0  0  0
  156.8770  212.1160  155.8460 C   0  0  2  0  0  0  0  0  0  0  0  0
  155.5060  211.6650  155.3420 C   0  0  0  0  0  2  0  0  0  0  0  0
  155.1730  210.4130  155.8630 O   0  0  0  0  0  1  0  0  0  0  0  0
  157.9200  214.1050  156.7450 O   0  0  0  0  0  1  0  0  0  0  0  0
  156.7060  213.4180  156.6500 C   0  0  1  0  0  3  0  0  0  0  0  0
  155.6290  214.3320  156.0770 C   0  0  0  0  0  2  0  0  0  0  0  0
  154.3210  214.1050  156.8040 C   0  0  0  0  0  1  0  0  0  0  0  0
  161.6170  209.7810  147.8150 O   0  0  0  0  0  0  0  0  0  0  0  0
  161.9550  210.4540  148.8300 C   0  0  0  0  0  0  0  0  0  0  0  0
  161.9190  209.7990  150.1530 C   0  0  0  0  0  0  0  0  0  0  0  0
  161.5030  208.5110  150.4340 C   0  0  0  0  0  3  0  0  0  0  0  0
  161.6490  208.4170  151.8050 C   0  0  0  0  0  0  0  0  0  0  0  0
  162.3010  210.3980  151.3420 C   0  0  0  0  0  3  0  0  0  0  0  0
  162.1260  209.5270  152.3080 O   0  0  0  0  0  0  0  0  0  0  0  0
  161.2900  207.2220  152.6230 C   0  0  0  0  0  2  0  0  0  0  0  0
  161.7330  205.9240  151.9600 C   0  0  0  0  0  0  0  0  0  0  0  0
  161.6230  204.8940  152.8790 F   0  0  0  0  0  0  0  0  0  0  0  0
  160.9240  205.6460  150.8710 F   0  0  0  0  0  0  0  0  0  0  0  0
  163.0490  206.0210  151.5420 F   0  0  0  0  0  0  0  0  0  0  0  0
  160.7540  213.1770  145.8160 C   0  0  0  0  0  2  0  0  0  0  0  0
  159.5930  213.9080  143.7960 N   0  0  0  0  0  2  0  0  0  0  0  0
  161.7850  213.0640  142.1210 C   0  0  2  0  0  3  0  0  0  0  0  0
  158.2520  214.2320  141.9260 O   0  0  0  0  0  0  0  0  0  0  0  0
  161.5720  212.5310  143.5370 C   0  0  0  0  0  2  0  0  0  0  0  0
  160.9000  213.6130  144.3650 C   0  0  2  0  0  3  0  0  0  0  0  0
  160.4490  213.4210  141.4330 C   0  0  1  0  0  3  0  0  0  0  0  0
  159.3800  213.9080  142.3790 C   0  0  0  0  0  0  0  0  0  0  0  0
  163.5940  212.6550  140.4500 C   0  0  0  0  0  2  0  0  0  0  0  0
  162.3420  212.3080  139.9170 O   0  0  0  0  0  0  0  0  0  0  0  0
  162.5390  212.0260  141.2850 C   0  0  2  0  0  3  0  0  0  0  0  0
  160.6560  214.4530  140.3260 C   0  0  0  0  0  2  0  0  0  0  0  0
  159.6740  214.2840  139.1810 C   0  0  0  0  0  2  0  0  0  0  0  0
  159.3430  212.8140  138.9700 C   0  0  0  0  0  2  0  0  0  0  0  0
  156.9080  213.2520  138.5730 O   0  0  0  0  0  1  0  0  0  0  0  0
  158.1140  212.6800  138.1380 C   0  0  0  0  0  0  0  0  0  0  0  0
  158.1710  212.0960  137.0250 O   0  0  0  0  0  0  0  0  0  0  0  0
  1 11  1  1  0  0  0
  2 34  1  1  0  0  0
  2  4  1  0  0  0  0
  2  5  1  0  0  0  0
  3 23  1  6  0  0  0
  3  1  1  0  0  0  0
  4  3  1  0  0  0  0
  5  1  1  0  0  0  0
  6 10  2  0  0  0  0
  7  6  1  0  0  0  0
  7  8  1  0  0  0  0
  8  9  2  0  0  0  0
  9 12  1  0  0  0  0
 10  9  1  0  0  0  0
 11  6  1  0  0  0  0
 12 13  1  0  0  0  0
 13 15  1  0  0  0  0
 15 19  1  0  0  0  0
 15 14  1  1  0  0  0
 16 15  1  0  0  0  0
 16 17  1  0  0  0  0
 19 18  1  6  0  0  0
 20 19  1  0  0  0  0
 20 21  1  0  0  0  0
 22 23  2  0  0  0  0
 23 24  1  0  0  0  0
 24 25  1  0  0  0  0
 24 27  2  0  0  0  0
 25 26  2  0  0  0  0
 26 28  1  0  0  0  0
 26 29  1  0  0  0  0
 27 28  1  0  0  0  0
 30 29  1  0  0  0  0
 30 31  1  0  0  0  0
 32 30  1  0  0  0  0
 33 30  1  0  0  0  0
 35 39  1  0  0  0  0
 36 38  1  1  0  0  0
 37 41  2  0  0  0  0
 38 39  1  0  0  0  0
 39 34  1  1  0  0  0
 40 45  1  6  0  0  0
 40 36  1  0  0  0  0
 40 41  1  0  0  0  0
 41 35  1  0  0  0  0
 43 42  1  0  0  0  0
 43 44  1  0  0  0  0
 44 42  1  1  0  0  0
 44 36  1  0  0  0  0
 46 45  1  0  0  0  0
 47 46  1  0  0  0  0
 49 48  1  0  0  0  0
 49 47  1  0  0  0  0
 50 49  2  0  0  0  0
M  END
>  <MODEL>
6

>  <REMARK>
 VINA RESULT:      -3.9      3.443     11.888
  Name = 
  18 active torsions:
  status: ('A' for Active; 'I' for Inactive)
    1  A    between atoms: C_2  and  N_40
    2  A    between atoms: C_3  and  C_25
    3  A    between atoms: C_3  and  C_44
    4  A    between atoms: C_4  and  C_19
    5  A    between atoms: C_4  and  C_35
    6  A    between atoms: C_7  and  C_9
    7  A    between atoms: C_7  and  C_43
    8  A    between atoms: C_10  and  C_17
    9  A    between atoms: C_11  and  C_46
   10  A    between atoms: C_12  and  C_35
   11  A    between atoms: C_13  and  C_37
   12  A    between atoms: C_13  and  C_44
   13  A    between atoms: C_17  and  C_38
   14  A    between atoms: C_18  and  C_44
   15  A    between atoms: C_19  and  C_39
   16  A    between atoms: C_21  and  C_48
   17  A    between atoms: C_24  and  C_48
   18  A    between atoms: C_25  and  C_33
                            x       y       z     vdW  Elec       q    Type
                         _______ _______ _______ _____ _____    ______ ____

>  <TORSDO>
F 18

$$$$
=
 OpenBabel11042422083D

 50 54  0  0  1  0  0  0  0  0999 V2000
  161.7130  208.2740  150.5880 C   0  0  2  0  0  3  0  0  0  0  0  0
  161.2730  209.6790  152.7070 C   0  0  2  0  0  3  0  0  0  0  0  0
  162.5740  209.5100  150.3420 C   0  0  2  0  0  3  0  0  0  0  0  0
  162.3880  210.7130  151.7060 S   0  0  0  0  0  0  0  0  0  0  0  0
  161.6180  207.9370  152.3680 S   0  0  0  0  0  0  0  0  0  0  0  0
  161.6350  206.4930  148.7930 C   0  0  0  0  0  0  0  0  0  0  0  0
  160.2300  206.9870  148.0500 S   0  0  0  0  0  0  0  0  0  0  0  0
  160.2510  205.8690  146.8180 N   0  0  0  0  0  0  0  0  0  0  0  0
  161.3720  205.1240  147.0330 C   0  0  0  0  0  0  0  0  0  0  0  0
  162.1650  205.4660  148.0990 N   0  0  0  0  0  0  0  0  0  0  0  0
  162.2830  207.1240  149.8970 N   0  0  0  0  0  2  0  0  0  0  0  0
  161.7690  204.0560  146.0810 C   0  0  0  0  0  2  0  0  0  0  0  0
  162.2050  202.8140  146.8480 C   0  0  0  0  0  2  0  0  0  0  0  0
  161.6120  200.5090  146.4840 O   0  0  0  0  0  1  0  0  0  0  0  0
  161.1080  201.7400  146.9200 C   0  0  2  0  0  0  0  0  0  0  0  0
  159.9550  202.1430  146.0020 C   0  0  0  0  0  2  0  0  0  0  0  0
  159.8240  201.2410  144.9440 O   0  0  0  0  0  1  0  0  0  0  0  0
  161.0830  200.4210  148.9480 O   0  0  0  0  0  1  0  0  0  0  0  0
  160.5680  201.5760  148.3520 C   0  0  1  0  0  3  0  0  0  0  0  0
  160.8460  202.7890  149.2330 C   0  0  0  0  0  2  0  0  0  0  0  0
  160.6020  202.4390  150.6850 C   0  0  0  0  0  1  0  0  0  0  0  0
  162.5810  209.5020  147.9380 O   0  0  0  0  0  0  0  0  0  0  0  0
  162.2990  210.1390  148.9930 C   0  0  0  0  0  0  0  0  0  0  0  0
  161.7700  211.5120  148.8660 C   0  0  0  0  0  0  0  0  0  0  0  0
  160.4930  211.9450  149.1710 C   0  0  0  0  0  3  0  0  0  0  0  0
  160.5230  213.2890  148.8540 C   0  0  0  0  0  0  0  0  0  0  0  0
  162.4940  212.5990  148.4050 C   0  0  0  0  0  3  0  0  0  0  0  0
  161.7040  213.6460  148.4190 O   0  0  0  0  0  0  0  0  0  0  0  0
  159.3620  214.2200  148.9610 C   0  0  0  0  0  2  0  0  0  0  0  0
  158.1170  213.5180  149.4910 C   0  0  0  0  0  0  0  0  0  0  0  0
  158.4890  212.6660  150.5180 F   0  0  0  0  0  0  0  0  0  0  0  0
  157.2180  214.4500  149.9800 F   0  0  0  0  0  0  0  0  0  0  0  0
  157.5150  212.7820  148.4850 F   0  0  0  0  0  0  0  0  0  0  0  0
  159.8130  210.0070  152.4190 C   0  0  0  0  0  2  0  0  0  0  0  0
  159.0720  212.1960  153.2090 N   0  0  0  0  0  2  0  0  0  0  0  0
  159.3870  211.4090  155.9670 C   0  0  2  0  0  3  0  0  0  0  0  0
  158.7740  214.4110  153.8460 O   0  0  0  0  0  0  0  0  0  0  0  0
  160.0880  210.6900  154.8150 C   0  0  0  0  0  2  0  0  0  0  0  0
  159.2150  210.7950  153.5760 C   0  0  2  0  0  3  0  0  0  0  0  0
  159.1770  212.9090  155.6660 C   0  0  1  0  0  3  0  0  0  0  0  0
  158.9620  213.2200  154.2060 C   0  0  0  0  0  0  0  0  0  0  0  0
  161.6190  211.6520  157.0570 C   0  0  0  0  0  2  0  0  0  0  0  0
  161.2290  210.3030  157.0270 O   0  0  0  0  0  0  0  0  0  0  0  0
  160.2040  211.2460  157.2520 C   0  0  2  0  0  3  0  0  0  0  0  0
  158.0170  213.4790  156.4820 C   0  0  0  0  0  2  0  0  0  0  0  0
  156.6650  213.1770  155.8630 C   0  0  0  0  0  2  0  0  0  0  0  0
  155.7400  212.5280  156.8830 C   0  0  0  0  0  2  0  0  0  0  0  0
  156.1130  210.5300  155.4190 O   0  0  0  0  0  0  0  0  0  0  0  0
  155.3890  211.1470  156.4490 C   0  0  0  0  0  0  0  0  0  0  0  0
  154.4730  210.5190  157.0420 O   0  0  0  0  0  1  0  0  0  0  0  0
  1 11  1  6  0  0  0
  1  5  1  0  0  0  0
  2 34  1  6  0  0  0
  3 23  1  6  0  0  0
  3  1  1  0  0  0  0
  3  4  1  0  0  0  0
  4  2  1  0  0  0  0
  5  2  1  0  0  0  0
  6 11  1  0  0  0  0
  7  6  1  0  0  0  0
  8  9  2  0  0  0  0
  8  7  1  0  0  0  0
  9 10  1  0  0  0  0
 10  6  2  0  0  0  0
 12 13  1  0  0  0  0
 12  9  1  0  0  0  0
 13 15  1  0  0  0  0
 15 14  1  6  0  0  0
 15 19  1  0  0  0  0
 16 15  1  0  0  0  0
 17 16  1  0  0  0  0
 19 18  1  1  0  0  0
 19 20  1  0  0  0  0
 20 21  1  0  0  0  0
 22 23  2  0  0  0  0
 24 23  1  0  0  0  0
 24 25  1  0  0  0  0
 26 29  1  0  0  0  0
 26 25  2  0  0  0  0
 27 28  1  0  0  0  0
 27 24  2  0  0  0  0
 28 26  1  0  0  0  0
 29 30  1  0  0  0  0
 30 32  1  0  0  0  0
 30 31  1  0  0  0  0
 33 30  1  0  0  0  0
 35 39  1  0  0  0  0
 35 41  1  0  0  0  0
 36 38  1  6  0  0  0
 36 44  1  0  0  0  0
 37 41  2  0  0  0  0
 39 34  1  6  0  0  0
 39 38  1  0  0  0  0
 40 36  1  0  0  0  0
 40 45  1  1  0  0  0
 41 40  1  0  0  0  0
 43 42  1  0  0  0  0
 43 44  1  0  0  0  0
 44 42  1  6  0  0  0
 46 45  1  0  0  0  0
 46 47  1  0  0  0  0
 48 49  2  0  0  0  0
 49 47  1  0  0  0  0
 49 50  1  0  0  0  0
M  END
>  <MODEL>
7

>  <REMARK>
 VINA RESULT:      -3.8      5.011      8.228
  Name = 
  18 active torsions:
  status: ('A' for Active; 'I' for Inactive)
    1  A    between atoms: C_2  and  N_40
    2  A    between atoms: C_3  and  C_25
    3  A    between atoms: C_3  and  C_44
    4  A    between atoms: C_4  and  C_19
    5  A    between atoms: C_4  and  C_35
    6  A    between atoms: C_7  and  C_9
    7  A    between atoms: C_7  and  C_43
    8  A    between atoms: C_10  and  C_17
    9  A    between atoms: C_11  and  C_46
   10  A    between atoms: C_12  and  C_35
   11  A    between atoms: C_13  and  C_37
   12  A    between atoms: C_13  and  C_44
   13  A    between atoms: C_17  and  C_38
   14  A    between atoms: C_18  and  C_44
   15  A    between atoms: C_19  and  C_39
   16  A    between atoms: C_21  and  C_48
   17  A    between atoms: C_24  and  C_48
   18  A    between atoms: C_25  and  C_33
                            x       y       z     vdW  Elec       q    Type
                         _______ _______ _______ _____ _____    ______ ____

>  <TORSDO>
F 18

$$$$
=
 OpenBabel11042422083D

 50 54  0  0  1  0  0  0  0  0999 V2000
  160.8850  208.1150  150.3500 C   0  0  2  0  0  3  0  0  0  0  0  0
  161.2420  209.4400  152.5350 C   0  0  2  0  0  3  0  0  0  0  0  0
  162.2790  208.7040  150.1490 C   0  0  2  0  0  3  0  0  0  0  0  0
  162.7510  209.7560  151.5670 S   0  0  0  0  0  0  0  0  0  0  0  0
  160.6010  207.8030  152.1140 S   0  0  0  0  0  0  0  0  0  0  0  0
  161.0090  205.5940  150.1840 C   0  0  0  0  0  0  0  0  0  0  0  0
  161.3750  205.2830  151.7770 S   0  0  0  0  0  0  0  0  0  0  0  0
  161.3530  203.6240  151.6690 N   0  0  0  0  0  0  0  0  0  0  0  0
  161.0630  203.3570  150.3640 C   0  0  0  0  0  0  0  0  0  0  0  0
  160.8420  204.4250  149.5330 N   0  0  0  0  0  0  0  0  0  0  0  0
  160.7570  206.8720  149.6010 N   0  0  0  0  0  2  0  0  0  0  0  0
  160.8870  201.9590  149.8950 C   0  0  0  0  0  2  0  0  0  0  0  0
  160.0570  201.9410  148.6180 C   0  0  0  0  0  2  0  0  0  0  0  0
  162.1820  201.2260  147.7410 O   0  0  0  0  0  1  0  0  0  0  0  0
  160.8860  201.5990  147.3700 C   0  0  2  0  0  0  0  0  0  0  0  0
  160.9760  202.8360  146.4770 C   0  0  0  0  0  2  0  0  0  0  0  0
  162.0310  203.6600  146.8750 O   0  0  0  0  0  1  0  0  0  0  0  0
  159.8910  200.8830  145.2840 O   0  0  0  0  0  1  0  0  0  0  0  0
  160.2500  200.4520  146.5640 C   0  0  1  0  0  3  0  0  0  0  0  0
  161.1490  199.2240  146.4710 C   0  0  0  0  0  2  0  0  0  0  0  0
  161.4980  198.9480  145.0240 C   0  0  0  0  0  1  0  0  0  0  0  0
  162.8430  208.8350  147.8150 O   0  0  0  0  0  0  0  0  0  0  0  0
  162.4030  209.4420  148.8320 C   0  0  0  0  0  0  0  0  0  0  0  0
  162.0880  210.8800  148.7130 C   0  0  0  0  0  0  0  0  0  0  0  0
  160.8530  211.4790  148.8800 C   0  0  0  0  0  3  0  0  0  0  0  0
  161.1070  212.8150  148.6380 C   0  0  0  0  0  0  0  0  0  0  0  0
  163.0070  211.8670  148.4000 C   0  0  0  0  0  3  0  0  0  0  0  0
  162.3720  213.0160  148.3700 O   0  0  0  0  0  0  0  0  0  0  0  0
  160.0800  213.8970  148.6490 C   0  0  0  0  0  2  0  0  0  0  0  0
  158.7170  213.3930  148.1900 C   0  0  0  0  0  0  0  0  0  0  0  0
  158.0310  212.9000  149.2870 F   0  0  0  0  0  0  0  0  0  0  0  0
  157.9900  214.4300  147.6310 F   0  0  0  0  0  0  0  0  0  0  0  0
  158.8680  212.3820  147.2570 F   0  0  0  0  0  0  0  0  0  0  0  0
  160.1910  210.5140  152.2820 C   0  0  0  0  0  2  0  0  0  0  0  0
  159.3740  212.4240  153.5650 N   0  0  0  0  0  2  0  0  0  0  0  0
  159.8170  211.0510  156.0640 C   0  0  2  0  0  3  0  0  0  0  0  0
  158.9930  214.4180  154.6970 O   0  0  0  0  0  0  0  0  0  0  0  0
  160.5130  210.6500  154.7630 C   0  0  0  0  0  2  0  0  0  0  0  0
  159.5950  210.9860  153.6000 C   0  0  2  0  0  3  0  0  0  0  0  0
  159.5260  212.5670  156.1170 C   0  0  1  0  0  3  0  0  0  0  0  0
  159.2490  213.1880  154.7710 C   0  0  0  0  0  0  0  0  0  0  0  0
  162.0870  211.1030  157.1010 C   0  0  0  0  0  2  0  0  0  0  0  0
  161.7060  209.7820  156.8140 O   0  0  0  0  0  0  0  0  0  0  0  0
  160.6830  210.6460  157.2600 C   0  0  2  0  0  3  0  0  0  0  0  0
  158.3690  212.8740  157.0660 C   0  0  0  0  0  2  0  0  0  0  0  0
  157.0260  212.8940  156.3600 C   0  0  0  0  0  2  0  0  0  0  0  0
  156.0900  211.8520  156.9560 C   0  0  0  0  0  2  0  0  0  0  0  0
  154.5710  210.2760  155.7380 O   0  0  0  0  0  1  0  0  0  0  0  0
  155.8700  210.7450  155.9830 C   0  0  0  0  0  0  0  0  0  0  0  0
  156.8460  210.2670  155.3470 O   0  0  0  0  0  0  0  0  0  0  0  0
  1 11  1  6  0  0  0
  1  5  1  0  0  0  0
  2 34  1  6  0  0  0
  3 23  1  6  0  0  0
  3  1  1  0  0  0  0
  3  4  1  0  0  0  0
  4  2  1  0  0  0  0
  5  2  1  0  0  0  0
  6  7  1  0  0  0  0
  8  7  1  0  0  0  0
  9  8  2  0  0  0  0
 10  6  2  0  0  0  0
 10  9  1  0  0  0  0
 11  6  1  0  0  0  0
 12  9  1  0  0  0  0
 13 12  1  0  0  0  0
 15 14  1  1  0  0  0
 15 13  1  0  0  0  0
 16 17  1  0  0  0  0
 16 15  1  0  0  0  0
 19 18  1  6  0  0  0
 19 15  1  0  0  0  0
 20 19  1  0  0  0  0
 21 20  1  0  0  0  0
 22 23  2  0  0  0  0
 24 23  1  0  0  0  0
 24 25  1  0  0  0  0
 26 29  1  0  0  0  0
 26 25  2  0  0  0  0
 27 24  2  0  0  0  0
 28 27  1  0  0  0  0
 28 26  1  0  0  0  0
 30 29  1  0  0  0  0
 30 31  1  0  0  0  0
 32 30  1  0  0  0  0
 33 30  1  0  0  0  0
 35 39  1  0  0  0  0
 35 41  1  0  0  0  0
 36 38  1  6  0  0  0
 36 40  1  0  0  0  0
 36 44  1  0  0  0  0
 37 41  2  0  0  0  0
 39 34  1  6  0  0  0
 39 38  1  0  0  0  0
 40 45  1  1  0  0  0
 41 40  1  0  0  0  0
 43 42  1  0  0  0  0
 43 44  1  0  0  0  0
 44 42  1  6  0  0  0
 46 47  1  0  0  0  0
 46 45  1  0  0  0  0
 48 49  1  0  0  0  0
 49 47  1  0  0  0  0
 50 49  2  0  0  0  0
M  END
>  <MODEL>
8

>  <REMARK>
 VINA RESULT:      -3.4      5.230      8.606
  Name = 
  18 active torsions:
  status: ('A' for Active; 'I' for Inactive)
    1  A    between atoms: C_2  and  N_40
    2  A    between atoms: C_3  and  C_25
    3  A    between atoms: C_3  and  C_44
    4  A    between atoms: C_4  and  C_19
    5  A    between atoms: C_4  and  C_35
    6  A    between atoms: C_7  and  C_9
    7  A    between atoms: C_7  and  C_43
    8  A    between atoms: C_10  and  C_17
    9  A    between atoms: C_11  and  C_46
   10  A    between atoms: C_12  and  C_35
   11  A    between atoms: C_13  and  C_37
   12  A    between atoms: C_13  and  C_44
   13  A    between atoms: C_17  and  C_38
   14  A    between atoms: C_18  and  C_44
   15  A    between atoms: C_19  and  C_39
   16  A    between atoms: C_21  and  C_48
   17  A    between atoms: C_24  and  C_48
   18  A    between atoms: C_25  and  C_33
                            x       y       z     vdW  Elec       q    Type
                         _______ _______ _______ _____ _____    ______ ____

>  <TORSDO>
F 18

$$$$
=
 OpenBabel11042422083D

 50 54  0  0  1  0  0  0  0  0999 V2000
  160.3370  211.6540  147.5530 C   0  0  2  0  0  3  0  0  0  0  0  0
  162.3600  211.4990  149.1470 C   0  0  2  0  0  3  0  0  0  0  0  0
  160.6150  213.1220  147.8700 C   0  0  2  0  0  3  0  0  0  0  0  0
  161.9980  213.2800  149.0530 S   0  0  0  0  0  0  0  0  0  0  0  0
  161.8900  210.7160  147.5870 S   0  0  0  0  0  0  0  0  0  0  0  0
  160.1500  212.3020  145.1140 C   0  0  0  0  0  0  0  0  0  0  0  0
  161.4460  213.3430  145.0600 S   0  0  0  0  0  0  0  0  0  0  0  0
  161.3660  213.6780  143.4330 N   0  0  0  0  0  0  0  0  0  0  0  0
  160.3030  212.9590  142.9740 C   0  0  0  0  0  0  0  0  0  0  0  0
  159.6340  212.1720  143.8760 N   0  0  0  0  0  0  0  0  0  0  0  0
  159.7170  211.5370  146.2390 N   0  0  0  0  0  2  0  0  0  0  0  0
  159.9590  212.9500  141.5300 C   0  0  0  0  0  2  0  0  0  0  0  0
  159.6900  211.5230  141.0700 C   0  0  0  0  0  2  0  0  0  0  0  0
  160.7350  210.1070  139.4260 O   0  0  0  0  0  1  0  0  0  0  0  0
  160.0210  211.3000  139.5850 C   0  0  2  0  0  0  0  0  0  0  0  0
  160.8910  212.4540  139.0900 C   0  0  0  0  0  2  0  0  0  0  0  0
  162.0960  211.9790  138.5670 O   0  0  0  0  0  1  0  0  0  0  0  0
  159.0420  211.4860  137.3810 O   0  0  0  0  0  1  0  0  0  0  0  0
  158.7470  211.2340  138.7240 C   0  0  1  0  0  3  0  0  0  0  0  0
  158.0070  209.9090  138.8580 C   0  0  0  0  0  2  0  0  0  0  0  0
  156.7110  209.9590  138.0780 C   0  0  0  0  0  1  0  0  0  0  0  0
  158.6400  214.4470  147.5150 O   0  0  0  0  0  0  0  0  0  0  0  0
  159.3750  213.8470  148.3500 C   0  0  0  0  0  0  0  0  0  0  0  0
  159.0300  213.9340  149.7830 C   0  0  0  0  0  0  0  0  0  0  0  0
  157.8260  213.5930  150.3720 C   0  0  0  0  0  3  0  0  0  0  0  0
  158.0270  213.8840  151.7080 C   0  0  0  0  0  0  0  0  0  0  0  0
  159.8810  214.3890  150.7750 C   0  0  0  0  0  3  0  0  0  0  0  0
  159.2370  214.3380  151.9170 O   0  0  0  0  0  0  0  0  0  0  0  0
  157.0010  213.7330  152.7800 C   0  0  0  0  0  2  0  0  0  0  0  0
  157.6290  213.3960  154.1260 C   0  0  0  0  0  0  0  0  0  0  0  0
  158.5890  214.3500  154.4210 F   0  0  0  0  0  0  0  0  0  0  0  0
  156.6640  213.4050  155.1180 F   0  0  0  0  0  0  0  0  0  0  0  0
  158.2280  212.1490  154.0790 F   0  0  0  0  0  0  0  0  0  0  0  0
  161.6310  210.8510  150.3180 C   0  0  0  0  0  2  0  0  0  0  0  0
  161.0640  208.6290  151.1570 N   0  0  0  0  0  2  0  0  0  0  0  0
  161.6910  207.4110  148.6180 C   0  0  2  0  0  3  0  0  0  0  0  0
  160.9170  206.5360  152.1560 O   0  0  0  0  0  0  0  0  0  0  0  0
  162.2210  208.7830  149.0320 C   0  0  0  0  0  2  0  0  0  0  0  0
  161.2060  209.4360  149.9540 C   0  0  2  0  0  3  0  0  0  0  0  0
  161.4930  206.4790  149.8330 C   0  0  1  0  0  3  0  0  0  0  0  0
  161.1100  207.1970  151.1030 C   0  0  0  0  0  0  0  0  0  0  0  0
  161.9610  206.3620  146.3690 C   0  0  0  0  0  2  0  0  0  0  0  0
  162.2460  205.4340  147.3830 O   0  0  0  0  0  0  0  0  0  0  0  0
  162.6550  206.7640  147.6190 C   0  0  2  0  0  3  0  0  0  0  0  0
  160.4620  205.3920  149.5340 C   0  0  0  0  0  2  0  0  0  0  0  0
  160.7990  204.0700  150.2000 C   0  0  0  0  0  2  0  0  0  0  0  0
  161.0700  202.9970  149.1570 C   0  0  0  0  0  2  0  0  0  0  0  0
  159.2270  201.3010  149.2120 O   0  0  0  0  0  0  0  0  0  0  0  0
  160.5140  201.6900  149.6100 C   0  0  0  0  0  0  0  0  0  0  0  0
  161.2200  200.9190  150.3100 O   0  0  0  0  0  1  0  0  0  0  0  0
  1 11  1  6  0  0  0
  1  5  1  0  0  0  0
  1  3  1  0  0  0  0
  2 34  1  1  0  0  0
  3 23  1  1  0  0  0
  3  4  1  0  0  0  0
  4  2  1  0  0  0  0
  5  2  1  0  0  0  0
  6 11  1  0  0  0  0
  7  6  1  0  0  0  0
  8  7  1  0  0  0  0
  9  8  2  0  0  0  0
  9 10  1  0  0  0  0
 10  6  2  0  0  0  0
 12  9  1  0  0  0  0
 13 12  1  0  0  0  0
 15 14  1  6  0  0  0
 15 13  1  0  0  0  0
 16 15  1  0  0  0  0
 17 16  1  0  0  0  0
 19 18  1  6  0  0  0
 19 20  1  0  0  0  0
 19 15  1  0  0  0  0
 21 20  1  0  0  0  0
 22 23  2  0  0  0  0
 23 24  1  0  0  0  0
 24 25  1  0  0  0  0
 24 27  2  0  0  0  0
 25 26  2  0  0  0  0
 26 28  1  0  0  0  0
 26 29  1  0  0  0  0
 27 28  1  0  0  0  0
 29 30  1  0  0  0  0
 30 31  1  0  0  0  0
 30 32  1  0  0  0  0
 33 30  1  0  0  0  0
 36 38  1  1  0  0  0
 36 40  1  0  0  0  0
 38 39  1  0  0  0  0
 39 34  1  1  0  0  0
 39 35  1  0  0  0  0
 40 45  1  6  0  0  0
 40 41  1  0  0  0  0
 41 35  1  0  0  0  0
 41 37  2  0  0  0  0
 42 43  1  0  0  0  0
 43 44  1  0  0  0  0
 44 42  1  6  0  0  0
 44 36  1  0  0  0  0
 45 46  1  0  0  0  0
 47 49  1  0  0  0  0
 47 46  1  0  0  0  0
 48 49  2  0  0  0  0
 49 50  1  0  0  0  0
M  END
>  <MODEL>
9

>  <REMARK>
 VINA RESULT:      -3.4      1.901      3.099
  Name = 
  18 active torsions:
  status: ('A' for Active; 'I' for Inactive)
    1  A    between atoms: C_2  and  N_40
    2  A    between atoms: C_3  and  C_25
    3  A    between atoms: C_3  and  C_44
    4  A    between atoms: C_4  and  C_19
    5  A    between atoms: C_4  and  C_35
    6  A    between atoms: C_7  and  C_9
    7  A    between atoms: C_7  and  C_43
    8  A    between atoms: C_10  and  C_17
    9  A    between atoms: C_11  and  C_46
   10  A    between atoms: C_12  and  C_35
   11  A    between atoms: C_13  and  C_37
   12  A    between atoms: C_13  and  C_44
   13  A    between atoms: C_17  and  C_38
   14  A    between atoms: C_18  and  C_44
   15  A    between atoms: C_19  and  C_39
   16  A    between atoms: C_21  and  C_48
   17  A    between atoms: C_24  and  C_48
   18  A    between atoms: C_25  and  C_33
                            x       y       z     vdW  Elec       q    Type
                         _______ _______ _______ _____ _____    ______ ____

>  <TORSDO>
F 18

$$$$
