=
 OpenBabel11052412153D

 41 46  0  0  1  0  0  0  0  0999 V2000
  161.0720  208.1000  152.9350 C   0  0  0  0  0  0  0  0  0  0  0  0
  161.7500  210.3720  153.7370 S   0  0  0  0  0  0  0  0  0  0  0  0
  161.9910  210.9430  149.1380 N   0  0  0  0  0  0  0  0  0  0  0  0
  161.2290  209.2200  154.8620 C   0  0  0  0  0  0  0  0  0  0  0  0
  161.7380  208.6690  148.7130 C   0  0  2  0  0  3  0  0  0  0  0  0
  161.7710  209.5190  151.0890 C   0  0  0  0  0  0  0  0  0  0  0  0
  160.8060  207.0420  152.0670 C   0  0  0  0  0  3  0  0  0  0  0  0
  160.8860  208.0460  154.2790 N   0  0  0  0  0  0  0  0  0  0  0  0
  161.5460  209.3100  152.4490 C   0  0  0  0  0  0  0  0  0  0  0  0
  162.5790  209.8460  148.4780 N   0  0  0  0  0  2  0  0  0  0  0  0
  162.3020  210.8210  150.5620 C   0  0  0  0  0  2  0  0  0  0  0  0
  161.5410  208.4460  150.1990 C   0  0  0  0  0  0  0  0  0  0  0  0
  161.0340  207.2240  150.6950 C   0  0  0  0  0  3  0  0  0  0  0  0
  161.0930  209.4760  156.3210 C   0  0  0  0  0  2  0  0  0  0  0  0
  162.9530  210.2980  157.1820 C   0  0  0  0  0  1  0  0  0  0  0  0
  161.7180  210.6800  156.6470 O   0  0  0  0  0  0  0  0  0  0  0  0
  162.3830  207.4660  148.0410 C   0  0  0  0  0  2  0  0  0  0  0  0
  161.5840  206.2110  148.3430 C   0  0  0  0  0  2  0  0  0  0  0  0
  161.1970  205.0090  144.8100 C   0  0  0  0  0  3  0  0  0  0  0  0
  161.5350  204.0100  147.0900 C   0  0  0  0  0  0  0  0  0  0  0  0
  161.2630  205.9520  145.8370 C   0  0  0  0  0  3  0  0  0  0  0  0
  161.3740  203.4820  145.5050 S   0  0  0  0  0  0  0  0  0  0  0  0
  161.4440  205.3910  147.1080 C   0  0  0  0  0  0  0  0  0  0  0  0
  161.7330  203.1810  148.2400 N   0  0  0  0  0  2  0  0  0  0  0  0
  160.7240  203.4000  150.4300 C   0  0  0  0  0  1  0  0  0  0  0  0
  160.6380  202.7170  149.0780 C   0  0  2  0  0  3  0  0  0  0  0  0
  161.3330  200.6320  148.1390 O   0  0  0  0  0  1  0  0  0  0  0  0
  160.7350  201.2110  149.2590 C   0  0  0  0  0  2  0  0  0  0  0  0
  162.6690  212.1340  148.6560 C   0  0  0  0  0  2  0  0  0  0  0  0
  160.1460  213.5740  146.3820 N   0  0  0  0  0  0  0  0  0  0  0  0
  162.4240  213.0520  146.3530 C   0  0  0  0  0  3  0  0  0  0  0  0
  161.9040  212.7210  147.5200 C   0  0  0  0  0  0  0  0  0  0  0  0
  160.4970  213.0620  147.5110 C   0  0  0  0  0  0  0  0  0  0  0  0
  161.3230  213.6440  145.5190 C   0  0  1  0  0  3  0  0  0  0  0  0
  159.5430  212.8420  148.6320 C   0  0  0  0  0  1  0  0  0  0  0  0
  162.0280  212.6480  143.2560 C   0  0  0  0  0  3  0  0  0  0  0  0
  161.4250  211.8920  142.3290 N   0  0  0  0  0  0  0  0  0  0  0  0
  162.0240  211.4460  141.1450 N   0  0  0  0  0  1  0  0  0  0  0  0
  161.1070  212.8550  144.2660 C   0  0  0  0  0  0  0  0  0  0  0  0
  160.1670  211.6090  142.7100 C   0  0  0  0  0  3  0  0  0  0  0  0
  159.9270  212.2080  143.9370 C   0  0  0  0  0  3  0  0  0  0  0  0
  1  8  1  0  0  0  0
  2  4  1  0  0  0  0
  3 11  1  0  0  0  0
  4 14  1  0  0  0  0
  5 17  1  1  0  0  0
  5 12  1  0  0  0  0
  6  9  2  0  0  0  0
  7  1  2  0  0  0  0
  8  4  2  0  0  0  0
  9  1  1  0  0  0  0
  9  2  1  0  0  0  0
 10  5  1  0  0  0  0
 10  3  1  0  0  0  0
 11  6  1  0  0  0  0
 12 13  2  0  0  0  0
 12  6  1  0  0  0  0
 13  7  1  0  0  0  0
 14 16  1  0  0  0  0
 16 15  1  0  0  0  0
 17 18  1  0  0  0  0
 19 22  1  0  0  0  0
 19 21  2  0  0  0  0
 20 23  2  0  0  0  0
 20 24  1  0  0  0  0
 21 23  1  0  0  0  0
 22 20  1  0  0  0  0
 23 18  1  0  0  0  0
 24 26  1  0  0  0  0
 26 28  1  0  0  0  0
 26 25  1  1  0  0  0
 27 28  1  0  0  0  0
 29  3  1  0  0  0  0
 30 33  2  0  0  0  0
 31 32  2  0  0  0  0
 32 29  1  0  0  0  0
 33 32  1  0  0  0  0
 33 35  1  0  0  0  0
 34 39  1  6  0  0  0
 34 31  1  0  0  0  0
 34 30  1  0  0  0  0
 36 39  2  0  0  0  0
 37 40  1  0  0  0  0
 37 36  1  0  0  0  0
 38 37  1  0  0  0  0
 40 41  2  0  0  0  0
 41 39  1  0  0  0  0
M  END
>  <MODEL>
1

>  <REMARK>
 VINA RESULT:      -8.5      0.000      0.000
  Name = 
  11 active torsions:
  status: ('A' for Active; 'I' for Inactive)
    1  A    between atoms: N_8  and  C_35
    2  A    between atoms: C_9  and  C_15
    3  A    between atoms: C_12  and  C_29
    4  A    between atoms: C_14  and  N_33
    5  A    between atoms: C_15  and  O_31
    6  A    between atoms: C_17  and  C_35
    7  A    between atoms: CA_20  and  C_27
    8  A    between atoms: CA_20  and  N_33
    9  A    between atoms: C_21  and  C_29
   10  A    between atoms: C_21  and  C_37
   11  A    between atoms: C_22  and  C_38
                            x       y       z     vdW  Elec       q    Type
                         _______ _______ _______ _____ _____    ______ ____

>  <TORSDO>
F 11

$$$$
=
 OpenBabel11052412153D

 41 46  0  0  1  0  0  0  0  0999 V2000
  161.1780  208.3250  153.7450 C   0  0  0  0  0  0  0  0  0  0  0  0
  161.9460  210.6950  153.9860 S   0  0  0  0  0  0  0  0  0  0  0  0
  161.7800  210.2800  149.3670 N   0  0  0  0  0  0  0  0  0  0  0  0
  161.5170  209.8200  155.3700 C   0  0  0  0  0  0  0  0  0  0  0  0
  161.4700  207.9750  149.4560 C   0  0  2  0  0  3  0  0  0  0  0  0
  161.7220  209.3050  151.5870 C   0  0  0  0  0  0  0  0  0  0  0  0
  160.8260  207.1160  153.1460 C   0  0  0  0  0  3  0  0  0  0  0  0
  161.1130  208.5590  155.0800 N   0  0  0  0  0  0  0  0  0  0  0  0
  161.6180  209.3920  152.9740 C   0  0  0  0  0  0  0  0  0  0  0  0
  162.2970  209.0530  148.9070 N   0  0  0  0  0  2  0  0  0  0  0  0
  162.2150  210.4520  150.7530 C   0  0  0  0  0  2  0  0  0  0  0  0
  161.4040  208.0750  150.9680 C   0  0  0  0  0  0  0  0  0  0  0  0
  160.9320  206.9990  151.7520 C   0  0  0  0  0  3  0  0  0  0  0  0
  161.5140  210.3800  156.7480 C   0  0  0  0  0  2  0  0  0  0  0  0
  159.4880  211.2410  156.9210 C   0  0  0  0  0  1  0  0  0  0  0  0
  160.8310  211.5970  156.7590 O   0  0  0  0  0  0  0  0  0  0  0  0
  162.0410  206.6410  149.0020 C   0  0  0  0  0  2  0  0  0  0  0  0
  160.9520  205.7970  148.3660 C   0  0  0  0  0  2  0  0  0  0  0  0
  160.7800  202.7510  150.5480 C   0  0  0  0  0  3  0  0  0  0  0  0
  161.2570  203.2920  148.1430 C   0  0  0  0  0  0  0  0  0  0  0  0
  160.7230  204.1140  150.2540 C   0  0  0  0  0  3  0  0  0  0  0  0
  161.1650  201.9340  149.1230 S   0  0  0  0  0  0  0  0  0  0  0  0
  160.9980  204.4120  148.9130 C   0  0  0  0  0  0  0  0  0  0  0  0
  161.5550  203.3040  146.7420 N   0  0  0  0  0  2  0  0  0  0  0  0
  160.2600  202.0710  145.1100 C   0  0  0  0  0  1  0  0  0  0  0  0
  160.5290  203.4340  145.7180 C   0  0  2  0  0  3  0  0  0  0  0  0
  160.5500  205.6830  144.9090 O   0  0  0  0  0  1  0  0  0  0  0  0
  161.0040  204.3920  144.6380 C   0  0  0  0  0  2  0  0  0  0  0  0
  162.4230  211.3240  148.5870 C   0  0  0  0  0  2  0  0  0  0  0  0
  160.5060  214.2020  147.3020 N   0  0  0  0  0  0  0  0  0  0  0  0
  160.1430  211.9470  147.8000 C   0  0  0  0  0  3  0  0  0  0  0  0
  161.3940  212.2700  148.0720 C   0  0  0  0  0  0  0  0  0  0  0  0
  161.5890  213.6670  147.7490 C   0  0  0  0  0  0  0  0  0  0  0  0
  159.4640  213.1770  147.2660 C   0  0  1  0  0  3  0  0  0  0  0  0
  162.8570  214.4290  147.9180 C   0  0  0  0  0  1  0  0  0  0  0  0
  158.3090  213.7080  149.5010 C   0  0  0  0  0  3  0  0  0  0  0  0
  157.0710  214.0730  149.8600 N   0  0  0  0  0  0  0  0  0  0  0  0
  156.6590  214.3270  151.1740 N   0  0  0  0  0  1  0  0  0  0  0  0
  158.3040  213.5720  148.1260 C   0  0  0  0  0  0  0  0  0  0  0  0
  156.2860  214.1770  148.7730 C   0  0  0  0  0  3  0  0  0  0  0  0
  157.0350  213.8620  147.6500 C   0  0  0  0  0  3  0  0  0  0  0  0
  1  8  1  0  0  0  0
  2  4  1  0  0  0  0
  3 11  1  0  0  0  0
  4 14  1  0  0  0  0
  5 17  1  1  0  0  0
  5 12  1  0  0  0  0
  6  9  1  0  0  0  0
  7  1  1  0  0  0  0
  8  4  2  0  0  0  0
  9  1  2  0  0  0  0
  9  2  1  0  0  0  0
 10  3  1  0  0  0  0
 10  5  1  0  0  0  0
 11  6  1  0  0  0  0
 12  6  2  0  0  0  0
 12 13  1  0  0  0  0
 13  7  2  0  0  0  0
 14 16  1  0  0  0  0
 16 15  1  0  0  0  0
 18 23  1  0  0  0  0
 18 17  1  0  0  0  0
 20 23  2  0  0  0  0
 20 22  1  0  0  0  0
 21 19  2  0  0  0  0
 22 19  1  0  0  0  0
 23 21  1  0  0  0  0
 24 20  1  0  0  0  0
 26 25  1  6  0  0  0
 26 24  1  0  0  0  0
 28 27  1  0  0  0  0
 28 26  1  0  0  0  0
 29  3  1  0  0  0  0
 30 33  2  0  0  0  0
 31 32  2  0  0  0  0
 32 29  1  0  0  0  0
 33 35  1  0  0  0  0
 33 32  1  0  0  0  0
 34 30  1  0  0  0  0
 34 31  1  0  0  0  0
 34 39  1  1  0  0  0
 36 37  1  0  0  0  0
 37 38  1  0  0  0  0
 39 36  2  0  0  0  0
 40 37  1  0  0  0  0
 41 39  1  0  0  0  0
 41 40  2  0  0  0  0
M  END
>  <MODEL>
2

>  <REMARK>
 VINA RESULT:      -8.3      2.447      3.935
  Name = 
  11 active torsions:
  status: ('A' for Active; 'I' for Inactive)
    1  A    between atoms: N_8  and  C_35
    2  A    between atoms: C_9  and  C_15
    3  A    between atoms: C_12  and  C_29
    4  A    between atoms: C_14  and  N_33
    5  A    between atoms: C_15  and  O_31
    6  A    between atoms: C_17  and  C_35
    7  A    between atoms: CA_20  and  C_27
    8  A    between atoms: CA_20  and  N_33
    9  A    between atoms: C_21  and  C_29
   10  A    between atoms: C_21  and  C_37
   11  A    between atoms: C_22  and  C_38
                            x       y       z     vdW  Elec       q    Type
                         _______ _______ _______ _____ _____    ______ ____

>  <TORSDO>
F 11

$$$$
=
 OpenBabel11052412153D

 41 46  0  0  1  0  0  0  0  0999 V2000
  160.9800  204.9170  149.2980 C   0  0  0  0  0  0  0  0  0  0  0  0
  161.0860  203.5880  151.4170 S   0  0  0  0  0  0  0  0  0  0  0  0
  160.8350  207.9110  153.0880 N   0  0  0  0  0  0  0  0  0  0  0  0
  160.9720  202.7760  149.9370 C   0  0  0  0  0  0  0  0  0  0  0  0
  161.1660  208.8760  150.9970 C   0  0  2  0  0  3  0  0  0  0  0  0
  161.1420  206.3650  151.2450 C   0  0  0  0  0  0  0  0  0  0  0  0
  160.9420  206.0160  148.4410 C   0  0  0  0  0  3  0  0  0  0  0  0
  160.9120  203.6260  148.8830 N   0  0  0  0  0  0  0  0  0  0  0  0
  161.0790  205.0950  150.6710 C   0  0  0  0  0  0  0  0  0  0  0  0
  161.6440  208.8210  152.3810 N   0  0  0  0  0  2  0  0  0  0  0  0
  161.2680  206.5600  152.7280 C   0  0  0  0  0  2  0  0  0  0  0  0
  161.1420  207.4880  150.3880 C   0  0  0  0  0  0  0  0  0  0  0  0
  161.0150  207.3030  148.9940 C   0  0  0  0  0  3  0  0  0  0  0  0
  160.8780  201.2970  149.7970 C   0  0  0  0  0  2  0  0  0  0  0  0
  161.5420  200.3320  147.9260 C   0  0  0  0  0  1  0  0  0  0  0  0
  160.4450  200.9740  148.5120 O   0  0  0  0  0  0  0  0  0  0  0  0
  162.0560  209.8240  150.2090 C   0  0  0  0  0  2  0  0  0  0  0  0
  161.7270  211.2630  150.5610 C   0  0  0  0  0  2  0  0  0  0  0  0
  161.9940  212.5740  147.0570 C   0  0  0  0  0  3  0  0  0  0  0  0
  160.9880  213.2950  149.2420 C   0  0  0  0  0  0  0  0  0  0  0  0
  162.2120  211.6760  148.1030 C   0  0  0  0  0  3  0  0  0  0  0  0
  161.1010  213.8670  147.6680 S   0  0  0  0  0  0  0  0  0  0  0  0
  161.6550  212.0850  149.3220 C   0  0  0  0  0  0  0  0  0  0  0  0
  160.3160  213.9410  150.3280 N   0  0  0  0  0  2  0  0  0  0  0  0
  158.5500  212.8040  151.5330 C   0  0  0  0  0  1  0  0  0  0  0  0
  158.8740  213.8810  150.5140 C   0  0  2  0  0  3  0  0  0  0  0  0
  156.9220  213.0450  149.4190 O   0  0  0  0  0  1  0  0  0  0  0  0
  158.2020  213.5520  149.1910 C   0  0  0  0  0  2  0  0  0  0  0  0
  161.1360  208.0910  154.4980 C   0  0  0  0  0  2  0  0  0  0  0  0
  161.1260  211.4480  156.0280 N   0  0  0  0  0  0  0  0  0  0  0  0
  160.0940  210.3390  154.2470 C   0  0  0  0  0  3  0  0  0  0  0  0
  160.9000  209.5100  154.8840 C   0  0  0  0  0  0  0  0  0  0  0  0
  161.5270  210.2250  155.9750 C   0  0  0  0  0  0  0  0  0  0  0  0
  160.1830  211.6730  154.9340 C   0  0  1  0  0  3  0  0  0  0  0  0
  162.4990  209.6500  156.9450 C   0  0  0  0  0  1  0  0  0  0  0  0
  157.8670  211.2740  155.9770 C   0  0  0  0  0  3  0  0  0  0  0  0
  156.8440  212.0610  156.3350 N   0  0  0  0  0  0  0  0  0  0  0  0
  155.6500  211.6130  156.9130 N   0  0  0  0  0  1  0  0  0  0  0  0
  158.8490  212.0990  155.4650 C   0  0  0  0  0  0  0  0  0  0  0  0
  157.1390  213.3470  156.0750 C   0  0  0  0  0  3  0  0  0  0  0  0
  158.4060  213.4110  155.5170 C   0  0  0  0  0  3  0  0  0  0  0  0
  1  9  1  0  0  0  0
  3 29  1  0  0  0  0
  4  2  1  0  0  0  0
  5 17  1  6  0  0  0
  5 10  1  0  0  0  0
  6 11  1  0  0  0  0
  7 13  1  0  0  0  0
  7  1  2  0  0  0  0
  8  1  1  0  0  0  0
  8  4  2  0  0  0  0
  9  6  2  0  0  0  0
  9  2  1  0  0  0  0
 10  3  1  0  0  0  0
 11  3  1  0  0  0  0
 12  5  1  0  0  0  0
 12  6  1  0  0  0  0
 13 12  2  0  0  0  0
 14  4  1  0  0  0  0
 15 16  1  0  0  0  0
 16 14  1  0  0  0  0
 17 18  1  0  0  0  0
 19 22  1  0  0  0  0
 19 21  2  0  0  0  0
 20 23  2  0  0  0  0
 20 24  1  0  0  0  0
 21 23  1  0  0  0  0
 22 20  1  0  0  0  0
 23 18  1  0  0  0  0
 24 26  1  0  0  0  0
 26 25  1  1  0  0  0
 28 27  1  0  0  0  0
 28 26  1  0  0  0  0
 29 32  1  0  0  0  0
 31 32  2  0  0  0  0
 31 34  1  0  0  0  0
 32 33  1  0  0  0  0
 33 30  2  0  0  0  0
 33 35  1  0  0  0  0
 34 39  1  1  0  0  0
 34 30  1  0  0  0  0
 36 37  1  0  0  0  0
 37 38  1  0  0  0  0
 39 41  1  0  0  0  0
 39 36  2  0  0  0  0
 40 37  1  0  0  0  0
 41 40  2  0  0  0  0
M  END
>  <MODEL>
3

>  <REMARK>
 VINA RESULT:      -8.2      3.481      9.304
  Name = 
  11 active torsions:
  status: ('A' for Active; 'I' for Inactive)
    1  A    between atoms: N_8  and  C_35
    2  A    between atoms: C_9  and  C_15
    3  A    between atoms: C_12  and  C_29
    4  A    between atoms: C_14  and  N_33
    5  A    between atoms: C_15  and  O_31
    6  A    between atoms: C_17  and  C_35
    7  A    between atoms: CA_20  and  C_27
    8  A    between atoms: CA_20  and  N_33
    9  A    between atoms: C_21  and  C_29
   10  A    between atoms: C_21  and  C_37
   11  A    between atoms: C_22  and  C_38
                            x       y       z     vdW  Elec       q    Type
                         _______ _______ _______ _____ _____    ______ ____

>  <TORSDO>
F 11

$$$$
=
 OpenBabel11052412153D

 41 46  0  0  1  0  0  0  0  0999 V2000
  161.2000  208.1670  153.5270 C   0  0  0  0  0  0  0  0  0  0  0  0
  162.0620  210.5040  153.7700 S   0  0  0  0  0  0  0  0  0  0  0  0
  161.8050  210.1250  149.1510 N   0  0  0  0  0  0  0  0  0  0  0  0
  161.6220  209.6380  155.1550 C   0  0  0  0  0  0  0  0  0  0  0  0
  161.4070  207.8330  149.2320 C   0  0  2  0  0  3  0  0  0  0  0  0
  161.7460  209.1390  151.3660 C   0  0  0  0  0  0  0  0  0  0  0  0
  160.7910  206.9760  152.9280 C   0  0  0  0  0  3  0  0  0  0  0  0
  161.1650  208.3960  154.8650 N   0  0  0  0  0  0  0  0  0  0  0  0
  161.6680  209.2220  152.7560 C   0  0  0  0  0  0  0  0  0  0  0  0
  162.2660  208.8820  148.6760 N   0  0  0  0  0  2  0  0  0  0  0  0
  162.2690  210.2710  150.5310 C   0  0  0  0  0  2  0  0  0  0  0  0
  161.3700  207.9260  150.7460 C   0  0  0  0  0  0  0  0  0  0  0  0
  160.8700  206.8650  151.5310 C   0  0  0  0  0  3  0  0  0  0  0  0
  161.6640  210.1890  156.5360 C   0  0  0  0  0  2  0  0  0  0  0  0
  159.6230  210.9900  156.8020 C   0  0  0  0  0  1  0  0  0  0  0  0
  160.9480  211.3850  156.5860 O   0  0  0  0  0  0  0  0  0  0  0  0
  161.9180  206.4810  148.7620 C   0  0  0  0  0  2  0  0  0  0  0  0
  162.4680  206.5930  147.3520 C   0  0  0  0  0  2  0  0  0  0  0  0
  160.9790  204.6830  144.4880 C   0  0  0  0  0  3  0  0  0  0  0  0
  161.5760  204.2670  146.8910 C   0  0  0  0  0  0  0  0  0  0  0  0
  161.5170  205.7950  145.1360 C   0  0  0  0  0  3  0  0  0  0  0  0
  160.9220  203.4170  145.6010 S   0  0  0  0  0  0  0  0  0  0  0  0
  161.8410  205.5610  146.4790 C   0  0  0  0  0  0  0  0  0  0  0  0
  161.8210  203.7520  148.2040 N   0  0  0  0  0  2  0  0  0  0  0  0
  160.8760  203.4070  150.4060 C   0  0  0  0  0  1  0  0  0  0  0  0
  160.8340  202.9850  148.9490 C   0  0  2  0  0  3  0  0  0  0  0  0
  161.0740  200.9010  150.0940 O   0  0  0  0  0  1  0  0  0  0  0  0
  161.1480  201.5020  148.8370 C   0  0  0  0  0  2  0  0  0  0  0  0
  162.4750  211.1480  148.3670 C   0  0  0  0  0  2  0  0  0  0  0  0
  160.6910  214.2580  147.4980 N   0  0  0  0  0  0  0  0  0  0  0  0
  160.2520  211.9640  147.5930 C   0  0  0  0  0  3  0  0  0  0  0  0
  161.4950  212.1980  147.9710 C   0  0  0  0  0  0  0  0  0  0  0  0
  161.7380  213.6230  147.8960 C   0  0  0  0  0  0  0  0  0  0  0  0
  159.6290  213.2860  147.2440 C   0  0  1  0  0  3  0  0  0  0  0  0
  163.0140  214.3060  148.2470 C   0  0  0  0  0  1  0  0  0  0  0  0
  158.4300  213.7000  149.4790 C   0  0  0  0  0  3  0  0  0  0  0  0
  157.1630  213.9470  149.8400 N   0  0  0  0  0  0  0  0  0  0  0  0
  156.7300  214.1580  151.1540 N   0  0  0  0  0  1  0  0  0  0  0  0
  158.4370  213.5690  148.1040 C   0  0  0  0  0  0  0  0  0  0  0  0
  156.3720  213.9810  148.7530 C   0  0  0  0  0  3  0  0  0  0  0  0
  157.1470  213.7410  147.6290 C   0  0  0  0  0  3  0  0  0  0  0  0
  1  8  1  0  0  0  0
  2  4  1  0  0  0  0
  3 11  1  0  0  0  0
  4 14  1  0  0  0  0
  5 17  1  1  0  0  0
  5 12  1  0  0  0  0
  6  9  1  0  0  0  0
  7  1  1  0  0  0  0
  8  4  2  0  0  0  0
  9  1  2  0  0  0  0
  9  2  1  0  0  0  0
 10  3  1  0  0  0  0
 10  5  1  0  0  0  0
 11  6  1  0  0  0  0
 12  6  2  0  0  0  0
 12 13  1  0  0  0  0
 13  7  2  0  0  0  0
 14 16  1  0  0  0  0
 16 15  1  0  0  0  0
 18 17  1  0  0  0  0
 19 21  2  0  0  0  0
 19 22  1  0  0  0  0
 20 24  1  0  0  0  0
 21 23  1  0  0  0  0
 22 20  1  0  0  0  0
 23 20  2  0  0  0  0
 23 18  1  0  0  0  0
 24 26  1  0  0  0  0
 26 25  1  1  0  0  0
 28 26  1  0  0  0  0
 28 27  1  0  0  0  0
 29  3  1  0  0  0  0
 30 33  2  0  0  0  0
 31 32  2  0  0  0  0
 32 29  1  0  0  0  0
 33 32  1  0  0  0  0
 33 35  1  0  0  0  0
 34 30  1  0  0  0  0
 34 31  1  0  0  0  0
 34 39  1  1  0  0  0
 36 37  1  0  0  0  0
 37 38  1  0  0  0  0
 39 36  2  0  0  0  0
 40 37  1  0  0  0  0
 41 39  1  0  0  0  0
 41 40  2  0  0  0  0
M  END
>  <MODEL>
4

>  <REMARK>
 VINA RESULT:      -8.1      2.133      3.255
  Name = 
  11 active torsions:
  status: ('A' for Active; 'I' for Inactive)
    1  A    between atoms: N_8  and  C_35
    2  A    between atoms: C_9  and  C_15
    3  A    between atoms: C_12  and  C_29
    4  A    between atoms: C_14  and  N_33
    5  A    between atoms: C_15  and  O_31
    6  A    between atoms: C_17  and  C_35
    7  A    between atoms: CA_20  and  C_27
    8  A    between atoms: CA_20  and  N_33
    9  A    between atoms: C_21  and  C_29
   10  A    between atoms: C_21  and  C_37
   11  A    between atoms: C_22  and  C_38
                            x       y       z     vdW  Elec       q    Type
                         _______ _______ _______ _____ _____    ______ ____

>  <TORSDO>
F 11

$$$$
=
 OpenBabel11052412153D

 41 46  0  0  1  0  0  0  0  0999 V2000
  162.1220  208.9050  149.4860 C   0  0  0  0  0  0  0  0  0  0  0  0
  161.4290  210.8590  150.8890 S   0  0  0  0  0  0  0  0  0  0  0  0
  161.4540  207.4600  154.0490 N   0  0  0  0  0  0  0  0  0  0  0  0
  161.8710  211.1150  149.2760 C   0  0  0  0  0  0  0  0  0  0  0  0
  161.7010  205.7930  152.4430 C   0  0  2  0  0  3  0  0  0  0  0  0
  161.5460  208.2140  151.7460 C   0  0  0  0  0  0  0  0  0  0  0  0
  162.4230  207.5920  149.1250 C   0  0  0  0  0  3  0  0  0  0  0  0
  162.2310  209.9680  148.6500 N   0  0  0  0  0  0  0  0  0  0  0  0
  161.6910  209.2020  150.7720 C   0  0  0  0  0  0  0  0  0  0  0  0
  160.8900  206.2610  153.5700 N   0  0  0  0  0  2  0  0  0  0  0  0
  161.0630  208.5310  153.1320 C   0  0  0  0  0  2  0  0  0  0  0  0
  161.8120  206.8740  151.3850 C   0  0  0  0  0  0  0  0  0  0  0  0
  162.2740  206.5800  150.0840 C   0  0  0  0  0  3  0  0  0  0  0  0
  161.9290  212.4520  148.6250 C   0  0  0  0  0  2  0  0  0  0  0  0
  162.2610  213.0000  146.5120 C   0  0  0  0  0  1  0  0  0  0  0  0
  162.9010  212.4460  147.6250 O   0  0  0  0  0  0  0  0  0  0  0  0
  161.0800  204.5210  151.8880 C   0  0  0  0  0  2  0  0  0  0  0  0
  160.8010  204.6810  150.4050 C   0  0  0  0  0  2  0  0  0  0  0  0
  160.7740  201.0220  149.5790 C   0  0  0  0  0  3  0  0  0  0  0  0
  161.0770  203.2010  148.3680 C   0  0  0  0  0  0  0  0  0  0  0  0
  160.7040  202.1430  150.4070 C   0  0  0  0  0  3  0  0  0  0  0  0
  161.0500  201.5630  148.0050 S   0  0  0  0  0  0  0  0  0  0  0  0
  160.8810  203.3560  149.7290 C   0  0  0  0  0  0  0  0  0  0  0  0
  161.2710  204.2690  147.4340 N   0  0  0  0  0  2  0  0  0  0  0  0
  163.1620  204.9240  146.0730 C   0  0  0  0  0  1  0  0  0  0  0  0
  161.9030  204.0800  146.1370 C   0  0  2  0  0  3  0  0  0  0  0  0
  160.5970  205.8450  145.1950 O   0  0  0  0  0  1  0  0  0  0  0  0
  160.9460  204.5030  145.0350 C   0  0  0  0  0  2  0  0  0  0  0  0
  160.8200  207.7410  155.3250 C   0  0  0  0  0  2  0  0  0  0  0  0
  161.1620  211.2980  156.2420 N   0  0  0  0  0  0  0  0  0  0  0  0
  159.7830  209.9670  154.9030 C   0  0  0  0  0  3  0  0  0  0  0  0
  160.6860  209.2140  155.5040 C   0  0  0  0  0  0  0  0  0  0  0  0
  161.5270  210.0650  156.3190 C   0  0  0  0  0  0  0  0  0  0  0  0
  160.0250  211.3880  155.3270 C   0  0  1  0  0  3  0  0  0  0  0  0
  162.6610  209.6090  157.1680 C   0  0  0  0  0  1  0  0  0  0  0  0
  157.5410  211.4610  155.9840 C   0  0  0  0  0  3  0  0  0  0  0  0
  156.7880  212.2700  156.7410 N   0  0  0  0  0  0  0  0  0  0  0  0
  155.4170  212.1050  156.9730 N   0  0  0  0  0  1  0  0  0  0  0  0
  158.8300  211.9580  156.0240 C   0  0  0  0  0  0  0  0  0  0  0  0
  157.5450  213.2520  157.2610 C   0  0  0  0  0  3  0  0  0  0  0  0
  158.8500  213.0890  156.8240 C   0  0  0  0  0  3  0  0  0  0  0  0
  1  9  1  0  0  0  0
  3 29  1  0  0  0  0
  4  2  1  0  0  0  0
  5 17  1  6  0  0  0
  5 10  1  0  0  0  0
  6 11  1  0  0  0  0
  7  1  2  0  0  0  0
  7 13  1  0  0  0  0
  8  4  2  0  0  0  0
  8  1  1  0  0  0  0
  9  2  1  0  0  0  0
  9  6  2  0  0  0  0
 10  3  1  0  0  0  0
 11  3  1  0  0  0  0
 12  6  1  0  0  0  0
 12  5  1  0  0  0  0
 13 12  2  0  0  0  0
 14  4  1  0  0  0  0
 15 16  1  0  0  0  0
 16 14  1  0  0  0  0
 18 17  1  0  0  0  0
 19 21  2  0  0  0  0
 20 23  2  0  0  0  0
 22 20  1  0  0  0  0
 22 19  1  0  0  0  0
 23 18  1  0  0  0  0
 23 21  1  0  0  0  0
 24 20  1  0  0  0  0
 26 25  1  1  0  0  0
 26 24  1  0  0  0  0
 28 27  1  0  0  0  0
 28 26  1  0  0  0  0
 29 32  1  0  0  0  0
 30 33  2  0  0  0  0
 31 34  1  0  0  0  0
 31 32  2  0  0  0  0
 32 33  1  0  0  0  0
 33 35  1  0  0  0  0
 34 39  1  1  0  0  0
 34 30  1  0  0  0  0
 36 39  2  0  0  0  0
 36 37  1  0  0  0  0
 37 38  1  0  0  0  0
 37 40  1  0  0  0  0
 39 41  1  0  0  0  0
 41 40  2  0  0  0  0
M  END
>  <MODEL>
5

>  <REMARK>
 VINA RESULT:      -8.1      3.004      7.974
  Name = 
  11 active torsions:
  status: ('A' for Active; 'I' for Inactive)
    1  A    between atoms: N_8  and  C_35
    2  A    between atoms: C_9  and  C_15
    3  A    between atoms: C_12  and  C_29
    4  A    between atoms: C_14  and  N_33
    5  A    between atoms: C_15  and  O_31
    6  A    between atoms: C_17  and  C_35
    7  A    between atoms: CA_20  and  C_27
    8  A    between atoms: CA_20  and  N_33
    9  A    between atoms: C_21  and  C_29
   10  A    between atoms: C_21  and  C_37
   11  A    between atoms: C_22  and  C_38
                            x       y       z     vdW  Elec       q    Type
                         _______ _______ _______ _____ _____    ______ ____

>  <TORSDO>
F 11

$$$$
=
 OpenBabel11052412153D

 41 46  0  0  1  0  0  0  0  0999 V2000
  161.1320  208.0130  153.4230 C   0  0  0  0  0  0  0  0  0  0  0  0
  161.8640  210.3290  154.0270 S   0  0  0  0  0  0  0  0  0  0  0  0
  161.8620  210.5770  149.3930 N   0  0  0  0  0  0  0  0  0  0  0  0
  161.3970  209.2630  155.2560 C   0  0  0  0  0  0  0  0  0  0  0  0
  161.5750  208.2810  149.1410 C   0  0  2  0  0  3  0  0  0  0  0  0
  161.7390  209.2940  151.4470 C   0  0  0  0  0  0  0  0  0  0  0  0
  160.8150  206.9000  152.6460 C   0  0  0  0  0  3  0  0  0  0  0  0
  161.0180  208.0540  154.7750 N   0  0  0  0  0  0  0  0  0  0  0  0
  161.5860  209.1820  152.8290 C   0  0  0  0  0  0  0  0  0  0  0  0
  162.4080  209.4320  148.7810 N   0  0  0  0  0  2  0  0  0  0  0  0
  162.2470  210.5520  150.8040 C   0  0  0  0  0  2  0  0  0  0  0  0
  161.4560  208.1640  150.6490 C   0  0  0  0  0  0  0  0  0  0  0  0
  160.9700  206.9840  151.2540 C   0  0  0  0  0  3  0  0  0  0  0  0
  161.3410  209.6210  156.6990 C   0  0  0  0  0  2  0  0  0  0  0  0
  163.1880  210.7690  157.0780 C   0  0  0  0  0  1  0  0  0  0  0  0
  162.6120  209.5070  157.2610 O   0  0  0  0  0  0  0  0  0  0  0  0
  162.1760  207.0290  148.5230 C   0  0  0  0  0  2  0  0  0  0  0  0
  161.1420  205.9200  148.4810 C   0  0  0  0  0  2  0  0  0  0  0  0
  160.9200  205.2770  144.7910 C   0  0  0  0  0  3  0  0  0  0  0  0
  161.3950  203.9700  146.8830 C   0  0  0  0  0  0  0  0  0  0  0  0
  160.8560  206.0380  145.9600 C   0  0  0  0  0  3  0  0  0  0  0  0
  161.3070  203.6950  145.2300 S   0  0  0  0  0  0  0  0  0  0  0  0
  161.1140  205.3030  147.1250 C   0  0  0  0  0  0  0  0  0  0  0  0
  161.7070  202.9970  147.8850 N   0  0  0  0  0  2  0  0  0  0  0  0
  160.7050  201.9510  149.8250 C   0  0  0  0  0  1  0  0  0  0  0  0
  160.7680  201.9700  148.3090 C   0  0  2  0  0  3  0  0  0  0  0  0
  160.8930  200.4710  146.4520 O   0  0  0  0  0  1  0  0  0  0  0  0
  161.2280  200.6140  147.7990 C   0  0  0  0  0  2  0  0  0  0  0  0
  162.5190  211.7260  148.7930 C   0  0  0  0  0  2  0  0  0  0  0  0
  159.8020  214.2200  148.8700 N   0  0  0  0  0  0  0  0  0  0  0  0
  161.4260  213.4550  147.3720 C   0  0  0  0  0  3  0  0  0  0  0  0
  161.5120  212.7860  148.5070 C   0  0  0  0  0  0  0  0  0  0  0  0
  160.5010  213.2850  149.4140 C   0  0  0  0  0  0  0  0  0  0  0  0
  160.3110  214.4520  147.5190 C   0  0  1  0  0  3  0  0  0  0  0  0
  160.2540  212.7910  150.7970 C   0  0  0  0  0  1  0  0  0  0  0  0
  157.8760  214.3600  146.6980 C   0  0  0  0  0  3  0  0  0  0  0  0
  157.2820  214.0530  145.5370 N   0  0  0  0  0  0  0  0  0  0  0  0
  155.9010  214.0850  145.3100 N   0  0  0  0  0  1  0  0  0  0  0  0
  159.2370  214.2180  146.5020 C   0  0  0  0  0  0  0  0  0  0  0  0
  158.2080  213.7280  144.6170 C   0  0  0  0  0  3  0  0  0  0  0  0
  159.4640  213.8190  145.1960 C   0  0  0  0  0  3  0  0  0  0  0  0
  1  8  1  0  0  0  0
  2  4  1  0  0  0  0
  3 11  1  0  0  0  0
  4 14  1  0  0  0  0
  5 17  1  1  0  0  0
  5 12  1  0  0  0  0
  6  9  2  0  0  0  0
  7  1  2  0  0  0  0
  8  4  2  0  0  0  0
  9  1  1  0  0  0  0
  9  2  1  0  0  0  0
 10  5  1  0  0  0  0
 10  3  1  0  0  0  0
 11  6  1  0  0  0  0
 12 13  2  0  0  0  0
 12  6  1  0  0  0  0
 13  7  1  0  0  0  0
 14 16  1  0  0  0  0
 15 16  1  0  0  0  0
 18 17  1  0  0  0  0
 19 22  1  0  0  0  0
 19 21  2  0  0  0  0
 20 23  2  0  0  0  0
 20 24  1  0  0  0  0
 21 23  1  0  0  0  0
 22 20  1  0  0  0  0
 23 18  1  0  0  0  0
 24 26  1  0  0  0  0
 26 25  1  1  0  0  0
 27 28  1  0  0  0  0
 28 26  1  0  0  0  0
 29  3  1  0  0  0  0
 30 33  2  0  0  0  0
 31 34  1  0  0  0  0
 31 32  2  0  0  0  0
 32 29  1  0  0  0  0
 32 33  1  0  0  0  0
 33 35  1  0  0  0  0
 34 39  1  6  0  0  0
 34 30  1  0  0  0  0
 37 36  1  0  0  0  0
 38 37  1  0  0  0  0
 39 36  2  0  0  0  0
 40 41  2  0  0  0  0
 40 37  1  0  0  0  0
 41 39  1  0  0  0  0
M  END
>  <MODEL>
6

>  <REMARK>
 VINA RESULT:      -7.6      1.876      2.179
  Name = 
  11 active torsions:
  status: ('A' for Active; 'I' for Inactive)
    1  A    between atoms: N_8  and  C_35
    2  A    between atoms: C_9  and  C_15
    3  A    between atoms: C_12  and  C_29
    4  A    between atoms: C_14  and  N_33
    5  A    between atoms: C_15  and  O_31
    6  A    between atoms: C_17  and  C_35
    7  A    between atoms: CA_20  and  C_27
    8  A    between atoms: CA_20  and  N_33
    9  A    between atoms: C_21  and  C_29
   10  A    between atoms: C_21  and  C_37
   11  A    between atoms: C_22  and  C_38
                            x       y       z     vdW  Elec       q    Type
                         _______ _______ _______ _____ _____    ______ ____

>  <TORSDO>
F 11

$$$$
=
 OpenBabel11052412153D

 41 46  0  0  1  0  0  0  0  0999 V2000
  160.7500  213.8670  148.2480 C   0  0  0  0  0  0  0  0  0  0  0  0
  162.4350  212.3590  147.1760 S   0  0  0  0  0  0  0  0  0  0  0  0
  161.3610  209.9300  150.9820 N   0  0  0  0  0  0  0  0  0  0  0  0
  161.9240  213.7450  146.3500 C   0  0  0  0  0  0  0  0  0  0  0  0
  160.1680  211.6920  151.9260 C   0  0  2  0  0  3  0  0  0  0  0  0
  161.2810  211.9740  149.6780 C   0  0  0  0  0  0  0  0  0  0  0  0
  159.8470  214.3670  149.1860 C   0  0  0  0  0  3  0  0  0  0  0  0
  161.0040  214.4530  147.0500 N   0  0  0  0  0  0  0  0  0  0  0  0
  161.4490  212.6950  148.4960 C   0  0  0  0  0  0  0  0  0  0  0  0
  161.2570  210.7330  152.1340 N   0  0  0  0  0  2  0  0  0  0  0  0
  162.0500  210.7150  149.9570 C   0  0  0  0  0  2  0  0  0  0  0  0
  160.3970  212.4850  150.6540 C   0  0  0  0  0  0  0  0  0  0  0  0
  159.6680  213.6650  150.3870 C   0  0  0  0  0  3  0  0  0  0  0  0
  162.3730  214.1190  144.9820 C   0  0  0  0  0  2  0  0  0  0  0  0
  162.4870  212.9430  143.1170 C   0  0  0  0  0  1  0  0  0  0  0  0
  163.0420  213.0440  144.3970 O   0  0  0  0  0  0  0  0  0  0  0  0
  160.0700  212.5950  153.1450 C   0  0  0  0  0  2  0  0  0  0  0  0
  160.3310  211.7950  154.4080 C   0  0  0  0  0  2  0  0  0  0  0  0
  157.0740  212.6730  156.0500 C   0  0  0  0  0  3  0  0  0  0  0  0
  158.9800  211.0810  156.4290 C   0  0  0  0  0  0  0  0  0  0  0  0
  158.0920  212.7740  155.1010 C   0  0  0  0  0  3  0  0  0  0  0  0
  157.5160  211.4720  157.1490 S   0  0  0  0  0  0  0  0  0  0  0  0
  159.1570  211.8900  155.3200 C   0  0  0  0  0  0  0  0  0  0  0  0
  159.9010  210.0820  156.8780 N   0  0  0  0  0  2  0  0  0  0  0  0
  160.0750  207.6700  156.9970 C   0  0  0  0  0  1  0  0  0  0  0  0
  160.2120  208.8890  156.1040 C   0  0  2  0  0  3  0  0  0  0  0  0
  162.4520  209.6150  156.5090 O   0  0  0  0  0  1  0  0  0  0  0  0
  161.6340  208.9790  155.5750 C   0  0  0  0  0  2  0  0  0  0  0  0
  162.2330  208.8190  151.3230 C   0  0  0  0  0  2  0  0  0  0  0  0
  160.8500  205.4110  151.0370 N   0  0  0  0  0  0  0  0  0  0  0  0
  161.0460  207.3310  149.7160 C   0  0  0  0  0  3  0  0  0  0  0  0
  161.6040  207.5390  150.8950 C   0  0  0  0  0  0  0  0  0  0  0  0
  161.4620  206.3380  151.6900 C   0  0  0  0  0  0  0  0  0  0  0  0
  160.5000  205.9310  149.7160 C   0  0  1  0  0  3  0  0  0  0  0  0
  161.9640  206.1510  153.0790 C   0  0  0  0  0  1  0  0  0  0  0  0
  161.7650  205.5760  147.5060 C   0  0  0  0  0  3  0  0  0  0  0  0
  162.1770  204.5040  146.8160 N   0  0  0  0  0  0  0  0  0  0  0  0
  162.8800  204.5510  145.6060 N   0  0  0  0  0  1  0  0  0  0  0  0
  161.1290  205.1040  148.6390 C   0  0  0  0  0  0  0  0  0  0  0  0
  161.8330  203.3770  147.4650 C   0  0  0  0  0  3  0  0  0  0  0  0
  161.1610  203.7190  148.6280 C   0  0  0  0  0  3  0  0  0  0  0  0
  1  9  2  0  0  0  0
  1  7  1  0  0  0  0
  2  9  1  0  0  0  0
  3 29  1  0  0  0  0
  3 10  1  0  0  0  0
  4  8  2  0  0  0  0
  4  2  1  0  0  0  0
  5 10  1  0  0  0  0
  5 17  1  1  0  0  0
  6 11  1  0  0  0  0
  6 12  2  0  0  0  0
  7 13  2  0  0  0  0
  8  1  1  0  0  0  0
  9  6  1  0  0  0  0
 11  3  1  0  0  0  0
 12  5  1  0  0  0  0
 13 12  1  0  0  0  0
 14  4  1  0  0  0  0
 15 16  1  0  0  0  0
 16 14  1  0  0  0  0
 17 18  1  0  0  0  0
 18 23  1  0  0  0  0
 19 22  1  0  0  0  0
 20 24  1  0  0  0  0
 20 22  1  0  0  0  0
 21 23  1  0  0  0  0
 21 19  2  0  0  0  0
 23 20  2  0  0  0  0
 26 24  1  0  0  0  0
 26 25  1  1  0  0  0
 28 26  1  0  0  0  0
 28 27  1  0  0  0  0
 30 33  2  0  0  0  0
 31 32  2  0  0  0  0
 32 29  1  0  0  0  0
 32 33  1  0  0  0  0
 33 35  1  0  0  0  0
 34 39  1  6  0  0  0
 34 31  1  0  0  0  0
 34 30  1  0  0  0  0
 36 39  2  0  0  0  0
 37 40  1  0  0  0  0
 37 36  1  0  0  0  0
 38 37  1  0  0  0  0
 40 41  2  0  0  0  0
 41 39  1  0  0  0  0
M  END
>  <MODEL>
7

>  <REMARK>
 VINA RESULT:      -7.4      3.312      9.055
  Name = 
  11 active torsions:
  status: ('A' for Active; 'I' for Inactive)
    1  A    between atoms: N_8  and  C_35
    2  A    between atoms: C_9  and  C_15
    3  A    between atoms: C_12  and  C_29
    4  A    between atoms: C_14  and  N_33
    5  A    between atoms: C_15  and  O_31
    6  A    between atoms: C_17  and  C_35
    7  A    between atoms: CA_20  and  C_27
    8  A    between atoms: CA_20  and  N_33
    9  A    between atoms: C_21  and  C_29
   10  A    between atoms: C_21  and  C_37
   11  A    between atoms: C_22  and  C_38
                            x       y       z     vdW  Elec       q    Type
                         _______ _______ _______ _____ _____    ______ ____

>  <TORSDO>
F 11

$$$$
=
 OpenBabel11052412153D

 41 46  0  0  1  0  0  0  0  0999 V2000
  161.0810  213.6080  149.2460 C   0  0  0  0  0  0  0  0  0  0  0  0
  162.5740  212.2010  147.8120 S   0  0  0  0  0  0  0  0  0  0  0  0
  161.3920  209.1630  151.1160 N   0  0  0  0  0  0  0  0  0  0  0  0
  162.1730  213.7650  147.3040 C   0  0  0  0  0  0  0  0  0  0  0  0
  160.4090  210.7980  152.4490 C   0  0  2  0  0  3  0  0  0  0  0  0
  161.4700  211.4250  150.2460 C   0  0  0  0  0  0  0  0  0  0  0  0
  160.2630  213.9880  150.3100 C   0  0  0  0  0  3  0  0  0  0  0  0
  161.3520  214.3970  148.1760 N   0  0  0  0  0  0  0  0  0  0  0  0
  161.6690  212.3510  149.2220 C   0  0  0  0  0  0  0  0  0  0  0  0
  161.4050  209.7240  152.4080 N   0  0  0  0  0  2  0  0  0  0  0  0
  162.1210  210.0720  150.2310 C   0  0  0  0  0  2  0  0  0  0  0  0
  160.6730  211.8080  151.3480 C   0  0  0  0  0  0  0  0  0  0  0  0
  160.0550  213.0770  151.3570 C   0  0  0  0  0  3  0  0  0  0  0  0
  162.6120  214.3640  146.0150 C   0  0  0  0  0  2  0  0  0  0  0  0
  163.6150  213.4340  144.2820 C   0  0  0  0  0  1  0  0  0  0  0  0
  162.4010  213.4550  144.9780 O   0  0  0  0  0  0  0  0  0  0  0  0
  160.4410  211.4420  153.8260 C   0  0  0  0  0  2  0  0  0  0  0  0
  159.0700  211.3600  154.4710 C   0  0  0  0  0  2  0  0  0  0  0  0
  159.7240  213.7830  157.2590 C   0  0  0  0  0  3  0  0  0  0  0  0
  157.7870  213.0710  155.8290 C   0  0  0  0  0  0  0  0  0  0  0  0
  160.0390  212.7830  156.3380 C   0  0  0  0  0  3  0  0  0  0  0  0
  158.0920  214.1610  157.0670 S   0  0  0  0  0  0  0  0  0  0  0  0
  158.9540  212.3830  155.5480 C   0  0  0  0  0  0  0  0  0  0  0  0
  156.5330  212.8750  155.1660 N   0  0  0  0  0  2  0  0  0  0  0  0
  154.8150  213.1230  153.4780 C   0  0  0  0  0  1  0  0  0  0  0  0
  156.0760  213.7220  154.0740 C   0  0  2  0  0  3  0  0  0  0  0  0
  156.6540  214.4440  151.8710 O   0  0  0  0  0  1  0  0  0  0  0  0
  157.1550  213.8070  153.0070 C   0  0  0  0  0  2  0  0  0  0  0  0
  162.1620  207.9320  151.1860 C   0  0  0  0  0  2  0  0  0  0  0  0
  160.8190  204.8900  149.5870 N   0  0  0  0  0  0  0  0  0  0  0  0
  161.0330  207.1670  149.1010 C   0  0  0  0  0  3  0  0  0  0  0  0
  161.5560  206.9110  150.2860 C   0  0  0  0  0  0  0  0  0  0  0  0
  161.4040  205.4980  150.5610 C   0  0  0  0  0  0  0  0  0  0  0  0
  160.5000  205.8730  148.5530 C   0  0  1  0  0  3  0  0  0  0  0  0
  161.8700  204.7970  151.7890 C   0  0  0  0  0  1  0  0  0  0  0  0
  160.7590  205.8910  145.9950 C   0  0  0  0  0  3  0  0  0  0  0  0
  161.6330  205.3580  145.1310 N   0  0  0  0  0  0  0  0  0  0  0  0
  161.5820  205.5140  143.7410 N   0  0  0  0  0  1  0  0  0  0  0  0
  161.1670  205.5160  147.2610 C   0  0  0  0  0  0  0  0  0  0  0  0
  162.5760  204.6670  145.7950 C   0  0  0  0  0  3  0  0  0  0  0  0
  162.3100  204.7420  147.1530 C   0  0  0  0  0  3  0  0  0  0  0  0
  1  7  1  0  0  0  0
  2  9  1  0  0  0  0
  3 29  1  0  0  0  0
  3 10  1  0  0  0  0
  4  2  1  0  0  0  0
  4  8  2  0  0  0  0
  5 17  1  1  0  0  0
  6 12  2  0  0  0  0
  7 13  2  0  0  0  0
  8  1  1  0  0  0  0
  9  1  2  0  0  0  0
  9  6  1  0  0  0  0
 10  5  1  0  0  0  0
 11  6  1  0  0  0  0
 11  3  1  0  0  0  0
 12 13  1  0  0  0  0
 12  5  1  0  0  0  0
 14  4  1  0  0  0  0
 15 16  1  0  0  0  0
 16 14  1  0  0  0  0
 17 18  1  0  0  0  0
 18 23  1  0  0  0  0
 20 22  1  0  0  0  0
 21 19  2  0  0  0  0
 22 19  1  0  0  0  0
 23 20  2  0  0  0  0
 23 21  1  0  0  0  0
 24 20  1  0  0  0  0
 26 25  1  6  0  0  0
 26 24  1  0  0  0  0
 27 28  1  0  0  0  0
 28 26  1  0  0  0  0
 30 33  2  0  0  0  0
 31 32  2  0  0  0  0
 32 33  1  0  0  0  0
 32 29  1  0  0  0  0
 33 35  1  0  0  0  0
 34 39  1  6  0  0  0
 34 31  1  0  0  0  0
 34 30  1  0  0  0  0
 36 39  2  0  0  0  0
 37 40  1  0  0  0  0
 37 36  1  0  0  0  0
 38 37  1  0  0  0  0
 40 41  2  0  0  0  0
 41 39  1  0  0  0  0
M  END
>  <MODEL>
8

>  <REMARK>
 VINA RESULT:      -7.1      3.970      9.348
  Name = 
  11 active torsions:
  status: ('A' for Active; 'I' for Inactive)
    1  A    between atoms: N_8  and  C_35
    2  A    between atoms: C_9  and  C_15
    3  A    between atoms: C_12  and  C_29
    4  A    between atoms: C_14  and  N_33
    5  A    between atoms: C_15  and  O_31
    6  A    between atoms: C_17  and  C_35
    7  A    between atoms: CA_20  and  C_27
    8  A    between atoms: CA_20  and  N_33
    9  A    between atoms: C_21  and  C_29
   10  A    between atoms: C_21  and  C_37
   11  A    between atoms: C_22  and  C_38
                            x       y       z     vdW  Elec       q    Type
                         _______ _______ _______ _____ _____    ______ ____

>  <TORSDO>
F 11

$$$$
=
 OpenBabel11052412153D

 41 46  0  0  1  0  0  0  0  0999 V2000
  161.1470  208.1150  154.3190 C   0  0  0  0  0  0  0  0  0  0  0  0
  162.0710  210.4350  154.4860 S   0  0  0  0  0  0  0  0  0  0  0  0
  161.8610  209.8900  149.8820 N   0  0  0  0  0  0  0  0  0  0  0  0
  161.5890  209.6340  155.8970 C   0  0  0  0  0  0  0  0  0  0  0  0
  161.3990  207.6150  150.0430 C   0  0  2  0  0  3  0  0  0  0  0  0
  161.7470  208.9900  152.1310 C   0  0  0  0  0  0  0  0  0  0  0  0
  160.7120  206.9150  153.7590 C   0  0  0  0  0  3  0  0  0  0  0  0
  161.1010  208.3950  155.6460 N   0  0  0  0  0  0  0  0  0  0  0  0
  161.6530  209.1270  153.5150 C   0  0  0  0  0  0  0  0  0  0  0  0
  162.2940  208.6180  149.4590 N   0  0  0  0  0  2  0  0  0  0  0  0
  162.3120  210.0760  151.2610 C   0  0  0  0  0  2  0  0  0  0  0  0
  161.3450  207.7660  151.5510 C   0  0  0  0  0  0  0  0  0  0  0  0
  160.8060  206.7490  152.3690 C   0  0  0  0  0  3  0  0  0  0  0  0
  161.6280  210.2360  157.2570 C   0  0  0  0  0  2  0  0  0  0  0  0
  159.5860  211.0480  157.0520 C   0  0  0  0  0  1  0  0  0  0  0  0
  160.9140  211.4340  157.2610 O   0  0  0  0  0  0  0  0  0  0  0  0
  161.8780  206.2320  149.6300 C   0  0  0  0  0  2  0  0  0  0  0  0
  160.6990  205.3780  149.2030 C   0  0  0  0  0  2  0  0  0  0  0  0
  161.3040  202.3140  151.2810 C   0  0  0  0  0  3  0  0  0  0  0  0
  160.6590  202.8610  148.9170 C   0  0  0  0  0  0  0  0  0  0  0  0
  161.2310  203.6830  151.0180 C   0  0  0  0  0  3  0  0  0  0  0  0
  160.9180  201.4970  149.8580 S   0  0  0  0  0  0  0  0  0  0  0  0
  160.8780  203.9840  149.6960 C   0  0  0  0  0  0  0  0  0  0  0  0
  160.2740  202.8750  147.5380 N   0  0  0  0  0  2  0  0  0  0  0  0
  161.8010  203.9020  145.9640 C   0  0  0  0  0  1  0  0  0  0  0  0
  161.2060  202.5950  146.4550 C   0  0  2  0  0  3  0  0  0  0  0  0
  160.5940  200.5220  145.4380 O   0  0  0  0  0  1  0  0  0  0  0  0
  160.4740  201.9070  145.3160 C   0  0  0  0  0  2  0  0  0  0  0  0
  162.5690  210.8650  149.0690 C   0  0  0  0  0  2  0  0  0  0  0  0
  160.1080  213.6120  149.0260 N   0  0  0  0  0  0  0  0  0  0  0  0
  161.5820  212.5670  147.5420 C   0  0  0  0  0  3  0  0  0  0  0  0
  161.6560  211.9910  148.7280 C   0  0  0  0  0  0  0  0  0  0  0  0
  160.7390  212.6620  149.6240 C   0  0  0  0  0  0  0  0  0  0  0  0
  160.5740  213.6780  147.6420 C   0  0  1  0  0  3  0  0  0  0  0  0
  160.5100  212.3130  151.0540 C   0  0  0  0  0  1  0  0  0  0  0  0
  158.1730  214.0140  146.7880 C   0  0  0  0  0  3  0  0  0  0  0  0
  157.4730  213.5670  145.7370 N   0  0  0  0  0  0  0  0  0  0  0  0
  156.1430  213.9010  145.4580 N   0  0  0  0  0  1  0  0  0  0  0  0
  159.4380  213.4660  146.6910 C   0  0  0  0  0  0  0  0  0  0  0  0
  158.2410  212.7640  144.9790 C   0  0  0  0  0  3  0  0  0  0  0  0
  159.4980  212.6730  145.5570 C   0  0  0  0  0  3  0  0  0  0  0  0
  1  8  1  0  0  0  0
  2  4  1  0  0  0  0
  3 11  1  0  0  0  0
  4 14  1  0  0  0  0
  5 17  1  1  0  0  0
  5 12  1  0  0  0  0
  6  9  1  0  0  0  0
  7  1  1  0  0  0  0
  8  4  2  0  0  0  0
  9  1  2  0  0  0  0
  9  2  1  0  0  0  0
 10  3  1  0  0  0  0
 10  5  1  0  0  0  0
 11  6  1  0  0  0  0
 12  6  2  0  0  0  0
 12 13  1  0  0  0  0
 13  7  2  0  0  0  0
 14 16  1  0  0  0  0
 15 16  1  0  0  0  0
 18 17  1  0  0  0  0
 18 23  1  0  0  0  0
 20 23  2  0  0  0  0
 20 22  1  0  0  0  0
 21 19  2  0  0  0  0
 22 19  1  0  0  0  0
 23 21  1  0  0  0  0
 24 20  1  0  0  0  0
 26 25  1  6  0  0  0
 26 24  1  0  0  0  0
 28 27  1  0  0  0  0
 28 26  1  0  0  0  0
 29  3  1  0  0  0  0
 30 33  2  0  0  0  0
 31 34  1  0  0  0  0
 31 32  2  0  0  0  0
 32 29  1  0  0  0  0
 32 33  1  0  0  0  0
 33 35  1  0  0  0  0
 34 39  1  6  0  0  0
 34 30  1  0  0  0  0
 37 36  1  0  0  0  0
 38 37  1  0  0  0  0
 39 36  2  0  0  0  0
 40 41  2  0  0  0  0
 40 37  1  0  0  0  0
 41 39  1  0  0  0  0
M  END
>  <MODEL>
9

>  <REMARK>
 VINA RESULT:      -7.0      2.202      3.090
  Name = 
  11 active torsions:
  status: ('A' for Active; 'I' for Inactive)
    1  A    between atoms: N_8  and  C_35
    2  A    between atoms: C_9  and  C_15
    3  A    between atoms: C_12  and  C_29
    4  A    between atoms: C_14  and  N_33
    5  A    between atoms: C_15  and  O_31
    6  A    between atoms: C_17  and  C_35
    7  A    between atoms: CA_20  and  C_27
    8  A    between atoms: CA_20  and  N_33
    9  A    between atoms: C_21  and  C_29
   10  A    between atoms: C_21  and  C_37
   11  A    between atoms: C_22  and  C_38
                            x       y       z     vdW  Elec       q    Type
                         _______ _______ _______ _____ _____    ______ ____

>  <TORSDO>
F 11

$$$$
