=
 OpenBabel11042421103D

 28 29  0  0  1  0  0  0  0  0999 V2000
  161.9510  209.8280  150.7730 C   0  0  0  0  0  0  0  0  0  0  0  0
  161.3850  209.3430  153.1180 C   0  0  0  0  0  2  0  0  0  0  0  0
  160.7620  206.4160  150.8770 N   0  0  0  0  0  0  0  0  0  0  0  0
  162.2490  208.3650  150.6100 C   0  0  0  0  0  2  0  0  0  0  0  0
  160.7180  208.0280  152.6940 C   0  0  1  0  0  3  0  0  0  0  0  0
  161.5320  210.2830  151.9590 C   0  0  0  0  0  3  0  0  0  0  0  0
  161.2370  207.5310  151.3590 C   0  0  0  0  0  0  0  0  0  0  0  0
  161.3100  205.5180  147.4320 C   0  0  0  0  0  0  0  0  0  0  0  0
  161.5590  204.5260  149.5080 C   0  0  0  0  0  3  0  0  0  0  0  0
  160.9290  206.3970  148.3460 C   0  0  0  0  0  3  0  0  0  0  0  0
  161.7520  204.2290  148.0580 C   0  0  1  0  0  3  0  0  0  0  0  0
  161.0890  205.7600  149.6400 C   0  0  0  0  0  0  0  0  0  0  0  0
  160.8250  203.0970  147.6510 C   0  0  0  0  0  1  0  0  0  0  0  0
  162.4140  205.7370  145.3500 O   0  0  0  0  0  0  0  0  0  0  0  0
  161.3320  205.7990  145.9880 C   0  0  0  0  0  0  0  0  0  0  0  0
  160.1320  206.1420  145.3000 N   0  0  0  0  0  1  0  0  0  0  0  0
  160.7330  212.4690  150.2870 O   0  0  0  0  0  0  0  0  0  0  0  0
  162.1320  210.6960  149.6450 N   0  0  0  0  0  2  0  0  0  0  0  0
  161.5180  211.9740  149.4340 C   0  0  0  0  0  0  0  0  0  0  0  0
  161.8310  212.7280  148.1810 C   0  0  1  0  0  3  0  0  0  0  0  0
  163.2230  212.5170  147.8180 N   0  0  0  0  0  1  0  0  0  0  0  0
  161.3440  212.8790  145.8420 O   0  0  0  0  0  1  0  0  0  0  0  0
  160.9150  212.3020  147.0380 C   0  0  0  0  0  3  0  0  0  0  0  0
  159.6050  212.7100  147.2970 O   0  0  0  0  0  1  0  0  0  0  0  0
  160.9380  206.9990  153.7920 C   0  0  0  0  0  2  0  0  0  0  0  0
  161.1000  207.6370  155.0230 O   0  0  0  0  0  0  0  0  0  0  0  0
  160.3710  207.2710  157.2550 C   0  0  0  0  0  1  0  0  0  0  0  0
  160.0100  207.2150  155.7850 C   0  0  0  0  0  2  0  0  0  0  0  0
  1  6  2  0  0  0  0
  3  7  2  0  0  0  0
  4  1  1  0  0  0  0
  4  7  1  0  0  0  0
  5  2  1  0  0  0  0
  5 25  1  1  0  0  0
  6  2  1  0  0  0  0
  7  5  1  0  0  0  0
  8 11  1  0  0  0  0
  8 10  2  0  0  0  0
  9 12  2  0  0  0  0
 10 12  1  0  0  0  0
 11 13  1  6  0  0  0
 11  9  1  0  0  0  0
 12  3  1  0  0  0  0
 14 15  2  0  0  0  0
 15  8  1  0  0  0  0
 16 15  1  0  0  0  0
 18  1  1  0  0  0  0
 19 18  1  0  0  0  0
 19 17  2  0  0  0  0
 20 21  1  6  0  0  0
 20 19  1  0  0  0  0
 22 23  1  0  0  0  0
 23 24  1  0  0  0  0
 23 20  1  0  0  0  0
 25 26  1  0  0  0  0
 26 28  1  0  0  0  0
 28 27  1  0  0  0  0
M  END
>  <MODEL>
1

>  <REMARK>
 VINA RESULT:      -7.5      0.000      0.000
  Name = 
  8 active torsions:
  status: ('A' for Active; 'I' for Inactive)
    1  A    between atoms: C_1  and  C_15
    2  A    between atoms: O_2  and  C_10
    3  A    between atoms: O_2  and  C_22
    4  A    between atoms: CA_3  and  C_16
    5  A    between atoms: CA_3  and  C_27
    6  A    between atoms: C_5  and  N_26
    7  A    between atoms: C_10  and  C_19
    8  A    between atoms: N_12  and  C_23
                            x       y       z     vdW  Elec       q    Type
                         _______ _______ _______ _____ _____    ______ ____

>  <TORSDO>
F 8

$$$$
=
 OpenBabel11042421103D

 28 29  0  0  1  0  0  0  0  0999 V2000
  161.9670  209.3480  150.1880 C   0  0  0  0  0  0  0  0  0  0  0  0
  161.7940  209.1050  152.6310 C   0  0  0  0  0  2  0  0  0  0  0  0
  160.8320  205.9760  150.8250 N   0  0  0  0  0  0  0  0  0  0  0  0
  162.2440  207.8740  150.1260 C   0  0  0  0  0  2  0  0  0  0  0  0
  161.0750  207.7620  152.4540 C   0  0  1  0  0  3  0  0  0  0  0  0
  161.7440  209.9240  151.3760 C   0  0  0  0  0  2  0  0  0  0  0  0
  161.3730  207.1280  151.1100 C   0  0  0  0  0  0  0  0  0  0  0  0
  161.1000  203.3580  148.3650 C   0  0  0  0  0  0  0  0  0  0  0  0
  161.0960  205.6720  148.3920 C   0  0  0  0  0  3  0  0  0  0  0  0
  160.9560  203.7460  149.6230 C   0  0  0  0  0  3  0  0  0  0  0  0
  161.2070  204.5310  147.4370 C   0  0  1  0  0  3  0  0  0  0  0  0
  160.9580  205.1970  149.6230 C   0  0  0  0  0  0  0  0  0  0  0  0
  162.5750  204.5610  146.7770 C   0  0  0  0  0  1  0  0  0  0  0  0
  161.4300  201.0470  148.7560 O   0  0  0  0  0  0  0  0  0  0  0  0
  161.1080  201.9500  147.9400 C   0  0  0  0  0  0  0  0  0  0  0  0
  160.7540  201.5950  146.6070 N   0  0  0  0  0  1  0  0  0  0  0  0
  161.1760  212.1590  149.7750 O   0  0  0  0  0  0  0  0  0  0  0  0
  161.9570  210.0980  148.9650 N   0  0  0  0  0  0  0  0  0  0  0  0
  161.5580  211.4640  148.7960 C   0  0  0  0  0  0  0  0  0  0  0  0
  161.6120  212.0680  147.4290 C   0  0  1  0  0  3  0  0  0  0  0  0
  160.2820  212.5030  147.0320 N   0  0  0  0  0  1  0  0  0  0  0  0
  162.7280  213.6920  146.0700 O   0  0  0  0  0  1  0  0  0  0  0  0
  162.5880  213.2390  147.3820 C   0  0  0  0  0  3  0  0  0  0  0  0
  163.8370  212.8410  147.8620 O   0  0  0  0  0  1  0  0  0  0  0  0
  161.4780  206.8450  153.6000 C   0  0  0  0  0  2  0  0  0  0  0  0
  160.4000  206.6560  154.4660 O   0  0  0  0  0  0  0  0  0  0  0  0
  160.0360  207.0530  156.7800 C   0  0  0  0  0  1  0  0  0  0  0  0
  160.5930  207.5940  155.4800 C   0  0  0  0  0  2  0  0  0  0  0  0
  1  6  1  0  0  0  0
  3  7  2  0  0  0  0
  4  1  1  0  0  0  0
  4  7  1  0  0  0  0
  5  2  1  0  0  0  0
  5 25  1  1  0  0  0
  6  2  1  0  0  0  0
  7  5  1  0  0  0  0
  8 10  2  0  0  0  0
  9 12  2  0  0  0  0
 10 12  1  0  0  0  0
 11 13  1  1  0  0  0
 11  8  1  0  0  0  0
 11  9  1  0  0  0  0
 12  3  1  0  0  0  0
 15  8  1  0  0  0  0
 15 14  2  0  0  0  0
 16 15  1  0  0  0  0
 18  1  2  0  0  0  0
 19 18  1  0  0  0  0
 19 17  2  0  0  0  0
 20 21  1  1  0  0  0
 20 19  1  0  0  0  0
 22 23  1  0  0  0  0
 23 20  1  0  0  0  0
 23 24  1  0  0  0  0
 25 26  1  0  0  0  0
 26 28  1  0  0  0  0
 28 27  1  0  0  0  0
M  END
>  <MODEL>
2

>  <REMARK>
 VINA RESULT:      -7.5      1.858      2.260
  Name = 
  8 active torsions:
  status: ('A' for Active; 'I' for Inactive)
    1  A    between atoms: C_1  and  C_15
    2  A    between atoms: O_2  and  C_10
    3  A    between atoms: O_2  and  C_22
    4  A    between atoms: CA_3  and  C_16
    5  A    between atoms: CA_3  and  C_27
    6  A    between atoms: C_5  and  N_26
    7  A    between atoms: C_10  and  C_19
    8  A    between atoms: N_12  and  C_23
                            x       y       z     vdW  Elec       q    Type
                         _______ _______ _______ _____ _____    ______ ____

>  <TORSDO>
F 8

$$$$
=
 OpenBabel11042421103D

 28 29  0  0  1  0  0  0  0  0999 V2000
  162.0110  209.8160  150.5840 C   0  0  0  0  0  0  0  0  0  0  0  0
  161.6550  209.3560  152.9750 C   0  0  0  0  0  2  0  0  0  0  0  0
  160.7010  206.4550  150.8170 N   0  0  0  0  0  0  0  0  0  0  0  0
  162.2330  208.3420  150.4000 C   0  0  0  0  0  2  0  0  0  0  0  0
  160.8980  208.0690  152.6220 C   0  0  1  0  0  3  0  0  0  0  0  0
  161.7270  210.2880  151.8030 C   0  0  0  0  0  3  0  0  0  0  0  0
  161.2650  207.5500  151.2470 C   0  0  0  0  0  0  0  0  0  0  0  0
  161.1290  204.0680  148.1540 C   0  0  0  0  0  0  0  0  0  0  0  0
  161.0150  206.3680  148.3720 C   0  0  0  0  0  3  0  0  0  0  0  0
  160.9480  204.3420  149.4370 C   0  0  0  0  0  3  0  0  0  0  0  0
  161.1940  205.3170  147.3280 C   0  0  1  0  0  3  0  0  0  0  0  0
  160.8820  205.7860  149.5570 C   0  0  0  0  0  0  0  0  0  0  0  0
  162.5680  205.4650  146.6990 C   0  0  0  0  0  1  0  0  0  0  0  0
  161.1650  202.5100  146.3720 O   0  0  0  0  0  0  0  0  0  0  0  0
  161.2100  202.7010  147.6150 C   0  0  0  0  0  0  0  0  0  0  0  0
  161.3410  201.5850  148.4910 N   0  0  0  0  0  1  0  0  0  0  0  0
  160.8190  212.4840  150.1870 O   0  0  0  0  0  0  0  0  0  0  0  0
  162.1180  210.6760  149.4400 N   0  0  0  0  0  2  0  0  0  0  0  0
  161.5180  211.9670  149.2740 C   0  0  0  0  0  0  0  0  0  0  0  0
  161.7430  212.7090  147.9960 C   0  0  1  0  0  3  0  0  0  0  0  0
  163.1180  212.5270  147.5590 N   0  0  0  0  0  1  0  0  0  0  0  0
  161.1490  212.7790  145.6780 O   0  0  0  0  0  1  0  0  0  0  0  0
  160.7760  212.2430  146.9110 C   0  0  0  0  0  3  0  0  0  0  0  0
  159.4790  212.6580  147.2150 O   0  0  0  0  0  1  0  0  0  0  0  0
  161.1810  207.0320  153.6990 C   0  0  0  0  0  2  0  0  0  0  0  0
  161.2350  207.6440  154.9530 O   0  0  0  0  0  0  0  0  0  0  0  0
  160.3100  207.3590  157.1230 C   0  0  0  0  0  1  0  0  0  0  0  0
  160.1230  207.1490  155.6340 C   0  0  0  0  0  2  0  0  0  0  0  0
  1  6  2  0  0  0  0
  3  7  2  0  0  0  0
  4  1  1  0  0  0  0
  4  7  1  0  0  0  0
  5  2  1  0  0  0  0
  5 25  1  1  0  0  0
  6  2  1  0  0  0  0
  7  5  1  0  0  0  0
  8 10  2  0  0  0  0
  9 12  2  0  0  0  0
 10 12  1  0  0  0  0
 11 13  1  1  0  0  0
 11  8  1  0  0  0  0
 11  9  1  0  0  0  0
 12  3  1  0  0  0  0
 14 15  2  0  0  0  0
 15  8  1  0  0  0  0
 15 16  1  0  0  0  0
 18  1  1  0  0  0  0
 19 18  1  0  0  0  0
 19 17  2  0  0  0  0
 20 21  1  6  0  0  0
 20 19  1  0  0  0  0
 22 23  1  0  0  0  0
 23 24  1  0  0  0  0
 23 20  1  0  0  0  0
 25 26  1  0  0  0  0
 26 28  1  0  0  0  0
 28 27  1  0  0  0  0
M  END
>  <MODEL>
3

>  <REMARK>
 VINA RESULT:      -7.4      1.309      1.724
  Name = 
  8 active torsions:
  status: ('A' for Active; 'I' for Inactive)
    1  A    between atoms: C_1  and  C_15
    2  A    between atoms: O_2  and  C_10
    3  A    between atoms: O_2  and  C_22
    4  A    between atoms: CA_3  and  C_16
    5  A    between atoms: CA_3  and  C_27
    6  A    between atoms: C_5  and  N_26
    7  A    between atoms: C_10  and  C_19
    8  A    between atoms: N_12  and  C_23
                            x       y       z     vdW  Elec       q    Type
                         _______ _______ _______ _____ _____    ______ ____

>  <TORSDO>
F 8

$$$$
=
 OpenBabel11042421103D

 28 29  0  0  1  0  0  0  0  0999 V2000
  162.1820  207.8690  149.0170 C   0  0  0  0  0  0  0  0  0  0  0  0
  161.9870  208.1390  151.4560 C   0  0  0  0  0  2  0  0  0  0  0  0
  162.2020  211.4220  149.6790 N   0  0  0  0  0  0  0  0  0  0  0  0
  161.4970  209.1980  148.8800 C   0  0  0  0  0  2  0  0  0  0  0  0
  162.2990  209.6350  151.3220 C   0  0  1  0  0  3  0  0  0  0  0  0
  162.4210  207.3780  150.2390 C   0  0  0  0  0  3  0  0  0  0  0  0
  161.9910  210.1610  149.9350 C   0  0  0  0  0  0  0  0  0  0  0  0
  160.9280  212.7990  146.6040 C   0  0  0  0  0  0  0  0  0  0  0  0
  162.8610  212.9600  147.8670 C   0  0  0  0  0  3  0  0  0  0  0  0
  160.7780  212.0260  147.6700 C   0  0  0  0  0  3  0  0  0  0  0  0
  162.2640  213.4800  146.6020 C   0  0  1  0  0  3  0  0  0  0  0  0
  161.9980  212.1370  148.4490 C   0  0  0  0  0  0  0  0  0  0  0  0
  163.0980  213.0070  145.4240 C   0  0  0  0  0  1  0  0  0  0  0  0
  159.6630  212.0850  144.7350 O   0  0  0  0  0  0  0  0  0  0  0  0
  159.8890  212.9890  145.5810 C   0  0  0  0  0  0  0  0  0  0  0  0
  159.1300  214.1940  145.5370 N   0  0  0  0  0  1  0  0  0  0  0  0
  160.4810  206.2100  147.2690 O   0  0  0  0  0  0  0  0  0  0  0  0
  162.5550  207.1620  147.8260 N   0  0  0  0  0  2  0  0  0  0  0  0
  161.7040  206.3550  147.0010 C   0  0  0  0  0  0  0  0  0  0  0  0
  162.2870  205.6900  145.7960 C   0  0  1  0  0  3  0  0  0  0  0  0
  163.2780  204.7090  146.2080 N   0  0  0  0  0  1  0  0  0  0  0  0
  161.2580  203.6390  145.1130 O   0  0  0  0  0  1  0  0  0  0  0  0
  161.2020  205.0250  144.9550 C   0  0  0  0  0  3  0  0  0  0  0  0
  161.3820  205.3370  143.6060 O   0  0  0  0  0  1  0  0  0  0  0  0
  161.5150  210.3880  152.3870 C   0  0  0  0  0  2  0  0  0  0  0  0
  160.1640  210.0420  152.3230 O   0  0  0  0  0  0  0  0  0  0  0  0
  159.6450  212.3500  152.0970 C   0  0  0  0  0  1  0  0  0  0  0  0
  159.5000  211.1020  152.9430 C   0  0  0  0  0  2  0  0  0  0  0  0
  1  6  2  0  0  0  0
  3  7  2  0  0  0  0
  4  1  1  0  0  0  0
  4  7  1  0  0  0  0
  5  2  1  0  0  0  0
  5 25  1  1  0  0  0
  6  2  1  0  0  0  0
  7  5  1  0  0  0  0
  8 10  2  0  0  0  0
  9 12  2  0  0  0  0
 10 12  1  0  0  0  0
 11 13  1  6  0  0  0
 11  8  1  0  0  0  0
 11  9  1  0  0  0  0
 12  3  1  0  0  0  0
 14 15  2  0  0  0  0
 15  8  1  0  0  0  0
 16 15  1  0  0  0  0
 18  1  1  0  0  0  0
 19 17  2  0  0  0  0
 19 18  1  0  0  0  0
 20 21  1  1  0  0  0
 20 19  1  0  0  0  0
 23 22  1  0  0  0  0
 23 20  1  0  0  0  0
 24 23  1  0  0  0  0
 26 25  1  0  0  0  0
 26 28  1  0  0  0  0
 27 28  1  0  0  0  0
M  END
>  <MODEL>
4

>  <REMARK>
 VINA RESULT:      -7.0      2.552      6.495
  Name = 
  8 active torsions:
  status: ('A' for Active; 'I' for Inactive)
    1  A    between atoms: C_1  and  C_15
    2  A    between atoms: O_2  and  C_10
    3  A    between atoms: O_2  and  C_22
    4  A    between atoms: CA_3  and  C_16
    5  A    between atoms: CA_3  and  C_27
    6  A    between atoms: C_5  and  N_26
    7  A    between atoms: C_10  and  C_19
    8  A    between atoms: N_12  and  C_23
                            x       y       z     vdW  Elec       q    Type
                         _______ _______ _______ _____ _____    ______ ____

>  <TORSDO>
F 8

$$$$
=
 OpenBabel11042421103D

 28 29  0  0  1  0  0  0  0  0999 V2000
  161.9670  210.1440  149.9180 C   0  0  0  0  0  0  0  0  0  0  0  0
  161.6340  209.7330  152.3220 C   0  0  0  0  0  2  0  0  0  0  0  0
  160.6290  206.8010  150.2300 N   0  0  0  0  0  0  0  0  0  0  0  0
  162.1740  208.6650  149.7600 C   0  0  0  0  0  2  0  0  0  0  0  0
  160.8620  208.4470  152.0020 C   0  0  1  0  0  3  0  0  0  0  0  0
  161.7010  210.6420  151.1310 C   0  0  0  0  0  3  0  0  0  0  0  0
  161.2080  207.8980  150.6320 C   0  0  0  0  0  0  0  0  0  0  0  0
  161.0730  204.3640  147.6140 C   0  0  0  0  0  0  0  0  0  0  0  0
  160.8290  206.6600  147.7760 C   0  0  0  0  0  3  0  0  0  0  0  0
  160.9390  204.6650  148.8970 C   0  0  0  0  0  3  0  0  0  0  0  0
  161.0210  205.5900  146.7530 C   0  0  1  0  0  3  0  0  0  0  0  0
  160.7890  206.1060  148.9810 C   0  0  0  0  0  0  0  0  0  0  0  0
  162.3510  205.8020  146.0510 C   0  0  0  0  0  1  0  0  0  0  0  0
  161.3410  202.0310  147.9140 O   0  0  0  0  0  0  0  0  0  0  0  0
  161.2120  202.9900  147.1080 C   0  0  0  0  0  0  0  0  0  0  0  0
  161.2020  202.7310  145.7070 N   0  0  0  0  0  1  0  0  0  0  0  0
  160.8460  212.8410  149.5070 O   0  0  0  0  0  0  0  0  0  0  0  0
  162.0680  210.9810  148.7570 N   0  0  0  0  0  2  0  0  0  0  0  0
  161.5030  212.2870  148.5850 C   0  0  0  0  0  0  0  0  0  0  0  0
  161.7160  213.0000  147.2880 C   0  0  1  0  0  3  0  0  0  0  0  0
  163.0940  212.8340  146.8570 N   0  0  0  0  0  1  0  0  0  0  0  0
  161.0820  213.0530  144.9800 O   0  0  0  0  0  1  0  0  0  0  0  0
  160.7600  212.4880  146.2150 C   0  0  0  0  0  3  0  0  0  0  0  0
  159.4460  212.8260  146.5420 O   0  0  0  0  0  1  0  0  0  0  0  0
  161.1480  207.4280  153.0950 C   0  0  0  0  0  2  0  0  0  0  0  0
  162.0060  206.4360  152.6160 O   0  0  0  0  0  0  0  0  0  0  0  0
  161.1230  204.2500  152.3230 C   0  0  0  0  0  1  0  0  0  0  0  0
  161.6320  205.2830  153.3070 C   0  0  0  0  0  2  0  0  0  0  0  0
  1  6  2  0  0  0  0
  3  7  2  0  0  0  0
  4  1  1  0  0  0  0
  4  7  1  0  0  0  0
  5  2  1  0  0  0  0
  5 25  1  1  0  0  0
  6  2  1  0  0  0  0
  7  5  1  0  0  0  0
  8 10  2  0  0  0  0
  9 12  2  0  0  0  0
 10 12  1  0  0  0  0
 11 13  1  1  0  0  0
 11  8  1  0  0  0  0
 11  9  1  0  0  0  0
 12  3  1  0  0  0  0
 15  8  1  0  0  0  0
 15 14  2  0  0  0  0
 16 15  1  0  0  0  0
 18  1  1  0  0  0  0
 19 18  1  0  0  0  0
 19 17  2  0  0  0  0
 20 21  1  6  0  0  0
 20 19  1  0  0  0  0
 22 23  1  0  0  0  0
 23 24  1  0  0  0  0
 23 20  1  0  0  0  0
 26 25  1  0  0  0  0
 26 28  1  0  0  0  0
 27 28  1  0  0  0  0
M  END
>  <MODEL>
5

>  <REMARK>
 VINA RESULT:      -6.8      1.742      2.240
  Name = 
  8 active torsions:
  status: ('A' for Active; 'I' for Inactive)
    1  A    between atoms: C_1  and  C_15
    2  A    between atoms: O_2  and  C_10
    3  A    between atoms: O_2  and  C_22
    4  A    between atoms: CA_3  and  C_16
    5  A    between atoms: CA_3  and  C_27
    6  A    between atoms: C_5  and  N_26
    7  A    between atoms: C_10  and  C_19
    8  A    between atoms: N_12  and  C_23
                            x       y       z     vdW  Elec       q    Type
                         _______ _______ _______ _____ _____    ______ ____

>  <TORSDO>
F 8

$$$$
=
 OpenBabel11042421103D

 28 29  0  0  1  0  0  0  0  0999 V2000
  161.4220  207.8450  148.8130 C   0  0  0  0  0  0  0  0  0  0  0  0
  161.4700  205.4440  148.2730 C   0  0  0  0  0  2  0  0  0  0  0  0
  161.4630  206.0670  151.9600 N   0  0  0  0  0  0  0  0  0  0  0  0
  160.7100  207.4780  150.0830 C   0  0  0  0  0  2  0  0  0  0  0  0
  161.7480  205.1110  149.7440 C   0  0  1  0  0  3  0  0  0  0  0  0
  161.7890  206.8770  147.9650 C   0  0  0  0  0  3  0  0  0  0  0  0
  161.2950  206.2180  150.6750 C   0  0  0  0  0  0  0  0  0  0  0  0
  160.7670  208.9400  154.0170 C   0  0  0  0  0  0  0  0  0  0  0  0
  160.8100  206.6400  154.2680 C   0  0  0  0  0  3  0  0  0  0  0  0
  161.1020  208.4140  152.8480 C   0  0  0  0  0  3  0  0  0  0  0  0
  160.5440  207.8810  155.0540 C   0  0  1  0  0  3  0  0  0  0  0  0
  161.1270  206.9740  153.0230 C   0  0  0  0  0  0  0  0  0  0  0  0
  161.5740  208.0000  156.1640 C   0  0  0  0  0  1  0  0  0  0  0  0
  161.5710  211.0800  154.6320 O   0  0  0  0  0  0  0  0  0  0  0  0
  160.5970  210.3840  154.2440 C   0  0  0  0  0  0  0  0  0  0  0  0
  159.3330  211.0060  154.0280 N   0  0  0  0  0  1  0  0  0  0  0  0
  162.4050  209.9110  150.6730 O   0  0  0  0  0  0  0  0  0  0  0  0
  161.6820  209.2300  148.5450 N   0  0  0  0  0  2  0  0  0  0  0  0
  162.1530  210.2130  149.4760 C   0  0  0  0  0  0  0  0  0  0  0  0
  162.3570  211.6170  149.0010 C   0  0  1  0  0  3  0  0  0  0  0  0
  163.2940  211.6270  147.8900 N   0  0  0  0  0  1  0  0  0  0  0  0
  160.9400  212.2910  147.1940 O   0  0  0  0  0  1  0  0  0  0  0  0
  161.0360  212.2550  148.5860 C   0  0  0  0  0  3  0  0  0  0  0  0
  160.9560  213.5580  149.0820 O   0  0  0  0  0  1  0  0  0  0  0  0
  161.0650  203.7930  150.0770 C   0  0  0  0  0  2  0  0  0  0  0  0
  160.6090  203.1790  148.9100 O   0  0  0  0  0  0  0  0  0  0  0  0
  161.2230  200.8880  148.7690 C   0  0  0  0  0  1  0  0  0  0  0  0
  160.2310  201.8970  149.3110 C   0  0  0  0  0  2  0  0  0  0  0  0
  1  4  1  0  0  0  0
  2  5  1  0  0  0  0
  3 12  1  0  0  0  0
  4  7  1  0  0  0  0
  5 25  1  1  0  0  0
  5  7  1  0  0  0  0
  6  2  1  0  0  0  0
  6  1  2  0  0  0  0
  7  3  2  0  0  0  0
  8 15  1  0  0  0  0
  8 11  1  0  0  0  0
  9 11  1  0  0  0  0
 10 12  1  0  0  0  0
 10  8  2  0  0  0  0
 11 13  1  1  0  0  0
 12  9  2  0  0  0  0
 15 14  2  0  0  0  0
 16 15  1  0  0  0  0
 18  1  1  0  0  0  0
 18 19  1  0  0  0  0
 19 17  2  0  0  0  0
 20 21  1  6  0  0  0
 20 19  1  0  0  0  0
 22 23  1  0  0  0  0
 23 20  1  0  0  0  0
 23 24  1  0  0  0  0
 26 28  1  0  0  0  0
 26 25  1  0  0  0  0
 27 28  1  0  0  0  0
M  END
>  <MODEL>
6

>  <REMARK>
 VINA RESULT:      -6.7      2.037      5.923
  Name = 
  8 active torsions:
  status: ('A' for Active; 'I' for Inactive)
    1  A    between atoms: C_1  and  C_15
    2  A    between atoms: O_2  and  C_10
    3  A    between atoms: O_2  and  C_22
    4  A    between atoms: CA_3  and  C_16
    5  A    between atoms: CA_3  and  C_27
    6  A    between atoms: C_5  and  N_26
    7  A    between atoms: C_10  and  C_19
    8  A    between atoms: N_12  and  C_23
                            x       y       z     vdW  Elec       q    Type
                         _______ _______ _______ _____ _____    ______ ____

>  <TORSDO>
F 8

$$$$
=
 OpenBabel11042421103D

 28 29  0  0  1  0  0  0  0  0999 V2000
  161.4830  207.9740  148.5850 C   0  0  0  0  0  0  0  0  0  0  0  0
  161.4760  205.5560  148.1220 C   0  0  0  0  0  2  0  0  0  0  0  0
  161.6660  206.2970  151.7820 N   0  0  0  0  0  0  0  0  0  0  0  0
  160.8330  207.6580  149.9010 C   0  0  0  0  0  2  0  0  0  0  0  0
  161.8250  205.2670  149.5870 C   0  0  1  0  0  3  0  0  0  0  0  0
  161.7960  206.9740  147.7520 C   0  0  0  0  0  3  0  0  0  0  0  0
  161.4330  206.4090  150.5030 C   0  0  0  0  0  0  0  0  0  0  0  0
  160.7160  207.9600  154.8330 C   0  0  0  0  0  0  0  0  0  0  0  0
  161.5880  208.5540  152.7740 C   0  0  0  0  0  3  0  0  0  0  0  0
  160.8500  206.8530  154.1180 C   0  0  0  0  0  3  0  0  0  0  0  0
  161.1660  209.1680  154.0670 C   0  0  1  0  0  3  0  0  0  0  0  0
  161.3950  207.2420  152.8310 C   0  0  0  0  0  0  0  0  0  0  0  0
  159.9970  210.1040  153.8180 C   0  0  0  0  0  1  0  0  0  0  0  0
  159.7060  206.9520  156.7220 O   0  0  0  0  0  0  0  0  0  0  0  0
  160.2260  207.9820  156.2200 C   0  0  0  0  0  0  0  0  0  0  0  0
  160.3350  209.1660  157.0060 N   0  0  0  0  0  1  0  0  0  0  0  0
  162.2460  210.1690  150.4010 O   0  0  0  0  0  0  0  0  0  0  0  0
  161.7450  209.3460  148.2590 N   0  0  0  0  0  2  0  0  0  0  0  0
  162.1070  210.3930  149.1690 C   0  0  0  0  0  0  0  0  0  0  0  0
  162.3330  211.7700  148.6310 C   0  0  1  0  0  3  0  0  0  0  0  0
  163.5880  211.8110  147.8990 N   0  0  0  0  0  1  0  0  0  0  0  0
  161.6800  212.7740  146.5590 O   0  0  0  0  0  1  0  0  0  0  0  0
  161.1810  212.2060  147.7320 C   0  0  0  0  0  3  0  0  0  0  0  0
  160.3870  213.1460  148.3910 O   0  0  0  0  0  1  0  0  0  0  0  0
  161.1460  203.9700  149.9980 C   0  0  0  0  0  2  0  0  0  0  0  0
  160.8290  203.2140  148.8680 O   0  0  0  0  0  0  0  0  0  0  0  0
  161.2040  200.9360  148.3050 C   0  0  0  0  0  1  0  0  0  0  0  0
  160.6880  201.9100  149.3440 C   0  0  0  0  0  2  0  0  0  0  0  0
  1  4  1  0  0  0  0
  2  5  1  0  0  0  0
  3 12  1  0  0  0  0
  4  7  1  0  0  0  0
  5 25  1  1  0  0  0
  5  7  1  0  0  0  0
  6  2  1  0  0  0  0
  6  1  2  0  0  0  0
  7  3  2  0  0  0  0
  8 15  1  0  0  0  0
  9 12  2  0  0  0  0
  9 11  1  0  0  0  0
 10  8  2  0  0  0  0
 11 13  1  6  0  0  0
 11  8  1  0  0  0  0
 12 10  1  0  0  0  0
 15 14  2  0  0  0  0
 15 16  1  0  0  0  0
 18  1  1  0  0  0  0
 18 19  1  0  0  0  0
 19 17  2  0  0  0  0
 20 21  1  6  0  0  0
 20 19  1  0  0  0  0
 22 23  1  0  0  0  0
 23 24  1  0  0  0  0
 23 20  1  0  0  0  0
 26 28  1  0  0  0  0
 26 25  1  0  0  0  0
 27 28  1  0  0  0  0
M  END
>  <MODEL>
7

>  <REMARK>
 VINA RESULT:      -6.6      2.080      6.185
  Name = 
  8 active torsions:
  status: ('A' for Active; 'I' for Inactive)
    1  A    between atoms: C_1  and  C_15
    2  A    between atoms: O_2  and  C_10
    3  A    between atoms: O_2  and  C_22
    4  A    between atoms: CA_3  and  C_16
    5  A    between atoms: CA_3  and  C_27
    6  A    between atoms: C_5  and  N_26
    7  A    between atoms: C_10  and  C_19
    8  A    between atoms: N_12  and  C_23
                            x       y       z     vdW  Elec       q    Type
                         _______ _______ _______ _____ _____    ______ ____

>  <TORSDO>
F 8

$$$$
=
 OpenBabel11042421103D

 28 29  0  0  1  0  0  0  0  0999 V2000
  161.6290  207.1350  150.0050 C   0  0  0  0  0  0  0  0  0  0  0  0
  162.1060  208.9610  148.4240 C   0  0  0  0  0  2  0  0  0  0  0  0
  161.4420  210.2180  151.8830 N   0  0  0  0  0  0  0  0  0  0  0  0
  162.1970  208.0100  151.0850 C   0  0  0  0  0  2  0  0  0  0  0  0
  161.6750  209.9920  149.4750 C   0  0  1  0  0  3  0  0  0  0  0  0
  161.5780  207.5950  148.7490 C   0  0  0  0  0  3  0  0  0  0  0  0
  161.7720  209.4450  150.8850 C   0  0  0  0  0  0  0  0  0  0  0  0
  160.9310  208.8140  155.1600 C   0  0  0  0  0  0  0  0  0  0  0  0
  162.0610  210.6100  154.2380 C   0  0  0  0  0  3  0  0  0  0  0  0
  160.7290  208.7870  153.8510 C   0  0  0  0  0  3  0  0  0  0  0  0
  161.7960  209.9710  155.5600 C   0  0  1  0  0  3  0  0  0  0  0  0
  161.4420  209.9190  153.2890 C   0  0  0  0  0  0  0  0  0  0  0  0
  161.0170  210.9380  156.4350 C   0  0  0  0  0  1  0  0  0  0  0  0
  159.2970  207.2470  155.8530 O   0  0  0  0  0  0  0  0  0  0  0  0
  160.4010  207.8040  156.0890 C   0  0  0  0  0  0  0  0  0  0  0  0
  161.1290  207.4460  157.2600 N   0  0  0  0  0  1  0  0  0  0  0  0
  161.4770  204.7340  148.2990 O   0  0  0  0  0  0  0  0  0  0  0  0
  161.1620  205.8250  150.3550 N   0  0  0  0  0  2  0  0  0  0  0  0
  161.0920  204.6770  149.4990 C   0  0  0  0  0  0  0  0  0  0  0  0
  160.5650  203.3930  150.0540 C   0  0  1  0  0  3  0  0  0  0  0  0
  160.6350  202.3550  149.0380 N   0  0  0  0  0  1  0  0  0  0  0  0
  161.5860  201.5970  151.2630 O   0  0  0  0  0  1  0  0  0  0  0  0
  161.3400  202.9710  151.2980 C   0  0  0  0  0  3  0  0  0  0  0  0
  160.6070  203.2740  152.4460 O   0  0  0  0  0  1  0  0  0  0  0  0
  162.5310  211.2390  149.3050 C   0  0  0  0  0  2  0  0  0  0  0  0
  162.4040  211.7360  148.0070 O   0  0  0  0  0  0  0  0  0  0  0  0
  160.4270  212.3330  146.8320 C   0  0  0  0  0  1  0  0  0  0  0  0
  161.2870  212.5700  148.0570 C   0  0  0  0  0  2  0  0  0  0  0  0
  1 18  1  0  0  0  0
  1  4  1  0  0  0  0
  2  6  1  0  0  0  0
  2  5  1  0  0  0  0
  3 12  1  0  0  0  0
  5 25  1  1  0  0  0
  5  7  1  0  0  0  0
  6  1  2  0  0  0  0
  7  4  1  0  0  0  0
  7  3  2  0  0  0  0
  8 11  1  0  0  0  0
  8 15  1  0  0  0  0
  9 11  1  0  0  0  0
 10  8  2  0  0  0  0
 11 13  1  1  0  0  0
 12 10  1  0  0  0  0
 12  9  2  0  0  0  0
 14 15  2  0  0  0  0
 15 16  1  0  0  0  0
 17 19  2  0  0  0  0
 19 20  1  0  0  0  0
 19 18  1  0  0  0  0
 20 21  1  6  0  0  0
 20 23  1  0  0  0  0
 22 23  1  0  0  0  0
 23 24  1  0  0  0  0
 26 28  1  0  0  0  0
 26 25  1  0  0  0  0
 27 28  1  0  0  0  0
M  END
>  <MODEL>
8

>  <REMARK>
 VINA RESULT:      -6.2      2.795      8.328
  Name = 
  8 active torsions:
  status: ('A' for Active; 'I' for Inactive)
    1  A    between atoms: C_1  and  C_15
    2  A    between atoms: O_2  and  C_10
    3  A    between atoms: O_2  and  C_22
    4  A    between atoms: CA_3  and  C_16
    5  A    between atoms: CA_3  and  C_27
    6  A    between atoms: C_5  and  N_26
    7  A    between atoms: C_10  and  C_19
    8  A    between atoms: N_12  and  C_23
                            x       y       z     vdW  Elec       q    Type
                         _______ _______ _______ _____ _____    ______ ____

>  <TORSDO>
F 8

$$$$
=
 OpenBabel11042421103D

 28 29  0  0  1  0  0  0  0  0999 V2000
  161.4150  205.8360  150.3690 C   0  0  0  0  0  0  0  0  0  0  0  0
  161.1410  205.1910  152.7290 C   0  0  0  0  0  2  0  0  0  0  0  0
  161.7090  208.8640  152.3210 N   0  0  0  0  0  0  0  0  0  0  0  0
  160.8520  207.1780  150.7380 C   0  0  0  0  0  2  0  0  0  0  0  0
  161.5840  206.5910  153.1710 C   0  0  1  0  0  3  0  0  0  0  0  0
  161.5600  204.9030  151.3180 C   0  0  0  0  0  3  0  0  0  0  0  0
  161.3800  207.6240  152.0810 C   0  0  0  0  0  0  0  0  0  0  0  0
  160.8380  211.9440  150.6690 C   0  0  0  0  0  0  0  0  0  0  0  0
  162.3630  210.2290  150.3740 C   0  0  0  0  0  3  0  0  0  0  0  0
  160.6560  211.0710  151.6490 C   0  0  0  0  0  3  0  0  0  0  0  0
  161.9380  211.5140  149.7450 C   0  0  1  0  0  3  0  0  0  0  0  0
  161.6180  210.0030  151.4480 C   0  0  0  0  0  0  0  0  0  0  0  0
  161.3870  211.2340  148.3580 C   0  0  0  0  0  1  0  0  0  0  0  0
  160.3450  214.0050  149.6140 O   0  0  0  0  0  0  0  0  0  0  0  0
  160.0760  213.1960  150.5390 C   0  0  0  0  0  0  0  0  0  0  0  0
  159.0290  213.5030  151.4560 N   0  0  0  0  0  1  0  0  0  0  0  0
  160.8350  203.4610  148.7190 O   0  0  0  0  0  0  0  0  0  0  0  0
  161.7760  205.5940  149.0020 N   0  0  0  0  0  2  0  0  0  0  0  0
  161.4860  204.4230  148.2280 C   0  0  0  0  0  0  0  0  0  0  0  0
  161.9580  204.3580  146.8110 C   0  0  1  0  0  3  0  0  0  0  0  0
  161.2050  203.3460  146.0890 N   0  0  0  0  0  1  0  0  0  0  0  0
  160.4730  205.9930  145.8890 O   0  0  0  0  0  1  0  0  0  0  0  0
  161.8200  205.7130  146.1230 C   0  0  0  0  0  3  0  0  0  0  0  0
  162.5020  205.7030  144.9050 O   0  0  0  0  0  1  0  0  0  0  0  0
  160.8220  206.9610  154.4340 C   0  0  0  0  0  2  0  0  0  0  0  0
  161.6040  207.7890  155.2420 O   0  0  0  0  0  0  0  0  0  0  0  0
  159.6880  206.9660  156.3810 C   0  0  0  0  0  1  0  0  0  0  0  0
  160.9130  207.8550  156.4520 C   0  0  0  0  0  2  0  0  0  0  0  0
  1  4  1  0  0  0  0
  1  6  2  0  0  0  0
  2  5  1  0  0  0  0
  4  7  1  0  0  0  0
  5 25  1  1  0  0  0
  6  2  1  0  0  0  0
  7  3  2  0  0  0  0
  7  5  1  0  0  0  0
  8 10  2  0  0  0  0
  9 12  2  0  0  0  0
 11 13  1  6  0  0  0
 11  9  1  0  0  0  0
 11  8  1  0  0  0  0
 12 10  1  0  0  0  0
 12  3  1  0  0  0  0
 14 15  2  0  0  0  0
 15  8  1  0  0  0  0
 15 16  1  0  0  0  0
 18  1  1  0  0  0  0
 19 17  2  0  0  0  0
 19 18  1  0  0  0  0
 20 21  1  6  0  0  0
 20 19  1  0  0  0  0
 22 23  1  0  0  0  0
 23 20  1  0  0  0  0
 24 23  1  0  0  0  0
 25 26  1  0  0  0  0
 26 28  1  0  0  0  0
 27 28  1  0  0  0  0
M  END
>  <MODEL>
9

>  <REMARK>
 VINA RESULT:      -6.1      2.013      6.255
  Name = 
  8 active torsions:
  status: ('A' for Active; 'I' for Inactive)
    1  A    between atoms: C_1  and  C_15
    2  A    between atoms: O_2  and  C_10
    3  A    between atoms: O_2  and  C_22
    4  A    between atoms: CA_3  and  C_16
    5  A    between atoms: CA_3  and  C_27
    6  A    between atoms: C_5  and  N_26
    7  A    between atoms: C_10  and  C_19
    8  A    between atoms: N_12  and  C_23
                            x       y       z     vdW  Elec       q    Type
                         _______ _______ _______ _____ _____    ______ ____

>  <TORSDO>
F 8

$$$$
