=
 OpenBabel11042420343D

 49 54  0  0  1  0  0  0  0  0999 V2000
  160.7860  205.4030  149.6540 C   0  0  2  0  0  3  0  0  0  0  0  0
  162.2950  206.9050  150.8480 C   0  0  0  0  0  2  0  0  0  0  0  0
  161.3750  207.5790  149.8970 C   0  0  0  0  0  0  0  0  0  0  0  0
  161.3600  208.9920  149.6670 N   0  0  0  0  0  2  0  0  0  0  0  0
  160.5680  206.7920  149.2730 N   0  0  0  0  0  0  0  0  0  0  0  0
  161.8920  205.4360  150.7190 C   0  0  1  0  0  3  0  0  0  0  0  0
  161.7380  205.1470  147.3720 C   0  0  0  0  0  3  0  0  0  0  0  0
  161.2120  204.5840  148.4640 C   0  0  0  0  0  3  0  0  0  0  0  0
  162.1750  204.3170  146.2090 C   0  0  0  0  0  2  0  0  0  0  0  0
  161.1220  204.2710  145.2050 N   0  0  0  0  0  2  0  0  0  0  0  0
  160.7760  205.6500  144.9020 C   0  0  0  0  0  1  0  0  0  0  0  0
  162.3130  209.8830  150.3220 C   0  0  2  0  0  3  0  0  0  0  0  0
  160.5400  210.3300  152.0060 C   0  0  0  0  0  1  0  0  0  0  0  0
  162.0060  209.9720  151.8050 C   0  0  0  0  0  2  0  0  0  0  0  0
  162.2660  211.2200  149.7210 N   0  0  0  0  0  2  0  0  0  0  0  0
  161.8250  211.0860  148.3920 N   0  0  0  0  0  2  0  0  0  0  0  0
  161.0180  212.2560  148.0690 C   0  0  0  0  0  2  0  0  0  0  0  0
  162.5370  214.0440  147.7090 O   0  0  0  0  0  0  0  0  0  0  0  0
  161.8040  213.1650  147.1800 C   0  0  0  0  0  0  0  0  0  0  0  0
  160.5940  212.6320  145.0620 C   0  0  0  0  0  3  0  0  0  0  0  0
  161.7190  212.7060  142.9060 C   0  0  0  0  0  0  0  0  0  0  0  0
  160.5640  212.4820  143.6710 C   0  0  0  0  0  3  0  0  0  0  0  0
  161.7810  213.0090  145.7100 C   0  0  0  0  0  0  0  0  0  0  0  0
  162.9080  213.0780  143.5550 C   0  0  0  0  0  3  0  0  0  0  0  0
  162.9390  213.2300  144.9460 C   0  0  0  0  0  3  0  0  0  0  0  0
  161.6730  212.5560  141.4790 N   0  0  0  0  0  0  0  0  0  0  0  0
  161.4160  213.6290  140.7000 O   0  0  0  0  0  1  0  0  0  0  0  0
  161.8070  211.2450  140.8540 C   0  0  0  0  0  2  0  0  0  0  0  0
  160.7250  209.7130  139.2400 C   0  0  0  0  0  2  0  0  0  0  0  0
  161.7320  210.5570  138.4940 C   0  0  0  0  0  2  0  0  0  0  0  0
  160.9250  211.1630  139.6200 C   0  0  0  0  0  3  0  0  0  0  0  0
  161.4110  204.8410  152.0480 C   0  0  0  0  0  2  0  0  0  0  0  0
  161.6930  205.7440  153.2440 C   0  0  0  0  0  2  0  0  0  0  0  0
  160.4880  206.1940  153.7860 O   0  0  0  0  0  0  0  0  0  0  0  0
  160.8320  207.2270  154.6560 C   0  0  0  0  0  2  0  0  0  0  0  0
  159.9470  207.1600  155.8890 C   0  0  0  0  0  2  0  0  0  0  0  0
  159.9450  208.4970  156.6140 C   0  0  0  0  0  2  0  0  0  0  0  0
  162.6360  210.1170  156.7910 C   0  0  0  0  0  2  0  0  0  0  0  0
  160.3010  209.6050  155.6410 C   0  0  2  0  0  3  0  0  0  0  0  0
  161.2920  210.5590  156.2550 C   0  0  0  0  0  0  0  0  0  0  0  0
  159.2110  211.7180  156.2930 C   0  0  1  0  0  3  0  0  0  0  0  0
  159.0890  210.4880  155.3830 C   0  0  0  0  0  2  0  0  0  0  0  0
  160.6920  211.8930  156.6020 C   0  0  0  0  0  2  0  0  0  0  0  0
  162.5330  210.7140  155.3980 C   0  0  0  0  0  2  0  0  0  0  0  0
  157.1400  212.8310  155.4300 C   0  0  0  0  0  2  0  0  0  0  0  0
  158.0050  213.1920  153.4290 C   0  0  0  0  0  2  0  0  0  0  0  0
  159.1830  213.1150  154.2880 N   0  0  0  0  0  2  0  0  0  0  0  0
  156.9250  212.5680  154.0720 O   0  0  0  0  0  0  0  0  0  0  0  0
  158.6380  212.9670  155.6250 C   0  0  2  0  0  3  0  0  0  0  0  0
  1  8  1  6  0  0  0
  1  6  1  0  0  0  0
  3  2  1  0  0  0  0
  4  3  1  0  0  0  0
  4 12  1  0  0  0  0
  5  1  1  0  0  0  0
  5  3  2  0  0  0  0
  6  2  1  0  0  0  0
  6 32  1  1  0  0  0
  7  8  2  0  0  0  0
  9  7  1  0  0  0  0
 10  9  1  0  0  0  0
 11 10  1  0  0  0  0
 12 14  1  1  0  0  0
 14 13  1  0  0  0  0
 15 12  1  0  0  0  0
 16 15  1  0  0  0  0
 17 16  1  0  0  0  0
 19 18  2  0  0  0  0
 19 17  1  0  0  0  0
 20 23  1  0  0  0  0
 21 24  2  0  0  0  0
 21 22  1  0  0  0  0
 22 20  2  0  0  0  0
 23 19  1  0  0  0  0
 24 25  1  0  0  0  0
 25 23  2  0  0  0  0
 26 21  1  0  0  0  0
 27 26  1  0  0  0  0
 28 26  1  0  0  0  0
 29 31  1  0  0  0  0
 30 29  1  0  0  0  0
 30 31  1  0  0  0  0
 31 28  1  0  0  0  0
 32 33  1  0  0  0  0
 33 34  1  0  0  0  0
 34 35  1  0  0  0  0
 35 36  1  0  0  0  0
 36 37  1  0  0  0  0
 39 40  1  0  0  0  0
 39 37  1  1  0  0  0
 40 43  1  0  0  0  0
 40 38  1  0  0  0  0
 41 42  1  6  0  0  0
 41 43  1  0  0  0  0
 42 39  1  0  0  0  0
 44 40  1  0  0  0  0
 44 38  1  0  0  0  0
 46 48  1  0  0  0  0
 46 47  1  0  0  0  0
 47 49  1  0  0  0  0
 48 45  1  0  0  0  0
 49 45  1  6  0  0  0
 49 41  1  0  0  0  0
M  END
>  <MODEL>
1

>  <REMARK>
 VINA RESULT:      -6.9      0.000      0.000
  Name = 
  21 active torsions:
  status: ('A' for Active; 'I' for Inactive)
    1  A    between atoms: C_1  and  N_9
    2  A    between atoms: C_1  and  C_35
    3  A    between atoms: C_4  and  O_23
    4  A    between atoms: C_4  and  C_31
    5  A    between atoms: C_7  and  C_38
    6  A    between atoms: C_8  and  C_12
    7  A    between atoms: N_9  and  N_24
    8  A    between atoms: C_11  and  N_13
    9  A    between atoms: N_13  and  C_33
   10  A    between atoms: C_16  and  C_21
   11  A    between atoms: C_17  and  C_35
   12  A    between atoms: C_20  and  C_21
   13  A    between atoms: C_20  and  C_22
   14  A    between atoms: C_22  and  O_23
   15  A    between atoms: N_24  and  C_48
   16  A    between atoms: C_25  and  C_47
   17  A    between atoms: N_29  and  C_48
   18  A    between atoms: C_31  and  C_45
   19  A    between atoms: C_33  and  C_41
   20  A    between atoms: N_36  and  C_38
   21  A    between atoms: C_46  and  C_48
                            x       y       z     vdW  Elec       q    Type
                         _______ _______ _______ _____ _____    ______ ____

>  <TORSDO>
F 21

$$$$
=
 OpenBabel11042420343D

 49 54  0  0  1  0  0  0  0  0999 V2000
  162.5610  209.0040  148.8790 C   0  0  2  0  0  3  0  0  0  0  0  0
  161.2740  210.3840  150.4290 C   0  0  0  0  0  2  0  0  0  0  0  0
  162.0040  209.2570  151.0630 C   0  0  0  0  0  0  0  0  0  0  0  0
  161.9640  208.9690  152.4650 N   0  0  0  0  0  2  0  0  0  0  0  0
  162.6950  208.5320  150.2510 N   0  0  0  0  0  0  0  0  0  0  0  0
  161.6620  210.2470  148.9550 C   0  0  1  0  0  3  0  0  0  0  0  0
  162.6530  206.9300  147.5120 C   0  0  0  0  0  3  0  0  0  0  0  0
  161.9380  207.9440  148.0090 C   0  0  0  0  0  3  0  0  0  0  0  0
  162.0140  205.8750  146.6670 C   0  0  0  0  0  2  0  0  0  0  0  0
  160.5720  206.0740  146.6260 N   0  0  0  0  0  2  0  0  0  0  0  0
  160.2100  206.2020  145.2250 C   0  0  0  0  0  1  0  0  0  0  0  0
  161.1350  209.7450  153.3800 C   0  0  2  0  0  3  0  0  0  0  0  0
  161.1850  211.1110  155.4570 C   0  0  0  0  0  1  0  0  0  0  0  0
  162.0110  210.5830  154.2920 C   0  0  0  0  0  2  0  0  0  0  0  0
  160.2840  208.8590  154.1820 N   0  0  0  0  0  2  0  0  0  0  0  0
  161.0130  207.6880  154.4590 N   0  0  0  0  0  2  0  0  0  0  0  0
  160.4710  206.6190  153.6300 C   0  0  0  0  0  2  0  0  0  0  0  0
  162.7780  206.1660  153.3050 O   0  0  0  0  0  0  0  0  0  0  0  0
  161.5960  205.9050  152.9520 C   0  0  0  0  0  0  0  0  0  0  0  0
  161.3000  203.5130  152.2980 C   0  0  0  0  0  3  0  0  0  0  0  0
  160.8580  202.8740  149.9930 C   0  0  0  0  0  0  0  0  0  0  0  0
  161.0590  202.5250  151.3370 C   0  0  0  0  0  3  0  0  0  0  0  0
  161.3420  204.8670  151.9300 C   0  0  0  0  0  0  0  0  0  0  0  0
  160.9040  204.2290  149.6230 C   0  0  0  0  0  3  0  0  0  0  0  0
  161.1430  205.2180  150.5840 C   0  0  0  0  0  3  0  0  0  0  0  0
  160.6050  201.8520  149.0180 N   0  0  0  0  0  0  0  0  0  0  0  0
  160.9980  200.5830  149.2590 O   0  0  0  0  0  1  0  0  0  0  0  0
  160.0110  202.1740  147.7250 C   0  0  0  0  0  2  0  0  0  0  0  0
  161.2180  202.6350  145.6150 C   0  0  0  0  0  2  0  0  0  0  0  0
  160.0650  201.7080  145.3120 C   0  0  0  0  0  2  0  0  0  0  0  0
  160.8330  201.5590  146.6060 C   0  0  0  0  0  3  0  0  0  0  0  0
  162.3780  211.4920  148.4190 C   0  0  0  0  0  2  0  0  0  0  0  0
  161.6650  212.7920  148.7770 C   0  0  0  0  0  2  0  0  0  0  0  0
  161.3310  213.4790  147.6090 O   0  0  0  0  0  0  0  0  0  0  0  0
  162.5450  213.8530  147.0330 C   0  0  0  0  0  2  0  0  0  0  0  0
  162.2850  214.4530  145.6630 C   0  0  0  0  0  2  0  0  0  0  0  0
  162.5860  213.4360  144.5730 C   0  0  0  0  0  2  0  0  0  0  0  0
  159.6560  212.2910  144.5950 C   0  0  0  0  0  2  0  0  0  0  0  0
  161.6220  213.6280  143.4170 C   0  0  2  0  0  3  0  0  0  0  0  0
  160.5680  212.5510  143.4160 C   0  0  0  0  0  0  0  0  0  0  0  0
  162.0490  211.9680  141.6440 C   0  0  1  0  0  3  0  0  0  0  0  0
  162.3370  213.4070  142.0930 C   0  0  0  0  0  2  0  0  0  0  0  0
  160.7400  211.5540  142.3040 C   0  0  0  0  0  2  0  0  0  0  0  0
  159.1670  213.1320  143.4290 C   0  0  0  0  0  2  0  0  0  0  0  0
  163.0790  211.0100  139.5720 C   0  0  0  0  0  2  0  0  0  0  0  0
  163.2400  212.9770  138.5800 C   0  0  0  0  0  2  0  0  0  0  0  0
  162.1400  213.1710  139.5190 N   0  0  0  0  0  2  0  0  0  0  0  0
  164.0100  211.8800  138.9930 O   0  0  0  0  0  0  0  0  0  0  0  0
  161.9540  211.8650  140.1230 C   0  0  2  0  0  3  0  0  0  0  0  0
  1  8  1  6  0  0  0
  1  6  1  0  0  0  0
  1  5  1  0  0  0  0
  2  3  1  0  0  0  0
  3  4  1  0  0  0  0
  4 12  1  0  0  0  0
  5  3  2  0  0  0  0
  6 32  1  1  0  0  0
  6  2  1  0  0  0  0
  7  8  2  0  0  0  0
  9  7  1  0  0  0  0
 10  9  1  0  0  0  0
 11 10  1  0  0  0  0
 12 15  1  0  0  0  0
 12 14  1  1  0  0  0
 14 13  1  0  0  0  0
 15 16  1  0  0  0  0
 17 16  1  0  0  0  0
 19 18  2  0  0  0  0
 19 17  1  0  0  0  0
 21 22  1  0  0  0  0
 22 20  2  0  0  0  0
 23 20  1  0  0  0  0
 23 19  1  0  0  0  0
 24 21  2  0  0  0  0
 24 25  1  0  0  0  0
 25 23  2  0  0  0  0
 26 27  1  0  0  0  0
 26 21  1  0  0  0  0
 28 26  1  0  0  0  0
 29 31  1  0  0  0  0
 30 29  1  0  0  0  0
 30 31  1  0  0  0  0
 31 28  1  0  0  0  0
 32 33  1  0  0  0  0
 34 33  1  0  0  0  0
 35 34  1  0  0  0  0
 36 35  1  0  0  0  0
 37 36  1  0  0  0  0
 39 37  1  1  0  0  0
 40 39  1  0  0  0  0
 40 44  1  0  0  0  0
 40 38  1  0  0  0  0
 41 42  1  6  0  0  0
 41 43  1  0  0  0  0
 42 39  1  0  0  0  0
 43 40  1  0  0  0  0
 44 38  1  0  0  0  0
 46 48  1  0  0  0  0
 46 47  1  0  0  0  0
 47 49  1  0  0  0  0
 48 45  1  0  0  0  0
 49 45  1  6  0  0  0
 49 41  1  0  0  0  0
M  END
>  <MODEL>
2

>  <REMARK>
 VINA RESULT:      -6.2      2.342     10.469
  Name = 
  21 active torsions:
  status: ('A' for Active; 'I' for Inactive)
    1  A    between atoms: C_1  and  N_9
    2  A    between atoms: C_1  and  C_35
    3  A    between atoms: C_4  and  O_23
    4  A    between atoms: C_4  and  C_31
    5  A    between atoms: C_7  and  C_38
    6  A    between atoms: C_8  and  C_12
    7  A    between atoms: N_9  and  N_24
    8  A    between atoms: C_11  and  N_13
    9  A    between atoms: N_13  and  C_33
   10  A    between atoms: C_16  and  C_21
   11  A    between atoms: C_17  and  C_35
   12  A    between atoms: C_20  and  C_21
   13  A    between atoms: C_20  and  C_22
   14  A    between atoms: C_22  and  O_23
   15  A    between atoms: N_24  and  C_48
   16  A    between atoms: C_25  and  C_47
   17  A    between atoms: N_29  and  C_48
   18  A    between atoms: C_31  and  C_45
   19  A    between atoms: C_33  and  C_41
   20  A    between atoms: N_36  and  C_38
   21  A    between atoms: C_46  and  C_48
                            x       y       z     vdW  Elec       q    Type
                         _______ _______ _______ _____ _____    ______ ____

>  <TORSDO>
F 21

$$$$
=
 OpenBabel11042420343D

 49 54  0  0  1  0  0  0  0  0999 V2000
  161.9660  204.5090  145.7970 C   0  0  2  0  0  3  0  0  0  0  0  0
  160.6040  206.3680  146.6040 C   0  0  0  0  0  2  0  0  0  0  0  0
  161.9120  206.2130  147.2920 C   0  0  0  0  0  0  0  0  0  0  0  0
  162.3590  207.0600  148.3550 N   0  0  0  0  0  2  0  0  0  0  0  0
  162.6400  205.2400  146.8610 N   0  0  0  0  0  0  0  0  0  0  0  0
  160.6350  205.2410  145.5700 C   0  0  1  0  0  3  0  0  0  0  0  0
  161.3320  202.7500  147.4350 C   0  0  0  0  0  3  0  0  0  0  0  0
  161.7270  203.0770  146.2010 C   0  0  0  0  0  3  0  0  0  0  0  0
  161.0790  201.3260  147.8130 C   0  0  0  0  0  2  0  0  0  0  0  0
  160.3670  201.2660  149.0820 N   0  0  0  0  0  2  0  0  0  0  0  0
  160.5670  202.5510  149.7320 C   0  0  0  0  0  1  0  0  0  0  0  0
  161.5150  208.1230  148.8910 C   0  0  2  0  0  3  0  0  0  0  0  0
  162.1090  210.1750  150.1640 C   0  0  0  0  0  1  0  0  0  0  0  0
  162.2490  209.4500  148.8320 C   0  0  0  0  0  2  0  0  0  0  0  0
  161.1310  207.8270  150.2760 N   0  0  0  0  0  2  0  0  0  0  0  0
  161.6260  206.5510  150.6030 N   0  0  0  0  0  2  0  0  0  0  0  0
  162.4120  206.6770  151.8230 C   0  0  0  0  0  2  0  0  0  0  0  0
  161.2690  205.2080  153.2960 O   0  0  0  0  0  0  0  0  0  0  0  0
  161.5340  206.4050  153.0030 C   0  0  0  0  0  0  0  0  0  0  0  0
  160.3360  207.2140  155.0390 C   0  0  0  0  0  3  0  0  0  0  0  0
  160.0640  209.5890  155.4900 C   0  0  0  0  0  0  0  0  0  0  0  0
  159.8570  208.2490  155.8500 C   0  0  0  0  0  3  0  0  0  0  0  0
  161.0310  207.5040  153.8540 C   0  0  0  0  0  0  0  0  0  0  0  0
  160.7550  209.8790  154.3020 C   0  0  0  0  0  3  0  0  0  0  0  0
  161.2360  208.8460  153.4910 C   0  0  0  0  0  3  0  0  0  0  0  0
  159.5740  210.6410  156.3340 N   0  0  0  0  0  0  0  0  0  0  0  0
  160.4030  211.2270  157.2250 O   0  0  0  0  0  1  0  0  0  0  0  0
  158.1680  211.0310  156.3150 C   0  0  0  0  0  2  0  0  0  0  0  0
  157.2910  213.1440  155.3720 C   0  0  0  0  0  2  0  0  0  0  0  0
  156.3620  212.0220  154.9730 C   0  0  0  0  0  2  0  0  0  0  0  0
  157.8540  211.7820  155.0320 C   0  0  0  0  0  3  0  0  0  0  0  0
  160.5180  205.7620  144.1330 C   0  0  0  0  0  2  0  0  0  0  0  0
  161.8550  205.8020  143.4000 C   0  0  0  0  0  2  0  0  0  0  0  0
  161.6510  205.5730  142.0390 O   0  0  0  0  0  0  0  0  0  0  0  0
  161.7540  206.8220  141.4290 C   0  0  0  0  0  2  0  0  0  0  0  0
  162.6070  206.7000  140.1780 C   0  0  0  0  0  2  0  0  0  0  0  0
  161.9560  207.4380  139.0190 C   0  0  0  0  0  2  0  0  0  0  0  0
  159.4250  208.7060  137.6470 C   0  0  0  0  0  2  0  0  0  0  0  0
  161.2960  208.7050  139.5280 C   0  0  2  0  0  3  0  0  0  0  0  0
  160.5280  209.3880  138.4270 C   0  0  0  0  0  0  0  0  0  0  0  0
  162.4960  210.6990  138.7130 C   0  0  1  0  0  3  0  0  0  0  0  0
  162.3510  209.7360  139.8990 C   0  0  0  0  0  2  0  0  0  0  0  0
  161.1810  210.6540  137.9450 C   0  0  0  0  0  2  0  0  0  0  0  0
  159.0790  209.6220  138.8080 C   0  0  0  0  0  2  0  0  0  0  0  0
  162.0000  213.1330  138.3960 C   0  0  0  0  0  2  0  0  0  0  0  0
  164.1240  213.6670  138.1080 C   0  0  0  0  0  2  0  0  0  0  0  0
  164.1960  212.4440  138.9010 N   0  0  0  0  0  2  0  0  0  0  0  0
  162.8710  213.7360  137.4810 O   0  0  0  0  0  0  0  0  0  0  0  0
  162.8100  212.1190  139.1800 C   0  0  2  0  0  3  0  0  0  0  0  0
  1  8  1  1  0  0  0
  1  5  1  0  0  0  0
  2  3  1  0  0  0  0
  3  4  1  0  0  0  0
  4 12  1  0  0  0  0
  5  3  2  0  0  0  0
  6 32  1  6  0  0  0
  6  1  1  0  0  0  0
  6  2  1  0  0  0  0
  7  9  1  0  0  0  0
  8  7  2  0  0  0  0
  9 10  1  0  0  0  0
 10 11  1  0  0  0  0
 12 14  1  1  0  0  0
 12 15  1  0  0  0  0
 14 13  1  0  0  0  0
 15 16  1  0  0  0  0
 16 17  1  0  0  0  0
 17 19  1  0  0  0  0
 19 18  2  0  0  0  0
 19 23  1  0  0  0  0
 20 22  1  0  0  0  0
 21 22  2  0  0  0  0
 21 26  1  0  0  0  0
 23 20  2  0  0  0  0
 24 21  1  0  0  0  0
 25 23  1  0  0  0  0
 25 24  2  0  0  0  0
 26 27  1  0  0  0  0
 28 26  1  0  0  0  0
 30 31  1  0  0  0  0
 30 29  1  0  0  0  0
 31 29  1  0  0  0  0
 31 28  1  0  0  0  0
 33 32  1  0  0  0  0
 34 33  1  0  0  0  0
 35 34  1  0  0  0  0
 36 35  1  0  0  0  0
 37 36  1  0  0  0  0
 38 40  1  0  0  0  0
 38 44  1  0  0  0  0
 39 37  1  6  0  0  0
 39 42  1  0  0  0  0
 40 44  1  0  0  0  0
 40 39  1  0  0  0  0
 41 43  1  1  0  0  0
 41 49  1  0  0  0  0
 41 42  1  0  0  0  0
 43 40  1  0  0  0  0
 46 47  1  0  0  0  0
 47 49  1  0  0  0  0
 48 46  1  0  0  0  0
 48 45  1  0  0  0  0
 49 45  1  6  0  0  0
M  END
>  <MODEL>
3

>  <REMARK>
 VINA RESULT:      -5.9      3.009     12.392
  Name = 
  21 active torsions:
  status: ('A' for Active; 'I' for Inactive)
    1  A    between atoms: C_1  and  N_9
    2  A    between atoms: C_1  and  C_35
    3  A    between atoms: C_4  and  O_23
    4  A    between atoms: C_4  and  C_31
    5  A    between atoms: C_7  and  C_38
    6  A    between atoms: C_8  and  C_12
    7  A    between atoms: N_9  and  N_24
    8  A    between atoms: C_11  and  N_13
    9  A    between atoms: N_13  and  C_33
   10  A    between atoms: C_16  and  C_21
   11  A    between atoms: C_17  and  C_35
   12  A    between atoms: C_20  and  C_21
   13  A    between atoms: C_20  and  C_22
   14  A    between atoms: C_22  and  O_23
   15  A    between atoms: N_24  and  C_48
   16  A    between atoms: C_25  and  C_47
   17  A    between atoms: N_29  and  C_48
   18  A    between atoms: C_31  and  C_45
   19  A    between atoms: C_33  and  C_41
   20  A    between atoms: N_36  and  C_38
   21  A    between atoms: C_46  and  C_48
                            x       y       z     vdW  Elec       q    Type
                         _______ _______ _______ _____ _____    ______ ____

>  <TORSDO>
F 21

$$$$
=
 OpenBabel11042420343D

 49 54  0  0  1  0  0  0  0  0999 V2000
  160.7170  206.8410  148.9030 C   0  0  2  0  0  3  0  0  0  0  0  0
  162.0990  206.2360  146.9830 C   0  0  0  0  0  2  0  0  0  0  0  0
  160.6400  206.0350  146.7860 C   0  0  0  0  0  0  0  0  0  0  0  0
  160.0630  205.5150  145.5830 N   0  0  0  0  0  2  0  0  0  0  0  0
  159.9060  206.3640  147.7920 N   0  0  0  0  0  0  0  0  0  0  0  0
  162.1680  206.8090  148.4000 C   0  0  1  0  0  3  0  0  0  0  0  0
  161.5540  205.7190  150.9580 C   0  0  0  0  0  3  0  0  0  0  0  0
  160.5490  205.9530  150.1080 C   0  0  0  0  0  3  0  0  0  0  0  0
  161.3640  204.8530  152.1600 C   0  0  0  0  0  2  0  0  0  0  0  0
  160.5750  203.6800  151.8100 N   0  0  0  0  0  2  0  0  0  0  0  0
  161.5180  202.6030  151.5640 C   0  0  0  0  0  1  0  0  0  0  0  0
  160.8920  205.0800  144.4630 C   0  0  2  0  0  3  0  0  0  0  0  0
  161.1320  202.8460  145.5270 C   0  0  0  0  0  1  0  0  0  0  0  0
  161.8820  204.0280  144.9280 C   0  0  0  0  0  2  0  0  0  0  0  0
  161.6110  206.2190  143.8820 N   0  0  0  0  0  2  0  0  0  0  0  0
  162.1630  205.8070  142.6560 N   0  0  0  0  0  2  0  0  0  0  0  0
  161.3390  206.3570  141.5870 C   0  0  0  0  0  2  0  0  0  0  0  0
  163.2420  206.2890  140.1700 O   0  0  0  0  0  0  0  0  0  0  0  0
  162.2250  206.9400  140.5340 C   0  0  0  0  0  0  0  0  0  0  0  0
  160.9090  208.2730  138.8820 C   0  0  0  0  0  3  0  0  0  0  0  0
  161.2570  210.6660  138.6180 C   0  0  0  0  0  0  0  0  0  0  0  0
  160.5920  209.4840  138.2580 C   0  0  0  0  0  3  0  0  0  0  0  0
  161.8960  208.2240  139.8790 C   0  0  0  0  0  0  0  0  0  0  0  0
  162.2480  210.6170  139.6130 C   0  0  0  0  0  3  0  0  0  0  0  0
  162.5650  209.4070  140.2390 C   0  0  0  0  0  3  0  0  0  0  0  0
  160.9170  211.9030  137.9760 N   0  0  0  0  0  0  0  0  0  0  0  0
  161.8740  212.6120  137.3370 O   0  0  0  0  0  1  0  0  0  0  0  0
  159.5740  212.4610  138.0770 C   0  0  0  0  0  2  0  0  0  0  0  0
  158.7020  212.4360  140.3930 C   0  0  0  0  0  2  0  0  0  0  0  0
  157.9670  213.5050  139.6180 C   0  0  0  0  0  2  0  0  0  0  0  0
  159.4370  213.2620  139.3610 C   0  0  0  0  0  3  0  0  0  0  0  0
  162.8070  208.2020  148.4380 C   0  0  0  0  0  2  0  0  0  0  0  0
  161.8260  209.3000  148.8350 C   0  0  0  0  0  2  0  0  0  0  0  0
  162.4150  210.1330  149.7860 O   0  0  0  0  0  0  0  0  0  0  0  0
  162.2740  209.4700  151.0040 C   0  0  0  0  0  2  0  0  0  0  0  0
  160.9690  209.8920  151.6570 C   0  0  0  0  0  2  0  0  0  0  0  0
  160.5770  208.9030  152.7440 C   0  0  0  0  0  2  0  0  0  0  0  0
  160.7460  207.0900  155.3100 C   0  0  0  0  0  2  0  0  0  0  0  0
  161.0100  209.4350  154.0970 C   0  0  2  0  0  3  0  0  0  0  0  0
  160.4690  208.5750  155.2090 C   0  0  0  0  0  0  0  0  0  0  0  0
  159.1270  210.5420  155.2400 C   0  0  1  0  0  3  0  0  0  0  0  0
  160.3630  210.7860  154.3640 C   0  0  0  0  0  2  0  0  0  0  0  0
  159.3660  209.2370  155.9870 C   0  0  0  0  0  2  0  0  0  0  0  0
  161.5700  208.0730  156.1230 C   0  0  0  0  0  2  0  0  0  0  0  0
  158.0610  212.7850  155.5640 C   0  0  0  0  0  2  0  0  0  0  0  0
  159.9470  213.7370  156.2110 C   0  0  0  0  0  2  0  0  0  0  0  0
  160.1550  212.3320  156.5470 N   0  0  0  0  0  2  0  0  0  0  0  0
  158.9320  213.8350  155.2480 O   0  0  0  0  0  0  0  0  0  0  0  0
  158.8950  211.6970  156.2140 C   0  0  2  0  0  3  0  0  0  0  0  0
  1  8  1  1  0  0  0
  2  6  1  0  0  0  0
  3  2  1  0  0  0  0
  3  5  2  0  0  0  0
  4  3  1  0  0  0  0
  5  1  1  0  0  0  0
  6 32  1  6  0  0  0
  6  1  1  0  0  0  0
  7  9  1  0  0  0  0
  8  7  2  0  0  0  0
 10  9  1  0  0  0  0
 11 10  1  0  0  0  0
 12 14  1  1  0  0  0
 12  4  1  0  0  0  0
 14 13  1  0  0  0  0
 15 12  1  0  0  0  0
 16 15  1  0  0  0  0
 17 16  1  0  0  0  0
 18 19  2  0  0  0  0
 19 17  1  0  0  0  0
 20 23  1  0  0  0  0
 21 24  2  0  0  0  0
 22 21  1  0  0  0  0
 22 20  2  0  0  0  0
 23 25  2  0  0  0  0
 23 19  1  0  0  0  0
 24 25  1  0  0  0  0
 26 28  1  0  0  0  0
 26 21  1  0  0  0  0
 27 26  1  0  0  0  0
 28 31  1  0  0  0  0
 30 29  1  0  0  0  0
 31 30  1  0  0  0  0
 31 29  1  0  0  0  0
 32 33  1  0  0  0  0
 33 34  1  0  0  0  0
 34 35  1  0  0  0  0
 35 36  1  0  0  0  0
 36 37  1  0  0  0  0
 38 44  1  0  0  0  0
 39 37  1  6  0  0  0
 39 42  1  0  0  0  0
 39 40  1  0  0  0  0
 40 38  1  0  0  0  0
 40 43  1  0  0  0  0
 40 44  1  0  0  0  0
 41 42  1  1  0  0  0
 41 43  1  0  0  0  0
 41 49  1  0  0  0  0
 46 47  1  0  0  0  0
 48 45  1  0  0  0  0
 48 46  1  0  0  0  0
 49 45  1  6  0  0  0
 49 47  1  0  0  0  0
M  END
>  <MODEL>
4

>  <REMARK>
 VINA RESULT:      -4.8      2.798      5.367
  Name = 
  21 active torsions:
  status: ('A' for Active; 'I' for Inactive)
    1  A    between atoms: C_1  and  N_9
    2  A    between atoms: C_1  and  C_35
    3  A    between atoms: C_4  and  O_23
    4  A    between atoms: C_4  and  C_31
    5  A    between atoms: C_7  and  C_38
    6  A    between atoms: C_8  and  C_12
    7  A    between atoms: N_9  and  N_24
    8  A    between atoms: C_11  and  N_13
    9  A    between atoms: N_13  and  C_33
   10  A    between atoms: C_16  and  C_21
   11  A    between atoms: C_17  and  C_35
   12  A    between atoms: C_20  and  C_21
   13  A    between atoms: C_20  and  C_22
   14  A    between atoms: C_22  and  O_23
   15  A    between atoms: N_24  and  C_48
   16  A    between atoms: C_25  and  C_47
   17  A    between atoms: N_29  and  C_48
   18  A    between atoms: C_31  and  C_45
   19  A    between atoms: C_33  and  C_41
   20  A    between atoms: N_36  and  C_38
   21  A    between atoms: C_46  and  C_48
                            x       y       z     vdW  Elec       q    Type
                         _______ _______ _______ _____ _____    ______ ____

>  <TORSDO>
F 21

$$$$
=
 OpenBabel11042420343D

 49 54  0  0  1  0  0  0  0  0999 V2000
  161.5940  206.9850  148.5850 C   0  0  2  0  0  3  0  0  0  0  0  0
  162.7930  208.9440  149.4140 C   0  0  0  0  0  2  0  0  0  0  0  0
  161.7320  209.2430  148.4180 C   0  0  0  0  0  0  0  0  0  0  0  0
  161.4240  210.5600  147.9510 N   0  0  0  0  0  2  0  0  0  0  0  0
  161.0880  208.2130  147.9860 N   0  0  0  0  0  0  0  0  0  0  0  0
  162.6950  207.4250  149.5620 C   0  0  1  0  0  3  0  0  0  0  0  0
  161.4730  205.7840  146.4120 C   0  0  0  0  0  3  0  0  0  0  0  0
  162.1510  206.0660  147.5300 C   0  0  0  0  0  3  0  0  0  0  0  0
  162.0490  204.8870  145.3650 C   0  0  0  0  0  2  0  0  0  0  0  0
  161.7100  203.5000  145.6550 N   0  0  0  0  0  2  0  0  0  0  0  0
  160.5040  203.2010  144.9030 C   0  0  0  0  0  1  0  0  0  0  0  0
  162.1910  211.7230  148.3870 C   0  0  2  0  0  3  0  0  0  0  0  0
  160.8810  213.6210  149.3160 C   0  0  0  0  0  1  0  0  0  0  0  0
  161.5780  212.3080  149.6460 C   0  0  0  0  0  2  0  0  0  0  0  0
  162.2280  212.7410  147.3310 N   0  0  0  0  0  2  0  0  0  0  0  0
  161.2510  212.4130  146.3740 N   0  0  0  0  0  2  0  0  0  0  0  0
  161.1680  213.5150  145.4240 C   0  0  0  0  0  2  0  0  0  0  0  0
  163.2460  213.0020  144.3970 O   0  0  0  0  0  0  0  0  0  0  0  0
  162.0120  213.2000  144.2310 C   0  0  0  0  0  0  0  0  0  0  0  0
  160.9140  214.1900  142.2180 C   0  0  0  0  0  3  0  0  0  0  0  0
  160.2730  212.8130  140.3180 C   0  0  0  0  0  0  0  0  0  0  0  0
  160.3480  214.0660  140.9440 C   0  0  0  0  0  3  0  0  0  0  0  0
  161.4160  213.0610  142.8850 C   0  0  0  0  0  0  0  0  0  0  0  0
  160.7710  211.6820  140.9870 C   0  0  0  0  0  3  0  0  0  0  0  0
  161.3390  211.8050  142.2600 C   0  0  0  0  0  3  0  0  0  0  0  0
  159.6970  212.7000  139.0080 N   0  0  0  0  0  0  0  0  0  0  0  0
  160.1430  213.4920  138.0080 O   0  0  0  0  0  1  0  0  0  0  0  0
  158.5720  211.8080  138.7540 C   0  0  0  0  0  2  0  0  0  0  0  0
  156.1220  211.6280  139.0540 C   0  0  0  0  0  2  0  0  0  0  0  0
  156.4730  213.0850  138.8630 C   0  0  0  0  0  2  0  0  0  0  0  0
  157.4000  212.1810  139.6450 C   0  0  0  0  0  3  0  0  0  0  0  0
  162.3760  206.9950  150.9980 C   0  0  0  0  0  2  0  0  0  0  0  0
  160.8810  206.8560  151.2630 C   0  0  0  0  0  2  0  0  0  0  0  0
  160.5660  207.4370  152.4920 O   0  0  0  0  0  0  0  0  0  0  0  0
  161.5090  208.4470  152.6810 C   0  0  0  0  0  2  0  0  0  0  0  0
  160.8060  209.7930  152.6990 C   0  0  0  0  0  2  0  0  0  0  0  0
  160.1870  210.0490  154.0650 C   0  0  0  0  0  2  0  0  0  0  0  0
  158.1720  211.2050  156.1860 C   0  0  0  0  0  2  0  0  0  0  0  0
  159.9520  211.5360  154.2480 C   0  0  2  0  0  3  0  0  0  0  0  0
  158.6000  211.7940  154.8600 C   0  0  0  0  0  0  0  0  0  0  0  0
  158.3610  212.3790  152.5630 C   0  0  1  0  0  3  0  0  0  0  0  0
  159.8510  212.2230  152.8940 C   0  0  0  0  0  2  0  0  0  0  0  0
  157.6120  212.3800  153.8890 C   0  0  0  0  0  2  0  0  0  0  0  0
  158.7000  212.6270  156.1220 C   0  0  0  0  0  2  0  0  0  0  0  0
  156.9620  214.4500  152.4130 C   0  0  0  0  0  2  0  0  0  0  0  0
  156.3610  214.0560  150.3240 C   0  0  0  0  0  2  0  0  0  0  0  0
  157.6310  213.3460  150.4410 N   0  0  0  0  0  2  0  0  0  0  0  0
  155.8330  214.2690  151.6060 O   0  0  0  0  0  0  0  0  0  0  0  0
  158.0930  213.6630  151.7790 C   0  0  2  0  0  3  0  0  0  0  0  0
  1  8  1  6  0  0  0
  1  6  1  0  0  0  0
  2  6  1  0  0  0  0
  3  2  1  0  0  0  0
  4 12  1  0  0  0  0
  4  3  1  0  0  0  0
  5  3  2  0  0  0  0
  5  1  1  0  0  0  0
  6 32  1  1  0  0  0
  7  8  2  0  0  0  0
  9 10  1  0  0  0  0
  9  7  1  0  0  0  0
 11 10  1  0  0  0  0
 12 14  1  1  0  0  0
 13 14  1  0  0  0  0
 15 12  1  0  0  0  0
 16 15  1  0  0  0  0
 17 16  1  0  0  0  0
 19 18  2  0  0  0  0
 19 17  1  0  0  0  0
 20 23  1  0  0  0  0
 21 22  1  0  0  0  0
 21 24  2  0  0  0  0
 22 20  2  0  0  0  0
 23 19  1  0  0  0  0
 24 25  1  0  0  0  0
 25 23  2  0  0  0  0
 26 21  1  0  0  0  0
 27 26  1  0  0  0  0
 28 26  1  0  0  0  0
 28 31  1  0  0  0  0
 29 31  1  0  0  0  0
 30 29  1  0  0  0  0
 30 31  1  0  0  0  0
 32 33  1  0  0  0  0
 33 34  1  0  0  0  0
 34 35  1  0  0  0  0
 35 36  1  0  0  0  0
 36 37  1  0  0  0  0
 39 37  1  6  0  0  0
 39 40  1  0  0  0  0
 40 44  1  0  0  0  0
 40 38  1  0  0  0  0
 41 42  1  1  0  0  0
 41 43  1  0  0  0  0
 42 39  1  0  0  0  0
 43 40  1  0  0  0  0
 44 38  1  0  0  0  0
 46 47  1  0  0  0  0
 46 48  1  0  0  0  0
 47 49  1  0  0  0  0
 48 45  1  0  0  0  0
 49 45  1  1  0  0  0
 49 41  1  0  0  0  0
M  END
>  <MODEL>
5

>  <REMARK>
 VINA RESULT:      -4.6      2.191      3.222
  Name = 
  21 active torsions:
  status: ('A' for Active; 'I' for Inactive)
    1  A    between atoms: C_1  and  N_9
    2  A    between atoms: C_1  and  C_35
    3  A    between atoms: C_4  and  O_23
    4  A    between atoms: C_4  and  C_31
    5  A    between atoms: C_7  and  C_38
    6  A    between atoms: C_8  and  C_12
    7  A    between atoms: N_9  and  N_24
    8  A    between atoms: C_11  and  N_13
    9  A    between atoms: N_13  and  C_33
   10  A    between atoms: C_16  and  C_21
   11  A    between atoms: C_17  and  C_35
   12  A    between atoms: C_20  and  C_21
   13  A    between atoms: C_20  and  C_22
   14  A    between atoms: C_22  and  O_23
   15  A    between atoms: N_24  and  C_48
   16  A    between atoms: C_25  and  C_47
   17  A    between atoms: N_29  and  C_48
   18  A    between atoms: C_31  and  C_45
   19  A    between atoms: C_33  and  C_41
   20  A    between atoms: N_36  and  C_38
   21  A    between atoms: C_46  and  C_48
                            x       y       z     vdW  Elec       q    Type
                         _______ _______ _______ _____ _____    ______ ____

>  <TORSDO>
F 21

$$$$
=
 OpenBabel11042420343D

 49 54  0  0  1  0  0  0  0  0999 V2000
  162.2710  205.7840  146.5060 C   0  0  2  0  0  3  0  0  0  0  0  0
  161.2200  205.4530  148.6850 C   0  0  0  0  0  2  0  0  0  0  0  0
  161.7840  204.2220  148.0750 C   0  0  0  0  0  0  0  0  0  0  0  0
  161.7190  202.9280  148.6850 N   0  0  0  0  0  2  0  0  0  0  0  0
  162.3510  204.3930  146.9310 N   0  0  0  0  0  0  0  0  0  0  0  0
  161.5650  206.5260  147.6510 C   0  0  1  0  0  3  0  0  0  0  0  0
  162.0610  205.7340  144.0300 C   0  0  0  0  0  3  0  0  0  0  0  0
  161.4880  205.9080  145.2250 C   0  0  0  0  0  3  0  0  0  0  0  0
  161.2660  205.8400  142.7690 C   0  0  0  0  0  2  0  0  0  0  0  0
  161.8630  206.8290  141.8830 N   0  0  0  0  0  2  0  0  0  0  0  0
  162.2950  206.1160  140.6940 C   0  0  0  0  0  1  0  0  0  0  0  0
  161.0230  202.7140  149.9500 C   0  0  2  0  0  3  0  0  0  0  0  0
  159.6610  201.4110  148.3290 C   0  0  0  0  0  1  0  0  0  0  0  0
  159.6680  202.0810  149.6970 C   0  0  0  0  0  2  0  0  0  0  0  0
  160.8550  203.9840  150.6670 N   0  0  0  0  0  2  0  0  0  0  0  0
  161.6720  203.9500  151.8110 N   0  0  0  0  0  2  0  0  0  0  0  0
  161.1370  204.9100  152.7690 C   0  0  0  0  0  2  0  0  0  0  0  0
  162.7750  206.3050  151.7670 O   0  0  0  0  0  0  0  0  0  0  0  0
  161.7920  206.2360  152.5530 C   0  0  0  0  0  0  0  0  0  0  0  0
  160.8930  208.5620  152.4050 C   0  0  0  0  0  3  0  0  0  0  0  0
  160.2730  209.8100  154.3980 C   0  0  0  0  0  0  0  0  0  0  0  0
  160.3980  209.7250  153.0040 C   0  0  0  0  0  3  0  0  0  0  0  0
  161.2700  207.4620  153.1930 C   0  0  0  0  0  0  0  0  0  0  0  0
  160.6550  208.7130  155.1880 C   0  0  0  0  0  3  0  0  0  0  0  0
  161.1480  207.5470  154.5910 C   0  0  0  0  0  3  0  0  0  0  0  0
  159.7570  211.0070  155.0000 N   0  0  0  0  0  0  0  0  0  0  0  0
  160.5630  212.0800  155.1570 O   0  0  0  0  0  1  0  0  0  0  0  0
  158.4000  211.0590  155.5320 C   0  0  0  0  0  2  0  0  0  0  0  0
  156.1940  212.1500  155.2750 C   0  0  0  0  0  2  0  0  0  0  0  0
  156.7260  211.8220  153.9000 C   0  0  0  0  0  2  0  0  0  0  0  0
  157.6730  212.2770  154.9870 C   0  0  0  0  0  3  0  0  0  0  0  0
  162.4490  207.6360  148.2310 C   0  0  0  0  0  2  0  0  0  0  0  0
  161.7310  208.9770  148.3420 C   0  0  0  0  0  2  0  0  0  0  0  0
  162.3180  209.7400  149.3520 O   0  0  0  0  0  0  0  0  0  0  0  0
  162.0540  211.0680  149.0190 C   0  0  0  0  0  2  0  0  0  0  0  0
  161.4990  211.1300  147.6070 C   0  0  0  0  0  2  0  0  0  0  0  0
  160.0950  211.7140  147.6140 C   0  0  0  0  0  2  0  0  0  0  0  0
  157.4100  213.1180  146.7670 C   0  0  0  0  0  2  0  0  0  0  0  0
  160.0580  212.9640  146.7550 C   0  0  2  0  0  3  0  0  0  0  0  0
  158.7370  213.0840  146.0410 C   0  0  0  0  0  0  0  0  0  0  0  0
  160.2830  212.3850  144.3690 C   0  0  1  0  0  3  0  0  0  0  0  0
  161.0560  212.8460  145.6120 C   0  0  0  0  0  2  0  0  0  0  0  0
  158.8350  212.8140  144.5650 C   0  0  0  0  0  2  0  0  0  0  0  0
  158.0630  214.4130  146.3190 C   0  0  0  0  0  2  0  0  0  0  0  0
  159.8740  212.8890  141.9500 C   0  0  0  0  0  2  0  0  0  0  0  0
  161.7060  211.8500  141.2840 C   0  0  0  0  0  2  0  0  0  0  0  0
  162.0220  212.2260  142.6590 N   0  0  0  0  0  2  0  0  0  0  0  0
  160.3140  211.8570  141.1130 O   0  0  0  0  0  0  0  0  0  0  0  0
  160.8670  212.9890  143.0920 C   0  0  2  0  0  3  0  0  0  0  0  0
  1  8  1  6  0  0  0
  1  5  1  0  0  0  0
  1  6  1  0  0  0  0
  3  2  1  0  0  0  0
  3  4  1  0  0  0  0
  4 12  1  0  0  0  0
  5  3  2  0  0  0  0
  6 32  1  1  0  0  0
  6  2  1  0  0  0  0
  7  8  2  0  0  0  0
  9  7  1  0  0  0  0
 10  9  1  0  0  0  0
 11 10  1  0  0  0  0
 12 14  1  6  0  0  0
 12 15  1  0  0  0  0
 13 14  1  0  0  0  0
 15 16  1  0  0  0  0
 16 17  1  0  0  0  0
 18 19  2  0  0  0  0
 19 17  1  0  0  0  0
 19 23  1  0  0  0  0
 20 22  2  0  0  0  0
 20 23  1  0  0  0  0
 21 26  1  0  0  0  0
 21 24  2  0  0  0  0
 22 21  1  0  0  0  0
 23 25  2  0  0  0  0
 25 24  1  0  0  0  0
 26 27  1  0  0  0  0
 26 28  1  0  0  0  0
 30 31  1  0  0  0  0
 30 29  1  0  0  0  0
 31 29  1  0  0  0  0
 31 28  1  0  0  0  0
 32 33  1  0  0  0  0
 33 34  1  0  0  0  0
 35 34  1  0  0  0  0
 36 37  1  0  0  0  0
 36 35  1  0  0  0  0
 39 37  1  1  0  0  0
 40 44  1  0  0  0  0
 40 39  1  0  0  0  0
 40 38  1  0  0  0  0
 41 43  1  1  0  0  0
 41 42  1  0  0  0  0
 42 39  1  0  0  0  0
 43 40  1  0  0  0  0
 44 38  1  0  0  0  0
 46 47  1  0  0  0  0
 47 49  1  0  0  0  0
 48 46  1  0  0  0  0
 48 45  1  0  0  0  0
 49 45  1  6  0  0  0
 49 41  1  0  0  0  0
M  END
>  <MODEL>
6

>  <REMARK>
 VINA RESULT:      -4.3      2.369      9.964
  Name = 
  21 active torsions:
  status: ('A' for Active; 'I' for Inactive)
    1  A    between atoms: C_1  and  N_9
    2  A    between atoms: C_1  and  C_35
    3  A    between atoms: C_4  and  O_23
    4  A    between atoms: C_4  and  C_31
    5  A    between atoms: C_7  and  C_38
    6  A    between atoms: C_8  and  C_12
    7  A    between atoms: N_9  and  N_24
    8  A    between atoms: C_11  and  N_13
    9  A    between atoms: N_13  and  C_33
   10  A    between atoms: C_16  and  C_21
   11  A    between atoms: C_17  and  C_35
   12  A    between atoms: C_20  and  C_21
   13  A    between atoms: C_20  and  C_22
   14  A    between atoms: C_22  and  O_23
   15  A    between atoms: N_24  and  C_48
   16  A    between atoms: C_25  and  C_47
   17  A    between atoms: N_29  and  C_48
   18  A    between atoms: C_31  and  C_45
   19  A    between atoms: C_33  and  C_41
   20  A    between atoms: N_36  and  C_38
   21  A    between atoms: C_46  and  C_48
                            x       y       z     vdW  Elec       q    Type
                         _______ _______ _______ _____ _____    ______ ____

>  <TORSDO>
F 21

$$$$
=
 OpenBabel11042420343D

 49 54  0  0  1  0  0  0  0  0999 V2000
  162.2810  204.9860  146.1610 C   0  0  2  0  0  3  0  0  0  0  0  0
  160.8790  206.6790  147.2240 C   0  0  0  0  0  2  0  0  0  0  0  0
  162.2830  206.6430  147.7090 C   0  0  0  0  0  0  0  0  0  0  0  0
  162.7980  207.5090  148.7260 N   0  0  0  0  0  2  0  0  0  0  0  0
  163.0300  205.7590  147.1420 N   0  0  0  0  0  0  0  0  0  0  0  0
  160.8660  205.5840  146.1560 C   0  0  1  0  0  3  0  0  0  0  0  0
  161.2340  203.0100  147.2480 C   0  0  0  0  0  3  0  0  0  0  0  0
  162.2450  203.5290  146.5430 C   0  0  0  0  0  3  0  0  0  0  0  0
  161.2030  201.5590  147.6000 C   0  0  0  0  0  2  0  0  0  0  0  0
  160.3250  201.3410  148.7410 N   0  0  0  0  0  2  0  0  0  0  0  0
  160.7110  202.3090  149.7540 C   0  0  0  0  0  1  0  0  0  0  0  0
  161.9420  208.4680  149.4170 C   0  0  2  0  0  3  0  0  0  0  0  0
  161.4240  210.6210  148.2860 C   0  0  0  0  0  1  0  0  0  0  0  0
  162.4310  209.8810  149.1570 C   0  0  0  0  0  2  0  0  0  0  0  0
  161.9300  208.2020  150.8600 N   0  0  0  0  0  2  0  0  0  0  0  0
  161.3540  209.3120  151.5030 N   0  0  0  0  0  2  0  0  0  0  0  0
  161.3210  209.0310  152.9330 C   0  0  0  0  0  2  0  0  0  0  0  0
  161.6640  210.5740  154.7040 O   0  0  0  0  0  0  0  0  0  0  0  0
  160.9960  210.2890  153.6740 C   0  0  0  0  0  0  0  0  0  0  0  0
  160.2780  212.1920  152.2250 C   0  0  0  0  0  3  0  0  0  0  0  0
  157.9850  213.0050  152.2440 C   0  0  0  0  0  0  0  0  0  0  0  0
  159.2990  213.0770  151.7580 C   0  0  0  0  0  3  0  0  0  0  0  0
  159.9560  211.2200  153.1850 C   0  0  0  0  0  0  0  0  0  0  0  0
  157.6640  212.0350  153.2080 C   0  0  0  0  0  3  0  0  0  0  0  0
  158.6410  211.1480  153.6750 C   0  0  0  0  0  3  0  0  0  0  0  0
  156.9890  213.9130  151.7510 N   0  0  0  0  0  0  0  0  0  0  0  0
  156.0790  214.4360  152.6020 O   0  0  0  0  0  1  0  0  0  0  0  0
  156.8800  214.2140  150.3280 C   0  0  0  0  0  2  0  0  0  0  0  0
  158.4230  213.3600  148.5920 C   0  0  0  0  0  2  0  0  0  0  0  0
  157.0150  213.3020  148.0490 C   0  0  0  0  0  2  0  0  0  0  0  0
  157.2750  212.9980  149.5070 C   0  0  0  0  0  3  0  0  0  0  0  0
  160.4890  206.1220  144.7710 C   0  0  0  0  0  2  0  0  0  0  0  0
  161.4550  205.6850  143.6750 C   0  0  0  0  0  2  0  0  0  0  0  0
  161.2010  206.4080  142.5090 O   0  0  0  0  0  0  0  0  0  0  0  0
  162.2410  206.0900  141.6370 C   0  0  0  0  0  2  0  0  0  0  0  0
  161.9920  206.7570  140.2960 C   0  0  0  0  0  2  0  0  0  0  0  0
  162.2660  208.2510  140.3880 C   0  0  0  0  0  2  0  0  0  0  0  0
  163.0270  211.2440  139.7900 C   0  0  0  0  0  2  0  0  0  0  0  0
  162.0770  208.8880  139.0240 C   0  0  2  0  0  3  0  0  0  0  0  0
  161.9610  210.3850  139.1450 C   0  0  0  0  0  0  0  0  0  0  0  0
  159.7430  209.6250  138.7240 C   0  0  1  0  0  3  0  0  0  0  0  0
  160.7320  208.4870  138.4370 C   0  0  0  0  0  2  0  0  0  0  0  0
  160.5680  210.8930  138.8950 C   0  0  0  0  0  2  0  0  0  0  0  0
  162.9770  211.1030  138.2790 C   0  0  0  0  0  2  0  0  0  0  0  0
  158.0990  211.1600  137.6250 C   0  0  0  0  0  2  0  0  0  0  0  0
  156.4380  209.7120  137.7800 C   0  0  0  0  0  2  0  0  0  0  0  0
  157.6210  208.8580  137.7860 N   0  0  0  0  0  2  0  0  0  0  0  0
  156.8080  211.0140  138.1460 O   0  0  0  0  0  0  0  0  0  0  0  0
  158.7250  209.7800  137.5950 C   0  0  2  0  0  3  0  0  0  0  0  0
  1  8  1  1  0  0  0
  1  5  1  0  0  0  0
  2  3  1  0  0  0  0
  3  4  1  0  0  0  0
  4 12  1  0  0  0  0
  5  3  2  0  0  0  0
  6 32  1  6  0  0  0
  6  1  1  0  0  0  0
  6  2  1  0  0  0  0
  7  9  1  0  0  0  0
  8  7  2  0  0  0  0
  9 10  1  0  0  0  0
 10 11  1  0  0  0  0
 12 14  1  1  0  0  0
 12 15  1  0  0  0  0
 13 14  1  0  0  0  0
 15 16  1  0  0  0  0
 16 17  1  0  0  0  0
 17 19  1  0  0  0  0
 19 18  2  0  0  0  0
 20 23  1  0  0  0  0
 21 24  2  0  0  0  0
 22 20  2  0  0  0  0
 22 21  1  0  0  0  0
 23 19  1  0  0  0  0
 23 25  2  0  0  0  0
 24 25  1  0  0  0  0
 26 21  1  0  0  0  0
 26 27  1  0  0  0  0
 28 26  1  0  0  0  0
 29 31  1  0  0  0  0
 30 29  1  0  0  0  0
 30 31  1  0  0  0  0
 31 28  1  0  0  0  0
 33 32  1  0  0  0  0
 34 33  1  0  0  0  0
 35 34  1  0  0  0  0
 36 37  1  0  0  0  0
 36 35  1  0  0  0  0
 39 40  1  0  0  0  0
 39 37  1  1  0  0  0
 40 38  1  0  0  0  0
 41 42  1  6  0  0  0
 41 43  1  0  0  0  0
 42 39  1  0  0  0  0
 43 40  1  0  0  0  0
 44 40  1  0  0  0  0
 44 38  1  0  0  0  0
 45 48  1  0  0  0  0
 46 47  1  0  0  0  0
 46 48  1  0  0  0  0
 49 45  1  1  0  0  0
 49 47  1  0  0  0  0
 49 41  1  0  0  0  0
M  END
>  <MODEL>
7

>  <REMARK>
 VINA RESULT:      -4.3      3.181     11.178
  Name = 
  21 active torsions:
  status: ('A' for Active; 'I' for Inactive)
    1  A    between atoms: C_1  and  N_9
    2  A    between atoms: C_1  and  C_35
    3  A    between atoms: C_4  and  O_23
    4  A    between atoms: C_4  and  C_31
    5  A    between atoms: C_7  and  C_38
    6  A    between atoms: C_8  and  C_12
    7  A    between atoms: N_9  and  N_24
    8  A    between atoms: C_11  and  N_13
    9  A    between atoms: N_13  and  C_33
   10  A    between atoms: C_16  and  C_21
   11  A    between atoms: C_17  and  C_35
   12  A    between atoms: C_20  and  C_21
   13  A    between atoms: C_20  and  C_22
   14  A    between atoms: C_22  and  O_23
   15  A    between atoms: N_24  and  C_48
   16  A    between atoms: C_25  and  C_47
   17  A    between atoms: N_29  and  C_48
   18  A    between atoms: C_31  and  C_45
   19  A    between atoms: C_33  and  C_41
   20  A    between atoms: N_36  and  C_38
   21  A    between atoms: C_46  and  C_48
                            x       y       z     vdW  Elec       q    Type
                         _______ _______ _______ _____ _____    ______ ____

>  <TORSDO>
F 21

$$$$
=
 OpenBabel11042420343D

 49 54  0  0  1  0  0  0  0  0999 V2000
  160.8620  204.8100  148.9010 C   0  0  2  0  0  3  0  0  0  0  0  0
  162.0380  206.5900  150.0880 C   0  0  0  0  0  2  0  0  0  0  0  0
  161.4420  206.9990  148.7900 C   0  0  0  0  0  0  0  0  0  0  0  0
  161.5450  208.3190  148.2450 N   0  0  0  0  0  2  0  0  0  0  0  0
  160.8100  206.0660  148.1650 N   0  0  0  0  0  0  0  0  0  0  0  0
  161.6310  205.1200  150.1940 C   0  0  1  0  0  3  0  0  0  0  0  0
  161.0040  203.1810  147.0290 C   0  0  0  0  0  3  0  0  0  0  0  0
  161.5690  203.7490  148.0990 C   0  0  0  0  0  3  0  0  0  0  0  0
  161.7270  202.1450  146.2310 C   0  0  0  0  0  2  0  0  0  0  0  0
  160.8290  201.0440  145.9110 N   0  0  0  0  0  2  0  0  0  0  0  0
  159.8640  201.5600  144.9560 C   0  0  0  0  0  1  0  0  0  0  0  0
  162.3130  209.3640  148.9150 C   0  0  2  0  0  3  0  0  0  0  0  0
  161.9620  209.8120  151.3360 C   0  0  0  0  0  1  0  0  0  0  0  0
  162.6720  208.9230  150.3220 C   0  0  0  0  0  2  0  0  0  0  0  0
  161.5490  210.6150  148.9630 N   0  0  0  0  0  2  0  0  0  0  0  0
  162.4620  211.6820  149.0350 N   0  0  0  0  0  2  0  0  0  0  0  0
  163.0610  211.8460  147.7170 C   0  0  0  0  0  2  0  0  0  0  0  0
  162.3330  214.1050  147.6810 O   0  0  0  0  0  0  0  0  0  0  0  0
  162.4400  213.0260  147.0390 C   0  0  0  0  0  0  0  0  0  0  0  0
  162.9490  213.1530  144.5970 C   0  0  0  0  0  3  0  0  0  0  0  0
  161.2130  212.8420  142.9230 C   0  0  0  0  0  0  0  0  0  0  0  0
  162.5520  213.0930  143.2570 C   0  0  0  0  0  3  0  0  0  0  0  0
  162.0130  212.9610  145.6250 C   0  0  0  0  0  0  0  0  0  0  0  0
  160.2740  212.6540  143.9510 C   0  0  0  0  0  3  0  0  0  0  0  0
  160.6700  212.7120  145.2920 C   0  0  0  0  0  3  0  0  0  0  0  0
  160.8200  212.7750  141.5440 N   0  0  0  0  0  0  0  0  0  0  0  0
  159.5240  212.5660  141.2250 O   0  0  0  0  0  1  0  0  0  0  0  0
  161.8090  212.8370  140.4740 C   0  0  0  0  0  2  0  0  0  0  0  0
  162.2570  212.2670  138.1080 C   0  0  0  0  0  2  0  0  0  0  0  0
  160.9130  212.9530  138.1870 C   0  0  0  0  0  2  0  0  0  0  0  0
  161.3450  212.0100  139.2870 C   0  0  0  0  0  3  0  0  0  0  0  0
  160.7790  204.8360  151.4370 C   0  0  0  0  0  2  0  0  0  0  0  0
  161.4670  205.2350  152.7380 C   0  0  0  0  0  2  0  0  0  0  0  0
  160.8020  206.3220  153.3060 O   0  0  0  0  0  0  0  0  0  0  0  0
  161.7840  207.0540  153.9730 C   0  0  0  0  0  2  0  0  0  0  0  0
  161.1320  207.8990  155.0530 C   0  0  0  0  0  2  0  0  0  0  0  0
  160.1000  208.8360  154.4440 C   0  0  0  0  0  2  0  0  0  0  0  0
  160.0170  210.4290  157.1550 C   0  0  0  0  0  2  0  0  0  0  0  0
  160.5790  210.2700  154.5670 C   0  0  2  0  0  3  0  0  0  0  0  0
  159.9240  210.9540  155.7380 C   0  0  0  0  0  0  0  0  0  0  0  0
  158.8310  211.8380  153.8150 C   0  0  1  0  0  3  0  0  0  0  0  0
  160.0980  211.0900  153.3790 C   0  0  0  0  0  2  0  0  0  0  0  0
  158.9010  211.9770  155.3300 C   0  0  0  0  0  2  0  0  0  0  0  0
  160.9450  211.5400  156.6940 C   0  0  0  0  0  2  0  0  0  0  0  0
  157.3270  213.4400  152.6140 C   0  0  0  0  0  2  0  0  0  0  0  0
  158.6920  213.6360  150.8870 C   0  0  0  0  0  2  0  0  0  0  0  0
  159.5880  213.2550  151.9740 N   0  0  0  0  0  2  0  0  0  0  0  0
  157.3800  213.2740  151.2240 O   0  0  0  0  0  0  0  0  0  0  0  0
  158.7290  213.2060  153.1420 C   0  0  2  0  0  3  0  0  0  0  0  0
  1  8  1  6  0  0  0
  1  6  1  0  0  0  0
  2  6  1  0  0  0  0
  3  2  1  0  0  0  0
  4  3  1  0  0  0  0
  4 12  1  0  0  0  0
  5  3  2  0  0  0  0
  5  1  1  0  0  0  0
  6 32  1  1  0  0  0
  7  8  2  0  0  0  0
  9  7  1  0  0  0  0
 10  9  1  0  0  0  0
 11 10  1  0  0  0  0
 12 15  1  0  0  0  0
 12 14  1  1  0  0  0
 14 13  1  0  0  0  0
 15 16  1  0  0  0  0
 17 16  1  0  0  0  0
 19 18  2  0  0  0  0
 19 17  1  0  0  0  0
 20 23  1  0  0  0  0
 21 22  1  0  0  0  0
 21 24  2  0  0  0  0
 22 20  2  0  0  0  0
 23 19  1  0  0  0  0
 24 25  1  0  0  0  0
 25 23  2  0  0  0  0
 26 21  1  0  0  0  0
 27 26  1  0  0  0  0
 28 26  1  0  0  0  0
 29 30  1  0  0  0  0
 29 31  1  0  0  0  0
 30 31  1  0  0  0  0
 31 28  1  0  0  0  0
 32 33  1  0  0  0  0
 33 34  1  0  0  0  0
 34 35  1  0  0  0  0
 35 36  1  0  0  0  0
 37 36  1  0  0  0  0
 39 37  1  6  0  0  0
 39 40  1  0  0  0  0
 40 44  1  0  0  0  0
 40 38  1  0  0  0  0
 41 42  1  6  0  0  0
 41 43  1  0  0  0  0
 42 39  1  0  0  0  0
 43 40  1  0  0  0  0
 44 38  1  0  0  0  0
 46 48  1  0  0  0  0
 46 47  1  0  0  0  0
 47 49  1  0  0  0  0
 48 45  1  0  0  0  0
 49 45  1  6  0  0  0
 49 41  1  0  0  0  0
M  END
>  <MODEL>
8

>  <REMARK>
 VINA RESULT:      -4.2      1.505      1.980
  Name = 
  21 active torsions:
  status: ('A' for Active; 'I' for Inactive)
    1  A    between atoms: C_1  and  N_9
    2  A    between atoms: C_1  and  C_35
    3  A    between atoms: C_4  and  O_23
    4  A    between atoms: C_4  and  C_31
    5  A    between atoms: C_7  and  C_38
    6  A    between atoms: C_8  and  C_12
    7  A    between atoms: N_9  and  N_24
    8  A    between atoms: C_11  and  N_13
    9  A    between atoms: N_13  and  C_33
   10  A    between atoms: C_16  and  C_21
   11  A    between atoms: C_17  and  C_35
   12  A    between atoms: C_20  and  C_21
   13  A    between atoms: C_20  and  C_22
   14  A    between atoms: C_22  and  O_23
   15  A    between atoms: N_24  and  C_48
   16  A    between atoms: C_25  and  C_47
   17  A    between atoms: N_29  and  C_48
   18  A    between atoms: C_31  and  C_45
   19  A    between atoms: C_33  and  C_41
   20  A    between atoms: N_36  and  C_38
   21  A    between atoms: C_46  and  C_48
                            x       y       z     vdW  Elec       q    Type
                         _______ _______ _______ _____ _____    ______ ____

>  <TORSDO>
F 21

$$$$
=
 OpenBabel11042420343D

 49 54  0  0  1  0  0  0  0  0999 V2000
  162.0190  204.6810  146.4870 C   0  0  2  0  0  3  0  0  0  0  0  0
  160.9330  205.2600  148.5960 C   0  0  0  0  0  2  0  0  0  0  0  0
  161.8370  204.0830  148.6660 C   0  0  0  0  0  0  0  0  0  0  0  0
  162.0620  203.3210  149.8570 N   0  0  0  0  0  2  0  0  0  0  0  0
  162.4220  203.7810  147.5580 N   0  0  0  0  0  0  0  0  0  0  0  0
  161.0650  205.6960  147.1360 C   0  0  1  0  0  3  0  0  0  0  0  0
  160.7930  202.7150  145.5870 C   0  0  0  0  0  3  0  0  0  0  0  0
  161.3250  203.9240  145.3850 C   0  0  0  0  0  3  0  0  0  0  0  0
  160.0900  201.9860  144.4890 C   0  0  0  0  0  2  0  0  0  0  0  0
  159.7810  200.6260  144.9100 N   0  0  0  0  0  2  0  0  0  0  0  0
  160.8160  200.2380  145.8530 C   0  0  0  0  0  1  0  0  0  0  0  0
  161.3560  203.6170  151.0990 C   0  0  2  0  0  3  0  0  0  0  0  0
  160.1170  201.6690  150.1740 C   0  0  0  0  0  1  0  0  0  0  0  0
  160.0600  202.8290  151.1600 C   0  0  0  0  0  2  0  0  0  0  0  0
  161.0710  205.0520  151.2000 N   0  0  0  0  0  2  0  0  0  0  0  0
  162.2380  205.6980  151.6480 N   0  0  0  0  0  2  0  0  0  0  0  0
  161.8950  207.0820  151.9480 C   0  0  0  0  0  2  0  0  0  0  0  0
  161.7350  206.2180  154.1520 O   0  0  0  0  0  0  0  0  0  0  0  0
  161.5010  207.1910  153.3860 C   0  0  0  0  0  0  0  0  0  0  0  0
  160.7610  208.5970  155.3120 C   0  0  0  0  0  3  0  0  0  0  0  0
  159.7640  210.7900  154.9730 C   0  0  0  0  0  0  0  0  0  0  0  0
  160.1970  209.7680  155.8310 C   0  0  0  0  0  3  0  0  0  0  0  0
  160.9030  208.4310  153.9260 C   0  0  0  0  0  0  0  0  0  0  0  0
  159.9010  210.6220  153.5850 C   0  0  0  0  0  3  0  0  0  0  0  0
  160.4670  209.4520  153.0640 C   0  0  0  0  0  3  0  0  0  0  0  0
  159.1940  211.9890  155.5170 N   0  0  0  0  0  0  0  0  0  0  0  0
  159.9160  213.1310  155.5270 O   0  0  0  0  0  1  0  0  0  0  0  0
  157.8780  211.9790  156.1470 C   0  0  0  0  0  2  0  0  0  0  0  0
  155.5640  212.7290  155.6920 C   0  0  0  0  0  2  0  0  0  0  0  0
  155.6220  211.2300  155.5170 C   0  0  0  0  0  2  0  0  0  0  0  0
  156.7930  212.0860  155.0890 C   0  0  0  0  0  3  0  0  0  0  0  0
  161.5910  207.1290  146.9980 C   0  0  0  0  0  2  0  0  0  0  0  0
  162.0530  207.7270  148.3230 C   0  0  0  0  0  2  0  0  0  0  0  0
  162.4940  209.0360  148.1190 O   0  0  0  0  0  0  0  0  0  0  0  0
  161.9730  209.7760  149.1790 C   0  0  0  0  0  2  0  0  0  0  0  0
  162.1340  211.2560  148.8840 C   0  0  0  0  0  2  0  0  0  0  0  0
  161.3130  212.0840  149.8620 C   0  0  0  0  0  2  0  0  0  0  0  0
  158.3110  213.0140  149.9850 C   0  0  0  0  0  2  0  0  0  0  0  0
  160.8150  213.3400  149.1730 C   0  0  2  0  0  3  0  0  0  0  0  0
  159.3370  213.2490  148.8980 C   0  0  0  0  0  0  0  0  0  0  0  0
  160.3810  212.9080  146.7840 C   0  0  1  0  0  3  0  0  0  0  0  0
  161.4160  213.4500  147.7790 C   0  0  0  0  0  2  0  0  0  0  0  0
  159.0150  213.0600  147.4410 C   0  0  0  0  0  2  0  0  0  0  0  0
  158.5790  214.4230  149.4860 C   0  0  0  0  0  2  0  0  0  0  0  0
  160.3140  212.6930  144.2900 C   0  0  0  0  0  2  0  0  0  0  0  0
  162.2190  213.7780  144.0110 C   0  0  0  0  0  2  0  0  0  0  0  0
  161.7320  214.2890  145.2890 N   0  0  0  0  0  2  0  0  0  0  0  0
  161.5930  212.5530  143.7370 O   0  0  0  0  0  0  0  0  0  0  0  0
  160.4370  213.6570  145.4540 C   0  0  2  0  0  3  0  0  0  0  0  0
  1  8  1  6  0  0  0
  1  6  1  0  0  0  0
  1  5  1  0  0  0  0
  2  3  1  0  0  0  0
  3  4  1  0  0  0  0
  4 12  1  0  0  0  0
  5  3  2  0  0  0  0
  6 32  1  1  0  0  0
  6  2  1  0  0  0  0
  8  7  2  0  0  0  0
  9 10  1  0  0  0  0
  9  7  1  0  0  0  0
 10 11  1  0  0  0  0
 12 14  1  6  0  0  0
 12 15  1  0  0  0  0
 13 14  1  0  0  0  0
 15 16  1  0  0  0  0
 16 17  1  0  0  0  0
 17 19  1  0  0  0  0
 19 23  1  0  0  0  0
 19 18  2  0  0  0  0
 20 22  1  0  0  0  0
 21 26  1  0  0  0  0
 21 22  2  0  0  0  0
 23 20  2  0  0  0  0
 24 21  1  0  0  0  0
 25 24  2  0  0  0  0
 25 23  1  0  0  0  0
 26 27  1  0  0  0  0
 26 28  1  0  0  0  0
 30 29  1  0  0  0  0
 31 30  1  0  0  0  0
 31 29  1  0  0  0  0
 31 28  1  0  0  0  0
 32 33  1  0  0  0  0
 34 33  1  0  0  0  0
 34 35  1  0  0  0  0
 36 35  1  0  0  0  0
 36 37  1  0  0  0  0
 39 37  1  6  0  0  0
 40 39  1  0  0  0  0
 40 44  1  0  0  0  0
 40 38  1  0  0  0  0
 41 43  1  1  0  0  0
 41 42  1  0  0  0  0
 42 39  1  0  0  0  0
 43 40  1  0  0  0  0
 44 38  1  0  0  0  0
 46 47  1  0  0  0  0
 47 49  1  0  0  0  0
 48 46  1  0  0  0  0
 48 45  1  0  0  0  0
 49 45  1  6  0  0  0
 49 41  1  0  0  0  0
M  END
>  <MODEL>
9

>  <REMARK>
 VINA RESULT:      -4.1      2.608      9.356
  Name = 
  21 active torsions:
  status: ('A' for Active; 'I' for Inactive)
    1  A    between atoms: C_1  and  N_9
    2  A    between atoms: C_1  and  C_35
    3  A    between atoms: C_4  and  O_23
    4  A    between atoms: C_4  and  C_31
    5  A    between atoms: C_7  and  C_38
    6  A    between atoms: C_8  and  C_12
    7  A    between atoms: N_9  and  N_24
    8  A    between atoms: C_11  and  N_13
    9  A    between atoms: N_13  and  C_33
   10  A    between atoms: C_16  and  C_21
   11  A    between atoms: C_17  and  C_35
   12  A    between atoms: C_20  and  C_21
   13  A    between atoms: C_20  and  C_22
   14  A    between atoms: C_22  and  O_23
   15  A    between atoms: N_24  and  C_48
   16  A    between atoms: C_25  and  C_47
   17  A    between atoms: N_29  and  C_48
   18  A    between atoms: C_31  and  C_45
   19  A    between atoms: C_33  and  C_41
   20  A    between atoms: N_36  and  C_38
   21  A    between atoms: C_46  and  C_48
                            x       y       z     vdW  Elec       q    Type
                         _______ _______ _______ _____ _____    ______ ____

>  <TORSDO>
F 21

$$$$
