=
 OpenBabel11052411483D

 40 46  0  0  1  0  0  0  0  0999 V2000
  161.9050  212.5190  144.4010 C   0  0  0  0  0  3  0  0  0  0  0  0
  159.4150  212.8290  145.4260 S   0  0  0  0  0  0  0  0  0  0  0  0
  161.0050  214.0280  147.2820 N   0  0  0  0  0  2  0  0  0  0  0  0
  160.9190  212.8420  146.4230 C   0  0  2  0  0  0  0  0  0  0  0  0
  160.4660  212.5040  143.9520 C   0  0  1  0  0  3  0  0  0  0  0  0
  162.1120  212.6820  145.6500 N   0  0  0  0  0  0  0  0  0  0  0  0
  160.9080  212.6760  147.8780 C   0  0  1  0  0  3  0  0  0  0  0  0
  160.1770  213.4710  142.7760 C   0  0  0  0  0  0  0  0  0  0  0  0
  161.3280  214.4530  142.6360 C   0  0  0  0  0  1  0  0  0  0  0  0
  158.9070  214.2730  143.0430 C   0  0  0  0  0  1  0  0  0  0  0  0
  161.3240  212.1940  138.4050 C   0  0  2  0  0  3  0  0  0  0  0  0
  162.8920  213.5200  137.0190 C   0  0  0  0  0  1  0  0  0  0  0  0
  161.5340  209.4670  137.9440 C   0  0  0  0  0  2  0  0  0  0  0  0
  158.8420  212.6540  140.6600 C   0  0  0  0  0  3  0  0  0  0  0  0
  161.0510  212.1610  140.8710 N   0  0  0  0  0  0  0  0  0  0  0  0
  160.7350  209.7480  139.6090 S   0  0  0  0  0  0  0  0  0  0  0  0
  162.7160  211.5860  138.5660 C   0  0  2  0  0  3  0  0  0  0  0  0
  159.1510  211.9900  139.5570 C   0  0  0  0  0  3  0  0  0  0  0  0
  162.5420  213.0840  138.4270 C   0  0  2  0  0  3  0  0  0  0  0  0
  160.5930  211.6010  139.6050 C   0  0  2  0  0  0  0  0  0  0  0  0
  162.6070  210.5030  137.5120 C   0  0  0  0  0  2  0  0  0  0  0  0
  160.0510  212.7220  141.4670 C   0  0  0  0  0  0  0  0  0  0  0  0
  162.2600  212.2290  148.4150 C   0  0  0  0  0  2  0  0  0  0  0  0
  160.3620  211.6690  150.9430 C   0  0  0  0  0  1  0  0  0  0  0  0
  161.4660  208.4450  151.1010 N   0  0  0  0  0  0  0  0  0  0  0  0
  162.2880  210.7800  148.5350 N   0  0  0  0  0  2  0  0  0  0  0  0
  161.3230  209.6170  151.8930 C   0  0  0  0  0  0  0  0  0  0  0  0
  161.8850  210.1160  149.7360 C   0  0  0  0  0  0  0  0  0  0  0  0
  161.7970  208.8270  149.8020 N   0  0  0  0  0  0  0  0  0  0  0  0
  161.3390  209.6220  153.2220 C   0  0  0  0  0  2  0  0  0  0  0  0
  161.6130  210.8100  151.0480 C   0  0  1  0  0  3  0  0  0  0  0  0
  161.7890  205.1290  152.8010 N   0  0  0  0  0  2  0  0  0  0  0  0
  161.8660  204.3030  151.5990 C   0  0  0  0  0  2  0  0  0  0  0  0
  162.1310  206.5030  152.4470 C   0  0  0  0  0  2  0  0  0  0  0  0
  161.1100  207.0760  151.4600 C   0  0  2  0  0  3  0  0  0  0  0  0
  160.7970  204.7440  150.6020 C   0  0  1  0  0  3  0  0  0  0  0  0
  161.0170  206.2000  150.2110 C   0  0  0  0  0  2  0  0  0  0  0  0
  160.8020  203.8640  149.3970 C   0  0  0  0  0  0  0  0  0  0  0  0
  160.3440  202.6960  149.4790 O   0  0  0  0  0  1  0  0  0  0  0  0
  161.2840  204.3320  148.1790 O   0  0  0  0  0  0  0  0  0  0  0  0
  1  6  2  0  0  0  0
  3  7  1  0  0  0  0
  4  2  1  6  0  0  0
  4  3  1  0  0  0  0
  4  7  1  0  0  0  0
  5  8  1  6  0  0  0
  5  1  1  0  0  0  0
  5  2  1  0  0  0  0
  6  4  1  0  0  0  0
  7 23  1  6  0  0  0
  8 10  1  0  0  0  0
  9  8  1  0  0  0  0
 11 19  1  0  0  0  0
 11 17  1  0  0  0  0
 11 20  1  0  0  0  0
 12 19  1  0  0  0  0
 13 16  1  0  0  0  0
 14 22  1  0  0  0  0
 15 22  2  0  0  0  0
 18 20  1  0  0  0  0
 18 14  2  0  0  0  0
 19 17  1  0  0  0  0
 20 16  1  0  0  0  0
 20 15  1  0  0  0  0
 21 13  1  0  0  0  0
 21 17  1  0  0  0  0
 22  8  1  0  0  0  0
 23 26  1  0  0  0  0
 24 31  1  0  0  0  0
 25 35  1  0  0  0  0
 25 27  1  0  0  0  0
 26 28  1  0  0  0  0
 27 30  2  0  0  0  0
 28 29  2  0  0  0  0
 28 31  1  0  0  0  0
 29 25  1  0  0  0  0
 31 27  1  0  0  0  0
 33 32  1  0  0  0  0
 34 32  1  0  0  0  0
 35 34  1  0  0  0  0
 36 33  1  0  0  0  0
 37 36  1  0  0  0  0
 37 35  1  0  0  0  0
 38 39  1  0  0  0  0
 38 36  1  0  0  0  0
 40 38  2  0  0  0  0
M  END
>  <MODEL>
1

>  <REMARK>
 VINA RESULT:      -7.0      0.000      0.000
  Name = 
  6 active torsions:
  status: ('A' for Active; 'I' for Inactive)
    1  A    between atoms: N_10  and  C_16
    2  A    between atoms: N_13  and  C_24
    3  A    between atoms: C_17  and  C_31
    4  A    between atoms: C_17  and  C_34
    5  A    between atoms: C_19  and  C_28
    6  A    between atoms: C_24  and  C_39
                            x       y       z     vdW  Elec       q    Type
                         _______ _______ _______ _____ _____    ______ ____

>  <TORSDO>
F 6

$$$$
=
 OpenBabel11052411483D

 40 46  0  0  1  0  0  0  0  0999 V2000
  161.9770  212.5780  145.0610 C   0  0  0  0  0  3  0  0  0  0  0  0
  159.4360  213.0690  145.8670 S   0  0  0  0  0  0  0  0  0  0  0  0
  160.9400  214.2570  147.7990 N   0  0  0  0  0  2  0  0  0  0  0  0
  160.8530  213.0420  146.9820 C   0  0  2  0  0  0  0  0  0  0  0  0
  160.5800  212.6220  144.4970 C   0  0  1  0  0  3  0  0  0  0  0  0
  162.0930  212.7830  146.3170 N   0  0  0  0  0  0  0  0  0  0  0  0
  160.7170  212.9400  148.4370 C   0  0  1  0  0  3  0  0  0  0  0  0
  160.4430  213.5520  143.2650 C   0  0  0  0  0  0  0  0  0  0  0  0
  161.6680  214.4460  143.1680 C   0  0  0  0  0  1  0  0  0  0  0  0
  159.2170  214.4510  143.4070 C   0  0  0  0  0  1  0  0  0  0  0  0
  158.4020  211.7200  139.4540 C   0  0  2  0  0  3  0  0  0  0  0  0
  155.9390  211.5980  139.2130 C   0  0  0  0  0  1  0  0  0  0  0  0
  159.6900  212.1760  137.0390 C   0  0  0  0  0  2  0  0  0  0  0  0
  160.7890  211.3750  141.8280 C   0  0  0  0  0  3  0  0  0  0  0  0
  159.7670  213.1890  140.9160 N   0  0  0  0  0  0  0  0  0  0  0  0
  160.8240  212.6640  138.4410 S   0  0  0  0  0  0  0  0  0  0  0  0
  157.9500  212.9490  138.6670 C   0  0  2  0  0  3  0  0  0  0  0  0
  160.4680  211.0030  140.5980 C   0  0  0  0  0  3  0  0  0  0  0  0
  157.0940  212.3930  139.7870 C   0  0  2  0  0  3  0  0  0  0  0  0
  159.7980  212.1420  139.9000 C   0  0  2  0  0  0  0  0  0  0  0  0
  158.1720  212.4100  137.2690 C   0  0  0  0  0  2  0  0  0  0  0  0
  160.3540  212.7550  141.9820 C   0  0  0  0  0  0  0  0  0  0  0  0
  161.9930  212.4420  149.0990 C   0  0  0  0  0  2  0  0  0  0  0  0
  160.1580  211.6150  151.6000 C   0  0  0  0  0  1  0  0  0  0  0  0
  161.2770  208.3980  151.4030 N   0  0  0  0  0  0  0  0  0  0  0  0
  162.0300  210.9880  149.0700 N   0  0  0  0  0  2  0  0  0  0  0  0
  161.1480  209.4830  152.3130 C   0  0  0  0  0  0  0  0  0  0  0  0
  161.6570  210.2030  150.2060 C   0  0  0  0  0  0  0  0  0  0  0  0
  161.5760  208.9140  150.1420 N   0  0  0  0  0  0  0  0  0  0  0  0
  161.1960  209.3520  153.6350 C   0  0  0  0  0  2  0  0  0  0  0  0
  161.4140  210.7580  151.5880 C   0  0  1  0  0  3  0  0  0  0  0  0
  161.5640  204.9700  152.8690 N   0  0  0  0  0  2  0  0  0  0  0  0
  161.7600  204.2420  151.6190 C   0  0  0  0  0  2  0  0  0  0  0  0
  161.8910  206.3750  152.6490 C   0  0  0  0  0  2  0  0  0  0  0  0
  160.9350  206.9980  151.6280 C   0  0  2  0  0  3  0  0  0  0  0  0
  160.7600  204.7320  150.5750 C   0  0  1  0  0  3  0  0  0  0  0  0
  160.9670  206.2180  150.3130 C   0  0  0  0  0  2  0  0  0  0  0  0
  160.8870  203.9480  149.3120 C   0  0  0  0  0  0  0  0  0  0  0  0
  161.1610  204.5420  148.2380 O   0  0  0  0  0  0  0  0  0  0  0  0
  160.7320  202.5660  149.3150 O   0  0  0  0  0  1  0  0  0  0  0  0
  1  6  2  0  0  0  0
  3  7  1  0  0  0  0
  4  2  1  6  0  0  0
  4  3  1  0  0  0  0
  4  7  1  0  0  0  0
  5  8  1  6  0  0  0
  5  1  1  0  0  0  0
  5  2  1  0  0  0  0
  6  4  1  0  0  0  0
  7 23  1  1  0  0  0
  8 10  1  0  0  0  0
  9  8  1  0  0  0  0
 11 19  1  0  0  0  0
 11 20  1  0  0  0  0
 12 19  1  0  0  0  0
 13 21  1  0  0  0  0
 13 16  1  0  0  0  0
 14 22  1  0  0  0  0
 15 22  2  0  0  0  0
 16 20  1  0  0  0  0
 17 11  1  0  0  0  0
 17 19  1  0  0  0  0
 18 14  2  0  0  0  0
 20 18  1  0  0  0  0
 20 15  1  0  0  0  0
 21 17  1  0  0  0  0
 22  8  1  0  0  0  0
 25 35  1  0  0  0  0
 25 27  1  0  0  0  0
 26 23  1  0  0  0  0
 26 28  1  0  0  0  0
 27 30  2  0  0  0  0
 28 31  1  0  0  0  0
 29 28  2  0  0  0  0
 29 25  1  0  0  0  0
 31 24  1  0  0  0  0
 31 27  1  0  0  0  0
 33 32  1  0  0  0  0
 34 32  1  0  0  0  0
 35 34  1  0  0  0  0
 36 33  1  0  0  0  0
 37 36  1  0  0  0  0
 37 35  1  0  0  0  0
 38 40  1  0  0  0  0
 38 36  1  0  0  0  0
 39 38  2  0  0  0  0
M  END
>  <MODEL>
2

>  <REMARK>
 VINA RESULT:      -6.9      1.432      2.235
  Name = 
  6 active torsions:
  status: ('A' for Active; 'I' for Inactive)
    1  A    between atoms: N_10  and  C_16
    2  A    between atoms: N_13  and  C_24
    3  A    between atoms: C_17  and  C_31
    4  A    between atoms: C_17  and  C_34
    5  A    between atoms: C_19  and  C_28
    6  A    between atoms: C_24  and  C_39
                            x       y       z     vdW  Elec       q    Type
                         _______ _______ _______ _____ _____    ______ ____

>  <TORSDO>
F 6

$$$$
=
 OpenBabel11052411483D

 40 46  0  0  1  0  0  0  0  0999 V2000
  159.3150  213.8300  147.8550 C   0  0  0  0  0  3  0  0  0  0  0  0
  161.5490  212.4550  148.5360 S   0  0  0  0  0  0  0  0  0  0  0  0
  162.4710  214.2880  146.7480 N   0  0  0  0  0  2  0  0  0  0  0  0
  161.3620  213.3580  146.9860 C   0  0  2  0  0  0  0  0  0  0  0  0
  159.8250  212.9370  148.9570 C   0  0  1  0  0  3  0  0  0  0  0  0
  160.1010  214.0230  146.8660 N   0  0  0  0  0  0  0  0  0  0  0  0
  162.2410  213.1480  145.8330 C   0  0  1  0  0  3  0  0  0  0  0  0
  159.6990  213.5670  150.3680 C   0  0  0  0  0  0  0  0  0  0  0  0
  158.4650  214.4530  150.4170 C   0  0  0  0  0  1  0  0  0  0  0  0
  160.9140  214.4390  150.6750 C   0  0  0  0  0  1  0  0  0  0  0  0
  160.2530  209.3620  152.3810 C   0  0  2  0  0  3  0  0  0  0  0  0
  161.0090  207.3820  151.1000 C   0  0  0  0  0  1  0  0  0  0  0  0
  161.1990  209.3710  154.9900 C   0  0  0  0  0  2  0  0  0  0  0  0
  158.2760  212.0840  152.0110 C   0  0  0  0  0  3  0  0  0  0  0  0
  160.5220  211.7720  151.8530 N   0  0  0  0  0  0  0  0  0  0  0  0
  160.7160  211.1100  154.5060 S   0  0  0  0  0  0  0  0  0  0  0  0
  161.7670  209.2470  152.5540 C   0  0  2  0  0  3  0  0  0  0  0  0
  158.5390  211.0800  152.8330 C   0  0  0  0  0  3  0  0  0  0  0  0
  161.1110  208.8870  151.2360 C   0  0  2  0  0  3  0  0  0  0  0  0
  160.0080  210.8040  152.8160 C   0  0  2  0  0  0  0  0  0  0  0  0
  161.7830  208.4800  153.8600 C   0  0  0  0  0  2  0  0  0  0  0  0
  159.5430  212.5040  151.4330 C   0  0  0  0  0  0  0  0  0  0  0  0
  161.6070  213.6210  144.5340 C   0  0  0  0  0  2  0  0  0  0  0  0
  163.0960  214.2330  141.7560 C   0  0  0  0  0  1  0  0  0  0  0  0
  161.3100  211.7680  140.2160 N   0  0  0  0  0  0  0  0  0  0  0  0
  161.2540  212.4760  143.7100 N   0  0  0  0  0  2  0  0  0  0  0  0
  161.6310  213.1490  140.1100 C   0  0  0  0  0  0  0  0  0  0  0  0
  161.3910  212.5010  142.2870 C   0  0  0  0  0  0  0  0  0  0  0  0
  161.1910  211.4450  141.5670 N   0  0  0  0  0  0  0  0  0  0  0  0
  161.4940  213.8590  138.9940 C   0  0  0  0  0  2  0  0  0  0  0  0
  161.6850  213.7400  141.4770 C   0  0  1  0  0  3  0  0  0  0  0  0
  159.9450  209.6320  137.4660 N   0  0  0  0  0  2  0  0  0  0  0  0
  160.2370  208.3340  138.0680 C   0  0  0  0  0  2  0  0  0  0  0  0
  159.9400  210.6450  138.5170 C   0  0  0  0  0  2  0  0  0  0  0  0
  161.3260  210.7630  139.1580 C   0  0  2  0  0  3  0  0  0  0  0  0
  161.6540  208.3350  138.6360 C   0  0  1  0  0  3  0  0  0  0  0  0
  161.7850  209.4120  139.7060 C   0  0  0  0  0  2  0  0  0  0  0  0
  162.0050  206.9950  139.1870 C   0  0  0  0  0  0  0  0  0  0  0  0
  162.3280  206.0660  138.4030 O   0  0  0  0  0  0  0  0  0  0  0  0
  162.0030  206.7680  140.5600 O   0  0  0  0  0  1  0  0  0  0  0  0
  1  5  1  0  0  0  0
  2  5  1  0  0  0  0
  4  3  1  1  0  0  0
  4  2  1  0  0  0  0
  5  8  1  1  0  0  0
  6  4  1  0  0  0  0
  6  1  2  0  0  0  0
  7 23  1  6  0  0  0
  7  3  1  0  0  0  0
  7  4  1  0  0  0  0
  8  9  1  0  0  0  0
  8 10  1  0  0  0  0
  8 22  1  0  0  0  0
 11 17  1  0  0  0  0
 11 20  1  0  0  0  0
 12 19  1  0  0  0  0
 14 18  2  0  0  0  0
 15 20  1  0  0  0  0
 16 13  1  0  0  0  0
 17 21  1  0  0  0  0
 19 11  1  0  0  0  0
 19 17  1  0  0  0  0
 20 18  1  0  0  0  0
 20 16  1  0  0  0  0
 21 13  1  0  0  0  0
 22 15  2  0  0  0  0
 22 14  1  0  0  0  0
 25 29  1  0  0  0  0
 26 23  1  0  0  0  0
 27 25  1  0  0  0  0
 27 31  1  0  0  0  0
 28 26  1  0  0  0  0
 29 28  2  0  0  0  0
 30 27  2  0  0  0  0
 31 24  1  0  0  0  0
 31 28  1  0  0  0  0
 32 33  1  0  0  0  0
 32 34  1  0  0  0  0
 33 36  1  0  0  0  0
 34 35  1  0  0  0  0
 35 37  1  0  0  0  0
 35 25  1  0  0  0  0
 36 38  1  0  0  0  0
 36 37  1  0  0  0  0
 38 40  1  0  0  0  0
 39 38  2  0  0  0  0
M  END
>  <MODEL>
3

>  <REMARK>
 VINA RESULT:      -6.5      3.432     11.073
  Name = 
  6 active torsions:
  status: ('A' for Active; 'I' for Inactive)
    1  A    between atoms: N_10  and  C_16
    2  A    between atoms: N_13  and  C_24
    3  A    between atoms: C_17  and  C_31
    4  A    between atoms: C_17  and  C_34
    5  A    between atoms: C_19  and  C_28
    6  A    between atoms: C_24  and  C_39
                            x       y       z     vdW  Elec       q    Type
                         _______ _______ _______ _____ _____    ______ ____

>  <TORSDO>
F 6

$$$$
=
 OpenBabel11052411483D

 40 46  0  0  1  0  0  0  0  0999 V2000
  159.9070  210.5050  152.3970 C   0  0  0  0  0  3  0  0  0  0  0  0
  158.9260  210.0860  154.8890 S   0  0  0  0  0  0  0  0  0  0  0  0
  161.5760  209.5270  155.1630 N   0  0  0  0  0  2  0  0  0  0  0  0
  160.4350  209.3210  154.2640 C   0  0  2  0  0  0  0  0  0  0  0  0
  158.7120  210.8730  153.2410 C   0  0  1  0  0  3  0  0  0  0  0  0
  160.7590  209.7150  152.9280 N   0  0  0  0  0  0  0  0  0  0  0  0
  161.0630  208.1630  154.9060 C   0  0  1  0  0  3  0  0  0  0  0  0
  158.4660  212.4010  153.3260 C   0  0  0  0  0  0  0  0  0  0  0  0
  159.7070  213.0820  153.8770 C   0  0  0  0  0  1  0  0  0  0  0  0
  157.3060  212.7040  154.2710 C   0  0  0  0  0  1  0  0  0  0  0  0
  159.4650  213.9400  149.0040 C   0  0  2  0  0  3  0  0  0  0  0  0
  161.7830  214.4530  148.2960 C   0  0  0  0  0  1  0  0  0  0  0  0
  157.9280  212.8900  146.9470 C   0  0  0  0  0  2  0  0  0  0  0  0
  157.4650  214.2290  151.7190 C   0  0  0  0  0  3  0  0  0  0  0  0
  158.6730  212.5030  150.8650 N   0  0  0  0  0  0  0  0  0  0  0  0
  157.1530  212.4370  148.5850 S   0  0  0  0  0  0  0  0  0  0  0  0
  160.0230  212.7010  148.3060 C   0  0  2  0  0  3  0  0  0  0  0  0
  157.5060  214.4530  150.4140 C   0  0  0  0  0  3  0  0  0  0  0  0
  160.9180  213.5680  149.1690 C   0  0  2  0  0  3  0  0  0  0  0  0
  158.2720  213.3540  149.7510 C   0  0  2  0  0  0  0  0  0  0  0  0
  159.4790  212.9650  146.9170 C   0  0  0  0  0  2  0  0  0  0  0  0
  158.1880  212.9890  151.9600 C   0  0  0  0  0  0  0  0  0  0  0  0
  161.9870  207.4130  153.9580 C   0  0  0  0  0  2  0  0  0  0  0  0
  162.8230  206.9720  150.8890 C   0  0  0  0  0  1  0  0  0  0  0  0
  160.6590  204.3460  150.6420 N   0  0  0  0  0  0  0  0  0  0  0  0
  161.4220  206.1100  153.6450 N   0  0  0  0  0  2  0  0  0  0  0  0
  160.9880  205.5850  150.0260 C   0  0  0  0  0  0  0  0  0  0  0  0
  161.2320  205.6760  152.2960 C   0  0  0  0  0  0  0  0  0  0  0  0
  160.8410  204.4740  152.0180 N   0  0  0  0  0  0  0  0  0  0  0  0
  160.6220  205.9210  148.7940 C   0  0  0  0  0  2  0  0  0  0  0  0
  161.3710  206.5630  151.0830 C   0  0  1  0  0  3  0  0  0  0  0  0
  161.0300  200.6870  149.9600 N   0  0  0  0  0  2  0  0  0  0  0  0
  161.4360  200.7920  148.5610 C   0  0  0  0  0  2  0  0  0  0  0  0
  161.2700  201.9690  150.6150 C   0  0  0  0  0  2  0  0  0  0  0  0
  160.4030  203.0650  149.9910 C   0  0  2  0  0  3  0  0  0  0  0  0
  160.5390  201.7930  147.8370 C   0  0  1  0  0  3  0  0  0  0  0  0
  160.6590  203.1660  148.4870 C   0  0  0  0  0  2  0  0  0  0  0  0
  160.8830  201.8600  146.3880 C   0  0  0  0  0  0  0  0  0  0  0  0
  161.6380  202.7760  145.9700 O   0  0  0  0  0  1  0  0  0  0  0  0
  160.4000  200.9070  145.4970 O   0  0  0  0  0  0  0  0  0  0  0  0
  1  6  2  0  0  0  0
  1  5  1  0  0  0  0
  4  6  1  6  0  0  0
  4  2  1  0  0  0  0
  4  7  1  0  0  0  0
  4  3  1  0  0  0  0
  5  8  1  1  0  0  0
  5  2  1  0  0  0  0
  7 23  1  6  0  0  0
  7  3  1  0  0  0  0
  8  9  1  0  0  0  0
  8 10  1  0  0  0  0
 11 19  1  0  0  0  0
 11 20  1  0  0  0  0
 12 19  1  0  0  0  0
 13 16  1  0  0  0  0
 14 22  1  0  0  0  0
 15 22  2  0  0  0  0
 16 20  1  0  0  0  0
 17 11  1  0  0  0  0
 17 19  1  0  0  0  0
 18 14  2  0  0  0  0
 20 18  1  0  0  0  0
 20 15  1  0  0  0  0
 21 13  1  0  0  0  0
 21 17  1  0  0  0  0
 22  8  1  0  0  0  0
 24 31  1  0  0  0  0
 25 29  1  0  0  0  0
 26 23  1  0  0  0  0
 27 25  1  0  0  0  0
 27 31  1  0  0  0  0
 28 26  1  0  0  0  0
 29 28  2  0  0  0  0
 30 27  2  0  0  0  0
 31 28  1  0  0  0  0
 32 34  1  0  0  0  0
 33 32  1  0  0  0  0
 35 34  1  0  0  0  0
 35 25  1  0  0  0  0
 36 37  1  0  0  0  0
 36 33  1  0  0  0  0
 37 35  1  0  0  0  0
 38 36  1  0  0  0  0
 39 38  1  0  0  0  0
 40 38  2  0  0  0  0
M  END
>  <MODEL>
4

>  <REMARK>
 VINA RESULT:      -6.3      5.470      8.267
  Name = 
  6 active torsions:
  status: ('A' for Active; 'I' for Inactive)
    1  A    between atoms: N_10  and  C_16
    2  A    between atoms: N_13  and  C_24
    3  A    between atoms: C_17  and  C_31
    4  A    between atoms: C_17  and  C_34
    5  A    between atoms: C_19  and  C_28
    6  A    between atoms: C_24  and  C_39
                            x       y       z     vdW  Elec       q    Type
                         _______ _______ _______ _____ _____    ______ ____

>  <TORSDO>
F 6

$$$$
=
 OpenBabel11052411483D

 40 46  0  0  1  0  0  0  0  0999 V2000
  161.9990  209.1470  155.4730 C   0  0  0  0  0  3  0  0  0  0  0  0
  159.6370  209.3570  154.1610 S   0  0  0  0  0  0  0  0  0  0  0  0
  159.7070  206.7370  154.8970 N   0  0  0  0  0  2  0  0  0  0  0  0
  160.5450  207.8100  154.3500 C   0  0  2  0  0  0  0  0  0  0  0  0
  161.0060  210.2010  155.0540 C   0  0  1  0  0  3  0  0  0  0  0  0
  161.7540  207.9500  155.1010 N   0  0  0  0  0  0  0  0  0  0  0  0
  160.2710  206.6240  153.5340 C   0  0  1  0  0  3  0  0  0  0  0  0
  160.5120  211.0840  156.2280 C   0  0  0  0  0  0  0  0  0  0  0  0
  161.7090  211.6340  156.9840 C   0  0  0  0  0  1  0  0  0  0  0  0
  159.6810  210.2570  157.2050 C   0  0  0  0  0  1  0  0  0  0  0  0
  158.8220  214.1340  153.0840 C   0  0  2  0  0  3  0  0  0  0  0  0
  159.8420  214.4130  150.8450 C   0  0  0  0  0  1  0  0  0  0  0  0
  156.0660  214.4530  153.0500 C   0  0  0  0  0  2  0  0  0  0  0  0
  159.7400  213.5990  156.2980 C   0  0  0  0  0  3  0  0  0  0  0  0
  158.9810  212.2210  154.6570 N   0  0  0  0  0  0  0  0  0  0  0  0
  156.5540  213.4930  154.5760 S   0  0  0  0  0  0  0  0  0  0  0  0
  158.0500  213.2490  152.1080 C   0  0  2  0  0  3  0  0  0  0  0  0
  158.9730  214.3640  155.5370 C   0  0  0  0  0  3  0  0  0  0  0  0
  159.5460  213.4340  151.9620 C   0  0  2  0  0  3  0  0  0  0  0  0
  158.4050  213.5420  154.4260 C   0  0  2  0  0  0  0  0  0  0  0  0
  156.9260  214.2090  151.7800 C   0  0  0  0  0  2  0  0  0  0  0  0
  159.7040  212.2610  155.7270 C   0  0  0  0  0  0  0  0  0  0  0  0
  161.4450  205.6560  153.5170 C   0  0  0  0  0  2  0  0  0  0  0  0
  162.6940  207.5080  151.2120 C   0  0  0  0  0  1  0  0  0  0  0  0
  161.5420  205.3670  148.8190 N   0  0  0  0  0  0  0  0  0  0  0  0
  161.3700  204.8100  152.3360 N   0  0  0  0  0  2  0  0  0  0  0  0
  161.5120  206.7360  149.2020 C   0  0  0  0  0  0  0  0  0  0  0  0
  161.4750  205.3490  151.0170 C   0  0  0  0  0  0  0  0  0  0  0  0
  161.5280  204.5850  149.9740 N   0  0  0  0  0  0  0  0  0  0  0  0
  161.1880  207.7290  148.3800 C   0  0  0  0  0  2  0  0  0  0  0  0
  161.4430  206.8210  150.6880 C   0  0  1  0  0  3  0  0  0  0  0  0
  161.4290  205.1850  145.0860 N   0  0  0  0  0  2  0  0  0  0  0  0
  160.7180  203.9150  144.9760 C   0  0  0  0  0  2  0  0  0  0  0  0
  161.2000  205.7370  146.4170 C   0  0  0  0  0  2  0  0  0  0  0  0
  161.7870  204.8160  147.4900 C   0  0  2  0  0  3  0  0  0  0  0  0
  161.3220  202.9010  145.9440 C   0  0  1  0  0  3  0  0  0  0  0  0
  161.1990  203.4090  147.3750 C   0  0  0  0  0  2  0  0  0  0  0  0
  160.6650  201.5700  145.7950 C   0  0  0  0  0  0  0  0  0  0  0  0
  159.6780  201.4470  145.0240 O   0  0  0  0  0  0  0  0  0  0  0  0
  161.1470  200.4590  146.4790 O   0  0  0  0  0  1  0  0  0  0  0  0
  2  5  1  0  0  0  0
  4  2  1  6  0  0  0
  4  3  1  0  0  0  0
  4  6  1  0  0  0  0
  5  1  1  0  0  0  0
  5  8  1  1  0  0  0
  6  1  2  0  0  0  0
  7 23  1  1  0  0  0
  7  4  1  0  0  0  0
  7  3  1  0  0  0  0
  8  9  1  0  0  0  0
  8 10  1  0  0  0  0
 11 20  1  0  0  0  0
 12 19  1  0  0  0  0
 13 16  1  0  0  0  0
 15 22  2  0  0  0  0
 17 11  1  0  0  0  0
 18 14  2  0  0  0  0
 19 17  1  0  0  0  0
 19 11  1  0  0  0  0
 20 16  1  0  0  0  0
 20 15  1  0  0  0  0
 20 18  1  0  0  0  0
 21 17  1  0  0  0  0
 21 13  1  0  0  0  0
 22  8  1  0  0  0  0
 22 14  1  0  0  0  0
 25 27  1  0  0  0  0
 25 29  1  0  0  0  0
 26 23  1  0  0  0  0
 27 31  1  0  0  0  0
 28 26  1  0  0  0  0
 29 28  2  0  0  0  0
 30 27  2  0  0  0  0
 31 28  1  0  0  0  0
 31 24  1  0  0  0  0
 32 34  1  0  0  0  0
 33 32  1  0  0  0  0
 33 36  1  0  0  0  0
 34 35  1  0  0  0  0
 35 25  1  0  0  0  0
 36 37  1  0  0  0  0
 37 35  1  0  0  0  0
 38 36  1  0  0  0  0
 38 40  1  0  0  0  0
 39 38  2  0  0  0  0
M  END
>  <MODEL>
5

>  <REMARK>
 VINA RESULT:      -6.0      6.976     10.750
  Name = 
  6 active torsions:
  status: ('A' for Active; 'I' for Inactive)
    1  A    between atoms: N_10  and  C_16
    2  A    between atoms: N_13  and  C_24
    3  A    between atoms: C_17  and  C_31
    4  A    between atoms: C_17  and  C_34
    5  A    between atoms: C_19  and  C_28
    6  A    between atoms: C_24  and  C_39
                            x       y       z     vdW  Elec       q    Type
                         _______ _______ _______ _____ _____    ______ ____

>  <TORSDO>
F 6

$$$$
=
 OpenBabel11052411483D

 40 46  0  0  1  0  0  0  0  0999 V2000
  162.2400  212.0060  146.7860 C   0  0  0  0  0  3  0  0  0  0  0  0
  159.7560  212.2850  147.8360 S   0  0  0  0  0  0  0  0  0  0  0  0
  161.3840  212.6750  149.9820 N   0  0  0  0  0  2  0  0  0  0  0  0
  161.2070  211.8210  148.8020 C   0  0  2  0  0  0  0  0  0  0  0  0
  160.8290  212.2950  146.3410 C   0  0  1  0  0  3  0  0  0  0  0  0
  162.4090  211.7610  148.0290 N   0  0  0  0  0  0  0  0  0  0  0  0
  161.1140  211.2290  150.1390 C   0  0  1  0  0  3  0  0  0  0  0  0
  160.7000  213.5970  145.5110 C   0  0  0  0  0  0  0  0  0  0  0  0
  161.9780  214.4080  145.6430 C   0  0  0  0  0  1  0  0  0  0  0  0
  159.5470  214.4520  146.0320 C   0  0  0  0  0  1  0  0  0  0  0  0
  161.8510  213.2830  140.9700 C   0  0  2  0  0  3  0  0  0  0  0  0
  163.8260  214.4480  140.0320 C   0  0  0  0  0  1  0  0  0  0  0  0
  161.3790  210.8340  139.7560 C   0  0  0  0  0  2  0  0  0  0  0  0
  159.3880  213.7830  143.2370 C   0  0  0  0  0  3  0  0  0  0  0  0
  161.3630  212.6620  143.3220 N   0  0  0  0  0  0  0  0  0  0  0  0
  160.5390  210.8640  141.4240 S   0  0  0  0  0  0  0  0  0  0  0  0
  163.0150  212.2940  140.9660 C   0  0  2  0  0  3  0  0  0  0  0  0
  159.6070  213.3830  141.9940 C   0  0  0  0  0  3  0  0  0  0  0  0
  163.2520  213.7630  141.2550 C   0  0  2  0  0  3  0  0  0  0  0  0
  160.8870  212.6140  141.9440 C   0  0  2  0  0  0  0  0  0  0  0  0
  162.7200  211.6100  139.6470 C   0  0  0  0  0  2  0  0  0  0  0  0
  160.4970  213.2950  144.0430 C   0  0  0  0  0  0  0  0  0  0  0  0
  162.3840  210.4850  150.5270 C   0  0  0  0  0  2  0  0  0  0  0  0
  160.3340  209.0640  152.5480 C   0  0  0  0  0  1  0  0  0  0  0  0
  161.2490  205.9950  151.3720 N   0  0  0  0  0  0  0  0  0  0  0  0
  162.3260  209.1180  150.0330 N   0  0  0  0  0  2  0  0  0  0  0  0
  161.1310  206.7400  152.5770 C   0  0  0  0  0  0  0  0  0  0  0  0
  161.8270  208.0480  150.8380 C   0  0  0  0  0  0  0  0  0  0  0  0
  161.6650  206.8570  150.3580 N   0  0  0  0  0  0  0  0  0  0  0  0
  161.0810  206.1920  153.7870 C   0  0  0  0  0  2  0  0  0  0  0  0
  161.5280  208.1520  152.3130 C   0  0  1  0  0  3  0  0  0  0  0  0
  161.0880  202.2830  151.7960 N   0  0  0  0  0  2  0  0  0  0  0  0
  161.4710  201.9160  150.4350 C   0  0  0  0  0  2  0  0  0  0  0  0
  161.5210  203.6520  152.0520 C   0  0  0  0  0  2  0  0  0  0  0  0
  160.8010  204.6290  151.1190 C   0  0  2  0  0  3  0  0  0  0  0  0
  160.7050  202.7780  149.4350 C   0  0  1  0  0  3  0  0  0  0  0  0
  161.0320  204.2500  149.6560 C   0  0  0  0  0  2  0  0  0  0  0  0
  161.0200  202.3700  148.0350 C   0  0  0  0  0  0  0  0  0  0  0  0
  161.4360  203.2300  147.2160 O   0  0  0  0  0  0  0  0  0  0  0  0
  160.8850  201.0450  147.6330 O   0  0  0  0  0  1  0  0  0  0  0  0
  1  6  2  0  0  0  0
  3  7  1  0  0  0  0
  4  2  1  6  0  0  0
  4  3  1  0  0  0  0
  4  7  1  0  0  0  0
  5  8  1  1  0  0  0
  5  1  1  0  0  0  0
  5  2  1  0  0  0  0
  6  4  1  0  0  0  0
  7 23  1  6  0  0  0
  8  9  1  0  0  0  0
  8 10  1  0  0  0  0
 11 19  1  0  0  0  0
 11 20  1  0  0  0  0
 12 19  1  0  0  0  0
 13 16  1  0  0  0  0
 14 22  1  0  0  0  0
 15 22  2  0  0  0  0
 16 20  1  0  0  0  0
 17 11  1  0  0  0  0
 17 19  1  0  0  0  0
 18 14  2  0  0  0  0
 20 18  1  0  0  0  0
 20 15  1  0  0  0  0
 21 13  1  0  0  0  0
 21 17  1  0  0  0  0
 22  8  1  0  0  0  0
 25 27  1  0  0  0  0
 26 23  1  0  0  0  0
 26 28  1  0  0  0  0
 27 30  2  0  0  0  0
 28 31  1  0  0  0  0
 29 28  2  0  0  0  0
 29 25  1  0  0  0  0
 31 24  1  0  0  0  0
 31 27  1  0  0  0  0
 32 34  1  0  0  0  0
 33 32  1  0  0  0  0
 35 25  1  0  0  0  0
 35 34  1  0  0  0  0
 36 37  1  0  0  0  0
 36 33  1  0  0  0  0
 37 35  1  0  0  0  0
 38 36  1  0  0  0  0
 39 38  2  0  0  0  0
 40 38  1  0  0  0  0
M  END
>  <MODEL>
6

>  <REMARK>
 VINA RESULT:      -5.6      1.699      2.698
  Name = 
  6 active torsions:
  status: ('A' for Active; 'I' for Inactive)
    1  A    between atoms: N_10  and  C_16
    2  A    between atoms: N_13  and  C_24
    3  A    between atoms: C_17  and  C_31
    4  A    between atoms: C_17  and  C_34
    5  A    between atoms: C_19  and  C_28
    6  A    between atoms: C_24  and  C_39
                            x       y       z     vdW  Elec       q    Type
                         _______ _______ _______ _____ _____    ______ ____

>  <TORSDO>
F 6

$$$$
=
 OpenBabel11052411483D

 40 46  0  0  1  0  0  0  0  0999 V2000
  160.6810  208.0580  153.6550 C   0  0  0  0  0  3  0  0  0  0  0  0
  162.5470  209.9620  154.1430 S   0  0  0  0  0  0  0  0  0  0  0  0
  161.2190  210.9350  151.9750 N   0  0  0  0  0  2  0  0  0  0  0  0
  161.7810  209.6990  152.5310 C   0  0  2  0  0  0  0  0  0  0  0  0
  161.5700  208.5380  154.7740 C   0  0  1  0  0  3  0  0  0  0  0  0
  160.8080  208.6500  152.5310 N   0  0  0  0  0  0  0  0  0  0  0  0
  162.3350  210.2450  151.2900 C   0  0  1  0  0  3  0  0  0  0  0  0
  160.7970  208.8630  156.0780 C   0  0  0  0  0  0  0  0  0  0  0  0
  161.7500  208.7910  157.2600 C   0  0  0  0  0  1  0  0  0  0  0  0
  159.6860  207.8430  156.3100 C   0  0  0  0  0  1  0  0  0  0  0  0
  158.5840  212.5680  154.2290 C   0  0  2  0  0  3  0  0  0  0  0  0
  158.2130  212.7930  151.7900 C   0  0  0  0  0  1  0  0  0  0  0  0
  156.5010  213.6220  155.7280 C   0  0  0  0  0  2  0  0  0  0  0  0
  160.9410  211.4720  156.3960 C   0  0  0  0  0  3  0  0  0  0  0  0
  159.0460  210.5300  155.5660 N   0  0  0  0  0  0  0  0  0  0  0  0
  157.4620  212.4110  156.7780 S   0  0  0  0  0  0  0  0  0  0  0  0
  157.1880  212.0310  153.9200 C   0  0  2  0  0  3  0  0  0  0  0  0
  160.1340  212.4910  156.1490 C   0  0  0  0  0  3  0  0  0  0  0  0
  158.3280  211.8190  152.9450 C   0  0  2  0  0  3  0  0  0  0  0  0
  158.8400  211.9730  155.6100 C   0  0  2  0  0  0  0  0  0  0  0  0
  156.3970  213.2880  154.2150 C   0  0  0  0  0  2  0  0  0  0  0  0
  160.2180  210.2600  156.0390 C   0  0  0  0  0  0  0  0  0  0  0  0
  161.8310  209.5010  150.0610 C   0  0  0  0  0  2  0  0  0  0  0  0
  163.0860  207.3500  148.0360 C   0  0  0  0  0  1  0  0  0  0  0  0
  160.7360  205.0560  148.9620 N   0  0  0  0  0  0  0  0  0  0  0  0
  161.1940  208.2570  150.4640 N   0  0  0  0  0  2  0  0  0  0  0  0
  161.2790  205.7000  147.8160 C   0  0  0  0  0  0  0  0  0  0  0  0
  161.1750  207.1110  149.6100 C   0  0  0  0  0  0  0  0  0  0  0  0
  160.7140  205.9720  150.0140 N   0  0  0  0  0  0  0  0  0  0  0  0
  161.1450  205.2430  146.5750 C   0  0  0  0  0  2  0  0  0  0  0  0
  161.5880  207.1170  148.1590 C   0  0  1  0  0  3  0  0  0  0  0  0
  160.9350  201.6740  150.5460 N   0  0  0  0  0  2  0  0  0  0  0  0
  161.4680  200.9530  149.3930 C   0  0  0  0  0  2  0  0  0  0  0  0
  161.1970  203.0990  150.3690 C   0  0  0  0  0  2  0  0  0  0  0  0
  160.4580  203.6350  149.1400 C   0  0  2  0  0  3  0  0  0  0  0  0
  160.7010  201.3530  148.1350 C   0  0  1  0  0  3  0  0  0  0  0  0
  160.8500  202.8490  147.8880 C   0  0  0  0  0  2  0  0  0  0  0  0
  161.1740  200.5720  146.9560 C   0  0  0  0  0  0  0  0  0  0  0  0
  161.8970  199.5570  147.1320 O   0  0  0  0  0  1  0  0  0  0  0  0
  160.8030  200.9370  145.6660 O   0  0  0  0  0  0  0  0  0  0  0  0
  1  5  1  0  0  0  0
  2  5  1  0  0  0  0
  4  3  1  1  0  0  0
  4  2  1  0  0  0  0
  5  8  1  1  0  0  0
  6  4  1  0  0  0  0
  6  1  2  0  0  0  0
  7 23  1  6  0  0  0
  7  3  1  0  0  0  0
  7  4  1  0  0  0  0
  8 10  1  0  0  0  0
  8  9  1  0  0  0  0
 11 20  1  0  0  0  0
 12 19  1  0  0  0  0
 13 16  1  0  0  0  0
 15 20  1  0  0  0  0
 15 22  2  0  0  0  0
 17 21  1  0  0  0  0
 17 11  1  0  0  0  0
 18 14  2  0  0  0  0
 19 17  1  0  0  0  0
 19 11  1  0  0  0  0
 20 18  1  0  0  0  0
 20 16  1  0  0  0  0
 21 13  1  0  0  0  0
 22  8  1  0  0  0  0
 22 14  1  0  0  0  0
 23 26  1  0  0  0  0
 24 31  1  0  0  0  0
 25 35  1  0  0  0  0
 25 29  1  0  0  0  0
 27 31  1  0  0  0  0
 27 25  1  0  0  0  0
 28 29  2  0  0  0  0
 28 26  1  0  0  0  0
 30 27  2  0  0  0  0
 31 28  1  0  0  0  0
 33 32  1  0  0  0  0
 34 32  1  0  0  0  0
 35 34  1  0  0  0  0
 36 33  1  0  0  0  0
 37 36  1  0  0  0  0
 37 35  1  0  0  0  0
 38 39  1  0  0  0  0
 38 36  1  0  0  0  0
 40 38  2  0  0  0  0
M  END
>  <MODEL>
7

>  <REMARK>
 VINA RESULT:      -5.2      7.104     10.896
  Name = 
  6 active torsions:
  status: ('A' for Active; 'I' for Inactive)
    1  A    between atoms: N_10  and  C_16
    2  A    between atoms: N_13  and  C_24
    3  A    between atoms: C_17  and  C_31
    4  A    between atoms: C_17  and  C_34
    5  A    between atoms: C_19  and  C_28
    6  A    between atoms: C_24  and  C_39
                            x       y       z     vdW  Elec       q    Type
                         _______ _______ _______ _____ _____    ______ ____

>  <TORSDO>
F 6

$$$$
=
 OpenBabel11052411483D

 40 46  0  0  1  0  0  0  0  0999 V2000
  162.3030  210.4320  148.7370 C   0  0  0  0  0  3  0  0  0  0  0  0
  160.5520  211.9930  150.0950 S   0  0  0  0  0  0  0  0  0  0  0  0
  162.1150  210.9530  152.0660 N   0  0  0  0  0  2  0  0  0  0  0  0
  161.4210  210.5910  150.8250 C   0  0  2  0  0  0  0  0  0  0  0  0
  161.3680  211.5900  148.4970 C   0  0  1  0  0  3  0  0  0  0  0  0
  162.3090  209.9370  149.9140 N   0  0  0  0  0  0  0  0  0  0  0  0
  161.0080  209.9710  152.0870 C   0  0  1  0  0  3  0  0  0  0  0  0
  162.0590  212.8140  147.8430 C   0  0  0  0  0  0  0  0  0  0  0  0
  163.4940  212.4570  147.4940 C   0  0  0  0  0  1  0  0  0  0  0  0
  162.0920  213.9910  148.8130 C   0  0  0  0  0  1  0  0  0  0  0  0
  161.6830  213.8870  143.2870 C   0  0  2  0  0  3  0  0  0  0  0  0
  163.6590  214.4530  141.9040 C   0  0  0  0  0  1  0  0  0  0  0  0
  159.7420  212.5080  141.8630 C   0  0  0  0  0  2  0  0  0  0  0  0
  160.4910  214.3740  146.4170 C   0  0  0  0  0  3  0  0  0  0  0  0
  161.5700  212.6360  145.4270 N   0  0  0  0  0  0  0  0  0  0  0  0
  159.4930  212.2070  143.6900 S   0  0  0  0  0  0  0  0  0  0  0  0
  162.1390  212.6100  142.5820 C   0  0  2  0  0  3  0  0  0  0  0  0
  160.1500  214.4440  145.1390 C   0  0  0  0  0  3  0  0  0  0  0  0
  163.1520  213.6260  143.0680 C   0  0  2  0  0  3  0  0  0  0  0  0
  160.8000  213.3230  144.3960 C   0  0  2  0  0  0  0  0  0  0  0  0
  161.2110  212.6740  141.3870 C   0  0  0  0  0  2  0  0  0  0  0  0
  161.3620  213.2180  146.5620 C   0  0  0  0  0  0  0  0  0  0  0  0
  161.5490  208.5560  152.2350 C   0  0  0  0  0  2  0  0  0  0  0  0
  160.8400  205.6440  153.3840 C   0  0  0  0  0  1  0  0  0  0  0  0
  161.0490  204.3170  150.2480 N   0  0  0  0  0  0  0  0  0  0  0  0
  161.2580  207.7880  151.0340 N   0  0  0  0  0  2  0  0  0  0  0  0
  161.5600  204.1570  151.5660 C   0  0  0  0  0  0  0  0  0  0  0  0
  161.2530  206.3590  151.0380 C   0  0  0  0  0  0  0  0  0  0  0  0
  160.8790  205.6790  150.0030 N   0  0  0  0  0  0  0  0  0  0  0  0
  162.1430  203.0470  152.0060 C   0  0  0  0  0  2  0  0  0  0  0  0
  161.7530  205.5030  152.1760 C   0  0  1  0  0  3  0  0  0  0  0  0
  160.6600  200.8800  148.8260 N   0  0  0  0  0  2  0  0  0  0  0  0
  161.1180  201.1790  147.4720 C   0  0  0  0  0  2  0  0  0  0  0  0
  161.1470  201.9210  149.7260 C   0  0  0  0  0  2  0  0  0  0  0  0
  160.5480  203.2790  149.3530 C   0  0  2  0  0  3  0  0  0  0  0  0
  160.4720  202.4720  146.9830 C   0  0  1  0  0  3  0  0  0  0  0  0
  160.8610  203.6270  147.8970 C   0  0  0  0  0  2  0  0  0  0  0  0
  160.8630  202.7590  145.5720 C   0  0  0  0  0  0  0  0  0  0  0  0
  161.9540  203.3370  145.3350 O   0  0  0  0  0  1  0  0  0  0  0  0
  160.0460  202.3690  144.5160 O   0  0  0  0  0  0  0  0  0  0  0  0
  1  6  2  0  0  0  0
  2  4  1  0  0  0  0
  3  7  1  0  0  0  0
  4  6  1  6  0  0  0
  4  3  1  0  0  0  0
  4  7  1  0  0  0  0
  5  8  1  1  0  0  0
  5  1  1  0  0  0  0
  5  2  1  0  0  0  0
  7 23  1  6  0  0  0
  8 10  1  0  0  0  0
  9  8  1  0  0  0  0
 11 20  1  0  0  0  0
 12 19  1  0  0  0  0
 13 16  1  0  0  0  0
 14 22  1  0  0  0  0
 15 22  2  0  0  0  0
 16 20  1  0  0  0  0
 17 19  1  0  0  0  0
 17 11  1  0  0  0  0
 18 14  2  0  0  0  0
 19 11  1  0  0  0  0
 20 18  1  0  0  0  0
 20 15  1  0  0  0  0
 21 13  1  0  0  0  0
 21 17  1  0  0  0  0
 22  8  1  0  0  0  0
 25 27  1  0  0  0  0
 26 28  1  0  0  0  0
 26 23  1  0  0  0  0
 27 30  2  0  0  0  0
 27 31  1  0  0  0  0
 28 31  1  0  0  0  0
 29 25  1  0  0  0  0
 29 28  2  0  0  0  0
 31 24  1  0  0  0  0
 32 34  1  0  0  0  0
 33 32  1  0  0  0  0
 35 34  1  0  0  0  0
 35 25  1  0  0  0  0
 36 33  1  0  0  0  0
 36 37  1  0  0  0  0
 37 35  1  0  0  0  0
 38 36  1  0  0  0  0
 39 38  1  0  0  0  0
 40 38  2  0  0  0  0
M  END
>  <MODEL>
8

>  <REMARK>
 VINA RESULT:      -5.1      2.407      5.087
  Name = 
  6 active torsions:
  status: ('A' for Active; 'I' for Inactive)
    1  A    between atoms: N_10  and  C_16
    2  A    between atoms: N_13  and  C_24
    3  A    between atoms: C_17  and  C_31
    4  A    between atoms: C_17  and  C_34
    5  A    between atoms: C_19  and  C_28
    6  A    between atoms: C_24  and  C_39
                            x       y       z     vdW  Elec       q    Type
                         _______ _______ _______ _____ _____    ______ ____

>  <TORSDO>
F 6

$$$$
=
 OpenBabel11052411483D

 40 46  0  0  1  0  0  0  0  0999 V2000
  160.0070  209.2550  155.0770 C   0  0  0  0  0  3  0  0  0  0  0  0
  160.4740  211.6090  153.8160 S   0  0  0  0  0  0  0  0  0  0  0  0
  160.3300  209.8240  151.7660 N   0  0  0  0  0  2  0  0  0  0  0  0
  160.8810  209.9980  153.1150 C   0  0  2  0  0  0  0  0  0  0  0  0
  159.8880  210.7380  155.3260 C   0  0  1  0  0  3  0  0  0  0  0  0
  160.5180  208.9030  153.9610 N   0  0  0  0  0  0  0  0  0  0  0  0
  161.7950  209.8330  151.9810 C   0  0  1  0  0  3  0  0  0  0  0  0
  158.4690  211.1760  155.7670 C   0  0  0  0  0  0  0  0  0  0  0  0
  158.5090  211.6340  157.2160 C   0  0  0  0  0  1  0  0  0  0  0  0
  157.4940  210.0060  155.6730 C   0  0  0  0  0  1  0  0  0  0  0  0
  158.0270  213.8730  151.9500 C   0  0  2  0  0  3  0  0  0  0  0  0
  159.6080  213.7270  150.0480 C   0  0  0  0  0  1  0  0  0  0  0  0
  155.4320  214.4310  151.1410 C   0  0  0  0  0  2  0  0  0  0  0  0
  158.0280  213.7340  155.3310 C   0  0  0  0  0  3  0  0  0  0  0  0
  157.5410  212.2050  153.7210 N   0  0  0  0  0  0  0  0  0  0  0  0
  155.3930  213.6650  152.8440 S   0  0  0  0  0  0  0  0  0  0  0  0
  157.4220  212.9270  150.9140 C   0  0  2  0  0  3  0  0  0  0  0  0
  157.5800  214.4460  154.3090 C   0  0  0  0  0  3  0  0  0  0  0  0
  158.9180  212.9530  151.1530 C   0  0  2  0  0  3  0  0  0  0  0  0
  157.2130  213.5240  153.1910 C   0  0  2  0  0  0  0  0  0  0  0  0
  156.5480  213.9270  150.1850 C   0  0  0  0  0  2  0  0  0  0  0  0
  157.9680  212.3350  154.9340 C   0  0  0  0  0  0  0  0  0  0  0  0
  162.3570  208.4220  151.8980 C   0  0  0  0  0  2  0  0  0  0  0  0
  160.2270  206.1770  151.0430 C   0  0  0  0  0  1  0  0  0  0  0  0
  162.0630  205.4450  148.2620 N   0  0  0  0  0  0  0  0  0  0  0  0
  162.7290  208.1180  150.5250 N   0  0  0  0  0  2  0  0  0  0  0  0
  161.4820  204.8380  149.4100 C   0  0  0  0  0  0  0  0  0  0  0  0
  162.2910  206.9240  149.8730 C   0  0  0  0  0  0  0  0  0  0  0  0
  162.5230  206.7130  148.6180 N   0  0  0  0  0  0  0  0  0  0  0  0
  161.2480  203.5350  149.5220 C   0  0  0  0  0  2  0  0  0  0  0  0
  161.6120  205.7690  150.5670 C   0  0  1  0  0  3  0  0  0  0  0  0
  161.0490  205.4400  144.6630 N   0  0  0  0  0  2  0  0  0  0  0  0
  160.4080  204.1280  144.6450 C   0  0  0  0  0  2  0  0  0  0  0  0
  161.1220  205.9070  146.0430 C   0  0  0  0  0  2  0  0  0  0  0  0
  162.0060  204.9790  146.8810 C   0  0  2  0  0  3  0  0  0  0  0  0
  161.2890  203.1140  145.3700 C   0  0  1  0  0  3  0  0  0  0  0  0
  161.4910  203.5410  146.8190 C   0  0  0  0  0  2  0  0  0  0  0  0
  160.6930  201.7490  145.2980 C   0  0  0  0  0  0  0  0  0  0  0  0
  159.7250  201.5330  144.5250 O   0  0  0  0  0  0  0  0  0  0  0  0
  161.2140  200.7060  146.0570 O   0  0  0  0  0  1  0  0  0  0  0  0
  1  5  1  0  0  0  0
  2  5  1  0  0  0  0
  3  7  1  0  0  0  0
  4  3  1  6  0  0  0
  4  2  1  0  0  0  0
  4  6  1  0  0  0  0
  5  8  1  6  0  0  0
  6  1  2  0  0  0  0
  7 23  1  1  0  0  0
  7  4  1  0  0  0  0
  8  9  1  0  0  0  0
 10  8  1  0  0  0  0
 11 20  1  0  0  0  0
 12 19  1  0  0  0  0
 13 16  1  0  0  0  0
 15 22  2  0  0  0  0
 16 20  1  0  0  0  0
 17 19  1  0  0  0  0
 17 11  1  0  0  0  0
 18 14  2  0  0  0  0
 19 11  1  0  0  0  0
 20 15  1  0  0  0  0
 20 18  1  0  0  0  0
 21 17  1  0  0  0  0
 21 13  1  0  0  0  0
 22 14  1  0  0  0  0
 22  8  1  0  0  0  0
 25 29  1  0  0  0  0
 25 27  1  0  0  0  0
 26 23  1  0  0  0  0
 27 30  2  0  0  0  0
 27 31  1  0  0  0  0
 28 26  1  0  0  0  0
 28 31  1  0  0  0  0
 29 28  2  0  0  0  0
 31 24  1  0  0  0  0
 32 34  1  0  0  0  0
 33 32  1  0  0  0  0
 33 36  1  0  0  0  0
 34 35  1  0  0  0  0
 35 25  1  0  0  0  0
 36 37  1  0  0  0  0
 37 35  1  0  0  0  0
 38 36  1  0  0  0  0
 38 40  1  0  0  0  0
 39 38  2  0  0  0  0
M  END
>  <MODEL>
9

>  <REMARK>
 VINA RESULT:      -5.0      6.520     10.044
  Name = 
  6 active torsions:
  status: ('A' for Active; 'I' for Inactive)
    1  A    between atoms: N_10  and  C_16
    2  A    between atoms: N_13  and  C_24
    3  A    between atoms: C_17  and  C_31
    4  A    between atoms: C_17  and  C_34
    5  A    between atoms: C_19  and  C_28
    6  A    between atoms: C_24  and  C_39
                            x       y       z     vdW  Elec       q    Type
                         _______ _______ _______ _____ _____    ______ ____

>  <TORSDO>
F 6

$$$$
