=
 OpenBabel11052410123D

 48 50  0  0  1  0  0  0  0  0999 V2000
  160.4240  208.9540  154.0180 C   0  0  0  0  0  0  0  0  0  0  0  0
  160.1940  206.9910  156.3840 C   0  0  0  0  0  3  0  0  0  0  0  0
  159.6910  209.6020  155.1550 C   0  0  0  0  0  2  0  0  0  0  0  0
  160.5540  207.6060  153.9520 C   0  0  0  0  0  0  0  0  0  0  0  0
  160.6130  208.2670  156.9940 C   0  0  0  0  0  3  0  0  0  0  0  0
  160.4480  209.4680  156.4400 C   0  0  0  0  0  0  0  0  0  0  0  0
  160.1610  206.7140  155.0730 C   0  0  0  0  0  3  0  0  0  0  0  0
  161.9310  206.0010  152.8790 O   0  0  0  0  0  0  0  0  0  0  0  0
  160.5800  207.2550  151.4400 N   0  0  0  0  0  2  0  0  0  0  0  0
  161.0780  206.9190  152.7430 C   0  0  0  0  0  0  0  0  0  0  0  0
  161.8330  205.6660  147.7100 C   0  0  0  0  0  0  0  0  0  0  0  0
  162.0940  207.0000  148.0360 C   0  0  0  0  0  3  0  0  0  0  0  0
  160.9930  206.7020  150.1810 C   0  0  0  0  0  0  0  0  0  0  0  0
  161.1470  204.8500  148.6130 C   0  0  0  0  0  3  0  0  0  0  0  0
  160.7300  205.3650  149.8440 C   0  0  0  0  0  3  0  0  0  0  0  0
  161.6790  207.5170  149.2680 C   0  0  0  0  0  0  0  0  0  0  0  0
  161.9540  208.8440  149.5790 O   0  0  0  0  0  1  0  0  0  0  0  0
  162.2630  205.1220  146.3920 C   0  0  0  0  0  2  0  0  0  0  0  0
  161.0540  204.7300  145.5650 C   0  0  2  0  0  3  0  0  0  0  0  0
  161.3740  204.8890  144.1390 N   0  0  0  0  0  2  0  0  0  0  0  0
  160.5620  205.8930  144.8390 C   0  0  0  0  0  2  0  0  0  0  0  0
  160.9650  210.5800  157.1210 O   0  0  0  0  0  0  0  0  0  0  0  0
  160.4530  211.8850  157.0820 C   0  0  0  0  0  0  0  0  0  0  0  0
  161.1920  212.8820  156.8670 O   0  0  0  0  0  0  0  0  0  0  0  0
  158.9920  212.0920  157.2610 C   0  0  0  0  0  2  0  0  0  0  0  0
  158.4750  213.0350  156.1950 C   0  0  0  0  0  2  0  0  0  0  0  0
  157.0970  213.5290  156.5800 C   0  0  0  0  0  2  0  0  0  0  0  0
  154.6280  212.4020  156.4210 O   0  0  0  0  0  1  0  0  0  0  0  0
  156.4740  211.2350  154.9810 O   0  0  0  0  0  1  0  0  0  0  0  0
  155.8440  212.6890  155.5710 P   0  0  0  0  0  0  0  0  0  0  0  0
  155.4000  213.6800  154.2740 O   0  0  0  0  0  0  0  0  0  0  0  0
  160.9950  209.8580  152.9530 C   0  0  1  0  0  3  0  0  0  0  0  0
  160.0070  210.8910  152.4680 C   0  0  0  0  0  0  0  0  0  0  0  0
  158.7670  210.6680  152.5510 O   0  0  0  0  0  0  0  0  0  0  0  0
  160.4710  212.0810  151.8220 N   0  0  0  0  0  2  0  0  0  0  0  0
  158.9150  213.8270  152.4820 C   0  0  0  0  0  1  0  0  0  0  0  0
  159.5680  213.1030  151.3180 C   0  0  1  0  0  3  0  0  0  0  0  0
  161.0520  213.7010  149.4180 C   0  0  0  0  0  3  0  0  0  0  0  0
  160.3340  214.0710  150.4770 C   0  0  0  0  0  2  0  0  0  0  0  0
  161.1410  212.3330  149.0190 N   0  0  0  0  0  0  0  0  0  0  0  0
  162.0440  211.9190  147.9570 C   0  0  0  0  0  2  0  0  0  0  0  0
  162.4340  213.1100  147.0960 C   0  0  0  0  0  2  0  0  0  0  0  0
  161.6820  213.1120  145.9210 O   0  0  0  0  0  0  0  0  0  0  0  0
  162.5880  213.4680  144.9230 C   0  0  0  0  0  2  0  0  0  0  0  0
  161.9200  213.5840  143.7040 O   0  0  0  0  0  0  0  0  0  0  0  0
  162.7640  214.3640  142.9130 C   0  0  0  0  0  1  0  0  0  0  0  0
  162.2860  210.4610  153.4180 C   0  0  0  0  0  3  0  0  0  0  0  0
  163.2020  210.6480  152.6340 O   0  0  0  0  0  0  0  0  0  0  0  0
  1  3  1  0  0  0  0
  2  5  1  0  0  0  0
  3  6  1  0  0  0  0
  4  1  2  0  0  0  0
  4  7  1  0  0  0  0
  6  5  2  0  0  0  0
  6 22  1  0  0  0  0
  7  2  2  0  0  0  0
  9 10  1  0  0  0  0
 10  8  2  0  0  0  0
 10  4  1  0  0  0  0
 11 12  2  0  0  0  0
 11 14  1  0  0  0  0
 12 16  1  0  0  0  0
 13  9  1  0  0  0  0
 14 15  2  0  0  0  0
 15 13  1  0  0  0  0
 16 17  1  0  0  0  0
 16 13  2  0  0  0  0
 18 11  1  0  0  0  0
 19 18  1  1  0  0  0
 20 21  1  0  0  0  0
 20 19  1  0  0  0  0
 21 19  1  0  0  0  0
 23 22  1  0  0  0  0
 23 25  1  0  0  0  0
 24 23  2  0  0  0  0
 26 27  1  0  0  0  0
 26 25  1  0  0  0  0
 29 30  1  0  0  0  0
 30 28  1  0  0  0  0
 30 27  1  0  0  0  0
 31 30  2  0  0  0  0
 32 47  1  1  0  0  0
 32  1  1  0  0  0  0
 33 34  2  0  0  0  0
 33 32  1  0  0  0  0
 35 33  1  0  0  0  0
 37 35  1  0  0  0  0
 37 36  1  1  0  0  0
 38 39  1  0  0  0  0
 39 37  1  0  0  0  0
 40 38  2  0  0  0  0
 41 40  1  0  0  0  0
 42 41  1  0  0  0  0
 43 42  1  0  0  0  0
 44 43  1  0  0  0  0
 45 44  1  0  0  0  0
 46 45  1  0  0  0  0
 48 47  2  0  0  0  0
M  END
>  <MODEL>
1

>  <REMARK>
 VINA RESULT:      -5.5      0.000      0.000
  Name = 
  21 active torsions:
  status: ('A' for Active; 'I' for Inactive)
    1  A    between atoms: C_1  and  C_19
    2  A    between atoms: C_4  and  N_37
    3  A    between atoms: C_6  and  C_35
    4  A    between atoms: C_7  and  C_12
    5  A    between atoms: C_7  and  O_26
    6  A    between atoms: C_8  and  O_31
    7  A    between atoms: C_8  and  C_33
    8  A    between atoms: C_9  and  C_23
    9  A    between atoms: C_9  and  N_24
   10  A    between atoms: C_10  and  C_35
   11  A    between atoms: O_11  and  C_18
   12  A    between atoms: C_12  and  N_14
   13  A    between atoms: C_13  and  C_19
   14  A    between atoms: N_14  and  C_22
   15  A    between atoms: C_16  and  C_35
   16  A    between atoms: C_18  and  O_26
   17  A    between atoms: C_25  and  C_28
   18  A    between atoms: C_25  and  P_34
   19  A    between atoms: C_28  and  C_33
   20  A    between atoms: O_31  and  C_43
   21  A    between atoms: C_36  and  C_42
                            x       y       z     vdW  Elec       q    Type
                         _______ _______ _______ _____ _____    ______ ____

>  <TORSDO>
F 21

$$$$
=
 OpenBabel11052410123D

 48 50  0  0  1  0  0  0  0  0999 V2000
  160.3990  208.9870  154.1520 C   0  0  0  0  0  0  0  0  0  0  0  0
  160.7920  207.2300  156.6540 C   0  0  0  0  0  3  0  0  0  0  0  0
  159.7080  209.6070  155.3310 C   0  0  0  0  0  2  0  0  0  0  0  0
  160.7480  207.6770  154.1600 C   0  0  0  0  0  0  0  0  0  0  0  0
  161.0570  208.6060  157.1160 C   0  0  0  0  0  3  0  0  0  0  0  0
  160.6250  209.7110  156.5090 C   0  0  0  0  0  0  0  0  0  0  0  0
  160.6490  206.8360  155.3820 C   0  0  0  0  0  3  0  0  0  0  0  0
  162.1000  206.0710  153.0570 O   0  0  0  0  0  0  0  0  0  0  0  0
  160.6820  207.2920  151.6540 N   0  0  0  0  0  2  0  0  0  0  0  0
  161.2320  206.9790  152.9420 C   0  0  0  0  0  0  0  0  0  0  0  0
  161.7960  205.6690  147.8950 C   0  0  0  0  0  0  0  0  0  0  0  0
  161.7960  207.0520  148.0980 C   0  0  0  0  0  3  0  0  0  0  0  0
  161.0520  206.7260  150.3880 C   0  0  0  0  0  0  0  0  0  0  0  0
  161.4190  204.8130  148.9330 C   0  0  0  0  0  3  0  0  0  0  0  0
  161.0500  205.3380  150.1740 C   0  0  0  0  0  3  0  0  0  0  0  0
  161.4290  207.5800  149.3400 C   0  0  0  0  0  0  0  0  0  0  0  0
  161.4420  208.9580  149.5270 O   0  0  0  0  0  1  0  0  0  0  0  0
  162.1750  205.1100  146.5670 C   0  0  0  0  0  2  0  0  0  0  0  0
  160.9350  204.8530  145.7330 C   0  0  2  0  0  3  0  0  0  0  0  0
  161.3230  204.7250  144.3210 N   0  0  0  0  0  2  0  0  0  0  0  0
  160.7220  205.9690  144.8200 C   0  0  0  0  0  2  0  0  0  0  0  0
  161.0220  210.9470  157.0390 O   0  0  0  0  0  0  0  0  0  0  0  0
  160.3770  212.1770  156.8420 C   0  0  0  0  0  0  0  0  0  0  0  0
  160.9600  213.1530  156.3010 O   0  0  0  0  0  0  0  0  0  0  0  0
  158.9550  212.3180  157.2500 C   0  0  0  0  0  2  0  0  0  0  0  0
  158.2510  213.2840  156.3210 C   0  0  0  0  0  2  0  0  0  0  0  0
  157.0650  213.9000  157.0330 C   0  0  0  0  0  2  0  0  0  0  0  0
  155.3600  214.4530  154.9900 O   0  0  0  0  0  0  0  0  0  0  0  0
  154.2180  213.6230  157.1910 O   0  0  0  0  0  1  0  0  0  0  0  0
  155.5380  213.4920  156.1420 P   0  0  0  0  0  0  0  0  0  0  0  0
  155.6310  211.9120  155.5450 O   0  0  0  0  0  1  0  0  0  0  0  0
  160.6750  209.8740  152.9620 C   0  0  1  0  0  3  0  0  0  0  0  0
  159.5830  210.8860  152.7180 C   0  0  0  0  0  0  0  0  0  0  0  0
  158.3830  210.6000  152.9870 O   0  0  0  0  0  0  0  0  0  0  0  0
  159.8890  212.1350  152.0900 N   0  0  0  0  0  2  0  0  0  0  0  0
  158.1230  213.4730  153.0870 C   0  0  0  0  0  1  0  0  0  0  0  0
  158.8780  213.1420  151.8130 C   0  0  1  0  0  3  0  0  0  0  0  0
  160.5140  214.3310  150.3700 C   0  0  0  0  0  3  0  0  0  0  0  0
  159.5360  214.3710  151.2730 C   0  0  0  0  0  3  0  0  0  0  0  0
  161.0080  213.0930  149.8600 N   0  0  0  0  0  2  0  0  0  0  0  0
  160.8840  212.7610  148.4490 C   0  0  0  0  0  2  0  0  0  0  0  0
  159.7090  213.5000  147.8300 C   0  0  0  0  0  2  0  0  0  0  0  0
  158.5200  212.8280  148.1150 O   0  0  0  0  0  0  0  0  0  0  0  0
  157.5540  213.8310  148.1750 C   0  0  0  0  0  2  0  0  0  0  0  0
  156.4260  213.3530  148.8430 O   0  0  0  0  0  0  0  0  0  0  0  0
  155.5670  214.4510  148.9130 C   0  0  0  0  0  1  0  0  0  0  0  0
  162.0320  210.4980  153.0810 C   0  0  0  0  0  3  0  0  0  0  0  0
  162.8310  210.4260  152.1620 O   0  0  0  0  0  0  0  0  0  0  0  0
  1  4  2  0  0  0  0
  1  3  1  0  0  0  0
  2  5  1  0  0  0  0
  3  6  1  0  0  0  0
  4  7  1  0  0  0  0
  6 22  1  0  0  0  0
  6  5  2  0  0  0  0
  7  2  2  0  0  0  0
  9 10  1  0  0  0  0
 10  8  2  0  0  0  0
 10  4  1  0  0  0  0
 11 12  2  0  0  0  0
 11 14  1  0  0  0  0
 12 16  1  0  0  0  0
 13  9  1  0  0  0  0
 14 15  2  0  0  0  0
 15 13  1  0  0  0  0
 16 17  1  0  0  0  0
 16 13  2  0  0  0  0
 18 11  1  0  0  0  0
 19 18  1  1  0  0  0
 20 21  1  0  0  0  0
 20 19  1  0  0  0  0
 21 19  1  0  0  0  0
 23 22  1  0  0  0  0
 23 25  1  0  0  0  0
 24 23  2  0  0  0  0
 26 27  1  0  0  0  0
 26 25  1  0  0  0  0
 28 30  2  0  0  0  0
 30 27  1  0  0  0  0
 30 29  1  0  0  0  0
 31 30  1  0  0  0  0
 32 47  1  1  0  0  0
 32  1  1  0  0  0  0
 33 32  1  0  0  0  0
 33 34  2  0  0  0  0
 35 33  1  0  0  0  0
 37 35  1  0  0  0  0
 37 36  1  1  0  0  0
 38 39  2  0  0  0  0
 39 37  1  0  0  0  0
 40 38  1  0  0  0  0
 41 40  1  0  0  0  0
 42 43  1  0  0  0  0
 42 41  1  0  0  0  0
 43 44  1  0  0  0  0
 44 45  1  0  0  0  0
 45 46  1  0  0  0  0
 48 47  2  0  0  0  0
M  END
>  <MODEL>
2

>  <REMARK>
 VINA RESULT:      -4.9      1.576      2.263
  Name = 
  21 active torsions:
  status: ('A' for Active; 'I' for Inactive)
    1  A    between atoms: C_1  and  C_19
    2  A    between atoms: C_4  and  N_37
    3  A    between atoms: C_6  and  C_35
    4  A    between atoms: C_7  and  C_12
    5  A    between atoms: C_7  and  O_26
    6  A    between atoms: C_8  and  O_31
    7  A    between atoms: C_8  and  C_33
    8  A    between atoms: C_9  and  C_23
    9  A    between atoms: C_9  and  N_24
   10  A    between atoms: C_10  and  C_35
   11  A    between atoms: O_11  and  C_18
   12  A    between atoms: C_12  and  N_14
   13  A    between atoms: C_13  and  C_19
   14  A    between atoms: N_14  and  C_22
   15  A    between atoms: C_16  and  C_35
   16  A    between atoms: C_18  and  O_26
   17  A    between atoms: C_25  and  C_28
   18  A    between atoms: C_25  and  P_34
   19  A    between atoms: C_28  and  C_33
   20  A    between atoms: O_31  and  C_43
   21  A    between atoms: C_36  and  C_42
                            x       y       z     vdW  Elec       q    Type
                         _______ _______ _______ _____ _____    ______ ____

>  <TORSDO>
F 21

$$$$
=
 OpenBabel11052410123D

 48 50  0  0  1  0  0  0  0  0999 V2000
  160.4750  208.9710  153.7250 C   0  0  0  0  0  0  0  0  0  0  0  0
  160.4110  206.8270  155.9400 C   0  0  0  0  0  3  0  0  0  0  0  0
  159.6360  209.4440  154.8750 C   0  0  0  0  0  2  0  0  0  0  0  0
  160.7680  207.6560  153.5720 C   0  0  0  0  0  0  0  0  0  0  0  0
  160.6550  208.0960  156.6520 C   0  0  0  0  0  3  0  0  0  0  0  0
  160.3640  209.3070  156.1760 C   0  0  0  0  0  0  0  0  0  0  0  0
  160.4500  206.6440  154.6130 C   0  0  0  0  0  3  0  0  0  0  0  0
  162.6350  206.8430  152.3570 O   0  0  0  0  0  0  0  0  0  0  0  0
  160.6260  206.8840  151.1600 N   0  0  0  0  0  2  0  0  0  0  0  0
  161.4060  207.1250  152.3400 C   0  0  0  0  0  0  0  0  0  0  0  0
  162.0350  205.4870  147.4090 C   0  0  0  0  0  0  0  0  0  0  0  0
  162.2540  206.8110  147.8000 C   0  0  0  0  0  3  0  0  0  0  0  0
  161.0920  206.3960  149.8930 C   0  0  0  0  0  0  0  0  0  0  0  0
  161.3390  204.6180  148.2530 C   0  0  0  0  0  3  0  0  0  0  0  0
  160.8710  205.0690  149.4900 C   0  0  0  0  0  3  0  0  0  0  0  0
  161.7880  207.2640  149.0390 C   0  0  0  0  0  0  0  0  0  0  0  0
  162.0220  208.5820  149.4150 O   0  0  0  0  0  1  0  0  0  0  0  0
  162.5200  205.0110  146.0840 C   0  0  0  0  0  2  0  0  0  0  0  0
  161.9320  205.8590  144.9730 C   0  0  2  0  0  3  0  0  0  0  0  0
  160.4670  205.7570  145.0130 N   0  0  0  0  0  2  0  0  0  0  0  0
  161.2420  205.0030  144.0180 C   0  0  0  0  0  2  0  0  0  0  0  0
  160.7230  210.4180  156.9510 O   0  0  0  0  0  0  0  0  0  0  0  0
  161.8260  211.2570  156.7330 C   0  0  0  0  0  0  0  0  0  0  0  0
  161.8640  212.4340  157.1800 O   0  0  0  0  0  0  0  0  0  0  0  0
  162.9970  210.7290  155.9840 C   0  0  0  0  0  2  0  0  0  0  0  0
  164.2580  211.4240  156.4530 C   0  0  0  0  0  2  0  0  0  0  0  0
  165.2070  211.5940  155.2850 C   0  0  0  0  0  2  0  0  0  0  0  0
  166.8700  213.6710  154.7320 O   0  0  0  0  0  0  0  0  0  0  0  0
  167.9910  211.6500  155.9570 O   0  0  0  0  0  1  0  0  0  0  0  0
  166.6160  212.6200  155.7880 P   0  0  0  0  0  0  0  0  0  0  0  0
  166.2730  213.3760  157.2610 O   0  0  0  0  0  1  0  0  0  0  0  0
  160.9650  210.0110  152.7480 C   0  0  1  0  0  3  0  0  0  0  0  0
  160.2590  211.3370  152.8980 C   0  0  0  0  0  0  0  0  0  0  0  0
  159.9700  211.7730  154.0470 O   0  0  0  0  0  0  0  0  0  0  0  0
  159.8290  212.0570  151.7380 N   0  0  0  0  0  2  0  0  0  0  0  0
  159.8910  214.3820  151.0350 C   0  0  0  0  0  1  0  0  0  0  0  0
  159.1300  213.3290  151.8200 C   0  0  1  0  0  3  0  0  0  0  0  0
  157.4670  213.3380  149.9740 C   0  0  0  0  0  3  0  0  0  0  0  0
  157.7510  213.1730  151.2650 C   0  0  0  0  0  3  0  0  0  0  0  0
  158.4770  213.6860  149.0270 N   0  0  0  0  0  2  0  0  0  0  0  0
  158.3320  213.3530  147.6190 C   0  0  0  0  0  2  0  0  0  0  0  0
  159.5200  212.5350  147.1410 C   0  0  0  0  0  2  0  0  0  0  0  0
  160.6960  213.0290  147.7050 O   0  0  0  0  0  0  0  0  0  0  0  0
  161.5590  213.2060  146.6250 C   0  0  0  0  0  2  0  0  0  0  0  0
  162.8420  212.7880  146.9780 O   0  0  0  0  0  0  0  0  0  0  0  0
  162.6740  212.1240  148.1940 C   0  0  0  0  0  1  0  0  0  0  0  0
  162.4570  210.1340  152.8210 C   0  0  0  0  0  3  0  0  0  0  0  0
  163.1140  210.3300  151.8120 O   0  0  0  0  0  0  0  0  0  0  0  0
  1  3  1  0  0  0  0
  2  5  1  0  0  0  0
  3  6  1  0  0  0  0
  4  1  2  0  0  0  0
  4  7  1  0  0  0  0
  6  5  2  0  0  0  0
  6 22  1  0  0  0  0
  7  2  2  0  0  0  0
  9 10  1  0  0  0  0
 10  8  2  0  0  0  0
 10  4  1  0  0  0  0
 11 12  2  0  0  0  0
 11 14  1  0  0  0  0
 12 16  1  0  0  0  0
 13  9  1  0  0  0  0
 14 15  2  0  0  0  0
 15 13  1  0  0  0  0
 16 17  1  0  0  0  0
 16 13  2  0  0  0  0
 18 11  1  0  0  0  0
 19 20  1  0  0  0  0
 19 18  1  1  0  0  0
 21 19  1  0  0  0  0
 21 20  1  0  0  0  0
 23 22  1  0  0  0  0
 23 24  2  0  0  0  0
 25 26  1  0  0  0  0
 25 23  1  0  0  0  0
 27 30  1  0  0  0  0
 27 26  1  0  0  0  0
 28 30  2  0  0  0  0
 30 29  1  0  0  0  0
 30 31  1  0  0  0  0
 32 47  1  1  0  0  0
 32 33  1  0  0  0  0
 32  1  1  0  0  0  0
 33 34  2  0  0  0  0
 35 37  1  0  0  0  0
 35 33  1  0  0  0  0
 37 36  1  6  0  0  0
 38 39  2  0  0  0  0
 39 37  1  0  0  0  0
 40 38  1  0  0  0  0
 41 40  1  0  0  0  0
 42 41  1  0  0  0  0
 42 43  1  0  0  0  0
 44 45  1  0  0  0  0
 44 43  1  0  0  0  0
 45 46  1  0  0  0  0
 48 47  2  0  0  0  0
M  END
>  <MODEL>
3

>  <REMARK>
 VINA RESULT:      -4.6      2.549      4.062
  Name = 
  21 active torsions:
  status: ('A' for Active; 'I' for Inactive)
    1  A    between atoms: C_1  and  C_19
    2  A    between atoms: C_4  and  N_37
    3  A    between atoms: C_6  and  C_35
    4  A    between atoms: C_7  and  C_12
    5  A    between atoms: C_7  and  O_26
    6  A    between atoms: C_8  and  O_31
    7  A    between atoms: C_8  and  C_33
    8  A    between atoms: C_9  and  C_23
    9  A    between atoms: C_9  and  N_24
   10  A    between atoms: C_10  and  C_35
   11  A    between atoms: O_11  and  C_18
   12  A    between atoms: C_12  and  N_14
   13  A    between atoms: C_13  and  C_19
   14  A    between atoms: N_14  and  C_22
   15  A    between atoms: C_16  and  C_35
   16  A    between atoms: C_18  and  O_26
   17  A    between atoms: C_25  and  C_28
   18  A    between atoms: C_25  and  P_34
   19  A    between atoms: C_28  and  C_33
   20  A    between atoms: O_31  and  C_43
   21  A    between atoms: C_36  and  C_42
                            x       y       z     vdW  Elec       q    Type
                         _______ _______ _______ _____ _____    ______ ____

>  <TORSDO>
F 21

$$$$
=
 OpenBabel11052410123D

 48 50  0  0  1  0  0  0  0  0999 V2000
  161.2860  206.2700  150.9620 C   0  0  0  0  0  0  0  0  0  0  0  0
  161.3070  203.7220  152.6970 C   0  0  0  0  0  3  0  0  0  0  0  0
  161.9790  205.1570  150.2340 C   0  0  0  0  0  2  0  0  0  0  0  0
  161.1080  206.2180  152.3050 C   0  0  0  0  0  0  0  0  0  0  0  0
  160.9050  203.2590  151.3550 C   0  0  0  0  0  3  0  0  0  0  0  0
  161.1470  203.9120  150.2180 C   0  0  0  0  0  0  0  0  0  0  0  0
  161.4030  204.9960  153.0990 C   0  0  0  0  0  3  0  0  0  0  0  0
  160.0160  207.1900  154.1730 O   0  0  0  0  0  0  0  0  0  0  0  0
  160.8990  208.7230  152.6430 N   0  0  0  0  0  2  0  0  0  0  0  0
  160.6260  207.3850  153.0860 C   0  0  0  0  0  0  0  0  0  0  0  0
  159.7350  212.3420  154.5270 C   0  0  0  0  0  0  0  0  0  0  0  0
  160.6940  211.5120  155.1160 C   0  0  0  0  0  3  0  0  0  0  0  0
  160.4910  209.9480  153.2680 C   0  0  0  0  0  0  0  0  0  0  0  0
  159.1480  211.9750  153.3140 C   0  0  0  0  0  3  0  0  0  0  0  0
  159.5240  210.7840  152.6870 C   0  0  0  0  0  3  0  0  0  0  0  0
  161.0740  210.3210  154.4890 C   0  0  0  0  0  0  0  0  0  0  0  0
  162.0350  209.5120  155.0850 O   0  0  0  0  0  1  0  0  0  0  0  0
  159.3220  213.6030  155.2050 C   0  0  0  0  0  2  0  0  0  0  0  0
  158.6900  213.2950  156.5490 C   0  0  2  0  0  3  0  0  0  0  0  0
  157.2800  212.9350  156.3460 N   0  0  0  0  0  2  0  0  0  0  0  0
  157.6480  214.2720  156.8330 C   0  0  0  0  0  2  0  0  0  0  0  0
  160.6360  203.3700  149.0300 O   0  0  0  0  0  0  0  0  0  0  0  0
  160.9760  202.1280  148.4750 C   0  0  0  0  0  0  0  0  0  0  0  0
  161.1110  201.0970  149.1870 O   0  0  0  0  0  0  0  0  0  0  0  0
  161.1450  202.0180  147.0020 C   0  0  0  0  0  2  0  0  0  0  0  0
  161.6850  203.3210  146.4510 C   0  0  0  0  0  2  0  0  0  0  0  0
  160.9980  203.6400  145.1400 C   0  0  0  0  0  2  0  0  0  0  0  0
  162.5390  205.8630  145.3990 O   0  0  0  0  0  1  0  0  0  0  0  0
  159.9700  206.3140  145.2050 O   0  0  0  0  0  1  0  0  0  0  0  0
  161.2870  205.3780  144.7060 P   0  0  0  0  0  0  0  0  0  0  0  0
  161.4810  205.5220  143.0320 O   0  0  0  0  0  0  0  0  0  0  0  0
  160.8120  207.4470  150.1450 C   0  0  1  0  0  3  0  0  0  0  0  0
  161.7970  208.5900  150.1340 C   0  0  0  0  0  0  0  0  0  0  0  0
  162.9270  208.4570  150.6810 O   0  0  0  0  0  0  0  0  0  0  0  0
  161.4170  209.8600  149.5920 N   0  0  0  0  0  2  0  0  0  0  0  0
  162.9440  211.1320  148.1940 C   0  0  0  0  0  1  0  0  0  0  0  0
  162.3150  211.0020  149.5700 C   0  0  1  0  0  3  0  0  0  0  0  0
  160.7840  212.8790  149.0170 C   0  0  0  0  0  3  0  0  0  0  0  0
  161.5490  212.2420  149.9020 C   0  0  0  0  0  3  0  0  0  0  0  0
  160.6530  212.4150  147.6740 N   0  0  0  0  0  2  0  0  0  0  0  0
  160.1970  213.3010  146.6150 C   0  0  0  0  0  2  0  0  0  0  0  0
  161.3750  213.7980  145.7930 C   0  0  0  0  0  2  0  0  0  0  0  0
  161.6820  212.8720  144.7960 O   0  0  0  0  0  0  0  0  0  0  0  0
  160.6770  213.0310  143.8440 C   0  0  0  0  0  2  0  0  0  0  0  0
  160.1580  211.7820  143.4990 O   0  0  0  0  0  0  0  0  0  0  0  0
  160.5670  211.5830  142.1800 C   0  0  0  0  0  1  0  0  0  0  0  0
  160.4210  207.0020  148.7680 C   0  0  0  0  0  3  0  0  0  0  0  0
  161.1230  207.2700  147.8070 O   0  0  0  0  0  0  0  0  0  0  0  0
  1  4  2  0  0  0  0
  2  7  2  0  0  0  0
  3  1  1  0  0  0  0
  4 10  1  0  0  0  0
  4  7  1  0  0  0  0
  5  2  1  0  0  0  0
  6  3  1  0  0  0  0
  6  5  2  0  0  0  0
  9 10  1  0  0  0  0
  9 13  1  0  0  0  0
 10  8  2  0  0  0  0
 11 12  1  0  0  0  0
 11 18  1  0  0  0  0
 13 16  1  0  0  0  0
 14 11  2  0  0  0  0
 15 13  2  0  0  0  0
 15 14  1  0  0  0  0
 16 17  1  0  0  0  0
 16 12  2  0  0  0  0
 19 18  1  6  0  0  0
 19 21  1  0  0  0  0
 20 19  1  0  0  0  0
 20 21  1  0  0  0  0
 22  6  1  0  0  0  0
 23 22  1  0  0  0  0
 23 24  2  0  0  0  0
 25 23  1  0  0  0  0
 26 25  1  0  0  0  0
 27 26  1  0  0  0  0
 30 27  1  0  0  0  0
 30 29  1  0  0  0  0
 30 28  1  0  0  0  0
 31 30  2  0  0  0  0
 32 47  1  6  0  0  0
 32  1  1  0  0  0  0
 33 32  1  0  0  0  0
 33 34  2  0  0  0  0
 35 33  1  0  0  0  0
 37 36  1  6  0  0  0
 37 35  1  0  0  0  0
 37 39  1  0  0  0  0
 38 39  2  0  0  0  0
 40 38  1  0  0  0  0
 41 40  1  0  0  0  0
 42 41  1  0  0  0  0
 43 42  1  0  0  0  0
 44 43  1  0  0  0  0
 45 44  1  0  0  0  0
 46 45  1  0  0  0  0
 48 47  2  0  0  0  0
M  END
>  <MODEL>
4

>  <REMARK>
 VINA RESULT:      -4.4      3.493      8.655
  Name = 
  21 active torsions:
  status: ('A' for Active; 'I' for Inactive)
    1  A    between atoms: C_1  and  C_19
    2  A    between atoms: C_4  and  N_37
    3  A    between atoms: C_6  and  C_35
    4  A    between atoms: C_7  and  C_12
    5  A    between atoms: C_7  and  O_26
    6  A    between atoms: C_8  and  O_31
    7  A    between atoms: C_8  and  C_33
    8  A    between atoms: C_9  and  C_23
    9  A    between atoms: C_9  and  N_24
   10  A    between atoms: C_10  and  C_35
   11  A    between atoms: O_11  and  C_18
   12  A    between atoms: C_12  and  N_14
   13  A    between atoms: C_13  and  C_19
   14  A    between atoms: N_14  and  C_22
   15  A    between atoms: C_16  and  C_35
   16  A    between atoms: C_18  and  O_26
   17  A    between atoms: C_25  and  C_28
   18  A    between atoms: C_25  and  P_34
   19  A    between atoms: C_28  and  C_33
   20  A    between atoms: O_31  and  C_43
   21  A    between atoms: C_36  and  C_42
                            x       y       z     vdW  Elec       q    Type
                         _______ _______ _______ _____ _____    ______ ____

>  <TORSDO>
F 21

$$$$
=
 OpenBabel11052410123D

 48 50  0  0  1  0  0  0  0  0999 V2000
  160.9540  208.0390  152.4350 C   0  0  0  0  0  0  0  0  0  0  0  0
  160.7210  207.0860  155.3570 C   0  0  0  0  0  3  0  0  0  0  0  0
  160.4170  209.1440  153.2960 C   0  0  0  0  0  2  0  0  0  0  0  0
  160.9150  206.7500  152.8530 C   0  0  0  0  0  0  0  0  0  0  0  0
  161.3470  208.4190  155.4460 C   0  0  0  0  0  3  0  0  0  0  0  0
  161.2740  209.3600  154.5050 C   0  0  0  0  0  0  0  0  0  0  0  0
  160.5280  206.3750  154.2380 C   0  0  0  0  0  3  0  0  0  0  0  0
  162.1530  204.8140  152.2690 O   0  0  0  0  0  0  0  0  0  0  0  0
  160.4680  205.3960  150.7550 N   0  0  0  0  0  2  0  0  0  0  0  0
  161.2320  205.6150  151.9490 C   0  0  0  0  0  0  0  0  0  0  0  0
  161.0600  202.3840  147.8260 C   0  0  0  0  0  0  0  0  0  0  0  0
  161.3100  203.7260  147.5240 C   0  0  0  0  0  3  0  0  0  0  0  0
  160.6580  204.3660  149.7760 C   0  0  0  0  0  0  0  0  0  0  0  0
  160.6030  202.0310  149.0980 C   0  0  0  0  0  3  0  0  0  0  0  0
  160.4050  203.0160  150.0690 C   0  0  0  0  0  3  0  0  0  0  0  0
  161.1140  204.7140  148.4950 C   0  0  0  0  0  0  0  0  0  0  0  0
  161.3750  206.0420  148.1790 O   0  0  0  0  0  1  0  0  0  0  0  0
  161.2570  201.3360  146.7860 C   0  0  0  0  0  2  0  0  0  0  0  0
  159.9590  201.0840  146.0420 C   0  0  2  0  0  3  0  0  0  0  0  0
  160.2580  200.4240  144.7630 N   0  0  0  0  0  2  0  0  0  0  0  0
  159.9450  201.8590  144.8090 C   0  0  0  0  0  2  0  0  0  0  0  0
  161.9830  210.5520  154.7140 O   0  0  0  0  0  0  0  0  0  0  0  0
  162.5020  211.0010  155.9370 C   0  0  0  0  0  0  0  0  0  0  0  0
  163.7420  211.0430  156.1570 O   0  0  0  0  0  0  0  0  0  0  0  0
  161.5640  211.4760  156.9880 C   0  0  0  0  0  2  0  0  0  0  0  0
  160.5490  212.4200  156.3770 C   0  0  0  0  0  2  0  0  0  0  0  0
  159.1750  211.7860  156.4260 C   0  0  0  0  0  2  0  0  0  0  0  0
  157.2860  211.1880  154.5660 O   0  0  0  0  0  1  0  0  0  0  0  0
  159.2560  212.6770  153.7040 O   0  0  0  0  0  0  0  0  0  0  0  0
  158.2100  212.3090  154.9810 P   0  0  0  0  0  0  0  0  0  0  0  0
  157.2930  213.6760  155.3720 O   0  0  0  0  0  1  0  0  0  0  0  0
  161.5220  208.4200  151.0900 C   0  0  1  0  0  3  0  0  0  0  0  0
  161.3200  209.8780  150.7570 C   0  0  0  0  0  0  0  0  0  0  0  0
  160.7510  210.6430  151.5860 O   0  0  0  0  0  0  0  0  0  0  0  0
  161.6820  210.3770  149.4660 N   0  0  0  0  0  2  0  0  0  0  0  0
  161.1720  212.5970  150.3100 C   0  0  0  0  0  1  0  0  0  0  0  0
  161.4950  211.7670  149.0810 C   0  0  1  0  0  3  0  0  0  0  0  0
  162.7520  212.8440  147.2290 C   0  0  0  0  0  3  0  0  0  0  0  0
  162.7420  212.2740  148.4330 C   0  0  0  0  0  2  0  0  0  0  0  0
  161.5550  213.0000  146.4680 N   0  0  0  0  0  0  0  0  0  0  0  0
  161.6030  213.2420  145.0350 C   0  0  0  0  0  2  0  0  0  0  0  0
  163.0360  213.1800  144.5330 C   0  0  0  0  0  2  0  0  0  0  0  0
  163.0610  213.3260  143.1460 O   0  0  0  0  0  0  0  0  0  0  0  0
  162.1420  212.3900  142.6760 C   0  0  0  0  0  2  0  0  0  0  0  0
  162.3540  212.1690  141.3150 O   0  0  0  0  0  0  0  0  0  0  0  0
  161.0950  212.3260  140.7330 C   0  0  0  0  0  1  0  0  0  0  0  0
  162.9550  207.9930  150.9900 C   0  0  0  0  0  3  0  0  0  0  0  0
  163.3050  207.1840  150.1460 O   0  0  0  0  0  0  0  0  0  0  0  0
  1  4  2  0  0  0  0
  1  3  1  0  0  0  0
  2  5  1  0  0  0  0
  3  6  1  0  0  0  0
  4  7  1  0  0  0  0
  6 22  1  0  0  0  0
  6  5  2  0  0  0  0
  7  2  2  0  0  0  0
  9 10  1  0  0  0  0
 10  8  2  0  0  0  0
 10  4  1  0  0  0  0
 11 14  1  0  0  0  0
 12 11  2  0  0  0  0
 12 16  1  0  0  0  0
 13 15  1  0  0  0  0
 13  9  1  0  0  0  0
 14 15  2  0  0  0  0
 16 13  2  0  0  0  0
 17 16  1  0  0  0  0
 18 11  1  0  0  0  0
 19 18  1  1  0  0  0
 20 21  1  0  0  0  0
 20 19  1  0  0  0  0
 21 19  1  0  0  0  0
 22 23  1  0  0  0  0
 23 24  2  0  0  0  0
 23 25  1  0  0  0  0
 26 27  1  0  0  0  0
 26 25  1  0  0  0  0
 28 30  1  0  0  0  0
 29 30  2  0  0  0  0
 30 31  1  0  0  0  0
 30 27  1  0  0  0  0
 32 47  1  1  0  0  0
 32  1  1  0  0  0  0
 33 32  1  0  0  0  0
 33 34  2  0  0  0  0
 35 33  1  0  0  0  0
 37 35  1  0  0  0  0
 37 36  1  1  0  0  0
 38 39  1  0  0  0  0
 39 37  1  0  0  0  0
 40 38  2  0  0  0  0
 41 40  1  0  0  0  0
 42 41  1  0  0  0  0
 43 42  1  0  0  0  0
 44 43  1  0  0  0  0
 45 44  1  0  0  0  0
 46 45  1  0  0  0  0
 48 47  2  0  0  0  0
M  END
>  <MODEL>
5

>  <REMARK>
 VINA RESULT:      -4.4      2.129      2.870
  Name = 
  21 active torsions:
  status: ('A' for Active; 'I' for Inactive)
    1  A    between atoms: C_1  and  C_19
    2  A    between atoms: C_4  and  N_37
    3  A    between atoms: C_6  and  C_35
    4  A    between atoms: C_7  and  C_12
    5  A    between atoms: C_7  and  O_26
    6  A    between atoms: C_8  and  O_31
    7  A    between atoms: C_8  and  C_33
    8  A    between atoms: C_9  and  C_23
    9  A    between atoms: C_9  and  N_24
   10  A    between atoms: C_10  and  C_35
   11  A    between atoms: O_11  and  C_18
   12  A    between atoms: C_12  and  N_14
   13  A    between atoms: C_13  and  C_19
   14  A    between atoms: N_14  and  C_22
   15  A    between atoms: C_16  and  C_35
   16  A    between atoms: C_18  and  O_26
   17  A    between atoms: C_25  and  C_28
   18  A    between atoms: C_25  and  P_34
   19  A    between atoms: C_28  and  C_33
   20  A    between atoms: O_31  and  C_43
   21  A    between atoms: C_36  and  C_42
                            x       y       z     vdW  Elec       q    Type
                         _______ _______ _______ _____ _____    ______ ____

>  <TORSDO>
F 21

$$$$
=
 OpenBabel11052410123D

 48 50  0  0  1  0  0  0  0  0999 V2000
  160.4270  208.9180  154.0260 C   0  0  0  0  0  0  0  0  0  0  0  0
  160.8370  207.6420  156.8020 C   0  0  0  0  0  3  0  0  0  0  0  0
  159.7730  209.7600  155.0810 C   0  0  0  0  0  2  0  0  0  0  0  0
  160.7490  207.6240  154.2690 C   0  0  0  0  0  0  0  0  0  0  0  0
  161.1390  209.0730  156.9980 C   0  0  0  0  0  3  0  0  0  0  0  0
  160.7170  210.0570  156.2050 C   0  0  0  0  0  0  0  0  0  0  0  0
  160.6600  207.0240  155.6260 C   0  0  0  0  0  3  0  0  0  0  0  0
  162.2520  206.0340  153.3520 O   0  0  0  0  0  0  0  0  0  0  0  0
  160.4030  206.5290  152.0070 N   0  0  0  0  0  2  0  0  0  0  0  0
  161.1940  206.7020  153.1920 C   0  0  0  0  0  0  0  0  0  0  0  0
  161.2660  204.0280  148.6910 C   0  0  0  0  0  0  0  0  0  0  0  0
  161.0450  203.4760  149.9560 C   0  0  0  0  0  3  0  0  0  0  0  0
  160.7000  205.6990  150.8760 C   0  0  0  0  0  0  0  0  0  0  0  0
  161.2120  205.4130  148.5160 C   0  0  0  0  0  3  0  0  0  0  0  0
  160.9290  206.2450  149.6020 C   0  0  0  0  0  3  0  0  0  0  0  0
  160.7600  204.3070  151.0450 C   0  0  0  0  0  0  0  0  0  0  0  0
  160.5350  203.7410  152.2940 O   0  0  0  0  0  1  0  0  0  0  0  0
  161.5840  203.1420  147.5360 C   0  0  0  0  0  2  0  0  0  0  0  0
  160.5840  202.0040  147.4560 C   0  0  2  0  0  3  0  0  0  0  0  0
  161.2940  200.7270  147.6160 N   0  0  0  0  0  2  0  0  0  0  0  0
  160.8700  201.1850  146.2860 C   0  0  0  0  0  2  0  0  0  0  0  0
  161.1500  211.3600  156.4910 O   0  0  0  0  0  0  0  0  0  0  0  0
  160.3320  212.4890  156.6440 C   0  0  0  0  0  0  0  0  0  0  0  0
  160.7830  213.6580  156.5160 O   0  0  0  0  0  0  0  0  0  0  0  0
  158.8850  212.2970  156.9270 C   0  0  0  0  0  2  0  0  0  0  0  0
  158.2230  213.6430  157.1320 C   0  0  0  0  0  2  0  0  0  0  0  0
  156.7250  213.4570  157.2600 C   0  0  0  0  0  2  0  0  0  0  0  0
  154.7810  213.6130  155.3680 O   0  0  0  0  0  1  0  0  0  0  0  0
  155.6970  211.2050  155.8190 O   0  0  0  0  0  1  0  0  0  0  0  0
  156.0480  212.8540  155.6890 P   0  0  0  0  0  0  0  0  0  0  0  0
  157.1750  213.0970  154.4520 O   0  0  0  0  0  0  0  0  0  0  0  0
  160.6950  209.5640  152.6890 C   0  0  1  0  0  3  0  0  0  0  0  0
  159.8370  210.7800  152.4400 C   0  0  0  0  0  0  0  0  0  0  0  0
  158.6290  210.7880  152.8090 O   0  0  0  0  0  0  0  0  0  0  0  0
  160.3580  211.8880  151.6980 N   0  0  0  0  0  2  0  0  0  0  0  0
  159.2870  213.8230  152.7030 C   0  0  0  0  0  1  0  0  0  0  0  0
  159.5740  213.0780  151.4120 C   0  0  1  0  0  3  0  0  0  0  0  0
  161.1500  213.4790  149.5340 C   0  0  0  0  0  3  0  0  0  0  0  0
  160.3320  213.9560  150.4700 C   0  0  0  0  0  3  0  0  0  0  0  0
  161.3630  212.0770  149.3750 N   0  0  0  0  0  2  0  0  0  0  0  0
  161.2210  211.4390  148.0760 C   0  0  0  0  0  2  0  0  0  0  0  0
  160.9160  212.4740  147.0060 C   0  0  0  0  0  2  0  0  0  0  0  0
  159.5860  212.3590  146.5980 O   0  0  0  0  0  0  0  0  0  0  0  0
  159.4250  213.3510  145.6330 C   0  0  0  0  0  2  0  0  0  0  0  0
  158.1470  213.9000  145.7350 O   0  0  0  0  0  0  0  0  0  0  0  0
  157.3070  212.8020  145.9290 C   0  0  0  0  0  1  0  0  0  0  0  0
  162.1590  209.8420  152.5290 C   0  0  0  0  0  3  0  0  0  0  0  0
  162.7080  210.6930  153.2110 O   0  0  0  0  0  0  0  0  0  0  0  0
  1  4  2  0  0  0  0
  1  3  1  0  0  0  0
  2  5  1  0  0  0  0
  3  6  1  0  0  0  0
  4  7  1  0  0  0  0
  6 22  1  0  0  0  0
  6  5  2  0  0  0  0
  7  2  2  0  0  0  0
  9 10  1  0  0  0  0
 10  8  2  0  0  0  0
 10  4  1  0  0  0  0
 11 12  1  0  0  0  0
 12 16  2  0  0  0  0
 13 16  1  0  0  0  0
 13  9  1  0  0  0  0
 14 11  2  0  0  0  0
 14 15  1  0  0  0  0
 15 13  2  0  0  0  0
 16 17  1  0  0  0  0
 18 11  1  0  0  0  0
 19 18  1  6  0  0  0
 19 20  1  0  0  0  0
 21 19  1  0  0  0  0
 21 20  1  0  0  0  0
 22 23  1  0  0  0  0
 23 25  1  0  0  0  0
 24 23  2  0  0  0  0
 25 26  1  0  0  0  0
 26 27  1  0  0  0  0
 28 30  1  0  0  0  0
 30 29  1  0  0  0  0
 30 27  1  0  0  0  0
 31 30  2  0  0  0  0
 32 47  1  1  0  0  0
 32  1  1  0  0  0  0
 33 32  1  0  0  0  0
 33 34  2  0  0  0  0
 35 33  1  0  0  0  0
 37 35  1  0  0  0  0
 37 36  1  1  0  0  0
 38 39  2  0  0  0  0
 39 37  1  0  0  0  0
 40 38  1  0  0  0  0
 41 40  1  0  0  0  0
 42 41  1  0  0  0  0
 43 42  1  0  0  0  0
 44 45  1  0  0  0  0
 44 43  1  0  0  0  0
 45 46  1  0  0  0  0
 47 48  2  0  0  0  0
M  END
>  <MODEL>
6

>  <REMARK>
 VINA RESULT:      -4.4      1.772      2.251
  Name = 
  21 active torsions:
  status: ('A' for Active; 'I' for Inactive)
    1  A    between atoms: C_1  and  C_19
    2  A    between atoms: C_4  and  N_37
    3  A    between atoms: C_6  and  C_35
    4  A    between atoms: C_7  and  C_12
    5  A    between atoms: C_7  and  O_26
    6  A    between atoms: C_8  and  O_31
    7  A    between atoms: C_8  and  C_33
    8  A    between atoms: C_9  and  C_23
    9  A    between atoms: C_9  and  N_24
   10  A    between atoms: C_10  and  C_35
   11  A    between atoms: O_11  and  C_18
   12  A    between atoms: C_12  and  N_14
   13  A    between atoms: C_13  and  C_19
   14  A    between atoms: N_14  and  C_22
   15  A    between atoms: C_16  and  C_35
   16  A    between atoms: C_18  and  O_26
   17  A    between atoms: C_25  and  C_28
   18  A    between atoms: C_25  and  P_34
   19  A    between atoms: C_28  and  C_33
   20  A    between atoms: O_31  and  C_43
   21  A    between atoms: C_36  and  C_42
                            x       y       z     vdW  Elec       q    Type
                         _______ _______ _______ _____ _____    ______ ____

>  <TORSDO>
F 21

$$$$
=
 OpenBabel11052410123D

 48 50  0  0  1  0  0  0  0  0999 V2000
  161.1960  212.1420  150.3120 C   0  0  0  0  0  0  0  0  0  0  0  0
  158.8620  214.1560  150.3010 C   0  0  0  0  0  3  0  0  0  0  0  0
  160.7310  212.3990  151.7150 C   0  0  0  0  0  2  0  0  0  0  0  0
  160.8870  212.9990  149.3080 C   0  0  0  0  0  0  0  0  0  0  0  0
  158.4300  213.0850  151.2200 C   0  0  0  0  0  3  0  0  0  0  0  0
  159.2480  212.2340  151.8380 C   0  0  0  0  0  0  0  0  0  0  0  0
  159.9260  214.1190  149.4880 C   0  0  0  0  0  3  0  0  0  0  0  0
  162.7590  212.8050  147.8650 O   0  0  0  0  0  0  0  0  0  0  0  0
  160.6850  212.8480  146.7840 N   0  0  0  0  0  2  0  0  0  0  0  0
  161.5040  212.8970  147.9610 C   0  0  0  0  0  0  0  0  0  0  0  0
  161.9290  212.6110  142.7340 C   0  0  0  0  0  0  0  0  0  0  0  0
  160.6270  212.2540  143.0980 C   0  0  0  0  0  3  0  0  0  0  0  0
  161.1240  212.7700  145.4200 C   0  0  0  0  0  0  0  0  0  0  0  0
  162.8310  213.0410  143.7100 C   0  0  0  0  0  3  0  0  0  0  0  0
  162.4310  213.1220  145.0470 C   0  0  0  0  0  3  0  0  0  0  0  0
  160.2240  212.3360  144.4350 C   0  0  0  0  0  0  0  0  0  0  0  0
  158.9230  211.9840  144.7780 O   0  0  0  0  0  1  0  0  0  0  0  0
  162.3600  212.5100  141.3120 C   0  0  0  0  0  2  0  0  0  0  0  0
  161.6150  211.3880  140.6160 C   0  0  2  0  0  3  0  0  0  0  0  0
  162.5800  210.3710  140.1720 N   0  0  0  0  0  2  0  0  0  0  0  0
  162.0140  211.3330  139.2160 C   0  0  0  0  0  2  0  0  0  0  0  0
  158.6720  211.2280  152.6270 O   0  0  0  0  0  0  0  0  0  0  0  0
  158.4980  211.2660  154.0180 C   0  0  0  0  0  0  0  0  0  0  0  0
  157.7400  210.4550  154.6150 O   0  0  0  0  0  0  0  0  0  0  0  0
  159.2580  212.2670  154.8130 C   0  0  0  0  0  2  0  0  0  0  0  0
  158.4100  213.5030  155.0220 C   0  0  0  0  0  2  0  0  0  0  0  0
  157.7390  213.4340  156.3780 C   0  0  0  0  0  2  0  0  0  0  0  0
  155.5480  211.8650  156.7270 O   0  0  0  0  0  1  0  0  0  0  0  0
  155.5650  213.2680  154.5200 O   0  0  0  0  0  0  0  0  0  0  0  0
  155.9520  213.2080  156.1650 P   0  0  0  0  0  0  0  0  0  0  0  0
  155.1220  214.4320  156.9860 O   0  0  0  0  0  1  0  0  0  0  0  0
  162.0260  210.9050  150.0700 C   0  0  1  0  0  3  0  0  0  0  0  0
  162.1790  210.0490  151.3040 C   0  0  0  0  0  0  0  0  0  0  0  0
  163.0780  210.3150  152.1500 O   0  0  0  0  0  0  0  0  0  0  0  0
  161.3730  208.8780  151.4700 N   0  0  0  0  0  2  0  0  0  0  0  0
  160.7810  208.6360  153.8140 C   0  0  0  0  0  1  0  0  0  0  0  0
  161.4870  208.0060  152.6280 C   0  0  1  0  0  3  0  0  0  0  0  0
  161.1070  206.0280  151.1740 C   0  0  0  0  0  3  0  0  0  0  0  0
  160.8740  206.6800  152.3120 C   0  0  0  0  0  2  0  0  0  0  0  0
  161.9620  206.5670  150.1670 N   0  0  0  0  0  0  0  0  0  0  0  0
  162.0240  205.9750  148.8400 C   0  0  0  0  0  2  0  0  0  0  0  0
  160.7620  206.2950  148.0550 C   0  0  0  0  0  2  0  0  0  0  0  0
  160.6970  205.4980  146.9120 O   0  0  0  0  0  0  0  0  0  0  0  0
  161.8490  205.8160  146.1950 C   0  0  0  0  0  2  0  0  0  0  0  0
  161.7130  205.3820  144.8760 O   0  0  0  0  0  0  0  0  0  0  0  0
  160.9920  204.1910  144.9690 C   0  0  0  0  0  1  0  0  0  0  0  0
  161.4950  210.1420  148.8950 C   0  0  0  0  0  3  0  0  0  0  0  0
  162.2230  209.4000  148.2550 O   0  0  0  0  0  0  0  0  0  0  0  0
  1  3  1  0  0  0  0
  2  5  1  0  0  0  0
  3  6  1  0  0  0  0
  4  7  1  0  0  0  0
  4  1  2  0  0  0  0
  5  6  2  0  0  0  0
  6 22  1  0  0  0  0
  7  2  2  0  0  0  0
  8 10  2  0  0  0  0
  9 10  1  0  0  0  0
 10  4  1  0  0  0  0
 11 12  2  0  0  0  0
 11 14  1  0  0  0  0
 12 16  1  0  0  0  0
 13  9  1  0  0  0  0
 14 15  2  0  0  0  0
 15 13  1  0  0  0  0
 16 17  1  0  0  0  0
 16 13  2  0  0  0  0
 18 11  1  0  0  0  0
 19 18  1  1  0  0  0
 20 19  1  0  0  0  0
 21 20  1  0  0  0  0
 21 19  1  0  0  0  0
 22 23  1  0  0  0  0
 23 24  2  0  0  0  0
 23 25  1  0  0  0  0
 25 26  1  0  0  0  0
 26 27  1  0  0  0  0
 29 30  2  0  0  0  0
 30 27  1  0  0  0  0
 30 28  1  0  0  0  0
 30 31  1  0  0  0  0
 32 47  1  6  0  0  0
 32  1  1  0  0  0  0
 32 33  1  0  0  0  0
 33 35  1  0  0  0  0
 33 34  2  0  0  0  0
 35 37  1  0  0  0  0
 37 36  1  1  0  0  0
 38 39  1  0  0  0  0
 39 37  1  0  0  0  0
 40 38  2  0  0  0  0
 41 40  1  0  0  0  0
 42 41  1  0  0  0  0
 43 42  1  0  0  0  0
 44 43  1  0  0  0  0
 45 46  1  0  0  0  0
 45 44  1  0  0  0  0
 48 47  2  0  0  0  0
M  END
>  <MODEL>
7

>  <REMARK>
 VINA RESULT:      -4.2      2.306      6.530
  Name = 
  21 active torsions:
  status: ('A' for Active; 'I' for Inactive)
    1  A    between atoms: C_1  and  C_19
    2  A    between atoms: C_4  and  N_37
    3  A    between atoms: C_6  and  C_35
    4  A    between atoms: C_7  and  C_12
    5  A    between atoms: C_7  and  O_26
    6  A    between atoms: C_8  and  O_31
    7  A    between atoms: C_8  and  C_33
    8  A    between atoms: C_9  and  C_23
    9  A    between atoms: C_9  and  N_24
   10  A    between atoms: C_10  and  C_35
   11  A    between atoms: O_11  and  C_18
   12  A    between atoms: C_12  and  N_14
   13  A    between atoms: C_13  and  C_19
   14  A    between atoms: N_14  and  C_22
   15  A    between atoms: C_16  and  C_35
   16  A    between atoms: C_18  and  O_26
   17  A    between atoms: C_25  and  C_28
   18  A    between atoms: C_25  and  P_34
   19  A    between atoms: C_28  and  C_33
   20  A    between atoms: O_31  and  C_43
   21  A    between atoms: C_36  and  C_42
                            x       y       z     vdW  Elec       q    Type
                         _______ _______ _______ _____ _____    ______ ____

>  <TORSDO>
F 21

$$$$
=
 OpenBabel11052410123D

 48 50  0  0  1  0  0  0  0  0999 V2000
  162.2650  208.1850  150.8000 C   0  0  0  0  0  0  0  0  0  0  0  0
  160.5830  205.6020  150.7380 C   0  0  0  0  0  3  0  0  0  0  0  0
  162.8580  207.2070  149.8280 C   0  0  0  0  0  2  0  0  0  0  0  0
  161.3960  207.7750  151.7570 C   0  0  0  0  0  0  0  0  0  0  0  0
  160.8330  205.9210  149.3190 C   0  0  0  0  0  3  0  0  0  0  0  0
  161.8260  206.6910  148.8740 C   0  0  0  0  0  0  0  0  0  0  0  0
  160.8360  206.3990  151.7850 C   0  0  0  0  0  3  0  0  0  0  0  0
  161.4280  208.4820  154.0200 O   0  0  0  0  0  0  0  0  0  0  0  0
  160.0610  209.7550  152.6120 N   0  0  0  0  0  2  0  0  0  0  0  0
  160.9600  208.6650  152.8630 C   0  0  0  0  0  0  0  0  0  0  0  0
  158.4860  212.5420  155.3960 C   0  0  0  0  0  0  0  0  0  0  0  0
  158.7010  212.9140  154.0660 C   0  0  0  0  0  3  0  0  0  0  0  0
  159.5330  210.6860  153.5680 C   0  0  0  0  0  0  0  0  0  0  0  0
  158.7990  211.2480  155.8170 C   0  0  0  0  0  3  0  0  0  0  0  0
  159.3180  210.3230  154.9070 C   0  0  0  0  0  3  0  0  0  0  0  0
  159.2200  211.9890  153.1530 C   0  0  0  0  0  0  0  0  0  0  0  0
  159.4200  212.3730  151.8320 O   0  0  0  0  0  1  0  0  0  0  0  0
  157.9470  213.5330  156.3690 C   0  0  0  0  0  2  0  0  0  0  0  0
  156.6150  214.0740  155.8850 C   0  0  2  0  0  3  0  0  0  0  0  0
  155.7320  214.2850  157.0420 N   0  0  0  0  0  2  0  0  0  0  0  0
  155.5630  213.1100  156.1750 C   0  0  0  0  0  2  0  0  0  0  0  0
  161.8850  206.9520  147.4980 O   0  0  0  0  0  0  0  0  0  0  0  0
  161.5020  206.0760  146.4720 C   0  0  0  0  0  0  0  0  0  0  0  0
  160.4470  206.2530  145.8060 O   0  0  0  0  0  0  0  0  0  0  0  0
  162.3850  204.9270  146.1380 C   0  0  0  0  0  2  0  0  0  0  0  0
  161.6180  203.6310  146.2980 C   0  0  0  0  0  2  0  0  0  0  0  0
  161.5640  203.2510  147.7630 C   0  0  0  0  0  2  0  0  0  0  0  0
  161.8440  200.6670  148.5560 O   0  0  0  0  0  1  0  0  0  0  0  0
  160.3790  201.0160  146.4180 O   0  0  0  0  0  0  0  0  0  0  0  0
  160.8300  201.6010  147.9390 P   0  0  0  0  0  0  0  0  0  0  0  0
  159.4680  201.6880  148.9380 O   0  0  0  0  0  1  0  0  0  0  0  0
  162.6820  209.6300  150.6740 C   0  0  1  0  0  3  0  0  0  0  0  0
  161.9790  210.3490  149.5490 C   0  0  0  0  0  0  0  0  0  0  0  0
  161.4730  209.6930  148.5970 O   0  0  0  0  0  0  0  0  0  0  0  0
  161.9690  211.7800  149.5080 N   0  0  0  0  0  2  0  0  0  0  0  0
  160.6250  213.7450  149.0210 C   0  0  0  0  0  1  0  0  0  0  0  0
  161.3240  212.5290  148.4410 C   0  0  1  0  0  3  0  0  0  0  0  0
  162.0870  213.0880  146.1440 C   0  0  0  0  0  3  0  0  0  0  0  0
  162.3510  212.9550  147.4430 C   0  0  0  0  0  2  0  0  0  0  0  0
  160.7890  212.8190  145.6160 N   0  0  0  0  0  0  0  0  0  0  0  0
  160.5570  212.7810  144.1810 C   0  0  0  0  0  2  0  0  0  0  0  0
  161.8710  212.6240  143.4330 C   0  0  0  0  0  2  0  0  0  0  0  0
  161.7550  213.1590  142.1500 O   0  0  0  0  0  0  0  0  0  0  0  0
  162.3310  212.2030  141.3150 C   0  0  0  0  0  2  0  0  0  0  0  0
  161.4720  211.9340  140.2500 O   0  0  0  0  0  0  0  0  0  0  0  0
  161.1890  210.5720  140.3610 C   0  0  0  0  0  1  0  0  0  0  0  0
  162.5410  210.3300  151.9910 C   0  0  0  0  0  3  0  0  0  0  0  0
  163.5270  210.7000  152.6070 O   0  0  0  0  0  0  0  0  0  0  0  0
  1  4  2  0  0  0  0
  2  7  2  0  0  0  0
  3  1  1  0  0  0  0
  4  7  1  0  0  0  0
  4 10  1  0  0  0  0
  5  2  1  0  0  0  0
  6  5  2  0  0  0  0
  6  3  1  0  0  0  0
  9 10  1  0  0  0  0
  9 13  1  0  0  0  0
 10  8  2  0  0  0  0
 11 14  1  0  0  0  0
 11 18  1  0  0  0  0
 12 11  2  0  0  0  0
 13 15  1  0  0  0  0
 15 14  2  0  0  0  0
 16 13  2  0  0  0  0
 16 12  1  0  0  0  0
 17 16  1  0  0  0  0
 19 21  1  0  0  0  0
 19 18  1  1  0  0  0
 19 20  1  0  0  0  0
 21 20  1  0  0  0  0
 22  6  1  0  0  0  0
 23 22  1  0  0  0  0
 24 23  2  0  0  0  0
 25 26  1  0  0  0  0
 25 23  1  0  0  0  0
 26 27  1  0  0  0  0
 27 30  1  0  0  0  0
 29 30  2  0  0  0  0
 30 28  1  0  0  0  0
 30 31  1  0  0  0  0
 32  1  1  0  0  0  0
 32 47  1  1  0  0  0
 33 32  1  0  0  0  0
 34 33  2  0  0  0  0
 35 33  1  0  0  0  0
 37 36  1  1  0  0  0
 37 35  1  0  0  0  0
 38 39  1  0  0  0  0
 39 37  1  0  0  0  0
 40 38  2  0  0  0  0
 41 40  1  0  0  0  0
 42 41  1  0  0  0  0
 43 42  1  0  0  0  0
 44 43  1  0  0  0  0
 45 46  1  0  0  0  0
 45 44  1  0  0  0  0
 47 48  2  0  0  0  0
M  END
>  <MODEL>
8

>  <REMARK>
 VINA RESULT:      -4.1      3.505      8.737
  Name = 
  21 active torsions:
  status: ('A' for Active; 'I' for Inactive)
    1  A    between atoms: C_1  and  C_19
    2  A    between atoms: C_4  and  N_37
    3  A    between atoms: C_6  and  C_35
    4  A    between atoms: C_7  and  C_12
    5  A    between atoms: C_7  and  O_26
    6  A    between atoms: C_8  and  O_31
    7  A    between atoms: C_8  and  C_33
    8  A    between atoms: C_9  and  C_23
    9  A    between atoms: C_9  and  N_24
   10  A    between atoms: C_10  and  C_35
   11  A    between atoms: O_11  and  C_18
   12  A    between atoms: C_12  and  N_14
   13  A    between atoms: C_13  and  C_19
   14  A    between atoms: N_14  and  C_22
   15  A    between atoms: C_16  and  C_35
   16  A    between atoms: C_18  and  O_26
   17  A    between atoms: C_25  and  C_28
   18  A    between atoms: C_25  and  P_34
   19  A    between atoms: C_28  and  C_33
   20  A    between atoms: O_31  and  C_43
   21  A    between atoms: C_36  and  C_42
                            x       y       z     vdW  Elec       q    Type
                         _______ _______ _______ _____ _____    ______ ____

>  <TORSDO>
F 21

$$$$
=
 OpenBabel11052410123D

 48 50  0  0  1  0  0  0  0  0999 V2000
  161.1080  207.5050  151.9720 C   0  0  0  0  0  0  0  0  0  0  0  0
  160.4620  206.6230  154.8540 C   0  0  0  0  0  3  0  0  0  0  0  0
  160.4490  208.6270  152.7180 C   0  0  0  0  0  2  0  0  0  0  0  0
  161.0150  206.2270  152.4130 C   0  0  0  0  0  0  0  0  0  0  0  0
  161.0630  207.9630  154.9970 C   0  0  0  0  0  3  0  0  0  0  0  0
  161.1220  208.8800  154.0310 C   0  0  0  0  0  0  0  0  0  0  0  0
  160.4350  205.8830  153.7370 C   0  0  0  0  0  3  0  0  0  0  0  0
  162.6880  204.7670  151.5800 O   0  0  0  0  0  0  0  0  0  0  0  0
  160.5140  204.2770  150.8690 N   0  0  0  0  0  2  0  0  0  0  0  0
  161.4640  205.0720  151.5940 C   0  0  0  0  0  0  0  0  0  0  0  0
  161.3110  200.9100  148.4130 C   0  0  0  0  0  0  0  0  0  0  0  0
  161.2720  200.7790  149.8050 C   0  0  0  0  0  3  0  0  0  0  0  0
  160.7870  203.1500  150.0240 C   0  0  0  0  0  0  0  0  0  0  0  0
  161.0960  202.1590  147.8250 C   0  0  0  0  0  3  0  0  0  0  0  0
  160.8330  203.2740  148.6260 C   0  0  0  0  0  3  0  0  0  0  0  0
  161.0070  201.8940  150.6080 C   0  0  0  0  0  0  0  0  0  0  0  0
  160.9640  201.7440  151.9900 O   0  0  0  0  0  1  0  0  0  0  0  0
  161.6070  199.7250  147.5610 C   0  0  0  0  0  2  0  0  0  0  0  0
  161.2870  200.0280  146.1100 C   0  0  2  0  0  3  0  0  0  0  0  0
  160.2280  199.1190  145.6500 N   0  0  0  0  0  2  0  0  0  0  0  0
  161.6310  198.8780  145.2840 C   0  0  0  0  0  2  0  0  0  0  0  0
  161.7890  210.0820  154.3090 O   0  0  0  0  0  0  0  0  0  0  0  0
  161.1860  211.3130  154.6040 C   0  0  0  0  0  0  0  0  0  0  0  0
  160.8290  212.1110  153.6980 O   0  0  0  0  0  0  0  0  0  0  0  0
  160.9270  211.6670  156.0250 C   0  0  0  0  0  2  0  0  0  0  0  0
  159.5060  211.2970  156.3920 C   0  0  0  0  0  2  0  0  0  0  0  0
  158.5910  212.4750  156.1320 C   0  0  0  0  0  2  0  0  0  0  0  0
  156.3870  210.9550  155.6660 O   0  0  0  0  0  1  0  0  0  0  0  0
  157.9450  211.3110  153.5960 O   0  0  0  0  0  0  0  0  0  0  0  0
  157.2680  211.9810  154.9930 P   0  0  0  0  0  0  0  0  0  0  0  0
  156.3390  213.3330  154.5780 O   0  0  0  0  0  1  0  0  0  0  0  0
  161.8630  207.8570  150.7130 C   0  0  1  0  0  3  0  0  0  0  0  0
  161.3190  207.1620  149.4880 C   0  0  0  0  0  0  0  0  0  0  0  0
  160.0790  206.9470  149.3810 O   0  0  0  0  0  0  0  0  0  0  0  0
  162.2140  206.6570  148.4920 N   0  0  0  0  0  2  0  0  0  0  0  0
  161.0460  206.9440  146.3810 C   0  0  0  0  0  1  0  0  0  0  0  0
  161.7510  205.9640  147.3010 C   0  0  1  0  0  3  0  0  0  0  0  0
  162.8270  204.7900  145.3940 C   0  0  0  0  0  3  0  0  0  0  0  0
  162.9190  205.3520  146.5980 C   0  0  0  0  0  3  0  0  0  0  0  0
  161.5850  204.7290  144.6930 N   0  0  0  0  0  2  0  0  0  0  0  0
  161.1650  205.8120  143.8180 C   0  0  0  0  0  2  0  0  0  0  0  0
  161.8880  205.7290  142.4830 C   0  0  0  0  0  2  0  0  0  0  0  0
  161.6030  206.8590  141.7170 O   0  0  0  0  0  0  0  0  0  0  0  0
  162.5240  206.8180  140.6720 C   0  0  0  0  0  2  0  0  0  0  0  0
  161.9580  206.1690  139.5750 O   0  0  0  0  0  0  0  0  0  0  0  0
  161.9400  207.1330  138.5660 C   0  0  0  0  0  1  0  0  0  0  0  0
  161.9420  209.3440  150.5500 C   0  0  0  0  0  3  0  0  0  0  0  0
  162.2720  209.8360  149.4830 O   0  0  0  0  0  0  0  0  0  0  0  0
  1  4  2  0  0  0  0
  1  3  1  0  0  0  0
  2  5  1  0  0  0  0
  3  6  1  0  0  0  0
  4  7  1  0  0  0  0
  6 22  1  0  0  0  0
  6  5  2  0  0  0  0
  7  2  2  0  0  0  0
  8 10  2  0  0  0  0
  9 10  1  0  0  0  0
 10  4  1  0  0  0  0
 11 12  1  0  0  0  0
 12 16  2  0  0  0  0
 13 16  1  0  0  0  0
 13  9  1  0  0  0  0
 14 11  2  0  0  0  0
 14 15  1  0  0  0  0
 15 13  2  0  0  0  0
 16 17  1  0  0  0  0
 18 11  1  0  0  0  0
 19 18  1  1  0  0  0
 20 19  1  0  0  0  0
 21 20  1  0  0  0  0
 21 19  1  0  0  0  0
 22 23  1  0  0  0  0
 23 25  1  0  0  0  0
 24 23  2  0  0  0  0
 25 26  1  0  0  0  0
 27 26  1  0  0  0  0
 29 30  2  0  0  0  0
 30 28  1  0  0  0  0
 30 27  1  0  0  0  0
 31 30  1  0  0  0  0
 32 47  1  6  0  0  0
 32  1  1  0  0  0  0
 33 32  1  0  0  0  0
 34 33  2  0  0  0  0
 35 33  1  0  0  0  0
 37 36  1  6  0  0  0
 37 35  1  0  0  0  0
 38 39  2  0  0  0  0
 39 37  1  0  0  0  0
 40 38  1  0  0  0  0
 41 40  1  0  0  0  0
 42 41  1  0  0  0  0
 43 42  1  0  0  0  0
 44 43  1  0  0  0  0
 45 44  1  0  0  0  0
 46 45  1  0  0  0  0
 48 47  2  0  0  0  0
M  END
>  <MODEL>
9

>  <REMARK>
 VINA RESULT:      -3.8      3.171      5.368
  Name = 
  21 active torsions:
  status: ('A' for Active; 'I' for Inactive)
    1  A    between atoms: C_1  and  C_19
    2  A    between atoms: C_4  and  N_37
    3  A    between atoms: C_6  and  C_35
    4  A    between atoms: C_7  and  C_12
    5  A    between atoms: C_7  and  O_26
    6  A    between atoms: C_8  and  O_31
    7  A    between atoms: C_8  and  C_33
    8  A    between atoms: C_9  and  C_23
    9  A    between atoms: C_9  and  N_24
   10  A    between atoms: C_10  and  C_35
   11  A    between atoms: O_11  and  C_18
   12  A    between atoms: C_12  and  N_14
   13  A    between atoms: C_13  and  C_19
   14  A    between atoms: N_14  and  C_22
   15  A    between atoms: C_16  and  C_35
   16  A    between atoms: C_18  and  O_26
   17  A    between atoms: C_25  and  C_28
   18  A    between atoms: C_25  and  P_34
   19  A    between atoms: C_28  and  C_33
   20  A    between atoms: O_31  and  C_43
   21  A    between atoms: C_36  and  C_42
                            x       y       z     vdW  Elec       q    Type
                         _______ _______ _______ _____ _____    ______ ____

>  <TORSDO>
F 21

$$$$
