=
 OpenBabel11052411523D

 32 37  0  0  1  0  0  0  0  0999 V2000
  161.3550  204.1840  147.9720 C   0  0  0  0  0  3  0  0  0  0  0  0
  161.0890  206.8010  152.9500 C   0  0  0  0  0  0  0  0  0  0  0  0
  161.1480  206.1100  151.7270 C   0  0  0  0  0  0  0  0  0  0  0  0
  161.8300  209.0780  149.4170 C   0  0  0  0  0  0  0  0  0  0  0  0
  161.1790  202.8010  147.9140 C   0  0  0  0  0  3  0  0  0  0  0  0
  160.9450  202.0950  149.0500 N   0  0  0  0  0  0  0  0  0  0  0  0
  160.7320  203.9470  152.7660 O   0  0  0  0  0  1  0  0  0  0  0  0
  161.9930  210.3680  149.4860 N   0  0  0  0  0  2  0  0  0  0  0  0
  161.0460  204.0880  150.3760 C   0  0  0  0  0  0  0  0  0  0  0  0
  160.9300  207.5120  155.0050 C   0  0  0  0  0  0  0  0  0  0  0  0
  160.9750  204.7150  151.6290 C   0  0  0  0  0  0  0  0  0  0  0  0
  161.5720  208.2920  150.6450 C   0  0  0  0  0  0  0  0  0  0  0  0
  161.2620  208.1580  153.0200 C   0  0  0  0  0  0  0  0  0  0  0  0
  161.8910  208.3630  148.1270 C   0  0  0  0  0  3  0  0  0  0  0  0
  161.5030  208.9350  151.8960 C   0  0  0  0  0  3  0  0  0  0  0  0
  160.8700  206.3480  154.2400 C   0  0  0  0  0  3  0  0  0  0  0  0
  161.7210  207.0420  148.0730 C   0  0  0  0  0  2  0  0  0  0  0  0
  161.4650  206.2400  149.2940 C   0  0  0  0  0  0  0  0  0  0  0  0
  161.3950  206.8800  150.5530 C   0  0  0  0  0  0  0  0  0  0  0  0
  161.1650  208.5720  154.2550 O   0  0  0  0  0  0  0  0  0  0  0  0
  160.8760  202.7030  150.2640 C   0  0  0  0  0  3  0  0  0  0  0  0
  161.2900  204.8450  149.2070 C   0  0  0  0  0  0  0  0  0  0  0  0
  160.7590  207.5730  156.4590 C   0  0  0  0  0  0  0  0  0  0  0  0
  161.6390  208.3580  157.2570 N   0  0  0  0  0  1  0  0  0  0  0  0
  159.8280  206.9280  157.0100 O   0  0  0  0  0  0  0  0  0  0  0  0
  162.2630  211.2240  148.3370 C   0  0  0  0  0  2  0  0  0  0  0  0
  161.4790  212.5190  148.4560 C   0  0  0  0  0  2  0  0  0  0  0  0
  159.7420  213.5820  146.8710 C   0  0  2  0  0  3  0  0  0  0  0  0
  160.1190  212.1900  146.4090 C   0  0  0  0  0  2  0  0  0  0  0  0
  161.1720  213.0590  147.0650 C   0  0  2  0  0  3  0  0  0  0  0  0
  157.4940  212.9290  147.6940 C   0  0  0  0  0  1  0  0  0  0  0  0
  158.8440  213.4850  148.0980 C   0  0  0  0  0  2  0  0  0  0  0  0
  1 22  1  0  0  0  0
  2 13  1  0  0  0  0
  2 16  1  0  0  0  0
  3  2  2  0  0  0  0
  4  8  1  0  0  0  0
  4 12  1  0  0  0  0
  5  1  2  0  0  0  0
  5  6  1  0  0  0  0
  6 21  2  0  0  0  0
  9 11  2  0  0  0  0
 10 23  1  0  0  0  0
 11  3  1  0  0  0  0
 11  7  1  0  0  0  0
 12 15  1  0  0  0  0
 13 20  1  0  0  0  0
 14  4  2  0  0  0  0
 15 13  2  0  0  0  0
 16 10  2  0  0  0  0
 17 14  1  0  0  0  0
 17 18  1  0  0  0  0
 18 19  1  0  0  0  0
 19 12  2  0  0  0  0
 19  3  1  0  0  0  0
 20 10  1  0  0  0  0
 21  9  1  0  0  0  0
 22 18  2  0  0  0  0
 22  9  1  0  0  0  0
 23 25  2  0  0  0  0
 23 24  1  0  0  0  0
 26 27  1  0  0  0  0
 26  8  1  0  0  0  0
 28 30  1  0  0  0  0
 28 32  1  1  0  0  0
 29 28  1  0  0  0  0
 29 30  1  0  0  0  0
 30 27  1  1  0  0  0
 31 32  1  0  0  0  0
M  END
>  <MODEL>
1

>  <REMARK>
 VINA RESULT:     -10.3      0.000      0.000
  Name = 
  5 active torsions:
  status: ('A' for Active; 'I' for Inactive)
    1  A    between atoms: C_2  and  C_16
    2  A    between atoms: C_3  and  C_29
    3  A    between atoms: C_12  and  C_28
    4  A    between atoms: N_13  and  C_17
    5  A    between atoms: C_17  and  C_28
                            x       y       z     vdW  Elec       q    Type
                         _______ _______ _______ _____ _____    ______ ____

>  <TORSDO>
F 5

$$$$
=
 OpenBabel11052411523D

 32 37  0  0  1  0  0  0  0  0999 V2000
  160.9200  202.8080  150.0360 C   0  0  0  0  0  3  0  0  0  0  0  0
  161.7500  208.3480  149.4790 C   0  0  0  0  0  0  0  0  0  0  0  0
  161.5460  206.9610  149.5760 C   0  0  0  0  0  0  0  0  0  0  0  0
  161.1710  206.6930  153.3700 C   0  0  0  0  0  0  0  0  0  0  0  0
  160.9050  201.9990  148.9000 C   0  0  0  0  0  3  0  0  0  0  0  0
  161.0910  202.5470  147.6700 N   0  0  0  0  0  0  0  0  0  0  0  0
  161.7110  206.6260  147.1690 O   0  0  0  0  0  1  0  0  0  0  0  0
  161.1870  207.4590  154.4220 N   0  0  0  0  0  2  0  0  0  0  0  0
  161.3160  204.7360  148.6180 C   0  0  0  0  0  0  0  0  0  0  0  0
  162.0920  210.4330  148.9380 C   0  0  0  0  0  0  0  0  0  0  0  0
  161.5250  206.1120  148.4510 C   0  0  0  0  0  0  0  0  0  0  0  0
  161.3740  207.2710  152.0220 C   0  0  0  0  0  0  0  0  0  0  0  0
  161.7660  209.1530  150.5880 C   0  0  0  0  0  0  0  0  0  0  0  0
  160.9590  205.2360  153.4830 C   0  0  0  0  0  3  0  0  0  0  0  0
  161.5830  208.6550  151.8700 C   0  0  0  0  0  3  0  0  0  0  0  0
  161.9630  209.1620  148.3790 C   0  0  0  0  0  3  0  0  0  0  0  0
  160.9470  204.4640  152.3960 C   0  0  0  0  0  3  0  0  0  0  0  0
  161.1450  205.0280  151.0390 C   0  0  0  0  0  0  0  0  0  0  0  0
  161.3540  206.4180  150.8800 C   0  0  2  0  0  3  0  0  0  0  0  0
  161.9710  210.3980  150.2510 O   0  0  0  0  0  0  0  0  0  0  0  0
  161.2930  203.8810  147.5090 C   0  0  0  0  0  3  0  0  0  0  0  0
  161.1260  204.1890  149.9080 C   0  0  0  0  0  0  0  0  0  0  0  0
  162.3330  211.6640  148.1800 C   0  0  0  0  0  0  0  0  0  0  0  0
  161.2920  212.2480  147.4040 N   0  0  0  0  0  1  0  0  0  0  0  0
  163.4660  212.2110  148.2130 O   0  0  0  0  0  0  0  0  0  0  0  0
  160.9860  206.9860  155.7860 C   0  0  0  0  0  2  0  0  0  0  0  0
  160.3380  208.0720  156.6260 C   0  0  0  0  0  2  0  0  0  0  0  0
  160.8670  210.5220  156.0080 C   0  0  2  0  0  3  0  0  0  0  0  0
  159.4820  210.3990  156.6090 C   0  0  0  0  0  2  0  0  0  0  0  0
  160.0140  209.2720  155.7470 C   0  0  2  0  0  3  0  0  0  0  0  0
  163.2720  210.7660  156.5690 C   0  0  0  0  0  1  0  0  0  0  0  0
  161.9120  210.3740  157.1070 C   0  0  0  0  0  2  0  0  0  0  0  0
  2  3  2  0  0  0  0
  2 13  1  0  0  0  0
  4 14  1  0  0  0  0
  4  8  1  0  0  0  0
  5  1  2  0  0  0  0
  6  5  1  0  0  0  0
  7 11  1  0  0  0  0
  8 26  1  0  0  0  0
  9 22  1  0  0  0  0
 10 20  1  0  0  0  0
 11  9  2  0  0  0  0
 11  3  1  0  0  0  0
 12  4  2  0  0  0  0
 13 15  2  0  0  0  0
 15 12  1  0  0  0  0
 16 10  2  0  0  0  0
 16  2  1  0  0  0  0
 17 14  2  0  0  0  0
 18 17  1  0  0  0  0
 19  3  1  1  0  0  0
 19 18  1  0  0  0  0
 19 12  1  0  0  0  0
 20 13  1  0  0  0  0
 21  6  2  0  0  0  0
 21  9  1  0  0  0  0
 22  1  1  0  0  0  0
 22 18  2  0  0  0  0
 23 25  2  0  0  0  0
 23 10  1  0  0  0  0
 24 23  1  0  0  0  0
 26 27  1  0  0  0  0
 28 29  1  0  0  0  0
 28 32  1  1  0  0  0
 30 28  1  0  0  0  0
 30 29  1  0  0  0  0
 30 27  1  1  0  0  0
 31 32  1  0  0  0  0
M  END
>  <MODEL>
2

>  <REMARK>
 VINA RESULT:     -10.3      2.626      6.455
  Name = 
  5 active torsions:
  status: ('A' for Active; 'I' for Inactive)
    1  A    between atoms: C_2  and  C_16
    2  A    between atoms: C_3  and  C_29
    3  A    between atoms: C_12  and  C_28
    4  A    between atoms: N_13  and  C_17
    5  A    between atoms: C_17  and  C_28
                            x       y       z     vdW  Elec       q    Type
                         _______ _______ _______ _____ _____    ______ ____

>  <TORSDO>
F 5

$$$$
=
 OpenBabel11052411523D

 32 37  0  0  1  0  0  0  0  0999 V2000
  160.6170  206.9720  155.8420 C   0  0  0  0  0  3  0  0  0  0  0  0
  161.6710  209.4030  150.8740 C   0  0  0  0  0  0  0  0  0  0  0  0
  161.4090  208.8350  152.1330 C   0  0  0  0  0  0  0  0  0  0  0  0
  161.2110  205.1660  151.0820 C   0  0  0  0  0  0  0  0  0  0  0  0
  160.5120  207.7650  156.9850 C   0  0  0  0  0  3  0  0  0  0  0  0
  160.6630  209.1120  156.8970 N   0  0  0  0  0  0  0  0  0  0  0  0
  161.4420  210.9890  153.2700 O   0  0  0  0  0  1  0  0  0  0  0  0
  161.3120  204.4380  150.0080 N   0  0  0  0  0  0  0  0  0  0  0  0
  161.0330  208.9720  154.5340 C   0  0  0  0  0  0  0  0  0  0  0  0
  162.0810  210.6310  149.1200 C   0  0  0  0  0  0  0  0  0  0  0  0
  161.2960  209.6030  153.3090 C   0  0  0  0  0  0  0  0  0  0  0  0
  161.3700  206.6360  151.0060 C   0  0  0  0  0  0  0  0  0  0  0  0
  161.7770  208.6350  149.7450 C   0  0  0  0  0  0  0  0  0  0  0  0
  160.9320  204.5590  152.3990 C   0  0  0  0  0  3  0  0  0  0  0  0
  161.6330  207.2550  149.7690 C   0  0  0  0  0  3  0  0  0  0  0  0
  161.8660  210.7210  150.4940 C   0  0  0  0  0  3  0  0  0  0  0  0
  160.8300  205.3180  153.4900 C   0  0  0  0  0  3  0  0  0  0  0  0
  160.9910  206.7910  153.4310 C   0  0  0  0  0  0  0  0  0  0  0  0
  161.2560  207.4190  152.1920 C   0  0  0  0  0  0  0  0  0  0  0  0
  162.0230  209.3810  148.7010 O   0  0  0  0  0  0  0  0  0  0  0  0
  160.9180  209.7240  155.7100 C   0  0  0  0  0  3  0  0  0  0  0  0
  160.8790  207.5680  154.6000 C   0  0  0  0  0  0  0  0  0  0  0  0
  162.3400  211.7690  148.2330 C   0  0  0  0  0  0  0  0  0  0  0  0
  161.2730  212.3830  147.5170 N   0  0  0  0  0  1  0  0  0  0  0  0
  163.5110  212.2100  148.1020 O   0  0  0  0  0  0  0  0  0  0  0  0
  161.1830  202.9850  149.9840 C   0  0  0  0  0  2  0  0  0  0  0  0
  161.1930  202.4840  148.5520 C   0  0  0  0  0  2  0  0  0  0  0  0
  160.9920  203.3010  146.1120 C   0  0  2  0  0  3  0  0  0  0  0  0
  162.3550  203.6300  146.6860 C   0  0  0  0  0  2  0  0  0  0  0  0
  161.1440  203.6680  147.5950 C   0  0  2  0  0  3  0  0  0  0  0  0
  159.7880  201.5460  144.8370 C   0  0  0  0  0  1  0  0  0  0  0  0
  160.9110  201.8080  145.8190 C   0  0  0  0  0  2  0  0  0  0  0  0
  1  5  1  0  0  0  0
  2  3  1  0  0  0  0
  3 19  1  0  0  0  0
  3 11  2  0  0  0  0
  4 14  1  0  0  0  0
  6  5  2  0  0  0  0
  7 11  1  0  0  0  0
  8  4  2  0  0  0  0
  9 22  1  0  0  0  0
  9 21  2  0  0  0  0
 10 16  2  0  0  0  0
 11  9  1  0  0  0  0
 12  4  1  0  0  0  0
 12 19  1  0  0  0  0
 13 15  1  0  0  0  0
 13  2  2  0  0  0  0
 14 17  2  0  0  0  0
 15 12  2  0  0  0  0
 16  2  1  0  0  0  0
 18 17  1  0  0  0  0
 18 22  1  0  0  0  0
 19 18  2  0  0  0  0
 20 10  1  0  0  0  0
 20 13  1  0  0  0  0
 21  6  1  0  0  0  0
 22  1  2  0  0  0  0
 23 10  1  0  0  0  0
 24 23  1  0  0  0  0
 25 23  2  0  0  0  0
 26  8  1  0  0  0  0
 27 26  1  0  0  0  0
 28 32  1  1  0  0  0
 28 29  1  0  0  0  0
 28 30  1  0  0  0  0
 29 30  1  0  0  0  0
 30 27  1  1  0  0  0
 31 32  1  0  0  0  0
M  END
>  <MODEL>
3

>  <REMARK>
 VINA RESULT:      -9.9      2.437      7.650
  Name = 
  5 active torsions:
  status: ('A' for Active; 'I' for Inactive)
    1  A    between atoms: C_2  and  C_16
    2  A    between atoms: C_3  and  C_29
    3  A    between atoms: C_12  and  C_28
    4  A    between atoms: N_13  and  C_17
    5  A    between atoms: C_17  and  C_28
                            x       y       z     vdW  Elec       q    Type
                         _______ _______ _______ _____ _____    ______ ____

>  <TORSDO>
F 5

$$$$
=
 OpenBabel11052411523D

 32 37  0  0  1  0  0  0  0  0999 V2000
  160.5830  206.7120  154.9870 C   0  0  0  0  0  3  0  0  0  0  0  0
  161.6840  209.8720  150.4590 C   0  0  0  0  0  0  0  0  0  0  0  0
  161.4100  209.1190  151.6130 C   0  0  0  0  0  0  0  0  0  0  0  0
  161.2220  205.6520  150.0130 C   0  0  0  0  0  0  0  0  0  0  0  0
  160.4670  207.3220  156.2360 C   0  0  0  0  0  3  0  0  0  0  0  0
  160.6180  208.6670  156.3560 N   0  0  0  0  0  0  0  0  0  0  0  0
  161.4310  211.0730  153.0660 O   0  0  0  0  0  1  0  0  0  0  0  0
  161.3340  205.0970  148.8410 N   0  0  0  0  0  0  0  0  0  0  0  0
  161.0110  208.8880  154.0030 C   0  0  0  0  0  0  0  0  0  0  0  0
  162.1100  211.3520  148.9160 C   0  0  0  0  0  0  0  0  0  0  0  0
  161.2850  209.6980  152.8920 C   0  0  0  0  0  0  0  0  0  0  0  0
  161.3820  207.1170  150.1630 C   0  0  0  0  0  0  0  0  0  0  0  0
  161.8010  209.2850  149.2270 C   0  0  0  0  0  0  0  0  0  0  0  0
  160.9310  204.8520  151.2190 C   0  0  0  0  0  3  0  0  0  0  0  0
  161.6570  207.9170  149.0390 C   0  0  0  0  0  3  0  0  0  0  0  0
  161.8820  211.2310  150.2860 C   0  0  0  0  0  3  0  0  0  0  0  0
  160.8190  205.4360  152.4120 C   0  0  0  0  0  3  0  0  0  0  0  0
  160.9790  206.9010  152.5800 C   0  0  0  0  0  0  0  0  0  0  0  0
  161.2570  207.7100  151.4540 C   0  0  0  0  0  0  0  0  0  0  0  0
  162.0560  210.1810  148.3110 O   0  0  0  0  0  0  0  0  0  0  0  0
  160.8840  209.4520  155.2790 C   0  0  0  0  0  3  0  0  0  0  0  0
  160.8560  207.4910  153.8530 C   0  0  0  0  0  0  0  0  0  0  0  0
  162.3770  212.6120  148.2160 C   0  0  0  0  0  0  0  0  0  0  0  0
  161.7460  213.8180  148.6350 N   0  0  0  0  0  1  0  0  0  0  0  0
  163.1700  212.6320  147.2390 O   0  0  0  0  0  0  0  0  0  0  0  0
  161.2050  203.6650  148.5950 C   0  0  0  0  0  2  0  0  0  0  0  0
  161.6600  203.3350  147.1850 C   0  0  0  0  0  2  0  0  0  0  0  0
  162.3400  205.2230  145.5620 C   0  0  2  0  0  3  0  0  0  0  0  0
  163.1880  203.9870  145.3450 C   0  0  0  0  0  2  0  0  0  0  0  0
  162.7290  204.3280  146.7480 C   0  0  2  0  0  3  0  0  0  0  0  0
  160.0810  206.2040  145.2620 C   0  0  0  0  0  1  0  0  0  0  0  0
  160.9430  204.9860  145.0030 C   0  0  0  0  0  2  0  0  0  0  0  0
  1  5  1  0  0  0  0
  2  3  1  0  0  0  0
  3 11  2  0  0  0  0
  4 12  1  0  0  0  0
  4 14  1  0  0  0  0
  5  6  2  0  0  0  0
  8  4  2  0  0  0  0
  9 21  2  0  0  0  0
 10 16  2  0  0  0  0
 11  7  1  0  0  0  0
 11  9  1  0  0  0  0
 12 19  1  0  0  0  0
 13  2  2  0  0  0  0
 14 17  2  0  0  0  0
 15 13  1  0  0  0  0
 15 12  2  0  0  0  0
 16  2  1  0  0  0  0
 17 18  1  0  0  0  0
 18 22  1  0  0  0  0
 19  3  1  0  0  0  0
 19 18  2  0  0  0  0
 20 10  1  0  0  0  0
 20 13  1  0  0  0  0
 21  6  1  0  0  0  0
 22  9  1  0  0  0  0
 22  1  2  0  0  0  0
 23 24  1  0  0  0  0
 23 10  1  0  0  0  0
 25 23  2  0  0  0  0
 26  8  1  0  0  0  0
 27 26  1  0  0  0  0
 28 32  1  6  0  0  0
 28 30  1  0  0  0  0
 29 28  1  0  0  0  0
 29 30  1  0  0  0  0
 30 27  1  6  0  0  0
 32 31  1  0  0  0  0
M  END
>  <MODEL>
4

>  <REMARK>
 VINA RESULT:      -9.7      2.533      7.077
  Name = 
  5 active torsions:
  status: ('A' for Active; 'I' for Inactive)
    1  A    between atoms: C_2  and  C_16
    2  A    between atoms: C_3  and  C_29
    3  A    between atoms: C_12  and  C_28
    4  A    between atoms: N_13  and  C_17
    5  A    between atoms: C_17  and  C_28
                            x       y       z     vdW  Elec       q    Type
                         _______ _______ _______ _____ _____    ______ ____

>  <TORSDO>
F 5

$$$$
=
 OpenBabel11052411523D

 32 37  0  0  1  0  0  0  0  0999 V2000
  161.0710  208.9940  154.4720 C   0  0  0  0  0  3  0  0  0  0  0  0
  161.3000  205.7230  149.8950 C   0  0  0  0  0  0  0  0  0  0  0  0
  161.2350  206.5050  151.0610 C   0  0  0  0  0  0  0  0  0  0  0  0
  161.9050  209.9300  149.5020 C   0  0  0  0  0  0  0  0  0  0  0  0
  160.8160  208.4160  155.7160 C   0  0  0  0  0  3  0  0  0  0  0  0
  160.6260  207.0740  155.8180 N   0  0  0  0  0  0  0  0  0  0  0  0
  160.7790  204.5870  152.4910 O   0  0  0  0  0  1  0  0  0  0  0  0
  162.1420  210.4560  148.3360 N   0  0  0  0  0  0  0  0  0  0  0  0
  160.9280  206.7950  153.4580 C   0  0  0  0  0  0  0  0  0  0  0  0
  161.3270  204.2060  148.3300 C   0  0  0  0  0  0  0  0  0  0  0  0
  160.9810  205.9570  152.3340 C   0  0  0  0  0  0  0  0  0  0  0  0
  161.6970  208.4700  149.6340 C   0  0  0  0  0  0  0  0  0  0  0  0
  161.5490  206.2790  148.6680 C   0  0  0  0  0  0  0  0  0  0  0  0
  161.8420  210.7600  150.7220 C   0  0  0  0  0  3  0  0  0  0  0  0
  161.7530  207.6420  148.4970 C   0  0  0  0  0  3  0  0  0  0  0  0
  161.1500  204.3600  149.7040 C   0  0  0  0  0  3  0  0  0  0  0  0
  161.6000  210.2060  151.9100 C   0  0  0  0  0  3  0  0  0  0  0  0
  161.3860  208.7460  152.0580 C   0  0  0  0  0  0  0  0  0  0  0  0
  161.4390  207.9090  150.9200 C   0  0  0  0  0  0  0  0  0  0  0  0
  161.5620  205.3610  147.7390 O   0  0  0  0  0  0  0  0  0  0  0  0
  160.6760  206.2630  154.7290 C   0  0  0  0  0  3  0  0  0  0  0  0
  161.1310  208.1880  153.3260 C   0  0  0  0  0  0  0  0  0  0  0  0
  161.2630  202.9290  147.6120 C   0  0  0  0  0  0  0  0  0  0  0  0
  161.2750  202.9010  146.1890 N   0  0  0  0  0  1  0  0  0  0  0  0
  161.1980  201.8490  148.2550 O   0  0  0  0  0  0  0  0  0  0  0  0
  162.3480  211.8810  148.1030 C   0  0  0  0  0  2  0  0  0  0  0  0
  161.0800  212.5090  147.5530 C   0  0  0  0  0  2  0  0  0  0  0  0
  160.8100  213.6640  145.2610 C   0  0  2  0  0  3  0  0  0  0  0  0
  162.2360  213.1950  145.4700 C   0  0  0  0  0  2  0  0  0  0  0  0
  161.4400  213.6900  146.6610 C   0  0  2  0  0  3  0  0  0  0  0  0
  160.1070  212.0240  143.5380 C   0  0  0  0  0  1  0  0  0  0  0  0
  159.9180  212.4630  144.9750 C   0  0  0  0  0  2  0  0  0  0  0  0
  1  5  1  0  0  0  0
  2  3  1  0  0  0  0
  3 11  2  0  0  0  0
  4 12  1  0  0  0  0
  4 14  1  0  0  0  0
  5  6  2  0  0  0  0
  8  4  2  0  0  0  0
  9 21  2  0  0  0  0
 10 16  2  0  0  0  0
 11  7  1  0  0  0  0
 11  9  1  0  0  0  0
 12 19  1  0  0  0  0
 13  2  2  0  0  0  0
 14 17  2  0  0  0  0
 15 13  1  0  0  0  0
 15 12  2  0  0  0  0
 16  2  1  0  0  0  0
 17 18  1  0  0  0  0
 18 22  1  0  0  0  0
 19  3  1  0  0  0  0
 19 18  2  0  0  0  0
 20 10  1  0  0  0  0
 20 13  1  0  0  0  0
 21  6  1  0  0  0  0
 22  9  1  0  0  0  0
 22  1  2  0  0  0  0
 23 25  2  0  0  0  0
 23 10  1  0  0  0  0
 24 23  1  0  0  0  0
 26  8  1  0  0  0  0
 27 26  1  0  0  0  0
 28 32  1  1  0  0  0
 28 29  1  0  0  0  0
 28 30  1  0  0  0  0
 29 30  1  0  0  0  0
 30 27  1  1  0  0  0
 31 32  1  0  0  0  0
M  END
>  <MODEL>
5

>  <REMARK>
 VINA RESULT:      -9.2      1.796      5.450
  Name = 
  5 active torsions:
  status: ('A' for Active; 'I' for Inactive)
    1  A    between atoms: C_2  and  C_16
    2  A    between atoms: C_3  and  C_29
    3  A    between atoms: C_12  and  C_28
    4  A    between atoms: N_13  and  C_17
    5  A    between atoms: C_17  and  C_28
                            x       y       z     vdW  Elec       q    Type
                         _______ _______ _______ _____ _____    ______ ____

>  <TORSDO>
F 5

$$$$
=
 OpenBabel11052411523D

 32 37  0  0  1  0  0  0  0  0999 V2000
  160.7370  206.7180  154.5420 C   0  0  0  0  0  3  0  0  0  0  0  0
  161.6450  210.2880  150.2840 C   0  0  0  0  0  0  0  0  0  0  0  0
  161.4140  209.4300  151.3730 C   0  0  0  0  0  0  0  0  0  0  0  0
  161.7220  206.0840  149.5520 C   0  0  0  0  0  0  0  0  0  0  0  0
  160.4920  207.2220  155.8190 C   0  0  0  0  0  3  0  0  0  0  0  0
  160.4730  208.5640  156.0310 N   0  0  0  0  0  0  0  0  0  0  0  0
  161.1320  211.2700  152.9440 O   0  0  0  0  0  1  0  0  0  0  0  0
  161.9520  205.6270  148.3550 N   0  0  0  0  0  0  0  0  0  0  0  0
  160.9400  208.9910  153.7200 C   0  0  0  0  0  0  0  0  0  0  0  0
  161.9550  211.9110  148.8610 C   0  0  0  0  0  0  0  0  0  0  0  0
  161.1620  209.9020  152.6770 C   0  0  0  0  0  0  0  0  0  0  0  0
  161.6950  207.5430  149.8010 C   0  0  0  0  0  0  0  0  0  0  0  0
  161.8870  209.8050  149.0250 C   0  0  0  0  0  0  0  0  0  0  0  0
  161.4770  205.1750  150.6880 C   0  0  0  0  0  3  0  0  0  0  0  0
  161.9200  208.4460  148.7450 C   0  0  0  0  0  3  0  0  0  0  0  0
  161.6830  211.6700  150.2070 C   0  0  0  0  0  3  0  0  0  0  0  0
  161.2420  205.6580  151.9090 C   0  0  0  0  0  3  0  0  0  0  0  0
  161.2150  207.1160  152.1750 C   0  0  0  0  0  0  0  0  0  0  0  0
  161.4410  208.0280  151.1180 C   0  0  0  0  0  0  0  0  0  0  0  0
  162.0720  210.7850  148.1830 O   0  0  0  0  0  0  0  0  0  0  0  0
  160.6890  209.4470  155.0200 C   0  0  0  0  0  3  0  0  0  0  0  0
  160.9640  207.5990  153.4750 C   0  0  0  0  0  0  0  0  0  0  0  0
  162.0980  213.2380  148.2560 C   0  0  0  0  0  0  0  0  0  0  0  0
  161.4900  214.3750  148.8610 N   0  0  0  0  0  1  0  0  0  0  0  0
  162.7620  213.3780  147.1960 O   0  0  0  0  0  0  0  0  0  0  0  0
  162.0100  204.2110  148.0140 C   0  0  0  0  0  2  0  0  0  0  0  0
  160.7480  203.5090  148.4810 C   0  0  0  0  0  2  0  0  0  0  0  0
  161.1820  200.9660  148.5470 C   0  0  2  0  0  3  0  0  0  0  0  0
  159.9510  201.3290  149.3520 C   0  0  0  0  0  2  0  0  0  0  0  0
  161.1200  202.2920  149.3180 C   0  0  2  0  0  3  0  0  0  0  0  0
  161.2050  199.7550  146.3820 C   0  0  0  0  0  1  0  0  0  0  0  0
  160.8640  201.0650  147.0610 C   0  0  0  0  0  2  0  0  0  0  0  0
  1  5  1  0  0  0  0
  2  3  1  0  0  0  0
  3 11  2  0  0  0  0
  4 12  1  0  0  0  0
  4 14  1  0  0  0  0
  5  6  2  0  0  0  0
  8  4  2  0  0  0  0
  9 21  2  0  0  0  0
 10 16  2  0  0  0  0
 11  7  1  0  0  0  0
 11  9  1  0  0  0  0
 12 19  1  0  0  0  0
 13  2  2  0  0  0  0
 14 17  2  0  0  0  0
 15 13  1  0  0  0  0
 15 12  2  0  0  0  0
 16  2  1  0  0  0  0
 17 18  1  0  0  0  0
 18 22  1  0  0  0  0
 19  3  1  0  0  0  0
 19 18  2  0  0  0  0
 20 10  1  0  0  0  0
 20 13  1  0  0  0  0
 21  6  1  0  0  0  0
 22  9  1  0  0  0  0
 22  1  2  0  0  0  0
 23 10  1  0  0  0  0
 23 24  1  0  0  0  0
 25 23  2  0  0  0  0
 26  8  1  0  0  0  0
 26 27  1  0  0  0  0
 28 32  1  6  0  0  0
 28 30  1  0  0  0  0
 28 29  1  0  0  0  0
 30 27  1  6  0  0  0
 30 29  1  0  0  0  0
 31 32  1  0  0  0  0
M  END
>  <MODEL>
6

>  <REMARK>
 VINA RESULT:      -8.3      2.546      7.836
  Name = 
  5 active torsions:
  status: ('A' for Active; 'I' for Inactive)
    1  A    between atoms: C_2  and  C_16
    2  A    between atoms: C_3  and  C_29
    3  A    between atoms: C_12  and  C_28
    4  A    between atoms: N_13  and  C_17
    5  A    between atoms: C_17  and  C_28
                            x       y       z     vdW  Elec       q    Type
                         _______ _______ _______ _____ _____    ______ ____

>  <TORSDO>
F 5

$$$$
=
 OpenBabel11052411523D

 32 37  0  0  1  0  0  0  0  0999 V2000
  161.9600  210.8600  150.3700 C   0  0  0  0  0  3  0  0  0  0  0  0
  161.1970  205.3000  149.9230 C   0  0  0  0  0  0  0  0  0  0  0  0
  161.3930  206.6900  149.9920 C   0  0  0  0  0  0  0  0  0  0  0  0
  160.9910  207.1450  153.7660 C   0  0  0  0  0  0  0  0  0  0  0  0
  162.2150  211.6120  149.2230 C   0  0  0  0  0  3  0  0  0  0  0  0
  162.2770  211.0040  148.0090 N   0  0  0  0  0  0  0  0  0  0  0  0
  161.7250  206.9060  147.5890 O   0  0  0  0  0  1  0  0  0  0  0  0
  160.7540  206.4310  154.8280 N   0  0  0  0  0  2  0  0  0  0  0  0
  161.8390  208.8650  148.9960 C   0  0  0  0  0  0  0  0  0  0  0  0
  160.9490  203.1920  149.4240 C   0  0  0  0  0  0  0  0  0  0  0  0
  161.6520  207.4820  148.8560 C   0  0  0  0  0  0  0  0  0  0  0  0
  161.0610  206.5010  152.4340 C   0  0  0  0  0  0  0  0  0  0  0  0
  160.9470  204.5510  151.0420 C   0  0  0  0  0  0  0  0  0  0  0  0
  161.1920  208.6050  153.8490 C   0  0  0  0  0  3  0  0  0  0  0  0
  160.8710  205.1120  152.3100 C   0  0  0  0  0  3  0  0  0  0  0  0
  161.2040  204.4330  148.8430 C   0  0  0  0  0  3  0  0  0  0  0  0
  161.4340  209.3230  152.7520 C   0  0  0  0  0  3  0  0  0  0  0  0
  161.5100  208.6920  151.4120 C   0  0  0  0  0  0  0  0  0  0  0  0
  161.3220  207.2970  151.2800 C   0  0  2  0  0  3  0  0  0  0  0  0
  160.8010  203.2910  150.7310 O   0  0  0  0  0  0  0  0  0  0  0  0
  162.0970  209.6640  147.8740 C   0  0  0  0  0  3  0  0  0  0  0  0
  161.7680  209.4750  150.2690 C   0  0  0  0  0  0  0  0  0  0  0  0
  160.8530  201.9250  148.6930 C   0  0  0  0  0  0  0  0  0  0  0  0
  160.8630  201.9120  147.2700 N   0  0  0  0  0  1  0  0  0  0  0  0
  160.7640  200.8400  149.3250 O   0  0  0  0  0  0  0  0  0  0  0  0
  160.6780  206.9710  156.1810 C   0  0  0  0  0  2  0  0  0  0  0  0
  159.6650  208.1000  156.2360 C   0  0  0  0  0  2  0  0  0  0  0  0
  159.6990  210.5830  156.9420 C   0  0  2  0  0  3  0  0  0  0  0  0
  161.0940  210.0920  156.6090 C   0  0  0  0  0  2  0  0  0  0  0  0
  160.1110  209.1380  157.2580 C   0  0  2  0  0  3  0  0  0  0  0  0
  159.4960  211.9000  154.8490 C   0  0  0  0  0  1  0  0  0  0  0  0
  158.9040  210.7620  155.6550 C   0  0  0  0  0  2  0  0  0  0  0  0
  2  3  2  0  0  0  0
  2 13  1  0  0  0  0
  4 14  1  0  0  0  0
  4  8  1  0  0  0  0
  5  1  2  0  0  0  0
  6  5  1  0  0  0  0
  7 11  1  0  0  0  0
  8 26  1  0  0  0  0
  9 22  1  0  0  0  0
 10 20  1  0  0  0  0
 11  9  2  0  0  0  0
 11  3  1  0  0  0  0
 12  4  2  0  0  0  0
 13 15  2  0  0  0  0
 15 12  1  0  0  0  0
 16 10  2  0  0  0  0
 16  2  1  0  0  0  0
 17 14  2  0  0  0  0
 18 17  1  0  0  0  0
 19  3  1  6  0  0  0
 19 18  1  0  0  0  0
 19 12  1  0  0  0  0
 20 13  1  0  0  0  0
 21  6  2  0  0  0  0
 21  9  1  0  0  0  0
 22  1  1  0  0  0  0
 22 18  2  0  0  0  0
 23 25  2  0  0  0  0
 23 10  1  0  0  0  0
 24 23  1  0  0  0  0
 26 27  1  0  0  0  0
 28 32  1  6  0  0  0
 28 30  1  0  0  0  0
 29 28  1  0  0  0  0
 29 30  1  0  0  0  0
 30 27  1  6  0  0  0
 31 32  1  0  0  0  0
M  END
>  <MODEL>
7

>  <REMARK>
 VINA RESULT:      -7.8      2.560      7.169
  Name = 
  5 active torsions:
  status: ('A' for Active; 'I' for Inactive)
    1  A    between atoms: C_2  and  C_16
    2  A    between atoms: C_3  and  C_29
    3  A    between atoms: C_12  and  C_28
    4  A    between atoms: N_13  and  C_17
    5  A    between atoms: C_17  and  C_28
                            x       y       z     vdW  Elec       q    Type
                         _______ _______ _______ _____ _____    ______ ____

>  <TORSDO>
F 5

$$$$
=
 OpenBabel11052411523D

 32 37  0  0  1  0  0  0  0  0999 V2000
  162.3320  211.5300  148.5150 C   0  0  0  0  0  3  0  0  0  0  0  0
  159.2450  212.1090  153.1890 C   0  0  0  0  0  0  0  0  0  0  0  0
  160.0040  212.0050  152.0100 C   0  0  0  0  0  0  0  0  0  0  0  0
  161.3460  208.4590  152.4990 C   0  0  0  0  0  0  0  0  0  0  0  0
  162.3960  212.5820  147.6010 C   0  0  0  0  0  3  0  0  0  0  0  0
  161.7190  213.7360  147.8400 N   0  0  0  0  0  0  0  0  0  0  0  0
  159.4180  214.2470  151.2640 O   0  0  0  0  0  1  0  0  0  0  0  0
  161.2770  207.4850  153.3600 N   0  0  0  0  0  2  0  0  0  0  0  0
  160.8690  212.8740  149.9080 C   0  0  0  0  0  0  0  0  0  0  0  0
  157.9800  212.6370  154.8840 C   0  0  0  0  0  0  0  0  0  0  0  0
  160.0940  213.0450  151.0640 C   0  0  0  0  0  0  0  0  0  0  0  0
  160.6170  209.7240  152.7420 C   0  0  0  0  0  0  0  0  0  0  0  0
  159.1740  211.0830  154.0930 C   0  0  0  0  0  0  0  0  0  0  0  0
  162.1490  208.3400  151.2660 C   0  0  0  0  0  3  0  0  0  0  0  0
  159.8420  209.8810  153.9070 C   0  0  0  0  0  3  0  0  0  0  0  0
  158.4700  213.1450  153.6810 C   0  0  0  0  0  3  0  0  0  0  0  0
  162.2110  209.3460  150.3930 C   0  0  0  0  0  2  0  0  0  0  0  0
  161.4830  210.6180  150.6210 C   0  0  0  0  0  0  0  0  0  0  0  0
  160.7030  210.7820  151.7890 C   0  0  0  0  0  0  0  0  0  0  0  0
  158.4130  211.4110  155.1030 O   0  0  0  0  0  0  0  0  0  0  0  0
  160.9660  213.9000  148.9600 C   0  0  0  0  0  3  0  0  0  0  0  0
  161.5660  211.6650  149.6820 C   0  0  0  0  0  0  0  0  0  0  0  0
  157.0930  213.3580  155.8020 C   0  0  0  0  0  0  0  0  0  0  0  0
  155.6990  213.4570  155.5290 N   0  0  0  0  0  1  0  0  0  0  0  0
  157.5630  213.8930  156.8390 O   0  0  0  0  0  0  0  0  0  0  0  0
  161.9480  206.2000  153.2030 C   0  0  0  0  0  2  0  0  0  0  0  0
  161.0070  205.1930  152.5670 C   0  0  0  0  0  2  0  0  0  0  0  0
  161.4910  204.4600  150.1400 C   0  0  2  0  0  3  0  0  0  0  0  0
  160.8330  203.3440  150.9260 C   0  0  0  0  0  2  0  0  0  0  0  0
  161.7910  204.2790  151.6350 C   0  0  2  0  0  3  0  0  0  0  0  0
  160.8140  206.1940  148.5000 C   0  0  0  0  0  1  0  0  0  0  0  0
  160.4560  205.5280  149.8130 C   0  0  0  0  0  2  0  0  0  0  0  0
  1 22  1  0  0  0  0
  2 16  1  0  0  0  0
  2 13  1  0  0  0  0
  3  2  2  0  0  0  0
  4 12  1  0  0  0  0
  4  8  1  0  0  0  0
  5  6  1  0  0  0  0
  5  1  2  0  0  0  0
  6 21  2  0  0  0  0
  9 11  2  0  0  0  0
 10 20  1  0  0  0  0
 10 23  1  0  0  0  0
 11  7  1  0  0  0  0
 11  3  1  0  0  0  0
 12 15  1  0  0  0  0
 13 20  1  0  0  0  0
 14  4  2  0  0  0  0
 15 13  2  0  0  0  0
 16 10  2  0  0  0  0
 17 18  1  0  0  0  0
 17 14  1  0  0  0  0
 18 19  1  0  0  0  0
 19  3  1  0  0  0  0
 19 12  2  0  0  0  0
 21  9  1  0  0  0  0
 22  9  1  0  0  0  0
 22 18  2  0  0  0  0
 23 25  2  0  0  0  0
 24 23  1  0  0  0  0
 26  8  1  0  0  0  0
 27 26  1  0  0  0  0
 28 32  1  1  0  0  0
 28 29  1  0  0  0  0
 28 30  1  0  0  0  0
 29 30  1  0  0  0  0
 30 27  1  1  0  0  0
 31 32  1  0  0  0  0
M  END
>  <MODEL>
8

>  <REMARK>
 VINA RESULT:      -7.7      3.538      7.333
  Name = 
  5 active torsions:
  status: ('A' for Active; 'I' for Inactive)
    1  A    between atoms: C_2  and  C_16
    2  A    between atoms: C_3  and  C_29
    3  A    between atoms: C_12  and  C_28
    4  A    between atoms: N_13  and  C_17
    5  A    between atoms: C_17  and  C_28
                            x       y       z     vdW  Elec       q    Type
                         _______ _______ _______ _____ _____    ______ ____

>  <TORSDO>
F 5

$$$$
