=
 OpenBabel11042423043D

 55 59  0  0  1  0  0  0  0  0999 V2000
  161.8790  214.4530  145.3340 C   0  0  0  0  0  3  0  0  0  0  0  0
  162.3840  214.3850  146.6320 C   0  0  0  0  0  3  0  0  0  0  0  0
  160.1820  211.4950  146.5430 C   0  0  0  0  0  2  0  0  0  0  0  0
  161.0600  212.6560  146.2140 C   0  0  0  0  0  0  0  0  0  0  0  0
  160.7950  210.7120  147.6250 N   0  0  0  0  0  0  0  0  0  0  0  0
  161.0840  213.3910  145.0890 N   0  0  0  0  0  0  0  0  0  0  0  0
  162.1330  210.3710  149.5710 N   0  0  0  0  0  2  0  0  0  0  0  0
  161.5730  211.2150  148.5530 C   0  0  0  0  0  0  0  0  0  0  0  0
  161.9190  212.6990  148.5750 C   0  0  1  0  0  3  0  0  0  0  0  0
  161.8400  213.2330  147.1700 C   0  0  0  0  0  0  0  0  0  0  0  0
  160.9540  213.4580  149.5030 C   0  0  2  0  0  3  0  0  0  0  0  0
  157.3390  214.1510  149.3670 N   0  0  0  0  0  1  0  0  0  0  0  0
  160.4350  212.4490  150.9220 S   0  0  0  0  0  0  0  0  0  0  0  0
  158.6990  214.2810  149.8630 C   0  0  2  0  0  3  0  0  0  0  0  0
  159.6740  213.8400  148.7940 C   0  0  0  0  0  2  0  0  0  0  0  0
  158.8930  213.4030  151.0940 C   0  0  2  0  0  3  0  0  0  0  0  0
  158.9900  214.2760  152.3360 C   0  0  0  0  0  2  0  0  0  0  0  0
  157.6330  214.4450  152.9960 C   0  0  0  0  0  2  0  0  0  0  0  0
  157.6530  213.9060  154.3480 N   0  0  0  0  0  2  0  0  0  0  0  0
  159.8280  213.6870  155.8840 S   0  0  0  0  0  0  0  0  0  0  0  0
  158.7070  213.0710  154.8470 C   0  0  0  0  0  0  0  0  0  0  0  0
  158.7710  211.6930  154.4370 N   0  0  0  0  0  0  0  0  0  0  0  0
  157.6970  211.1310  153.6230 C   0  0  0  0  0  1  0  0  0  0  0  0
  161.0250  211.2170  154.0140 O   0  0  0  0  0  1  0  0  0  0  0  0
  159.9190  210.8530  154.7850 C   0  0  1  0  0  3  0  0  0  0  0  0
  160.2490  210.9550  156.2720 C   0  0  1  0  0  3  0  0  0  0  0  0
  159.1030  210.7050  157.0300 O   0  0  0  0  0  1  0  0  0  0  0  0
  162.8630  210.9660  156.5320 C   0  0  0  0  0  1  0  0  0  0  0  0
  161.5340  209.7460  156.7100 S   0  0  0  0  0  0  0  0  0  0  0  0
  161.4830  207.1260  151.2900 C   0  0  0  0  0  3  0  0  0  0  0  0
  161.9060  208.9660  149.7630 C   0  0  0  0  0  0  0  0  0  0  0  0
  161.4320  206.2230  150.2150 C   0  0  0  0  0  0  0  0  0  0  0  0
  161.6090  206.7100  148.9120 C   0  0  0  0  0  3  0  0  0  0  0  0
  161.8460  208.0690  148.6880 C   0  0  0  0  0  3  0  0  0  0  0  0
  161.7220  208.4850  151.0630 C   0  0  0  0  0  3  0  0  0  0  0  0
  159.7700  204.6000  150.6850 F   0  0  0  0  0  0  0  0  0  0  0  0
  161.1340  204.7630  150.4560 C   0  0  2  0  0  0  0  0  0  0  0  0
  161.9010  204.3250  151.6270 N   0  0  0  0  0  2  0  0  0  0  0  0
  161.1540  204.5190  152.7430 O   0  0  0  0  0  1  0  0  0  0  0  0
  161.5480  203.9620  149.2110 C   0  0  0  0  0  2  0  0  0  0  0  0
  160.8460  202.3300  147.6060 O   0  0  0  0  0  1  0  0  0  0  0  0
  160.6270  202.7830  148.9100 C   0  0  0  0  0  2  0  0  0  0  0  0
  160.8990  213.1170  142.6740 C   0  0  0  0  0  3  0  0  0  0  0  0
  160.3360  213.2020  143.8810 C   0  0  0  0  0  2  0  0  0  0  0  0
  162.3040  213.2800  142.4850 N   0  0  0  0  0  0  0  0  0  0  0  0
  162.8580  213.6020  141.1800 C   0  0  0  0  0  2  0  0  0  0  0  0
  160.3160  214.0080  139.4370 C   0  0  0  0  0  2  0  0  0  0  0  0
  162.8930  211.6010  139.7180 C   0  0  0  0  0  3  0  0  0  0  0  0
  162.8570  210.8710  137.4690 O   0  0  0  0  0  1  0  0  0  0  0  0
  162.1010  210.9230  138.6390 C   0  0  2  0  0  3  0  0  0  0  0  0
  162.2890  212.6990  140.1300 C   0  0  0  0  0  0  0  0  0  0  0  0
  160.8700  211.8090  138.4130 C   0  0  2  0  0  3  0  0  0  0  0  0
  161.0550  212.9040  139.3990 C   0  0  0  0  0  0  0  0  0  0  0  0
  159.6980  210.0320  137.8120 C   0  0  0  0  0  1  0  0  0  0  0  0
  159.7150  211.0890  138.7200 O   0  0  0  0  0  0  0  0  0  0  0  0
  1  2  2  0  0  0  0
  2 10  1  0  0  0  0
  3  5  1  0  0  0  0
  4  3  1  0  0  0  0
  4 10  2  0  0  0  0
  5  8  2  0  0  0  0
  6  1  1  0  0  0  0
  6  4  1  0  0  0  0
  7 31  1  0  0  0  0
  8  9  1  0  0  0  0
  8  7  1  0  0  0  0
  9 10  1  6  0  0  0
  9 11  1  0  0  0  0
 11 15  1  6  0  0  0
 11 13  1  0  0  0  0
 13 16  1  0  0  0  0
 14 12  1  6  0  0  0
 14 16  1  0  0  0  0
 15 14  1  0  0  0  0
 16 17  1  1  0  0  0
 17 18  1  0  0  0  0
 18 19  1  0  0  0  0
 19 21  1  0  0  0  0
 21 20  2  0  0  0  0
 22 25  1  0  0  0  0
 22 21  1  0  0  0  0
 23 22  1  0  0  0  0
 25 24  1  6  0  0  0
 25 26  1  0  0  0  0
 26 29  1  0  0  0  0
 26 27  1  1  0  0  0
 28 29  1  0  0  0  0
 31 35  2  0  0  0  0
 32 37  1  0  0  0  0
 32 30  2  0  0  0  0
 33 32  1  0  0  0  0
 34 33  2  0  0  0  0
 34 31  1  0  0  0  0
 35 30  1  0  0  0  0
 37 36  1  1  0  0  0
 37 38  1  0  0  0  0
 38 39  1  0  0  0  0
 40 37  1  0  0  0  0
 41 42  1  0  0  0  0
 42 40  1  0  0  0  0
 43 44  1  0  0  0  0
 44  6  1  0  0  0  0
 45 43  2  0  0  0  0
 46 45  1  0  0  0  0
 48 51  2  0  0  0  0
 50 49  1  6  0  0  0
 50 48  1  0  0  0  0
 51 46  1  0  0  0  0
 52 50  1  0  0  0  0
 52 55  1  1  0  0  0
 52 53  1  0  0  0  0
 53 47  2  0  0  0  0
 53 51  1  0  0  0  0
 54 55  1  0  0  0  0
M  END
>  <MODEL>
1

>  <REMARK>
 VINA RESULT:      -5.4      0.000      0.000
  Name = 
  19 active torsions:
  status: ('A' for Active; 'I' for Inactive)
    1  A    between atoms: N_2  and  C_46
    2  A    between atoms: N_2  and  C_48
    3  A    between atoms: C_8  and  C_39
    4  A    between atoms: C_9  and  N_33
    5  A    between atoms: C_14  and  C_24
    6  A    between atoms: C_14  and  S_37
    7  A    between atoms: C_16  and  C_18
    8  A    between atoms: C_18  and  N_38
    9  A    between atoms: C_18  and  C_47
   10  A    between atoms: C_20  and  N_32
   11  A    between atoms: C_22  and  C_26
   12  A    between atoms: C_22  and  N_32
   13  A    between atoms: C_23  and  C_46
   14  A    between atoms: C_23  and  C_53
   15  A    between atoms: C_24  and  N_52
   16  A    between atoms: N_28  and  C_43
   17  A    between atoms: C_45  and  C_47
   18  A    between atoms: C_48  and  N_52
   19  A    between atoms: C_49  and  O_51
                            x       y       z     vdW  Elec       q    Type
                         _______ _______ _______ _____ _____    ______ ____

>  <TORSDO>
F 19

$$$$
=
 OpenBabel11042423043D

 55 59  0  0  1  0  0  0  0  0999 V2000
  162.1430  213.9000  146.8180 C   0  0  0  0  0  3  0  0  0  0  0  0
  162.8300  213.3620  147.9050 C   0  0  0  0  0  3  0  0  0  0  0  0
  160.3270  210.8030  147.2740 C   0  0  0  0  0  2  0  0  0  0  0  0
  161.2700  211.9570  147.1910 C   0  0  0  0  0  0  0  0  0  0  0  0
  161.0060  209.6640  147.9060 N   0  0  0  0  0  0  0  0  0  0  0  0
  161.2040  213.0320  146.3860 N   0  0  0  0  0  0  0  0  0  0  0  0
  162.5790  208.6020  149.3510 N   0  0  0  0  0  2  0  0  0  0  0  0
  161.9700  209.7740  148.7880 C   0  0  0  0  0  0  0  0  0  0  0  0
  162.4810  211.1380  149.2350 C   0  0  1  0  0  3  0  0  0  0  0  0
  162.2480  212.1270  148.1230 C   0  0  0  0  0  0  0  0  0  0  0  0
  161.7630  211.5830  150.5200 C   0  0  2  0  0  3  0  0  0  0  0  0
  158.4180  212.9720  151.1960 N   0  0  0  0  0  1  0  0  0  0  0  0
  161.0690  210.1760  151.4380 S   0  0  0  0  0  0  0  0  0  0  0  0
  159.7870  212.5940  151.5050 C   0  0  2  0  0  3  0  0  0  0  0  0
  160.5870  212.4870  150.2260 C   0  0  0  0  0  2  0  0  0  0  0  0
  159.8100  211.2420  152.2090 C   0  0  2  0  0  3  0  0  0  0  0  0
  160.1600  211.4350  153.6770 C   0  0  0  0  0  2  0  0  0  0  0  0
  159.7710  210.2190  154.5000 C   0  0  0  0  0  2  0  0  0  0  0  0
  159.6130  210.5820  155.9010 N   0  0  0  0  0  2  0  0  0  0  0  0
  159.1710  212.8430  157.2530 S   0  0  0  0  0  0  0  0  0  0  0  0
  158.6650  211.5550  156.3600 C   0  0  0  0  0  0  0  0  0  0  0  0
  157.2740  211.3960  156.0300 N   0  0  0  0  0  0  0  0  0  0  0  0
  156.3340  210.9510  157.0540 C   0  0  0  0  0  1  0  0  0  0  0  0
  155.8990  210.7200  154.2570 O   0  0  0  0  0  1  0  0  0  0  0  0
  156.7730  211.7180  154.6910 C   0  0  1  0  0  3  0  0  0  0  0  0
  156.0810  213.0790  154.6720 C   0  0  1  0  0  3  0  0  0  0  0  0
  156.9930  214.0700  154.3040 O   0  0  0  0  0  1  0  0  0  0  0  0
  153.8680  214.4460  154.3040 C   0  0  0  0  0  1  0  0  0  0  0  0
  154.7030  213.0610  153.4850 S   0  0  0  0  0  0  0  0  0  0  0  0
  162.4430  205.2520  147.7160 C   0  0  0  0  0  3  0  0  0  0  0  0
  162.2270  207.2310  149.1080 C   0  0  0  0  0  0  0  0  0  0  0  0
  161.5990  204.5330  148.5790 C   0  0  0  0  0  0  0  0  0  0  0  0
  161.0830  205.1760  149.7130 C   0  0  0  0  0  3  0  0  0  0  0  0
  161.3920  206.5130  149.9740 C   0  0  0  0  0  3  0  0  0  0  0  0
  162.7500  206.5910  147.9790 C   0  0  0  0  0  3  0  0  0  0  0  0
  160.0810  202.7410  148.9020 F   0  0  0  0  0  0  0  0  0  0  0  0
  161.3000  203.0770  148.3170 C   0  0  2  0  0  0  0  0  0  0  0  0
  162.3800  202.2740  148.9000 N   0  0  0  0  0  2  0  0  0  0  0  0
  161.8390  201.2670  149.6300 O   0  0  0  0  0  1  0  0  0  0  0  0
  161.2210  202.8530  146.7990 C   0  0  0  0  0  2  0  0  0  0  0  0
  159.6510  201.4480  145.6610 O   0  0  0  0  0  1  0  0  0  0  0  0
  160.8310  201.4300  146.4100 C   0  0  0  0  0  2  0  0  0  0  0  0
  160.5900  213.3510  144.0490 C   0  0  0  0  0  3  0  0  0  0  0  0
  160.2630  213.3120  145.3420 C   0  0  0  0  0  2  0  0  0  0  0  0
  161.9370  213.1840  143.6080 N   0  0  0  0  0  0  0  0  0  0  0  0
  162.2730  213.1830  142.1930 C   0  0  0  0  0  2  0  0  0  0  0  0
  161.1650  211.0040  140.2740 C   0  0  0  0  0  2  0  0  0  0  0  0
  160.1470  214.1940  141.4160 C   0  0  0  0  0  3  0  0  0  0  0  0
  157.8160  213.8420  141.2260 O   0  0  0  0  0  1  0  0  0  0  0  0
  158.9970  213.9350  140.4890 C   0  0  2  0  0  3  0  0  0  0  0  0
  161.0320  213.2160  141.3570 C   0  0  0  0  0  0  0  0  0  0  0  0
  159.2940  212.5830  139.8290 C   0  0  2  0  0  3  0  0  0  0  0  0
  160.6010  212.1990  140.4200 C   0  0  0  0  0  0  0  0  0  0  0  0
  158.1330  212.7270  137.9520 C   0  0  0  0  0  1  0  0  0  0  0  0
  159.4330  212.7580  138.4520 O   0  0  0  0  0  0  0  0  0  0  0  0
  1  2  2  0  0  0  0
  2 10  1  0  0  0  0
  3  5  1  0  0  0  0
  4  3  1  0  0  0  0
  4 10  2  0  0  0  0
  5  8  2  0  0  0  0
  6  1  1  0  0  0  0
  6  4  1  0  0  0  0
  8  9  1  0  0  0  0
  8  7  1  0  0  0  0
  9 10  1  6  0  0  0
  9 11  1  0  0  0  0
 11 15  1  6  0  0  0
 11 13  1  0  0  0  0
 13 16  1  0  0  0  0
 14 12  1  6  0  0  0
 14 16  1  0  0  0  0
 15 14  1  0  0  0  0
 16 17  1  1  0  0  0
 17 18  1  0  0  0  0
 18 19  1  0  0  0  0
 19 21  1  0  0  0  0
 21 20  2  0  0  0  0
 22 21  1  0  0  0  0
 22 23  1  0  0  0  0
 25 24  1  1  0  0  0
 25 22  1  0  0  0  0
 26 27  1  6  0  0  0
 26 25  1  0  0  0  0
 29 28  1  0  0  0  0
 29 26  1  0  0  0  0
 30 35  2  0  0  0  0
 30 32  1  0  0  0  0
 31  7  1  0  0  0  0
 31 34  2  0  0  0  0
 32 33  2  0  0  0  0
 33 34  1  0  0  0  0
 35 31  1  0  0  0  0
 37 32  1  0  0  0  0
 37 38  1  0  0  0  0
 37 36  1  1  0  0  0
 38 39  1  0  0  0  0
 40 37  1  0  0  0  0
 41 42  1  0  0  0  0
 42 40  1  0  0  0  0
 43 44  1  0  0  0  0
 44  6  1  0  0  0  0
 45 43  2  0  0  0  0
 46 45  1  0  0  0  0
 47 53  2  0  0  0  0
 50 49  1  1  0  0  0
 50 48  1  0  0  0  0
 51 48  2  0  0  0  0
 51 46  1  0  0  0  0
 52 55  1  6  0  0  0
 52 53  1  0  0  0  0
 52 50  1  0  0  0  0
 53 51  1  0  0  0  0
 54 55  1  0  0  0  0
M  END
>  <MODEL>
2

>  <REMARK>
 VINA RESULT:      -2.5      2.227      3.389
  Name = 
  19 active torsions:
  status: ('A' for Active; 'I' for Inactive)
    1  A    between atoms: N_2  and  C_46
    2  A    between atoms: N_2  and  C_48
    3  A    between atoms: C_8  and  C_39
    4  A    between atoms: C_9  and  N_33
    5  A    between atoms: C_14  and  C_24
    6  A    between atoms: C_14  and  S_37
    7  A    between atoms: C_16  and  C_18
    8  A    between atoms: C_18  and  N_38
    9  A    between atoms: C_18  and  C_47
   10  A    between atoms: C_20  and  N_32
   11  A    between atoms: C_22  and  C_26
   12  A    between atoms: C_22  and  N_32
   13  A    between atoms: C_23  and  C_46
   14  A    between atoms: C_23  and  C_53
   15  A    between atoms: C_24  and  N_52
   16  A    between atoms: N_28  and  C_43
   17  A    between atoms: C_45  and  C_47
   18  A    between atoms: C_48  and  N_52
   19  A    between atoms: C_49  and  O_51
                            x       y       z     vdW  Elec       q    Type
                         _______ _______ _______ _____ _____    ______ ____

>  <TORSDO>
F 19

$$$$
