=
 OpenBabel11052410433D

 35 38  0  0  1  0  0  0  0  0999 V2000
  162.1300  212.6700  146.7900 N   0  0  0  0  0  2  0  0  0  0  0  0
  158.1420  212.9150  152.2130 C   0  0  0  0  0  3  0  0  0  0  0  0
  160.4670  213.6030  149.6790 C   0  0  0  0  0  0  0  0  0  0  0  0
  160.3680  209.6000  155.0150 N   0  0  0  0  0  0  0  0  0  0  0  0
  159.3200  213.8740  150.2200 N   0  0  0  0  0  0  0  0  0  0  0  0
  160.6990  213.7810  148.2950 N   0  0  0  0  0  2  0  0  0  0  0  0
  158.1920  211.9360  153.2170 C   0  0  0  0  0  3  0  0  0  0  0  0
  160.3460  211.1370  152.3840 C   0  0  0  0  0  0  0  0  0  0  0  0
  160.2650  212.1180  151.3890 C   0  0  0  0  0  0  0  0  0  0  0  0
  161.5250  210.2120  152.4170 C   0  0  1  0  0  3  0  0  0  0  0  0
  161.3610  212.6160  147.8250 C   0  0  0  0  0  0  0  0  0  0  0  0
  161.4940  211.2730  149.0170 S   0  0  0  0  0  0  0  0  0  0  0  0
  161.6720  210.2010  154.9550 C   0  0  0  0  0  0  0  0  0  0  0  0
  159.2900  211.0590  153.3270 C   0  0  0  0  0  0  0  0  0  0  0  0
  159.2590  210.1100  154.3570 O   0  0  0  0  0  0  0  0  0  0  0  0
  162.3670  210.4860  153.6590 C   0  0  0  0  0  2  0  0  0  0  0  0
  162.2950  210.4370  156.0250 O   0  0  0  0  0  0  0  0  0  0  0  0
  160.1260  208.5850  156.0260 C   0  0  0  0  0  1  0  0  0  0  0  0
  159.2110  212.9950  151.3270 C   0  0  0  0  0  0  0  0  0  0  0  0
  161.2430  212.5070  150.3360 C   0  0  1  0  0  3  0  0  0  0  0  0
  161.1590  208.7280  152.2210 C   0  0  1  0  0  3  0  0  0  0  0  0
  160.8980  208.4220  150.7510 C   0  0  0  0  0  2  0  0  0  0  0  0
  162.1670  207.9360  150.0770 C   0  0  0  0  0  1  0  0  0  0  0  0
  162.2830  207.8250  152.7190 C   0  0  0  0  0  2  0  0  0  0  0  0
  160.3410  206.6480  153.4850 O   0  0  0  0  0  1  0  0  0  0  0  0
  161.7230  206.5390  153.3080 C   0  0  1  0  0  3  0  0  0  0  0  0
  162.0410  205.3660  152.4340 C   0  0  0  0  0  3  0  0  0  0  0  0
  161.0870  204.5780  151.9320 C   0  0  0  0  0  3  0  0  0  0  0  0
  161.4440  203.4160  151.0630 C   0  0  0  0  0  2  0  0  0  0  0  0
  160.5760  203.3790  149.8930 N   0  0  0  0  0  0  0  0  0  0  0  0
  160.8070  202.1190  149.1960 C   0  0  0  0  0  2  0  0  0  0  0  0
  160.8980  201.0800  150.1220 O   0  0  0  0  0  1  0  0  0  0  0  0
  160.8870  204.5080  149.0060 C   0  0  0  0  0  2  0  0  0  0  0  0
  162.1540  205.3570  147.0440 C   0  0  0  0  0  1  0  0  0  0  0  0
  161.6950  204.1100  147.7710 C   0  0  0  0  0  2  0  0  0  0  0  0
  1 11  2  0  0  0  0
  2  7  1  0  0  0  0
  3  5  2  0  0  0  0
  3 20  1  0  0  0  0
  4 18  1  0  0  0  0
  5 19  1  0  0  0  0
  6  3  1  0  0  0  0
  7 14  2  0  0  0  0
  8 10  1  0  0  0  0
  8 14  1  0  0  0  0
  9  8  2  0  0  0  0
 10 21  1  1  0  0  0
 10 16  1  0  0  0  0
 11  6  1  0  0  0  0
 11 12  1  0  0  0  0
 13  4  1  0  0  0  0
 13 17  2  0  0  0  0
 14 15  1  0  0  0  0
 15  4  1  0  0  0  0
 16 13  1  0  0  0  0
 19  9  1  0  0  0  0
 19  2  2  0  0  0  0
 20 12  1  6  0  0  0
 20  9  1  0  0  0  0
 21 22  1  6  0  0  0
 21 24  1  0  0  0  0
 23 22  1  0  0  0  0
 24 26  1  0  0  0  0
 26 25  1  6  0  0  0
 27 26  1  0  0  0  0
 28 27  2  0  0  0  0
 29 28  1  0  0  0  0
 30 29  1  0  0  0  0
 31 30  1  0  0  0  0
 31 32  1  0  0  0  0
 33 30  1  0  0  0  0
 34 35  1  0  0  0  0
 35 33  1  0  0  0  0
M  END
>  <MODEL>
1

>  <REMARK>
 VINA RESULT:      -5.5      0.000      0.000
  Name = 
  10 active torsions:
  status: ('A' for Active; 'I' for Inactive)
    1  A    between atoms: C_1  and  C_20
    2  A    between atoms: C_2  and  C_13
    3  A    between atoms: C_2  and  N_17
    4  A    between atoms: C_4  and  C_33
    5  A    between atoms: C_6  and  C_20
    6  A    between atoms: C_6  and  C_33
    7  A    between atoms: C_10  and  N_17
    8  A    between atoms: N_17  and  C_21
    9  A    between atoms: C_21  and  C_27
   10  A    between atoms: C_22  and  C_33
                            x       y       z     vdW  Elec       q    Type
                         _______ _______ _______ _____ _____    ______ ____

>  <TORSDO>
F 10

$$$$
=
 OpenBabel11052410433D

 35 38  0  0  1  0  0  0  0  0999 V2000
  159.1110  214.4450  149.4190 N   0  0  0  0  0  2  0  0  0  0  0  0
  157.1880  211.2640  155.0360 C   0  0  0  0  0  3  0  0  0  0  0  0
  158.0970  213.6500  152.6320 C   0  0  0  0  0  0  0  0  0  0  0  0
  161.3940  209.1030  156.2330 N   0  0  0  0  0  0  0  0  0  0  0  0
  157.1630  213.1330  153.3680 N   0  0  0  0  0  0  0  0  0  0  0  0
  157.8170  214.2380  151.3770 N   0  0  0  0  0  2  0  0  0  0  0  0
  157.9710  210.2620  155.6280 C   0  0  0  0  0  3  0  0  0  0  0  0
  159.9140  210.9510  154.3160 C   0  0  0  0  0  0  0  0  0  0  0  0
  159.1060  211.9370  153.7370 C   0  0  0  0  0  0  0  0  0  0  0  0
  161.3430  210.8200  153.8840 C   0  0  1  0  0  3  0  0  0  0  0  0
  158.7850  213.7520  150.4580 C   0  0  0  0  0  0  0  0  0  0  0  0
  159.8600  212.4530  151.0890 S   0  0  0  0  0  0  0  0  0  0  0  0
  162.1880  210.3010  156.2260 C   0  0  0  0  0  0  0  0  0  0  0  0
  159.3330  210.1070  155.2950 C   0  0  0  0  0  0  0  0  0  0  0  0
  160.0410  209.0790  155.9310 O   0  0  0  0  0  0  0  0  0  0  0  0
  162.2710  211.2030  155.0330 C   0  0  0  0  0  2  0  0  0  0  0  0
  162.9020  210.5770  157.2280 O   0  0  0  0  0  0  0  0  0  0  0  0
  161.9520  207.9140  156.8540 C   0  0  0  0  0  1  0  0  0  0  0  0
  157.7960  212.1040  154.1100 C   0  0  0  0  0  0  0  0  0  0  0  0
  159.4460  213.0180  152.7720 C   0  0  1  0  0  3  0  0  0  0  0  0
  161.6760  209.4620  153.2350 C   0  0  1  0  0  3  0  0  0  0  0  0
  160.4110  208.7710  152.7410 C   0  0  0  0  0  2  0  0  0  0  0  0
  160.4890  207.2770  152.9930 C   0  0  0  0  0  1  0  0  0  0  0  0
  162.6280  209.6460  152.0580 C   0  0  0  0  0  2  0  0  0  0  0  0
  161.9780  210.5800  149.9490 O   0  0  0  0  0  1  0  0  0  0  0  0
  161.9030  209.4290  150.7380 C   0  0  1  0  0  3  0  0  0  0  0  0
  162.4730  208.2580  149.9990 C   0  0  0  0  0  3  0  0  0  0  0  0
  161.9710  207.8440  148.8330 C   0  0  0  0  0  3  0  0  0  0  0  0
  162.5670  206.6710  148.1260 C   0  0  0  0  0  2  0  0  0  0  0  0
  161.5120  205.8000  147.6220 N   0  0  0  0  0  0  0  0  0  0  0  0
  160.5270  206.6280  146.9370 C   0  0  0  0  0  2  0  0  0  0  0  0
  160.3180  206.1410  145.6470 O   0  0  0  0  0  1  0  0  0  0  0  0
  160.8800  205.0870  148.7400 C   0  0  0  0  0  2  0  0  0  0  0  0
  160.6460  202.9830  150.0420 C   0  0  0  0  0  1  0  0  0  0  0  0
  161.2040  203.5920  148.7730 C   0  0  0  0  0  2  0  0  0  0  0  0
  1 11  2  0  0  0  0
  2  7  1  0  0  0  0
  3 20  1  0  0  0  0
  3  5  2  0  0  0  0
  4 18  1  0  0  0  0
  5 19  1  0  0  0  0
  6  3  1  0  0  0  0
  8 14  1  0  0  0  0
  9 19  1  0  0  0  0
  9  8  2  0  0  0  0
 10 21  1  1  0  0  0
 10  8  1  0  0  0  0
 10 16  1  0  0  0  0
 11 12  1  0  0  0  0
 11  6  1  0  0  0  0
 13  4  1  0  0  0  0
 13 17  2  0  0  0  0
 14  7  2  0  0  0  0
 14 15  1  0  0  0  0
 15  4  1  0  0  0  0
 16 13  1  0  0  0  0
 19  2  2  0  0  0  0
 20 12  1  6  0  0  0
 20  9  1  0  0  0  0
 21 24  1  6  0  0  0
 22 23  1  0  0  0  0
 22 21  1  0  0  0  0
 26 25  1  6  0  0  0
 26 24  1  0  0  0  0
 27 26  1  0  0  0  0
 28 27  2  0  0  0  0
 29 28  1  0  0  0  0
 30 29  1  0  0  0  0
 30 33  1  0  0  0  0
 31 30  1  0  0  0  0
 32 31  1  0  0  0  0
 33 35  1  0  0  0  0
 35 34  1  0  0  0  0
M  END
>  <MODEL>
2

>  <REMARK>
 VINA RESULT:      -4.9      2.300      3.344
  Name = 
  10 active torsions:
  status: ('A' for Active; 'I' for Inactive)
    1  A    between atoms: C_1  and  C_20
    2  A    between atoms: C_2  and  C_13
    3  A    between atoms: C_2  and  N_17
    4  A    between atoms: C_4  and  C_33
    5  A    between atoms: C_6  and  C_20
    6  A    between atoms: C_6  and  C_33
    7  A    between atoms: C_10  and  N_17
    8  A    between atoms: N_17  and  C_21
    9  A    between atoms: C_21  and  C_27
   10  A    between atoms: C_22  and  C_33
                            x       y       z     vdW  Elec       q    Type
                         _______ _______ _______ _____ _____    ______ ____

>  <TORSDO>
F 10

$$$$
=
 OpenBabel11052410433D

 35 38  0  0  1  0  0  0  0  0999 V2000
  160.3730  213.6900  148.2490 N   0  0  0  0  0  2  0  0  0  0  0  0
  157.7310  211.8660  154.1710 C   0  0  0  0  0  3  0  0  0  0  0  0
  159.1470  213.6220  151.4860 C   0  0  0  0  0  0  0  0  0  0  0  0
  161.4020  209.1640  155.9070 N   0  0  0  0  0  0  0  0  0  0  0  0
  158.1120  213.4170  152.2410 N   0  0  0  0  0  0  0  0  0  0  0  0
  159.0180  214.0470  150.1440 N   0  0  0  0  0  2  0  0  0  0  0  0
  158.2880  210.8400  154.9490 C   0  0  0  0  0  3  0  0  0  0  0  0
  160.3590  210.9310  153.6550 C   0  0  0  0  0  0  0  0  0  0  0  0
  159.7740  211.9470  152.8910 C   0  0  0  0  0  0  0  0  0  0  0  0
  161.7450  210.4640  153.3260 C   0  0  1  0  0  3  0  0  0  0  0  0
  159.8920  213.2460  149.3620 C   0  0  0  0  0  0  0  0  0  0  0  0
  160.6780  211.8840  150.2390 S   0  0  0  0  0  0  0  0  0  0  0  0
  162.4160  210.1730  155.7620 C   0  0  0  0  0  0  0  0  0  0  0  0
  159.6010  210.3790  154.7180 C   0  0  0  0  0  0  0  0  0  0  0  0
  160.0790  209.3500  155.5390 O   0  0  0  0  0  0  0  0  0  0  0  0
  162.7030  210.8420  154.4520 C   0  0  0  0  0  2  0  0  0  0  0  0
  163.1460  210.4640  156.7470 O   0  0  0  0  0  0  0  0  0  0  0  0
  161.7020  208.0050  156.7300 C   0  0  0  0  0  1  0  0  0  0  0  0
  158.5140  212.4170  153.1620 C   0  0  0  0  0  0  0  0  0  0  0  0
  160.3420  212.7770  151.7930 C   0  0  1  0  0  3  0  0  0  0  0  0
  161.8200  208.9820  152.9090 C   0  0  1  0  0  3  0  0  0  0  0  0
  160.4310  208.3590  152.8620 C   0  0  0  0  0  2  0  0  0  0  0  0
  160.4370  206.9970  153.5300 C   0  0  0  0  0  1  0  0  0  0  0  0
  162.4690  208.8400  151.5360 C   0  0  0  0  0  2  0  0  0  0  0  0
  161.5790  208.8220  149.3110 O   0  0  0  0  0  1  0  0  0  0  0  0
  161.5140  208.1820  150.5520 C   0  0  1  0  0  3  0  0  0  0  0  0
  161.8230  206.7240  150.3990 C   0  0  0  0  0  3  0  0  0  0  0  0
  161.1480  205.9430  149.5520 C   0  0  0  0  0  3  0  0  0  0  0  0
  161.4840  204.4930  149.4270 C   0  0  0  0  0  2  0  0  0  0  0  0
  160.7050  203.7130  150.3810 N   0  0  0  0  0  0  0  0  0  0  0  0
  161.5220  203.5010  151.5700 C   0  0  0  0  0  2  0  0  0  0  0  0
  160.7050  203.4570  152.6990 O   0  0  0  0  0  1  0  0  0  0  0  0
  160.3400  202.4200  149.7850 C   0  0  0  0  0  2  0  0  0  0  0  0
  161.3060  200.7290  148.2410 C   0  0  0  0  0  1  0  0  0  0  0  0
  160.9500  202.1920  148.4010 C   0  0  0  0  0  2  0  0  0  0  0  0
  1 11  2  0  0  0  0
  2  7  1  0  0  0  0
  3 20  1  0  0  0  0
  3  5  2  0  0  0  0
  4 18  1  0  0  0  0
  5 19  1  0  0  0  0
  6  3  1  0  0  0  0
  8 14  1  0  0  0  0
  9 19  1  0  0  0  0
  9  8  2  0  0  0  0
 10 21  1  1  0  0  0
 10  8  1  0  0  0  0
 10 16  1  0  0  0  0
 11  6  1  0  0  0  0
 11 12  1  0  0  0  0
 13  4  1  0  0  0  0
 13 17  2  0  0  0  0
 14  7  2  0  0  0  0
 14 15  1  0  0  0  0
 15  4  1  0  0  0  0
 16 13  1  0  0  0  0
 19  2  2  0  0  0  0
 20 12  1  6  0  0  0
 20  9  1  0  0  0  0
 21 24  1  6  0  0  0
 22 21  1  0  0  0  0
 22 23  1  0  0  0  0
 26 25  1  6  0  0  0
 26 24  1  0  0  0  0
 27 26  1  0  0  0  0
 28 27  2  0  0  0  0
 29 28  1  0  0  0  0
 29 30  1  0  0  0  0
 30 31  1  0  0  0  0
 31 32  1  0  0  0  0
 33 30  1  0  0  0  0
 34 35  1  0  0  0  0
 35 33  1  0  0  0  0
M  END
>  <MODEL>
3

>  <REMARK>
 VINA RESULT:      -4.4      1.540      2.365
  Name = 
  10 active torsions:
  status: ('A' for Active; 'I' for Inactive)
    1  A    between atoms: C_1  and  C_20
    2  A    between atoms: C_2  and  C_13
    3  A    between atoms: C_2  and  N_17
    4  A    between atoms: C_4  and  C_33
    5  A    between atoms: C_6  and  C_20
    6  A    between atoms: C_6  and  C_33
    7  A    between atoms: C_10  and  N_17
    8  A    between atoms: N_17  and  C_21
    9  A    between atoms: C_21  and  C_27
   10  A    between atoms: C_22  and  C_33
                            x       y       z     vdW  Elec       q    Type
                         _______ _______ _______ _____ _____    ______ ____

>  <TORSDO>
F 10

$$$$
=
 OpenBabel11052410433D

 35 38  0  0  1  0  0  0  0  0999 V2000
  159.4880  209.6540  155.9700 N   0  0  0  0  0  2  0  0  0  0  0  0
  162.4320  210.7140  150.0040 C   0  0  0  0  0  3  0  0  0  0  0  0
  160.2630  210.6960  152.7610 C   0  0  0  0  0  0  0  0  0  0  0  0
  161.9080  206.2830  148.0360 N   0  0  0  0  0  0  0  0  0  0  0  0
  161.0880  211.3650  152.0160 N   0  0  0  0  0  0  0  0  0  0  0  0
  160.0780  211.0010  154.1280 N   0  0  0  0  0  2  0  0  0  0  0  0
  162.7920  209.6570  149.1550 C   0  0  0  0  0  3  0  0  0  0  0  0
  161.3720  208.1140  150.4100 C   0  0  0  0  0  0  0  0  0  0  0  0
  161.0370  209.1860  151.2450 C   0  0  0  0  0  0  0  0  0  0  0  0
  160.7960  206.7580  150.6820 C   0  0  1  0  0  3  0  0  0  0  0  0
  160.1060  209.7740  154.8430 C   0  0  0  0  0  0  0  0  0  0  0  0
  160.5590  208.3280  153.8690 S   0  0  0  0  0  0  0  0  0  0  0  0
  160.4850  206.2000  148.2200 C   0  0  0  0  0  0  0  0  0  0  0  0
  162.2580  208.3640  149.3320 C   0  0  0  0  0  0  0  0  0  0  0  0
  162.6720  207.3660  148.4410 O   0  0  0  0  0  0  0  0  0  0  0  0
  159.8380  206.3640  149.5620 C   0  0  0  0  0  2  0  0  0  0  0  0
  159.7490  205.9100  147.2390 O   0  0  0  0  0  0  0  0  0  0  0  0
  162.5390  205.3290  147.1380 C   0  0  0  0  0  1  0  0  0  0  0  0
  161.5290  210.4490  151.0280 C   0  0  0  0  0  0  0  0  0  0  0  0
  160.0760  209.2620  152.3790 C   0  0  1  0  0  3  0  0  0  0  0  0
  161.8550  205.6850  151.0080 C   0  0  1  0  0  3  0  0  0  0  0  0
  162.8450  206.1970  152.0450 C   0  0  0  0  0  2  0  0  0  0  0  0
  162.3740  205.8500  153.4450 C   0  0  0  0  0  1  0  0  0  0  0  0
  161.1930  204.4190  151.5420 C   0  0  0  0  0  2  0  0  0  0  0  0
  161.7710  202.0940  151.6060 O   0  0  0  0  0  1  0  0  0  0  0  0
  161.6490  203.1980  150.7570 C   0  0  1  0  0  3  0  0  0  0  0  0
  160.6960  202.8910  149.6430 C   0  0  0  0  0  3  0  0  0  0  0  0
  161.1110  202.3970  148.4740 C   0  0  0  0  0  3  0  0  0  0  0  0
  160.1310  202.1040  147.3850 C   0  0  0  0  0  2  0  0  0  0  0  0
  160.8330  201.8380  146.1350 N   0  0  0  0  0  0  0  0  0  0  0  0
  160.3900  202.8170  145.1490 C   0  0  0  0  0  2  0  0  0  0  0  0
  161.4210  203.7200  144.8870 O   0  0  0  0  0  1  0  0  0  0  0  0
  160.5230  200.4800  145.6700 C   0  0  0  0  0  2  0  0  0  0  0  0
  161.5850  198.2680  145.2740 C   0  0  0  0  0  1  0  0  0  0  0  0
  161.4410  199.4080  146.2590 C   0  0  0  0  0  2  0  0  0  0  0  0
  2 19  1  0  0  0  0
  3  6  1  0  0  0  0
  4 13  1  0  0  0  0
  4 15  1  0  0  0  0
  5  3  2  0  0  0  0
  6 11  1  0  0  0  0
  7 14  1  0  0  0  0
  7  2  2  0  0  0  0
  8 10  1  0  0  0  0
  8  9  1  0  0  0  0
 10 21  1  6  0  0  0
 11  1  2  0  0  0  0
 12 11  1  0  0  0  0
 13 16  1  0  0  0  0
 14  8  2  0  0  0  0
 15 14  1  0  0  0  0
 16 10  1  0  0  0  0
 17 13  2  0  0  0  0
 18  4  1  0  0  0  0
 19  9  2  0  0  0  0
 19  5  1  0  0  0  0
 20  9  1  6  0  0  0
 20  3  1  0  0  0  0
 20 12  1  0  0  0  0
 21 24  1  1  0  0  0
 21 22  1  0  0  0  0
 22 23  1  0  0  0  0
 26 24  1  0  0  0  0
 26 25  1  1  0  0  0
 27 26  1  0  0  0  0
 28 27  2  0  0  0  0
 29 28  1  0  0  0  0
 30 29  1  0  0  0  0
 31 30  1  0  0  0  0
 32 31  1  0  0  0  0
 33 30  1  0  0  0  0
 33 35  1  0  0  0  0
 34 35  1  0  0  0  0
M  END
>  <MODEL>
4

>  <REMARK>
 VINA RESULT:      -4.3      3.147      5.788
  Name = 
  10 active torsions:
  status: ('A' for Active; 'I' for Inactive)
    1  A    between atoms: C_1  and  C_20
    2  A    between atoms: C_2  and  C_13
    3  A    between atoms: C_2  and  N_17
    4  A    between atoms: C_4  and  C_33
    5  A    between atoms: C_6  and  C_20
    6  A    between atoms: C_6  and  C_33
    7  A    between atoms: C_10  and  N_17
    8  A    between atoms: N_17  and  C_21
    9  A    between atoms: C_21  and  C_27
   10  A    between atoms: C_22  and  C_33
                            x       y       z     vdW  Elec       q    Type
                         _______ _______ _______ _____ _____    ______ ____

>  <TORSDO>
F 10

$$$$
=
 OpenBabel11052410433D

 35 38  0  0  1  0  0  0  0  0999 V2000
  161.2640  205.8460  151.5850 N   0  0  0  0  0  2  0  0  0  0  0  0
  161.6930  209.7300  157.0720 C   0  0  0  0  0  3  0  0  0  0  0  0
  161.1100  207.1230  154.7980 C   0  0  0  0  0  0  0  0  0  0  0  0
  158.2830  213.0470  155.9940 N   0  0  0  0  0  0  0  0  0  0  0  0
  161.7850  207.5650  155.8150 N   0  0  0  0  0  0  0  0  0  0  0  0
  161.6630  206.2030  153.8790 N   0  0  0  0  0  2  0  0  0  0  0  0
  161.1010  211.0000  157.1310 C   0  0  0  0  0  3  0  0  0  0  0  0
  159.7330  210.4970  155.1700 C   0  0  0  0  0  0  0  0  0  0  0  0
  160.3460  209.2400  155.1310 C   0  0  0  0  0  0  0  0  0  0  0  0
  158.7170  210.8570  154.1280 C   0  0  1  0  0  3  0  0  0  0  0  0
  161.3520  206.6700  152.5750 C   0  0  0  0  0  0  0  0  0  0  0  0
  160.5870  208.2990  152.5030 S   0  0  0  0  0  0  0  0  0  0  0  0
  157.2220  212.1060  155.7630 C   0  0  0  0  0  0  0  0  0  0  0  0
  160.1120  211.3890  156.2050 C   0  0  0  0  0  0  0  0  0  0  0  0
  159.5750  212.6770  156.3340 O   0  0  0  0  0  0  0  0  0  0  0  0
  157.3390  210.9900  154.7690 C   0  0  0  0  0  2  0  0  0  0  0  0
  156.1210  212.2540  156.3590 O   0  0  0  0  0  0  0  0  0  0  0  0
  157.9330  214.4470  156.1600 C   0  0  0  0  0  1  0  0  0  0  0  0
  161.2720  208.8610  156.0710 C   0  0  0  0  0  0  0  0  0  0  0  0
  160.0940  208.0710  154.2440 C   0  0  1  0  0  3  0  0  0  0  0  0
  159.1200  212.0590  153.2520 C   0  0  1  0  0  3  0  0  0  0  0  0
  160.5540  211.9140  152.7570 C   0  0  0  0  0  2  0  0  0  0  0  0
  160.6320  212.1920  151.2680 C   0  0  0  0  0  1  0  0  0  0  0  0
  158.1940  212.1830  152.0470 C   0  0  0  0  0  2  0  0  0  0  0  0
  158.0640  214.4530  152.8050 O   0  0  0  0  0  1  0  0  0  0  0  0
  157.3570  213.4500  152.1370 C   0  0  1  0  0  3  0  0  0  0  0  0
  156.9520  213.9220  150.7740 C   0  0  0  0  0  3  0  0  0  0  0  0
  157.4450  213.3750  149.6610 C   0  0  0  0  0  3  0  0  0  0  0  0
  157.0170  213.8720  148.3190 C   0  0  0  0  0  2  0  0  0  0  0  0
  158.1660  213.9620  147.4260 N   0  0  0  0  0  0  0  0  0  0  0  0
  157.8430  213.2500  146.1960 C   0  0  0  0  0  2  0  0  0  0  0  0
  157.0120  212.1670  146.4850 O   0  0  0  0  0  1  0  0  0  0  0  0
  159.3410  213.3540  148.0660 C   0  0  0  0  0  2  0  0  0  0  0  0
  161.5710  212.3050  147.7470 C   0  0  0  0  0  1  0  0  0  0  0  0
  160.2340  212.5810  147.0940 C   0  0  0  0  0  2  0  0  0  0  0  0
  1 11  2  0  0  0  0
  2  7  1  0  0  0  0
  3  5  2  0  0  0  0
  4 18  1  0  0  0  0
  4 15  1  0  0  0  0
  5 19  1  0  0  0  0
  6  3  1  0  0  0  0
  8 14  1  0  0  0  0
  9  8  2  0  0  0  0
  9 19  1  0  0  0  0
 10 21  1  1  0  0  0
 10 16  1  0  0  0  0
 10  8  1  0  0  0  0
 11  6  1  0  0  0  0
 12 11  1  0  0  0  0
 13  4  1  0  0  0  0
 13 17  2  0  0  0  0
 14 15  1  0  0  0  0
 14  7  2  0  0  0  0
 16 13  1  0  0  0  0
 19  2  2  0  0  0  0
 20 12  1  6  0  0  0
 20  3  1  0  0  0  0
 20  9  1  0  0  0  0
 21 24  1  6  0  0  0
 22 21  1  0  0  0  0
 23 22  1  0  0  0  0
 24 26  1  0  0  0  0
 26 25  1  6  0  0  0
 27 26  1  0  0  0  0
 28 27  2  0  0  0  0
 29 28  1  0  0  0  0
 30 33  1  0  0  0  0
 30 29  1  0  0  0  0
 31 32  1  0  0  0  0
 31 30  1  0  0  0  0
 35 34  1  0  0  0  0
 35 33  1  0  0  0  0
M  END
>  <MODEL>
5

>  <REMARK>
 VINA RESULT:      -4.2      3.671      7.423
  Name = 
  10 active torsions:
  status: ('A' for Active; 'I' for Inactive)
    1  A    between atoms: C_1  and  C_20
    2  A    between atoms: C_2  and  C_13
    3  A    between atoms: C_2  and  N_17
    4  A    between atoms: C_4  and  C_33
    5  A    between atoms: C_6  and  C_20
    6  A    between atoms: C_6  and  C_33
    7  A    between atoms: C_10  and  N_17
    8  A    between atoms: N_17  and  C_21
    9  A    between atoms: C_21  and  C_27
   10  A    between atoms: C_22  and  C_33
                            x       y       z     vdW  Elec       q    Type
                         _______ _______ _______ _____ _____    ______ ____

>  <TORSDO>
F 10

$$$$
=
 OpenBabel11052410433D

 35 38  0  0  1  0  0  0  0  0999 V2000
  154.7810  213.0890  157.2600 N   0  0  0  0  0  2  0  0  0  0  0  0
  158.5660  214.2610  151.8120 C   0  0  0  0  0  3  0  0  0  0  0  0
  155.9620  213.4860  154.0300 C   0  0  0  0  0  0  0  0  0  0  0  0
  161.5060  210.3750  152.0080 N   0  0  0  0  0  0  0  0  0  0  0  0
  156.4520  214.3100  153.1570 N   0  0  0  0  0  0  0  0  0  0  0  0
  155.1290  213.9250  155.0840 N   0  0  0  0  0  2  0  0  0  0  0  0
  159.7610  213.5670  151.5740 C   0  0  0  0  0  3  0  0  0  0  0  0
  159.1520  211.8750  153.2290 C   0  0  0  0  0  0  0  0  0  0  0  0
  157.9720  212.5930  153.4510 C   0  0  0  0  0  0  0  0  0  0  0  0
  159.4200  210.6300  154.0200 C   0  0  1  0  0  3  0  0  0  0  0  0
  155.5870  213.2980  156.2740 C   0  0  0  0  0  0  0  0  0  0  0  0
  157.1220  212.3700  156.1110 S   0  0  0  0  0  0  0  0  0  0  0  0
  160.4580  209.3930  152.0560 C   0  0  0  0  0  0  0  0  0  0  0  0
  160.0580  212.3690  152.2560 C   0  0  0  0  0  0  0  0  0  0  0  0
  161.2740  211.7410  151.9610 O   0  0  0  0  0  0  0  0  0  0  0  0
  159.3850  209.4130  153.1010 C   0  0  0  0  0  2  0  0  0  0  0  0
  160.4700  208.4340  151.2380 O   0  0  0  0  0  0  0  0  0  0  0  0
  162.8550  209.9240  151.7100 C   0  0  0  0  0  1  0  0  0  0  0  0
  157.6780  213.7310  152.7420 C   0  0  0  0  0  0  0  0  0  0  0  0
  156.8020  212.2830  154.3180 C   0  0  1  0  0  3  0  0  0  0  0  0
  160.6790  210.7120  154.9060 C   0  0  1  0  0  3  0  0  0  0  0  0
  160.7500  212.0520  155.6260 C   0  0  0  0  0  2  0  0  0  0  0  0
  160.8690  211.8440  157.1240 C   0  0  0  0  0  1  0  0  0  0  0  0
  160.6810  209.5950  155.9440 C   0  0  0  0  0  2  0  0  0  0  0  0
  162.3370  208.0220  156.6720 O   0  0  0  0  0  1  0  0  0  0  0  0
  161.6520  208.4910  155.5480 C   0  0  1  0  0  3  0  0  0  0  0  0
  160.9350  207.3640  154.8720 C   0  0  0  0  0  3  0  0  0  0  0  0
  161.5810  206.4510  154.1440 C   0  0  0  0  0  3  0  0  0  0  0  0
  160.8310  205.3400  153.4830 C   0  0  0  0  0  2  0  0  0  0  0  0
  161.6340  204.7590  152.4130 N   0  0  0  0  0  0  0  0  0  0  0  0
  161.6490  205.6960  151.2970 C   0  0  0  0  0  2  0  0  0  0  0  0
  162.9190  206.2600  151.1740 O   0  0  0  0  0  1  0  0  0  0  0  0
  161.0460  203.4800  151.9900 C   0  0  0  0  0  2  0  0  0  0  0  0
  160.4870  201.9330  150.1270 C   0  0  0  0  0  1  0  0  0  0  0  0
  160.9050  203.3460  150.4730 C   0  0  0  0  0  2  0  0  0  0  0  0
  2 19  1  0  0  0  0
  3 20  1  0  0  0  0
  3  6  1  0  0  0  0
  4 13  1  0  0  0  0
  5  3  2  0  0  0  0
  6 11  1  0  0  0  0
  7  2  2  0  0  0  0
  7 14  1  0  0  0  0
  8  9  1  0  0  0  0
  8 10  1  0  0  0  0
 10 21  1  6  0  0  0
 11  1  2  0  0  0  0
 12 11  1  0  0  0  0
 13 16  1  0  0  0  0
 14  8  2  0  0  0  0
 15  4  1  0  0  0  0
 15 14  1  0  0  0  0
 16 10  1  0  0  0  0
 17 13  2  0  0  0  0
 18  4  1  0  0  0  0
 19  5  1  0  0  0  0
 19  9  2  0  0  0  0
 20  9  1  6  0  0  0
 20 12  1  0  0  0  0
 21 22  1  1  0  0  0
 21 24  1  0  0  0  0
 22 23  1  0  0  0  0
 26 24  1  0  0  0  0
 26 25  1  1  0  0  0
 27 26  1  0  0  0  0
 28 27  2  0  0  0  0
 29 28  1  0  0  0  0
 30 29  1  0  0  0  0
 31 30  1  0  0  0  0
 32 31  1  0  0  0  0
 33 30  1  0  0  0  0
 34 35  1  0  0  0  0
 35 33  1  0  0  0  0
M  END
>  <MODEL>
6

>  <REMARK>
 VINA RESULT:      -3.7      3.006      5.173
  Name = 
  10 active torsions:
  status: ('A' for Active; 'I' for Inactive)
    1  A    between atoms: C_1  and  C_20
    2  A    between atoms: C_2  and  C_13
    3  A    between atoms: C_2  and  N_17
    4  A    between atoms: C_4  and  C_33
    5  A    between atoms: C_6  and  C_20
    6  A    between atoms: C_6  and  C_33
    7  A    between atoms: C_10  and  N_17
    8  A    between atoms: N_17  and  C_21
    9  A    between atoms: C_21  and  C_27
   10  A    between atoms: C_22  and  C_33
                            x       y       z     vdW  Elec       q    Type
                         _______ _______ _______ _____ _____    ______ ____

>  <TORSDO>
F 10

$$$$
=
 OpenBabel11052410433D

 35 38  0  0  1  0  0  0  0  0999 V2000
  161.2300  205.3300  151.2090 N   0  0  0  0  0  2  0  0  0  0  0  0
  161.8750  209.2210  156.6690 C   0  0  0  0  0  3  0  0  0  0  0  0
  161.0500  206.6890  154.3880 C   0  0  0  0  0  0  0  0  0  0  0  0
  159.1240  213.0100  155.3030 N   0  0  0  0  0  0  0  0  0  0  0  0
  161.7120  207.0410  155.4470 N   0  0  0  0  0  0  0  0  0  0  0  0
  161.5150  205.6710  153.5230 N   0  0  0  0  0  2  0  0  0  0  0  0
  161.4910  210.5710  156.6700 C   0  0  0  0  0  3  0  0  0  0  0  0
  160.2050  210.2450  154.6180 C   0  0  0  0  0  0  0  0  0  0  0  0
  160.6100  208.9060  154.6390 C   0  0  0  0  0  0  0  0  0  0  0  0
  159.3360  210.7370  153.4990 C   0  0  1  0  0  3  0  0  0  0  0  0
  161.3760  206.1520  152.1940 C   0  0  0  0  0  0  0  0  0  0  0  0
  160.8880  207.8790  152.0470 S   0  0  0  0  0  0  0  0  0  0  0  0
  157.9450  212.2430  155.0040 C   0  0  0  0  0  0  0  0  0  0  0  0
  160.6450  211.0900  155.6680 C   0  0  0  0  0  0  0  0  0  0  0  0
  160.3120  212.4480  155.7420 O   0  0  0  0  0  0  0  0  0  0  0  0
  157.9550  211.1010  154.0350 C   0  0  0  0  0  2  0  0  0  0  0  0
  156.8430  212.5770  155.5140 O   0  0  0  0  0  0  0  0  0  0  0  0
  158.9900  214.4520  155.4270 C   0  0  0  0  0  1  0  0  0  0  0  0
  161.3940  208.4070  155.6490 C   0  0  0  0  0  0  0  0  0  0  0  0
  160.2410  207.7720  153.7490 C   0  0  1  0  0  3  0  0  0  0  0  0
  159.9880  211.8400  152.6430 C   0  0  1  0  0  3  0  0  0  0  0  0
  161.3930  211.4370  152.2150 C   0  0  0  0  0  2  0  0  0  0  0  0
  161.3880  210.9300  150.7840 C   0  0  0  0  0  1  0  0  0  0  0  0
  159.1550  212.1170  151.3960 C   0  0  0  0  0  2  0  0  0  0  0  0
  159.5490  214.3330  152.2210 O   0  0  0  0  0  1  0  0  0  0  0  0
  158.8060  213.5950  151.2960 C   0  0  1  0  0  3  0  0  0  0  0  0
  159.0470  214.1100  149.9100 C   0  0  0  0  0  3  0  0  0  0  0  0
  160.0250  213.6300  149.1380 C   0  0  0  0  0  3  0  0  0  0  0  0
  160.2350  214.1690  147.7600 C   0  0  0  0  0  2  0  0  0  0  0  0
  161.0750  213.2610  146.9880 N   0  0  0  0  0  0  0  0  0  0  0  0
  161.8430  212.4480  147.9240 C   0  0  0  0  0  2  0  0  0  0  0  0
  163.1590  212.3310  147.4740 O   0  0  0  0  0  1  0  0  0  0  0  0
  161.9840  214.0340  146.1300 C   0  0  0  0  0  2  0  0  0  0  0  0
  162.0980  213.7830  143.6610 C   0  0  0  0  0  1  0  0  0  0  0  0
  161.3580  214.4530  144.7990 C   0  0  0  0  0  2  0  0  0  0  0  0
  1 11  2  0  0  0  0
  2  7  1  0  0  0  0
  3  5  2  0  0  0  0
  4 18  1  0  0  0  0
  4 15  1  0  0  0  0
  5 19  1  0  0  0  0
  6  3  1  0  0  0  0
  8  9  2  0  0  0  0
  8 14  1  0  0  0  0
  9 19  1  0  0  0  0
 10 21  1  1  0  0  0
 10 16  1  0  0  0  0
 10  8  1  0  0  0  0
 11  6  1  0  0  0  0
 12 11  1  0  0  0  0
 13  4  1  0  0  0  0
 13 17  2  0  0  0  0
 14 15  1  0  0  0  0
 14  7  2  0  0  0  0
 16 13  1  0  0  0  0
 19  2  2  0  0  0  0
 20 12  1  6  0  0  0
 20  3  1  0  0  0  0
 20  9  1  0  0  0  0
 21 24  1  6  0  0  0
 22 21  1  0  0  0  0
 23 22  1  0  0  0  0
 26 24  1  0  0  0  0
 26 25  1  1  0  0  0
 27 26  1  0  0  0  0
 28 27  2  0  0  0  0
 29 28  1  0  0  0  0
 30 29  1  0  0  0  0
 30 31  1  0  0  0  0
 32 31  1  0  0  0  0
 33 30  1  0  0  0  0
 34 35  1  0  0  0  0
 35 33  1  0  0  0  0
M  END
>  <MODEL>
7

>  <REMARK>
 VINA RESULT:      -3.5      3.351      7.314
  Name = 
  10 active torsions:
  status: ('A' for Active; 'I' for Inactive)
    1  A    between atoms: C_1  and  C_20
    2  A    between atoms: C_2  and  C_13
    3  A    between atoms: C_2  and  N_17
    4  A    between atoms: C_4  and  C_33
    5  A    between atoms: C_6  and  C_20
    6  A    between atoms: C_6  and  C_33
    7  A    between atoms: C_10  and  N_17
    8  A    between atoms: N_17  and  C_21
    9  A    between atoms: C_21  and  C_27
   10  A    between atoms: C_22  and  C_33
                            x       y       z     vdW  Elec       q    Type
                         _______ _______ _______ _____ _____    ______ ____

>  <TORSDO>
F 10

$$$$
=
 OpenBabel11052410433D

 35 38  0  0  1  0  0  0  0  0999 V2000
  161.5470  205.8020  148.2720 N   0  0  0  0  0  2  0  0  0  0  0  0
  161.6470  206.5800  154.9630 C   0  0  0  0  0  3  0  0  0  0  0  0
  160.9210  205.6090  151.6720 C   0  0  0  0  0  0  0  0  0  0  0  0
  159.9120  211.1280  155.2820 N   0  0  0  0  0  0  0  0  0  0  0  0
  161.3910  205.2820  152.8360 N   0  0  0  0  0  0  0  0  0  0  0  0
  161.3850  205.0010  150.4830 N   0  0  0  0  0  2  0  0  0  0  0  0
  161.4990  207.8380  155.5670 C   0  0  0  0  0  3  0  0  0  0  0  0
  160.6440  208.7820  153.4810 C   0  0  0  0  0  0  0  0  0  0  0  0
  160.8090  207.5180  152.9040 C   0  0  0  0  0  0  0  0  0  0  0  0
  160.1260  209.9140  152.6470 C   0  0  1  0  0  3  0  0  0  0  0  0
  161.6140  206.0390  149.5400 C   0  0  0  0  0  0  0  0  0  0  0  0
  161.4590  207.7120  150.1850 S   0  0  0  0  0  0  0  0  0  0  0  0
  158.7140  210.8880  154.5250 C   0  0  0  0  0  0  0  0  0  0  0  0
  160.9830  208.9370  154.8490 C   0  0  0  0  0  0  0  0  0  0  0  0
  160.8700  210.1570  155.5280 O   0  0  0  0  0  0  0  0  0  0  0  0
  158.7420  210.3300  153.1340 C   0  0  0  0  0  2  0  0  0  0  0  0
  157.5990  211.2200  155.0070 O   0  0  0  0  0  0  0  0  0  0  0  0
  159.9940  212.3490  156.0660 C   0  0  0  0  0  1  0  0  0  0  0  0
  161.2670  206.4480  153.6310 C   0  0  0  0  0  0  0  0  0  0  0  0
  160.4560  207.0250  151.5440 C   0  0  1  0  0  3  0  0  0  0  0  0
  161.1180  211.0850  152.5010 C   0  0  1  0  0  3  0  0  0  0  0  0
  162.5390  210.5720  152.3030 C   0  0  0  0  0  2  0  0  0  0  0  0
  162.8160  210.3310  150.8310 C   0  0  0  0  0  1  0  0  0  0  0  0
  160.7430  211.9650  151.3130 C   0  0  0  0  0  2  0  0  0  0  0  0
  159.6950  213.7260  152.5560 O   0  0  0  0  0  1  0  0  0  0  0  0
  159.4630  212.7380  151.5950 C   0  0  1  0  0  3  0  0  0  0  0  0
  158.9210  213.3530  150.3420 C   0  0  0  0  0  3  0  0  0  0  0  0
  159.6680  213.4960  149.2450 C   0  0  0  0  0  3  0  0  0  0  0  0
  159.0920  214.1150  148.0120 C   0  0  0  0  0  2  0  0  0  0  0  0
  159.6090  213.4440  146.8250 N   0  0  0  0  0  0  0  0  0  0  0  0
  158.5160  212.6960  146.2150 C   0  0  0  0  0  2  0  0  0  0  0  0
  158.8130  212.4360  144.8770 O   0  0  0  0  0  1  0  0  0  0  0  0
  160.6950  212.5300  147.2030 C   0  0  0  0  0  2  0  0  0  0  0  0
  163.0840  212.5760  147.8860 C   0  0  0  0  0  1  0  0  0  0  0  0
  162.0870  213.0570  146.8530 C   0  0  0  0  0  2  0  0  0  0  0  0
  1 11  2  0  0  0  0
  2  7  1  0  0  0  0
  3  5  2  0  0  0  0
  4 15  1  0  0  0  0
  4 18  1  0  0  0  0
  5 19  1  0  0  0  0
  6  3  1  0  0  0  0
  8 14  1  0  0  0  0
  9  8  2  0  0  0  0
  9 19  1  0  0  0  0
 10 21  1  1  0  0  0
 10 16  1  0  0  0  0
 10  8  1  0  0  0  0
 11 12  1  0  0  0  0
 11  6  1  0  0  0  0
 13 17  2  0  0  0  0
 13  4  1  0  0  0  0
 14 15  1  0  0  0  0
 14  7  2  0  0  0  0
 16 13  1  0  0  0  0
 19  2  2  0  0  0  0
 20 12  1  6  0  0  0
 20  3  1  0  0  0  0
 20  9  1  0  0  0  0
 21 24  1  6  0  0  0
 22 21  1  0  0  0  0
 23 22  1  0  0  0  0
 24 26  1  0  0  0  0
 26 25  1  1  0  0  0
 27 26  1  0  0  0  0
 28 27  2  0  0  0  0
 29 28  1  0  0  0  0
 30 33  1  0  0  0  0
 30 29  1  0  0  0  0
 31 30  1  0  0  0  0
 32 31  1  0  0  0  0
 35 33  1  0  0  0  0
 35 34  1  0  0  0  0
M  END
>  <MODEL>
8

>  <REMARK>
 VINA RESULT:      -3.3      2.660      6.910
  Name = 
  10 active torsions:
  status: ('A' for Active; 'I' for Inactive)
    1  A    between atoms: C_1  and  C_20
    2  A    between atoms: C_2  and  C_13
    3  A    between atoms: C_2  and  N_17
    4  A    between atoms: C_4  and  C_33
    5  A    between atoms: C_6  and  C_20
    6  A    between atoms: C_6  and  C_33
    7  A    between atoms: C_10  and  N_17
    8  A    between atoms: N_17  and  C_21
    9  A    between atoms: C_21  and  C_27
   10  A    between atoms: C_22  and  C_33
                            x       y       z     vdW  Elec       q    Type
                         _______ _______ _______ _____ _____    ______ ____

>  <TORSDO>
F 10

$$$$
=
 OpenBabel11052410433D

 35 38  0  0  1  0  0  0  0  0999 V2000
  161.6180  206.4660  147.6240 N   0  0  0  0  0  2  0  0  0  0  0  0
  161.5810  206.5130  154.3600 C   0  0  0  0  0  3  0  0  0  0  0  0
  160.9260  205.9040  150.9690 C   0  0  0  0  0  0  0  0  0  0  0  0
  159.8200  210.9950  155.1370 N   0  0  0  0  0  0  0  0  0  0  0  0
  161.3730  205.4530  152.1000 N   0  0  0  0  0  0  0  0  0  0  0  0
  161.4160  205.4300  149.7310 N   0  0  0  0  0  2  0  0  0  0  0  0
  161.4160  207.6970  155.0940 C   0  0  0  0  0  3  0  0  0  0  0  0
  160.5980  208.8610  153.1070 C   0  0  0  0  0  0  0  0  0  0  0  0
  160.7810  207.6680  152.3990 C   0  0  0  0  0  0  0  0  0  0  0  0
  160.0920  210.0760  152.3900 C   0  0  1  0  0  3  0  0  0  0  0  0
  161.6590  206.5640  148.9110 C   0  0  0  0  0  0  0  0  0  0  0  0
  161.4840  208.1570  149.7310 S   0  0  0  0  0  0  0  0  0  0  0  0
  158.6390  210.8370  154.3330 C   0  0  0  0  0  0  0  0  0  0  0  0
  160.9090  208.8670  154.4900 C   0  0  0  0  0  0  0  0  0  0  0  0
  160.7780  210.0060  155.2950 O   0  0  0  0  0  0  0  0  0  0  0  0
  158.6970  210.4330  152.8910 C   0  0  0  0  0  2  0  0  0  0  0  0
  157.5130  211.1120  154.8260 O   0  0  0  0  0  0  0  0  0  0  0  0
  159.8810  212.1240  156.0490 C   0  0  0  0  0  1  0  0  0  0  0  0
  161.2290  206.5260  153.0150 C   0  0  0  0  0  0  0  0  0  0  0  0
  160.4570  207.3240  150.9870 C   0  0  1  0  0  3  0  0  0  0  0  0
  161.0820  211.2580  152.3920 C   0  0  1  0  0  3  0  0  0  0  0  0
  162.1860  211.0440  151.3650 C   0  0  0  0  0  2  0  0  0  0  0  0
  163.3660  210.3290  151.9950 C   0  0  0  0  0  1  0  0  0  0  0  0
  160.3620  212.5640  152.0750 C   0  0  0  0  0  2  0  0  0  0  0  0
  158.4310  213.0180  150.7290 O   0  0  0  0  0  1  0  0  0  0  0  0
  159.7340  212.5140  150.6900 C   0  0  1  0  0  3  0  0  0  0  0  0
  160.5570  213.2810  149.7010 C   0  0  0  0  0  3  0  0  0  0  0  0
  160.4800  213.0510  148.3880 C   0  0  0  0  0  3  0  0  0  0  0  0
  161.3160  213.8370  147.4320 C   0  0  0  0  0  2  0  0  0  0  0  0
  161.2400  213.2520  146.0990 N   0  0  0  0  0  0  0  0  0  0  0  0
  162.4180  213.6730  145.3500 C   0  0  0  0  0  2  0  0  0  0  0  0
  162.5000  212.9530  144.1580 O   0  0  0  0  0  1  0  0  0  0  0  0
  160.0210  213.7150  145.4210 C   0  0  0  0  0  2  0  0  0  0  0  0
  157.8590  212.5740  145.8640 C   0  0  0  0  0  1  0  0  0  0  0  0
  159.0940  212.5790  144.9880 C   0  0  0  0  0  2  0  0  0  0  0  0
  1 11  2  0  0  0  0
  2  7  1  0  0  0  0
  3 20  1  0  0  0  0
  3  5  2  0  0  0  0
  4 15  1  0  0  0  0
  4 18  1  0  0  0  0
  5 19  1  0  0  0  0
  6  3  1  0  0  0  0
  8 14  1  0  0  0  0
  9 19  1  0  0  0  0
  9  8  2  0  0  0  0
 10 21  1  1  0  0  0
 10 16  1  0  0  0  0
 10  8  1  0  0  0  0
 11 12  1  0  0  0  0
 11  6  1  0  0  0  0
 13 17  2  0  0  0  0
 13  4  1  0  0  0  0
 14  7  2  0  0  0  0
 14 15  1  0  0  0  0
 16 13  1  0  0  0  0
 19  2  2  0  0  0  0
 20 12  1  6  0  0  0
 20  9  1  0  0  0  0
 21 22  1  6  0  0  0
 22 23  1  0  0  0  0
 24 21  1  0  0  0  0
 26 25  1  1  0  0  0
 26 24  1  0  0  0  0
 27 26  1  0  0  0  0
 28 27  2  0  0  0  0
 29 28  1  0  0  0  0
 30 29  1  0  0  0  0
 31 30  1  0  0  0  0
 32 31  1  0  0  0  0
 33 30  1  0  0  0  0
 35 33  1  0  0  0  0
 35 34  1  0  0  0  0
M  END
>  <MODEL>
9

>  <REMARK>
 VINA RESULT:      -2.8      2.846      6.967
  Name = 
  10 active torsions:
  status: ('A' for Active; 'I' for Inactive)
    1  A    between atoms: C_1  and  C_20
    2  A    between atoms: C_2  and  C_13
    3  A    between atoms: C_2  and  N_17
    4  A    between atoms: C_4  and  C_33
    5  A    between atoms: C_6  and  C_20
    6  A    between atoms: C_6  and  C_33
    7  A    between atoms: C_10  and  N_17
    8  A    between atoms: N_17  and  C_21
    9  A    between atoms: C_21  and  C_27
   10  A    between atoms: C_22  and  C_33
                            x       y       z     vdW  Elec       q    Type
                         _______ _______ _______ _____ _____    ______ ____

>  <TORSDO>
F 10

$$$$
