=
 OpenBabel11042421103D

 28 29  0  0  1  0  0  0  0  0999 V2000
  159.7540  206.2570  149.3970 C   0  0  0  0  0  2  0  0  0  0  0  0
  160.8000  205.8070  150.0900 C   0  0  0  0  0  0  0  0  0  0  0  0
  162.6050  207.4030  149.8080 O   0  0  0  0  0  0  0  0  0  0  0  0
  161.0660  207.7560  151.7450 C   0  0  2  0  0  3  0  0  0  0  0  0
  161.7470  209.6320  150.2240 C   0  0  1  0  0  3  0  0  0  0  0  0
  161.9330  208.4890  149.2110 C   0  0  0  0  0  2  0  0  0  0  0  0
  161.7440  206.7830  150.7500 C   0  0  1  0  0  3  0  0  0  0  0  0
  161.7090  209.1390  151.6760 C   0  0  0  0  0  2  0  0  0  0  0  0
  162.6340  210.7130  150.0250 O   0  0  0  0  0  0  0  0  0  0  0  0
  162.2130  211.4530  148.9070 C   0  0  0  0  0  1  0  0  0  0  0  0
  161.1520  207.1970  153.1560 C   0  0  0  0  0  2  0  0  0  0  0  0
  160.5000  209.2070  156.2950 O   0  0  0  0  0  1  0  0  0  0  0  0
  159.7790  207.1270  155.6640 O   0  0  0  0  0  0  0  0  0  0  0  0
  161.1210  208.2740  154.1340 N   0  0  0  0  0  2  0  0  0  0  0  0
  160.4410  208.1600  155.3850 C   0  0  0  0  0  0  0  0  0  0  0  0
  161.9320  202.5250  151.1820 O   0  0  0  0  0  0  0  0  0  0  0  0
  161.1720  204.4180  150.0170 N   0  0  0  0  0  0  0  0  0  0  0  0
  161.3630  203.6480  151.2230 C   0  0  0  0  0  0  0  0  0  0  0  0
  160.9220  204.1360  152.4490 O   0  0  0  0  0  1  0  0  0  0  0  0
  161.7190  203.4200  146.4580 N   0  0  0  0  0  0  0  0  0  0  0  0
  160.8250  202.5720  148.4190 C   0  0  0  0  0  3  0  0  0  0  0  0
  161.1310  202.3920  146.9870 C   0  0  0  0  0  0  0  0  0  0  0  0
  162.4120  205.4640  147.4180 O   0  0  0  0  0  0  0  0  0  0  0  0
  161.2670  203.7850  148.7260 C   0  0  0  0  0  0  0  0  0  0  0  0
  161.8380  204.3480  147.5200 C   0  0  0  0  0  0  0  0  0  0  0  0
  161.2390  200.0590  146.6040 O   0  0  0  0  0  0  0  0  0  0  0  0
  160.8110  201.1810  146.2220 C   0  0  0  0  0  0  0  0  0  0  0  0
  160.0170  201.2660  145.0440 N   0  0  0  0  0  1  0  0  0  0  0  0
  1  2  2  0  0  0  0
  3  7  1  0  0  0  0
  4 11  1  1  0  0  0
  5  9  1  1  0  0  0
  5  8  1  0  0  0  0
  6  3  1  0  0  0  0
  6  5  1  0  0  0  0
  7  2  1  6  0  0  0
  7  4  1  0  0  0  0
  8  4  1  0  0  0  0
 10  9  1  0  0  0  0
 11 14  1  0  0  0  0
 14 15  1  0  0  0  0
 15 13  2  0  0  0  0
 15 12  1  0  0  0  0
 16 18  2  0  0  0  0
 17  2  1  0  0  0  0
 17 18  1  0  0  0  0
 18 19  1  0  0  0  0
 20 22  2  0  0  0  0
 20 25  1  0  0  0  0
 21 24  2  0  0  0  0
 22 21  1  0  0  0  0
 23 25  2  0  0  0  0
 24 17  1  0  0  0  0
 25 24  1  0  0  0  0
 27 26  2  0  0  0  0
 27 22  1  0  0  0  0
 28 27  1  0  0  0  0
M  END
>  <MODEL>
1

>  <REMARK>
 VINA RESULT:      -7.1      0.000      0.000
  Name = 
  7 active torsions:
  status: ('A' for Active; 'I' for Inactive)
    1  A    between atoms: C_3  and  C_14
    2  A    between atoms: N_5  and  C_22
    3  A    between atoms: N_5  and  C_26
    4  A    between atoms: O_6  and  C_12
    5  A    between atoms: C_10  and  C_18
    6  A    between atoms: C_14  and  N_17
    7  A    between atoms: C_22  and  C_23
                            x       y       z     vdW  Elec       q    Type
                         _______ _______ _______ _____ _____    ______ ____

>  <TORSDO>
F 7

$$$$
=
 OpenBabel11042421103D

 28 29  0  0  1  0  0  0  0  0999 V2000
  163.0280  207.3880  151.2540 C   0  0  0  0  0  2  0  0  0  0  0  0
  161.7390  207.1420  151.4910 C   0  0  0  0  0  0  0  0  0  0  0  0
  160.7090  207.6070  149.3450 O   0  0  0  0  0  0  0  0  0  0  0  0
  161.1770  205.2140  149.8870 C   0  0  2  0  0  3  0  0  0  0  0  0
  161.7540  206.2120  147.6590 C   0  0  1  0  0  3  0  0  0  0  0  0
  161.8140  207.5170  148.4740 C   0  0  0  0  0  2  0  0  0  0  0  0
  160.8500  206.6440  150.3770 C   0  0  1  0  0  3  0  0  0  0  0  0
  160.9830  205.0980  148.3770 C   0  0  0  0  0  2  0  0  0  0  0  0
  161.3450  206.4020  146.3210 O   0  0  0  0  0  0  0  0  0  0  0  0
  162.0810  205.5400  145.4890 C   0  0  0  0  0  1  0  0  0  0  0  0
  160.3040  204.2040  150.6160 C   0  0  0  0  0  2  0  0  0  0  0  0
  161.3360  200.6180  149.9850 O   0  0  0  0  0  1  0  0  0  0  0  0
  159.6380  201.8730  149.0970 O   0  0  0  0  0  0  0  0  0  0  0  0
  160.9770  202.9160  150.7030 N   0  0  0  0  0  2  0  0  0  0  0  0
  160.6140  201.8000  149.8900 C   0  0  0  0  0  0  0  0  0  0  0  0
  160.0590  206.9220  154.7110 O   0  0  0  0  0  1  0  0  0  0  0  0
  161.1370  207.5680  152.7270 N   0  0  0  0  0  0  0  0  0  0  0  0
  160.8100  206.6050  153.7520 C   0  0  0  0  0  0  0  0  0  0  0  0
  161.3200  205.3120  153.6930 O   0  0  0  0  0  0  0  0  0  0  0  0
  160.9780  211.0850  153.9800 N   0  0  0  0  0  0  0  0  0  0  0  0
  160.3090  209.8200  152.1590 C   0  0  0  0  0  3  0  0  0  0  0  0
  160.3580  211.1270  152.8420 C   0  0  0  0  0  0  0  0  0  0  0  0
  162.0690  209.3000  155.0780 O   0  0  0  0  0  0  0  0  0  0  0  0
  160.9440  208.9760  152.9630 C   0  0  0  0  0  0  0  0  0  0  0  0
  161.3820  209.7350  154.1160 C   0  0  0  0  0  0  0  0  0  0  0  0
  160.0520  212.7410  151.1380 O   0  0  0  0  0  0  0  0  0  0  0  0
  159.7690  212.3600  152.3040 C   0  0  0  0  0  0  0  0  0  0  0  0
  158.8770  213.1330  153.0990 N   0  0  0  0  0  1  0  0  0  0  0  0
  1  2  2  0  0  0  0
  2 17  1  0  0  0  0
  3  7  1  0  0  0  0
  4  7  1  0  0  0  0
  4 11  1  1  0  0  0
  5  9  1  6  0  0  0
  5  8  1  0  0  0  0
  5  6  1  0  0  0  0
  6  3  1  0  0  0  0
  7  2  1  1  0  0  0
  8  4  1  0  0  0  0
 10  9  1  0  0  0  0
 11 14  1  0  0  0  0
 13 15  2  0  0  0  0
 15 12  1  0  0  0  0
 15 14  1  0  0  0  0
 17 24  1  0  0  0  0
 17 18  1  0  0  0  0
 18 16  1  0  0  0  0
 19 18  2  0  0  0  0
 20 25  1  0  0  0  0
 21 22  1  0  0  0  0
 21 24  2  0  0  0  0
 22 20  2  0  0  0  0
 24 25  1  0  0  0  0
 25 23  2  0  0  0  0
 26 27  2  0  0  0  0
 27 22  1  0  0  0  0
 27 28  1  0  0  0  0
M  END
>  <MODEL>
2

>  <REMARK>
 VINA RESULT:      -7.1      2.473      7.522
  Name = 
  7 active torsions:
  status: ('A' for Active; 'I' for Inactive)
    1  A    between atoms: C_3  and  C_14
    2  A    between atoms: N_5  and  C_22
    3  A    between atoms: N_5  and  C_26
    4  A    between atoms: O_6  and  C_12
    5  A    between atoms: C_10  and  C_18
    6  A    between atoms: C_14  and  N_17
    7  A    between atoms: C_22  and  C_23
                            x       y       z     vdW  Elec       q    Type
                         _______ _______ _______ _____ _____    ______ ____

>  <TORSDO>
F 7

$$$$
=
 OpenBabel11042421103D

 28 29  0  0  1  0  0  0  0  0999 V2000
  163.2120  206.5670  151.1960 C   0  0  0  0  0  2  0  0  0  0  0  0
  161.9980  206.9220  150.7740 C   0  0  0  0  0  0  0  0  0  0  0  0
  160.4210  206.3840  152.5360 O   0  0  0  0  0  0  0  0  0  0  0  0
  161.4350  208.6670  152.5740 C   0  0  2  0  0  3  0  0  0  0  0  0
  161.2740  207.2460  154.6360 C   0  0  1  0  0  3  0  0  0  0  0  0
  161.2850  206.0970  153.6130 C   0  0  0  0  0  2  0  0  0  0  0  0
  160.9770  207.4340  151.7600 C   0  0  1  0  0  3  0  0  0  0  0  0
  160.9130  208.5980  154.0080 C   0  0  0  0  0  2  0  0  0  0  0  0
  160.5310  206.9560  155.8010 O   0  0  0  0  0  0  0  0  0  0  0  0
  159.8490  208.1150  156.2110 C   0  0  0  0  0  1  0  0  0  0  0  0
  160.9610  209.9420  151.8960 C   0  0  0  0  0  2  0  0  0  0  0  0
  158.2770  212.3210  153.1030 O   0  0  0  0  0  1  0  0  0  0  0  0
  160.0400  212.6420  151.6770 O   0  0  0  0  0  0  0  0  0  0  0  0
  159.8280  210.5110  152.6110 N   0  0  0  0  0  2  0  0  0  0  0  0
  159.4010  211.8610  152.4300 C   0  0  0  0  0  0  0  0  0  0  0  0
  160.7930  207.4130  147.3750 O   0  0  0  0  0  0  0  0  0  0  0  0
  161.5750  206.6000  149.4350 N   0  0  0  0  0  0  0  0  0  0  0  0
  161.4020  207.6440  148.4530 C   0  0  0  0  0  0  0  0  0  0  0  0
  161.9050  208.9210  148.6830 O   0  0  0  0  0  1  0  0  0  0  0  0
  161.4830  203.2180  147.8510 N   0  0  0  0  0  0  0  0  0  0  0  0
  160.7980  204.2870  149.7870 C   0  0  0  0  0  3  0  0  0  0  0  0
  160.8700  203.0530  148.9820 C   0  0  0  0  0  0  0  0  0  0  0  0
  162.5300  205.1230  146.9260 O   0  0  0  0  0  0  0  0  0  0  0  0
  161.4100  205.2180  149.0660 C   0  0  0  0  0  0  0  0  0  0  0  0
  161.8570  204.5820  147.8430 C   0  0  0  0  0  0  0  0  0  0  0  0
  159.1340  201.4480  149.0800 O   0  0  0  0  0  0  0  0  0  0  0  0
  160.3100  201.7630  149.4000 C   0  0  0  0  0  0  0  0  0  0  0  0
  161.0930  200.8590  150.1730 N   0  0  0  0  0  1  0  0  0  0  0  0
  2  1  2  0  0  0  0
  3  6  1  0  0  0  0
  4 11  1  6  0  0  0
  4  8  1  0  0  0  0
  5  9  1  1  0  0  0
  6  5  1  0  0  0  0
  7  2  1  1  0  0  0
  7  3  1  0  0  0  0
  7  4  1  0  0  0  0
  8  5  1  0  0  0  0
  9 10  1  0  0  0  0
 11 14  1  0  0  0  0
 13 15  2  0  0  0  0
 15 14  1  0  0  0  0
 15 12  1  0  0  0  0
 16 18  2  0  0  0  0
 17  2  1  0  0  0  0
 18 19  1  0  0  0  0
 18 17  1  0  0  0  0
 20 22  2  0  0  0  0
 22 27  1  0  0  0  0
 22 21  1  0  0  0  0
 23 25  2  0  0  0  0
 24 17  1  0  0  0  0
 24 21  2  0  0  0  0
 25 20  1  0  0  0  0
 25 24  1  0  0  0  0
 26 27  2  0  0  0  0
 27 28  1  0  0  0  0
M  END
>  <MODEL>
3

>  <REMARK>
 VINA RESULT:      -7.0      2.146      4.221
  Name = 
  7 active torsions:
  status: ('A' for Active; 'I' for Inactive)
    1  A    between atoms: C_3  and  C_14
    2  A    between atoms: N_5  and  C_22
    3  A    between atoms: N_5  and  C_26
    4  A    between atoms: O_6  and  C_12
    5  A    between atoms: C_10  and  C_18
    6  A    between atoms: C_14  and  N_17
    7  A    between atoms: C_22  and  C_23
                            x       y       z     vdW  Elec       q    Type
                         _______ _______ _______ _____ _____    ______ ____

>  <TORSDO>
F 7

$$$$
=
 OpenBabel11042421103D

 28 29  0  0  1  0  0  0  0  0999 V2000
  159.5280  206.2220  149.4330 C   0  0  0  0  0  2  0  0  0  0  0  0
  160.8410  206.2450  149.6610 C   0  0  0  0  0  0  0  0  0  0  0  0
  161.5950  204.0340  150.3090 O   0  0  0  0  0  0  0  0  0  0  0  0
  161.5260  204.5400  147.8640 C   0  0  2  0  0  3  0  0  0  0  0  0
  160.6120  202.4020  148.8090 C   0  0  1  0  0  3  0  0  0  0  0  0
  160.4400  203.2590  150.0750 C   0  0  0  0  0  2  0  0  0  0  0  0
  161.6880  205.0440  149.3180 C   0  0  1  0  0  3  0  0  0  0  0  0
  161.5970  203.0160  147.8050 C   0  0  0  0  0  2  0  0  0  0  0  0
  160.8670  201.0400  149.0800 O   0  0  0  0  0  0  0  0  0  0  0  0
  161.4870  200.4580  147.9610 C   0  0  0  0  0  1  0  0  0  0  0  0
  162.5960  205.1580  146.9790 C   0  0  0  0  0  2  0  0  0  0  0  0
  161.1280  205.2520  143.4920 O   0  0  0  0  0  0  0  0  0  0  0  0
  160.5220  206.3490  145.4090 O   0  0  0  0  0  1  0  0  0  0  0  0
  162.3260  204.8740  145.5770 N   0  0  0  0  0  2  0  0  0  0  0  0
  161.2920  205.5300  144.8420 C   0  0  0  0  0  0  0  0  0  0  0  0
  162.7040  209.2730  150.4400 O   0  0  0  0  0  1  0  0  0  0  0  0
  161.4200  207.3070  150.4440 N   0  0  0  0  0  0  0  0  0  0  0  0
  161.9730  208.4730  149.7980 C   0  0  0  0  0  0  0  0  0  0  0  0
  161.7080  208.7300  148.4570 O   0  0  0  0  0  0  0  0  0  0  0  0
  161.7730  206.5630  154.0880 N   0  0  0  0  0  0  0  0  0  0  0  0
  160.5650  207.9370  152.6690 C   0  0  0  0  0  3  0  0  0  0  0  0
  160.8600  207.4840  154.0410 C   0  0  0  0  0  0  0  0  0  0  0  0
  163.0490  205.5660  152.3690 O   0  0  0  0  0  0  0  0  0  0  0  0
  161.3620  207.2270  151.8810 C   0  0  0  0  0  0  0  0  0  0  0  0
  162.1390  206.3550  152.7380 C   0  0  0  0  0  0  0  0  0  0  0  0
  159.9830  209.2420  155.3590 O   0  0  0  0  0  0  0  0  0  0  0  0
  160.1990  208.0070  155.2420 C   0  0  0  0  0  0  0  0  0  0  0  0
  159.7990  207.1230  156.2830 N   0  0  0  0  0  1  0  0  0  0  0  0
  1  2  2  0  0  0  0
  2 17  1  0  0  0  0
  4 11  1  6  0  0  0
  4  7  1  0  0  0  0
  5  9  1  1  0  0  0
  5  6  1  0  0  0  0
  6  3  1  0  0  0  0
  7  2  1  1  0  0  0
  7  3  1  0  0  0  0
  8  4  1  0  0  0  0
  8  5  1  0  0  0  0
 10  9  1  0  0  0  0
 12 15  2  0  0  0  0
 14 11  1  0  0  0  0
 15 13  1  0  0  0  0
 15 14  1  0  0  0  0
 17 24  1  0  0  0  0
 18 16  1  0  0  0  0
 18 17  1  0  0  0  0
 19 18  2  0  0  0  0
 21 22  1  0  0  0  0
 22 20  2  0  0  0  0
 22 27  1  0  0  0  0
 23 25  2  0  0  0  0
 24 21  2  0  0  0  0
 24 25  1  0  0  0  0
 25 20  1  0  0  0  0
 27 26  2  0  0  0  0
 27 28  1  0  0  0  0
M  END
>  <MODEL>
4

>  <REMARK>
 VINA RESULT:      -6.8      1.877      7.966
  Name = 
  7 active torsions:
  status: ('A' for Active; 'I' for Inactive)
    1  A    between atoms: C_3  and  C_14
    2  A    between atoms: N_5  and  C_22
    3  A    between atoms: N_5  and  C_26
    4  A    between atoms: O_6  and  C_12
    5  A    between atoms: C_10  and  C_18
    6  A    between atoms: C_14  and  N_17
    7  A    between atoms: C_22  and  C_23
                            x       y       z     vdW  Elec       q    Type
                         _______ _______ _______ _____ _____    ______ ____

>  <TORSDO>
F 7

$$$$
=
 OpenBabel11042421103D

 28 29  0  0  1  0  0  0  0  0999 V2000
  161.9300  210.1570  155.0540 C   0  0  0  0  0  2  0  0  0  0  0  0
  160.9950  209.7460  154.1970 C   0  0  0  0  0  0  0  0  0  0  0  0
  158.8140  210.2890  155.1090 O   0  0  0  0  0  0  0  0  0  0  0  0
  159.9220  212.0280  153.6980 C   0  0  2  0  0  3  0  0  0  0  0  0
  158.8460  212.5810  155.8970 C   0  0  1  0  0  3  0  0  0  0  0  0
  159.1590  211.1070  156.2040 C   0  0  0  0  0  2  0  0  0  0  0  0
  159.7160  210.5340  154.0410 C   0  0  1  0  0  3  0  0  0  0  0  0
  158.8760  212.8950  154.3960 C   0  0  0  0  0  2  0  0  0  0  0  0
  157.6850  213.0580  156.5430 O   0  0  0  0  0  0  0  0  0  0  0  0
  156.5620  212.7500  155.7550 C   0  0  0  0  0  1  0  0  0  0  0  0
  159.8610  212.2270  152.1930 C   0  0  0  0  0  2  0  0  0  0  0  0
  157.0030  213.7420  150.2280 O   0  0  0  0  0  1  0  0  0  0  0  0
  159.2590  213.7280  149.8330 O   0  0  0  0  0  0  0  0  0  0  0  0
  158.5360  212.6750  151.7890 N   0  0  0  0  0  2  0  0  0  0  0  0
  158.3010  213.3950  150.5790 C   0  0  0  0  0  0  0  0  0  0  0  0
  161.1610  206.1190  153.9430 O   0  0  0  0  0  0  0  0  0  0  0  0
  161.0880  208.4410  153.5950 N   0  0  0  0  0  0  0  0  0  0  0  0
  160.8340  207.2550  154.3780 C   0  0  0  0  0  0  0  0  0  0  0  0
  160.2240  207.3500  155.6250 O   0  0  0  0  0  1  0  0  0  0  0  0
  162.1510  208.8100  150.0320 N   0  0  0  0  0  0  0  0  0  0  0  0
  160.8990  207.3950  151.3710 C   0  0  0  0  0  3  0  0  0  0  0  0
  161.4240  207.7360  150.0350 C   0  0  0  0  0  0  0  0  0  0  0  0
  162.7990  210.2390  151.7980 O   0  0  0  0  0  0  0  0  0  0  0  0
  161.3560  208.3390  152.1830 C   0  0  0  0  0  0  0  0  0  0  0  0
  162.1500  209.2450  151.3790 C   0  0  0  0  0  0  0  0  0  0  0  0
  160.1170  206.2550  148.7310 O   0  0  0  0  0  0  0  0  0  0  0  0
  161.1620  206.9520  148.8220 C   0  0  0  0  0  0  0  0  0  0  0  0
  162.0880  206.9740  147.7410 N   0  0  0  0  0  1  0  0  0  0  0  0
  2  1  2  0  0  0  0
  3  6  1  0  0  0  0
  4 11  1  6  0  0  0
  4  7  1  0  0  0  0
  4  8  1  0  0  0  0
  5  6  1  0  0  0  0
  5  9  1  6  0  0  0
  7  2  1  1  0  0  0
  7  3  1  0  0  0  0
  8  5  1  0  0  0  0
 10  9  1  0  0  0  0
 12 15  1  0  0  0  0
 13 15  2  0  0  0  0
 14 11  1  0  0  0  0
 15 14  1  0  0  0  0
 16 18  2  0  0  0  0
 17  2  1  0  0  0  0
 17 18  1  0  0  0  0
 18 19  1  0  0  0  0
 20 22  2  0  0  0  0
 20 25  1  0  0  0  0
 21 24  2  0  0  0  0
 22 21  1  0  0  0  0
 24 17  1  0  0  0  0
 25 23  2  0  0  0  0
 25 24  1  0  0  0  0
 26 27  2  0  0  0  0
 27 22  1  0  0  0  0
 28 27  1  0  0  0  0
M  END
>  <MODEL>
5

>  <REMARK>
 VINA RESULT:      -6.3      3.491      6.528
  Name = 
  7 active torsions:
  status: ('A' for Active; 'I' for Inactive)
    1  A    between atoms: C_3  and  C_14
    2  A    between atoms: N_5  and  C_22
    3  A    between atoms: N_5  and  C_26
    4  A    between atoms: O_6  and  C_12
    5  A    between atoms: C_10  and  C_18
    6  A    between atoms: C_14  and  N_17
    7  A    between atoms: C_22  and  C_23
                            x       y       z     vdW  Elec       q    Type
                         _______ _______ _______ _____ _____    ______ ____

>  <TORSDO>
F 7

$$$$
=
 OpenBabel11042421103D

 28 29  0  0  1  0  0  0  0  0999 V2000
  163.1780  205.5430  152.0100 C   0  0  0  0  0  2  0  0  0  0  0  0
  162.0250  205.7680  151.3790 C   0  0  0  0  0  0  0  0  0  0  0  0
  160.3260  206.9030  152.6850 O   0  0  0  0  0  0  0  0  0  0  0  0
  162.1510  208.3120  151.7210 C   0  0  2  0  0  3  0  0  0  0  0  0
  161.4030  208.5470  154.1050 C   0  0  1  0  0  3  0  0  0  0  0  0
  160.9850  207.0780  153.9190 C   0  0  0  0  0  2  0  0  0  0  0  0
  161.2640  207.0470  151.6300 C   0  0  1  0  0  3  0  0  0  0  0  0
  161.6120  209.2790  152.7730 C   0  0  0  0  0  2  0  0  0  0  0  0
  160.5810  209.2560  155.0080 O   0  0  0  0  0  0  0  0  0  0  0  0
  160.0690  210.3960  154.3640 C   0  0  0  0  0  1  0  0  0  0  0  0
  162.2270  208.9900  150.3630 C   0  0  0  0  0  2  0  0  0  0  0  0
  161.3370  212.5650  149.4970 O   0  0  0  0  0  1  0  0  0  0  0  0
  162.3560  210.9270  148.2620 O   0  0  0  0  0  0  0  0  0  0  0  0
  161.7750  210.3710  150.4550 N   0  0  0  0  0  2  0  0  0  0  0  0
  161.8390  211.2780  149.3550 C   0  0  0  0  0  0  0  0  0  0  0  0
  160.4590  202.5500  150.7180 O   0  0  0  0  0  0  0  0  0  0  0  0
  161.3840  204.7070  150.6450 N   0  0  0  0  0  0  0  0  0  0  0  0
  160.7860  203.5940  151.3420 C   0  0  0  0  0  0  0  0  0  0  0  0
  160.5620  203.6580  152.7140 O   0  0  0  0  0  1  0  0  0  0  0  0
  160.7220  205.6070  147.0790 N   0  0  0  0  0  0  0  0  0  0  0  0
  161.7230  203.9330  148.3290 C   0  0  0  0  0  3  0  0  0  0  0  0
  161.3520  204.4750  147.0070 C   0  0  0  0  0  0  0  0  0  0  0  0
  160.1420  206.9340  148.9450 O   0  0  0  0  0  0  0  0  0  0  0  0
  161.2730  204.8150  149.2130 C   0  0  0  0  0  0  0  0  0  0  0  0
  160.6410  205.8830  148.4650 C   0  0  0  0  0  0  0  0  0  0  0  0
  162.6450  204.1860  145.0460 O   0  0  0  0  0  0  0  0  0  0  0  0
  161.6560  203.8160  145.7320 C   0  0  0  0  0  0  0  0  0  0  0  0
  160.8330  202.7550  145.2600 N   0  0  0  0  0  1  0  0  0  0  0  0
  2  1  2  0  0  0  0
  3  6  1  0  0  0  0
  4 11  1  6  0  0  0
  4  8  1  0  0  0  0
  5  9  1  6  0  0  0
  6  5  1  0  0  0  0
  7  2  1  1  0  0  0
  7  4  1  0  0  0  0
  7  3  1  0  0  0  0
  8  5  1  0  0  0  0
 10  9  1  0  0  0  0
 11 14  1  0  0  0  0
 13 15  2  0  0  0  0
 15 12  1  0  0  0  0
 15 14  1  0  0  0  0
 16 18  2  0  0  0  0
 17 18  1  0  0  0  0
 17  2  1  0  0  0  0
 18 19  1  0  0  0  0
 20 25  1  0  0  0  0
 21 24  2  0  0  0  0
 22 20  2  0  0  0  0
 22 21  1  0  0  0  0
 24 17  1  0  0  0  0
 25 23  2  0  0  0  0
 25 24  1  0  0  0  0
 26 27  2  0  0  0  0
 27 22  1  0  0  0  0
 28 27  1  0  0  0  0
M  END
>  <MODEL>
6

>  <REMARK>
 VINA RESULT:      -6.3      1.905      3.897
  Name = 
  7 active torsions:
  status: ('A' for Active; 'I' for Inactive)
    1  A    between atoms: C_3  and  C_14
    2  A    between atoms: N_5  and  C_22
    3  A    between atoms: N_5  and  C_26
    4  A    between atoms: O_6  and  C_12
    5  A    between atoms: C_10  and  C_18
    6  A    between atoms: C_14  and  N_17
    7  A    between atoms: C_22  and  C_23
                            x       y       z     vdW  Elec       q    Type
                         _______ _______ _______ _____ _____    ______ ____

>  <TORSDO>
F 7

$$$$
=
 OpenBabel11042421103D

 28 29  0  0  1  0  0  0  0  0999 V2000
  163.0750  206.5710  151.1900 C   0  0  0  0  0  2  0  0  0  0  0  0
  161.9200  206.9790  150.6620 C   0  0  0  0  0  0  0  0  0  0  0  0
  160.4560  207.2830  152.5710 O   0  0  0  0  0  0  0  0  0  0  0  0
  161.6460  209.3070  151.7170 C   0  0  2  0  0  3  0  0  0  0  0  0
  161.5430  208.7540  154.1630 C   0  0  1  0  0  3  0  0  0  0  0  0
  161.3800  207.3180  153.6360 C   0  0  0  0  0  2  0  0  0  0  0  0
  161.0270  207.9170  151.4380 C   0  0  1  0  0  3  0  0  0  0  0  0
  161.2390  209.8160  153.0980 C   0  0  0  0  0  2  0  0  0  0  0  0
  160.8780  208.9850  155.3870 O   0  0  0  0  0  0  0  0  0  0  0  0
  161.6570  208.4690  156.4370 C   0  0  0  0  0  1  0  0  0  0  0  0
  161.2190  210.2900  150.6400 C   0  0  0  0  0  2  0  0  0  0  0  0
  163.4440  212.2170  148.2600 O   0  0  0  0  0  1  0  0  0  0  0  0
  161.2060  211.7400  148.1730 O   0  0  0  0  0  0  0  0  0  0  0  0
  162.3840  210.8870  150.0010 N   0  0  0  0  0  2  0  0  0  0  0  0
  162.3010  211.6270  148.7830 C   0  0  0  0  0  0  0  0  0  0  0  0
  160.5270  206.6620  147.3150 O   0  0  0  0  0  0  0  0  0  0  0  0
  161.4090  206.3540  149.4700 N   0  0  0  0  0  0  0  0  0  0  0  0
  161.2060  207.1270  148.2680 C   0  0  0  0  0  0  0  0  0  0  0  0
  161.7580  208.3990  148.1460 O   0  0  0  0  0  1  0  0  0  0  0  0
  160.6900  202.7580  150.1870 N   0  0  0  0  0  0  0  0  0  0  0  0
  161.3240  204.1220  148.4260 C   0  0  0  0  0  3  0  0  0  0  0  0
  161.0040  202.7720  148.9280 C   0  0  0  0  0  0  0  0  0  0  0  0
  160.4960  204.5200  151.7490 O   0  0  0  0  0  0  0  0  0  0  0  0
  161.1830  204.9310  149.4680 C   0  0  0  0  0  0  0  0  0  0  0  0
  160.7820  204.1110  150.5930 C   0  0  0  0  0  0  0  0  0  0  0  0
  161.2390  200.4360  148.6370 O   0  0  0  0  0  0  0  0  0  0  0  0
  161.0330  201.5580  148.1050 C   0  0  0  0  0  0  0  0  0  0  0  0
  160.8310  201.6420  146.6980 N   0  0  0  0  0  1  0  0  0  0  0  0
  2  1  2  0  0  0  0
  3  6  1  0  0  0  0
  4 11  1  6  0  0  0
  4  8  1  0  0  0  0
  5  9  1  1  0  0  0
  6  5  1  0  0  0  0
  7  2  1  1  0  0  0
  7  4  1  0  0  0  0
  7  3  1  0  0  0  0
  8  5  1  0  0  0  0
  9 10  1  0  0  0  0
 12 15  1  0  0  0  0
 13 15  2  0  0  0  0
 14 11  1  0  0  0  0
 15 14  1  0  0  0  0
 16 18  2  0  0  0  0
 17  2  1  0  0  0  0
 18 17  1  0  0  0  0
 19 18  1  0  0  0  0
 20 25  1  0  0  0  0
 21 22  1  0  0  0  0
 21 24  2  0  0  0  0
 22 20  2  0  0  0  0
 24 17  1  0  0  0  0
 24 25  1  0  0  0  0
 25 23  2  0  0  0  0
 27 26  2  0  0  0  0
 27 22  1  0  0  0  0
 28 27  1  0  0  0  0
M  END
>  <MODEL>
7

>  <REMARK>
 VINA RESULT:      -6.1      1.827      4.643
  Name = 
  7 active torsions:
  status: ('A' for Active; 'I' for Inactive)
    1  A    between atoms: C_3  and  C_14
    2  A    between atoms: N_5  and  C_22
    3  A    between atoms: N_5  and  C_26
    4  A    between atoms: O_6  and  C_12
    5  A    between atoms: C_10  and  C_18
    6  A    between atoms: C_14  and  N_17
    7  A    between atoms: C_22  and  C_23
                            x       y       z     vdW  Elec       q    Type
                         _______ _______ _______ _____ _____    ______ ____

>  <TORSDO>
F 7

$$$$
=
 OpenBabel11042421103D

 28 29  0  0  1  0  0  0  0  0999 V2000
  163.4050  206.7190  150.5440 C   0  0  0  0  0  2  0  0  0  0  0  0
  162.1460  207.1480  150.6350 C   0  0  0  0  0  0  0  0  0  0  0  0
  160.8290  207.3260  148.6060 O   0  0  0  0  0  0  0  0  0  0  0  0
  161.2590  205.0270  149.4840 C   0  0  2  0  0  3  0  0  0  0  0  0
  161.5430  205.6010  147.0580 C   0  0  1  0  0  3  0  0  0  0  0  0
  161.7850  207.0140  147.6180 C   0  0  0  0  0  2  0  0  0  0  0  0
  161.0770  206.5380  149.7600 C   0  0  1  0  0  3  0  0  0  0  0  0
  160.8360  204.6790  148.0590 C   0  0  0  0  0  2  0  0  0  0  0  0
  160.9470  205.5970  145.7780 O   0  0  0  0  0  0  0  0  0  0  0  0
  161.9510  205.4530  144.8050 C   0  0  0  0  0  1  0  0  0  0  0  0
  160.4590  204.2170  150.4910 C   0  0  0  0  0  2  0  0  0  0  0  0
  161.1830  200.5220  150.1070 O   0  0  0  0  0  1  0  0  0  0  0  0
  159.5440  201.8360  149.1950 O   0  0  0  0  0  0  0  0  0  0  0  0
  161.0350  202.8900  150.6520 N   0  0  0  0  0  2  0  0  0  0  0  0
  160.5490  201.7470  149.9480 C   0  0  0  0  0  0  0  0  0  0  0  0
  161.9620  210.6830  151.4800 O   0  0  0  0  0  1  0  0  0  0  0  0
  161.8390  208.3390  151.3830 N   0  0  0  0  0  0  0  0  0  0  0  0
  161.9740  209.6400  150.7730 C   0  0  0  0  0  0  0  0  0  0  0  0
  162.1180  209.7620  149.3950 O   0  0  0  0  0  0  0  0  0  0  0  0
  160.5940  207.2830  154.7440 N   0  0  0  0  0  0  0  0  0  0  0  0
  160.8640  209.2020  153.4770 C   0  0  0  0  0  3  0  0  0  0  0  0
  160.4230  208.5680  154.7340 C   0  0  0  0  0  0  0  0  0  0  0  0
  161.5350  205.8390  153.1290 O   0  0  0  0  0  0  0  0  0  0  0  0
  161.3170  208.2110  152.7200 C   0  0  0  0  0  0  0  0  0  0  0  0
  161.1670  206.9890  153.4830 C   0  0  0  0  0  0  0  0  0  0  0  0
  158.7400  209.8900  155.7440 O   0  0  0  0  0  0  0  0  0  0  0  0
  159.8450  209.3000  155.8670 C   0  0  0  0  0  0  0  0  0  0  0  0
  160.5330  209.3500  157.1130 N   0  0  0  0  0  1  0  0  0  0  0  0
  1  2  2  0  0  0  0
  2 17  1  0  0  0  0
  3  7  1  0  0  0  0
  4  7  1  0  0  0  0
  4 11  1  1  0  0  0
  5  9  1  6  0  0  0
  5  6  1  0  0  0  0
  5  8  1  0  0  0  0
  6  3  1  0  0  0  0
  7  2  1  6  0  0  0
  8  4  1  0  0  0  0
 10  9  1  0  0  0  0
 11 14  1  0  0  0  0
 13 15  2  0  0  0  0
 15 12  1  0  0  0  0
 15 14  1  0  0  0  0
 17 24  1  0  0  0  0
 18 17  1  0  0  0  0
 18 16  1  0  0  0  0
 19 18  2  0  0  0  0
 21 22  1  0  0  0  0
 22 20  2  0  0  0  0
 22 27  1  0  0  0  0
 23 25  2  0  0  0  0
 24 21  2  0  0  0  0
 24 25  1  0  0  0  0
 25 20  1  0  0  0  0
 26 27  2  0  0  0  0
 27 28  1  0  0  0  0
M  END
>  <MODEL>
8

>  <REMARK>
 VINA RESULT:      -6.0      2.305      7.560
  Name = 
  7 active torsions:
  status: ('A' for Active; 'I' for Inactive)
    1  A    between atoms: C_3  and  C_14
    2  A    between atoms: N_5  and  C_22
    3  A    between atoms: N_5  and  C_26
    4  A    between atoms: O_6  and  C_12
    5  A    between atoms: C_10  and  C_18
    6  A    between atoms: C_14  and  N_17
    7  A    between atoms: C_22  and  C_23
                            x       y       z     vdW  Elec       q    Type
                         _______ _______ _______ _____ _____    ______ ____

>  <TORSDO>
F 7

$$$$
=
 OpenBabel11042421103D

 28 29  0  0  1  0  0  0  0  0999 V2000
  158.1880  210.6060  155.3550 C   0  0  0  0  0  2  0  0  0  0  0  0
  159.3750  211.1540  155.0950 C   0  0  0  0  0  0  0  0  0  0  0  0
  160.1370  212.3380  153.1210 O   0  0  0  0  0  0  0  0  0  0  0  0
  158.1150  213.2400  154.2780 C   0  0  2  0  0  3  0  0  0  0  0  0
  158.2080  212.9540  151.7870 C   0  0  1  0  0  3  0  0  0  0  0  0
  159.2380  211.8670  152.1420 C   0  0  0  0  0  2  0  0  0  0  0  0
  159.4540  212.4690  154.3570 C   0  0  1  0  0  3  0  0  0  0  0  0
  157.9730  213.9470  152.9320 C   0  0  0  0  0  2  0  0  0  0  0  0
  158.4560  213.5810  150.5460 O   0  0  0  0  0  0  0  0  0  0  0  0
  157.2690  213.5940  149.7930 C   0  0  0  0  0  1  0  0  0  0  0  0
  158.0250  214.2410  155.4180 C   0  0  0  0  0  2  0  0  0  0  0  0
  154.8440  213.3420  157.2610 O   0  0  0  0  0  1  0  0  0  0  0  0
  155.1730  214.4010  155.2560 O   0  0  0  0  0  0  0  0  0  0  0  0
  157.0920  213.7760  156.4340 N   0  0  0  0  0  2  0  0  0  0  0  0
  155.6750  213.8570  156.2750 C   0  0  0  0  0  0  0  0  0  0  0  0
  162.7280  210.3420  156.2530 O   0  0  0  0  0  0  0  0  0  0  0  0
  160.5820  210.3960  155.3010 N   0  0  0  0  0  0  0  0  0  0  0  0
  161.5720  210.8420  156.2520 C   0  0  0  0  0  0  0  0  0  0  0  0
  161.2650  211.8310  157.1800 O   0  0  0  0  0  1  0  0  0  0  0  0
  160.8380  206.8480  154.1580 N   0  0  0  0  0  0  0  0  0  0  0  0
  161.1310  208.9970  153.3460 C   0  0  0  0  0  3  0  0  0  0  0  0
  161.1730  207.5410  153.1130 C   0  0  0  0  0  0  0  0  0  0  0  0
  160.1330  207.5360  156.3050 O   0  0  0  0  0  0  0  0  0  0  0  0
  160.7480  209.1440  154.6080 C   0  0  0  0  0  0  0  0  0  0  0  0
  160.5520  207.8150  155.1510 C   0  0  0  0  0  0  0  0  0  0  0  0
  161.1890  205.7440  151.5730 O   0  0  0  0  0  0  0  0  0  0  0  0
  161.5510  206.9210  151.8380 C   0  0  0  0  0  0  0  0  0  0  0  0
  162.3310  207.6450  150.8930 N   0  0  0  0  0  1  0  0  0  0  0  0
  2 17  1  0  0  0  0
  2  1  2  0  0  0  0
  3  7  1  0  0  0  0
  4  7  1  0  0  0  0
  4 11  1  1  0  0  0
  5  9  1  6  0  0  0
  5  6  1  0  0  0  0
  5  8  1  0  0  0  0
  6  3  1  0  0  0  0
  7  2  1  6  0  0  0
  8  4  1  0  0  0  0
 10  9  1  0  0  0  0
 11 14  1  0  0  0  0
 13 15  2  0  0  0  0
 15 14  1  0  0  0  0
 15 12  1  0  0  0  0
 17 18  1  0  0  0  0
 18 16  2  0  0  0  0
 18 19  1  0  0  0  0
 20 25  1  0  0  0  0
 21 24  2  0  0  0  0
 22 21  1  0  0  0  0
 22 20  2  0  0  0  0
 24 25  1  0  0  0  0
 24 17  1  0  0  0  0
 25 23  2  0  0  0  0
 26 27  2  0  0  0  0
 27 22  1  0  0  0  0
 28 27  1  0  0  0  0
M  END
>  <MODEL>
9

>  <REMARK>
 VINA RESULT:      -5.9      4.385      7.635
  Name = 
  7 active torsions:
  status: ('A' for Active; 'I' for Inactive)
    1  A    between atoms: C_3  and  C_14
    2  A    between atoms: N_5  and  C_22
    3  A    between atoms: N_5  and  C_26
    4  A    between atoms: O_6  and  C_12
    5  A    between atoms: C_10  and  C_18
    6  A    between atoms: C_14  and  N_17
    7  A    between atoms: C_22  and  C_23
                            x       y       z     vdW  Elec       q    Type
                         _______ _______ _______ _____ _____    ______ ____

>  <TORSDO>
F 7

$$$$
