=
 OpenBabel11042421593D

 46 50  0  0  1  0  0  0  0  0999 V2000
  160.6640  209.2970  156.4150 O   0  0  0  0  0  1  0  0  0  0  0  0
  159.2380  211.9080  154.2910 C   0  0  0  0  0  3  0  0  0  0  0  0
  159.3540  210.9690  155.2270 C   0  0  0  0  0  3  0  0  0  0  0  0
  160.2520  209.7980  155.1840 C   0  0  0  0  0  0  0  0  0  0  0  0
  160.0720  211.9420  153.0530 C   0  0  1  0  0  3  0  0  0  0  0  0
  160.6410  209.1590  154.0550 C   0  0  0  0  0  0  0  0  0  0  0  0
  159.8930  210.7050  152.2370 C   0  0  0  0  0  3  0  0  0  0  0  0
  160.1800  209.4910  152.6920 C   0  0  0  0  0  3  0  0  0  0  0  0
  161.4860  207.9320  154.1640 C   0  0  0  0  0  2  0  0  0  0  0  0
  160.8670  206.7900  153.3660 C   0  0  0  0  0  2  0  0  0  0  0  0
  161.9190  205.7630  152.9730 C   0  0  0  0  0  2  0  0  0  0  0  0
  162.1440  205.7840  151.4670 C   0  0  0  0  0  2  0  0  0  0  0  0
  161.1070  204.6290  149.4740 C   0  0  0  0  0  0  0  0  0  0  0  0
  160.9550  202.2280  150.9150 C   0  0  0  0  0  0  0  0  0  0  0  0
  161.5500  204.5770  150.8130 C   0  0  0  0  0  0  0  0  0  0  0  0
  160.5850  203.4730  148.8740 C   0  0  0  0  0  3  0  0  0  0  0  0
  160.5070  202.2790  149.5930 C   0  0  0  0  0  3  0  0  0  0  0  0
  160.8780  201.0410  151.6280 O   0  0  0  0  0  1  0  0  0  0  0  0
  161.4800  203.3720  151.5200 C   0  0  0  0  0  3  0  0  0  0  0  0
  161.2000  205.9110  148.6850 C   0  0  2  0  0  3  0  0  0  0  0  0
  160.5190  206.2480  146.2360 C   0  0  0  0  0  2  0  0  0  0  0  0
  161.4990  205.6690  147.2320 C   0  0  0  0  0  0  0  0  0  0  0  0
  162.6390  205.0290  146.8850 C   0  0  0  0  0  3  0  0  0  0  0  0
  162.7610  205.7210  144.4660 C   0  0  0  0  0  2  0  0  0  0  0  0
  161.3290  205.6100  143.9420 C   0  0  0  0  0  2  0  0  0  0  0  0
  160.2900  205.3450  145.0360 C   0  0  0  0  0  2  0  0  0  0  0  0
  163.0610  204.6350  145.4880 C   0  0  0  0  0  2  0  0  0  0  0  0
  162.1200  206.8010  149.2510 O   0  0  0  0  0  0  0  0  0  0  0  0
  161.6860  208.0660  148.8570 C   0  0  0  0  0  1  0  0  0  0  0  0
  159.7880  213.1950  152.2250 C   0  0  0  0  0  2  0  0  0  0  0  0
  158.4480  213.8020  152.5380 C   0  0  0  0  0  3  0  0  0  0  0  0
  157.4530  213.8650  151.6460 C   0  0  0  0  0  3  0  0  0  0  0  0
  157.5730  213.3330  150.2420 C   0  0  1  0  0  3  0  0  0  0  0  0
  156.3670  213.4450  149.3980 C   0  0  2  0  0  3  0  0  0  0  0  0
  157.4420  214.4440  149.2850 N   0  0  2  0  0  0  0  0  0  0  0  0
  155.1490  214.0880  150.0500 C   0  0  0  0  0  1  0  0  0  0  0  0
  159.9860  213.8840  148.6020 S   0  0  0  0  0  0  0  0  0  0  0  0
  160.5380  213.6070  146.8760 C   0  0  2  0  0  3  0  0  0  0  0  0
  158.0120  213.5320  145.2500 O   0  0  0  0  0  1  0  0  0  0  0  0
  157.7230  212.7960  147.5170 C   0  0  0  0  0  2  0  0  0  0  0  0
  160.4030  212.1330  144.9740 O   0  0  0  0  0  1  0  0  0  0  0  0
  159.8780  212.3670  146.2470 C   0  0  2  0  0  3  0  0  0  0  0  0
  158.3560  212.5250  146.1550 C   0  0  2  0  0  3  0  0  0  0  0  0
  158.2390  214.0990  148.1180 C   0  0  1  0  0  3  0  0  0  0  0  0
  161.9430  213.6280  146.7440 O   0  0  0  0  0  0  0  0  0  0  0  0
  162.5190  213.0820  147.9020 C   0  0  0  0  0  1  0  0  0  0  0  0
  2  3  2  0  0  0  0
  4  3  1  0  0  0  0
  4  1  1  0  0  0  0
  5 30  1  6  0  0  0
  5  2  1  0  0  0  0
  6  9  1  0  0  0  0
  6  4  2  0  0  0  0
  7  8  2  0  0  0  0
  7  5  1  0  0  0  0
  8  6  1  0  0  0  0
 10  9  1  0  0  0  0
 11 10  1  0  0  0  0
 12 11  1  0  0  0  0
 13 15  1  0  0  0  0
 14 19  1  0  0  0  0
 14 18  1  0  0  0  0
 15 12  1  0  0  0  0
 15 19  2  0  0  0  0
 16 13  2  0  0  0  0
 16 17  1  0  0  0  0
 17 14  2  0  0  0  0
 20 28  1  1  0  0  0
 20 13  1  0  0  0  0
 21 22  1  0  0  0  0
 22 20  1  0  0  0  0
 23 22  2  0  0  0  0
 24 27  1  0  0  0  0
 25 24  1  0  0  0  0
 25 26  1  0  0  0  0
 26 21  1  0  0  0  0
 27 23  1  0  0  0  0
 29 28  1  0  0  0  0
 30 31  1  0  0  0  0
 32 31  2  0  0  0  0
 33 32  1  1  0  0  0
 34 36  1  1  0  0  0
 34 33  1  0  0  0  0
 35 44  1  6  0  0  0
 35 34  1  0  0  0  0
 35 33  1  0  0  0  0
 38 45  1  1  0  0  0
 38 37  1  0  0  0  0
 42 41  1  6  0  0  0
 42 38  1  0  0  0  0
 43 39  1  6  0  0  0
 43 42  1  0  0  0  0
 43 40  1  0  0  0  0
 44 40  1  1  0  0  0
 44 37  1  0  0  0  0
 45 46  1  0  0  0  0
M  END
>  <MODEL>
1

>  <REMARK>
 VINA RESULT:      -8.0      0.000      0.000
  Name = 
  13 active torsions:
  status: ('A' for Active; 'I' for Inactive)
    1  A    between atoms: C_2  and  C_7
    2  A    between atoms: C_2  and  C_18
    3  A    between atoms: C_3  and  O_20
    4  A    between atoms: C_6  and  C_27
    5  A    between atoms: C_7  and  C_12
    6  A    between atoms: C_10  and  C_42
    7  A    between atoms: C_11  and  C_27
    8  A    between atoms: C_12  and  C_24
    9  A    between atoms: C_24  and  C_40
   10  A    between atoms: C_27  and  O_41
   11  A    between atoms: N_28  and  C_38
   12  A    between atoms: C_30  and  C_35
   13  A    between atoms: C_35  and  C_36
                            x       y       z     vdW  Elec       q    Type
                         _______ _______ _______ _____ _____    ______ ____

>  <TORSDO>
F 13

$$$$
=
 OpenBabel11042421593D

 46 50  0  0  1  0  0  0  0  0999 V2000
  160.1000  207.9730  154.4140 O   0  0  0  0  0  1  0  0  0  0  0  0
  162.3500  206.9810  151.7090 C   0  0  0  0  0  3  0  0  0  0  0  0
  161.8750  207.2210  152.9300 C   0  0  0  0  0  3  0  0  0  0  0  0
  160.8780  208.2470  153.2940 C   0  0  0  0  0  0  0  0  0  0  0  0
  161.8780  207.7000  150.4880 C   0  0  1  0  0  3  0  0  0  0  0  0
  160.7190  209.4330  152.6620 C   0  0  0  0  0  0  0  0  0  0  0  0
  162.1050  209.1710  150.5960 C   0  0  0  0  0  3  0  0  0  0  0  0
  161.5570  209.9190  151.5470 C   0  0  0  0  0  3  0  0  0  0  0  0
  159.7250  210.4160  153.1910 C   0  0  0  0  0  2  0  0  0  0  0  0
  160.2360  211.8400  152.9990 C   0  0  0  0  0  2  0  0  0  0  0  0
  159.1580  212.7340  152.4030 C   0  0  0  0  0  2  0  0  0  0  0  0
  159.6710  213.4160  151.1420 C   0  0  0  0  0  2  0  0  0  0  0  0
  158.8260  213.7130  148.7800 C   0  0  0  0  0  0  0  0  0  0  0  0
  156.1970  213.9580  149.7260 C   0  0  0  0  0  0  0  0  0  0  0  0
  158.5630  213.6520  150.1650 C   0  0  0  0  0  0  0  0  0  0  0  0
  157.7640  213.9030  147.8840 C   0  0  0  0  0  3  0  0  0  0  0  0
  156.4560  214.0270  148.3550 C   0  0  0  0  0  3  0  0  0  0  0  0
  154.8980  214.0810  150.1940 O   0  0  0  0  0  1  0  0  0  0  0  0
  157.2470  213.7650  150.6260 C   0  0  0  0  0  3  0  0  0  0  0  0
  160.2340  213.5660  148.2590 C   0  0  2  0  0  3  0  0  0  0  0  0
  159.3130  212.6330  146.0550 C   0  0  0  0  0  2  0  0  0  0  0  0
  160.2910  213.5490  146.7580 C   0  0  0  0  0  0  0  0  0  0  0  0
  161.1370  214.3860  146.1150 C   0  0  0  0  0  3  0  0  0  0  0  0
  160.0940  214.3180  143.8220 C   0  0  0  0  0  2  0  0  0  0  0  0
  159.7360  212.8510  143.5860 C   0  0  0  0  0  2  0  0  0  0  0  0
  159.9040  211.9670  144.8260 C   0  0  0  0  0  2  0  0  0  0  0  0
  161.3810  214.4500  144.6240 C   0  0  0  0  0  2  0  0  0  0  0  0
  160.8720  212.4450  148.8040 O   0  0  0  0  0  0  0  0  0  0  0  0
  162.0880  212.3600  148.1290 C   0  0  0  0  0  1  0  0  0  0  0  0
  162.5250  207.1330  149.2250 C   0  0  0  0  0  2  0  0  0  0  0  0
  161.9960  207.7720  147.9690 C   0  0  0  0  0  3  0  0  0  0  0  0
  161.2170  207.1230  147.0980 C   0  0  0  0  0  3  0  0  0  0  0  0
  160.7890  205.6920  147.2850 C   0  0  1  0  0  3  0  0  0  0  0  0
  160.9110  204.8150  146.1030 C   0  0  2  0  0  3  0  0  0  0  0  0
  161.9580  204.8080  147.1390 N   0  0  2  0  0  0  0  0  0  0  0  0
  161.4600  205.4660  144.8390 C   0  0  0  0  0  1  0  0  0  0  0  0
  161.0790  204.1870  149.6080 S   0  0  0  0  0  0  0  0  0  0  0  0
  161.0800  202.4840  150.2890 C   0  0  2  0  0  3  0  0  0  0  0  0
  161.8450  200.7200  147.9810 O   0  0  0  0  0  1  0  0  0  0  0  0
  160.7070  202.7290  147.3240 C   0  0  0  0  0  2  0  0  0  0  0  0
  160.1060  200.2880  150.1110 O   0  0  0  0  0  1  0  0  0  0  0  0
  160.1560  201.5420  149.4980 C   0  0  2  0  0  3  0  0  0  0  0  0
  160.6190  201.3870  148.0450 C   0  0  2  0  0  3  0  0  0  0  0  0
  161.7250  203.6490  147.9880 C   0  0  1  0  0  3  0  0  0  0  0  0
  160.8590  202.4560  151.6830 O   0  0  0  0  0  0  0  0  0  0  0  0
  160.7120  203.7720  152.1490 C   0  0  0  0  0  1  0  0  0  0  0  0
  2  3  2  0  0  0  0
  3  4  1  0  0  0  0
  4  1  1  0  0  0  0
  5 30  1  6  0  0  0
  5  7  1  0  0  0  0
  5  2  1  0  0  0  0
  6  9  1  0  0  0  0
  6  4  2  0  0  0  0
  7  8  2  0  0  0  0
  8  6  1  0  0  0  0
 10  9  1  0  0  0  0
 11 10  1  0  0  0  0
 12 11  1  0  0  0  0
 13 15  1  0  0  0  0
 14 18  1  0  0  0  0
 14 19  1  0  0  0  0
 15 19  2  0  0  0  0
 15 12  1  0  0  0  0
 16 17  1  0  0  0  0
 16 13  2  0  0  0  0
 17 14  2  0  0  0  0
 20 13  1  0  0  0  0
 20 28  1  1  0  0  0
 21 22  1  0  0  0  0
 22 20  1  0  0  0  0
 23 22  2  0  0  0  0
 24 27  1  0  0  0  0
 25 24  1  0  0  0  0
 25 26  1  0  0  0  0
 26 21  1  0  0  0  0
 27 23  1  0  0  0  0
 29 28  1  0  0  0  0
 31 30  1  0  0  0  0
 32 31  2  0  0  0  0
 33 32  1  6  0  0  0
 34 36  1  6  0  0  0
 34 35  1  0  0  0  0
 34 33  1  0  0  0  0
 35 33  1  0  0  0  0
 35 44  1  1  0  0  0
 37 38  1  0  0  0  0
 38 45  1  1  0  0  0
 40 43  1  0  0  0  0
 42 41  1  1  0  0  0
 42 38  1  0  0  0  0
 43 39  1  1  0  0  0
 43 42  1  0  0  0  0
 44 40  1  6  0  0  0
 44 37  1  0  0  0  0
 45 46  1  0  0  0  0
M  END
>  <MODEL>
2

>  <REMARK>
 VINA RESULT:      -7.0      2.770      9.089
  Name = 
  13 active torsions:
  status: ('A' for Active; 'I' for Inactive)
    1  A    between atoms: C_2  and  C_7
    2  A    between atoms: C_2  and  C_18
    3  A    between atoms: C_3  and  O_20
    4  A    between atoms: C_6  and  C_27
    5  A    between atoms: C_7  and  C_12
    6  A    between atoms: C_10  and  C_42
    7  A    between atoms: C_11  and  C_27
    8  A    between atoms: C_12  and  C_24
    9  A    between atoms: C_24  and  C_40
   10  A    between atoms: C_27  and  O_41
   11  A    between atoms: N_28  and  C_38
   12  A    between atoms: C_30  and  C_35
   13  A    between atoms: C_35  and  C_36
                            x       y       z     vdW  Elec       q    Type
                         _______ _______ _______ _____ _____    ______ ____

>  <TORSDO>
F 13

$$$$
=
 OpenBabel11042421593D

 46 50  0  0  1  0  0  0  0  0999 V2000
  160.8740  209.2840  155.3100 O   0  0  0  0  0  1  0  0  0  0  0  0
  160.2910  211.2210  152.2650 C   0  0  0  0  0  3  0  0  0  0  0  0
  160.0870  210.6240  153.4370 C   0  0  0  0  0  3  0  0  0  0  0  0
  160.7650  209.4080  153.9280 C   0  0  0  0  0  0  0  0  0  0  0  0
  161.3120  210.7620  151.2760 C   0  0  1  0  0  3  0  0  0  0  0  0
  161.2190  208.4020  153.1450 C   0  0  0  0  0  0  0  0  0  0  0  0
  161.0610  209.3580  150.8390 C   0  0  0  0  0  3  0  0  0  0  0  0
  161.0550  208.3290  151.6790 C   0  0  0  0  0  3  0  0  0  0  0  0
  161.8110  207.1870  153.7840 C   0  0  0  0  0  2  0  0  0  0  0  0
  160.7750  206.0710  153.8600 C   0  0  0  0  0  2  0  0  0  0  0  0
  161.2040  204.8680  153.0320 C   0  0  0  0  0  2  0  0  0  0  0  0
  161.3920  205.2660  151.5740 C   0  0  0  0  0  2  0  0  0  0  0  0
  161.1380  204.2800  149.2630 C   0  0  0  0  0  0  0  0  0  0  0  0
  160.8820  201.7120  150.3610 C   0  0  0  0  0  0  0  0  0  0  0  0
  161.1750  204.1010  150.6620 C   0  0  0  0  0  0  0  0  0  0  0  0
  160.9660  203.1660  148.4290 C   0  0  0  0  0  3  0  0  0  0  0  0
  160.8360  201.8880  148.9760 C   0  0  0  0  0  3  0  0  0  0  0  0
  160.7550  200.4430  150.9030 O   0  0  0  0  0  1  0  0  0  0  0  0
  161.0570  202.8150  151.1990 C   0  0  0  0  0  3  0  0  0  0  0  0
  161.2910  205.6550  148.6610 C   0  0  2  0  0  3  0  0  0  0  0  0
  162.4960  204.9820  146.5000 C   0  0  0  0  0  2  0  0  0  0  0  0
  161.2960  205.6260  147.1590 C   0  0  0  0  0  0  0  0  0  0  0  0
  160.2240  206.0940  146.4800 C   0  0  0  0  0  3  0  0  0  0  0  0
  160.6590  205.0040  144.2510 C   0  0  0  0  0  2  0  0  0  0  0  0
  162.1610  205.1570  144.0140 C   0  0  0  0  0  2  0  0  0  0  0  0
  162.9270  205.6910  145.2290 C   0  0  0  0  0  2  0  0  0  0  0  0
  160.0890  206.2120  144.9790 C   0  0  0  0  0  2  0  0  0  0  0  0
  162.4200  206.3150  149.1600 O   0  0  0  0  0  0  0  0  0  0  0  0
  162.4860  207.5080  148.4430 C   0  0  0  0  0  1  0  0  0  0  0  0
  161.3890  211.7080  150.0780 C   0  0  0  0  0  2  0  0  0  0  0  0
  160.6960  213.0190  150.3310 C   0  0  0  0  0  3  0  0  0  0  0  0
  159.9550  213.6380  149.4060 C   0  0  0  0  0  3  0  0  0  0  0  0
  159.7370  213.0870  148.0230 C   0  0  1  0  0  3  0  0  0  0  0  0
  158.3340  212.9850  147.5750 C   0  0  2  0  0  3  0  0  0  0  0  0
  159.1580  214.1340  147.1640 N   0  0  2  0  0  0  0  0  0  0  0  0
  157.2780  213.4550  148.5680 C   0  0  0  0  0  1  0  0  0  0  0  0
  161.4350  213.6820  145.7980 S   0  0  0  0  0  0  0  0  0  0  0  0
  161.5100  213.5200  143.9730 C   0  0  2  0  0  3  0  0  0  0  0  0
  158.6450  213.4730  143.0730 O   0  0  0  0  0  1  0  0  0  0  0  0
  158.9760  212.5990  145.2850 C   0  0  0  0  0  2  0  0  0  0  0  0
  160.8900  212.1560  142.0860 O   0  0  0  0  0  1  0  0  0  0  0  0
  160.7200  212.3020  143.4650 C   0  0  2  0  0  3  0  0  0  0  0  0
  159.2270  212.4240  143.7890 C   0  0  2  0  0  3  0  0  0  0  0  0
  159.6210  213.8780  145.8080 C   0  0  1  0  0  3  0  0  0  0  0  0
  162.8300  213.5860  143.4760 O   0  0  0  0  0  0  0  0  0  0  0  0
  163.7290  213.3910  144.5360 C   0  0  0  0  0  1  0  0  0  0  0  0
  2  3  2  0  0  0  0
  3  4  1  0  0  0  0
  4  1  1  0  0  0  0
  5 30  1  6  0  0  0
  5  2  1  0  0  0  0
  6  9  1  0  0  0  0
  6  4  2  0  0  0  0
  7  5  1  0  0  0  0
  7  8  2  0  0  0  0
  8  6  1  0  0  0  0
  9 10  1  0  0  0  0
 11 10  1  0  0  0  0
 12 11  1  0  0  0  0
 13 15  1  0  0  0  0
 14 18  1  0  0  0  0
 14 19  1  0  0  0  0
 15 19  2  0  0  0  0
 15 12  1  0  0  0  0
 16 17  1  0  0  0  0
 16 13  2  0  0  0  0
 17 14  2  0  0  0  0
 20 28  1  1  0  0  0
 20 13  1  0  0  0  0
 21 22  1  0  0  0  0
 22 20  1  0  0  0  0
 23 22  2  0  0  0  0
 24 27  1  0  0  0  0
 25 24  1  0  0  0  0
 25 26  1  0  0  0  0
 26 21  1  0  0  0  0
 27 23  1  0  0  0  0
 29 28  1  0  0  0  0
 30 31  1  0  0  0  0
 32 31  2  0  0  0  0
 33 32  1  1  0  0  0
 34 33  1  0  0  0  0
 34 36  1  1  0  0  0
 35 44  1  6  0  0  0
 35 34  1  0  0  0  0
 35 33  1  0  0  0  0
 37 44  1  0  0  0  0
 38 45  1  1  0  0  0
 38 37  1  0  0  0  0
 42 41  1  6  0  0  0
 42 43  1  0  0  0  0
 42 38  1  0  0  0  0
 43 39  1  6  0  0  0
 43 40  1  0  0  0  0
 44 40  1  1  0  0  0
 45 46  1  0  0  0  0
M  END
>  <MODEL>
3

>  <REMARK>
 VINA RESULT:      -6.9      1.682      2.209
  Name = 
  13 active torsions:
  status: ('A' for Active; 'I' for Inactive)
    1  A    between atoms: C_2  and  C_7
    2  A    between atoms: C_2  and  C_18
    3  A    between atoms: C_3  and  O_20
    4  A    between atoms: C_6  and  C_27
    5  A    between atoms: C_7  and  C_12
    6  A    between atoms: C_10  and  C_42
    7  A    between atoms: C_11  and  C_27
    8  A    between atoms: C_12  and  C_24
    9  A    between atoms: C_24  and  C_40
   10  A    between atoms: C_27  and  O_41
   11  A    between atoms: N_28  and  C_38
   12  A    between atoms: C_30  and  C_35
   13  A    between atoms: C_35  and  C_36
                            x       y       z     vdW  Elec       q    Type
                         _______ _______ _______ _____ _____    ______ ____

>  <TORSDO>
F 13

$$$$
=
 OpenBabel11042421593D

 46 50  0  0  1  0  0  0  0  0999 V2000
  162.7190  207.2450  148.3820 O   0  0  0  0  0  1  0  0  0  0  0  0
  160.8060  206.3360  151.3620 C   0  0  0  0  0  3  0  0  0  0  0  0
  161.1750  206.4530  150.0880 C   0  0  0  0  0  3  0  0  0  0  0  0
  161.9550  207.5600  149.5020 C   0  0  0  0  0  0  0  0  0  0  0  0
  161.1950  207.3120  152.4220 C   0  0  1  0  0  3  0  0  0  0  0  0
  161.9280  208.8430  149.9340 C   0  0  0  0  0  0  0  0  0  0  0  0
  160.7050  208.6870  152.1100 C   0  0  0  0  0  3  0  0  0  0  0  0
  161.0670  209.3540  151.0200 C   0  0  0  0  0  3  0  0  0  0  0  0
  162.7050  209.8820  149.1910 C   0  0  0  0  0  2  0  0  0  0  0  0
  161.7960  210.6320  148.2240 C   0  0  0  0  0  2  0  0  0  0  0  0
  161.8810  212.1350  148.4460 C   0  0  0  0  0  2  0  0  0  0  0  0
  161.8030  212.8730  147.1160 C   0  0  0  0  0  2  0  0  0  0  0  0
  160.0600  213.6070  145.4420 C   0  0  0  0  0  0  0  0  0  0  0  0
  158.0350  213.2100  147.3400 C   0  0  0  0  0  0  0  0  0  0  0  0
  160.3850  213.1700  146.7430 C   0  0  0  0  0  0  0  0  0  0  0  0
  158.7190  213.8460  145.1090 C   0  0  0  0  0  3  0  0  0  0  0  0
  157.7110  213.6510  146.0550 C   0  0  0  0  0  3  0  0  0  0  0  0
  157.0340  213.0150  148.2800 O   0  0  0  0  0  1  0  0  0  0  0  0
  159.3670  212.9650  147.6800 C   0  0  0  0  0  3  0  0  0  0  0  0
  161.1400  213.8080  144.4080 C   0  0  2  0  0  3  0  0  0  0  0  0
  160.4730  211.8470  142.8970 C   0  0  0  0  0  2  0  0  0  0  0  0
  160.7250  213.3310  143.0450 C   0  0  0  0  0  0  0  0  0  0  0  0
  160.5270  214.2330  142.0560 C   0  0  0  0  0  3  0  0  0  0  0  0
  159.1650  212.8070  140.4880 C   0  0  0  0  0  2  0  0  0  0  0  0
  159.8440  211.4370  140.4970 C   0  0  0  0  0  2  0  0  0  0  0  0
  160.9370  211.2970  141.5600 C   0  0  0  0  0  2  0  0  0  0  0  0
  160.1850  213.9290  140.6150 C   0  0  0  0  0  2  0  0  0  0  0  0
  162.3500  213.2250  144.8040 O   0  0  0  0  0  0  0  0  0  0  0  0
  163.3150  213.8040  143.9820 C   0  0  0  0  0  1  0  0  0  0  0  0
  160.7180  206.8560  153.8010 C   0  0  0  0  0  2  0  0  0  0  0  0
  161.7430  207.0960  154.8750 C   0  0  0  0  0  3  0  0  0  0  0  0
  161.6380  208.0820  155.7720 C   0  0  0  0  0  3  0  0  0  0  0  0
  160.4840  209.0490  155.7990 C   0  0  1  0  0  3  0  0  0  0  0  0
  160.6880  210.2850  156.5790 C   0  0  2  0  0  3  0  0  0  0  0  0
  160.8750  210.2950  155.1190 N   0  0  2  0  0  0  0  0  0  0  0  0
  162.0440  210.4330  157.2590 C   0  0  0  0  0  1  0  0  0  0  0  0
  158.3780  211.0370  155.8060 S   0  0  0  0  0  0  0  0  0  0  0  0
  157.1220  211.6160  154.6020 C   0  0  2  0  0  3  0  0  0  0  0  0
  158.5990  211.8870  152.0000 O   0  0  0  0  0  1  0  0  0  0  0  0
  159.9810  212.2240  153.9340 C   0  0  0  0  0  2  0  0  0  0  0  0
  156.5150  213.3830  153.0800 O   0  0  0  0  0  1  0  0  0  0  0  0
  157.5420  212.9230  153.9080 C   0  0  2  0  0  3  0  0  0  0  0  0
  158.8220  212.7390  153.0850 C   0  0  2  0  0  3  0  0  0  0  0  0
  159.6680  210.8550  154.5280 C   0  0  1  0  0  3  0  0  0  0  0  0
  155.8220  211.6590  155.1510 O   0  0  0  0  0  0  0  0  0  0  0  0
  155.2170  210.4020  154.9910 C   0  0  0  0  0  1  0  0  0  0  0  0
  1  4  1  0  0  0  0
  2  5  1  0  0  0  0
  3  2  2  0  0  0  0
  4  6  2  0  0  0  0
  4  3  1  0  0  0  0
  5 30  1  1  0  0  0
  6  8  1  0  0  0  0
  7  5  1  0  0  0  0
  8  7  2  0  0  0  0
  9  6  1  0  0  0  0
 10 11  1  0  0  0  0
 10  9  1  0  0  0  0
 12 11  1  0  0  0  0
 13 15  1  0  0  0  0
 14 19  1  0  0  0  0
 14 18  1  0  0  0  0
 15 12  1  0  0  0  0
 15 19  2  0  0  0  0
 16 13  2  0  0  0  0
 16 17  1  0  0  0  0
 17 14  2  0  0  0  0
 20 28  1  1  0  0  0
 20 13  1  0  0  0  0
 21 22  1  0  0  0  0
 22 20  1  0  0  0  0
 23 22  2  0  0  0  0
 24 25  1  0  0  0  0
 24 27  1  0  0  0  0
 25 26  1  0  0  0  0
 26 21  1  0  0  0  0
 27 23  1  0  0  0  0
 29 28  1  0  0  0  0
 30 31  1  0  0  0  0
 31 32  2  0  0  0  0
 33 32  1  1  0  0  0
 33 34  1  0  0  0  0
 34 36  1  1  0  0  0
 35 44  1  6  0  0  0
 35 33  1  0  0  0  0
 35 34  1  0  0  0  0
 38 45  1  1  0  0  0
 38 37  1  0  0  0  0
 42 41  1  6  0  0  0
 42 38  1  0  0  0  0
 43 39  1  6  0  0  0
 43 42  1  0  0  0  0
 43 40  1  0  0  0  0
 44 40  1  1  0  0  0
 44 37  1  0  0  0  0
 46 45  1  0  0  0  0
M  END
>  <MODEL>
4

>  <REMARK>
 VINA RESULT:      -6.1      3.367      8.422
  Name = 
  13 active torsions:
  status: ('A' for Active; 'I' for Inactive)
    1  A    between atoms: C_2  and  C_7
    2  A    between atoms: C_2  and  C_18
    3  A    between atoms: C_3  and  O_20
    4  A    between atoms: C_6  and  C_27
    5  A    between atoms: C_7  and  C_12
    6  A    between atoms: C_10  and  C_42
    7  A    between atoms: C_11  and  C_27
    8  A    between atoms: C_12  and  C_24
    9  A    between atoms: C_24  and  C_40
   10  A    between atoms: C_27  and  O_41
   11  A    between atoms: N_28  and  C_38
   12  A    between atoms: C_30  and  C_35
   13  A    between atoms: C_35  and  C_36
                            x       y       z     vdW  Elec       q    Type
                         _______ _______ _______ _____ _____    ______ ____

>  <TORSDO>
F 13

$$$$
=
 OpenBabel11042421593D

 46 50  0  0  1  0  0  0  0  0999 V2000
  162.1300  210.4680  149.5110 O   0  0  0  0  0  1  0  0  0  0  0  0
  161.8430  209.3310  152.9740 C   0  0  0  0  0  3  0  0  0  0  0  0
  162.3490  209.8390  151.8520 C   0  0  0  0  0  3  0  0  0  0  0  0
  161.9570  209.4800  150.4750 C   0  0  0  0  0  0  0  0  0  0  0  0
  160.7290  208.3370  152.9960 C   0  0  1  0  0  3  0  0  0  0  0  0
  161.5100  208.2620  150.0880 C   0  0  0  0  0  0  0  0  0  0  0  0
  161.0900  207.0910  152.2580 C   0  0  0  0  0  3  0  0  0  0  0  0
  161.4010  207.0800  150.9670 C   0  0  0  0  0  3  0  0  0  0  0  0
  161.2290  208.0110  148.6410 C   0  0  0  0  0  2  0  0  0  0  0  0
  162.0390  206.8190  148.1440 C   0  0  0  0  0  2  0  0  0  0  0  0
  161.1480  205.6040  147.9260 C   0  0  0  0  0  2  0  0  0  0  0  0
  161.9660  204.3230  148.0180 C   0  0  0  0  0  2  0  0  0  0  0  0
  161.2890  202.0490  148.8870 C   0  0  0  0  0  0  0  0  0  0  0  0
  160.7460  203.1490  151.4090 C   0  0  0  0  0  0  0  0  0  0  0  0
  161.4570  203.4330  149.1080 C   0  0  0  0  0  0  0  0  0  0  0  0
  160.8430  201.2320  149.9360 C   0  0  0  0  0  3  0  0  0  0  0  0
  160.5700  201.7800  151.1900 C   0  0  0  0  0  3  0  0  0  0  0  0
  160.4770  203.6920  152.6560 O   0  0  0  0  0  1  0  0  0  0  0  0
  161.1940  203.9700  150.3720 C   0  0  0  0  0  3  0  0  0  0  0  0
  161.5930  201.4450  147.5390 C   0  0  2  0  0  3  0  0  0  0  0  0
  159.5820  202.1310  146.1030 C   0  0  0  0  0  2  0  0  0  0  0  0
  161.0570  202.2740  146.4050 C   0  0  0  0  0  0  0  0  0  0  0  0
  161.8760  203.1440  145.7710 C   0  0  0  0  0  3  0  0  0  0  0  0
  160.1370  204.5950  144.6690 C   0  0  0  0  0  2  0  0  0  0  0  0
  159.0770  203.6260  144.1460 C   0  0  0  0  0  2  0  0  0  0  0  0
  159.2730  202.1820  144.6180 C   0  0  0  0  0  2  0  0  0  0  0  0
  161.5310  203.9950  144.5700 C   0  0  0  0  0  2  0  0  0  0  0  0
  161.1490  200.1210  147.4540 O   0  0  0  0  0  0  0  0  0  0  0  0
  161.5870  199.6730  146.2090 C   0  0  0  0  0  1  0  0  0  0  0  0
  160.2920  208.0240  154.4270 C   0  0  0  0  0  2  0  0  0  0  0  0
  161.4490  207.9790  155.3870 C   0  0  0  0  0  3  0  0  0  0  0  0
  161.6370  208.8970  156.3410 C   0  0  0  0  0  3  0  0  0  0  0  0
  160.7100  210.0640  156.5520 C   0  0  1  0  0  3  0  0  0  0  0  0
  161.3330  211.3120  157.0350 C   0  0  2  0  0  3  0  0  0  0  0  0
  161.0490  211.1360  155.6010 N   0  0  2  0  0  0  0  0  0  0  0  0
  162.8400  211.2670  157.2570 C   0  0  0  0  0  1  0  0  0  0  0  0
  159.7500  212.2730  153.5330 S   0  0  0  0  0  0  0  0  0  0  0  0
  158.1820  213.2060  153.7070 C   0  0  2  0  0  3  0  0  0  0  0  0
  157.3360  212.7890  156.5590 O   0  0  0  0  0  1  0  0  0  0  0  0
  158.6220  210.9730  155.6590 C   0  0  0  0  0  2  0  0  0  0  0  0
  155.8350  213.0410  154.2290 O   0  0  0  0  0  1  0  0  0  0  0  0
  157.0300  212.3190  154.2110 C   0  0  2  0  0  3  0  0  0  0  0  0
  157.3170  211.7640  155.6100 C   0  0  2  0  0  3  0  0  0  0  0  0
  159.8170  211.8530  155.3080 C   0  0  1  0  0  3  0  0  0  0  0  0
  157.8600  213.9490  152.5500 O   0  0  0  0  0  0  0  0  0  0  0  0
  158.3760  213.2880  151.4250 C   0  0  0  0  0  1  0  0  0  0  0  0
  1  4  1  0  0  0  0
  2  5  1  0  0  0  0
  3  2  2  0  0  0  0
  4  3  1  0  0  0  0
  5 30  1  1  0  0  0
  6  4  2  0  0  0  0
  6  8  1  0  0  0  0
  7  5  1  0  0  0  0
  8  7  2  0  0  0  0
  9  6  1  0  0  0  0
 10  9  1  0  0  0  0
 11 12  1  0  0  0  0
 11 10  1  0  0  0  0
 12 15  1  0  0  0  0
 13 15  2  0  0  0  0
 13 16  1  0  0  0  0
 14 18  1  0  0  0  0
 15 19  1  0  0  0  0
 16 17  2  0  0  0  0
 17 14  1  0  0  0  0
 19 14  2  0  0  0  0
 20 28  1  1  0  0  0
 20 13  1  0  0  0  0
 21 22  1  0  0  0  0
 22 20  1  0  0  0  0
 23 22  2  0  0  0  0
 25 26  1  0  0  0  0
 25 24  1  0  0  0  0
 26 21  1  0  0  0  0
 27 24  1  0  0  0  0
 27 23  1  0  0  0  0
 29 28  1  0  0  0  0
 30 31  1  0  0  0  0
 31 32  2  0  0  0  0
 33 32  1  6  0  0  0
 33 34  1  0  0  0  0
 34 36  1  6  0  0  0
 35 44  1  1  0  0  0
 35 33  1  0  0  0  0
 35 34  1  0  0  0  0
 37 38  1  0  0  0  0
 37 44  1  0  0  0  0
 38 45  1  6  0  0  0
 38 42  1  0  0  0  0
 42 41  1  1  0  0  0
 42 43  1  0  0  0  0
 43 40  1  0  0  0  0
 43 39  1  1  0  0  0
 44 40  1  6  0  0  0
 46 45  1  0  0  0  0
M  END
>  <MODEL>
5

>  <REMARK>
 VINA RESULT:      -6.0      3.065      6.044
  Name = 
  13 active torsions:
  status: ('A' for Active; 'I' for Inactive)
    1  A    between atoms: C_2  and  C_7
    2  A    between atoms: C_2  and  C_18
    3  A    between atoms: C_3  and  O_20
    4  A    between atoms: C_6  and  C_27
    5  A    between atoms: C_7  and  C_12
    6  A    between atoms: C_10  and  C_42
    7  A    between atoms: C_11  and  C_27
    8  A    between atoms: C_12  and  C_24
    9  A    between atoms: C_24  and  C_40
   10  A    between atoms: C_27  and  O_41
   11  A    between atoms: N_28  and  C_38
   12  A    between atoms: C_30  and  C_35
   13  A    between atoms: C_35  and  C_36
                            x       y       z     vdW  Elec       q    Type
                         _______ _______ _______ _____ _____    ______ ____

>  <TORSDO>
F 13

$$$$
=
 OpenBabel11042421593D

 46 50  0  0  1  0  0  0  0  0999 V2000
  162.0540  211.0840  149.2860 O   0  0  0  0  0  1  0  0  0  0  0  0
  161.2200  209.9990  152.6760 C   0  0  0  0  0  3  0  0  0  0  0  0
  161.7540  210.6850  151.6680 C   0  0  0  0  0  3  0  0  0  0  0  0
  162.0760  210.1600  150.3260 C   0  0  0  0  0  0  0  0  0  0  0  0
  160.8020  208.5700  152.5670 C   0  0  1  0  0  3  0  0  0  0  0  0
  162.4420  208.8840  150.0590 C   0  0  0  0  0  0  0  0  0  0  0  0
  161.9500  207.6890  152.2010 C   0  0  0  0  0  3  0  0  0  0  0  0
  162.6390  207.8290  151.0740 C   0  0  0  0  0  3  0  0  0  0  0  0
  162.8230  208.5090  148.6640 C   0  0  0  0  0  2  0  0  0  0  0  0
  162.0660  207.2600  148.2260 C   0  0  0  0  0  2  0  0  0  0  0  0
  160.6090  207.3220  148.6620 C   0  0  0  0  0  2  0  0  0  0  0  0
  159.9240  205.9840  148.4170 C   0  0  0  0  0  2  0  0  0  0  0  0
  161.1480  203.7970  148.7350 C   0  0  0  0  0  0  0  0  0  0  0  0
  160.9700  204.0770  151.5200 C   0  0  0  0  0  0  0  0  0  0  0  0
  160.4930  204.9150  149.2950 C   0  0  0  0  0  0  0  0  0  0  0  0
  161.7020  202.8260  149.5830 C   0  0  0  0  0  3  0  0  0  0  0  0
  161.6100  202.9640  150.9690 C   0  0  0  0  0  3  0  0  0  0  0  0
  160.8810  204.2140  152.8970 O   0  0  0  0  0  1  0  0  0  0  0  0
  160.4190  205.0510  150.6850 C   0  0  0  0  0  3  0  0  0  0  0  0
  161.2630  203.6450  147.2390 C   0  0  2  0  0  3  0  0  0  0  0  0
  160.7190  202.0120  145.3390 C   0  0  0  0  0  2  0  0  0  0  0  0
  161.0820  202.2220  146.7920 C   0  0  0  0  0  0  0  0  0  0  0  0
  161.3200  201.2160  147.6640 C   0  0  0  0  0  3  0  0  0  0  0  0
  161.5740  199.3210  146.0230 C   0  0  0  0  0  2  0  0  0  0  0  0
  160.4690  199.5340  144.9880 C   0  0  0  0  0  2  0  0  0  0  0  0
  159.7380  200.8720  145.1320 C   0  0  0  0  0  2  0  0  0  0  0  0
  161.1170  199.7380  147.4120 C   0  0  0  0  0  2  0  0  0  0  0  0
  162.4630  204.1810  146.7560 O   0  0  0  0  0  0  0  0  0  0  0  0
  162.0850  205.2840  145.9950 C   0  0  0  0  0  1  0  0  0  0  0  0
  160.1250  208.0890  153.8490 C   0  0  0  0  0  2  0  0  0  0  0  0
  161.1030  207.8670  154.9710 C   0  0  0  0  0  3  0  0  0  0  0  0
  161.1740  208.6670  156.0400 C   0  0  0  0  0  3  0  0  0  0  0  0
  160.2840  209.8660  156.2310 C   0  0  1  0  0  3  0  0  0  0  0  0
  160.9030  211.0420  156.8720 C   0  0  2  0  0  3  0  0  0  0  0  0
  160.7800  210.9800  155.4060 N   0  0  2  0  0  0  0  0  0  0  0  0
  162.3700  210.9000  157.2590 C   0  0  0  0  0  1  0  0  0  0  0  0
  158.0890  210.8720  155.4140 S   0  0  0  0  0  0  0  0  0  0  0  0
  157.0170  212.1680  154.6830 C   0  0  2  0  0  3  0  0  0  0  0  0
  158.8850  214.4020  153.9450 O   0  0  0  0  0  1  0  0  0  0  0  0
  159.6390  213.0910  155.8090 C   0  0  0  0  0  2  0  0  0  0  0  0
  156.2640  214.4480  154.8810 O   0  0  0  0  0  1  0  0  0  0  0  0
  157.1710  213.5210  155.4000 C   0  0  2  0  0  3  0  0  0  0  0  0
  158.5970  214.0680  155.2700 C   0  0  2  0  0  3  0  0  0  0  0  0
  159.6250  211.7810  155.0300 C   0  0  1  0  0  3  0  0  0  0  0  0
  155.6760  211.7500  154.5450 O   0  0  0  0  0  0  0  0  0  0  0  0
  155.3890  210.7980  155.5360 C   0  0  0  0  0  1  0  0  0  0  0  0
  1  4  1  0  0  0  0
  3  2  2  0  0  0  0
  4  3  1  0  0  0  0
  5  2  1  0  0  0  0
  5 30  1  1  0  0  0
  6  4  2  0  0  0  0
  6  8  1  0  0  0  0
  7  5  1  0  0  0  0
  8  7  2  0  0  0  0
  9  6  1  0  0  0  0
 10 11  1  0  0  0  0
 10  9  1  0  0  0  0
 12 11  1  0  0  0  0
 12 15  1  0  0  0  0
 13 15  2  0  0  0  0
 13 16  1  0  0  0  0
 14 18  1  0  0  0  0
 15 19  1  0  0  0  0
 16 17  2  0  0  0  0
 17 14  1  0  0  0  0
 19 14  2  0  0  0  0
 20 28  1  1  0  0  0
 20 13  1  0  0  0  0
 21 22  1  0  0  0  0
 22 20  1  0  0  0  0
 22 23  2  0  0  0  0
 24 27  1  0  0  0  0
 25 26  1  0  0  0  0
 25 24  1  0  0  0  0
 26 21  1  0  0  0  0
 27 23  1  0  0  0  0
 29 28  1  0  0  0  0
 30 31  1  0  0  0  0
 31 32  2  0  0  0  0
 33 32  1  6  0  0  0
 33 34  1  0  0  0  0
 34 36  1  6  0  0  0
 35 44  1  1  0  0  0
 35 33  1  0  0  0  0
 35 34  1  0  0  0  0
 38 45  1  1  0  0  0
 38 42  1  0  0  0  0
 38 37  1  0  0  0  0
 42 41  1  6  0  0  0
 43 39  1  6  0  0  0
 43 42  1  0  0  0  0
 43 40  1  0  0  0  0
 44 37  1  0  0  0  0
 44 40  1  1  0  0  0
 45 46  1  0  0  0  0
M  END
>  <MODEL>
6

>  <REMARK>
 VINA RESULT:      -5.9      3.574      6.292
  Name = 
  13 active torsions:
  status: ('A' for Active; 'I' for Inactive)
    1  A    between atoms: C_2  and  C_7
    2  A    between atoms: C_2  and  C_18
    3  A    between atoms: C_3  and  O_20
    4  A    between atoms: C_6  and  C_27
    5  A    between atoms: C_7  and  C_12
    6  A    between atoms: C_10  and  C_42
    7  A    between atoms: C_11  and  C_27
    8  A    between atoms: C_12  and  C_24
    9  A    between atoms: C_24  and  C_40
   10  A    between atoms: C_27  and  O_41
   11  A    between atoms: N_28  and  C_38
   12  A    between atoms: C_30  and  C_35
   13  A    between atoms: C_35  and  C_36
                            x       y       z     vdW  Elec       q    Type
                         _______ _______ _______ _____ _____    ______ ____

>  <TORSDO>
F 13

$$$$
=
 OpenBabel11042421593D

 46 50  0  0  1  0  0  0  0  0999 V2000
  161.5670  205.6250  154.0430 O   0  0  0  0  0  1  0  0  0  0  0  0
  162.2800  206.9350  150.7060 C   0  0  0  0  0  3  0  0  0  0  0  0
  162.4430  206.3600  151.8950 C   0  0  0  0  0  3  0  0  0  0  0  0
  161.6840  206.6630  153.1240 C   0  0  0  0  0  0  0  0  0  0  0  0
  161.2290  207.9590  150.4250 C   0  0  1  0  0  3  0  0  0  0  0  0
  161.1610  207.8720  153.4360 C   0  0  0  0  0  0  0  0  0  0  0  0
  161.3830  209.1570  151.3010 C   0  0  0  0  0  3  0  0  0  0  0  0
  161.3180  209.0980  152.6260 C   0  0  0  0  0  3  0  0  0  0  0  0
  160.4870  208.0600  154.7560 C   0  0  0  0  0  2  0  0  0  0  0  0
  160.3950  209.5430  155.0970 C   0  0  0  0  0  2  0  0  0  0  0  0
  159.0080  209.9030  155.6090 C   0  0  0  0  0  2  0  0  0  0  0  0
  158.3650  210.9490  154.7080 C   0  0  0  0  0  2  0  0  0  0  0  0
  157.2530  213.0910  155.4540 C   0  0  0  0  0  0  0  0  0  0  0  0
  155.1890  211.6260  156.6620 C   0  0  0  0  0  0  0  0  0  0  0  0
  157.2720  211.6800  155.4210 C   0  0  0  0  0  0  0  0  0  0  0  0
  156.1990  213.7520  156.1010 C   0  0  0  0  0  3  0  0  0  0  0  0
  155.1730  213.0230  156.7050 C   0  0  0  0  0  3  0  0  0  0  0  0
  154.1690  210.9020  157.2610 O   0  0  0  0  0  1  0  0  0  0  0  0
  156.2320  210.9590  156.0170 C   0  0  0  0  0  3  0  0  0  0  0  0
  158.3500  213.8880  154.7940 C   0  0  2  0  0  3  0  0  0  0  0  0
  159.4060  213.1500  152.5770 C   0  0  0  0  0  2  0  0  0  0  0  0
  158.2690  213.8430  153.2940 C   0  0  0  0  0  0  0  0  0  0  0  0
  157.1760  214.3410  152.6720 C   0  0  0  0  0  3  0  0  0  0  0  0
  157.4460  213.2130  150.4350 C   0  0  0  0  0  2  0  0  0  0  0  0
  158.9360  213.3110  150.1120 C   0  0  0  0  0  2  0  0  0  0  0  0
  159.7880  213.8300  151.2750 C   0  0  0  0  0  2  0  0  0  0  0  0
  156.9600  214.4480  151.1790 C   0  0  0  0  0  2  0  0  0  0  0  0
  159.6160  213.4980  155.2460 O   0  0  0  0  0  0  0  0  0  0  0  0
  159.7350  214.0610  156.5150 C   0  0  0  0  0  1  0  0  0  0  0  0
  161.2160  208.3520  148.9490 C   0  0  0  0  0  2  0  0  0  0  0  0
  162.5070  208.0180  148.2510 C   0  0  0  0  0  3  0  0  0  0  0  0
  162.7690  206.8050  147.7530 C   0  0  0  0  0  3  0  0  0  0  0  0
  161.8020  205.6540  147.8380 C   0  0  1  0  0  3  0  0  0  0  0  0
  161.3420  205.0930  146.5520 C   0  0  2  0  0  3  0  0  0  0  0  0
  162.4350  204.4420  147.2930 N   0  0  2  0  0  0  0  0  0  0  0  0
  161.9070  205.7450  145.2960 C   0  0  0  0  0  1  0  0  0  0  0  0
  161.3020  203.8310  149.6600 S   0  0  0  0  0  0  0  0  0  0  0  0
  160.8240  202.1300  150.1490 C   0  0  2  0  0  3  0  0  0  0  0  0
  161.2150  200.4660  147.6780 O   0  0  0  0  0  1  0  0  0  0  0  0
  160.6760  202.7610  147.2210 C   0  0  0  0  0  2  0  0  0  0  0  0
  159.3190  200.3000  149.7090 O   0  0  0  0  0  1  0  0  0  0  0  0
  159.7260  201.5510  149.2400 C   0  0  2  0  0  3  0  0  0  0  0  0
  160.2040  201.4250  147.7890 C   0  0  2  0  0  3  0  0  0  0  0  0
  161.8650  203.3070  148.0040 C   0  0  1  0  0  3  0  0  0  0  0  0
  160.5340  202.0210  151.5260 O   0  0  0  0  0  0  0  0  0  0  0  0
  160.4330  203.3100  152.0750 C   0  0  0  0  0  1  0  0  0  0  0  0
  2  3  2  0  0  0  0
  3  4  1  0  0  0  0
  4  6  2  0  0  0  0
  4  1  1  0  0  0  0
  5 30  1  6  0  0  0
  5  2  1  0  0  0  0
  5  7  1  0  0  0  0
  6  9  1  0  0  0  0
  7  8  2  0  0  0  0
  8  6  1  0  0  0  0
  9 10  1  0  0  0  0
 10 11  1  0  0  0  0
 12 15  1  0  0  0  0
 12 11  1  0  0  0  0
 13 16  1  0  0  0  0
 14 17  1  0  0  0  0
 14 18  1  0  0  0  0
 15 13  2  0  0  0  0
 15 19  1  0  0  0  0
 16 17  2  0  0  0  0
 19 14  2  0  0  0  0
 20 28  1  6  0  0  0
 20 13  1  0  0  0  0
 21 22  1  0  0  0  0
 22 20  1  0  0  0  0
 23 22  2  0  0  0  0
 24 27  1  0  0  0  0
 25 24  1  0  0  0  0
 25 26  1  0  0  0  0
 26 21  1  0  0  0  0
 27 23  1  0  0  0  0
 28 29  1  0  0  0  0
 31 30  1  0  0  0  0
 32 31  2  0  0  0  0
 33 32  1  6  0  0  0
 34 36  1  6  0  0  0
 34 35  1  0  0  0  0
 34 33  1  0  0  0  0
 35 33  1  0  0  0  0
 35 44  1  1  0  0  0
 37 38  1  0  0  0  0
 38 45  1  1  0  0  0
 40 43  1  0  0  0  0
 42 41  1  1  0  0  0
 42 38  1  0  0  0  0
 43 39  1  1  0  0  0
 43 42  1  0  0  0  0
 44 40  1  6  0  0  0
 44 37  1  0  0  0  0
 45 46  1  0  0  0  0
M  END
>  <MODEL>
7

>  <REMARK>
 VINA RESULT:      -5.6      3.894      9.822
  Name = 
  13 active torsions:
  status: ('A' for Active; 'I' for Inactive)
    1  A    between atoms: C_2  and  C_7
    2  A    between atoms: C_2  and  C_18
    3  A    between atoms: C_3  and  O_20
    4  A    between atoms: C_6  and  C_27
    5  A    between atoms: C_7  and  C_12
    6  A    between atoms: C_10  and  C_42
    7  A    between atoms: C_11  and  C_27
    8  A    between atoms: C_12  and  C_24
    9  A    between atoms: C_24  and  C_40
   10  A    between atoms: C_27  and  O_41
   11  A    between atoms: N_28  and  C_38
   12  A    between atoms: C_30  and  C_35
   13  A    between atoms: C_35  and  C_36
                            x       y       z     vdW  Elec       q    Type
                         _______ _______ _______ _____ _____    ______ ____

>  <TORSDO>
F 13

$$$$
=
 OpenBabel11042421593D

 46 50  0  0  1  0  0  0  0  0999 V2000
  160.5550  202.6920  148.7000 O   0  0  0  0  0  1  0  0  0  0  0  0
  161.7640  204.3050  145.6510 C   0  0  0  0  0  3  0  0  0  0  0  0
  161.6700  203.4680  146.6810 C   0  0  0  0  0  3  0  0  0  0  0  0
  161.0910  203.7710  148.0050 C   0  0  0  0  0  0  0  0  0  0  0  0
  161.2230  205.6970  145.6720 C   0  0  1  0  0  3  0  0  0  0  0  0
  161.1030  204.9880  148.5970 C   0  0  0  0  0  0  0  0  0  0  0  0
  161.8450  206.5110  146.7570 C   0  0  0  0  0  3  0  0  0  0  0  0
  161.7520  206.1940  148.0440 C   0  0  0  0  0  3  0  0  0  0  0  0
  160.5540  205.1350  149.9800 C   0  0  0  0  0  2  0  0  0  0  0  0
  161.5780  204.6680  151.0080 C   0  0  0  0  0  2  0  0  0  0  0  0
  162.1100  205.8390  151.8220 C   0  0  0  0  0  2  0  0  0  0  0  0
  160.9720  206.7670  152.2240 C   0  0  0  0  0  2  0  0  0  0  0  0
  161.0400  209.2620  152.6100 C   0  0  0  0  0  0  0  0  0  0  0  0
  161.9240  209.6680  149.9800 C   0  0  0  0  0  0  0  0  0  0  0  0
  161.2140  208.1620  151.7430 C   0  0  0  0  0  0  0  0  0  0  0  0
  161.3060  210.5570  152.1430 C   0  0  0  0  0  3  0  0  0  0  0  0
  161.7440  210.7590  150.8330 C   0  0  0  0  0  3  0  0  0  0  0  0
  162.3600  209.8690  148.6790 O   0  0  0  0  0  1  0  0  0  0  0  0
  161.6660  208.3740  150.4370 C   0  0  0  0  0  3  0  0  0  0  0  0
  160.5800  209.0540  154.0310 C   0  0  2  0  0  3  0  0  0  0  0  0
  161.1960  211.1200  155.4180 C   0  0  0  0  0  2  0  0  0  0  0  0
  160.1350  210.3320  154.6830 C   0  0  0  0  0  0  0  0  0  0  0  0
  158.8590  210.7510  154.5240 C   0  0  0  0  0  3  0  0  0  0  0  0
  159.1500  213.1670  155.1740 C   0  0  0  0  0  2  0  0  0  0  0  0
  160.0720  213.1490  156.3920 C   0  0  0  0  0  2  0  0  0  0  0  0
  160.6770  211.7720  156.6880 C   0  0  0  0  0  2  0  0  0  0  0  0
  158.2210  211.9630  155.1650 C   0  0  0  0  0  2  0  0  0  0  0  0
  161.5540  208.4050  154.8000 O   0  0  0  0  0  0  0  0  0  0  0  0
  160.8390  207.5640  155.6510 C   0  0  0  0  0  1  0  0  0  0  0  0
  161.3820  206.3760  144.3120 C   0  0  0  0  0  2  0  0  0  0  0  0
  161.2980  205.4030  143.1680 C   0  0  0  0  0  3  0  0  0  0  0  0
  161.5290  205.7540  141.8980 C   0  0  0  0  0  3  0  0  0  0  0  0
  161.8990  207.1540  141.4870 C   0  0  1  0  0  3  0  0  0  0  0  0
  162.8180  207.2750  140.3380 C   0  0  2  0  0  3  0  0  0  0  0  0
  161.3670  207.4250  140.1410 N   0  0  2  0  0  0  0  0  0  0  0  0
  163.2780  205.9670  139.7080 C   0  0  0  0  0  1  0  0  0  0  0  0
  162.6400  209.7970  140.0480 S   0  0  0  0  0  0  0  0  0  0  0  0
  161.7780  211.4150  140.0880 C   0  0  2  0  0  3  0  0  0  0  0  0
  158.8560  210.7510  139.8730 O   0  0  0  0  0  1  0  0  0  0  0  0
  160.2910  209.1500  138.8040 C   0  0  0  0  0  2  0  0  0  0  0  0
  160.3170  212.9030  138.8810 O   0  0  0  0  0  1  0  0  0  0  0  0
  160.8700  211.6200  138.8630 C   0  0  2  0  0  3  0  0  0  0  0  0
  159.7490  210.5770  138.8120 C   0  0  2  0  0  3  0  0  0  0  0  0
  161.0800  208.8500  140.0740 C   0  0  1  0  0  3  0  0  0  0  0  0
  162.6570  212.4930  140.3280 O   0  0  0  0  0  0  0  0  0  0  0  0
  163.6180  212.5370  139.3050 C   0  0  0  0  0  1  0  0  0  0  0  0
  2  5  1  0  0  0  0
  2  3  2  0  0  0  0
  3  4  1  0  0  0  0
  4  6  2  0  0  0  0
  4  1  1  0  0  0  0
  5 30  1  6  0  0  0
  5  7  1  0  0  0  0
  6  9  1  0  0  0  0
  7  8  2  0  0  0  0
  8  6  1  0  0  0  0
  9 10  1  0  0  0  0
 10 11  1  0  0  0  0
 11 12  1  0  0  0  0
 13 20  1  0  0  0  0
 14 19  2  0  0  0  0
 14 17  1  0  0  0  0
 15 12  1  0  0  0  0
 15 13  2  0  0  0  0
 16 13  1  0  0  0  0
 17 16  2  0  0  0  0
 18 14  1  0  0  0  0
 19 15  1  0  0  0  0
 20 22  1  0  0  0  0
 20 28  1  1  0  0  0
 21 26  1  0  0  0  0
 22 21  1  0  0  0  0
 23 22  2  0  0  0  0
 23 27  1  0  0  0  0
 24 25  1  0  0  0  0
 25 26  1  0  0  0  0
 27 24  1  0  0  0  0
 28 29  1  0  0  0  0
 31 30  1  0  0  0  0
 32 31  2  0  0  0  0
 33 32  1  6  0  0  0
 34 36  1  6  0  0  0
 34 33  1  0  0  0  0
 35 44  1  1  0  0  0
 35 34  1  0  0  0  0
 35 33  1  0  0  0  0
 37 44  1  0  0  0  0
 37 38  1  0  0  0  0
 38 45  1  6  0  0  0
 40 43  1  0  0  0  0
 42 41  1  1  0  0  0
 42 38  1  0  0  0  0
 43 42  1  0  0  0  0
 43 39  1  1  0  0  0
 44 40  1  6  0  0  0
 46 45  1  0  0  0  0
M  END
>  <MODEL>
8

>  <REMARK>
 VINA RESULT:      -5.5      4.044      9.370
  Name = 
  13 active torsions:
  status: ('A' for Active; 'I' for Inactive)
    1  A    between atoms: C_2  and  C_7
    2  A    between atoms: C_2  and  C_18
    3  A    between atoms: C_3  and  O_20
    4  A    between atoms: C_6  and  C_27
    5  A    between atoms: C_7  and  C_12
    6  A    between atoms: C_10  and  C_42
    7  A    between atoms: C_11  and  C_27
    8  A    between atoms: C_12  and  C_24
    9  A    between atoms: C_24  and  C_40
   10  A    between atoms: C_27  and  O_41
   11  A    between atoms: N_28  and  C_38
   12  A    between atoms: C_30  and  C_35
   13  A    between atoms: C_35  and  C_36
                            x       y       z     vdW  Elec       q    Type
                         _______ _______ _______ _____ _____    ______ ____

>  <TORSDO>
F 13

$$$$
=
 OpenBabel11042421593D

 46 50  0  0  1  0  0  0  0  0999 V2000
  161.5190  209.2760  154.1850 O   0  0  0  0  0  1  0  0  0  0  0  0
  160.9170  211.3700  151.2500 C   0  0  0  0  0  3  0  0  0  0  0  0
  160.7270  210.7300  152.4010 C   0  0  0  0  0  3  0  0  0  0  0  0
  161.3690  209.4660  152.8150 C   0  0  0  0  0  0  0  0  0  0  0  0
  161.8840  210.9150  150.2070 C   0  0  1  0  0  3  0  0  0  0  0  0
  161.7540  208.4790  151.9730 C   0  0  0  0  0  0  0  0  0  0  0  0
  161.5590  209.5430  149.7180 C   0  0  0  0  0  3  0  0  0  0  0  0
  161.5370  208.4780  150.5120 C   0  0  0  0  0  3  0  0  0  0  0  0
  162.3140  207.2130  152.5370 C   0  0  0  0  0  2  0  0  0  0  0  0
  161.2080  206.3860  153.1830 C   0  0  0  0  0  2  0  0  0  0  0  0
  161.0940  205.0170  152.5270 C   0  0  0  0  0  2  0  0  0  0  0  0
  160.4510  205.1390  151.1520 C   0  0  0  0  0  2  0  0  0  0  0  0
  161.0620  204.0250  148.9690 C   0  0  0  0  0  0  0  0  0  0  0  0
  160.8700  201.5010  150.1770 C   0  0  0  0  0  0  0  0  0  0  0  0
  160.6980  203.9150  150.3280 C   0  0  0  0  0  0  0  0  0  0  0  0
  161.3200  202.8620  148.2280 C   0  0  0  0  0  3  0  0  0  0  0  0
  161.2220  201.6060  148.8290 C   0  0  0  0  0  3  0  0  0  0  0  0
  160.7740  200.2530  150.7740 O   0  0  0  0  0  1  0  0  0  0  0  0
  160.6150  202.6530  150.9240 C   0  0  0  0  0  3  0  0  0  0  0  0
  161.1830  205.3780  148.3140 C   0  0  2  0  0  3  0  0  0  0  0  0
  160.4600  205.9070  145.9110 C   0  0  0  0  0  2  0  0  0  0  0  0
  161.4720  205.2780  146.8420 C   0  0  0  0  0  0  0  0  0  0  0  0
  162.6300  204.7140  146.4280 C   0  0  0  0  0  3  0  0  0  0  0  0
  162.6960  205.6230  144.0800 C   0  0  0  0  0  2  0  0  0  0  0  0
  161.2630  205.5070  143.5620 C   0  0  0  0  0  2  0  0  0  0  0  0
  160.2480  205.1080  144.6380 C   0  0  0  0  0  2  0  0  0  0  0  0
  163.0480  204.4620  144.9970 C   0  0  0  0  0  2  0  0  0  0  0  0
  162.1260  206.1840  148.9630 O   0  0  0  0  0  0  0  0  0  0  0  0
  162.6080  207.0400  147.9750 C   0  0  0  0  0  1  0  0  0  0  0  0
  161.9610  211.9090  149.0490 C   0  0  0  0  0  2  0  0  0  0  0  0
  160.9790  213.0400  149.1920 C   0  0  0  0  0  3  0  0  0  0  0  0
  160.1980  213.4540  148.1890 C   0  0  0  0  0  3  0  0  0  0  0  0
  160.2200  212.8310  146.8190 C   0  0  1  0  0  3  0  0  0  0  0  0
  158.9130  212.4180  146.2690 C   0  0  2  0  0  3  0  0  0  0  0  0
  159.5070  213.7060  145.8720 N   0  0  2  0  0  0  0  0  0  0  0  0
  157.7010  212.6770  147.1560 C   0  0  0  0  0  1  0  0  0  0  0  0
  159.0250  214.1580  143.2610 S   0  0  0  0  0  0  0  0  0  0  0  0
  160.1350  213.6030  141.9110 C   0  0  2  0  0  3  0  0  0  0  0  0
  162.5830  212.5460  143.2960 O   0  0  0  0  0  1  0  0  0  0  0  0
  161.4500  214.2730  144.5210 C   0  0  0  0  0  2  0  0  0  0  0  0
  162.2930  213.9020  140.8830 O   0  0  0  0  0  1  0  0  0  0  0  0
  161.5190  214.2720  141.9850 C   0  0  2  0  0  3  0  0  0  0  0  0
  162.2550  213.9040  143.2780 C   0  0  2  0  0  3  0  0  0  0  0  0
  160.1260  213.5180  144.5690 C   0  0  1  0  0  3  0  0  0  0  0  0
  159.5300  213.6910  140.6390 O   0  0  0  0  0  0  0  0  0  0  0  0
  158.1820  214.0480  140.7980 C   0  0  0  0  0  1  0  0  0  0  0  0
  2  3  2  0  0  0  0
  3  4  1  0  0  0  0
  4  1  1  0  0  0  0
  5 30  1  6  0  0  0
  5  2  1  0  0  0  0
  6  9  1  0  0  0  0
  6  4  2  0  0  0  0
  7  5  1  0  0  0  0
  7  8  2  0  0  0  0
  8  6  1  0  0  0  0
  9 10  1  0  0  0  0
 11 10  1  0  0  0  0
 12 11  1  0  0  0  0
 13 15  1  0  0  0  0
 14 18  1  0  0  0  0
 14 19  1  0  0  0  0
 15 19  2  0  0  0  0
 15 12  1  0  0  0  0
 16 17  1  0  0  0  0
 16 13  2  0  0  0  0
 17 14  2  0  0  0  0
 20 28  1  1  0  0  0
 20 13  1  0  0  0  0
 21 22  1  0  0  0  0
 22 20  1  0  0  0  0
 23 22  2  0  0  0  0
 24 27  1  0  0  0  0
 25 24  1  0  0  0  0
 25 26  1  0  0  0  0
 26 21  1  0  0  0  0
 27 23  1  0  0  0  0
 29 28  1  0  0  0  0
 30 31  1  0  0  0  0
 32 31  2  0  0  0  0
 33 32  1  1  0  0  0
 34 33  1  0  0  0  0
 34 36  1  1  0  0  0
 35 44  1  6  0  0  0
 35 34  1  0  0  0  0
 35 33  1  0  0  0  0
 37 44  1  0  0  0  0
 38 45  1  6  0  0  0
 38 42  1  0  0  0  0
 38 37  1  0  0  0  0
 42 41  1  6  0  0  0
 42 43  1  0  0  0  0
 43 39  1  6  0  0  0
 43 40  1  0  0  0  0
 44 40  1  1  0  0  0
 45 46  1  0  0  0  0
M  END
>  <MODEL>
9

>  <REMARK>
 VINA RESULT:      -5.5      2.373      3.384
  Name = 
  13 active torsions:
  status: ('A' for Active; 'I' for Inactive)
    1  A    between atoms: C_2  and  C_7
    2  A    between atoms: C_2  and  C_18
    3  A    between atoms: C_3  and  O_20
    4  A    between atoms: C_6  and  C_27
    5  A    between atoms: C_7  and  C_12
    6  A    between atoms: C_10  and  C_42
    7  A    between atoms: C_11  and  C_27
    8  A    between atoms: C_12  and  C_24
    9  A    between atoms: C_24  and  C_40
   10  A    between atoms: C_27  and  O_41
   11  A    between atoms: N_28  and  C_38
   12  A    between atoms: C_30  and  C_35
   13  A    between atoms: C_35  and  C_36
                            x       y       z     vdW  Elec       q    Type
                         _______ _______ _______ _____ _____    ______ ____

>  <TORSDO>
F 13

$$$$
