=
 OpenBabel11052412153D

 41 43  0  0  1  0  0  0  0  0999 V2000
  156.7900  212.7630  154.5200 N   0  0  0  0  0  0  0  0  0  0  0  0
  160.8340  208.9680  156.8000 C   0  0  0  0  0  1  0  0  0  0  0  0
  159.9460  209.9140  156.0770 C   0  0  0  0  0  0  0  0  0  0  0  0
  160.0910  210.1480  154.8160 C   0  0  0  0  0  0  0  0  0  0  0  0
  159.8910  210.6800  153.6570 C   0  0  0  0  0  0  0  0  0  0  0  0
  157.4520  212.5380  156.7740 N   0  0  0  0  0  0  0  0  0  0  0  0
  159.0020  210.7360  156.7760 N   0  0  0  0  0  2  0  0  0  0  0  0
  158.9450  211.8660  153.6730 C   0  0  2  0  0  3  0  0  0  0  0  0
  156.5900  213.2850  155.8780 C   0  0  0  0  0  3  0  0  0  0  0  0
  157.7470  211.6630  154.6510 C   0  0  1  0  0  3  0  0  0  0  0  0
  158.1120  211.6660  156.1110 C   0  0  0  0  0  0  0  0  0  0  0  0
  160.3320  209.9930  152.4050 C   0  0  0  0  0  2  0  0  0  0  0  0
  161.8500  209.9060  152.3570 C   0  0  0  0  0  2  0  0  0  0  0  0
  162.2880  208.7530  151.4710 C   0  0  0  0  0  2  0  0  0  0  0  0
  161.1500  205.6750  153.1780 N   0  0  0  0  0  1  0  0  0  0  0  0
  161.9430  206.3670  150.9220 C   0  0  2  0  0  3  0  0  0  0  0  0
  162.1110  206.4810  152.4410 C   0  0  1  0  0  3  0  0  0  0  0  0
  161.3750  207.5560  151.6670 C   0  0  1  0  0  3  0  0  0  0  0  0
  160.8000  205.4640  150.4710 C   0  0  0  0  0  2  0  0  0  0  0  0
  160.5750  205.5930  148.9700 C   0  0  1  0  0  3  0  0  0  0  0  0
  161.5070  206.6790  148.4570 C   0  0  0  0  0  1  0  0  0  0  0  0
  160.8360  204.2610  148.2460 C   0  0  1  0  0  3  0  0  0  0  0  0
  162.1770  204.1190  146.0880 C   0  0  0  0  0  0  0  0  0  0  0  0
  163.2990  204.2000  145.5220 O   0  0  0  0  0  0  0  0  0  0  0  0
  162.0900  204.3250  147.5010 N   0  0  0  0  0  2  0  0  0  0  0  0
  160.9530  203.8520  145.2680 C   0  0  0  0  0  2  0  0  0  0  0  0
  160.0480  206.1150  145.3360 N   0  0  0  0  0  1  0  0  0  0  0  0
  160.5560  205.0760  144.4570 C   0  0  1  0  0  3  0  0  0  0  0  0
  161.7680  205.5980  143.7150 C   0  0  0  0  0  1  0  0  0  0  0  0
  160.9110  203.1220  149.2200 C   0  0  0  0  0  3  0  0  0  0  0  0
  160.9790  201.8610  148.7940 C   0  0  0  0  0  2  0  0  0  0  0  0
  158.4610  212.1530  152.3300 N   0  0  0  0  0  2  0  0  0  0  0  0
  159.2310  213.2830  151.8370 C   0  0  0  0  0  2  0  0  0  0  0  0
  157.7770  213.6940  150.0050 O   0  0  0  0  0  0  0  0  0  0  0  0
  158.9580  213.4800  150.3910 C   0  0  0  0  0  0  0  0  0  0  0  0
  160.0090  213.3930  149.4750 O   0  0  0  0  0  0  0  0  0  0  0  0
  161.1190  212.5260  149.6720 C   0  0  0  0  0  2  0  0  0  0  0  0
  162.1480  210.7530  148.4390 F   0  0  0  0  0  0  0  0  0  0  0  0
  161.6670  212.0480  148.3340 C   0  0  2  0  0  3  0  0  0  0  0  0
  162.7780  212.9720  147.8640 C   0  0  0  0  0  2  0  0  0  0  0  0
  163.9820  212.2910  147.8050 F   0  0  0  0  0  0  0  0  0  0  0  0
  1  9  2  0  0  0  0
  3  7  1  0  0  0  0
  3  2  1  0  0  0  0
  4  3  2  0  0  0  0
  5  8  1  0  0  0  0
  5  4  2  0  0  0  0
  8 32  1  6  0  0  0
  8 10  1  0  0  0  0
  9  6  1  0  0  0  0
 10  1  1  1  0  0  0
 10 11  1  0  0  0  0
 11  6  2  0  0  0  0
 11  7  1  0  0  0  0
 12  5  1  0  0  0  0
 13 12  1  0  0  0  0
 14 13  1  0  0  0  0
 16 19  1  1  0  0  0
 16 18  1  0  0  0  0
 16 17  1  0  0  0  0
 17 15  1  1  0  0  0
 18 14  1  6  0  0  0
 18 17  1  0  0  0  0
 20 21  1  6  0  0  0
 20 19  1  0  0  0  0
 22 20  1  0  0  0  0
 22 30  1  1  0  0  0
 23 25  1  0  0  0  0
 24 23  2  0  0  0  0
 25 22  1  0  0  0  0
 26 23  1  0  0  0  0
 28 29  1  1  0  0  0
 28 26  1  0  0  0  0
 28 27  1  0  0  0  0
 31 30  2  0  0  0  0
 33 32  1  0  0  0  0
 34 35  2  0  0  0  0
 35 33  1  0  0  0  0
 36 37  1  0  0  0  0
 36 35  1  0  0  0  0
 39 38  1  1  0  0  0
 39 37  1  0  0  0  0
 40 39  1  0  0  0  0
 41 40  1  0  0  0  0
M  END
>  <MODEL>
1

>  <REMARK>
 VINA RESULT:      -6.9      0.000      0.000
  Name = 
  18 active torsions:
  status: ('A' for Active; 'I' for Inactive)
    1  A    between atoms: C_4  and  C_28
    2  A    between atoms: C_4  and  C_34
    3  A    between atoms: C_5  and  C_7
    4  A    between atoms: C_7  and  N_16
    5  A    between atoms: C_7  and  C_31
    6  A    between atoms: C_8  and  C_18
    7  A    between atoms: C_8  and  C_28
    8  A    between atoms: C_9  and  C_14
    9  A    between atoms: C_10  and  C_25
   10  A    between atoms: C_14  and  C_30
   11  A    between atoms: C_20  and  C_39
   12  A    between atoms: C_22  and  N_32
   13  A    between atoms: C_22  and  C_38
   14  A    between atoms: C_25  and  C_31
   15  A    between atoms: C_26  and  N_32
   16  A    between atoms: O_27  and  C_33
   17  A    between atoms: O_27  and  C_38
   18  A    between atoms: C_33  and  C_39
                            x       y       z     vdW  Elec       q    Type
                         _______ _______ _______ _____ _____    ______ ____

>  <TORSDO>
F 18

$$$$
=
 OpenBabel11052412153D

 41 43  0  0  1  0  0  0  0  0999 V2000
  162.0470  205.8910  145.9040 N   0  0  0  0  0  0  0  0  0  0  0  0
  160.7920  201.9090  150.2080 C   0  0  0  0  0  1  0  0  0  0  0  0
  161.0030  203.0240  149.2500 C   0  0  0  0  0  0  0  0  0  0  0  0
  160.7430  204.2470  149.5680 C   0  0  0  0  0  0  0  0  0  0  0  0
  160.6060  205.5240  149.4390 C   0  0  0  0  0  0  0  0  0  0  0  0
  161.6390  203.5790  145.6610 N   0  0  0  0  0  0  0  0  0  0  0  0
  161.3430  202.7770  147.8790 N   0  0  0  0  0  2  0  0  0  0  0  0
  160.7400  206.0220  148.0120 C   0  0  2  0  0  3  0  0  0  0  0  0
  161.9370  204.7970  144.9320 C   0  0  0  0  0  3  0  0  0  0  0  0
  161.8590  205.2770  147.2200 C   0  0  1  0  0  3  0  0  0  0  0  0
  161.5650  203.8330  146.9130 C   0  0  0  0  0  0  0  0  0  0  0  0
  160.6080  206.4260  150.6310 C   0  0  0  0  0  2  0  0  0  0  0  0
  161.0520  205.6630  151.8690 C   0  0  0  0  0  2  0  0  0  0  0  0
  162.2760  206.3190  152.4860 C   0  0  0  0  0  2  0  0  0  0  0  0
  160.1840  206.7860  155.5020 N   0  0  0  0  0  1  0  0  0  0  0  0
  161.0220  208.1420  153.5890 C   0  0  2  0  0  3  0  0  0  0  0  0
  160.4350  206.8100  154.0690 C   0  0  1  0  0  3  0  0  0  0  0  0
  161.9230  206.9490  153.8220 C   0  0  1  0  0  3  0  0  0  0  0  0
  161.2550  209.1710  154.6900 C   0  0  0  0  0  2  0  0  0  0  0  0
  160.7500  210.5420  154.2570 C   0  0  1  0  0  3  0  0  0  0  0  0
  159.9900  210.3620  152.9540 C   0  0  0  0  0  1  0  0  0  0  0  0
  159.8520  211.1750  155.3340 C   0  0  1  0  0  3  0  0  0  0  0  0
  157.3120  211.3140  155.2300 C   0  0  0  0  0  0  0  0  0  0  0  0
  156.2100  210.7050  155.2090 O   0  0  0  0  0  0  0  0  0  0  0  0
  158.5270  210.5620  155.3120 N   0  0  0  0  0  2  0  0  0  0  0  0
  157.3330  212.8070  155.1250 C   0  0  0  0  0  2  0  0  0  0  0  0
  156.1170  213.8400  153.2810 N   0  0  0  0  0  1  0  0  0  0  0  0
  157.3880  213.2570  153.6730 C   0  0  1  0  0  3  0  0  0  0  0  0
  158.4830  214.2890  153.5110 C   0  0  0  0  0  1  0  0  0  0  0  0
  160.4410  211.0000  156.7020 C   0  0  0  0  0  3  0  0  0  0  0  0
  161.3760  211.8340  157.1560 C   0  0  0  0  0  2  0  0  0  0  0  0
  160.9730  207.4590  147.9900 N   0  0  0  0  0  2  0  0  0  0  0  0
  162.2410  207.6900  148.6600 C   0  0  0  0  0  2  0  0  0  0  0  0
  162.3370  209.1980  150.4940 O   0  0  0  0  0  0  0  0  0  0  0  0
  162.2560  209.0560  149.2440 C   0  0  0  0  0  0  0  0  0  0  0  0
  162.1440  210.1650  148.4000 O   0  0  0  0  0  0  0  0  0  0  0  0
  162.0550  211.4930  148.8980 C   0  0  0  0  0  2  0  0  0  0  0  0
  162.7890  212.6010  146.9100 F   0  0  0  0  0  0  0  0  0  0  0  0
  161.7160  212.4630  147.7750 C   0  0  2  0  0  3  0  0  0  0  0  0
  161.3420  213.8200  148.3490 C   0  0  0  0  0  2  0  0  0  0  0  0
  160.1400  214.2550  147.8190 F   0  0  0  0  0  0  0  0  0  0  0  0
  3  4  2  0  0  0  0
  3  2  1  0  0  0  0
  5  4  2  0  0  0  0
  5 12  1  0  0  0  0
  6 11  2  0  0  0  0
  7  3  1  0  0  0  0
  8 32  1  1  0  0  0
  8  5  1  0  0  0  0
  9  6  1  0  0  0  0
  9  1  2  0  0  0  0
 10  1  1  6  0  0  0
 10  8  1  0  0  0  0
 11 10  1  0  0  0  0
 11  7  1  0  0  0  0
 12 13  1  0  0  0  0
 13 14  1  0  0  0  0
 16 18  1  0  0  0  0
 16 17  1  0  0  0  0
 16 19  1  1  0  0  0
 17 15  1  1  0  0  0
 18 14  1  6  0  0  0
 18 17  1  0  0  0  0
 20 21  1  6  0  0  0
 20 19  1  0  0  0  0
 20 22  1  0  0  0  0
 22 30  1  1  0  0  0
 23 25  1  0  0  0  0
 24 23  2  0  0  0  0
 25 22  1  0  0  0  0
 26 23  1  0  0  0  0
 27 28  1  0  0  0  0
 28 29  1  1  0  0  0
 28 26  1  0  0  0  0
 30 31  2  0  0  0  0
 32 33  1  0  0  0  0
 33 35  1  0  0  0  0
 35 34  2  0  0  0  0
 36 37  1  0  0  0  0
 36 35  1  0  0  0  0
 39 38  1  6  0  0  0
 39 40  1  0  0  0  0
 39 37  1  0  0  0  0
 41 40  1  0  0  0  0
M  END
>  <MODEL>
2

>  <REMARK>
 VINA RESULT:      -6.8      2.222      8.974
  Name = 
  18 active torsions:
  status: ('A' for Active; 'I' for Inactive)
    1  A    between atoms: C_4  and  C_28
    2  A    between atoms: C_4  and  C_34
    3  A    between atoms: C_5  and  C_7
    4  A    between atoms: C_7  and  N_16
    5  A    between atoms: C_7  and  C_31
    6  A    between atoms: C_8  and  C_18
    7  A    between atoms: C_8  and  C_28
    8  A    between atoms: C_9  and  C_14
    9  A    between atoms: C_10  and  C_25
   10  A    between atoms: C_14  and  C_30
   11  A    between atoms: C_20  and  C_39
   12  A    between atoms: C_22  and  N_32
   13  A    between atoms: C_22  and  C_38
   14  A    between atoms: C_25  and  C_31
   15  A    between atoms: C_26  and  N_32
   16  A    between atoms: O_27  and  C_33
   17  A    between atoms: O_27  and  C_38
   18  A    between atoms: C_33  and  C_39
                            x       y       z     vdW  Elec       q    Type
                         _______ _______ _______ _____ _____    ______ ____

>  <TORSDO>
F 18

$$$$
=
 OpenBabel11052412153D

 41 43  0  0  1  0  0  0  0  0999 V2000
  161.9780  205.2690  151.5270 N   0  0  0  0  0  0  0  0  0  0  0  0
  161.1290  210.8820  153.4580 C   0  0  0  0  0  1  0  0  0  0  0  0
  161.3090  209.5620  152.8000 C   0  0  0  0  0  0  0  0  0  0  0  0
  161.4520  209.4580  151.5230 C   0  0  0  0  0  0  0  0  0  0  0  0
  161.5900  208.9020  150.3650 C   0  0  0  0  0  0  0  0  0  0  0  0
  160.9800  205.9670  153.5480 N   0  0  0  0  0  0  0  0  0  0  0  0
  161.1640  208.3370  153.5300 N   0  0  0  0  0  2  0  0  0  0  0  0
  161.4140  207.3950  150.3750 C   0  0  2  0  0  3  0  0  0  0  0  0
  161.3320  204.8020  152.7600 C   0  0  0  0  0  3  0  0  0  0  0  0
  162.0430  206.7270  151.6370 C   0  0  1  0  0  3  0  0  0  0  0  0
  161.3380  207.0300  152.9320 C   0  0  0  0  0  0  0  0  0  0  0  0
  162.1540  209.6600  149.2070 C   0  0  0  0  0  2  0  0  0  0  0  0
  161.9260  211.1520  149.3910 C   0  0  0  0  0  2  0  0  0  0  0  0
  162.6190  211.9350  148.2890 C   0  0  0  0  0  2  0  0  0  0  0  0
  159.3350  213.1030  147.0460 N   0  0  0  0  0  1  0  0  0  0  0  0
  161.6480  212.7880  146.1810 C   0  0  2  0  0  3  0  0  0  0  0  0
  160.5030  212.2350  147.0350 C   0  0  1  0  0  3  0  0  0  0  0  0
  161.6690  212.9540  147.6850 C   0  0  1  0  0  3  0  0  0  0  0  0
  161.3660  214.1380  145.5300 C   0  0  0  0  0  2  0  0  0  0  0  0
  162.0970  214.2530  144.1980 C   0  0  1  0  0  3  0  0  0  0  0  0
  163.3290  213.3660  144.2710 C   0  0  0  0  0  1  0  0  0  0  0  0
  161.1930  213.8410  143.0230 C   0  0  1  0  0  3  0  0  0  0  0  0
  161.9150  212.2040  141.2140 C   0  0  0  0  0  0  0  0  0  0  0  0
  162.2080  211.0190  140.9010 O   0  0  0  0  0  0  0  0  0  0  0  0
  161.5410  212.5000  142.5630 N   0  0  0  0  0  2  0  0  0  0  0  0
  162.0070  213.2840  140.1810 C   0  0  0  0  0  2  0  0  0  0  0  0
  162.7770  213.1850  137.8690 N   0  0  0  0  0  1  0  0  0  0  0  0
  163.1930  213.0620  139.2560 C   0  0  1  0  0  3  0  0  0  0  0  0
  164.2570  214.0980  139.5520 C   0  0  0  0  0  1  0  0  0  0  0  0
  159.7470  213.8530  143.4230 C   0  0  0  0  0  3  0  0  0  0  0  0
  158.7840  213.7880  142.5050 C   0  0  0  0  0  2  0  0  0  0  0  0
  161.9650  206.8070  149.1620 N   0  0  0  0  0  2  0  0  0  0  0  0
  160.8930  206.0540  148.5340 C   0  0  0  0  0  2  0  0  0  0  0  0
  161.9470  205.4330  146.4980 O   0  0  0  0  0  0  0  0  0  0  0  0
  161.4680  205.0520  147.6000 C   0  0  0  0  0  0  0  0  0  0  0  0
  161.4370  203.6980  147.9420 O   0  0  0  0  0  0  0  0  0  0  0  0
  160.7680  203.2220  149.1030 C   0  0  0  0  0  2  0  0  0  0  0  0
  161.4400  201.1210  150.0280 F   0  0  0  0  0  0  0  0  0  0  0  0
  160.6400  201.7060  149.0610 C   0  0  2  0  0  3  0  0  0  0  0  0
  161.0330  201.1860  147.6870 C   0  0  0  0  0  2  0  0  0  0  0  0
  161.5250  199.8950  147.7810 F   0  0  0  0  0  0  0  0  0  0  0  0
  1  9  2  0  0  0  0
  3  2  1  0  0  0  0
  3  7  1  0  0  0  0
  4  3  2  0  0  0  0
  5  8  1  0  0  0  0
  5  4  2  0  0  0  0
  8 32  1  6  0  0  0
  8 10  1  0  0  0  0
  9  6  1  0  0  0  0
 10  1  1  6  0  0  0
 10 11  1  0  0  0  0
 11  7  1  0  0  0  0
 11  6  2  0  0  0  0
 12 13  1  0  0  0  0
 12  5  1  0  0  0  0
 14 13  1  0  0  0  0
 16 19  1  6  0  0  0
 16 17  1  0  0  0  0
 16 18  1  0  0  0  0
 17 15  1  6  0  0  0
 17 18  1  0  0  0  0
 18 14  1  1  0  0  0
 20 21  1  1  0  0  0
 20 19  1  0  0  0  0
 22 30  1  1  0  0  0
 22 20  1  0  0  0  0
 23 25  1  0  0  0  0
 24 23  2  0  0  0  0
 25 22  1  0  0  0  0
 26 23  1  0  0  0  0
 27 28  1  0  0  0  0
 28 29  1  1  0  0  0
 28 26  1  0  0  0  0
 31 30  2  0  0  0  0
 33 32  1  0  0  0  0
 34 35  2  0  0  0  0
 35 36  1  0  0  0  0
 35 33  1  0  0  0  0
 36 37  1  0  0  0  0
 39 37  1  0  0  0  0
 39 38  1  1  0  0  0
 40 41  1  0  0  0  0
 40 39  1  0  0  0  0
M  END
>  <MODEL>
3

>  <REMARK>
 VINA RESULT:      -6.8      4.777      8.795
  Name = 
  18 active torsions:
  status: ('A' for Active; 'I' for Inactive)
    1  A    between atoms: C_4  and  C_28
    2  A    between atoms: C_4  and  C_34
    3  A    between atoms: C_5  and  C_7
    4  A    between atoms: C_7  and  N_16
    5  A    between atoms: C_7  and  C_31
    6  A    between atoms: C_8  and  C_18
    7  A    between atoms: C_8  and  C_28
    8  A    between atoms: C_9  and  C_14
    9  A    between atoms: C_10  and  C_25
   10  A    between atoms: C_14  and  C_30
   11  A    between atoms: C_20  and  C_39
   12  A    between atoms: C_22  and  N_32
   13  A    between atoms: C_22  and  C_38
   14  A    between atoms: C_25  and  C_31
   15  A    between atoms: C_26  and  N_32
   16  A    between atoms: O_27  and  C_33
   17  A    between atoms: O_27  and  C_38
   18  A    between atoms: C_33  and  C_39
                            x       y       z     vdW  Elec       q    Type
                         _______ _______ _______ _____ _____    ______ ____

>  <TORSDO>
F 18

$$$$
=
 OpenBabel11052412153D

 41 43  0  0  1  0  0  0  0  0999 V2000
  160.4110  202.3890  150.1720 N   0  0  0  0  0  0  0  0  0  0  0  0
  161.7990  205.0470  144.9800 C   0  0  0  0  0  1  0  0  0  0  0  0
  161.5080  204.5570  146.3510 C   0  0  0  0  0  0  0  0  0  0  0  0
  161.4510  205.3600  147.3590 C   0  0  0  0  0  0  0  0  0  0  0  0
  161.3340  205.7540  148.5830 C   0  0  0  0  0  0  0  0  0  0  0  0
  161.3310  201.3950  148.2390 N   0  0  0  0  0  0  0  0  0  0  0  0
  161.4430  203.1550  146.6460 N   0  0  0  0  0  2  0  0  0  0  0  0
  161.3200  204.6270  149.5990 C   0  0  2  0  0  3  0  0  0  0  0  0
  160.8980  201.1290  149.5980 C   0  0  0  0  0  3  0  0  0  0  0  0
  160.5200  203.3840  149.1040 C   0  0  1  0  0  3  0  0  0  0  0  0
  161.1560  202.6320  147.9650 C   0  0  0  0  0  0  0  0  0  0  0  0
  160.9580  207.1640  148.9080 C   0  0  0  0  0  2  0  0  0  0  0  0
  162.1100  208.1040  148.5890 C   0  0  0  0  0  2  0  0  0  0  0  0
  161.8460  209.4830  149.1690 C   0  0  0  0  0  2  0  0  0  0  0  0
  163.3500  212.5990  147.8590 N   0  0  0  0  0  1  0  0  0  0  0  0
  161.0840  211.6770  148.3220 C   0  0  2  0  0  3  0  0  0  0  0  0
  162.5360  211.8320  148.7880 C   0  0  1  0  0  3  0  0  0  0  0  0
  162.0760  210.5530  148.1170 C   0  0  1  0  0  3  0  0  0  0  0  0
  160.7730  212.3250  146.9760 C   0  0  0  0  0  2  0  0  0  0  0  0
  159.3900  212.9640  146.9970 C   0  0  1  0  0  3  0  0  0  0  0  0
  159.3670  213.9760  148.1300 C   0  0  0  0  0  1  0  0  0  0  0  0
  159.0620  213.6370  145.6530 C   0  0  1  0  0  3  0  0  0  0  0  0
  159.8820  212.5850  143.4850 C   0  0  0  0  0  0  0  0  0  0  0  0
  159.7430  211.6830  142.6170 O   0  0  0  0  0  0  0  0  0  0  0  0
  158.9780  212.6370  144.5920 N   0  0  0  0  0  2  0  0  0  0  0  0
  161.0140  213.5570  143.3650 C   0  0  0  0  0  2  0  0  0  0  0  0
  162.6740  212.2270  142.1710 N   0  0  0  0  0  1  0  0  0  0  0  0
  162.3590  212.8500  143.4450 C   0  0  1  0  0  3  0  0  0  0  0  0
  163.4340  213.8590  143.7880 C   0  0  0  0  0  1  0  0  0  0  0  0
  157.7590  214.3780  145.7210 C   0  0  0  0  0  3  0  0  0  0  0  0
  156.6240  213.7410  146.0030 C   0  0  0  0  0  2  0  0  0  0  0  0
  160.7950  205.0940  150.8750 N   0  0  0  0  0  2  0  0  0  0  0  0
  161.9170  205.1560  151.7950 C   0  0  0  0  0  2  0  0  0  0  0  0
  161.4950  206.0500  153.9560 O   0  0  0  0  0  0  0  0  0  0  0  0
  161.7270  206.2870  152.7390 C   0  0  0  0  0  0  0  0  0  0  0  0
  161.7740  207.5980  152.2580 O   0  0  0  0  0  0  0  0  0  0  0  0
  160.8160  208.5790  152.6320 C   0  0  0  0  0  2  0  0  0  0  0  0
  162.7600  209.9050  152.2060 F   0  0  0  0  0  0  0  0  0  0  0  0
  161.4480  209.9640  152.6440 C   0  0  2  0  0  3  0  0  0  0  0  0
  161.4010  210.5490  154.0470 C   0  0  0  0  0  2  0  0  0  0  0  0
  160.8470  209.6390  154.9320 F   0  0  0  0  0  0  0  0  0  0  0  0
  2  3  1  0  0  0  0
  3  7  1  0  0  0  0
  3  4  2  0  0  0  0
  4  5  2  0  0  0  0
  5 12  1  0  0  0  0
  5  8  1  0  0  0  0
  6  9  1  0  0  0  0
  7 11  1  0  0  0  0
  8 32  1  1  0  0  0
  9  1  2  0  0  0  0
 10 11  1  6  0  0  0
 10  8  1  0  0  0  0
 10  1  1  0  0  0  0
 11  6  2  0  0  0  0
 13 12  1  0  0  0  0
 13 14  1  0  0  0  0
 16 19  1  6  0  0  0
 16 17  1  0  0  0  0
 17 15  1  6  0  0  0
 18 16  1  0  0  0  0
 18 17  1  0  0  0  0
 18 14  1  1  0  0  0
 19 20  1  0  0  0  0
 20 21  1  1  0  0  0
 22 30  1  1  0  0  0
 22 20  1  0  0  0  0
 23 25  1  0  0  0  0
 24 23  2  0  0  0  0
 25 22  1  0  0  0  0
 26 28  1  0  0  0  0
 26 23  1  0  0  0  0
 27 28  1  0  0  0  0
 28 29  1  6  0  0  0
 30 31  2  0  0  0  0
 32 33  1  0  0  0  0
 33 35  1  0  0  0  0
 35 34  2  0  0  0  0
 36 37  1  0  0  0  0
 36 35  1  0  0  0  0
 37 39  1  0  0  0  0
 39 38  1  1  0  0  0
 39 40  1  0  0  0  0
 40 41  1  0  0  0  0
M  END
>  <MODEL>
4

>  <REMARK>
 VINA RESULT:      -6.7      4.042      9.017
  Name = 
  18 active torsions:
  status: ('A' for Active; 'I' for Inactive)
    1  A    between atoms: C_4  and  C_28
    2  A    between atoms: C_4  and  C_34
    3  A    between atoms: C_5  and  C_7
    4  A    between atoms: C_7  and  N_16
    5  A    between atoms: C_7  and  C_31
    6  A    between atoms: C_8  and  C_18
    7  A    between atoms: C_8  and  C_28
    8  A    between atoms: C_9  and  C_14
    9  A    between atoms: C_10  and  C_25
   10  A    between atoms: C_14  and  C_30
   11  A    between atoms: C_20  and  C_39
   12  A    between atoms: C_22  and  N_32
   13  A    between atoms: C_22  and  C_38
   14  A    between atoms: C_25  and  C_31
   15  A    between atoms: C_26  and  N_32
   16  A    between atoms: O_27  and  C_33
   17  A    between atoms: O_27  and  C_38
   18  A    between atoms: C_33  and  C_39
                            x       y       z     vdW  Elec       q    Type
                         _______ _______ _______ _____ _____    ______ ____

>  <TORSDO>
F 18

$$$$
=
 OpenBabel11052412153D

 41 43  0  0  1  0  0  0  0  0999 V2000
  162.3530  206.3610  146.9190 N   0  0  0  0  0  0  0  0  0  0  0  0
  160.5910  201.9210  150.5450 C   0  0  0  0  0  1  0  0  0  0  0  0
  161.0060  203.1390  149.8020 C   0  0  0  0  0  0  0  0  0  0  0  0
  161.2860  204.2400  150.4110 C   0  0  0  0  0  0  0  0  0  0  0  0
  161.6090  205.4800  150.5770 C   0  0  0  0  0  0  0  0  0  0  0  0
  161.0770  204.4560  146.3590 N   0  0  0  0  0  0  0  0  0  0  0  0
  160.9510  203.1950  148.3700 N   0  0  0  0  0  2  0  0  0  0  0  0
  161.6320  206.2910  149.2950 C   0  0  2  0  0  3  0  0  0  0  0  0
  161.6550  205.6740  145.8250 C   0  0  0  0  0  3  0  0  0  0  0  0
  162.2150  205.4910  148.0890 C   0  0  1  0  0  3  0  0  0  0  0  0
  161.3520  204.3570  147.6040 C   0  0  0  0  0  0  0  0  0  0  0  0
  162.1810  205.9630  151.8700 C   0  0  0  0  0  2  0  0  0  0  0  0
  161.0860  206.0850  152.9180 C   0  0  0  0  0  2  0  0  0  0  0  0
  160.8900  207.5390  153.3140 C   0  0  0  0  0  2  0  0  0  0  0  0
  160.2610  206.7340  156.8710 N   0  0  0  0  0  1  0  0  0  0  0  0
  160.0540  208.6860  155.3390 C   0  0  2  0  0  3  0  0  0  0  0  0
  159.8680  207.1790  155.5420 C   0  0  1  0  0  3  0  0  0  0  0  0
  161.0830  207.7110  154.8100 C   0  0  1  0  0  3  0  0  0  0  0  0
  160.6320  209.4260  156.5400 C   0  0  0  0  0  2  0  0  0  0  0  0
  161.0110  210.8520  156.1590 C   0  0  1  0  0  3  0  0  0  0  0  0
  162.3920  210.8080  155.5260 C   0  0  0  0  0  1  0  0  0  0  0  0
  159.9840  211.4660  155.1920 C   0  0  1  0  0  3  0  0  0  0  0  0
  158.2010  212.9380  156.2580 C   0  0  0  0  0  0  0  0  0  0  0  0
  157.8730  214.0760  156.6860 O   0  0  0  0  0  0  0  0  0  0  0  0
  159.5080  212.7470  155.7060 N   0  0  0  0  0  2  0  0  0  0  0  0
  157.2370  211.7990  156.3730 C   0  0  0  0  0  2  0  0  0  0  0  0
  156.5260  212.6950  154.2190 N   0  0  0  0  0  1  0  0  0  0  0  0
  156.0900  211.9460  155.3850 C   0  0  1  0  0  3  0  0  0  0  0  0
  155.6260  210.5720  154.9510 C   0  0  0  0  0  1  0  0  0  0  0  0
  160.5810  211.6840  153.8330 C   0  0  0  0  0  3  0  0  0  0  0  0
  159.8680  212.2380  152.8540 C   0  0  0  0  0  2  0  0  0  0  0  0
  162.3720  207.5310  149.4870 N   0  0  0  0  0  2  0  0  0  0  0  0
  161.3900  208.5750  149.7270 C   0  0  0  0  0  2  0  0  0  0  0  0
  162.3590  210.2370  151.1200 O   0  0  0  0  0  0  0  0  0  0  0  0
  162.0830  209.8700  149.9460 C   0  0  0  0  0  0  0  0  0  0  0  0
  162.3880  210.6800  148.8490 O   0  0  0  0  0  0  0  0  0  0  0  0
  161.3930  211.4120  148.1440 C   0  0  0  0  0  2  0  0  0  0  0  0
  159.8460  213.1740  148.6140 F   0  0  0  0  0  0  0  0  0  0  0  0
  161.1530  212.7600  148.8100 C   0  0  2  0  0  3  0  0  0  0  0  0
  162.1090  213.8000  148.2470 C   0  0  0  0  0  2  0  0  0  0  0  0
  163.0420  213.2010  147.4180 F   0  0  0  0  0  0  0  0  0  0  0  0
  3  4  2  0  0  0  0
  3  2  1  0  0  0  0
  4  5  2  0  0  0  0
  5 12  1  0  0  0  0
  6 11  2  0  0  0  0
  7  3  1  0  0  0  0
  8 32  1  1  0  0  0
  8  5  1  0  0  0  0
  9  6  1  0  0  0  0
  9  1  2  0  0  0  0
 10  1  1  6  0  0  0
 10  8  1  0  0  0  0
 11 10  1  0  0  0  0
 11  7  1  0  0  0  0
 12 13  1  0  0  0  0
 13 14  1  0  0  0  0
 16 17  1  0  0  0  0
 16 19  1  1  0  0  0
 17 15  1  1  0  0  0
 18 14  1  6  0  0  0
 18 16  1  0  0  0  0
 18 17  1  0  0  0  0
 20 21  1  6  0  0  0
 20 19  1  0  0  0  0
 22 30  1  6  0  0  0
 22 25  1  0  0  0  0
 22 20  1  0  0  0  0
 23 26  1  0  0  0  0
 23 24  2  0  0  0  0
 25 23  1  0  0  0  0
 27 28  1  0  0  0  0
 28 29  1  6  0  0  0
 28 26  1  0  0  0  0
 31 30  2  0  0  0  0
 32 33  1  0  0  0  0
 33 35  1  0  0  0  0
 35 34  2  0  0  0  0
 36 35  1  0  0  0  0
 37 39  1  0  0  0  0
 37 36  1  0  0  0  0
 39 38  1  6  0  0  0
 40 39  1  0  0  0  0
 41 40  1  0  0  0  0
M  END
>  <MODEL>
5

>  <REMARK>
 VINA RESULT:      -6.6      2.298      8.971
  Name = 
  18 active torsions:
  status: ('A' for Active; 'I' for Inactive)
    1  A    between atoms: C_4  and  C_28
    2  A    between atoms: C_4  and  C_34
    3  A    between atoms: C_5  and  C_7
    4  A    between atoms: C_7  and  N_16
    5  A    between atoms: C_7  and  C_31
    6  A    between atoms: C_8  and  C_18
    7  A    between atoms: C_8  and  C_28
    8  A    between atoms: C_9  and  C_14
    9  A    between atoms: C_10  and  C_25
   10  A    between atoms: C_14  and  C_30
   11  A    between atoms: C_20  and  C_39
   12  A    between atoms: C_22  and  N_32
   13  A    between atoms: C_22  and  C_38
   14  A    between atoms: C_25  and  C_31
   15  A    between atoms: C_26  and  N_32
   16  A    between atoms: O_27  and  C_33
   17  A    between atoms: O_27  and  C_38
   18  A    between atoms: C_33  and  C_39
                            x       y       z     vdW  Elec       q    Type
                         _______ _______ _______ _____ _____    ______ ____

>  <TORSDO>
F 18

$$$$
=
 OpenBabel11052412153D

 41 43  0  0  1  0  0  0  0  0999 V2000
  160.2450  202.0570  149.9010 N   0  0  0  0  0  0  0  0  0  0  0  0
  162.2610  205.4210  145.3650 C   0  0  0  0  0  1  0  0  0  0  0  0
  161.7970  204.7420  146.6020 C   0  0  0  0  0  0  0  0  0  0  0  0
  161.5790  205.3980  147.6910 C   0  0  0  0  0  0  0  0  0  0  0  0
  161.2820  205.6180  148.9290 C   0  0  0  0  0  0  0  0  0  0  0  0
  161.4510  201.3480  148.0000 N   0  0  0  0  0  0  0  0  0  0  0  0
  161.7320  203.3130  146.6920 N   0  0  0  0  0  2  0  0  0  0  0  0
  161.1600  204.3620  149.7710 C   0  0  2  0  0  3  0  0  0  0  0  0
  160.8420  200.8930  149.2350 C   0  0  0  0  0  3  0  0  0  0  0  0
  160.4720  203.1910  149.0040 C   0  0  1  0  0  3  0  0  0  0  0  0
  161.2800  202.6100  147.8740 C   0  0  0  0  0  0  0  0  0  0  0  0
  160.8250  206.9660  149.3860 C   0  0  0  0  0  2  0  0  0  0  0  0
  162.0220  207.8600  149.6720 C   0  0  0  0  0  2  0  0  0  0  0  0
  162.1410  208.9420  148.6130 C   0  0  0  0  0  2  0  0  0  0  0  0
  161.5820  212.5970  148.7510 N   0  0  0  0  0  1  0  0  0  0  0  0
  162.0400  210.7230  150.3250 C   0  0  2  0  0  3  0  0  0  0  0  0
  162.3520  211.3830  148.9780 C   0  0  1  0  0  3  0  0  0  0  0  0
  161.4100  210.1980  149.0530 C   0  0  1  0  0  3  0  0  0  0  0  0
  160.9770  211.4350  151.1560 C   0  0  0  0  0  2  0  0  0  0  0  0
  160.6200  210.6130  152.3880 C   0  0  1  0  0  3  0  0  0  0  0  0
  161.8550  209.8230  152.7870 C   0  0  0  0  0  1  0  0  0  0  0  0
  160.1450  211.5100  153.5430 C   0  0  1  0  0  3  0  0  0  0  0  0
  157.6920  212.0230  153.9890 C   0  0  0  0  0  0  0  0  0  0  0  0
  156.5650  211.6030  154.3620 O   0  0  0  0  0  0  0  0  0  0  0  0
  158.8030  211.1210  153.9680 N   0  0  0  0  0  2  0  0  0  0  0  0
  157.8380  213.4420  153.5340 C   0  0  0  0  0  2  0  0  0  0  0  0
  155.7820  214.4530  154.3680 N   0  0  0  0  0  1  0  0  0  0  0  0
  157.2240  214.4070  154.5360 C   0  0  1  0  0  3  0  0  0  0  0  0
  157.5490  213.9430  155.9400 C   0  0  0  0  0  1  0  0  0  0  0  0
  161.0700  211.4120  154.7210 C   0  0  0  0  0  3  0  0  0  0  0  0
  160.6370  211.6680  155.9540 C   0  0  0  0  0  2  0  0  0  0  0  0
  160.4510  204.6430  151.0110 N   0  0  0  0  0  2  0  0  0  0  0  0
  161.3940  204.4260  152.0950 C   0  0  0  0  0  2  0  0  0  0  0  0
  162.6590  206.3930  152.5150 O   0  0  0  0  0  0  0  0  0  0  0  0
  161.6410  205.7080  152.8050 C   0  0  0  0  0  0  0  0  0  0  0  0
  160.7590  206.1180  153.8080 O   0  0  0  0  0  0  0  0  0  0  0  0
  161.0930  207.1340  154.7440 C   0  0  0  0  0  2  0  0  0  0  0  0
  158.9580  207.0590  155.8200 F   0  0  0  0  0  0  0  0  0  0  0  0
  160.3200  206.9390  156.0410 C   0  0  2  0  0  3  0  0  0  0  0  0
  160.7640  207.9630  157.0740 C   0  0  0  0  0  2  0  0  0  0  0  0
  161.8750  208.6550  156.6230 F   0  0  0  0  0  0  0  0  0  0  0  0
  2  3  1  0  0  0  0
  3  7  1  0  0  0  0
  3  4  2  0  0  0  0
  4  5  2  0  0  0  0
  5 12  1  0  0  0  0
  5  8  1  0  0  0  0
  6  9  1  0  0  0  0
  7 11  1  0  0  0  0
  8 32  1  1  0  0  0
  9  1  2  0  0  0  0
 10 11  1  6  0  0  0
 10  8  1  0  0  0  0
 10  1  1  0  0  0  0
 11  6  2  0  0  0  0
 12 13  1  0  0  0  0
 14 13  1  0  0  0  0
 16 19  1  1  0  0  0
 17 15  1  1  0  0  0
 17 18  1  0  0  0  0
 17 16  1  0  0  0  0
 18 14  1  6  0  0  0
 18 16  1  0  0  0  0
 19 20  1  0  0  0  0
 20 21  1  1  0  0  0
 20 22  1  0  0  0  0
 22 25  1  0  0  0  0
 22 30  1  1  0  0  0
 23 24  2  0  0  0  0
 25 23  1  0  0  0  0
 26 23  1  0  0  0  0
 26 28  1  0  0  0  0
 27 28  1  0  0  0  0
 28 29  1  1  0  0  0
 30 31  2  0  0  0  0
 32 33  1  0  0  0  0
 33 35  1  0  0  0  0
 34 35  2  0  0  0  0
 35 36  1  0  0  0  0
 36 37  1  0  0  0  0
 37 39  1  0  0  0  0
 39 38  1  6  0  0  0
 39 40  1  0  0  0  0
 41 40  1  0  0  0  0
M  END
>  <MODEL>
6

>  <REMARK>
 VINA RESULT:      -6.4      3.245      9.989
  Name = 
  18 active torsions:
  status: ('A' for Active; 'I' for Inactive)
    1  A    between atoms: C_4  and  C_28
    2  A    between atoms: C_4  and  C_34
    3  A    between atoms: C_5  and  C_7
    4  A    between atoms: C_7  and  N_16
    5  A    between atoms: C_7  and  C_31
    6  A    between atoms: C_8  and  C_18
    7  A    between atoms: C_8  and  C_28
    8  A    between atoms: C_9  and  C_14
    9  A    between atoms: C_10  and  C_25
   10  A    between atoms: C_14  and  C_30
   11  A    between atoms: C_20  and  C_39
   12  A    between atoms: C_22  and  N_32
   13  A    between atoms: C_22  and  C_38
   14  A    between atoms: C_25  and  C_31
   15  A    between atoms: C_26  and  N_32
   16  A    between atoms: O_27  and  C_33
   17  A    between atoms: O_27  and  C_38
   18  A    between atoms: C_33  and  C_39
                            x       y       z     vdW  Elec       q    Type
                         _______ _______ _______ _____ _____    ______ ____

>  <TORSDO>
F 18

$$$$
=
 OpenBabel11052412153D

 41 43  0  0  1  0  0  0  0  0999 V2000
  160.3200  202.1740  150.0000 N   0  0  0  0  0  0  0  0  0  0  0  0
  161.9870  204.8190  144.8840 C   0  0  0  0  0  1  0  0  0  0  0  0
  161.6170  204.3340  146.2380 C   0  0  0  0  0  0  0  0  0  0  0  0
  161.4730  205.1450  147.2310 C   0  0  0  0  0  0  0  0  0  0  0  0
  161.2640  205.5480  148.4400 C   0  0  0  0  0  0  0  0  0  0  0  0
  161.3920  201.1860  148.1440 N   0  0  0  0  0  0  0  0  0  0  0  0
  161.5670  202.9340  146.5430 N   0  0  0  0  0  2  0  0  0  0  0  0
  161.2100  204.4300  149.4650 C   0  0  2  0  0  3  0  0  0  0  0  0
  160.8750  200.9220  149.4740 C   0  0  0  0  0  3  0  0  0  0  0  0
  160.4750  203.1620  148.9310 C   0  0  1  0  0  3  0  0  0  0  0  0
  161.2050  202.4160  147.8460 C   0  0  0  0  0  0  0  0  0  0  0  0
  160.8330  206.9500  148.7240 C   0  0  0  0  0  2  0  0  0  0  0  0
  162.0070  207.7700  149.2330 C   0  0  0  0  0  2  0  0  0  0  0  0
  162.3320  208.8920  148.2620 C   0  0  0  0  0  2  0  0  0  0  0  0
  161.8260  212.5580  148.3080 N   0  0  0  0  0  1  0  0  0  0  0  0
  162.2550  210.7170  149.9290 C   0  0  2  0  0  3  0  0  0  0  0  0
  162.5780  211.3390  148.5670 C   0  0  1  0  0  3  0  0  0  0  0  0
  161.6190  210.1700  148.6700 C   0  0  1  0  0  3  0  0  0  0  0  0
  161.2020  211.4650  150.7400 C   0  0  0  0  0  2  0  0  0  0  0  0
  160.7310  210.6190  151.9170 C   0  0  1  0  0  3  0  0  0  0  0  0
  161.9630  210.1910  152.6970 C   0  0  0  0  0  1  0  0  0  0  0  0
  159.7560  211.4000  152.8150 C   0  0  1  0  0  3  0  0  0  0  0  0
  159.9030  211.4950  155.3540 C   0  0  0  0  0  0  0  0  0  0  0  0
  160.5410  211.8690  156.3730 O   0  0  0  0  0  0  0  0  0  0  0  0
  160.4170  211.7980  154.0540 N   0  0  0  0  0  2  0  0  0  0  0  0
  158.6430  210.7020  155.5220 C   0  0  0  0  0  2  0  0  0  0  0  0
  157.7610  212.9250  156.0010 N   0  0  0  0  0  1  0  0  0  0  0  0
  157.5810  211.5060  156.2560 C   0  0  1  0  0  3  0  0  0  0  0  0
  156.2110  211.0810  155.7720 C   0  0  0  0  0  1  0  0  0  0  0  0
  159.2480  212.6300  152.1220 C   0  0  0  0  0  3  0  0  0  0  0  0
  158.1410  213.2420  152.5390 C   0  0  0  0  0  2  0  0  0  0  0  0
  160.5890  204.8950  150.6980 N   0  0  0  0  0  2  0  0  0  0  0  0
  161.6670  205.2220  151.6150 C   0  0  0  0  0  2  0  0  0  0  0  0
  160.4550  204.0460  153.2870 O   0  0  0  0  0  0  0  0  0  0  0  0
  161.2100  205.0190  153.0140 C   0  0  0  0  0  0  0  0  0  0  0  0
  161.5960  205.9290  154.0010 O   0  0  0  0  0  0  0  0  0  0  0  0
  160.8040  207.0590  154.3450 C   0  0  0  0  0  2  0  0  0  0  0  0
  159.1950  207.4410  156.0720 F   0  0  0  0  0  0  0  0  0  0  0  0
  160.5080  207.0690  155.8380 C   0  0  2  0  0  3  0  0  0  0  0  0
  161.4470  208.0290  156.5510 C   0  0  0  0  0  2  0  0  0  0  0  0
  161.9170  208.9900  155.6720 F   0  0  0  0  0  0  0  0  0  0  0  0
  2  3  1  0  0  0  0
  3  7  1  0  0  0  0
  3  4  2  0  0  0  0
  4  5  2  0  0  0  0
  5 12  1  0  0  0  0
  5  8  1  0  0  0  0
  6  9  1  0  0  0  0
  7 11  1  0  0  0  0
  8 32  1  1  0  0  0
  9  1  2  0  0  0  0
 10 11  1  6  0  0  0
 10  8  1  0  0  0  0
 10  1  1  0  0  0  0
 11  6  2  0  0  0  0
 12 13  1  0  0  0  0
 14 13  1  0  0  0  0
 16 19  1  1  0  0  0
 17 15  1  1  0  0  0
 17 18  1  0  0  0  0
 17 16  1  0  0  0  0
 18 14  1  6  0  0  0
 18 16  1  0  0  0  0
 19 20  1  0  0  0  0
 20 21  1  1  0  0  0
 20 22  1  0  0  0  0
 22 30  1  6  0  0  0
 22 25  1  0  0  0  0
 23 26  1  0  0  0  0
 23 24  2  0  0  0  0
 25 23  1  0  0  0  0
 26 28  1  0  0  0  0
 27 28  1  0  0  0  0
 28 29  1  6  0  0  0
 30 31  2  0  0  0  0
 32 33  1  0  0  0  0
 33 35  1  0  0  0  0
 35 34  2  0  0  0  0
 35 36  1  0  0  0  0
 36 37  1  0  0  0  0
 37 39  1  0  0  0  0
 39 38  1  6  0  0  0
 39 40  1  0  0  0  0
 41 40  1  0  0  0  0
M  END
>  <MODEL>
7

>  <REMARK>
 VINA RESULT:      -6.2      3.348      9.999
  Name = 
  18 active torsions:
  status: ('A' for Active; 'I' for Inactive)
    1  A    between atoms: C_4  and  C_28
    2  A    between atoms: C_4  and  C_34
    3  A    between atoms: C_5  and  C_7
    4  A    between atoms: C_7  and  N_16
    5  A    between atoms: C_7  and  C_31
    6  A    between atoms: C_8  and  C_18
    7  A    between atoms: C_8  and  C_28
    8  A    between atoms: C_9  and  C_14
    9  A    between atoms: C_10  and  C_25
   10  A    between atoms: C_14  and  C_30
   11  A    between atoms: C_20  and  C_39
   12  A    between atoms: C_22  and  N_32
   13  A    between atoms: C_22  and  C_38
   14  A    between atoms: C_25  and  C_31
   15  A    between atoms: C_26  and  N_32
   16  A    between atoms: O_27  and  C_33
   17  A    between atoms: O_27  and  C_38
   18  A    between atoms: C_33  and  C_39
                            x       y       z     vdW  Elec       q    Type
                         _______ _______ _______ _____ _____    ______ ____

>  <TORSDO>
F 18

$$$$
=
 OpenBabel11052412153D

 41 43  0  0  1  0  0  0  0  0999 V2000
  162.5730  206.1160  147.0760 N   0  0  0  0  0  0  0  0  0  0  0  0
  160.2310  202.7880  151.4800 C   0  0  0  0  0  1  0  0  0  0  0  0
  160.7890  203.7650  150.5100 C   0  0  0  0  0  0  0  0  0  0  0  0
  161.1110  204.9620  150.8650 C   0  0  0  0  0  0  0  0  0  0  0  0
  161.5180  206.1840  150.7620 C   0  0  0  0  0  0  0  0  0  0  0  0
  161.1950  204.2110  146.8720 N   0  0  0  0  0  0  0  0  0  0  0  0
  160.8350  203.4790  149.1050 N   0  0  0  0  0  2  0  0  0  0  0  0
  161.6900  206.6610  149.3320 C   0  0  2  0  0  3  0  0  0  0  0  0
  161.9000  205.2300  146.1180 C   0  0  0  0  0  3  0  0  0  0  0  0
  162.2890  205.5620  148.4010 C   0  0  1  0  0  3  0  0  0  0  0  0
  161.3760  204.3980  148.1250 C   0  0  0  0  0  0  0  0  0  0  0  0
  162.0360  206.9280  151.9490 C   0  0  0  0  0  2  0  0  0  0  0  0
  160.9020  207.6580  152.6510 C   0  0  0  0  0  2  0  0  0  0  0  0
  160.8390  207.2590  154.1150 C   0  0  0  0  0  2  0  0  0  0  0  0
  162.3720  208.9210  157.0440 N   0  0  0  0  0  1  0  0  0  0  0  0
  160.1020  208.5510  156.0900 C   0  0  2  0  0  3  0  0  0  0  0  0
  161.4830  207.9650  156.4000 C   0  0  1  0  0  3  0  0  0  0  0  0
  161.1500  208.4500  155.0040 C   0  0  1  0  0  3  0  0  0  0  0  0
  159.9250  210.0140  156.4830 C   0  0  0  0  0  2  0  0  0  0  0  0
  159.3210  210.8090  155.3320 C   0  0  1  0  0  3  0  0  0  0  0  0
  157.8490  210.4410  155.2410 C   0  0  0  0  0  1  0  0  0  0  0  0
  159.4970  212.3230  155.5420 C   0  0  1  0  0  3  0  0  0  0  0  0
  157.7440  213.8860  154.5610 C   0  0  0  0  0  0  0  0  0  0  0  0
  156.6030  214.4080  154.6630 O   0  0  0  0  0  0  0  0  0  0  0  0
  158.1950  212.9840  155.5750 N   0  0  0  0  0  2  0  0  0  0  0  0
  158.5880  214.1850  153.3600 C   0  0  0  0  0  2  0  0  0  0  0  0
  157.8830  214.1370  151.0260 N   0  0  0  0  0  1  0  0  0  0  0  0
  158.1940  213.3100  152.1790 C   0  0  1  0  0  3  0  0  0  0  0  0
  159.3440  212.3870  151.8380 C   0  0  0  0  0  1  0  0  0  0  0  0
  160.2170  212.6120  156.8250 C   0  0  0  0  0  3  0  0  0  0  0  0
  160.3650  213.8620  157.2600 C   0  0  0  0  0  2  0  0  0  0  0  0
  162.5090  207.8650  149.2890 N   0  0  0  0  0  2  0  0  0  0  0  0
  161.6510  208.9430  148.8300 C   0  0  0  0  0  2  0  0  0  0  0  0
  162.0030  210.1510  150.8450 O   0  0  0  0  0  0  0  0  0  0  0  0
  161.9600  210.1840  149.5850 C   0  0  0  0  0  0  0  0  0  0  0  0
  162.1660  211.3780  148.8890 O   0  0  0  0  0  0  0  0  0  0  0  0
  161.3280  211.7860  147.8150 C   0  0  0  0  0  2  0  0  0  0  0  0
  163.0090  212.8490  146.4870 F   0  0  0  0  0  0  0  0  0  0  0  0
  161.8430  213.0790  147.1980 C   0  0  2  0  0  3  0  0  0  0  0  0
  162.1000  214.1110  148.2850 C   0  0  0  0  0  2  0  0  0  0  0  0
  161.2290  213.9250  149.3440 F   0  0  0  0  0  0  0  0  0  0  0  0
  3  4  2  0  0  0  0
  3  2  1  0  0  0  0
  5  4  2  0  0  0  0
  5 12  1  0  0  0  0
  6 11  2  0  0  0  0
  7  3  1  0  0  0  0
  8 32  1  1  0  0  0
  8  5  1  0  0  0  0
  9  6  1  0  0  0  0
  9  1  2  0  0  0  0
 10  1  1  6  0  0  0
 10  8  1  0  0  0  0
 11 10  1  0  0  0  0
 11  7  1  0  0  0  0
 12 13  1  0  0  0  0
 13 14  1  0  0  0  0
 16 17  1  0  0  0  0
 16 19  1  1  0  0  0
 17 15  1  1  0  0  0
 18 14  1  6  0  0  0
 18 16  1  0  0  0  0
 18 17  1  0  0  0  0
 20 21  1  1  0  0  0
 20 22  1  0  0  0  0
 20 19  1  0  0  0  0
 22 25  1  0  0  0  0
 22 30  1  1  0  0  0
 23 24  2  0  0  0  0
 23 25  1  0  0  0  0
 26 23  1  0  0  0  0
 27 28  1  0  0  0  0
 28 29  1  6  0  0  0
 28 26  1  0  0  0  0
 30 31  2  0  0  0  0
 33 32  1  0  0  0  0
 33 35  1  0  0  0  0
 35 34  2  0  0  0  0
 36 35  1  0  0  0  0
 37 36  1  0  0  0  0
 39 38  1  1  0  0  0
 39 37  1  0  0  0  0
 39 40  1  0  0  0  0
 40 41  1  0  0  0  0
M  END
>  <MODEL>
8

>  <REMARK>
 VINA RESULT:      -6.2      2.367      8.816
  Name = 
  18 active torsions:
  status: ('A' for Active; 'I' for Inactive)
    1  A    between atoms: C_4  and  C_28
    2  A    between atoms: C_4  and  C_34
    3  A    between atoms: C_5  and  C_7
    4  A    between atoms: C_7  and  N_16
    5  A    between atoms: C_7  and  C_31
    6  A    between atoms: C_8  and  C_18
    7  A    between atoms: C_8  and  C_28
    8  A    between atoms: C_9  and  C_14
    9  A    between atoms: C_10  and  C_25
   10  A    between atoms: C_14  and  C_30
   11  A    between atoms: C_20  and  C_39
   12  A    between atoms: C_22  and  N_32
   13  A    between atoms: C_22  and  C_38
   14  A    between atoms: C_25  and  C_31
   15  A    between atoms: C_26  and  N_32
   16  A    between atoms: O_27  and  C_33
   17  A    between atoms: O_27  and  C_38
   18  A    between atoms: C_33  and  C_39
                            x       y       z     vdW  Elec       q    Type
                         _______ _______ _______ _____ _____    ______ ____

>  <TORSDO>
F 18

$$$$
=
 OpenBabel11052412153D

 41 43  0  0  1  0  0  0  0  0999 V2000
  162.0800  205.6150  151.7400 N   0  0  0  0  0  0  0  0  0  0  0  0
  160.8000  211.2570  153.3180 C   0  0  0  0  0  1  0  0  0  0  0  0
  161.0970  209.9200  152.7420 C   0  0  0  0  0  0  0  0  0  0  0  0
  161.3410  209.7650  151.4850 C   0  0  0  0  0  0  0  0  0  0  0  0
  161.5960  209.1650  150.3700 C   0  0  0  0  0  0  0  0  0  0  0  0
  160.8970  206.3510  153.6440 N   0  0  0  0  0  0  0  0  0  0  0  0
  160.9600  208.7240  153.5210 N   0  0  0  0  0  2  0  0  0  0  0  0
  161.4970  207.6520  150.4440 C   0  0  2  0  0  3  0  0  0  0  0  0
  161.3680  205.1720  152.9440 C   0  0  0  0  0  3  0  0  0  0  0  0
  162.0610  207.0790  151.7800 C   0  0  1  0  0  3  0  0  0  0  0  0
  161.2450  207.4020  153.0030 C   0  0  0  0  0  0  0  0  0  0  0  0
  162.2070  209.8970  149.2200 C   0  0  0  0  0  2  0  0  0  0  0  0
  161.7820  211.3570  149.2390 C   0  0  0  0  0  2  0  0  0  0  0  0
  162.6210  212.1670  148.2660 C   0  0  0  0  0  2  0  0  0  0  0  0
  159.4510  213.6350  147.0450 N   0  0  0  0  0  1  0  0  0  0  0  0
  161.6620  212.9510  146.1260 C   0  0  2  0  0  3  0  0  0  0  0  0
  160.5000  212.6260  147.0700 C   0  0  1  0  0  3  0  0  0  0  0  0
  161.7770  213.2430  147.6060 C   0  0  1  0  0  3  0  0  0  0  0  0
  161.5180  214.2640  145.3640 C   0  0  0  0  0  2  0  0  0  0  0  0
  162.4430  214.2840  144.1530 C   0  0  1  0  0  3  0  0  0  0  0  0
  163.5800  213.3130  144.4260 C   0  0  0  0  0  1  0  0  0  0  0  0
  161.6920  213.9020  142.8660 C   0  0  1  0  0  3  0  0  0  0  0  0
  162.1590  212.0800  141.1520 C   0  0  0  0  0  0  0  0  0  0  0  0
  162.4140  210.8680  140.9260 O   0  0  0  0  0  0  0  0  0  0  0  0
  161.9810  212.5180  142.5020 N   0  0  0  0  0  2  0  0  0  0  0  0
  162.0900  213.0450  140.0090 C   0  0  0  0  0  2  0  0  0  0  0  0
  161.1720  211.9190  138.0510 N   0  0  0  0  0  1  0  0  0  0  0  0
  162.4010  212.3580  138.6880 C   0  0  1  0  0  3  0  0  0  0  0  0
  163.1170  213.3320  137.7770 C   0  0  0  0  0  1  0  0  0  0  0  0
  160.2090  214.0550  143.0380 C   0  0  0  0  0  3  0  0  0  0  0  0
  159.4330  212.9940  143.2490 C   0  0  0  0  0  2  0  0  0  0  0  0
  162.1680  207.0400  149.3050 N   0  0  0  0  0  2  0  0  0  0  0  0
  161.1280  206.5670  148.4070 C   0  0  0  0  0  2  0  0  0  0  0  0
  160.5340  204.5300  149.4750 O   0  0  0  0  0  0  0  0  0  0  0  0
  161.0520  205.0850  148.4680 C   0  0  0  0  0  0  0  0  0  0  0  0
  161.5860  204.3270  147.4230 O   0  0  0  0  0  0  0  0  0  0  0  0
  162.3830  204.9030  146.3960 C   0  0  0  0  0  2  0  0  0  0  0  0
  160.7590  205.9590  144.9920 F   0  0  0  0  0  0  0  0  0  0  0  0
  161.6350  204.8890  145.0700 C   0  0  2  0  0  3  0  0  0  0  0  0
  160.8670  203.5850  144.9160 C   0  0  0  0  0  2  0  0  0  0  0  0
  159.6330  203.8160  144.3350 F   0  0  0  0  0  0  0  0  0  0  0  0
  1  9  2  0  0  0  0
  3  2  1  0  0  0  0
  3  7  1  0  0  0  0
  4  3  2  0  0  0  0
  5  8  1  0  0  0  0
  5  4  2  0  0  0  0
  8 32  1  6  0  0  0
  8 10  1  0  0  0  0
  9  6  1  0  0  0  0
 10  1  1  6  0  0  0
 10 11  1  0  0  0  0
 11  7  1  0  0  0  0
 11  6  2  0  0  0  0
 12 13  1  0  0  0  0
 12  5  1  0  0  0  0
 14 13  1  0  0  0  0
 16 19  1  6  0  0  0
 16 17  1  0  0  0  0
 16 18  1  0  0  0  0
 17 15  1  6  0  0  0
 17 18  1  0  0  0  0
 18 14  1  1  0  0  0
 20 21  1  1  0  0  0
 20 19  1  0  0  0  0
 22 30  1  1  0  0  0
 22 20  1  0  0  0  0
 23 25  1  0  0  0  0
 24 23  2  0  0  0  0
 25 22  1  0  0  0  0
 26 23  1  0  0  0  0
 27 28  1  0  0  0  0
 28 29  1  6  0  0  0
 28 26  1  0  0  0  0
 30 31  2  0  0  0  0
 33 35  1  0  0  0  0
 33 32  1  0  0  0  0
 35 34  2  0  0  0  0
 36 35  1  0  0  0  0
 37 36  1  0  0  0  0
 39 38  1  1  0  0  0
 39 37  1  0  0  0  0
 40 39  1  0  0  0  0
 41 40  1  0  0  0  0
M  END
>  <MODEL>
9

>  <REMARK>
 VINA RESULT:      -6.2      4.515      8.354
  Name = 
  18 active torsions:
  status: ('A' for Active; 'I' for Inactive)
    1  A    between atoms: C_4  and  C_28
    2  A    between atoms: C_4  and  C_34
    3  A    between atoms: C_5  and  C_7
    4  A    between atoms: C_7  and  N_16
    5  A    between atoms: C_7  and  C_31
    6  A    between atoms: C_8  and  C_18
    7  A    between atoms: C_8  and  C_28
    8  A    between atoms: C_9  and  C_14
    9  A    between atoms: C_10  and  C_25
   10  A    between atoms: C_14  and  C_30
   11  A    between atoms: C_20  and  C_39
   12  A    between atoms: C_22  and  N_32
   13  A    between atoms: C_22  and  C_38
   14  A    between atoms: C_25  and  C_31
   15  A    between atoms: C_26  and  N_32
   16  A    between atoms: O_27  and  C_33
   17  A    between atoms: O_27  and  C_38
   18  A    between atoms: C_33  and  C_39
                            x       y       z     vdW  Elec       q    Type
                         _______ _______ _______ _____ _____    ______ ____

>  <TORSDO>
F 18

$$$$
