=
 OpenBabel11052412173D

 52 57  0  0  1  0  0  0  0  0999 V2000
  160.9180  210.5700  151.2050 C   0  0  2  0  0  3  0  0  0  0  0  0
  160.7690  211.4150  153.9230 C   0  0  0  0  0  2  0  0  0  0  0  0
  159.8200  211.7860  152.7720 C   0  0  2  0  0  3  0  0  0  0  0  0
  160.5490  211.8790  151.5750 O   0  0  0  0  0  0  0  0  0  0  0  0
  161.3920  210.0570  153.6320 C   0  0  1  0  0  3  0  0  0  0  0  0
  161.9390  209.9800  152.1980 C   0  0  1  0  0  3  0  0  0  0  0  0
  162.4130  209.8150  154.5530 O   0  0  0  0  0  1  0  0  0  0  0  0
  156.7710  214.4520  153.8490 C   0  0  0  0  0  2  0  0  0  0  0  0
  157.1050  214.3410  152.3650 C   0  0  0  0  0  2  0  0  0  0  0  0
  157.9980  214.4080  154.6430 N   0  0  0  0  0  0  0  0  0  0  0  0
  159.0790  213.0320  153.0070 N   0  0  1  0  0  0  0  0  0  0  0  0
  157.9020  213.0600  152.1340 C   0  0  0  0  0  2  0  0  0  0  0  0
  158.6410  213.1190  154.4070 C   0  0  0  0  0  2  0  0  0  0  0  0
  157.6060  214.4280  156.0440 C   0  0  0  0  0  2  0  0  0  0  0  0
  156.1090  212.5240  155.8460 C   0  0  0  0  0  2  0  0  0  0  0  0
  156.1110  212.9340  157.2590 N   0  0  0  0  0  2  0  0  0  0  0  0
  156.1760  213.9400  156.1880 C   0  0  1  0  0  3  0  0  0  0  0  0
  161.4830  210.5720  149.7820 C   0  0  2  0  0  3  0  0  0  0  0  0
  162.1630  209.3770  149.5120 O   0  0  0  0  0  0  0  0  0  0  0  0
  162.0830  209.2240  148.2070 O   0  0  0  0  0  0  0  0  0  0  0  0
  161.5090  208.0490  148.0440 O   0  0  0  0  0  1  0  0  0  0  0  0
  162.4210  211.7530  149.6000 C   0  0  0  0  0  2  0  0  0  0  0  0
  161.9010  212.6830  148.5160 C   0  0  0  0  0  2  0  0  0  0  0  0
  160.6560  212.1060  147.8610 C   0  0  0  0  0  2  0  0  0  0  0  0
  159.6990  213.2230  147.4690 C   0  0  0  0  0  2  0  0  0  0  0  0
  157.7230  212.1370  146.6720 F   0  0  0  0  0  0  0  0  0  0  0  0
  158.4380  213.9910  145.5970 F   0  0  0  0  0  0  0  0  0  0  0  0
  159.5840  212.0640  145.4110 F   0  0  0  0  0  0  0  0  0  0  0  0
  158.8380  212.8490  146.2670 C   0  0  0  0  0  0  0  0  0  0  0  0
  162.2110  208.5190  151.8410 C   0  0  0  0  0  2  0  0  0  0  0  0
  160.7100  207.5100  152.0310 S   0  0  0  0  0  0  0  0  0  0  0  0
  161.6690  206.0280  152.4840 C   0  0  2  0  0  3  0  0  0  0  0  0
  161.5100  204.9850  151.4800 N   0  0  0  0  0  0  0  0  0  0  0  0
  161.4210  203.8240  149.4460 C   0  0  0  0  0  0  0  0  0  0  0  0
  161.9190  206.1890  149.4840 O   0  0  0  0  0  0  0  0  0  0  0  0
  161.1930  203.5960  151.7770 C   0  0  0  0  0  2  0  0  0  0  0  0
  160.8920  201.4900  150.2440 C   0  0  0  0  0  1  0  0  0  0  0  0
  161.6460  205.1100  150.0740 C   0  0  0  0  0  0  0  0  0  0  0  0
  161.1600  202.9450  150.4210 C   0  0  0  0  0  0  0  0  0  0  0  0
  159.9010  202.4220  145.3280 N   0  0  0  0  0  2  0  0  0  0  0  0
  161.1300  202.2900  147.4200 C   0  0  0  0  0  2  0  0  0  0  0  0
  159.8370  203.5010  144.3550 C   0  0  0  0  0  2  0  0  0  0  0  0
  161.7730  203.9020  145.7000 C   0  0  2  0  0  3  0  0  0  0  0  0
  161.2300  202.4970  145.9200 C   0  0  2  0  0  3  0  0  0  0  0  0
  161.4770  203.5590  148.0300 N   0  0  0  0  0  0  0  0  0  0  0  0
  161.8400  204.5720  147.0600 C   0  0  0  0  0  2  0  0  0  0  0  0
  161.3790  205.2030  143.7510 O   0  0  0  0  0  1  0  0  0  0  0  0
  160.7500  204.5990  144.8400 C   0  0  1  0  0  3  0  0  0  0  0  0
  161.2820  205.5230  153.8640 C   0  0  0  0  0  2  0  0  0  0  0  0
  160.7690  206.6350  154.6700 C   0  0  0  0  0  0  0  0  0  0  0  0
  159.8100  208.6260  156.1640 C   0  0  0  0  0  1  0  0  0  0  0  0
  160.3380  207.5370  155.3430 C   0  0  0  0  0  0  0  0  0  0  0  0
  1 18  1  6  0  0  0
  1  4  1  0  0  0  0
  1  6  1  0  0  0  0
  3 11  1  0  0  0  0
  3  2  1  1  0  0  0
  4  3  1  0  0  0  0
  5  2  1  0  0  0  0
  5  7  1  1  0  0  0
  6 30  1  6  0  0  0
  6  5  1  0  0  0  0
  8 10  1  0  0  0  0
  9  8  1  0  0  0  0
 10 14  1  0  0  0  0
 11 12  1  6  0  0  0
 11 13  1  0  0  0  0
 12  9  1  0  0  0  0
 13 10  1  0  0  0  0
 15 17  1  0  0  0  0
 15 16  1  0  0  0  0
 17 14  1  1  0  0  0
 17 16  1  0  0  0  0
 18 22  1  1  0  0  0
 19 18  1  0  0  0  0
 20 19  1  0  0  0  0
 21 20  1  0  0  0  0
 23 22  1  0  0  0  0
 24 23  1  0  0  0  0
 25 24  1  0  0  0  0
 27 29  1  0  0  0  0
 28 29  1  0  0  0  0
 29 26  1  0  0  0  0
 29 25  1  0  0  0  0
 30 31  1  0  0  0  0
 31 32  1  0  0  0  0
 32 49  1  1  0  0  0
 33 36  1  0  0  0  0
 33 32  1  0  0  0  0
 34 38  1  0  0  0  0
 34 39  2  0  0  0  0
 35 38  2  0  0  0  0
 37 39  1  0  0  0  0
 38 33  1  0  0  0  0
 39 36  1  0  0  0  0
 40 44  1  0  0  0  0
 41 45  1  0  0  0  0
 42 48  1  0  0  0  0
 42 40  1  0  0  0  0
 43 44  1  0  0  0  0
 43 46  1  1  0  0  0
 44 41  1  1  0  0  0
 45 34  1  0  0  0  0
 46 45  1  0  0  0  0
 48 47  1  6  0  0  0
 48 43  1  0  0  0  0
 49 50  1  0  0  0  0
 50 52  3  0  0  0  0
 52 51  1  0  0  0  0
M  END
>  <MODEL>
1

>  <REMARK>
 VINA RESULT:      -6.1      0.000      0.000
  Name = 
  18 active torsions:
  status: ('A' for Active; 'I' for Inactive)
    1  A    between atoms: C_5  and  C_16
    2  A    between atoms: C_8  and  C_27
    3  A    between atoms: N_9  and  C_41
    4  A    between atoms: C_11  and  C_32
    5  A    between atoms: C_11  and  C_42
    6  A    between atoms: C_12  and  S_15
    7  A    between atoms: C_12  and  C_40
    8  A    between atoms: O_13  and  O_18
    9  A    between atoms: C_14  and  C_16
   10  A    between atoms: C_14  and  C_43
   11  A    between atoms: S_15  and  C_49
   12  A    between atoms: C_16  and  O_18
   13  A    between atoms: N_19  and  C_49
   14  A    between atoms: N_21  and  C_30
   15  A    between atoms: N_24  and  C_26
   16  A    between atoms: C_27  and  C_49
   17  A    between atoms: C_41  and  C_52
   18  A    between atoms: C_42  and  C_43
                            x       y       z     vdW  Elec       q    Type
                         _______ _______ _______ _____ _____    ______ ____

>  <TORSDO>
F 18

$$$$
=
 OpenBabel11052412173D

 52 57  0  0  1  0  0  0  0  0999 V2000
  161.0360  209.2550  150.8850 C   0  0  2  0  0  3  0  0  0  0  0  0
  162.5310  208.2240  148.6890 C   0  0  0  0  0  2  0  0  0  0  0  0
  161.5100  207.4770  149.5620 C   0  0  2  0  0  3  0  0  0  0  0  0
  161.5810  207.9560  150.8810 O   0  0  0  0  0  0  0  0  0  0  0  0
  162.1860  209.7070  148.6830 C   0  0  1  0  0  3  0  0  0  0  0  0
  161.9320  210.2360  150.1030 C   0  0  1  0  0  3  0  0  0  0  0  0
  163.2250  210.4160  148.0800 O   0  0  0  0  0  1  0  0  0  0  0  0
  160.8250  203.4000  148.8790 C   0  0  0  0  0  2  0  0  0  0  0  0
  160.7680  203.8810  150.3250 C   0  0  0  0  0  2  0  0  0  0  0  0
  161.9130  204.0720  148.1690 N   0  0  0  0  0  0  0  0  0  0  0  0
  161.6870  206.0200  149.5460 N   0  0  1  0  0  0  0  0  0  0  0  0
  160.6160  205.4000  150.3320 C   0  0  0  0  0  2  0  0  0  0  0  0
  161.6330  205.5050  148.1710 C   0  0  0  0  0  2  0  0  0  0  0  0
  161.8560  203.6380  146.7830 C   0  0  0  0  0  2  0  0  0  0  0  0
  161.6330  204.7770  144.6480 C   0  0  0  0  0  2  0  0  0  0  0  0
  160.4510  203.9170  144.8110 N   0  0  0  0  0  2  0  0  0  0  0  0
  161.0320  204.6160  145.9670 C   0  0  1  0  0  3  0  0  0  0  0  0
  160.8400  209.7320  152.3280 C   0  0  2  0  0  3  0  0  0  0  0  0
  159.8590  210.7300  152.3970 O   0  0  0  0  0  0  0  0  0  0  0  0
  158.8740  210.1950  153.0850 O   0  0  0  0  0  0  0  0  0  0  0  0
  158.4110  211.1810  153.8250 O   0  0  0  0  0  1  0  0  0  0  0  0
  162.1530  210.2590  152.8800 C   0  0  0  0  0  2  0  0  0  0  0  0
  162.5320  209.5190  154.1520 C   0  0  0  0  0  2  0  0  0  0  0  0
  161.4000  209.5750  155.1660 C   0  0  0  0  0  2  0  0  0  0  0  0
  161.5250  208.4330  156.1640 C   0  0  0  0  0  2  0  0  0  0  0  0
  160.3890  206.5470  157.0940 F   0  0  0  0  0  0  0  0  0  0  0  0
  159.1820  208.0590  155.9280 F   0  0  0  0  0  0  0  0  0  0  0  0
  160.6090  206.6850  154.8600 F   0  0  0  0  0  0  0  0  0  0  0  0
  160.4020  207.4120  156.0160 C   0  0  0  0  0  0  0  0  0  0  0  0
  161.2440  211.5980  150.0170 C   0  0  0  0  0  2  0  0  0  0  0  0
  160.6000  211.9000  148.3430 S   0  0  0  0  0  0  0  0  0  0  0  0
  160.2120  213.6400  148.7220 C   0  0  2  0  0  3  0  0  0  0  0  0
  159.0320  213.7310  149.5710 N   0  0  0  0  0  0  0  0  0  0  0  0
  157.6130  213.9320  151.4250 C   0  0  0  0  0  0  0  0  0  0  0  0
  160.0110  213.8890  151.7200 O   0  0  0  0  0  0  0  0  0  0  0  0
  157.6620  213.7280  149.0810 C   0  0  0  0  0  2  0  0  0  0  0  0
  155.3520  213.9250  150.3050 C   0  0  0  0  0  1  0  0  0  0  0  0
  158.9910  213.8560  150.9820 C   0  0  0  0  0  0  0  0  0  0  0  0
  156.8400  213.8600  150.3340 C   0  0  0  0  0  0  0  0  0  0  0  0
  155.6300  212.6690  155.3880 N   0  0  0  0  0  2  0  0  0  0  0  0
  155.8240  213.8040  153.2480 C   0  0  0  0  0  2  0  0  0  0  0  0
  156.5730  212.6010  156.4930 C   0  0  0  0  0  2  0  0  0  0  0  0
  157.2370  214.4530  155.1330 C   0  0  2  0  0  3  0  0  0  0  0  0
  155.8450  213.9640  154.7570 C   0  0  2  0  0  3  0  0  0  0  0  0
  157.1750  214.0650  152.7910 N   0  0  0  0  0  0  0  0  0  0  0  0
  158.0750  214.4270  153.8670 C   0  0  0  0  0  2  0  0  0  0  0  0
  158.2610  214.0930  157.2460 O   0  0  0  0  0  1  0  0  0  0  0  0
  157.7680  213.4420  156.1160 C   0  0  1  0  0  3  0  0  0  0  0  0
  160.0360  214.4530  147.4500 C   0  0  0  0  0  2  0  0  0  0  0  0
  161.0540  214.0630  146.4700 C   0  0  0  0  0  0  0  0  0  0  0  0
  162.9180  213.3140  144.7150 C   0  0  0  0  0  1  0  0  0  0  0  0
  161.8950  213.7280  145.6740 C   0  0  0  0  0  0  0  0  0  0  0  0
  1 18  1  1  0  0  0
  3  2  1  6  0  0  0
  3  4  1  0  0  0  0
  4  1  1  0  0  0  0
  5  7  1  1  0  0  0
  5  2  1  0  0  0  0
  5  6  1  0  0  0  0
  6 30  1  6  0  0  0
  6  1  1  0  0  0  0
  8  9  1  0  0  0  0
  9 12  1  0  0  0  0
 10 13  1  0  0  0  0
 10  8  1  0  0  0  0
 11 13  1  6  0  0  0
 11  3  1  0  0  0  0
 11 12  1  0  0  0  0
 14 10  1  0  0  0  0
 15 16  1  0  0  0  0
 15 17  1  0  0  0  0
 16 17  1  0  0  0  0
 17 14  1  1  0  0  0
 18 19  1  0  0  0  0
 18 22  1  6  0  0  0
 19 20  1  0  0  0  0
 20 21  1  0  0  0  0
 22 23  1  0  0  0  0
 23 24  1  0  0  0  0
 24 25  1  0  0  0  0
 27 29  1  0  0  0  0
 28 29  1  0  0  0  0
 29 25  1  0  0  0  0
 29 26  1  0  0  0  0
 31 32  1  0  0  0  0
 31 30  1  0  0  0  0
 32 49  1  6  0  0  0
 32 33  1  0  0  0  0
 33 38  1  0  0  0  0
 34 45  1  0  0  0  0
 36 33  1  0  0  0  0
 36 39  1  0  0  0  0
 37 39  1  0  0  0  0
 38 34  1  0  0  0  0
 38 35  2  0  0  0  0
 39 34  2  0  0  0  0
 40 42  1  0  0  0  0
 43 46  1  6  0  0  0
 43 48  1  0  0  0  0
 44 41  1  6  0  0  0
 44 43  1  0  0  0  0
 44 40  1  0  0  0  0
 45 41  1  0  0  0  0
 45 46  1  0  0  0  0
 48 42  1  0  0  0  0
 48 47  1  1  0  0  0
 50 49  1  0  0  0  0
 51 52  1  0  0  0  0
 52 50  3  0  0  0  0
M  END
>  <MODEL>
2

>  <REMARK>
 VINA RESULT:      -6.1      3.374     10.753
  Name = 
  18 active torsions:
  status: ('A' for Active; 'I' for Inactive)
    1  A    between atoms: C_5  and  C_16
    2  A    between atoms: C_8  and  C_27
    3  A    between atoms: N_9  and  C_41
    4  A    between atoms: C_11  and  C_32
    5  A    between atoms: C_11  and  C_42
    6  A    between atoms: C_12  and  S_15
    7  A    between atoms: C_12  and  C_40
    8  A    between atoms: O_13  and  O_18
    9  A    between atoms: C_14  and  C_16
   10  A    between atoms: C_14  and  C_43
   11  A    between atoms: S_15  and  C_49
   12  A    between atoms: C_16  and  O_18
   13  A    between atoms: N_19  and  C_49
   14  A    between atoms: N_21  and  C_30
   15  A    between atoms: N_24  and  C_26
   16  A    between atoms: C_27  and  C_49
   17  A    between atoms: C_41  and  C_52
   18  A    between atoms: C_42  and  C_43
                            x       y       z     vdW  Elec       q    Type
                         _______ _______ _______ _____ _____    ______ ____

>  <TORSDO>
F 18

$$$$
=
 OpenBabel11052412173D

 52 57  0  0  1  0  0  0  0  0999 V2000
  162.3720  208.2310  149.4520 C   0  0  2  0  0  3  0  0  0  0  0  0
  161.5900  208.3630  152.1900 C   0  0  0  0  0  2  0  0  0  0  0  0
  162.2920  207.2010  151.4700 C   0  0  2  0  0  3  0  0  0  0  0  0
  161.8350  207.1270  150.1430 O   0  0  0  0  0  0  0  0  0  0  0  0
  161.9420  209.6660  151.4850 C   0  0  1  0  0  3  0  0  0  0  0  0
  161.7650  209.5540  149.9630 C   0  0  1  0  0  3  0  0  0  0  0  0
  161.1410  210.6910  151.9910 O   0  0  0  0  0  1  0  0  0  0  0  0
  160.6410  203.5260  152.6230 C   0  0  0  0  0  2  0  0  0  0  0  0
  160.6830  204.6300  153.6760 C   0  0  0  0  0  2  0  0  0  0  0  0
  161.8700  203.5420  151.8320 N   0  0  0  0  0  0  0  0  0  0  0  0
  162.1070  205.9060  152.1380 N   0  0  1  0  0  0  0  0  0  0  0  0
  160.9070  205.9680  152.9760 C   0  0  0  0  0  2  0  0  0  0  0  0
  161.9490  204.8300  151.1490 C   0  0  0  0  0  2  0  0  0  0  0  0
  161.7290  202.5300  150.7960 C   0  0  0  0  0  2  0  0  0  0  0  0
  160.5620  202.4640  148.6670 C   0  0  0  0  0  2  0  0  0  0  0  0
  159.9950  201.3990  149.5100 N   0  0  0  0  0  2  0  0  0  0  0  0
  160.3910  202.6880  150.0970 C   0  0  1  0  0  3  0  0  0  0  0  0
  162.1330  208.0700  147.9480 C   0  0  2  0  0  3  0  0  0  0  0  0
  160.8050  207.7060  147.6880 O   0  0  0  0  0  0  0  0  0  0  0  0
  160.5260  206.7690  148.5690 O   0  0  0  0  0  0  0  0  0  0  0  0
  159.5850  206.0460  147.9990 O   0  0  0  0  0  1  0  0  0  0  0  0
  163.0760  207.0200  147.3850 C   0  0  0  0  0  2  0  0  0  0  0  0
  162.5470  205.6230  147.6670 C   0  0  0  0  0  2  0  0  0  0  0  0
  162.5810  204.7700  146.4090 C   0  0  0  0  0  2  0  0  0  0  0  0
  162.4840  205.6480  145.1700 C   0  0  0  0  0  2  0  0  0  0  0  0
  160.2120  206.3030  144.8200 F   0  0  0  0  0  0  0  0  0  0  0  0
  161.4070  205.5820  143.0440 F   0  0  0  0  0  0  0  0  0  0  0  0
  160.7540  204.1280  144.6320 F   0  0  0  0  0  0  0  0  0  0  0  0
  161.1880  205.4180  144.4000 C   0  0  0  0  0  0  0  0  0  0  0  0
  162.4670  210.7310  149.2870 C   0  0  0  0  0  2  0  0  0  0  0  0
  161.4700  211.3850  147.9140 S   0  0  0  0  0  0  0  0  0  0  0  0
  161.4420  213.0610  148.6300 C   0  0  2  0  0  3  0  0  0  0  0  0
  160.1200  213.3730  149.1570 N   0  0  0  0  0  0  0  0  0  0  0  0
  158.3350  213.8530  150.5990 C   0  0  0  0  0  0  0  0  0  0  0  0
  160.5360  213.3950  151.4870 O   0  0  0  0  0  0  0  0  0  0  0  0
  158.9390  213.6010  148.3380 C   0  0  0  0  0  2  0  0  0  0  0  0
  156.4650  214.2230  148.9460 C   0  0  0  0  0  1  0  0  0  0  0  0
  159.7460  213.5280  150.5160 C   0  0  0  0  0  0  0  0  0  0  0  0
  157.8630  213.8980  149.3470 C   0  0  0  0  0  0  0  0  0  0  0  0
  155.1560  213.0850  153.8440 N   0  0  0  0  0  2  0  0  0  0  0  0
  156.1500  214.1430  151.8950 C   0  0  0  0  0  2  0  0  0  0  0  0
  155.7380  212.8040  155.1470 C   0  0  0  0  0  2  0  0  0  0  0  0
  157.1290  214.4520  154.1130 C   0  0  2  0  0  3  0  0  0  0  0  0
  155.8110  214.2960  153.3670 C   0  0  2  0  0  3  0  0  0  0  0  0
  157.5960  214.0850  151.8140 N   0  0  0  0  0  0  0  0  0  0  0  0
  158.2410  214.2320  153.1030 C   0  0  0  0  0  2  0  0  0  0  0  0
  157.4580  213.8680  156.3920 O   0  0  0  0  0  1  0  0  0  0  0  0
  157.1460  213.3460  155.1370 C   0  0  1  0  0  3  0  0  0  0  0  0
  161.8860  214.1010  147.6150 C   0  0  0  0  0  2  0  0  0  0  0  0
  161.5850  213.6270  146.2600 C   0  0  0  0  0  0  0  0  0  0  0  0
  161.0770  212.7900  143.7790 C   0  0  0  0  0  1  0  0  0  0  0  0
  161.3520  213.2470  145.1410 C   0  0  0  0  0  0  0  0  0  0  0  0
  1 18  1  6  0  0  0
  1  6  1  0  0  0  0
  1  4  1  0  0  0  0
  3 11  1  0  0  0  0
  3  2  1  1  0  0  0
  4  3  1  0  0  0  0
  5  7  1  1  0  0  0
  5  2  1  0  0  0  0
  6 30  1  6  0  0  0
  6  5  1  0  0  0  0
  8  9  1  0  0  0  0
 10  8  1  0  0  0  0
 11 13  1  6  0  0  0
 11 12  1  0  0  0  0
 12  9  1  0  0  0  0
 13 10  1  0  0  0  0
 14 10  1  0  0  0  0
 15 16  1  0  0  0  0
 15 17  1  0  0  0  0
 16 17  1  0  0  0  0
 17 14  1  1  0  0  0
 18 22  1  1  0  0  0
 19 18  1  0  0  0  0
 19 20  1  0  0  0  0
 21 20  1  0  0  0  0
 22 23  1  0  0  0  0
 24 23  1  0  0  0  0
 25 24  1  0  0  0  0
 27 29  1  0  0  0  0
 29 28  1  0  0  0  0
 29 26  1  0  0  0  0
 29 25  1  0  0  0  0
 31 32  1  0  0  0  0
 31 30  1  0  0  0  0
 32 49  1  6  0  0  0
 32 33  1  0  0  0  0
 33 38  1  0  0  0  0
 34 45  1  0  0  0  0
 36 33  1  0  0  0  0
 36 39  1  0  0  0  0
 37 39  1  0  0  0  0
 38 34  1  0  0  0  0
 38 35  2  0  0  0  0
 39 34  2  0  0  0  0
 40 42  1  0  0  0  0
 43 46  1  6  0  0  0
 43 48  1  0  0  0  0
 44 41  1  6  0  0  0
 44 40  1  0  0  0  0
 44 43  1  0  0  0  0
 45 41  1  0  0  0  0
 45 46  1  0  0  0  0
 48 42  1  0  0  0  0
 48 47  1  1  0  0  0
 50 49  1  0  0  0  0
 51 52  1  0  0  0  0
 52 50  3  0  0  0  0
M  END
>  <MODEL>
3

>  <REMARK>
 VINA RESULT:      -5.6      2.737      9.924
  Name = 
  18 active torsions:
  status: ('A' for Active; 'I' for Inactive)
    1  A    between atoms: C_5  and  C_16
    2  A    between atoms: C_8  and  C_27
    3  A    between atoms: N_9  and  C_41
    4  A    between atoms: C_11  and  C_32
    5  A    between atoms: C_11  and  C_42
    6  A    between atoms: C_12  and  S_15
    7  A    between atoms: C_12  and  C_40
    8  A    between atoms: O_13  and  O_18
    9  A    between atoms: C_14  and  C_16
   10  A    between atoms: C_14  and  C_43
   11  A    between atoms: S_15  and  C_49
   12  A    between atoms: C_16  and  O_18
   13  A    between atoms: N_19  and  C_49
   14  A    between atoms: N_21  and  C_30
   15  A    between atoms: N_24  and  C_26
   16  A    between atoms: C_27  and  C_49
   17  A    between atoms: C_41  and  C_52
   18  A    between atoms: C_42  and  C_43
                            x       y       z     vdW  Elec       q    Type
                         _______ _______ _______ _____ _____    ______ ____

>  <TORSDO>
F 18

$$$$
=
 OpenBabel11052412173D

 52 57  0  0  1  0  0  0  0  0999 V2000
  161.0210  208.6550  150.0810 C   0  0  2  0  0  3  0  0  0  0  0  0
  162.3880  207.6700  147.7820 C   0  0  0  0  0  2  0  0  0  0  0  0
  161.1030  207.1160  148.4180 C   0  0  2  0  0  3  0  0  0  0  0  0
  161.1630  207.2790  149.8120 O   0  0  0  0  0  0  0  0  0  0  0  0
  162.4900  209.1580  148.0890 C   0  0  1  0  0  3  0  0  0  0  0  0
  162.2440  209.4480  149.5780 C   0  0  1  0  0  3  0  0  0  0  0  0
  163.7510  209.6180  147.7080 O   0  0  0  0  0  1  0  0  0  0  0  0
  161.5300  202.9540  148.1780 C   0  0  0  0  0  2  0  0  0  0  0  0
  161.7070  203.7470  146.8860 C   0  0  0  0  0  2  0  0  0  0  0  0
  160.4340  203.5170  148.9640 N   0  0  0  0  0  0  0  0  0  0  0  0
  160.8510  205.7080  148.0880 N   0  0  1  0  0  0  0  0  0  0  0  0
  161.9370  205.2140  147.2380 C   0  0  0  0  0  2  0  0  0  0  0  0
  160.7860  204.8920  149.3080 C   0  0  0  0  0  2  0  0  0  0  0  0
  160.3760  202.7770  150.2150 C   0  0  0  0  0  2  0  0  0  0  0  0
  161.1350  202.9360  152.5170 C   0  0  0  0  0  2  0  0  0  0  0  0
  162.0840  203.6980  151.6900 N   0  0  0  0  0  2  0  0  0  0  0  0
  160.6460  203.7090  151.3810 C   0  0  1  0  0  3  0  0  0  0  0  0
  160.8120  208.8730  151.5820 C   0  0  2  0  0  3  0  0  0  0  0  0
  161.1290  210.1890  151.9460 O   0  0  0  0  0  0  0  0  0  0  0  0
  160.4600  210.4080  153.0580 O   0  0  0  0  0  0  0  0  0  0  0  0
  159.1960  210.4330  152.6870 O   0  0  0  0  0  1  0  0  0  0  0  0
  161.6710  207.8990  152.3700 C   0  0  0  0  0  2  0  0  0  0  0  0
  160.8380  206.7220  152.8490 C   0  0  0  0  0  2  0  0  0  0  0  0
  161.1000  206.4380  154.3190 C   0  0  0  0  0  2  0  0  0  0  0  0
  161.0060  207.7210  155.1320 C   0  0  0  0  0  2  0  0  0  0  0  0
  158.7570  207.4810  155.9060 F   0  0  0  0  0  0  0  0  0  0  0  0
  160.4050  206.4540  157.0610 F   0  0  0  0  0  0  0  0  0  0  0  0
  160.2010  208.6930  157.1320 F   0  0  0  0  0  0  0  0  0  0  0  0
  160.0700  207.5780  156.3280 C   0  0  0  0  0  0  0  0  0  0  0  0
  161.9940  210.9440  149.7640 C   0  0  0  0  0  2  0  0  0  0  0  0
  161.3430  211.6920  148.2410 S   0  0  0  0  0  0  0  0  0  0  0  0
  161.1790  213.3310  149.0220 C   0  0  2  0  0  3  0  0  0  0  0  0
  159.8820  213.4640  149.6710 N   0  0  0  0  0  0  0  0  0  0  0  0
  158.1890  213.7040  151.2740 C   0  0  0  0  0  0  0  0  0  0  0  0
  160.5030  213.5460  151.9530 O   0  0  0  0  0  0  0  0  0  0  0  0
  158.6110  213.5310  148.9650 C   0  0  0  0  0  2  0  0  0  0  0  0
  156.1420  213.8170  149.8040 C   0  0  0  0  0  1  0  0  0  0  0  0
  159.6160  213.5700  151.0600 C   0  0  0  0  0  0  0  0  0  0  0  0
  157.6020  213.6830  150.0720 C   0  0  0  0  0  0  0  0  0  0  0  0
  155.0650  212.8680  154.5570 N   0  0  0  0  0  2  0  0  0  0  0  0
  156.1220  214.0780  152.7330 C   0  0  0  0  0  2  0  0  0  0  0  0
  155.6520  212.3060  155.7630 C   0  0  0  0  0  2  0  0  0  0  0  0
  157.2240  213.8930  154.9070 C   0  0  2  0  0  3  0  0  0  0  0  0
  155.8680  214.0390  154.2290 C   0  0  2  0  0  3  0  0  0  0  0  0
  157.5400  213.8370  152.5550 N   0  0  0  0  0  0  0  0  0  0  0  0
  158.2510  213.6870  153.8080 C   0  0  0  0  0  2  0  0  0  0  0  0
  157.5560  212.9130  157.0460 O   0  0  0  0  0  1  0  0  0  0  0  0
  157.1220  212.6460  155.7480 C   0  0  1  0  0  3  0  0  0  0  0  0
  161.4050  214.4460  148.0150 C   0  0  0  0  0  2  0  0  0  0  0  0
  161.0100  213.9900  146.6780 C   0  0  0  0  0  0  0  0  0  0  0  0
  160.2440  213.1720  144.2570 C   0  0  0  0  0  1  0  0  0  0  0  0
  160.6680  213.6190  145.5840 C   0  0  0  0  0  0  0  0  0  0  0  0
  1 18  1  1  0  0  0
  2  5  1  0  0  0  0
  3  2  1  6  0  0  0
  3  4  1  0  0  0  0
  4  1  1  0  0  0  0
  5  7  1  1  0  0  0
  5  6  1  0  0  0  0
  6 30  1  6  0  0  0
  6  1  1  0  0  0  0
  8 10  1  0  0  0  0
  9 12  1  0  0  0  0
  9  8  1  0  0  0  0
 10 13  1  0  0  0  0
 10 14  1  0  0  0  0
 11 12  1  6  0  0  0
 11  3  1  0  0  0  0
 11 13  1  0  0  0  0
 16 15  1  0  0  0  0
 17 14  1  6  0  0  0
 17 16  1  0  0  0  0
 17 15  1  0  0  0  0
 18 19  1  0  0  0  0
 18 22  1  1  0  0  0
 19 20  1  0  0  0  0
 21 20  1  0  0  0  0
 22 23  1  0  0  0  0
 23 24  1  0  0  0  0
 24 25  1  0  0  0  0
 25 29  1  0  0  0  0
 26 29  1  0  0  0  0
 29 27  1  0  0  0  0
 29 28  1  0  0  0  0
 31 32  1  0  0  0  0
 31 30  1  0  0  0  0
 32 49  1  6  0  0  0
 32 33  1  0  0  0  0
 33 38  1  0  0  0  0
 34 45  1  0  0  0  0
 36 33  1  0  0  0  0
 36 39  1  0  0  0  0
 37 39  1  0  0  0  0
 38 34  1  0  0  0  0
 38 35  2  0  0  0  0
 39 34  2  0  0  0  0
 40 42  1  0  0  0  0
 43 46  1  6  0  0  0
 43 48  1  0  0  0  0
 44 41  1  6  0  0  0
 44 40  1  0  0  0  0
 44 43  1  0  0  0  0
 45 41  1  0  0  0  0
 45 46  1  0  0  0  0
 48 42  1  0  0  0  0
 48 47  1  1  0  0  0
 50 49  1  0  0  0  0
 51 52  1  0  0  0  0
 52 50  3  0  0  0  0
M  END
>  <MODEL>
4

>  <REMARK>
 VINA RESULT:      -5.6      3.411     10.458
  Name = 
  18 active torsions:
  status: ('A' for Active; 'I' for Inactive)
    1  A    between atoms: C_5  and  C_16
    2  A    between atoms: C_8  and  C_27
    3  A    between atoms: N_9  and  C_41
    4  A    between atoms: C_11  and  C_32
    5  A    between atoms: C_11  and  C_42
    6  A    between atoms: C_12  and  S_15
    7  A    between atoms: C_12  and  C_40
    8  A    between atoms: O_13  and  O_18
    9  A    between atoms: C_14  and  C_16
   10  A    between atoms: C_14  and  C_43
   11  A    between atoms: S_15  and  C_49
   12  A    between atoms: C_16  and  O_18
   13  A    between atoms: N_19  and  C_49
   14  A    between atoms: N_21  and  C_30
   15  A    between atoms: N_24  and  C_26
   16  A    between atoms: C_27  and  C_49
   17  A    between atoms: C_41  and  C_52
   18  A    between atoms: C_42  and  C_43
                            x       y       z     vdW  Elec       q    Type
                         _______ _______ _______ _____ _____    ______ ____

>  <TORSDO>
F 18

$$$$
=
 OpenBabel11052412173D

 52 57  0  0  1  0  0  0  0  0999 V2000
  161.9230  206.9670  149.4320 C   0  0  2  0  0  3  0  0  0  0  0  0
  161.4470  206.1960  152.1340 C   0  0  0  0  0  2  0  0  0  0  0  0
  161.9380  205.3100  150.9780 C   0  0  2  0  0  3  0  0  0  0  0  0
  161.3410  205.7310  149.7780 O   0  0  0  0  0  0  0  0  0  0  0  0
  161.8680  207.6350  151.8660 C   0  0  1  0  0  3  0  0  0  0  0  0
  161.5230  208.0690  150.4330 C   0  0  1  0  0  3  0  0  0  0  0  0
  161.2420  208.4730  152.7900 O   0  0  0  0  0  1  0  0  0  0  0  0
  159.9590  201.6240  151.2270 C   0  0  0  0  0  2  0  0  0  0  0  0
  160.4360  202.2470  152.5360 C   0  0  0  0  0  2  0  0  0  0  0  0
  160.9590  201.8300  150.1810 N   0  0  0  0  0  0  0  0  0  0  0  0
  161.6800  203.8800  151.1910 N   0  0  1  0  0  0  0  0  0  0  0  0
  160.7310  203.7250  152.2970 C   0  0  0  0  0  2  0  0  0  0  0  0
  161.1110  203.2690  149.9810 C   0  0  0  0  0  2  0  0  0  0  0  0
  160.4080  201.2950  148.9460 C   0  0  0  0  0  2  0  0  0  0  0  0
  161.3970  200.2210  147.0040 C   0  0  0  0  0  2  0  0  0  0  0  0
  160.7230  201.4410  146.5330 N   0  0  0  0  0  2  0  0  0  0  0  0
  161.4240  201.4250  147.8260 C   0  0  1  0  0  3  0  0  0  0  0  0
  161.5130  207.3540  148.0080 C   0  0  2  0  0  3  0  0  0  0  0  0
  160.2270  206.8840  147.7110 O   0  0  0  0  0  0  0  0  0  0  0  0
  160.1320  206.9470  146.4000 O   0  0  0  0  0  0  0  0  0  0  0  0
  159.2570  206.0150  146.0840 O   0  0  0  0  0  1  0  0  0  0  0  0
  162.5120  206.7910  147.0120 C   0  0  0  0  0  2  0  0  0  0  0  0
  162.7010  205.2990  147.2330 C   0  0  0  0  0  2  0  0  0  0  0  0
  162.4860  204.5310  145.9390 C   0  0  0  0  0  2  0  0  0  0  0  0
  162.7040  205.4410  144.7390 C   0  0  0  0  0  2  0  0  0  0  0  0
  160.7050  204.3520  144.0080 F   0  0  0  0  0  0  0  0  0  0  0  0
  160.7480  206.6110  144.0380 F   0  0  0  0  0  0  0  0  0  0  0  0
  161.9390  205.4780  142.5020 F   0  0  0  0  0  0  0  0  0  0  0  0
  161.4950  205.4700  143.8090 C   0  0  0  0  0  0  0  0  0  0  0  0
  162.2780  209.3560  150.1030 C   0  0  0  0  0  2  0  0  0  0  0  0
  161.4710  210.2580  148.7460 S   0  0  0  0  0  0  0  0  0  0  0  0
  161.8640  211.8770  149.4840 C   0  0  2  0  0  3  0  0  0  0  0  0
  160.7420  212.3700  150.2720 N   0  0  0  0  0  0  0  0  0  0  0  0
  159.2520  212.8000  152.0290 C   0  0  0  0  0  0  0  0  0  0  0  0
  161.1490  211.3400  152.3640 O   0  0  0  0  0  0  0  0  0  0  0  0
  159.7160  213.2720  149.7710 C   0  0  0  0  0  2  0  0  0  0  0  0
  157.6280  214.3750  150.9120 C   0  0  0  0  0  1  0  0  0  0  0  0
  160.4540  212.0930  151.6320 C   0  0  0  0  0  0  0  0  0  0  0  0
  158.8210  213.4830  150.9620 C   0  0  0  0  0  0  0  0  0  0  0  0
  156.6800  214.2680  155.5590 N   0  0  0  0  0  2  0  0  0  0  0  0
  158.7150  213.8460  154.3000 C   0  0  0  0  0  2  0  0  0  0  0  0
  155.5680  213.3780  155.8540 C   0  0  0  0  0  2  0  0  0  0  0  0
  157.4070  211.9920  155.2080 C   0  0  2  0  0  3  0  0  0  0  0  0
  157.8610  213.4200  155.4800 C   0  0  2  0  0  3  0  0  0  0  0  0
  158.6490  212.7640  153.3380 N   0  0  0  0  0  0  0  0  0  0  0  0
  157.8610  211.6400  153.8030 C   0  0  0  0  0  2  0  0  0  0  0  0
  155.4320  211.0200  156.1000 O   0  0  0  0  0  1  0  0  0  0  0  0
  155.9020  212.0310  155.2620 C   0  0  1  0  0  3  0  0  0  0  0  0
  162.2680  212.8830  148.4180 C   0  0  0  0  0  2  0  0  0  0  0  0
  161.4340  212.7000  147.2260 C   0  0  0  0  0  0  0  0  0  0  0  0
  159.8770  212.3670  145.0860 C   0  0  0  0  0  1  0  0  0  0  0  0
  160.7340  212.5500  146.2570 C   0  0  0  0  0  0  0  0  0  0  0  0
  1 18  1  6  0  0  0
  1  4  1  0  0  0  0
  1  6  1  0  0  0  0
  3 11  1  0  0  0  0
  3  2  1  1  0  0  0
  4  3  1  0  0  0  0
  5  2  1  0  0  0  0
  5  7  1  1  0  0  0
  6 30  1  6  0  0  0
  6  5  1  0  0  0  0
  8  9  1  0  0  0  0
 10  8  1  0  0  0  0
 11 13  1  6  0  0  0
 11 12  1  0  0  0  0
 12  9  1  0  0  0  0
 13 10  1  0  0  0  0
 14 10  1  0  0  0  0
 15 17  1  0  0  0  0
 16 15  1  0  0  0  0
 16 17  1  0  0  0  0
 17 14  1  1  0  0  0
 18 22  1  6  0  0  0
 19 18  1  0  0  0  0
 20 19  1  0  0  0  0
 21 20  1  0  0  0  0
 22 23  1  0  0  0  0
 24 23  1  0  0  0  0
 25 24  1  0  0  0  0
 28 29  1  0  0  0  0
 29 26  1  0  0  0  0
 29 27  1  0  0  0  0
 29 25  1  0  0  0  0
 31 32  1  0  0  0  0
 31 30  1  0  0  0  0
 32 49  1  6  0  0  0
 32 33  1  0  0  0  0
 33 38  1  0  0  0  0
 34 45  1  0  0  0  0
 36 33  1  0  0  0  0
 36 39  1  0  0  0  0
 37 39  1  0  0  0  0
 38 34  1  0  0  0  0
 38 35  2  0  0  0  0
 39 34  2  0  0  0  0
 40 42  1  0  0  0  0
 43 46  1  6  0  0  0
 43 48  1  0  0  0  0
 43 44  1  0  0  0  0
 44 41  1  6  0  0  0
 44 40  1  0  0  0  0
 45 46  1  0  0  0  0
 45 41  1  0  0  0  0
 48 42  1  0  0  0  0
 48 47  1  1  0  0  0
 50 49  1  0  0  0  0
 51 52  1  0  0  0  0
 52 50  3  0  0  0  0
M  END
>  <MODEL>
5

>  <REMARK>
 VINA RESULT:      -5.3      2.594     10.192
  Name = 
  18 active torsions:
  status: ('A' for Active; 'I' for Inactive)
    1  A    between atoms: C_5  and  C_16
    2  A    between atoms: C_8  and  C_27
    3  A    between atoms: N_9  and  C_41
    4  A    between atoms: C_11  and  C_32
    5  A    between atoms: C_11  and  C_42
    6  A    between atoms: C_12  and  S_15
    7  A    between atoms: C_12  and  C_40
    8  A    between atoms: O_13  and  O_18
    9  A    between atoms: C_14  and  C_16
   10  A    between atoms: C_14  and  C_43
   11  A    between atoms: S_15  and  C_49
   12  A    between atoms: C_16  and  O_18
   13  A    between atoms: N_19  and  C_49
   14  A    between atoms: N_21  and  C_30
   15  A    between atoms: N_24  and  C_26
   16  A    between atoms: C_27  and  C_49
   17  A    between atoms: C_41  and  C_52
   18  A    between atoms: C_42  and  C_43
                            x       y       z     vdW  Elec       q    Type
                         _______ _______ _______ _____ _____    ______ ____

>  <TORSDO>
F 18

$$$$
=
 OpenBabel11052412173D

 52 57  0  0  1  0  0  0  0  0999 V2000
  160.6630  209.8490  153.8540 C   0  0  2  0  0  3  0  0  0  0  0  0
  159.6180  212.4810  153.5320 C   0  0  0  0  0  2  0  0  0  0  0  0
  160.0140  211.7830  154.8430 C   0  0  2  0  0  3  0  0  0  0  0  0
  159.7290  210.4100  154.7480 O   0  0  0  0  0  0  0  0  0  0  0  0
  160.4400  211.8960  152.3920 C   0  0  1  0  0  3  0  0  0  0  0  0
  160.4330  210.3600  152.4170 C   0  0  1  0  0  3  0  0  0  0  0  0
  159.9360  212.3630  151.1780 O   0  0  0  0  0  1  0  0  0  0  0  0
  157.4000  214.0000  157.2550 C   0  0  0  0  0  2  0  0  0  0  0  0
  158.8660  214.4240  157.2450 C   0  0  0  0  0  2  0  0  0  0  0  0
  157.3010  212.5410  157.2440 N   0  0  0  0  0  0  0  0  0  0  0  0
  159.3560  212.3510  156.0270 N   0  0  1  0  0  0  0  0  0  0  0  0
  159.5490  213.8030  156.0300 C   0  0  0  0  0  2  0  0  0  0  0  0
  157.9160  212.0570  156.0110 C   0  0  0  0  0  2  0  0  0  0  0  0
  155.8880  212.2060  157.1640 C   0  0  0  0  0  2  0  0  0  0  0  0
  154.2950  210.3730  157.1140 C   0  0  0  0  0  2  0  0  0  0  0  0
  155.0550  210.3270  155.8550 N   0  0  0  0  0  2  0  0  0  0  0  0
  155.7160  210.6990  157.1150 C   0  0  1  0  0  3  0  0  0  0  0  0
  160.5790  208.3210  153.9060 C   0  0  2  0  0  3  0  0  0  0  0  0
  159.7290  207.9000  154.9370 O   0  0  0  0  0  0  0  0  0  0  0  0
  160.5220  207.3690  155.8430 O   0  0  0  0  0  0  0  0  0  0  0  0
  159.8790  207.5250  156.9820 O   0  0  0  0  0  1  0  0  0  0  0  0
  161.9660  207.7340  154.1100 C   0  0  0  0  0  2  0  0  0  0  0  0
  162.2950  206.7480  153.0020 C   0  0  0  0  0  2  0  0  0  0  0  0
  161.4340  205.5010  153.1170 C   0  0  0  0  0  2  0  0  0  0  0  0
  161.5450  204.6620  151.8510 C   0  0  0  0  0  2  0  0  0  0  0  0
  161.8580  202.2990  152.0260 F   0  0  0  0  0  0  0  0  0  0  0  0
  160.1630  203.2450  153.1820 F   0  0  0  0  0  0  0  0  0  0  0  0
  160.0470  203.0740  150.9410 F   0  0  0  0  0  0  0  0  0  0  0  0
  160.8950  203.2910  152.0090 C   0  0  0  0  0  0  0  0  0  0  0  0
  161.5430  209.8370  151.5070 C   0  0  0  0  0  2  0  0  0  0  0  0
  161.1910  208.1410  150.9550 S   0  0  0  0  0  0  0  0  0  0  0  0
  161.3680  208.5920  149.1980 C   0  0  2  0  0  3  0  0  0  0  0  0
  161.5340  207.4020  148.3750 N   0  0  0  0  0  0  0  0  0  0  0  0
  161.3420  205.2390  147.4940 C   0  0  0  0  0  0  0  0  0  0  0  0
  160.1120  205.8650  149.4780 O   0  0  0  0  0  0  0  0  0  0  0  0
  162.3820  207.3280  147.1940 C   0  0  0  0  0  2  0  0  0  0  0  0
  162.8620  205.3970  145.4870 C   0  0  0  0  0  1  0  0  0  0  0  0
  160.9120  206.1400  148.5450 C   0  0  0  0  0  0  0  0  0  0  0  0
  162.1890  205.9170  146.7100 C   0  0  0  0  0  0  0  0  0  0  0  0
  161.1540  201.0490  145.5850 N   0  0  0  0  0  2  0  0  0  0  0  0
  160.4140  203.3060  146.1000 C   0  0  0  0  0  2  0  0  0  0  0  0
  161.6360  200.0030  146.4740 C   0  0  0  0  0  2  0  0  0  0  0  0
  160.4820  201.5910  147.8400 C   0  0  2  0  0  3  0  0  0  0  0  0
  160.1990  201.8260  146.3630 C   0  0  2  0  0  3  0  0  0  0  0  0
  160.9200  203.8700  147.3360 N   0  0  0  0  0  0  0  0  0  0  0  0
  161.0140  202.8960  148.4050 C   0  0  0  0  0  2  0  0  0  0  0  0
  161.1960  199.5190  148.7570 O   0  0  0  0  0  1  0  0  0  0  0  0
  161.5620  200.5410  147.8820 C   0  0  1  0  0  3  0  0  0  0  0  0
  162.5180  209.5640  148.9930 C   0  0  0  0  0  2  0  0  0  0  0  0
  162.0300  210.7710  148.3180 C   0  0  0  0  0  0  0  0  0  0  0  0
  161.1260  212.9830  147.1330 C   0  0  0  0  0  1  0  0  0  0  0  0
  161.6230  211.7690  147.7790 C   0  0  0  0  0  0  0  0  0  0  0  0
  1 18  1  6  0  0  0
  1  4  1  0  0  0  0
  3  2  1  6  0  0  0
  3 11  1  0  0  0  0
  4  3  1  0  0  0  0
  5  7  1  6  0  0  0
  5  6  1  0  0  0  0
  5  2  1  0  0  0  0
  6 30  1  6  0  0  0
  6  1  1  0  0  0  0
  9  8  1  0  0  0  0
 10  8  1  0  0  0  0
 11 13  1  6  0  0  0
 11 12  1  0  0  0  0
 12  9  1  0  0  0  0
 13 10  1  0  0  0  0
 14 10  1  0  0  0  0
 15 17  1  0  0  0  0
 16 15  1  0  0  0  0
 16 17  1  0  0  0  0
 17 14  1  6  0  0  0
 18 22  1  1  0  0  0
 18 19  1  0  0  0  0
 19 20  1  0  0  0  0
 20 21  1  0  0  0  0
 23 24  1  0  0  0  0
 23 22  1  0  0  0  0
 25 29  1  0  0  0  0
 25 24  1  0  0  0  0
 28 29  1  0  0  0  0
 29 26  1  0  0  0  0
 29 27  1  0  0  0  0
 31 30  1  0  0  0  0
 32 49  1  1  0  0  0
 32 31  1  0  0  0  0
 33 38  1  0  0  0  0
 33 32  1  0  0  0  0
 34 38  1  0  0  0  0
 36 33  1  0  0  0  0
 37 39  1  0  0  0  0
 38 35  2  0  0  0  0
 39 36  1  0  0  0  0
 39 34  2  0  0  0  0
 40 44  1  0  0  0  0
 40 42  1  0  0  0  0
 41 45  1  0  0  0  0
 42 48  1  0  0  0  0
 43 48  1  0  0  0  0
 43 46  1  6  0  0  0
 44 41  1  1  0  0  0
 44 43  1  0  0  0  0
 45 34  1  0  0  0  0
 45 46  1  0  0  0  0
 48 47  1  1  0  0  0
 50 49  1  0  0  0  0
 51 52  1  0  0  0  0
 52 50  3  0  0  0  0
M  END
>  <MODEL>
6

>  <REMARK>
 VINA RESULT:      -4.4      3.405      5.834
  Name = 
  18 active torsions:
  status: ('A' for Active; 'I' for Inactive)
    1  A    between atoms: C_5  and  C_16
    2  A    between atoms: C_8  and  C_27
    3  A    between atoms: N_9  and  C_41
    4  A    between atoms: C_11  and  C_32
    5  A    between atoms: C_11  and  C_42
    6  A    between atoms: C_12  and  S_15
    7  A    between atoms: C_12  and  C_40
    8  A    between atoms: O_13  and  O_18
    9  A    between atoms: C_14  and  C_16
   10  A    between atoms: C_14  and  C_43
   11  A    between atoms: S_15  and  C_49
   12  A    between atoms: C_16  and  O_18
   13  A    between atoms: N_19  and  C_49
   14  A    between atoms: N_21  and  C_30
   15  A    between atoms: N_24  and  C_26
   16  A    between atoms: C_27  and  C_49
   17  A    between atoms: C_41  and  C_52
   18  A    between atoms: C_42  and  C_43
                            x       y       z     vdW  Elec       q    Type
                         _______ _______ _______ _____ _____    ______ ____

>  <TORSDO>
F 18

$$$$
=
 OpenBabel11052412173D

 52 57  0  0  1  0  0  0  0  0999 V2000
  162.1140  206.3220  147.6600 C   0  0  2  0  0  3  0  0  0  0  0  0
  161.1830  205.5640  150.2450 C   0  0  0  0  0  2  0  0  0  0  0  0
  161.8770  204.6760  149.2000 C   0  0  2  0  0  3  0  0  0  0  0  0
  161.4940  205.0820  147.9110 O   0  0  0  0  0  0  0  0  0  0  0  0
  161.6270  207.0060  150.0420 C   0  0  1  0  0  3  0  0  0  0  0  0
  161.5330  207.4260  148.5670 C   0  0  1  0  0  3  0  0  0  0  0  0
  160.8400  207.8430  150.8350 O   0  0  0  0  0  1  0  0  0  0  0  0
  159.9710  200.9470  149.0410 C   0  0  0  0  0  2  0  0  0  0  0  0
  160.0950  201.6070  150.4120 C   0  0  0  0  0  2  0  0  0  0  0  0
  161.1960  201.1580  148.2720 N   0  0  0  0  0  0  0  0  0  0  0  0
  161.6020  203.2450  149.3780 N   0  0  1  0  0  0  0  0  0  0  0  0
  160.4110  203.0870  150.2180 C   0  0  0  0  0  2  0  0  0  0  0  0
  161.3650  202.5960  148.0810 C   0  0  0  0  0  2  0  0  0  0  0  0
  160.9810  200.5860  146.9530 C   0  0  0  0  0  2  0  0  0  0  0  0
  160.4570  202.1870  145.2020 C   0  0  0  0  0  2  0  0  0  0  0  0
  159.8280  200.9100  144.8290 N   0  0  0  0  0  2  0  0  0  0  0  0
  159.8750  201.3380  146.2360 C   0  0  1  0  0  3  0  0  0  0  0  0
  161.9550  206.6940  146.1830 C   0  0  2  0  0  3  0  0  0  0  0  0
  160.6140  206.9550  145.8730 O   0  0  0  0  0  0  0  0  0  0  0  0
  159.9800  205.8260  146.1090 O   0  0  0  0  0  0  0  0  0  0  0  0
  158.9710  205.8270  145.2620 O   0  0  0  0  0  1  0  0  0  0  0  0
  162.4770  205.5670  145.3080 C   0  0  0  0  0  2  0  0  0  0  0  0
  161.6460  205.4480  144.0420 C   0  0  0  0  0  2  0  0  0  0  0  0
  162.4650  205.8320  142.8200 C   0  0  0  0  0  2  0  0  0  0  0  0
  161.5600  206.3720  141.7230 C   0  0  0  0  0  2  0  0  0  0  0  0
  161.6660  207.8900  139.8790 F   0  0  0  0  0  0  0  0  0  0  0  0
  163.5910  207.3290  140.9190 F   0  0  0  0  0  0  0  0  0  0  0  0
  162.5210  205.8250  139.6320 F   0  0  0  0  0  0  0  0  0  0  0  0
  162.3490  206.8710  140.5170 C   0  0  0  0  0  0  0  0  0  0  0  0
  162.3200  208.7200  148.3610 C   0  0  0  0  0  2  0  0  0  0  0  0
  161.2110  210.1000  147.9450 S   0  0  0  0  0  0  0  0  0  0  0  0
  162.1080  211.2530  149.0350 C   0  0  2  0  0  3  0  0  0  0  0  0
  161.2330  211.7530  150.0860 N   0  0  0  0  0  0  0  0  0  0  0  0
  160.0810  212.0170  152.1100 C   0  0  0  0  0  0  0  0  0  0  0  0
  161.5600  210.1340  151.7810 O   0  0  0  0  0  0  0  0  0  0  0  0
  160.4320  212.9640  149.9850 C   0  0  0  0  0  2  0  0  0  0  0  0
  158.8200  214.1580  151.6740 C   0  0  0  0  0  1  0  0  0  0  0  0
  161.0160  211.1920  151.3700 C   0  0  0  0  0  0  0  0  0  0  0  0
  159.7410  213.0420  151.3190 C   0  0  0  0  0  0  0  0  0  0  0  0
  159.4120  212.8460  156.5940 N   0  0  0  0  0  2  0  0  0  0  0  0
  160.4520  211.8510  154.6350 C   0  0  0  0  0  2  0  0  0  0  0  0
  158.0040  212.9600  156.9410 C   0  0  0  0  0  2  0  0  0  0  0  0
  158.1640  211.2660  155.2600 C   0  0  2  0  0  3  0  0  0  0  0  0
  159.5350  211.6170  155.8210 C   0  0  2  0  0  3  0  0  0  0  0  0
  159.6190  211.7660  153.4520 N   0  0  0  0  0  0  0  0  0  0  0  0
  158.2380  211.4500  153.7550 C   0  0  0  0  0  2  0  0  0  0  0  0
  156.1130  211.6270  156.4040 O   0  0  0  0  0  1  0  0  0  0  0  0
  157.2150  212.2780  155.8510 C   0  0  1  0  0  3  0  0  0  0  0  0
  162.7200  212.3950  148.2420 C   0  0  0  0  0  2  0  0  0  0  0  0
  161.8680  212.7090  147.0910 C   0  0  0  0  0  0  0  0  0  0  0  0
  160.3150  213.3260  145.0110 C   0  0  0  0  0  1  0  0  0  0  0  0
  161.1670  212.9830  146.1500 C   0  0  0  0  0  0  0  0  0  0  0  0
  1 18  1  6  0  0  0
  1  4  1  0  0  0  0
  1  6  1  0  0  0  0
  3 11  1  0  0  0  0
  3  2  1  1  0  0  0
  4  3  1  0  0  0  0
  5  2  1  0  0  0  0
  5  7  1  1  0  0  0
  6 30  1  1  0  0  0
  6  5  1  0  0  0  0
  8  9  1  0  0  0  0
 10  8  1  0  0  0  0
 11 13  1  6  0  0  0
 11 12  1  0  0  0  0
 12  9  1  0  0  0  0
 13 10  1  0  0  0  0
 14 10  1  0  0  0  0
 15 17  1  0  0  0  0
 16 15  1  0  0  0  0
 16 17  1  0  0  0  0
 17 14  1  1  0  0  0
 18 22  1  6  0  0  0
 19 20  1  0  0  0  0
 19 18  1  0  0  0  0
 21 20  1  0  0  0  0
 23 22  1  0  0  0  0
 24 23  1  0  0  0  0
 25 24  1  0  0  0  0
 26 29  1  0  0  0  0
 28 29  1  0  0  0  0
 29 27  1  0  0  0  0
 29 25  1  0  0  0  0
 31 30  1  0  0  0  0
 31 32  1  0  0  0  0
 32 49  1  6  0  0  0
 32 33  1  0  0  0  0
 33 38  1  0  0  0  0
 34 45  1  0  0  0  0
 36 33  1  0  0  0  0
 36 39  1  0  0  0  0
 38 35  2  0  0  0  0
 38 34  1  0  0  0  0
 39 37  1  0  0  0  0
 39 34  2  0  0  0  0
 40 42  1  0  0  0  0
 43 46  1  6  0  0  0
 43 44  1  0  0  0  0
 43 48  1  0  0  0  0
 44 41  1  6  0  0  0
 44 40  1  0  0  0  0
 45 46  1  0  0  0  0
 45 41  1  0  0  0  0
 48 47  1  1  0  0  0
 48 42  1  0  0  0  0
 50 49  1  0  0  0  0
 51 52  1  0  0  0  0
 52 50  3  0  0  0  0
M  END
>  <MODEL>
7

>  <REMARK>
 VINA RESULT:      -4.4      2.992     10.511
  Name = 
  18 active torsions:
  status: ('A' for Active; 'I' for Inactive)
    1  A    between atoms: C_5  and  C_16
    2  A    between atoms: C_8  and  C_27
    3  A    between atoms: N_9  and  C_41
    4  A    between atoms: C_11  and  C_32
    5  A    between atoms: C_11  and  C_42
    6  A    between atoms: C_12  and  S_15
    7  A    between atoms: C_12  and  C_40
    8  A    between atoms: O_13  and  O_18
    9  A    between atoms: C_14  and  C_16
   10  A    between atoms: C_14  and  C_43
   11  A    between atoms: S_15  and  C_49
   12  A    between atoms: C_16  and  O_18
   13  A    between atoms: N_19  and  C_49
   14  A    between atoms: N_21  and  C_30
   15  A    between atoms: N_24  and  C_26
   16  A    between atoms: C_27  and  C_49
   17  A    between atoms: C_41  and  C_52
   18  A    between atoms: C_42  and  C_43
                            x       y       z     vdW  Elec       q    Type
                         _______ _______ _______ _____ _____    ______ ____

>  <TORSDO>
F 18

$$$$
=
 OpenBabel11052412173D

 52 57  0  0  1  0  0  0  0  0999 V2000
  160.6600  211.4620  150.0070 C   0  0  2  0  0  3  0  0  0  0  0  0
  160.0840  211.9040  152.7630 C   0  0  0  0  0  2  0  0  0  0  0  0
  159.2040  212.2530  151.5530 C   0  0  2  0  0  3  0  0  0  0  0  0
  160.0190  212.6270  150.4720 O   0  0  0  0  0  0  0  0  0  0  0  0
  160.9760  210.7240  152.4010 C   0  0  1  0  0  3  0  0  0  0  0  0
  161.6690  210.9310  151.0450 C   0  0  1  0  0  3  0  0  0  0  0  0
  161.9260  210.5430  153.4080 O   0  0  0  0  0  1  0  0  0  0  0  0
  155.5820  214.2000  152.3660 C   0  0  0  0  0  2  0  0  0  0  0  0
  156.2170  214.4530  151.0020 C   0  0  0  0  0  2  0  0  0  0  0  0
  156.6170  214.1510  153.3980 N   0  0  0  0  0  0  0  0  0  0  0  0
  158.2240  213.3110  151.8320 N   0  0  1  0  0  0  0  0  0  0  0  0
  157.2560  213.3680  150.7330 C   0  0  0  0  0  2  0  0  0  0  0  0
  157.5100  213.0390  153.0880 C   0  0  0  0  0  2  0  0  0  0  0  0
  155.9590  213.8200  154.6520 C   0  0  0  0  0  2  0  0  0  0  0  0
  157.0130  212.5290  156.4210 C   0  0  0  0  0  2  0  0  0  0  0  0
  155.6210  212.0670  156.3110 N   0  0  0  0  0  2  0  0  0  0  0  0
  156.3830  212.4360  155.1090 C   0  0  1  0  0  3  0  0  0  0  0  0
  161.3550  211.7470  148.6720 C   0  0  2  0  0  3  0  0  0  0  0  0
  162.7480  211.7400  148.8210 O   0  0  0  0  0  0  0  0  0  0  0  0
  163.1610  212.8500  148.2470 O   0  0  0  0  0  0  0  0  0  0  0  0
  164.2760  212.5130  147.6330 O   0  0  0  0  0  1  0  0  0  0  0  0
  160.9010  213.0920  148.1310 C   0  0  0  0  0  2  0  0  0  0  0  0
  159.7120  212.9180  147.2010 C   0  0  0  0  0  2  0  0  0  0  0  0
  158.5220  213.7280  147.6900 C   0  0  0  0  0  2  0  0  0  0  0  0
  157.2270  212.9610  147.4570 C   0  0  0  0  0  2  0  0  0  0  0  0
  155.6920  213.9610  145.9210 F   0  0  0  0  0  0  0  0  0  0  0  0
  157.7800  213.4880  145.1980 F   0  0  0  0  0  0  0  0  0  0  0  0
  156.3160  211.8250  145.5930 F   0  0  0  0  0  0  0  0  0  0  0  0
  156.7450  213.0690  146.0140 C   0  0  0  0  0  0  0  0  0  0  0  0
  162.2420  209.5980  150.5650 C   0  0  0  0  0  2  0  0  0  0  0  0
  161.1300  208.2210  150.9790 S   0  0  0  0  0  0  0  0  0  0  0  0
  162.4510  206.9850  150.7610 C   0  0  2  0  0  3  0  0  0  0  0  0
  162.2210  206.1930  149.5610 N   0  0  0  0  0  0  0  0  0  0  0  0
  161.5540  204.4990  148.0840 C   0  0  0  0  0  0  0  0  0  0  0  0
  161.1450  204.2850  150.4560 O   0  0  0  0  0  0  0  0  0  0  0  0
  162.5990  206.6040  148.2170 C   0  0  0  0  0  2  0  0  0  0  0  0
  162.2930  205.4660  145.8740 C   0  0  0  0  0  1  0  0  0  0  0  0
  161.5920  204.9260  149.4690 C   0  0  0  0  0  0  0  0  0  0  0  0
  162.1320  205.4620  147.3550 C   0  0  0  0  0  0  0  0  0  0  0  0
  160.0590  201.4500  144.9700 N   0  0  0  0  0  2  0  0  0  0  0  0
  159.8830  203.1800  146.6680 C   0  0  0  0  0  2  0  0  0  0  0  0
  160.8270  200.2140  144.9790 C   0  0  0  0  0  2  0  0  0  0  0  0
  160.6640  200.9390  147.2520 C   0  0  2  0  0  3  0  0  0  0  0  0
  159.6980  201.7060  146.3580 C   0  0  2  0  0  3  0  0  0  0  0  0
  160.9900  203.2650  147.6000 N   0  0  0  0  0  0  0  0  0  0  0  0
  161.5220  201.9680  147.9660 C   0  0  0  0  0  2  0  0  0  0  0  0
  161.5530  198.7970  146.7400 O   0  0  0  0  0  1  0  0  0  0  0  0
  161.5190  200.1240  146.3160 C   0  0  1  0  0  3  0  0  0  0  0  0
  162.5820  206.0970  151.9870 C   0  0  0  0  0  2  0  0  0  0  0  0
  161.7850  206.6530  153.0850 C   0  0  0  0  0  0  0  0  0  0  0  0
  160.2990  207.6730  155.0520 C   0  0  0  0  0  1  0  0  0  0  0  0
  161.1170  207.1130  153.9770 C   0  0  0  0  0  0  0  0  0  0  0  0
  1 18  1  6  0  0  0
  1  4  1  0  0  0  0
  1  6  1  0  0  0  0
  3 11  1  0  0  0  0
  3  2  1  1  0  0  0
  4  3  1  0  0  0  0
  5  2  1  0  0  0  0
  5  7  1  1  0  0  0
  6 30  1  6  0  0  0
  6  5  1  0  0  0  0
  8 10  1  0  0  0  0
  9  8  1  0  0  0  0
 10 14  1  0  0  0  0
 11 12  1  6  0  0  0
 11 13  1  0  0  0  0
 12  9  1  0  0  0  0
 13 10  1  0  0  0  0
 16 15  1  0  0  0  0
 17 14  1  1  0  0  0
 17 16  1  0  0  0  0
 17 15  1  0  0  0  0
 18 22  1  1  0  0  0
 18 19  1  0  0  0  0
 20 19  1  0  0  0  0
 21 20  1  0  0  0  0
 23 24  1  0  0  0  0
 23 22  1  0  0  0  0
 25 24  1  0  0  0  0
 26 29  1  0  0  0  0
 27 29  1  0  0  0  0
 28 29  1  0  0  0  0
 29 25  1  0  0  0  0
 30 31  1  0  0  0  0
 32 31  1  0  0  0  0
 32 49  1  1  0  0  0
 33 32  1  0  0  0  0
 34 38  1  0  0  0  0
 36 33  1  0  0  0  0
 37 39  1  0  0  0  0
 38 33  1  0  0  0  0
 38 35  2  0  0  0  0
 39 34  2  0  0  0  0
 39 36  1  0  0  0  0
 40 42  1  0  0  0  0
 40 44  1  0  0  0  0
 41 45  1  0  0  0  0
 42 48  1  0  0  0  0
 43 46  1  6  0  0  0
 44 41  1  1  0  0  0
 44 43  1  0  0  0  0
 45 46  1  0  0  0  0
 45 34  1  0  0  0  0
 48 47  1  1  0  0  0
 48 43  1  0  0  0  0
 49 50  1  0  0  0  0
 50 52  3  0  0  0  0
 52 51  1  0  0  0  0
M  END
>  <MODEL>
8

>  <REMARK>
 VINA RESULT:      -4.2      1.937      2.676
  Name = 
  18 active torsions:
  status: ('A' for Active; 'I' for Inactive)
    1  A    between atoms: C_5  and  C_16
    2  A    between atoms: C_8  and  C_27
    3  A    between atoms: N_9  and  C_41
    4  A    between atoms: C_11  and  C_32
    5  A    between atoms: C_11  and  C_42
    6  A    between atoms: C_12  and  S_15
    7  A    between atoms: C_12  and  C_40
    8  A    between atoms: O_13  and  O_18
    9  A    between atoms: C_14  and  C_16
   10  A    between atoms: C_14  and  C_43
   11  A    between atoms: S_15  and  C_49
   12  A    between atoms: C_16  and  O_18
   13  A    between atoms: N_19  and  C_49
   14  A    between atoms: N_21  and  C_30
   15  A    between atoms: N_24  and  C_26
   16  A    between atoms: C_27  and  C_49
   17  A    between atoms: C_41  and  C_52
   18  A    between atoms: C_42  and  C_43
                            x       y       z     vdW  Elec       q    Type
                         _______ _______ _______ _____ _____    ______ ____

>  <TORSDO>
F 18

$$$$
=
 OpenBabel11052412173D

 52 57  0  0  1  0  0  0  0  0999 V2000
  160.7620  205.0770  149.4330 C   0  0  2  0  0  3  0  0  0  0  0  0
  162.3410  206.5640  147.5840 C   0  0  0  0  0  2  0  0  0  0  0  0
  161.2020  205.5810  147.2670 C   0  0  2  0  0  3  0  0  0  0  0  0
  161.2070  204.5380  148.2090 O   0  0  0  0  0  0  0  0  0  0  0  0
  162.1080  207.1610  148.9650 C   0  0  1  0  0  3  0  0  0  0  0  0
  161.7860  206.0770  150.0050 C   0  0  1  0  0  3  0  0  0  0  0  0
  163.2410  207.8800  149.3490 O   0  0  0  0  0  1  0  0  0  0  0  0
  160.4860  204.9830  143.1810 C   0  0  0  0  0  2  0  0  0  0  0  0
  160.0030  203.8970  144.1380 C   0  0  0  0  0  2  0  0  0  0  0  0
  161.7880  205.4880  143.6140 N   0  0  0  0  0  0  0  0  0  0  0  0
  161.2710  205.0290  145.9080 N   0  0  1  0  0  0  0  0  0  0  0  0
  159.9640  204.4690  145.5520 C   0  0  0  0  0  2  0  0  0  0  0  0
  161.6250  206.0770  144.9400 C   0  0  0  0  0  2  0  0  0  0  0  0
  162.1480  206.5750  142.7170 C   0  0  0  0  0  2  0  0  0  0  0  0
  161.9560  207.3700  140.4290 C   0  0  0  0  0  2  0  0  0  0  0  0
  163.0130  206.3470  140.4500 N   0  0  0  0  0  2  0  0  0  0  0  0
  161.8120  206.1990  141.2860 C   0  0  1  0  0  3  0  0  0  0  0  0
  160.4910  203.9470  150.4300 C   0  0  2  0  0  3  0  0  0  0  0  0
  161.6440  203.6400  151.1640 O   0  0  0  0  0  0  0  0  0  0  0  0
  161.2070  203.2430  152.3400 O   0  0  0  0  0  0  0  0  0  0  0  0
  160.9360  204.3570  152.9890 O   0  0  0  0  0  1  0  0  0  0  0  0
  160.0040  202.7120  149.6920 C   0  0  0  0  0  2  0  0  0  0  0  0
  160.9160  201.5290  149.9740 C   0  0  0  0  0  2  0  0  0  0  0  0
  161.8390  201.2670  148.7950 C   0  0  0  0  0  2  0  0  0  0  0  0
  161.2060  200.2680  147.8370 C   0  0  0  0  0  2  0  0  0  0  0  0
  159.5130  201.3770  146.5650 F   0  0  0  0  0  0  0  0  0  0  0  0
  161.6690  201.9570  146.2190 F   0  0  0  0  0  0  0  0  0  0  0  0
  160.9080  199.9610  145.5120 F   0  0  0  0  0  0  0  0  0  0  0  0
  160.8130  200.9100  146.5110 C   0  0  0  0  0  0  0  0  0  0  0  0
  161.2090  206.7370  151.2570 C   0  0  0  0  0  2  0  0  0  0  0  0
  160.8340  208.4910  150.9570 S   0  0  0  0  0  0  0  0  0  0  0  0
  161.9890  209.0410  152.2560 C   0  0  2  0  0  3  0  0  0  0  0  0
  161.2750  209.3250  153.4930 N   0  0  0  0  0  0  0  0  0  0  0  0
  159.9570  210.3500  155.1380 C   0  0  0  0  0  0  0  0  0  0  0  0
  160.3660  211.4610  153.0310 O   0  0  0  0  0  0  0  0  0  0  0  0
  161.2110  208.4230  154.6340 C   0  0  0  0  0  2  0  0  0  0  0  0
  159.9960  208.5960  156.9510 C   0  0  0  0  0  1  0  0  0  0  0  0
  160.5160  210.4800  153.8070 C   0  0  0  0  0  0  0  0  0  0  0  0
  160.3530  209.1660  155.6220 C   0  0  0  0  0  0  0  0  0  0  0  0
  157.9240  214.4270  155.8260 N   0  0  0  0  0  2  0  0  0  0  0  0
  159.5610  212.6610  156.1570 C   0  0  0  0  0  2  0  0  0  0  0  0
  156.4730  214.3490  155.7660 C   0  0  0  0  0  2  0  0  0  0  0  0
  157.2280  212.3320  156.8060 C   0  0  2  0  0  3  0  0  0  0  0  0
  158.3440  213.3650  156.7300 C   0  0  2  0  0  3  0  0  0  0  0  0
  159.1280  211.3250  155.8010 N   0  0  0  0  0  0  0  0  0  0  0  0
  157.7400  211.0720  156.1320 C   0  0  0  0  0  2  0  0  0  0  0  0
  154.9110  212.8540  156.7480 O   0  0  0  0  0  1  0  0  0  0  0  0
  156.0890  212.9100  156.0050 C   0  0  1  0  0  3  0  0  0  0  0  0
  162.7960  210.2450  151.8000 C   0  0  0  0  0  2  0  0  0  0  0  0
  162.3280  210.6820  150.4810 C   0  0  0  0  0  0  0  0  0  0  0  0
  161.5080  211.4430  148.0590 C   0  0  0  0  0  1  0  0  0  0  0  0
  161.9550  211.0290  149.3890 C   0  0  0  0  0  0  0  0  0  0  0  0
  1  6  1  0  0  0  0
  1 18  1  1  0  0  0
  2  5  1  0  0  0  0
  3  2  1  1  0  0  0
  3  4  1  0  0  0  0
  4  1  1  0  0  0  0
  5  7  1  1  0  0  0
  5  6  1  0  0  0  0
  6 30  1  1  0  0  0
  8 10  1  0  0  0  0
  8  9  1  0  0  0  0
  9 12  1  0  0  0  0
 10 13  1  0  0  0  0
 11 13  1  6  0  0  0
 11  3  1  0  0  0  0
 12 11  1  0  0  0  0
 14 10  1  0  0  0  0
 15 16  1  0  0  0  0
 15 17  1  0  0  0  0
 16 17  1  0  0  0  0
 17 14  1  1  0  0  0
 18 22  1  6  0  0  0
 18 19  1  0  0  0  0
 19 20  1  0  0  0  0
 20 21  1  0  0  0  0
 22 23  1  0  0  0  0
 24 23  1  0  0  0  0
 25 24  1  0  0  0  0
 27 29  1  0  0  0  0
 28 29  1  0  0  0  0
 29 26  1  0  0  0  0
 29 25  1  0  0  0  0
 31 30  1  0  0  0  0
 31 32  1  0  0  0  0
 32 49  1  6  0  0  0
 32 33  1  0  0  0  0
 33 38  1  0  0  0  0
 33 36  1  0  0  0  0
 34 39  2  0  0  0  0
 34 45  1  0  0  0  0
 35 38  2  0  0  0  0
 36 39  1  0  0  0  0
 38 34  1  0  0  0  0
 39 37  1  0  0  0  0
 40 44  1  0  0  0  0
 42 40  1  0  0  0  0
 42 48  1  0  0  0  0
 43 46  1  6  0  0  0
 44 41  1  6  0  0  0
 44 43  1  0  0  0  0
 45 46  1  0  0  0  0
 45 41  1  0  0  0  0
 48 47  1  1  0  0  0
 48 43  1  0  0  0  0
 50 49  1  0  0  0  0
 51 52  1  0  0  0  0
 52 50  3  0  0  0  0
M  END
>  <MODEL>
9

>  <REMARK>
 VINA RESULT:      -4.1      3.688     11.026
  Name = 
  18 active torsions:
  status: ('A' for Active; 'I' for Inactive)
    1  A    between atoms: C_5  and  C_16
    2  A    between atoms: C_8  and  C_27
    3  A    between atoms: N_9  and  C_41
    4  A    between atoms: C_11  and  C_32
    5  A    between atoms: C_11  and  C_42
    6  A    between atoms: C_12  and  S_15
    7  A    between atoms: C_12  and  C_40
    8  A    between atoms: O_13  and  O_18
    9  A    between atoms: C_14  and  C_16
   10  A    between atoms: C_14  and  C_43
   11  A    between atoms: S_15  and  C_49
   12  A    between atoms: C_16  and  O_18
   13  A    between atoms: N_19  and  C_49
   14  A    between atoms: N_21  and  C_30
   15  A    between atoms: N_24  and  C_26
   16  A    between atoms: C_27  and  C_49
   17  A    between atoms: C_41  and  C_52
   18  A    between atoms: C_42  and  C_43
                            x       y       z     vdW  Elec       q    Type
                         _______ _______ _______ _____ _____    ______ ____

>  <TORSDO>
F 18

$$$$
