=
 OpenBabel11042422253D

 34 35  0  0  1  0  0  0  0  0999 V2000
  161.5610  210.6430  153.2540 N   0  0  0  0  0  0  0  0  0  0  0  0
  160.7480  208.3940  155.1060 C   0  0  1  0  0  3  0  0  0  0  0  0
  161.0080  208.3320  153.6690 N   0  0  0  0  0  2  0  0  0  0  0  0
  161.4120  209.4220  152.8150 C   0  0  0  0  0  0  0  0  0  0  0  0
  159.7600  209.4810  155.4070 C   0  0  0  0  0  3  0  0  0  0  0  0
  160.0650  210.7580  155.1810 C   0  0  0  0  0  0  0  0  0  0  0  0
  161.4210  211.0990  154.6340 C   0  0  0  0  0  2  0  0  0  0  0  0
  161.4460  207.8770  150.9110 N   0  0  0  0  0  0  0  0  0  0  0  0
  161.6150  207.5810  149.5950 C   0  0  0  0  0  0  0  0  0  0  0  0
  161.9670  210.1580  150.4850 C   0  0  0  0  0  3  0  0  0  0  0  0
  161.6110  209.1430  151.3830 C   0  0  1  0  0  3  0  0  0  0  0  0
  162.1370  209.8620  149.1700 N   0  0  0  0  0  0  0  0  0  0  0  0
  161.9680  208.5960  148.7050 C   0  0  0  0  0  2  0  0  0  0  0  0
  161.4280  206.2460  149.1190 N   0  0  0  0  0  2  0  0  0  0  0  0
  160.6000  205.9660  148.0210 N   0  0  0  0  0  2  0  0  0  0  0  0
  161.4040  205.2540  147.0410 C   0  0  0  0  0  2  0  0  0  0  0  0
  161.8190  203.8970  147.6100 C   0  0  0  0  0  2  0  0  0  0  0  0
  160.8570  202.8240  147.3270 N   0  0  0  0  0  0  0  0  0  0  0  0
  160.9810  202.4140  145.9360 C   0  0  0  0  0  1  0  0  0  0  0  0
  161.1340  201.6660  148.1670 C   0  0  0  0  0  2  0  0  0  0  0  0
  160.1780  201.6400  149.3440 C   0  0  0  0  0  2  0  0  0  0  0  0
  160.9350  201.6710  150.5820 N   0  0  0  0  0  2  0  0  0  0  0  0
  160.9730  203.0570  151.0120 C   0  0  0  0  0  1  0  0  0  0  0  0
  160.8450  206.7270  156.8190 F   0  0  0  0  0  0  0  0  0  0  0  0
  158.8790  207.0850  155.7760 F   0  0  0  0  0  0  0  0  0  0  0  0
  160.5540  206.0570  154.6830 F   0  0  0  0  0  0  0  0  0  0  0  0
  160.2510  207.0410  155.6090 C   0  0  0  0  0  0  0  0  0  0  0  0
  157.7160  211.4860  155.6800 N   0  0  0  0  0  2  0  0  0  0  0  0
  159.0860  211.8240  155.4490 C   0  0  0  0  0  0  0  0  0  0  0  0
  159.4540  213.0310  155.4770 O   0  0  0  0  0  0  0  0  0  0  0  0
  155.9050  213.4020  154.4480 C   0  0  0  0  0  1  0  0  0  0  0  0
  155.3280  212.0550  156.7370 O   0  0  0  0  0  0  0  0  0  0  0  0
  157.1470  213.9220  156.9710 O   0  0  0  0  0  1  0  0  0  0  0  0
  156.4890  212.6950  156.0120 P   0  0  1  0  0  0  0  0  0  0  0  0
  1  7  1  0  0  0  0
  2  5  1  0  0  0  0
  2 27  1  6  0  0  0
  3  2  1  0  0  0  0
  4  1  2  0  0  0  0
  4  3  1  0  0  0  0
  6  5  2  0  0  0  0
  6 29  1  0  0  0  0
  7  6  1  0  0  0  0
  8 11  1  0  0  0  0
  9  8  2  0  0  0  0
 10 11  1  0  0  0  0
 11  4  1  6  0  0  0
 12 10  2  0  0  0  0
 13 12  1  0  0  0  0
 13  9  1  0  0  0  0
 14  9  1  0  0  0  0
 15 14  1  0  0  0  0
 16 17  1  0  0  0  0
 16 15  1  0  0  0  0
 18 17  1  0  0  0  0
 18 20  1  0  0  0  0
 19 18  1  0  0  0  0
 20 21  1  0  0  0  0
 21 22  1  0  0  0  0
 22 23  1  0  0  0  0
 26 27  1  0  0  0  0
 27 25  1  0  0  0  0
 27 24  1  0  0  0  0
 28 34  1  0  0  0  0
 29 30  2  0  0  0  0
 29 28  1  0  0  0  0
 34 31  1  6  0  0  0
 34 32  2  0  0  0  0
 34 33  1  0  0  0  0
M  END
>  <MODEL>
1

>  <REMARK>
 VINA RESULT:      -6.7      0.000      0.000
  Name = 
  12 active torsions:
  status: ('A' for Active; 'I' for Inactive)
    1  A    between atoms: N_3  and  C_26
    2  A    between atoms: N_4  and  P_28
    3  A    between atoms: N_5  and  C_19
    4  A    between atoms: N_5  and  C_25
    5  A    between atoms: C_6  and  N_22
    6  A    between atoms: C_8  and  C_31
    7  A    between atoms: C_9  and  C_33
    8  A    between atoms: C_19  and  C_26
    9  A    between atoms: C_21  and  C_23
   10  A    between atoms: N_22  and  N_30
   11  A    between atoms: C_25  and  C_27
   12  A    between atoms: C_27  and  N_30
                            x       y       z     vdW  Elec       q    Type
                         _______ _______ _______ _____ _____    ______ ____

>  <TORSDO>
F 12

$$$$
=
 OpenBabel11042422253D

 34 35  0  0  1  0  0  0  0  0999 V2000
  161.7480  210.5980  153.2410 N   0  0  0  0  0  0  0  0  0  0  0  0
  160.8030  208.4060  155.0990 C   0  0  1  0  0  3  0  0  0  0  0  0
  161.0460  208.3280  153.6600 N   0  0  0  0  0  2  0  0  0  0  0  0
  161.5140  209.3890  152.8030 C   0  0  0  0  0  0  0  0  0  0  0  0
  159.8920  209.5550  155.4090 C   0  0  0  0  0  3  0  0  0  0  0  0
  160.2800  210.8100  155.1810 C   0  0  0  0  0  0  0  0  0  0  0  0
  161.6500  211.0600  154.6230 C   0  0  0  0  0  2  0  0  0  0  0  0
  161.5150  207.8280  150.9130 N   0  0  0  0  0  0  0  0  0  0  0  0
  161.6560  207.5210  149.5950 C   0  0  0  0  0  0  0  0  0  0  0  0
  162.0120  210.1080  150.4550 C   0  0  0  0  0  3  0  0  0  0  0  0
  161.6830  209.0990  151.3690 C   0  0  1  0  0  3  0  0  0  0  0  0
  162.1530  209.8010  149.1390 N   0  0  0  0  0  0  0  0  0  0  0  0
  161.9820  208.5300  148.6890 C   0  0  0  0  0  2  0  0  0  0  0  0
  161.4660  206.1810  149.1350 N   0  0  0  0  0  2  0  0  0  0  0  0
  160.3830  205.4010  149.5700 N   0  0  0  0  0  2  0  0  0  0  0  0
  160.8830  204.0550  149.8030 C   0  0  0  0  0  2  0  0  0  0  0  0
  161.5610  203.5370  148.5350 C   0  0  0  0  0  2  0  0  0  0  0  0
  161.1840  202.1600  148.1900 N   0  0  0  0  0  0  0  0  0  0  0  0
  160.0440  201.7510  148.9980 C   0  0  0  0  0  1  0  0  0  0  0  0
  160.7960  202.0800  146.7880 C   0  0  0  0  0  2  0  0  0  0  0  0
  161.4440  203.2070  146.0070 C   0  0  0  0  0  2  0  0  0  0  0  0
  160.6490  203.4970  144.8280 N   0  0  0  0  0  2  0  0  0  0  0  0
  160.8940  204.8870  144.4920 C   0  0  0  0  0  1  0  0  0  0  0  0
  158.8480  207.1870  155.7450 F   0  0  0  0  0  0  0  0  0  0  0  0
  160.5150  206.0780  154.7080 F   0  0  0  0  0  0  0  0  0  0  0  0
  160.7830  206.7700  156.8300 F   0  0  0  0  0  0  0  0  0  0  0  0
  160.2220  207.0880  155.6060 C   0  0  0  0  0  0  0  0  0  0  0  0
  158.0250  211.8970  154.9880 N   0  0  0  0  0  2  0  0  0  0  0  0
  159.3760  211.9380  155.4570 C   0  0  0  0  0  0  0  0  0  0  0  0
  159.7890  212.9380  156.1070 O   0  0  0  0  0  0  0  0  0  0  0  0
  156.7700  213.5050  157.0630 C   0  0  0  0  0  1  0  0  0  0  0  0
  157.3530  214.4510  154.5820 O   0  0  0  0  0  0  0  0  0  0  0  0
  155.3620  212.7560  154.6880 O   0  0  0  0  0  1  0  0  0  0  0  0
  156.8840  213.1960  155.2800 P   0  0  1  0  0  0  0  0  0  0  0  0
  1  7  1  0  0  0  0
  2  5  1  0  0  0  0
  2 27  1  6  0  0  0
  3  2  1  0  0  0  0
  4  1  2  0  0  0  0
  4  3  1  0  0  0  0
  6  5  2  0  0  0  0
  6 29  1  0  0  0  0
  7  6  1  0  0  0  0
  8 11  1  0  0  0  0
  9  8  2  0  0  0  0
 10 11  1  0  0  0  0
 11  4  1  6  0  0  0
 12 10  2  0  0  0  0
 13 12  1  0  0  0  0
 13  9  1  0  0  0  0
 14 15  1  0  0  0  0
 14  9  1  0  0  0  0
 15 16  1  0  0  0  0
 17 16  1  0  0  0  0
 18 17  1  0  0  0  0
 18 19  1  0  0  0  0
 20 18  1  0  0  0  0
 21 20  1  0  0  0  0
 22 21  1  0  0  0  0
 23 22  1  0  0  0  0
 25 27  1  0  0  0  0
 27 24  1  0  0  0  0
 27 26  1  0  0  0  0
 28 34  1  0  0  0  0
 28 29  1  0  0  0  0
 29 30  2  0  0  0  0
 32 34  2  0  0  0  0
 33 34  1  0  0  0  0
 34 31  1  1  0  0  0
M  END
>  <MODEL>
2

>  <REMARK>
 VINA RESULT:      -6.5      1.127      2.266
  Name = 
  12 active torsions:
  status: ('A' for Active; 'I' for Inactive)
    1  A    between atoms: N_3  and  C_26
    2  A    between atoms: N_4  and  P_28
    3  A    between atoms: N_5  and  C_19
    4  A    between atoms: N_5  and  C_25
    5  A    between atoms: C_6  and  N_22
    6  A    between atoms: C_8  and  C_31
    7  A    between atoms: C_9  and  C_33
    8  A    between atoms: C_19  and  C_26
    9  A    between atoms: C_21  and  C_23
   10  A    between atoms: N_22  and  N_30
   11  A    between atoms: C_25  and  C_27
   12  A    between atoms: C_27  and  N_30
                            x       y       z     vdW  Elec       q    Type
                         _______ _______ _______ _____ _____    ______ ____

>  <TORSDO>
F 12

$$$$
=
 OpenBabel11042422253D

 34 35  0  0  1  0  0  0  0  0999 V2000
  161.7140  209.2590  151.5390 N   0  0  0  0  0  0  0  0  0  0  0  0
  162.3750  211.0970  149.2300 C   0  0  1  0  0  3  0  0  0  0  0  0
  161.5480  211.3800  150.4010 N   0  0  0  0  0  2  0  0  0  0  0  0
  161.2660  210.4850  151.4960 C   0  0  0  0  0  0  0  0  0  0  0  0
  161.9160  209.8360  148.5630 C   0  0  0  0  0  3  0  0  0  0  0  0
  162.0100  208.6630  149.1890 C   0  0  0  0  0  0  0  0  0  0  0  0
  162.5980  208.6180  150.5690 C   0  0  0  0  0  2  0  0  0  0  0  0
  160.9200  211.2370  153.8040 N   0  0  0  0  0  0  0  0  0  0  0  0
  160.1480  211.6920  154.8280 C   0  0  0  0  0  0  0  0  0  0  0  0
  159.0200  211.1660  152.3760 C   0  0  0  0  0  3  0  0  0  0  0  0
  160.3930  210.9690  152.5790 C   0  0  1  0  0  3  0  0  0  0  0  0
  158.2490  211.6200  153.3980 N   0  0  0  0  0  0  0  0  0  0  0  0
  158.7830  211.8880  154.6190 C   0  0  0  0  0  2  0  0  0  0  0  0
  160.7240  211.9760  156.1040 N   0  0  0  0  0  2  0  0  0  0  0  0
  160.9250  210.9680  157.0610 N   0  0  0  0  0  2  0  0  0  0  0  0
  161.9160  210.0500  156.5240 C   0  0  0  0  0  2  0  0  0  0  0  0
  161.8200  208.7110  157.2560 C   0  0  0  0  0  2  0  0  0  0  0  0
  161.3670  207.6070  156.4000 N   0  0  0  0  0  0  0  0  0  0  0  0
  160.0650  207.1410  156.8550 C   0  0  0  0  0  1  0  0  0  0  0  0
  161.2280  208.0620  155.0230 C   0  0  0  0  0  2  0  0  0  0  0  0
  160.7120  206.9310  154.1540 C   0  0  0  0  0  2  0  0  0  0  0  0
  161.8300  206.2730  153.5020 N   0  0  0  0  0  2  0  0  0  0  0  0
  161.2860  205.1250  152.8010 C   0  0  0  0  0  1  0  0  0  0  0  0
  161.4590  212.0260  147.2230 F   0  0  0  0  0  0  0  0  0  0  0  0
  161.9270  213.4140  148.9370 F   0  0  0  0  0  0  0  0  0  0  0  0
  163.6030  212.5020  147.7470 F   0  0  0  0  0  0  0  0  0  0  0  0
  162.3380  212.2780  148.2630 C   0  0  0  0  0  0  0  0  0  0  0  0
  162.3180  206.8110  147.5230 N   0  0  0  0  0  2  0  0  0  0  0  0
  161.5330  207.4270  148.5480 C   0  0  0  0  0  0  0  0  0  0  0  0
  160.4360  206.9120  148.9000 O   0  0  0  0  0  0  0  0  0  0  0  0
  160.5380  205.7220  145.4940 C   0  0  0  0  0  1  0  0  0  0  0  0
  163.0110  204.7190  146.0130 O   0  0  0  0  0  0  0  0  0  0  0  0
  161.2090  204.2450  147.8500 O   0  0  0  0  0  1  0  0  0  0  0  0
  161.8230  205.3360  146.7140 P   0  0  1  0  0  0  0  0  0  0  0  0
  2 27  1  6  0  0  0
  2  3  1  0  0  0  0
  3  4  1  0  0  0  0
  4  1  2  0  0  0  0
  5  6  2  0  0  0  0
  5  2  1  0  0  0  0
  6  7  1  0  0  0  0
  7  1  1  0  0  0  0
  8  9  2  0  0  0  0
  9 14  1  0  0  0  0
 10 11  1  0  0  0  0
 10 12  2  0  0  0  0
 11  4  1  6  0  0  0
 11  8  1  0  0  0  0
 12 13  1  0  0  0  0
 13  9  1  0  0  0  0
 14 15  1  0  0  0  0
 16 15  1  0  0  0  0
 16 17  1  0  0  0  0
 18 19  1  0  0  0  0
 18 17  1  0  0  0  0
 20 18  1  0  0  0  0
 21 20  1  0  0  0  0
 22 21  1  0  0  0  0
 23 22  1  0  0  0  0
 24 27  1  0  0  0  0
 26 27  1  0  0  0  0
 27 25  1  0  0  0  0
 28 29  1  0  0  0  0
 29 30  2  0  0  0  0
 29  6  1  0  0  0  0
 32 34  2  0  0  0  0
 34 31  1  6  0  0  0
 34 28  1  0  0  0  0
 34 33  1  0  0  0  0
M  END
>  <MODEL>
3

>  <REMARK>
 VINA RESULT:      -6.3      5.332      8.796
  Name = 
  12 active torsions:
  status: ('A' for Active; 'I' for Inactive)
    1  A    between atoms: N_3  and  C_26
    2  A    between atoms: N_4  and  P_28
    3  A    between atoms: N_5  and  C_19
    4  A    between atoms: N_5  and  C_25
    5  A    between atoms: C_6  and  N_22
    6  A    between atoms: C_8  and  C_31
    7  A    between atoms: C_9  and  C_33
    8  A    between atoms: C_19  and  C_26
    9  A    between atoms: C_21  and  C_23
   10  A    between atoms: N_22  and  N_30
   11  A    between atoms: C_25  and  C_27
   12  A    between atoms: C_27  and  N_30
                            x       y       z     vdW  Elec       q    Type
                         _______ _______ _______ _____ _____    ______ ____

>  <TORSDO>
F 12

$$$$
=
 OpenBabel11042422253D

 34 35  0  0  1  0  0  0  0  0999 V2000
  161.8690  206.5170  152.9780 N   0  0  0  0  0  0  0  0  0  0  0  0
  162.1800  207.6150  150.1770 C   0  0  1  0  0  3  0  0  0  0  0  0
  161.5610  208.2560  151.3350 N   0  0  0  0  0  2  0  0  0  0  0  0
  161.4430  207.7120  152.6650 C   0  0  0  0  0  0  0  0  0  0  0  0
  161.5940  206.2520  149.9640 C   0  0  0  0  0  3  0  0  0  0  0  0
  161.7660  205.2900  150.8690 C   0  0  0  0  0  0  0  0  0  0  0  0
  162.5700  205.5830  152.1020 C   0  0  0  0  0  2  0  0  0  0  0  0
  160.5170  209.8420  153.4510 N   0  0  0  0  0  0  0  0  0  0  0  0
  159.8900  210.6250  154.3700 C   0  0  0  0  0  0  0  0  0  0  0  0
  160.3730  207.9730  154.9160 C   0  0  0  0  0  3  0  0  0  0  0  0
  160.7680  208.5260  153.6900 C   0  0  0  0  0  0  0  0  0  0  0  0
  159.7470  208.7560  155.8340 N   0  0  0  0  0  0  0  0  0  0  0  0
  159.4970  210.0690  155.5870 C   0  0  0  0  0  3  0  0  0  0  0  0
  159.6280  212.0020  154.0940 N   0  0  0  0  0  2  0  0  0  0  0  0
  158.3280  212.5290  154.1490 N   0  0  0  0  0  2  0  0  0  0  0  0
  158.2410  213.5770  153.1450 C   0  0  0  0  0  2  0  0  0  0  0  0
  159.0540  213.1720  151.9150 C   0  0  0  0  0  2  0  0  0  0  0  0
  158.3240  213.3310  150.6510 N   0  0  0  0  0  0  0  0  0  0  0  0
  157.1000  214.0830  150.8870 C   0  0  0  0  0  1  0  0  0  0  0  0
  159.1330  214.0730  149.6920 C   0  0  0  0  0  2  0  0  0  0  0  0
  160.4390  213.3430  149.4430 C   0  0  0  0  0  2  0  0  0  0  0  0
  160.9300  213.6690  148.1170 N   0  0  0  0  0  2  0  0  0  0  0  0
  162.1370  214.4520  148.3010 C   0  0  0  0  0  1  0  0  0  0  0  0
  160.8840  208.1060  148.2260 F   0  0  0  0  0  0  0  0  0  0  0  0
  161.8720  209.8120  149.3200 F   0  0  0  0  0  0  0  0  0  0  0  0
  163.1230  208.3760  148.1260 F   0  0  0  0  0  0  0  0  0  0  0  0
  162.0080  208.4900  148.9370 C   0  0  0  0  0  0  0  0  0  0  0  0
  161.2540  203.3200  149.4000 N   0  0  0  0  0  2  0  0  0  0  0  0
  161.1660  203.9590  150.6760 C   0  0  0  0  0  0  0  0  0  0  0  0
  160.5780  203.3830  151.6330 O   0  0  0  0  0  0  0  0  0  0  0  0
  160.9280  201.2540  147.3770 C   0  0  0  0  0  1  0  0  0  0  0  0
  161.1830  200.7250  150.0310 O   0  0  0  0  0  1  0  0  0  0  0  0
  158.8970  201.7820  149.3210 O   0  0  0  0  0  0  0  0  0  0  0  0
  160.5720  201.7350  149.0880 P   0  0  1  0  0  0  0  0  0  0  0  0
  2 27  1  6  0  0  0
  2  3  1  0  0  0  0
  3  4  1  0  0  0  0
  4  1  2  0  0  0  0
  4 11  1  0  0  0  0
  5  2  1  0  0  0  0
  5  6  2  0  0  0  0
  6  7  1  0  0  0  0
  7  1  1  0  0  0  0
  8 11  1  0  0  0  0
  8  9  2  0  0  0  0
  9 13  1  0  0  0  0
 10 12  1  0  0  0  0
 11 10  2  0  0  0  0
 13 12  2  0  0  0  0
 14 15  1  0  0  0  0
 14  9  1  0  0  0  0
 16 15  1  0  0  0  0
 17 16  1  0  0  0  0
 18 19  1  0  0  0  0
 18 17  1  0  0  0  0
 20 18  1  0  0  0  0
 21 20  1  0  0  0  0
 22 23  1  0  0  0  0
 22 21  1  0  0  0  0
 24 27  1  0  0  0  0
 26 27  1  0  0  0  0
 27 25  1  0  0  0  0
 28 29  1  0  0  0  0
 29  6  1  0  0  0  0
 29 30  2  0  0  0  0
 34 31  1  6  0  0  0
 34 33  2  0  0  0  0
 34 28  1  0  0  0  0
 34 32  1  0  0  0  0
M  END
>  <MODEL>
4

>  <REMARK>
 VINA RESULT:      -6.2      5.371      9.420
  Name = 
  12 active torsions:
  status: ('A' for Active; 'I' for Inactive)
    1  A    between atoms: N_3  and  C_26
    2  A    between atoms: N_4  and  P_28
    3  A    between atoms: N_5  and  C_19
    4  A    between atoms: N_5  and  C_25
    5  A    between atoms: C_6  and  N_22
    6  A    between atoms: C_8  and  C_31
    7  A    between atoms: C_9  and  C_33
    8  A    between atoms: C_19  and  C_26
    9  A    between atoms: C_21  and  C_23
   10  A    between atoms: N_22  and  N_30
   11  A    between atoms: C_25  and  C_27
   12  A    between atoms: C_27  and  N_30
                            x       y       z     vdW  Elec       q    Type
                         _______ _______ _______ _____ _____    ______ ____

>  <TORSDO>
F 12

$$$$
=
 OpenBabel11042422253D

 34 35  0  0  1  0  0  0  0  0999 V2000
  162.7770  212.2910  147.6710 N   0  0  0  0  0  0  0  0  0  0  0  0
  160.0210  213.5080  147.4070 C   0  0  1  0  0  3  0  0  0  0  0  0
  160.4170  212.3260  148.1690 N   0  0  0  0  0  2  0  0  0  0  0  0
  161.7460  211.7800  148.2890 C   0  0  0  0  0  0  0  0  0  0  0  0
  160.5000  213.3960  145.9910 C   0  0  0  0  0  3  0  0  0  0  0  0
  161.8040  213.3800  145.7140 C   0  0  0  0  0  0  0  0  0  0  0  0
  162.7900  213.4920  146.8400 C   0  0  0  0  0  2  0  0  0  0  0  0
  162.0060  209.3500  148.4980 N   0  0  0  0  0  0  0  0  0  0  0  0
  162.1770  208.2080  149.2160 C   0  0  0  0  0  0  0  0  0  0  0  0
  162.0200  210.6330  150.5010 C   0  0  0  0  0  3  0  0  0  0  0  0
  161.9260  210.5660  149.1040 C   0  0  1  0  0  3  0  0  0  0  0  0
  162.1910  209.4920  151.2180 N   0  0  0  0  0  0  0  0  0  0  0  0
  162.2720  208.2800  150.6060 C   0  0  0  0  0  2  0  0  0  0  0  0
  162.2670  206.9420  148.5580 N   0  0  0  0  0  2  0  0  0  0  0  0
  161.2450  205.9850  148.6610 N   0  0  0  0  0  2  0  0  0  0  0  0
  161.1660  205.2960  147.3820 C   0  0  0  0  0  2  0  0  0  0  0  0
  161.8330  203.9260  147.5000 C   0  0  0  0  0  2  0  0  0  0  0  0
  160.8780  202.8210  147.6570 N   0  0  0  0  0  0  0  0  0  0  0  0
  160.9390  201.9560  146.4880 C   0  0  0  0  0  1  0  0  0  0  0  0
  161.2200  202.0240  148.8280 C   0  0  0  0  0  2  0  0  0  0  0  0
  160.4900  202.5560  150.0470 C   0  0  0  0  0  2  0  0  0  0  0  0
  161.4500  202.8550  151.0930 N   0  0  0  0  0  2  0  0  0  0  0  0
  160.8190  203.8200  151.9740 C   0  0  0  0  0  1  0  0  0  0  0  0
  158.0580  214.3840  146.3550 F   0  0  0  0  0  0  0  0  0  0  0  0
  157.8950  212.4460  147.4970 F   0  0  0  0  0  0  0  0  0  0  0  0
  158.1590  214.3820  148.6100 F   0  0  0  0  0  0  0  0  0  0  0  0
  158.5050  213.6870  147.4640 C   0  0  0  0  0  0  0  0  0  0  0  0
  161.3300  213.2030  143.2560 N   0  0  0  0  0  2  0  0  0  0  0  0
  162.2770  213.2410  144.3280 C   0  0  0  0  0  0  0  0  0  0  0  0
  163.5120  213.1580  144.0830 O   0  0  0  0  0  0  0  0  0  0  0  0
  160.4030  213.4510  140.5090 C   0  0  0  0  0  1  0  0  0  0  0  0
  162.9510  213.9920  141.2840 O   0  0  0  0  0  1  0  0  0  0  0  0
  162.3050  211.4560  141.2750 O   0  0  0  0  0  0  0  0  0  0  0  0
  161.8110  213.0460  141.5760 P   0  0  1  0  0  0  0  0  0  0  0  0
  1  4  2  0  0  0  0
  2 27  1  6  0  0  0
  2  3  1  0  0  0  0
  3  4  1  0  0  0  0
  5  2  1  0  0  0  0
  6  5  2  0  0  0  0
  6  7  1  0  0  0  0
  7  1  1  0  0  0  0
  8 11  1  0  0  0  0
  8  9  2  0  0  0  0
  9 13  1  0  0  0  0
 10 12  2  0  0  0  0
 11  4  1  6  0  0  0
 11 10  1  0  0  0  0
 13 12  1  0  0  0  0
 14 15  1  0  0  0  0
 14  9  1  0  0  0  0
 16 17  1  0  0  0  0
 16 15  1  0  0  0  0
 17 18  1  0  0  0  0
 18 20  1  0  0  0  0
 19 18  1  0  0  0  0
 20 21  1  0  0  0  0
 21 22  1  0  0  0  0
 22 23  1  0  0  0  0
 24 27  1  0  0  0  0
 27 25  1  0  0  0  0
 27 26  1  0  0  0  0
 28 29  1  0  0  0  0
 29  6  1  0  0  0  0
 30 29  2  0  0  0  0
 32 34  1  0  0  0  0
 33 34  2  0  0  0  0
 34 31  1  6  0  0  0
 34 28  1  0  0  0  0
M  END
>  <MODEL>
5

>  <REMARK>
 VINA RESULT:      -6.0      6.702      8.546
  Name = 
  12 active torsions:
  status: ('A' for Active; 'I' for Inactive)
    1  A    between atoms: N_3  and  C_26
    2  A    between atoms: N_4  and  P_28
    3  A    between atoms: N_5  and  C_19
    4  A    between atoms: N_5  and  C_25
    5  A    between atoms: C_6  and  N_22
    6  A    between atoms: C_8  and  C_31
    7  A    between atoms: C_9  and  C_33
    8  A    between atoms: C_19  and  C_26
    9  A    between atoms: C_21  and  C_23
   10  A    between atoms: N_22  and  N_30
   11  A    between atoms: C_25  and  C_27
   12  A    between atoms: C_27  and  N_30
                            x       y       z     vdW  Elec       q    Type
                         _______ _______ _______ _____ _____    ______ ____

>  <TORSDO>
F 12

$$$$
=
 OpenBabel11042422253D

 34 35  0  0  1  0  0  0  0  0999 V2000
  162.3150  208.3130  151.5520 N   0  0  0  0  0  0  0  0  0  0  0  0
  161.0110  209.5210  153.9980 C   0  0  1  0  0  3  0  0  0  0  0  0
  160.9020  208.1520  153.5010 N   0  0  0  0  0  2  0  0  0  0  0  0
  161.5530  207.6000  152.3370 C   0  0  0  0  0  0  0  0  0  0  0  0
  160.6940  210.4970  152.9050 C   0  0  0  0  0  3  0  0  0  0  0  0
  161.4750  210.5880  151.8290 C   0  0  0  0  0  0  0  0  0  0  0  0
  162.6900  209.7130  151.7330 C   0  0  0  0  0  2  0  0  0  0  0  0
  161.1530  205.8150  150.7050 N   0  0  0  0  0  0  0  0  0  0  0  0
  160.9220  204.5200  150.3570 C   0  0  0  0  0  0  0  0  0  0  0  0
  161.2020  205.2100  153.0040 C   0  0  0  0  0  3  0  0  0  0  0  0
  161.2970  206.1880  152.0050 C   0  0  1  0  0  3  0  0  0  0  0  0
  160.9710  203.9170  152.6570 N   0  0  0  0  0  0  0  0  0  0  0  0
  160.8300  203.5500  151.3550 C   0  0  0  0  0  2  0  0  0  0  0  0
  160.7820  204.1490  148.9840 N   0  0  0  0  0  2  0  0  0  0  0  0
  161.6340  203.2070  148.3860 N   0  0  0  0  0  2  0  0  0  0  0  0
  160.8950  202.5790  147.3030 C   0  0  0  0  0  2  0  0  0  0  0  0
  161.2050  203.2990  145.9900 C   0  0  0  0  0  2  0  0  0  0  0  0
  162.0330  204.4990  146.1620 N   0  0  0  0  0  0  0  0  0  0  0  0
  163.2910  204.3280  145.4500 C   0  0  0  0  0  1  0  0  0  0  0  0
  161.3540  205.6630  145.6070 C   0  0  0  0  0  2  0  0  0  0  0  0
  161.0040  206.6360  146.7160 C   0  0  0  0  0  2  0  0  0  0  0  0
  162.1890  206.9120  147.5090 N   0  0  0  0  0  2  0  0  0  0  0  0
  161.9140  208.1210  148.2610 C   0  0  0  0  0  1  0  0  0  0  0  0
  160.7600  210.3590  156.2250 F   0  0  0  0  0  0  0  0  0  0  0  0
  158.9980  210.4830  154.8230 F   0  0  0  0  0  0  0  0  0  0  0  0
  159.6340  208.4900  155.6470 F   0  0  0  0  0  0  0  0  0  0  0  0
  160.0880  209.7180  155.1990 C   0  0  0  0  0  0  0  0  0  0  0  0
  161.9700  211.5640  149.5700 N   0  0  0  0  0  2  0  0  0  0  0  0
  161.1490  211.5250  150.7410 C   0  0  0  0  0  0  0  0  0  0  0  0
  160.1490  212.2880  150.8380 O   0  0  0  0  0  0  0  0  0  0  0  0
  160.1160  212.1360  147.4020 C   0  0  0  0  0  1  0  0  0  0  0  0
  161.4970  214.0590  148.7380 O   0  0  0  0  0  1  0  0  0  0  0  0
  162.9280  212.5770  147.1250 O   0  0  0  0  0  0  0  0  0  0  0  0
  161.6480  212.6450  148.2270 P   0  0  1  0  0  0  0  0  0  0  0  0
  1  7  1  0  0  0  0
  1  4  2  0  0  0  0
  2 27  1  1  0  0  0
  3  2  1  0  0  0  0
  4  3  1  0  0  0  0
  5  2  1  0  0  0  0
  6  5  2  0  0  0  0
  7  6  1  0  0  0  0
  8 11  1  0  0  0  0
  9  8  2  0  0  0  0
  9 13  1  0  0  0  0
 11  4  1  6  0  0  0
 11 10  1  0  0  0  0
 12 10  2  0  0  0  0
 13 12  1  0  0  0  0
 14  9  1  0  0  0  0
 15 14  1  0  0  0  0
 16 15  1  0  0  0  0
 17 18  1  0  0  0  0
 17 16  1  0  0  0  0
 19 18  1  0  0  0  0
 20 18  1  0  0  0  0
 20 21  1  0  0  0  0
 21 22  1  0  0  0  0
 22 23  1  0  0  0  0
 25 27  1  0  0  0  0
 27 26  1  0  0  0  0
 27 24  1  0  0  0  0
 28 29  1  0  0  0  0
 29 30  2  0  0  0  0
 29  6  1  0  0  0  0
 33 34  2  0  0  0  0
 34 31  1  6  0  0  0
 34 32  1  0  0  0  0
 34 28  1  0  0  0  0
M  END
>  <MODEL>
6

>  <REMARK>
 VINA RESULT:      -6.0      3.284      5.127
  Name = 
  12 active torsions:
  status: ('A' for Active; 'I' for Inactive)
    1  A    between atoms: N_3  and  C_26
    2  A    between atoms: N_4  and  P_28
    3  A    between atoms: N_5  and  C_19
    4  A    between atoms: N_5  and  C_25
    5  A    between atoms: C_6  and  N_22
    6  A    between atoms: C_8  and  C_31
    7  A    between atoms: C_9  and  C_33
    8  A    between atoms: C_19  and  C_26
    9  A    between atoms: C_21  and  C_23
   10  A    between atoms: N_22  and  N_30
   11  A    between atoms: C_25  and  C_27
   12  A    between atoms: C_27  and  N_30
                            x       y       z     vdW  Elec       q    Type
                         _______ _______ _______ _____ _____    ______ ____

>  <TORSDO>
F 12

$$$$
=
 OpenBabel11042422253D

 34 35  0  0  1  0  0  0  0  0999 V2000
  162.4210  207.6560  151.2750 N   0  0  0  0  0  0  0  0  0  0  0  0
  162.3280  210.0610  149.4430 C   0  0  1  0  0  3  0  0  0  0  0  0
  161.8310  209.9490  150.8130 N   0  0  0  0  0  2  0  0  0  0  0  0
  161.9070  208.7900  151.6690 C   0  0  0  0  0  0  0  0  0  0  0  0
  161.7800  208.9480  148.6010 C   0  0  0  0  0  3  0  0  0  0  0  0
  162.1070  207.6820  148.8540 C   0  0  0  0  0  0  0  0  0  0  0  0
  163.0470  207.3820  149.9850 C   0  0  0  0  0  2  0  0  0  0  0  0
  161.2820  210.0950  153.6490 N   0  0  0  0  0  0  0  0  0  0  0  0
  160.7520  210.2270  154.8950 C   0  0  0  0  0  0  0  0  0  0  0  0
  160.8230  207.7610  153.6800 C   0  0  0  0  0  3  0  0  0  0  0  0
  161.3300  208.8890  153.0210 C   0  0  1  0  0  3  0  0  0  0  0  0
  160.2950  207.8940  154.9250 N   0  0  0  0  0  0  0  0  0  0  0  0
  160.2470  209.1020  155.5460 C   0  0  0  0  0  2  0  0  0  0  0  0
  160.7030  211.5050  155.5330 N   0  0  0  0  0  2  0  0  0  0  0  0
  159.7030  212.4410  155.2290 N   0  0  0  0  0  2  0  0  0  0  0  0
  158.8280  212.5340  156.3870 C   0  0  0  0  0  2  0  0  0  0  0  0
  157.4580  213.0520  155.9500 C   0  0  0  0  0  2  0  0  0  0  0  0
  156.9120  212.3510  154.7800 N   0  0  0  0  0  0  0  0  0  0  0  0
  156.0060  211.3000  155.2220 C   0  0  0  0  0  1  0  0  0  0  0  0
  156.1570  213.2770  153.9460 C   0  0  0  0  0  2  0  0  0  0  0  0
  157.1050  214.2300  153.2440 C   0  0  0  0  0  2  0  0  0  0  0  0
  157.4360  213.7050  151.9320 N   0  0  0  0  0  2  0  0  0  0  0  0
  158.8720  213.4970  151.9160 C   0  0  0  0  0  1  0  0  0  0  0  0
  163.1060  212.1470  148.5680 F   0  0  0  0  0  0  0  0  0  0  0  0
  161.2270  211.2520  147.7040 F   0  0  0  0  0  0  0  0  0  0  0  0
  161.1980  212.1330  149.7730 F   0  0  0  0  0  0  0  0  0  0  0  0
  161.9630  211.4250  148.8620 C   0  0  0  0  0  0  0  0  0  0  0  0
  162.3460  205.9760  147.0270 N   0  0  0  0  0  2  0  0  0  0  0  0
  161.5480  206.5850  148.0460 C   0  0  0  0  0  0  0  0  0  0  0  0
  160.3700  206.1820  148.2520 O   0  0  0  0  0  0  0  0  0  0  0  0
  160.4990  205.2950  144.8840 C   0  0  0  0  0  1  0  0  0  0  0  0
  162.9010  204.0720  145.2360 O   0  0  0  0  0  0  0  0  0  0  0  0
  161.0720  203.4660  147.0070 O   0  0  0  0  0  1  0  0  0  0  0  0
  161.7560  204.6620  146.0260 P   0  0  1  0  0  0  0  0  0  0  0  0
  1  4  2  0  0  0  0
  2 27  1  6  0  0  0
  2  3  1  0  0  0  0
  3  4  1  0  0  0  0
  5  6  2  0  0  0  0
  5  2  1  0  0  0  0
  6  7  1  0  0  0  0
  7  1  1  0  0  0  0
  8  9  2  0  0  0  0
  9 14  1  0  0  0  0
  9 13  1  0  0  0  0
 10 12  2  0  0  0  0
 11  4  1  6  0  0  0
 11  8  1  0  0  0  0
 11 10  1  0  0  0  0
 12 13  1  0  0  0  0
 15 14  1  0  0  0  0
 15 16  1  0  0  0  0
 17 16  1  0  0  0  0
 18 19  1  0  0  0  0
 18 17  1  0  0  0  0
 20 18  1  0  0  0  0
 21 20  1  0  0  0  0
 22 21  1  0  0  0  0
 23 22  1  0  0  0  0
 24 27  1  0  0  0  0
 25 27  1  0  0  0  0
 27 26  1  0  0  0  0
 28 29  1  0  0  0  0
 29 30  2  0  0  0  0
 29  6  1  0  0  0  0
 32 34  2  0  0  0  0
 34 31  1  6  0  0  0
 34 33  1  0  0  0  0
 34 28  1  0  0  0  0
M  END
>  <MODEL>
7

>  <REMARK>
 VINA RESULT:      -5.9      5.337      9.900
  Name = 
  12 active torsions:
  status: ('A' for Active; 'I' for Inactive)
    1  A    between atoms: N_3  and  C_26
    2  A    between atoms: N_4  and  P_28
    3  A    between atoms: N_5  and  C_19
    4  A    between atoms: N_5  and  C_25
    5  A    between atoms: C_6  and  N_22
    6  A    between atoms: C_8  and  C_31
    7  A    between atoms: C_9  and  C_33
    8  A    between atoms: C_19  and  C_26
    9  A    between atoms: C_21  and  C_23
   10  A    between atoms: N_22  and  N_30
   11  A    between atoms: C_25  and  C_27
   12  A    between atoms: C_27  and  N_30
                            x       y       z     vdW  Elec       q    Type
                         _______ _______ _______ _____ _____    ______ ____

>  <TORSDO>
F 12

$$$$
=
 OpenBabel11042422253D

 34 35  0  0  1  0  0  0  0  0999 V2000
  162.0160  206.0310  153.0130 N   0  0  0  0  0  0  0  0  0  0  0  0
  162.2220  207.4150  150.3320 C   0  0  1  0  0  3  0  0  0  0  0  0
  161.6470  207.9300  151.5720 N   0  0  0  0  0  2  0  0  0  0  0  0
  161.5800  207.2500  152.8420 C   0  0  0  0  0  0  0  0  0  0  0  0
  161.6270  206.0790  150.0000 C   0  0  0  0  0  3  0  0  0  0  0  0
  161.8320  205.0290  150.7940 C   0  0  0  0  0  0  0  0  0  0  0  0
  162.6830  205.1950  152.0190 C   0  0  0  0  0  2  0  0  0  0  0  0
  161.0060  209.3090  154.0440 N   0  0  0  0  0  0  0  0  0  0  0  0
  160.4270  209.9930  155.0680 C   0  0  0  0  0  0  0  0  0  0  0  0
  160.2690  207.2490  154.9780 C   0  0  0  0  0  3  0  0  0  0  0  0
  160.9440  207.9520  153.9710 C   0  0  0  0  0  0  0  0  0  0  0  0
  159.6910  207.9330  156.0010 N   0  0  0  0  0  0  0  0  0  0  0  0
  159.7540  209.2890  156.0670 C   0  0  0  0  0  3  0  0  0  0  0  0
  160.4960  211.4190  155.1200 N   0  0  0  0  0  2  0  0  0  0  0  0
  160.0770  212.2170  154.0430 N   0  0  0  0  0  2  0  0  0  0  0  0
  158.7350  211.7890  153.6820 C   0  0  0  0  0  2  0  0  0  0  0  0
  158.4710  212.1270  152.2150 C   0  0  0  0  0  2  0  0  0  0  0  0
  158.1710  213.5460  151.9850 N   0  0  0  0  0  0  0  0  0  0  0  0
  157.5290  213.7040  150.6880 C   0  0  0  0  0  1  0  0  0  0  0  0
  157.2570  214.0400  153.0060 C   0  0  0  0  0  2  0  0  0  0  0  0
  155.8510  214.1280  152.4420 C   0  0  0  0  0  2  0  0  0  0  0  0
  154.9040  214.2960  153.5290 N   0  0  0  0  0  2  0  0  0  0  0  0
  155.5010  213.6810  154.7000 C   0  0  0  0  0  1  0  0  0  0  0  0
  163.0590  208.3660  148.3020 F   0  0  0  0  0  0  0  0  0  0  0  0
  160.8310  208.1080  148.5320 F   0  0  0  0  0  0  0  0  0  0  0  0
  161.9020  209.6930  149.7130 F   0  0  0  0  0  0  0  0  0  0  0  0
  162.0050  208.4130  149.1970 C   0  0  0  0  0  0  0  0  0  0  0  0
  161.2400  203.2340  149.1420 N   0  0  0  0  0  2  0  0  0  0  0  0
  161.2250  203.7240  150.4860 C   0  0  0  0  0  0  0  0  0  0  0  0
  160.6940  203.0380  151.4030 O   0  0  0  0  0  0  0  0  0  0  0  0
  160.8140  201.3990  146.9240 C   0  0  0  0  0  1  0  0  0  0  0  0
  161.2010  200.5840  149.4880 O   0  0  0  0  0  1  0  0  0  0  0  0
  158.8820  201.7000  149.0120 O   0  0  0  0  0  0  0  0  0  0  0  0
  160.5430  201.6880  148.6930 P   0  0  1  0  0  0  0  0  0  0  0  0
  2 27  1  6  0  0  0
  2  3  1  0  0  0  0
  3  4  1  0  0  0  0
  4  1  2  0  0  0  0
  4 11  1  0  0  0  0
  5  2  1  0  0  0  0
  5  6  2  0  0  0  0
  6  7  1  0  0  0  0
  7  1  1  0  0  0  0
  8  9  2  0  0  0  0
  9 14  1  0  0  0  0
  9 13  1  0  0  0  0
 10 12  1  0  0  0  0
 11  8  1  0  0  0  0
 11 10  2  0  0  0  0
 12 13  2  0  0  0  0
 15 14  1  0  0  0  0
 16 15  1  0  0  0  0
 17 16  1  0  0  0  0
 18 17  1  0  0  0  0
 18 20  1  0  0  0  0
 19 18  1  0  0  0  0
 21 20  1  0  0  0  0
 21 22  1  0  0  0  0
 22 23  1  0  0  0  0
 24 27  1  0  0  0  0
 25 27  1  0  0  0  0
 27 26  1  0  0  0  0
 28 29  1  0  0  0  0
 29  6  1  0  0  0  0
 29 30  2  0  0  0  0
 34 31  1  6  0  0  0
 34 33  2  0  0  0  0
 34 28  1  0  0  0  0
 34 32  1  0  0  0  0
M  END
>  <MODEL>
8

>  <REMARK>
 VINA RESULT:      -5.9      5.268      9.687
  Name = 
  12 active torsions:
  status: ('A' for Active; 'I' for Inactive)
    1  A    between atoms: N_3  and  C_26
    2  A    between atoms: N_4  and  P_28
    3  A    between atoms: N_5  and  C_19
    4  A    between atoms: N_5  and  C_25
    5  A    between atoms: C_6  and  N_22
    6  A    between atoms: C_8  and  C_31
    7  A    between atoms: C_9  and  C_33
    8  A    between atoms: C_19  and  C_26
    9  A    between atoms: C_21  and  C_23
   10  A    between atoms: N_22  and  N_30
   11  A    between atoms: C_25  and  C_27
   12  A    between atoms: C_27  and  N_30
                            x       y       z     vdW  Elec       q    Type
                         _______ _______ _______ _____ _____    ______ ____

>  <TORSDO>
F 12

$$$$
=
 OpenBabel11042422253D

 34 35  0  0  1  0  0  0  0  0999 V2000
  162.2010  212.6970  146.9880 N   0  0  0  0  0  0  0  0  0  0  0  0
  159.3060  213.4380  146.5230 C   0  0  1  0  0  3  0  0  0  0  0  0
  159.8470  212.4570  147.4610 N   0  0  0  0  0  2  0  0  0  0  0  0
  161.2380  212.1390  147.6710 C   0  0  0  0  0  0  0  0  0  0  0  0
  159.8360  213.1850  145.1440 C   0  0  0  0  0  3  0  0  0  0  0  0
  161.1360  213.3200  144.8810 C   0  0  0  0  0  0  0  0  0  0  0  0
  162.0630  213.7460  145.9810 C   0  0  0  0  0  2  0  0  0  0  0  0
  161.7980  209.8250  148.2590 N   0  0  0  0  0  0  0  0  0  0  0  0
  162.1110  208.8420  149.1450 C   0  0  0  0  0  0  0  0  0  0  0  0
  161.6570  211.4050  150.0310 C   0  0  0  0  0  3  0  0  0  0  0  0
  161.5690  211.1030  148.6650 C   0  0  1  0  0  3  0  0  0  0  0  0
  161.9700  210.4230  150.9160 N   0  0  0  0  0  0  0  0  0  0  0  0
  162.2000  209.1480  150.5030 C   0  0  0  0  0  2  0  0  0  0  0  0
  162.3570  207.5070  148.6960 N   0  0  0  0  0  2  0  0  0  0  0  0
  161.4090  206.4870  148.8700 N   0  0  0  0  0  2  0  0  0  0  0  0
  160.7300  206.3030  147.5970 C   0  0  0  0  0  2  0  0  0  0  0  0
  161.5680  205.3920  146.6990 C   0  0  0  0  0  2  0  0  0  0  0  0
  160.8560  204.9360  145.4990 N   0  0  0  0  0  0  0  0  0  0  0  0
  161.2990  205.7090  144.3470 C   0  0  0  0  0  1  0  0  0  0  0  0
  161.1510  203.5320  145.2420 C   0  0  0  0  0  2  0  0  0  0  0  0
  161.4430  202.8180  146.5470 C   0  0  0  0  0  2  0  0  0  0  0  0
  160.8050  201.5140  146.5380 N   0  0  0  0  0  2  0  0  0  0  0  0
  160.0950  201.4070  145.2780 C   0  0  0  0  0  1  0  0  0  0  0  0
  157.3100  213.4950  147.8420 F   0  0  0  0  0  0  0  0  0  0  0  0
  157.2790  214.4530  145.8010 F   0  0  0  0  0  0  0  0  0  0  0  0
  157.3350  212.2130  145.9850 F   0  0  0  0  0  0  0  0  0  0  0  0
  157.7800  213.3980  146.5430 C   0  0  0  0  0  0  0  0  0  0  0  0
  160.8200  213.2190  142.3920 N   0  0  0  0  0  2  0  0  0  0  0  0
  161.6630  213.0440  143.5350 C   0  0  0  0  0  0  0  0  0  0  0  0
  162.8550  212.6550  143.3870 O   0  0  0  0  0  0  0  0  0  0  0  0
  161.7810  211.1600  140.5740 C   0  0  0  0  0  1  0  0  0  0  0  0
  160.2830  213.2830  139.7760 O   0  0  0  0  0  0  0  0  0  0  0  0
  162.7500  213.8480  140.4420 O   0  0  0  0  0  1  0  0  0  0  0  0
  161.3730  212.9180  140.7550 P   0  0  1  0  0  0  0  0  0  0  0  0
  1  4  2  0  0  0  0
  2 27  1  6  0  0  0
  2  3  1  0  0  0  0
  3  4  1  0  0  0  0
  5  2  1  0  0  0  0
  6  5  2  0  0  0  0
  6  7  1  0  0  0  0
  7  1  1  0  0  0  0
  8 11  1  0  0  0  0
  8  9  2  0  0  0  0
  9 13  1  0  0  0  0
 10 12  2  0  0  0  0
 11  4  1  6  0  0  0
 11 10  1  0  0  0  0
 13 12  1  0  0  0  0
 14 15  1  0  0  0  0
 14  9  1  0  0  0  0
 16 15  1  0  0  0  0
 17 16  1  0  0  0  0
 18 17  1  0  0  0  0
 19 18  1  0  0  0  0
 20 18  1  0  0  0  0
 20 21  1  0  0  0  0
 22 21  1  0  0  0  0
 23 22  1  0  0  0  0
 25 27  1  0  0  0  0
 26 27  1  0  0  0  0
 27 24  1  0  0  0  0
 28 29  1  0  0  0  0
 29  6  1  0  0  0  0
 30 29  2  0  0  0  0
 32 34  2  0  0  0  0
 33 34  1  0  0  0  0
 34 31  1  6  0  0  0
 34 28  1  0  0  0  0
M  END
>  <MODEL>
9

>  <REMARK>
 VINA RESULT:      -5.7      7.132      9.143
  Name = 
  12 active torsions:
  status: ('A' for Active; 'I' for Inactive)
    1  A    between atoms: N_3  and  C_26
    2  A    between atoms: N_4  and  P_28
    3  A    between atoms: N_5  and  C_19
    4  A    between atoms: N_5  and  C_25
    5  A    between atoms: C_6  and  N_22
    6  A    between atoms: C_8  and  C_31
    7  A    between atoms: C_9  and  C_33
    8  A    between atoms: C_19  and  C_26
    9  A    between atoms: C_21  and  C_23
   10  A    between atoms: N_22  and  N_30
   11  A    between atoms: C_25  and  C_27
   12  A    between atoms: C_27  and  N_30
                            x       y       z     vdW  Elec       q    Type
                         _______ _______ _______ _____ _____    ______ ____

>  <TORSDO>
F 12

$$$$
