=
 OpenBabel11052411543D

 32 37  0  0  1  0  0  0  0  0999 V2000
  159.3600  213.2180  151.3870 N   0  0  0  0  0  0  0  0  0  0  0  0
  160.1500  210.5520  156.4910 O   0  0  0  0  0  0  0  0  0  0  0  0
  157.1350  214.4510  154.8610 C   0  0  0  0  0  2  0  0  0  0  0  0
  157.3230  214.3040  157.2610 O   0  0  0  0  0  1  0  0  0  0  0  0
  160.6730  210.4700  152.8810 C   0  0  2  0  0  3  0  0  0  0  0  0
  160.3350  208.9030  154.8070 C   0  0  1  0  0  3  0  0  0  0  0  0
  156.8560  212.3430  156.0460 N   0  0  0  0  0  2  0  0  0  0  0  0
  160.5950  207.6810  154.2750 C   0  0  2  0  0  3  0  0  0  0  0  0
  156.3270  214.0840  151.9810 C   0  0  0  0  0  1  0  0  0  0  0  0
  157.6580  211.4540  155.1990 C   0  0  0  0  0  2  0  0  0  0  0  0
  158.0320  214.0940  153.7540 N   0  0  2  0  0  0  0  0  0  0  0  0
  158.2050  212.4470  151.8350 C   0  0  0  0  0  2  0  0  0  0  0  0
  158.9860  213.3350  155.8160 C   0  0  1  0  0  0  0  0  0  0  0  0
  160.1330  213.7840  156.7130 C   0  0  0  0  0  1  0  0  0  0  0  0
  162.2530  206.3770  152.9900 O   0  0  0  0  0  1  0  0  0  0  0  0
  159.9790  209.1700  156.2370 C   0  0  1  0  0  3  0  0  0  0  0  0
  160.2480  206.4470  155.0480 C   0  0  0  0  0  1  0  0  0  0  0  0
  159.0450  212.0750  155.0050 C   0  0  1  0  0  0  0  0  0  0  0  0
  157.5480  213.6260  156.0620 C   0  0  1  0  0  0  0  0  0  0  0  0
  161.3520  208.2660  151.9780 C   0  0  0  0  0  3  0  0  0  0  0  0
  160.4350  212.2710  151.1280 C   0  0  0  0  0  2  0  0  0  0  0  0
  161.3980  207.4720  153.0440 C   0  0  0  0  0  0  0  0  0  0  0  0
  160.3000  211.2250  155.2550 C   0  0  2  0  0  3  0  0  0  0  0  0
  157.3050  213.2450  152.7900 C   0  0  2  0  0  3  0  0  0  0  0  0
  161.1130  211.8350  152.4270 C   0  0  0  0  0  2  0  0  0  0  0  0
  160.4190  209.4150  151.8500 C   0  0  0  0  0  2  0  0  0  0  0  0
  159.2390  213.4670  154.3420 C   0  0  1  0  0  3  0  0  0  0  0  0
  160.4980  210.2020  154.1880 C   0  0  2  0  0  3  0  0  0  0  0  0
  162.1100  208.6850  157.2610 N   0  0  0  0  0  2  0  0  0  0  0  0
  160.8610  208.4160  157.1870 C   0  0  0  0  0  3  0  0  0  0  0  0
  159.0180  213.8030  150.1010 C   0  0  0  0  0  2  0  0  0  0  0  0
  160.0600  213.5890  149.2000 O   0  0  0  0  0  1  0  0  0  0  0  0
  1 12  1  0  0  0  0
  3 19  1  0  0  0  0
  5 26  1  6  0  0  0
  5 28  1  0  0  0  0
  6 16  1  0  0  0  0
  7 19  1  0  0  0  0
  8  6  1  0  0  0  0
  8 17  1  0  0  0  0
  9 24  1  0  0  0  0
 10  7  1  0  0  0  0
 11 27  1  0  0  0  0
 11  3  1  0  0  0  0
 12 24  1  0  0  0  0
 13 19  1  0  0  0  0
 13 14  1  0  0  0  0
 15 22  1  0  0  0  0
 16  2  1  0  0  0  0
 16 30  1  0  0  0  0
 18 10  1  0  0  0  0
 18 23  1  0  0  0  0
 18 13  1  0  0  0  0
 19  4  1  0  0  0  0
 20 22  2  0  0  0  0
 21  1  1  0  0  0  0
 21 25  1  0  0  0  0
 22  8  1  0  0  0  0
 23  2  1  0  0  0  0
 24 11  1  0  0  0  0
 25  5  1  0  0  0  0
 26 20  1  0  0  0  0
 27 18  1  0  0  0  0
 27 13  1  0  0  0  0
 28  6  1  0  0  0  0
 28 23  1  0  0  0  0
 30 29  2  0  0  0  0
 31  1  1  0  0  0  0
 32 31  1  0  0  0  0
M  END
>  <MODEL>
1

>  <REMARK>
 VINA RESULT:      -4.4      0.000      0.000
  Name = 
  2 active torsions:
  status: ('A' for Active; 'I' for Inactive)
    1  A    between atoms: N_2  and  C_14
    2  A    between atoms: C_18  and  C_20
                            x       y       z     vdW  Elec       q    Type
                         _______ _______ _______ _____ _____    ______ ____

>  <TORSDO>
F 2

$$$$
=
 OpenBabel11052411543D

 32 37  0  0  1  0  0  0  0  0999 V2000
  161.0580  209.2260  154.6000 N   0  0  0  0  0  0  0  0  0  0  0  0
  157.9930  213.3550  151.8910 O   0  0  0  0  0  0  0  0  0  0  0  0
  158.8240  212.1270  156.8660 C   0  0  0  0  0  2  0  0  0  0  0  0
  156.9620  213.6220  156.5310 O   0  0  0  0  0  1  0  0  0  0  0  0
  160.5720  210.7870  151.6270 C   0  0  2  0  0  3  0  0  0  0  0  0
  159.9560  212.9980  150.6220 C   0  0  1  0  0  3  0  0  0  0  0  0
  158.9990  214.1020  155.4530 N   0  0  0  0  0  2  0  0  0  0  0  0
  160.8040  213.1180  149.5680 C   0  0  2  0  0  3  0  0  0  0  0  0
  161.5680  210.9460  157.2610 C   0  0  0  0  0  1  0  0  0  0  0  0
  159.6950  213.5370  154.2910 C   0  0  0  0  0  2  0  0  0  0  0  0
  159.4350  211.0750  156.0430 N   0  0  2  0  0  0  0  0  0  0  0  0
  161.5830  210.5730  154.7940 C   0  0  0  0  0  2  0  0  0  0  0  0
  157.7680  212.2120  154.7550 C   0  0  1  0  0  0  0  0  0  0  0  0
  156.3590  211.8890  154.2720 C   0  0  0  0  0  1  0  0  0  0  0  0
  161.6420  211.9810  147.5420 O   0  0  0  0  0  1  0  0  0  0  0  0
  158.8950  213.9860  150.9990 C   0  0  1  0  0  3  0  0  0  0  0  0
  160.9280  214.4320  148.8630 C   0  0  0  0  0  1  0  0  0  0  0  0
  158.9380  212.2910  153.8210 C   0  0  1  0  0  0  0  0  0  0  0  0
  158.0910  213.0650  155.9300 C   0  0  1  0  0  0  0  0  0  0  0  0
  161.9650  210.9170  149.5840 C   0  0  0  0  0  3  0  0  0  0  0  0
  161.2060  208.9060  153.1870 C   0  0  0  0  0  2  0  0  0  0  0  0
  161.4850  211.9680  148.9240 C   0  0  0  0  0  0  0  0  0  0  0  0
  158.5700  212.1420  152.3370 C   0  0  2  0  0  3  0  0  0  0  0  0
  160.8890  211.3100  155.9500 C   0  0  2  0  0  3  0  0  0  0  0  0
  160.1010  209.5560  152.3540 C   0  0  0  0  0  2  0  0  0  0  0  0
  161.9590  210.8060  151.0650 C   0  0  0  0  0  2  0  0  0  0  0  0
  158.7270  211.0570  154.7420 C   0  0  1  0  0  3  0  0  0  0  0  0
  159.7660  211.8570  151.4940 C   0  0  2  0  0  3  0  0  0  0  0  0
  157.1070  213.7780  149.3900 N   0  0  0  0  0  2  0  0  0  0  0  0
  158.1110  214.4530  149.8090 C   0  0  0  0  0  3  0  0  0  0  0  0
  161.9340  208.3130  155.3150 C   0  0  0  0  0  2  0  0  0  0  0  0
  161.2020  207.6280  156.2840 O   0  0  0  0  0  1  0  0  0  0  0  0
  1 12  1  0  0  0  0
  1 31  1  0  0  0  0
  2 23  1  0  0  0  0
  5 26  1  1  0  0  0
  5 25  1  0  0  0  0
  6 16  1  0  0  0  0
  6 28  1  0  0  0  0
  7 19  1  0  0  0  0
  8  6  1  0  0  0  0
 10  7  1  0  0  0  0
 11  3  1  0  0  0  0
 12 24  1  0  0  0  0
 13 19  1  0  0  0  0
 14 13  1  0  0  0  0
 15 22  1  0  0  0  0
 16  2  1  0  0  0  0
 17  8  1  0  0  0  0
 18 10  1  0  0  0  0
 18 27  1  0  0  0  0
 18 13  1  0  0  0  0
 19  4  1  0  0  0  0
 19  3  1  0  0  0  0
 20 26  1  0  0  0  0
 21  1  1  0  0  0  0
 22  8  1  0  0  0  0
 22 20  2  0  0  0  0
 23 18  1  0  0  0  0
 24 11  1  0  0  0  0
 24  9  1  0  0  0  0
 25 21  1  0  0  0  0
 27 13  1  0  0  0  0
 27 11  1  0  0  0  0
 28  5  1  0  0  0  0
 28 23  1  0  0  0  0
 29 30  2  0  0  0  0
 30 16  1  0  0  0  0
 31 32  1  0  0  0  0
M  END
>  <MODEL>
2

>  <REMARK>
 VINA RESULT:      -3.8      1.935      5.673
  Name = 
  2 active torsions:
  status: ('A' for Active; 'I' for Inactive)
    1  A    between atoms: N_2  and  C_14
    2  A    between atoms: C_18  and  C_20
                            x       y       z     vdW  Elec       q    Type
                         _______ _______ _______ _____ _____    ______ ____

>  <TORSDO>
F 2

$$$$
=
 OpenBabel11052411543D

 32 37  0  0  1  0  0  0  0  0999 V2000
  160.8530  213.2110  150.1240 N   0  0  0  0  0  0  0  0  0  0  0  0
  161.3160  208.3710  153.3090 O   0  0  0  0  0  0  0  0  0  0  0  0
  158.9380  212.9380  153.9710 C   0  0  0  0  0  2  0  0  0  0  0  0
  159.1540  211.6500  155.9990 O   0  0  0  0  0  1  0  0  0  0  0  0
  161.7360  209.9370  150.0400 C   0  0  2  0  0  3  0  0  0  0  0  0
  161.1920  207.7060  151.0430 C   0  0  1  0  0  3  0  0  0  0  0  0
  158.3470  210.5770  154.0650 N   0  0  0  0  0  2  0  0  0  0  0  0
  161.2390  206.8580  149.9840 C   0  0  2  0  0  3  0  0  0  0  0  0
  158.0160  214.0860  151.3420 C   0  0  0  0  0  1  0  0  0  0  0  0
  158.9750  210.0970  152.8290 C   0  0  0  0  0  2  0  0  0  0  0  0
  159.7400  213.0310  152.7450 N   0  0  2  0  0  0  0  0  0  0  0  0
  159.5990  212.4800  150.2730 C   0  0  0  0  0  2  0  0  0  0  0  0
  160.6040  211.2690  154.1160 C   0  0  1  0  0  0  0  0  0  0  0  0
  161.8300  211.0830  155.0030 C   0  0  0  0  0  1  0  0  0  0  0  0
  162.6330  206.1100  148.0870 O   0  0  0  0  0  1  0  0  0  0  0  0
  160.9170  207.3090  152.4610 C   0  0  1  0  0  3  0  0  0  0  0  0
  160.7130  205.4640  150.1260 C   0  0  0  0  0  1  0  0  0  0  0  0
  160.4400  210.5470  152.8120 C   0  0  1  0  0  0  0  0  0  0  0  0
  159.2390  211.5970  154.6070 C   0  0  1  0  0  0  0  0  0  0  0  0
  162.0270  208.3530  148.1580 C   0  0  0  0  0  3  0  0  0  0  0  0
  161.7540  212.3660  149.3540 C   0  0  0  0  0  2  0  0  0  0  0  0
  161.9690  207.1510  148.7250 C   0  0  0  0  0  0  0  0  0  0  0  0
  161.5450  209.5210  152.5180 C   0  0  2  0  0  3  0  0  0  0  0  0
  158.8620  212.8440  151.5720 C   0  0  2  0  0  3  0  0  0  0  0  0
  162.3820  211.2820  150.2300 C   0  0  0  0  0  2  0  0  0  0  0  0
  161.2910  209.5380  148.6670 C   0  0  0  0  0  2  0  0  0  0  0  0
  160.8420  212.0470  152.8540 C   0  0  1  0  0  3  0  0  0  0  0  0
  161.5500  209.1080  151.0850 C   0  0  2  0  0  3  0  0  0  0  0  0
  161.1260  205.1710  153.5620 N   0  0  0  0  0  2  0  0  0  0  0  0
  161.6870  206.0860  152.8640 C   0  0  0  0  0  3  0  0  0  0  0  0
  160.5810  214.3730  149.2950 C   0  0  0  0  0  2  0  0  0  0  0  0
  159.8200  213.9920  148.1920 O   0  0  0  0  0  1  0  0  0  0  0  0
  1 12  1  0  0  0  0
  3 19  1  0  0  0  0
  5 26  1  1  0  0  0
  5 25  1  0  0  0  0
  5 28  1  0  0  0  0
  6 28  1  0  0  0  0
  6 16  1  0  0  0  0
  7 19  1  0  0  0  0
  8 17  1  0  0  0  0
  8  6  1  0  0  0  0
  9 24  1  0  0  0  0
 10  7  1  0  0  0  0
 11 27  1  0  0  0  0
 11  3  1  0  0  0  0
 12 24  1  0  0  0  0
 13 19  1  0  0  0  0
 13 14  1  0  0  0  0
 15 22  1  0  0  0  0
 16 30  1  0  0  0  0
 16  2  1  0  0  0  0
 18 10  1  0  0  0  0
 18 27  1  0  0  0  0
 18 13  1  0  0  0  0
 19  4  1  0  0  0  0
 20 26  1  0  0  0  0
 20 22  2  0  0  0  0
 21  1  1  0  0  0  0
 21 25  1  0  0  0  0
 22  8  1  0  0  0  0
 23 18  1  0  0  0  0
 23  2  1  0  0  0  0
 24 11  1  0  0  0  0
 27 13  1  0  0  0  0
 28 23  1  0  0  0  0
 30 29  2  0  0  0  0
 31  1  1  0  0  0  0
 32 31  1  0  0  0  0
M  END
>  <MODEL>
3

>  <REMARK>
 VINA RESULT:      -2.6      2.303      3.410
  Name = 
  2 active torsions:
  status: ('A' for Active; 'I' for Inactive)
    1  A    between atoms: N_2  and  C_14
    2  A    between atoms: C_18  and  C_20
                            x       y       z     vdW  Elec       q    Type
                         _______ _______ _______ _____ _____    ______ ____

>  <TORSDO>
F 2

$$$$
=
 OpenBabel11052411543D

 32 37  0  0  1  0  0  0  0  0999 V2000
  161.5100  202.7990  150.8390 N   0  0  0  0  0  0  0  0  0  0  0  0
  162.2500  208.3260  149.2020 O   0  0  0  0  0  0  0  0  0  0  0  0
  161.0740  203.9280  146.7070 C   0  0  0  0  0  2  0  0  0  0  0  0
  161.7760  205.7160  145.2490 O   0  0  0  0  0  1  0  0  0  0  0  0
  161.7370  205.9920  151.9600 C   0  0  2  0  0  3  0  0  0  0  0  0
  161.2170  208.3610  151.3290 C   0  0  1  0  0  3  0  0  0  0  0  0
  160.1640  206.1790  146.9010 N   0  0  0  0  0  2  0  0  0  0  0  0
  160.7390  208.9010  152.4790 C   0  0  2  0  0  3  0  0  0  0  0  0
  159.4850  202.0630  148.4600 C   0  0  0  0  0  1  0  0  0  0  0  0
  160.2200  206.3630  148.3550 C   0  0  0  0  0  2  0  0  0  0  0  0
  161.3890  203.5770  148.0970 N   0  0  2  0  0  0  0  0  0  0  0  0
  160.2870  203.4460  150.3770 C   0  0  0  0  0  2  0  0  0  0  0  0
  162.3740  205.6970  147.5800 C   0  0  1  0  0  0  0  0  0  0  0  0
  163.7840  206.2010  147.2990 C   0  0  0  0  0  1  0  0  0  0  0  0
  161.2180  209.2270  154.8800 O   0  0  0  0  0  1  0  0  0  0  0  0
  161.4020  209.0940  150.0360 C   0  0  1  0  0  3  0  0  0  0  0  0
  160.0710  210.2400  152.4470 C   0  0  0  0  0  1  0  0  0  0  0  0
  161.6360  206.0370  148.8410 C   0  0  1  0  0  0  0  0  0  0  0  0
  161.3490  205.4080  146.5410 C   0  0  1  0  0  0  0  0  0  0  0  0
  161.0660  207.0420  154.1000 C   0  0  0  0  0  3  0  0  0  0  0  0
  161.9210  203.4770  152.0600 C   0  0  0  0  0  2  0  0  0  0  0  0
  161.0110  208.3430  153.8270 C   0  0  0  0  0  0  0  0  0  0  0  0
  162.3730  207.0290  149.7530 C   0  0  2  0  0  3  0  0  0  0  0  0
  160.1340  203.3820  148.8490 C   0  0  2  0  0  3  0  0  0  0  0  0
  162.6260  204.7960  151.7500 C   0  0  0  0  0  2  0  0  0  0  0  0
  160.7720  205.9810  153.1040 C   0  0  0  0  0  2  0  0  0  0  0  0
  162.2750  204.6350  148.6360 C   0  0  1  0  0  3  0  0  0  0  0  0
  161.7980  207.0500  151.1290 C   0  0  2  0  0  3  0  0  0  0  0  0
  162.0350  211.3030  149.2950 N   0  0  0  0  0  2  0  0  0  0  0  0
  162.0450  210.4350  150.2360 C   0  0  0  0  0  3  0  0  0  0  0  0
  161.1620  201.4420  151.2270 C   0  0  0  0  0  2  0  0  0  0  0  0
  161.4390  200.5700  150.1740 O   0  0  0  0  0  1  0  0  0  0  0  0
  1 31  1  0  0  0  0
  1 21  1  0  0  0  0
  2 23  1  0  0  0  0
  2 16  1  0  0  0  0
  3 11  1  0  0  0  0
  4 19  1  0  0  0  0
  5 25  1  6  0  0  0
  5 26  1  0  0  0  0
  6  8  1  0  0  0  0
  7 10  1  0  0  0  0
  8 22  1  0  0  0  0
  9 24  1  0  0  0  0
 10 18  1  0  0  0  0
 11 27  1  0  0  0  0
 11 24  1  0  0  0  0
 12  1  1  0  0  0  0
 13 27  1  0  0  0  0
 13 18  1  0  0  0  0
 14 13  1  0  0  0  0
 16 30  1  0  0  0  0
 16  6  1  0  0  0  0
 17  8  1  0  0  0  0
 18 23  1  0  0  0  0
 19  3  1  0  0  0  0
 19  7  1  0  0  0  0
 19 13  1  0  0  0  0
 22 20  2  0  0  0  0
 22 15  1  0  0  0  0
 23 28  1  0  0  0  0
 24 12  1  0  0  0  0
 25 21  1  0  0  0  0
 26 20  1  0  0  0  0
 27 18  1  0  0  0  0
 28  6  1  0  0  0  0
 28  5  1  0  0  0  0
 29 30  2  0  0  0  0
 32 31  1  0  0  0  0
M  END
>  <MODEL>
4

>  <REMARK>
 VINA RESULT:      -2.5      5.027      9.379
  Name = 
  2 active torsions:
  status: ('A' for Active; 'I' for Inactive)
    1  A    between atoms: N_2  and  C_14
    2  A    between atoms: C_18  and  C_20
                            x       y       z     vdW  Elec       q    Type
                         _______ _______ _______ _____ _____    ______ ____

>  <TORSDO>
F 2

$$$$
