=
 OpenBabel11052410243D

 55 59  0  0  1  0  0  0  0  0999 V2000
  160.4630  212.1700  151.3530 O   0  0  0  0  0  0  0  0  0  0  0  0
  159.6260  213.3130  151.3880 C   0  0  2  0  0  3  0  0  0  0  0  0
  159.0680  211.7090  153.0400 N   0  0  0  0  0  0  0  0  0  0  0  0
  158.6360  212.9970  152.5150 C   0  0  1  0  0  3  0  0  0  0  0  0
  160.0720  211.2960  152.3440 C   0  0  0  0  0  0  0  0  0  0  0  0
  157.6290  213.7680  149.9870 C   0  0  0  0  0  2  0  0  0  0  0  0
  158.9390  213.4950  150.0600 C   0  0  0  0  0  0  0  0  0  0  0  0
  159.7730  213.5140  148.8160 C   0  0  0  0  0  2  0  0  0  0  0  0
  158.9390  213.6200  147.6220 N   0  0  0  0  0  2  0  0  0  0  0  0
  159.4100  212.6690  146.6220 C   0  0  0  0  0  2  0  0  0  0  0  0
  160.0210  213.7950  143.2590 O   0  0  0  0  0  0  0  0  0  0  0  0
  159.9480  212.7810  144.2270 C   0  0  0  0  0  2  0  0  0  0  0  0
  160.2950  213.3470  145.5900 C   0  0  2  0  0  3  0  0  0  0  0  0
  162.3710  213.8670  142.5500 C   0  0  0  0  0  2  0  0  0  0  0  0
  160.9380  213.4240  142.2470 C   0  0  1  0  0  3  0  0  0  0  0  0
  162.9830  213.1410  143.7410 C   0  0  0  0  0  2  0  0  0  0  0  0
  162.6920  213.8920  145.0310 C   0  0  0  0  0  2  0  0  0  0  0  0
  161.7580  213.0870  145.9220 C   0  0  0  0  0  2  0  0  0  0  0  0
  160.8660  212.0600  141.8800 O   0  0  0  0  0  0  0  0  0  0  0  0
  161.3260  211.9020  140.5520 C   0  0  2  0  0  3  0  0  0  0  0  0
  160.2600  212.1720  139.4930 C   0  0  0  0  0  1  0  0  0  0  0  0
  161.3860  209.3930  140.2570 N   0  0  0  0  0  2  0  0  0  0  0  0
  163.3440  210.6610  140.1700 O   0  0  0  0  0  0  0  0  0  0  0  0
  162.0570  208.1390  139.9630 C   0  0  0  0  0  1  0  0  0  0  0  0
  162.0940  210.6310  140.3340 C   0  0  0  0  0  0  0  0  0  0  0  0
  158.6760  214.0570  153.6020 C   0  0  0  0  0  2  0  0  0  0  0  0
  157.9040  213.6620  155.9420 C   0  0  0  0  0  0  0  0  0  0  0  0
  155.9720  212.1290  156.2410 N   0  0  1  0  0  0  0  0  0  0  0  0
  155.1940  210.0980  155.1270 C   0  0  0  0  0  1  0  0  0  0  0  0
  155.4750  212.4950  154.8820 C   0  0  2  0  0  3  0  0  0  0  0  0
  158.6980  214.4520  156.5170 O   0  0  0  0  0  0  0  0  0  0  0  0
  156.1890  211.2410  155.0770 C   0  0  1  0  0  3  0  0  0  0  0  0
  157.6180  213.7970  154.5630 N   0  0  0  0  0  0  0  0  0  0  0  0
  156.2590  213.5700  154.0990 C   0  0  0  0  0  2  0  0  0  0  0  0
  157.3220  212.5130  156.6780 C   0  0  0  0  0  2  0  0  0  0  0  0
  160.7590  210.0020  152.6050 C   0  0  0  0  0  2  0  0  0  0  0  0
  161.6380  209.6760  151.4960 N   0  0  0  0  0  2  0  0  0  0  0  0
  161.2700  208.3370  151.0610 C   0  0  1  0  0  3  0  0  0  0  0  0
  160.6940  206.4200  147.5600 C   0  0  2  0  0  3  0  0  0  0  0  0
  160.9200  207.1730  148.8320 N   0  0  0  0  0  0  0  0  0  0  0  0
  161.6080  208.1520  149.6050 C   0  0  0  0  0  0  0  0  0  0  0  0
  159.8970  206.1040  148.6410 C   0  0  0  0  0  2  0  0  0  0  0  0
  162.5360  208.8140  149.0660 O   0  0  0  0  0  0  0  0  0  0  0  0
  161.7770  205.3590  147.3890 C   0  0  1  0  0  3  0  0  0  0  0  0
  161.0520  203.1510  148.3440 C   0  0  0  0  0  0  0  0  0  0  0  0
  160.5490  202.0060  148.2050 O   0  0  0  0  0  0  0  0  0  0  0  0
  161.1830  204.0310  147.2150 N   0  0  0  0  0  0  0  0  0  0  0  0
  161.4990  203.5740  149.7070 C   0  0  0  0  0  1  0  0  0  0  0  0
  160.6400  203.6400  145.9100 C   0  0  0  0  0  2  0  0  0  0  0  0
  161.0410  202.2100  145.5590 C   0  0  0  0  0  2  0  0  0  0  0  0
  159.8900  201.4640  145.0790 N   0  0  0  0  0  1  0  0  0  0  0  0
  163.6790  204.6980  146.1180 O   0  0  0  0  0  1  0  0  0  0  0  0
  162.7090  205.6940  146.2330 C   0  0  0  0  0  2  0  0  0  0  0  0
  161.9610  207.3100  151.9530 C   0  0  0  0  0  2  0  0  0  0  0  0
  161.0770  206.0870  152.1210 C   0  0  0  0  0  1  0  0  0  0  0  0
  1  2  1  0  0  0  0
  1  5  1  0  0  0  0
  2  7  1  6  0  0  0
  2  4  1  0  0  0  0
  4  3  1  0  0  0  0
  4 26  1  1  0  0  0
  5 36  1  0  0  0  0
  5  3  2  0  0  0  0
  6  7  2  0  0  0  0
  8  7  1  0  0  0  0
  9  8  1  0  0  0  0
 10  9  1  0  0  0  0
 11 12  1  0  0  0  0
 12 13  1  0  0  0  0
 13 18  1  0  0  0  0
 13 10  1  1  0  0  0
 14 16  1  0  0  0  0
 15 19  1  1  0  0  0
 15 14  1  0  0  0  0
 15 11  1  0  0  0  0
 16 17  1  0  0  0  0
 17 18  1  0  0  0  0
 20 21  1  6  0  0  0
 20 19  1  0  0  0  0
 22 25  1  0  0  0  0
 23 25  2  0  0  0  0
 24 22  1  0  0  0  0
 25 20  1  0  0  0  0
 26 33  1  0  0  0  0
 27 31  2  0  0  0  0
 27 35  1  0  0  0  0
 28 35  1  6  0  0  0
 30 34  1  6  0  0  0
 30 32  1  0  0  0  0
 30 28  1  0  0  0  0
 32 29  1  1  0  0  0
 32 28  1  0  0  0  0
 33 27  1  0  0  0  0
 34 33  1  0  0  0  0
 37 36  1  0  0  0  0
 38 37  1  0  0  0  0
 38 54  1  1  0  0  0
 39 44  1  1  0  0  0
 39 42  1  0  0  0  0
 39 40  1  0  0  0  0
 40 41  1  0  0  0  0
 41 38  1  0  0  0  0
 42 40  1  0  0  0  0
 43 41  2  0  0  0  0
 44 53  1  6  0  0  0
 45 48  1  0  0  0  0
 46 45  2  0  0  0  0
 47 44  1  0  0  0  0
 47 45  1  0  0  0  0
 49 47  1  0  0  0  0
 50 49  1  0  0  0  0
 51 50  1  0  0  0  0
 52 53  1  0  0  0  0
 54 55  1  0  0  0  0
M  END
>  <MODEL>
1

>  <REMARK>
 VINA RESULT:      -6.6      0.000      0.000
  Name = 
  20 active torsions:
  status: ('A' for Active; 'I' for Inactive)
    1  A    between atoms: C_3  and  C_12
    2  A    between atoms: C_3  and  N_25
    3  A    between atoms: C_5  and  C_37
    4  A    between atoms: C_5  and  O_38
    5  A    between atoms: C_8  and  C_10
    6  A    between atoms: C_8  and  N_31
    7  A    between atoms: C_9  and  N_25
    8  A    between atoms: C_9  and  C_28
    9  A    between atoms: C_9  and  C_41
   10  A    between atoms: C_15  and  N_19
   11  A    between atoms: C_15  and  C_43
   12  A    between atoms: C_18  and  N_33
   13  A    between atoms: C_18  and  C_42
   14  A    between atoms: N_19  and  C_26
   15  A    between atoms: C_22  and  C_26
   16  A    between atoms: C_26  and  C_47
   17  A    between atoms: N_31  and  C_39
   18  A    between atoms: C_34  and  C_35
   19  A    between atoms: C_34  and  C_39
   20  A    between atoms: O_38  and  C_44
                            x       y       z     vdW  Elec       q    Type
                         _______ _______ _______ _____ _____    ______ ____

>  <TORSDO>
F 20

$$$$
=
 OpenBabel11052410243D

 55 59  0  0  1  0  0  0  0  0999 V2000
  161.1870  211.1570  151.9550 O   0  0  0  0  0  0  0  0  0  0  0  0
  160.5240  212.4000  152.1060 C   0  0  2  0  0  3  0  0  0  0  0  0
  159.5980  210.6890  153.4600 N   0  0  0  0  0  0  0  0  0  0  0  0
  159.4040  212.0890  153.1070 C   0  0  1  0  0  3  0  0  0  0  0  0
  160.5880  210.2260  152.7770 C   0  0  0  0  0  0  0  0  0  0  0  0
  158.8860  213.6240  150.7010 C   0  0  0  0  0  2  0  0  0  0  0  0
  159.9890  212.8680  150.7790 C   0  0  0  0  0  0  0  0  0  0  0  0
  160.7950  212.6010  149.5450 C   0  0  0  0  0  2  0  0  0  0  0  0
  160.8560  213.7810  148.6870 N   0  0  0  0  0  2  0  0  0  0  0  0
  160.0180  213.5660  147.5140 C   0  0  0  0  0  2  0  0  0  0  0  0
  160.1320  213.8900  143.9320 O   0  0  0  0  0  0  0  0  0  0  0  0
  160.2370  213.1280  145.1060 C   0  0  0  0  0  2  0  0  0  0  0  0
  160.7270  214.0030  146.2430 C   0  0  2  0  0  3  0  0  0  0  0  0
  162.3650  213.8440  142.9100 C   0  0  0  0  0  2  0  0  0  0  0  0
  160.9300  213.3120  142.9140 C   0  0  1  0  0  3  0  0  0  0  0  0
  163.1610  213.4290  144.1390 C   0  0  0  0  0  2  0  0  0  0  0  0
  163.0000  214.4530  145.2510 C   0  0  0  0  0  2  0  0  0  0  0  0
  162.2320  213.8580  146.4220 C   0  0  0  0  0  2  0  0  0  0  0  0
  160.8830  211.9000  142.8820 O   0  0  0  0  0  0  0  0  0  0  0  0
  160.8750  211.4570  141.5390 C   0  0  2  0  0  3  0  0  0  0  0  0
  162.2590  211.4150  140.8950 C   0  0  0  0  0  1  0  0  0  0  0  0
  160.1000  212.3700  139.3130 N   0  0  0  0  0  2  0  0  0  0  0  0
  158.7110  212.4320  141.1870 O   0  0  0  0  0  0  0  0  0  0  0  0
  159.1050  212.9380  138.4220 C   0  0  0  0  0  1  0  0  0  0  0  0
  159.8310  212.1290  140.6950 C   0  0  0  0  0  0  0  0  0  0  0  0
  159.5020  212.9690  154.3400 C   0  0  0  0  0  2  0  0  0  0  0  0
  158.0610  213.1180  156.3720 C   0  0  0  0  0  0  0  0  0  0  0  0
  155.8360  212.0170  156.2510 N   0  0  1  0  0  0  0  0  0  0  0  0
  154.9700  209.9930  155.1930 C   0  0  0  0  0  1  0  0  0  0  0  0
  155.8150  212.2280  154.7740 C   0  0  2  0  0  3  0  0  0  0  0  0
  158.8210  213.8450  157.0650 O   0  0  0  0  0  0  0  0  0  0  0  0
  156.1630  210.9200  155.3130 C   0  0  1  0  0  3  0  0  0  0  0  0
  158.1940  213.0640  154.9640 N   0  0  0  0  0  0  0  0  0  0  0  0
  156.9950  213.0010  154.1450 C   0  0  0  0  0  2  0  0  0  0  0  0
  157.0680  212.2300  157.0260 C   0  0  0  0  0  2  0  0  0  0  0  0
  161.0560  208.8160  152.8850 C   0  0  0  0  0  2  0  0  0  0  0  0
  160.5400  208.0370  151.7740 N   0  0  0  0  0  2  0  0  0  0  0  0
  161.6250  207.9290  150.8100 C   0  0  1  0  0  3  0  0  0  0  0  0
  161.9700  204.5880  148.5780 C   0  0  2  0  0  3  0  0  0  0  0  0
  161.8840  205.8130  149.4310 N   0  0  0  0  0  0  0  0  0  0  0  0
  162.0560  206.4920  150.6720 C   0  0  0  0  0  0  0  0  0  0  0  0
  161.4800  205.7390  147.9970 C   0  0  0  0  0  2  0  0  0  0  0  0
  162.5180  205.8570  151.6580 O   0  0  0  0  0  0  0  0  0  0  0  0
  160.8180  203.6460  148.9110 C   0  0  1  0  0  3  0  0  0  0  0  0
  161.1800  201.1960  148.4830 C   0  0  0  0  0  0  0  0  0  0  0  0
  161.1780  200.2040  147.7080 O   0  0  0  0  0  0  0  0  0  0  0  0
  160.8040  202.4980  148.0000 N   0  0  0  0  0  0  0  0  0  0  0  0
  161.5720  200.9860  149.9110 C   0  0  0  0  0  1  0  0  0  0  0  0
  160.3210  202.6620  146.6260 C   0  0  0  0  0  2  0  0  0  0  0  0
  161.4550  203.0780  145.6950 C   0  0  0  0  0  2  0  0  0  0  0  0
  161.0300  204.1700  144.8350 N   0  0  0  0  0  1  0  0  0  0  0  0
  159.9580  203.9270  151.1130 O   0  0  0  0  0  1  0  0  0  0  0  0
  160.8720  203.1890  150.3620 C   0  0  0  0  0  2  0  0  0  0  0  0
  161.1800  208.5340  149.4820 C   0  0  0  0  0  2  0  0  0  0  0  0
  162.3260  209.3020  148.8490 C   0  0  0  0  0  1  0  0  0  0  0  0
  1  2  1  0  0  0  0
  1  5  1  0  0  0  0
  2  7  1  6  0  0  0
  2  4  1  0  0  0  0
  4  3  1  0  0  0  0
  4 26  1  1  0  0  0
  5 36  1  0  0  0  0
  5  3  2  0  0  0  0
  6  7  2  0  0  0  0
  8  7  1  0  0  0  0
  9  8  1  0  0  0  0
 10  9  1  0  0  0  0
 11 12  1  0  0  0  0
 12 13  1  0  0  0  0
 13 18  1  0  0  0  0
 13 10  1  1  0  0  0
 14 15  1  0  0  0  0
 14 16  1  0  0  0  0
 15 19  1  1  0  0  0
 15 11  1  0  0  0  0
 16 17  1  0  0  0  0
 17 18  1  0  0  0  0
 20 21  1  6  0  0  0
 20 19  1  0  0  0  0
 22 25  1  0  0  0  0
 24 22  1  0  0  0  0
 25 23  2  0  0  0  0
 25 20  1  0  0  0  0
 26 33  1  0  0  0  0
 27 35  1  0  0  0  0
 27 31  2  0  0  0  0
 28 35  1  1  0  0  0
 30 34  1  1  0  0  0
 30 32  1  0  0  0  0
 30 28  1  0  0  0  0
 32 29  1  6  0  0  0
 32 28  1  0  0  0  0
 33 27  1  0  0  0  0
 34 33  1  0  0  0  0
 37 36  1  0  0  0  0
 38 54  1  6  0  0  0
 38 37  1  0  0  0  0
 39 44  1  1  0  0  0
 39 40  1  0  0  0  0
 40 41  1  0  0  0  0
 41 38  1  0  0  0  0
 41 43  2  0  0  0  0
 42 39  1  0  0  0  0
 42 40  1  0  0  0  0
 44 53  1  1  0  0  0
 45 48  1  0  0  0  0
 46 45  2  0  0  0  0
 47 45  1  0  0  0  0
 47 44  1  0  0  0  0
 49 47  1  0  0  0  0
 50 49  1  0  0  0  0
 51 50  1  0  0  0  0
 53 52  1  0  0  0  0
 55 54  1  0  0  0  0
M  END
>  <MODEL>
2

>  <REMARK>
 VINA RESULT:      -4.3      1.694      2.298
  Name = 
  20 active torsions:
  status: ('A' for Active; 'I' for Inactive)
    1  A    between atoms: C_3  and  C_12
    2  A    between atoms: C_3  and  N_25
    3  A    between atoms: C_5  and  C_37
    4  A    between atoms: C_5  and  O_38
    5  A    between atoms: C_8  and  C_10
    6  A    between atoms: C_8  and  N_31
    7  A    between atoms: C_9  and  N_25
    8  A    between atoms: C_9  and  C_28
    9  A    between atoms: C_9  and  C_41
   10  A    between atoms: C_15  and  N_19
   11  A    between atoms: C_15  and  C_43
   12  A    between atoms: C_18  and  N_33
   13  A    between atoms: C_18  and  C_42
   14  A    between atoms: N_19  and  C_26
   15  A    between atoms: C_22  and  C_26
   16  A    between atoms: C_26  and  C_47
   17  A    between atoms: N_31  and  C_39
   18  A    between atoms: C_34  and  C_35
   19  A    between atoms: C_34  and  C_39
   20  A    between atoms: O_38  and  C_44
                            x       y       z     vdW  Elec       q    Type
                         _______ _______ _______ _____ _____    ______ ____

>  <TORSDO>
F 20

$$$$
=
 OpenBabel11052410243D

 55 59  0  0  1  0  0  0  0  0999 V2000
  161.7550  210.8770  151.0290 O   0  0  0  0  0  0  0  0  0  0  0  0
  161.1340  211.7580  151.9490 C   0  0  2  0  0  3  0  0  0  0  0  0
  161.2990  209.5390  152.7630 N   0  0  0  0  0  0  0  0  0  0  0  0
  160.7780  210.8490  153.1310 C   0  0  1  0  0  3  0  0  0  0  0  0
  161.8120  209.6170  151.5830 C   0  0  0  0  0  0  0  0  0  0  0  0
  158.6970  212.2100  151.8510 C   0  0  0  0  0  2  0  0  0  0  0  0
  159.9160  212.3860  151.3250 C   0  0  0  0  0  0  0  0  0  0  0  0
  160.1030  213.3410  150.1860 C   0  0  0  0  0  2  0  0  0  0  0  0
  161.0770  212.8340  149.2240 N   0  0  0  0  0  2  0  0  0  0  0  0
  160.3860  212.4530  147.9980 C   0  0  0  0  0  2  0  0  0  0  0  0
  159.6670  214.0280  144.8430 O   0  0  0  0  0  0  0  0  0  0  0  0
  160.0150  212.9060  145.6120 C   0  0  0  0  0  2  0  0  0  0  0  0
  160.7920  213.3450  146.8370 C   0  0  2  0  0  3  0  0  0  0  0  0
  161.5930  214.4530  143.3800 C   0  0  0  0  0  2  0  0  0  0  0  0
  160.1790  213.8860  143.5310 C   0  0  1  0  0  3  0  0  0  0  0  0
  162.6390  213.6690  144.1590 C   0  0  0  0  0  2  0  0  0  0  0  0
  162.7850  214.2250  145.5670 C   0  0  0  0  0  2  0  0  0  0  0  0
  162.2900  213.2180  146.5960 C   0  0  0  0  0  2  0  0  0  0  0  0
  160.0710  212.5750  143.0120 O   0  0  0  0  0  0  0  0  0  0  0  0
  160.1710  212.6160  141.6020 C   0  0  2  0  0  3  0  0  0  0  0  0
  158.8250  212.7290  140.8900 C   0  0  0  0  0  1  0  0  0  0  0  0
  160.5520  210.6410  140.0710 N   0  0  0  0  0  2  0  0  0  0  0  0
  162.2860  211.5030  141.3740 O   0  0  0  0  0  0  0  0  0  0  0  0
  161.3890  209.6470  139.4230 C   0  0  0  0  0  1  0  0  0  0  0  0
  161.0720  211.5550  141.0370 C   0  0  0  0  0  0  0  0  0  0  0  0
  161.4180  211.3360  154.4190 C   0  0  0  0  0  2  0  0  0  0  0  0
  159.9230  210.5350  156.2490 C   0  0  0  0  0  0  0  0  0  0  0  0
  157.6740  211.5840  156.3980 N   0  0  1  0  0  0  0  0  0  0  0  0
  156.0480  212.4140  154.7740 C   0  0  0  0  0  1  0  0  0  0  0  0
  158.2170  212.8290  155.7790 C   0  0  2  0  0  3  0  0  0  0  0  0
  160.7330  209.7410  156.7930 O   0  0  0  0  0  0  0  0  0  0  0  0
  157.4570  211.8890  154.9660 C   0  0  1  0  0  3  0  0  0  0  0  0
  160.3810  211.5760  155.4070 N   0  0  0  0  0  0  0  0  0  0  0  0
  159.7290  212.8740  155.4710 C   0  0  0  0  0  2  0  0  0  0  0  0
  158.4600  210.3400  156.4030 C   0  0  0  0  0  2  0  0  0  0  0  0
  162.4300  208.4520  150.8910 C   0  0  0  0  0  2  0  0  0  0  0  0
  161.5670  208.0000  149.8150 N   0  0  0  0  0  2  0  0  0  0  0  0
  160.8930  206.8070  150.3030 C   0  0  1  0  0  3  0  0  0  0  0  0
  160.5790  203.1630  148.6030 C   0  0  2  0  0  3  0  0  0  0  0  0
  160.6530  204.5280  149.2080 N   0  0  0  0  0  0  0  0  0  0  0  0
  160.4680  205.9400  149.1470 C   0  0  0  0  0  0  0  0  0  0  0  0
  161.0710  203.2680  149.8880 C   0  0  0  0  0  2  0  0  0  0  0  0
  159.9990  206.4500  148.0930 O   0  0  0  0  0  0  0  0  0  0  0  0
  161.7320  202.9700  147.6230 C   0  0  1  0  0  3  0  0  0  0  0  0
  161.1870  200.7910  146.4970 C   0  0  0  0  0  0  0  0  0  0  0  0
  160.8160  200.1390  145.4870 O   0  0  0  0  0  0  0  0  0  0  0  0
  161.2910  202.2240  146.4410 N   0  0  0  0  0  0  0  0  0  0  0  0
  161.5050  200.0420  147.7520 C   0  0  0  0  0  1  0  0  0  0  0  0
  160.8710  202.9460  145.2360 C   0  0  0  0  0  2  0  0  0  0  0  0
  159.6290  202.3090  144.6240 C   0  0  0  0  0  2  0  0  0  0  0  0
  158.7380  203.3320  144.1030 N   0  0  0  0  0  1  0  0  0  0  0  0
  162.8050  204.2250  145.9070 O   0  0  0  0  0  1  0  0  0  0  0  0
  162.3550  204.3010  147.2250 C   0  0  0  0  0  2  0  0  0  0  0  0
  161.8100  206.0710  151.2750 C   0  0  0  0  0  2  0  0  0  0  0  0
  161.0720  205.7780  152.5690 C   0  0  0  0  0  1  0  0  0  0  0  0
  1  5  1  0  0  0  0
  1  2  1  0  0  0  0
  2  7  1  6  0  0  0
  2  4  1  0  0  0  0
  3  4  1  0  0  0  0
  4 26  1  1  0  0  0
  5  3  2  0  0  0  0
  7  6  2  0  0  0  0
  8  7  1  0  0  0  0
  9  8  1  0  0  0  0
 10  9  1  0  0  0  0
 11 12  1  0  0  0  0
 12 13  1  0  0  0  0
 13 10  1  1  0  0  0
 14 15  1  0  0  0  0
 14 16  1  0  0  0  0
 15 19  1  1  0  0  0
 15 11  1  0  0  0  0
 16 17  1  0  0  0  0
 17 18  1  0  0  0  0
 18 13  1  0  0  0  0
 20 21  1  6  0  0  0
 20 19  1  0  0  0  0
 22 25  1  0  0  0  0
 24 22  1  0  0  0  0
 25 23  2  0  0  0  0
 25 20  1  0  0  0  0
 26 33  1  0  0  0  0
 27 35  1  0  0  0  0
 27 31  2  0  0  0  0
 28 35  1  6  0  0  0
 30 34  1  6  0  0  0
 30 28  1  0  0  0  0
 32 29  1  1  0  0  0
 32 30  1  0  0  0  0
 32 28  1  0  0  0  0
 33 34  1  0  0  0  0
 33 27  1  0  0  0  0
 36  5  1  0  0  0  0
 37 38  1  0  0  0  0
 37 36  1  0  0  0  0
 38 54  1  1  0  0  0
 39 44  1  6  0  0  0
 39 40  1  0  0  0  0
 39 42  1  0  0  0  0
 40 42  1  0  0  0  0
 41 40  1  0  0  0  0
 41 38  1  0  0  0  0
 43 41  2  0  0  0  0
 44 53  1  6  0  0  0
 45 48  1  0  0  0  0
 46 45  2  0  0  0  0
 47 45  1  0  0  0  0
 47 44  1  0  0  0  0
 49 47  1  0  0  0  0
 50 49  1  0  0  0  0
 51 50  1  0  0  0  0
 52 53  1  0  0  0  0
 54 55  1  0  0  0  0
M  END
>  <MODEL>
3

>  <REMARK>
 VINA RESULT:      -4.2      1.818      2.442
  Name = 
  20 active torsions:
  status: ('A' for Active; 'I' for Inactive)
    1  A    between atoms: C_3  and  C_12
    2  A    between atoms: C_3  and  N_25
    3  A    between atoms: C_5  and  C_37
    4  A    between atoms: C_5  and  O_38
    5  A    between atoms: C_8  and  C_10
    6  A    between atoms: C_8  and  N_31
    7  A    between atoms: C_9  and  N_25
    8  A    between atoms: C_9  and  C_28
    9  A    between atoms: C_9  and  C_41
   10  A    between atoms: C_15  and  N_19
   11  A    between atoms: C_15  and  C_43
   12  A    between atoms: C_18  and  N_33
   13  A    between atoms: C_18  and  C_42
   14  A    between atoms: N_19  and  C_26
   15  A    between atoms: C_22  and  C_26
   16  A    between atoms: C_26  and  C_47
   17  A    between atoms: N_31  and  C_39
   18  A    between atoms: C_34  and  C_35
   19  A    between atoms: C_34  and  C_39
   20  A    between atoms: O_38  and  C_44
                            x       y       z     vdW  Elec       q    Type
                         _______ _______ _______ _____ _____    ______ ____

>  <TORSDO>
F 20

$$$$
=
 OpenBabel11052410243D

 55 59  0  0  1  0  0  0  0  0999 V2000
  161.1520  210.3950  148.2940 O   0  0  0  0  0  0  0  0  0  0  0  0
  161.5370  209.7860  149.5140 C   0  0  2  0  0  3  0  0  0  0  0  0
  162.7600  211.7600  149.0410 N   0  0  0  0  0  0  0  0  0  0  0  0
  162.6680  210.6880  150.0230 C   0  0  1  0  0  3  0  0  0  0  0  0
  161.9080  211.5320  148.1020 C   0  0  0  0  0  0  0  0  0  0  0  0
  162.6710  207.6890  150.2030 C   0  0  0  0  0  2  0  0  0  0  0  0
  162.0010  208.3750  149.2670 C   0  0  0  0  0  0  0  0  0  0  0  0
  161.5710  207.6870  148.0080 C   0  0  0  0  0  2  0  0  0  0  0  0
  162.6110  206.7910  147.5120 N   0  0  0  0  0  2  0  0  0  0  0  0
  162.0750  205.9930  146.4170 C   0  0  0  0  0  2  0  0  0  0  0  0
  160.3080  204.3140  149.0650 O   0  0  0  0  0  0  0  0  0  0  0  0
  161.4960  204.7150  148.4350 C   0  0  0  0  0  2  0  0  0  0  0  0
  161.2770  204.8090  146.9380 C   0  0  2  0  0  3  0  0  0  0  0  0
  160.3110  201.8590  148.9850 C   0  0  0  0  0  2  0  0  0  0  0  0
  160.5370  203.1300  149.8070 C   0  0  1  0  0  3  0  0  0  0  0  0
  161.3340  201.6770  147.8720 C   0  0  0  0  0  2  0  0  0  0  0  0
  160.8580  202.3470  146.5930 C   0  0  0  0  0  2  0  0  0  0  0  0
  161.7430  203.5350  146.2470 C   0  0  0  0  0  2  0  0  0  0  0  0
  161.7750  203.1130  150.4900 O   0  0  0  0  0  0  0  0  0  0  0  0
  161.5610  203.3760  151.8630 C   0  0  2  0  0  3  0  0  0  0  0  0
  160.2150  202.8800  152.3850 C   0  0  0  0  0  1  0  0  0  0  0  0
  161.1190  205.4180  153.2850 N   0  0  0  0  0  2  0  0  0  0  0  0
  162.8530  205.3940  151.7240 O   0  0  0  0  0  0  0  0  0  0  0  0
  161.4310  206.7490  153.7730 C   0  0  0  0  0  1  0  0  0  0  0  0
  161.8840  204.7880  152.2580 C   0  0  0  0  0  0  0  0  0  0  0  0
  162.3550  211.2490  151.3990 C   0  0  0  0  0  2  0  0  0  0  0  0
  160.0510  212.2080  151.4430 C   0  0  0  0  0  0  0  0  0  0  0  0
  158.5280  211.3840  153.2250 N   0  0  1  0  0  0  0  0  0  0  0  0
  158.8090  210.6990  155.5530 C   0  0  0  0  0  1  0  0  0  0  0  0
  159.2650  210.0860  153.2500 C   0  0  2  0  0  3  0  0  0  0  0  0
  160.1480  212.9260  150.4130 O   0  0  0  0  0  0  0  0  0  0  0  0
  159.5270  211.0870  154.2750 C   0  0  1  0  0  3  0  0  0  0  0  0
  160.9300  211.1200  151.6540 N   0  0  0  0  0  0  0  0  0  0  0  0
  160.4070  209.8920  152.2290 C   0  0  0  0  0  2  0  0  0  0  0  0
  159.0720  212.5450  152.5050 C   0  0  0  0  0  2  0  0  0  0  0  0
  161.7400  212.4290  146.9250 C   0  0  0  0  0  2  0  0  0  0  0  0
  160.3760  212.3540  146.4350 N   0  0  0  0  0  2  0  0  0  0  0  0
  160.1700  213.5370  145.6120 C   0  0  1  0  0  3  0  0  0  0  0  0
  161.1080  212.1900  141.9280 C   0  0  2  0  0  3  0  0  0  0  0  0
  160.7140  212.6670  143.2900 N   0  0  0  0  0  0  0  0  0  0  0  0
  159.7460  213.1360  144.2240 C   0  0  0  0  0  0  0  0  0  0  0  0
  162.0970  212.2800  142.8850 C   0  0  0  0  0  2  0  0  0  0  0  0
  158.5490  213.2640  143.8510 O   0  0  0  0  0  0  0  0  0  0  0  0
  161.2020  213.3760  140.9740 C   0  0  1  0  0  3  0  0  0  0  0  0
  163.2100  213.5220  139.4710 C   0  0  0  0  0  0  0  0  0  0  0  0
  163.8150  213.2090  138.4130 O   0  0  0  0  0  0  0  0  0  0  0  0
  161.8980  212.9980  139.7410 N   0  0  0  0  0  0  0  0  0  0  0  0
  163.8900  214.4360  140.4380 C   0  0  0  0  0  1  0  0  0  0  0  0
  161.2940  212.0190  138.8320 C   0  0  0  0  0  2  0  0  0  0  0  0
  161.9150  210.6400  139.0260 C   0  0  0  0  0  2  0  0  0  0  0  0
  160.8810  209.6210  139.0830 N   0  0  0  0  0  1  0  0  0  0  0  0
  159.8160  214.4510  139.3630 O   0  0  0  0  0  1  0  0  0  0  0  0
  159.8280  213.9560  140.6670 C   0  0  0  0  0  2  0  0  0  0  0  0
  159.1550  214.4520  146.2900 C   0  0  0  0  0  2  0  0  0  0  0  0
  158.3370  213.6670  147.2990 C   0  0  0  0  0  1  0  0  0  0  0  0
  1  2  1  0  0  0  0
  2  7  1  6  0  0  0
  2  4  1  0  0  0  0
  3  4  1  0  0  0  0
  4 26  1  1  0  0  0
  5  1  1  0  0  0  0
  5  3  2  0  0  0  0
  7  6  2  0  0  0  0
  8  7  1  0  0  0  0
  9  8  1  0  0  0  0
 10  9  1  0  0  0  0
 11 15  1  0  0  0  0
 12 11  1  0  0  0  0
 13 10  1  6  0  0  0
 13 12  1  0  0  0  0
 14 15  1  0  0  0  0
 15 19  1  6  0  0  0
 16 14  1  0  0  0  0
 17 16  1  0  0  0  0
 18 17  1  0  0  0  0
 18 13  1  0  0  0  0
 19 20  1  0  0  0  0
 20 25  1  0  0  0  0
 20 21  1  6  0  0  0
 22 24  1  0  0  0  0
 23 25  2  0  0  0  0
 25 22  1  0  0  0  0
 26 33  1  0  0  0  0
 27 33  1  0  0  0  0
 27 35  1  0  0  0  0
 28 35  1  6  0  0  0
 28 30  1  0  0  0  0
 28 32  1  0  0  0  0
 30 34  1  6  0  0  0
 30 32  1  0  0  0  0
 31 27  2  0  0  0  0
 32 29  1  1  0  0  0
 33 34  1  0  0  0  0
 36  5  1  0  0  0  0
 37 36  1  0  0  0  0
 38 54  1  1  0  0  0
 38 37  1  0  0  0  0
 39 44  1  6  0  0  0
 39 42  1  0  0  0  0
 39 40  1  0  0  0  0
 40 41  1  0  0  0  0
 41 38  1  0  0  0  0
 42 40  1  0  0  0  0
 43 41  2  0  0  0  0
 44 53  1  6  0  0  0
 45 47  1  0  0  0  0
 45 48  1  0  0  0  0
 46 45  2  0  0  0  0
 47 44  1  0  0  0  0
 49 50  1  0  0  0  0
 49 47  1  0  0  0  0
 50 51  1  0  0  0  0
 52 53  1  0  0  0  0
 54 55  1  0  0  0  0
M  END
>  <MODEL>
4

>  <REMARK>
 VINA RESULT:      -4.2      2.450      9.586
  Name = 
  20 active torsions:
  status: ('A' for Active; 'I' for Inactive)
    1  A    between atoms: C_3  and  C_12
    2  A    between atoms: C_3  and  N_25
    3  A    between atoms: C_5  and  C_37
    4  A    between atoms: C_5  and  O_38
    5  A    between atoms: C_8  and  C_10
    6  A    between atoms: C_8  and  N_31
    7  A    between atoms: C_9  and  N_25
    8  A    between atoms: C_9  and  C_28
    9  A    between atoms: C_9  and  C_41
   10  A    between atoms: C_15  and  N_19
   11  A    between atoms: C_15  and  C_43
   12  A    between atoms: C_18  and  N_33
   13  A    between atoms: C_18  and  C_42
   14  A    between atoms: N_19  and  C_26
   15  A    between atoms: C_22  and  C_26
   16  A    between atoms: C_26  and  C_47
   17  A    between atoms: N_31  and  C_39
   18  A    between atoms: C_34  and  C_35
   19  A    between atoms: C_34  and  C_39
   20  A    between atoms: O_38  and  C_44
                            x       y       z     vdW  Elec       q    Type
                         _______ _______ _______ _____ _____    ______ ____

>  <TORSDO>
F 20

$$$$
=
 OpenBabel11052410243D

 55 59  0  0  1  0  0  0  0  0999 V2000
  160.9100  209.9400  151.7530 O   0  0  0  0  0  0  0  0  0  0  0  0
  161.2690  209.8410  150.3850 C   0  0  2  0  0  3  0  0  0  0  0  0
  161.6160  207.8240  151.5790 N   0  0  0  0  0  0  0  0  0  0  0  0
  161.7930  208.4060  150.2560 C   0  0  1  0  0  3  0  0  0  0  0  0
  161.1400  208.7270  152.3660 C   0  0  0  0  0  0  0  0  0  0  0  0
  163.5630  210.7730  150.5410 C   0  0  0  0  0  2  0  0  0  0  0  0
  162.3200  210.8650  150.0490 C   0  0  0  0  0  0  0  0  0  0  0  0
  162.0000  211.9170  149.0310 C   0  0  0  0  0  2  0  0  0  0  0  0
  161.5360  211.3200  147.7820 N   0  0  0  0  0  2  0  0  0  0  0  0
  160.3790  212.0630  147.2970 C   0  0  0  0  0  2  0  0  0  0  0  0
  159.6510  213.3070  143.9990 O   0  0  0  0  0  0  0  0  0  0  0  0
  160.0900  212.2960  144.8670 C   0  0  0  0  0  2  0  0  0  0  0  0
  160.7380  212.9140  146.0900 C   0  0  2  0  0  3  0  0  0  0  0  0
  161.5900  213.8660  142.5990 C   0  0  0  0  0  2  0  0  0  0  0  0
  160.2500  213.1380  142.7270 C   0  0  1  0  0  3  0  0  0  0  0  0
  162.6790  213.2770  143.4850 C   0  0  0  0  0  2  0  0  0  0  0  0
  162.6760  213.9460  144.8510 C   0  0  0  0  0  2  0  0  0  0  0  0
  162.2510  212.9600  145.9300 C   0  0  0  0  0  2  0  0  0  0  0  0
  160.3310  211.7910  142.3070 O   0  0  0  0  0  0  0  0  0  0  0  0
  160.5990  211.7440  140.9190 C   0  0  2  0  0  3  0  0  0  0  0  0
  159.3460  211.7720  140.0460 C   0  0  0  0  0  1  0  0  0  0  0  0
  161.1140  209.3520  140.2850 N   0  0  0  0  0  2  0  0  0  0  0  0
  162.8040  210.9580  140.3890 O   0  0  0  0  0  0  0  0  0  0  0  0
  161.9990  208.2940  139.8300 C   0  0  0  0  0  1  0  0  0  0  0  0
  161.5840  210.6770  140.5360 C   0  0  0  0  0  0  0  0  0  0  0  0
  161.0120  207.6210  149.2180 C   0  0  0  0  0  2  0  0  0  0  0  0
  161.8910  205.8150  147.7370 C   0  0  0  0  0  0  0  0  0  0  0  0
  161.6460  203.4800  148.5510 N   0  0  1  0  0  0  0  0  0  0  0  0
  159.9570  202.2700  149.8350 C   0  0  0  0  0  1  0  0  0  0  0  0
  161.6830  203.9710  149.9600 C   0  0  2  0  0  3  0  0  0  0  0  0
  162.3730  206.5540  146.8390 O   0  0  0  0  0  0  0  0  0  0  0  0
  160.4070  203.6320  149.3440 C   0  0  1  0  0  3  0  0  0  0  0  0
  161.6350  206.3220  149.0330 N   0  0  0  0  0  0  0  0  0  0  0  0
  161.9100  205.4810  150.1860 C   0  0  0  0  0  2  0  0  0  0  0  0
  161.4930  204.4190  147.4290 C   0  0  0  0  0  2  0  0  0  0  0  0
  160.8440  208.4740  153.8030 C   0  0  0  0  0  2  0  0  0  0  0  0
  161.4690  209.4950  154.6250 N   0  0  0  0  0  2  0  0  0  0  0  0
  160.8550  209.3950  155.9400 C   0  0  1  0  0  3  0  0  0  0  0  0
  158.0310  212.1120  154.9880 C   0  0  2  0  0  3  0  0  0  0  0  0
  159.0690  211.1140  155.3900 N   0  0  0  0  0  0  0  0  0  0  0  0
  160.1030  210.6600  156.2600 C   0  0  0  0  0  0  0  0  0  0  0  0
  158.1900  210.9970  154.1910 C   0  0  0  0  0  2  0  0  0  0  0  0
  160.4110  211.3620  157.2610 O   0  0  0  0  0  0  0  0  0  0  0  0
  158.6990  213.3160  154.3320 C   0  0  1  0  0  3  0  0  0  0  0  0
  158.2960  213.6790  151.8780 C   0  0  0  0  0  0  0  0  0  0  0  0
  157.5960  214.1330  150.9360 O   0  0  0  0  0  0  0  0  0  0  0  0
  157.8720  213.8420  153.2430 N   0  0  0  0  0  0  0  0  0  0  0  0
  159.5650  212.9620  151.5450 C   0  0  0  0  0  1  0  0  0  0  0  0
  156.5730  214.4520  153.5430 C   0  0  0  0  0  2  0  0  0  0  0  0
  155.6410  213.4500  154.2160 C   0  0  0  0  0  2  0  0  0  0  0  0
  155.1350  213.9880  155.4660 N   0  0  0  0  0  1  0  0  0  0  0  0
  158.6330  213.9720  156.6200 O   0  0  0  0  0  1  0  0  0  0  0  0
  159.0150  214.4030  155.3500 C   0  0  0  0  0  2  0  0  0  0  0  0
  159.9620  208.1590  155.9870 C   0  0  0  0  0  2  0  0  0  0  0  0
  160.3460  207.2820  157.1640 C   0  0  0  0  0  1  0  0  0  0  0  0
  1  5  1  0  0  0  0
  2  7  1  1  0  0  0
  2  1  1  0  0  0  0
  3  5  2  0  0  0  0
  4 26  1  6  0  0  0
  4  2  1  0  0  0  0
  4  3  1  0  0  0  0
  5 36  1  0  0  0  0
  7  6  2  0  0  0  0
  8  7  1  0  0  0  0
  9  8  1  0  0  0  0
 10  9  1  0  0  0  0
 11 12  1  0  0  0  0
 12 13  1  0  0  0  0
 13 10  1  1  0  0  0
 14 15  1  0  0  0  0
 14 16  1  0  0  0  0
 15 19  1  1  0  0  0
 15 11  1  0  0  0  0
 16 17  1  0  0  0  0
 17 18  1  0  0  0  0
 18 13  1  0  0  0  0
 20 21  1  6  0  0  0
 20 19  1  0  0  0  0
 22 25  1  0  0  0  0
 23 25  2  0  0  0  0
 24 22  1  0  0  0  0
 25 20  1  0  0  0  0
 27 33  1  0  0  0  0
 28 35  1  6  0  0  0
 28 32  1  0  0  0  0
 28 30  1  0  0  0  0
 30 34  1  6  0  0  0
 31 27  2  0  0  0  0
 32 29  1  1  0  0  0
 32 30  1  0  0  0  0
 33 26  1  0  0  0  0
 33 34  1  0  0  0  0
 35 27  1  0  0  0  0
 36 37  1  0  0  0  0
 37 38  1  0  0  0  0
 38 54  1  6  0  0  0
 38 41  1  0  0  0  0
 39 44  1  6  0  0  0
 39 40  1  0  0  0  0
 40 41  1  0  0  0  0
 41 43  2  0  0  0  0
 42 39  1  0  0  0  0
 42 40  1  0  0  0  0
 44 53  1  1  0  0  0
 45 47  1  0  0  0  0
 46 45  2  0  0  0  0
 47 49  1  0  0  0  0
 47 44  1  0  0  0  0
 48 45  1  0  0  0  0
 49 50  1  0  0  0  0
 50 51  1  0  0  0  0
 53 52  1  0  0  0  0
 54 55  1  0  0  0  0
M  END
>  <MODEL>
5

>  <REMARK>
 VINA RESULT:      -4.1      1.976      8.154
  Name = 
  20 active torsions:
  status: ('A' for Active; 'I' for Inactive)
    1  A    between atoms: C_3  and  C_12
    2  A    between atoms: C_3  and  N_25
    3  A    between atoms: C_5  and  C_37
    4  A    between atoms: C_5  and  O_38
    5  A    between atoms: C_8  and  C_10
    6  A    between atoms: C_8  and  N_31
    7  A    between atoms: C_9  and  N_25
    8  A    between atoms: C_9  and  C_28
    9  A    between atoms: C_9  and  C_41
   10  A    between atoms: C_15  and  N_19
   11  A    between atoms: C_15  and  C_43
   12  A    between atoms: C_18  and  N_33
   13  A    between atoms: C_18  and  C_42
   14  A    between atoms: N_19  and  C_26
   15  A    between atoms: C_22  and  C_26
   16  A    between atoms: C_26  and  C_47
   17  A    between atoms: N_31  and  C_39
   18  A    between atoms: C_34  and  C_35
   19  A    between atoms: C_34  and  C_39
   20  A    between atoms: O_38  and  C_44
                            x       y       z     vdW  Elec       q    Type
                         _______ _______ _______ _____ _____    ______ ____

>  <TORSDO>
F 20

$$$$
