=
 OpenBabel11042420593D

 46 48  0  0  1  0  0  0  0  0999 V2000
  161.8910  210.9700  147.7960 C   0  0  0  0  0  0  0  0  0  0  0  0
  159.2590  211.7570  155.0520 C   0  0  2  0  0  3  0  0  0  0  0  0
  158.7980  214.2300  150.8260 C   0  0  0  0  0  2  0  0  0  0  0  0
  159.6020  214.1210  155.0860 O   0  0  0  0  0  0  0  0  0  0  0  0
  159.0730  213.1980  153.0050 N   0  0  0  0  0  2  0  0  0  0  0  0
  163.0890  210.2930  148.0420 O   0  0  0  0  0  0  0  0  0  0  0  0
  159.2140  212.8150  148.5330 S   0  0  0  0  0  0  0  0  0  0  0  0
  159.1870  214.4510  152.2760 C   0  0  0  0  0  2  0  0  0  0  0  0
  161.3350  208.7470  149.7210 N   0  0  0  0  0  2  0  0  0  0  0  0
  161.8490  212.3890  147.9840 N   0  0  0  0  0  2  0  0  0  0  0  0
  160.8760  210.3520  147.3660 O   0  0  0  0  0  0  0  0  0  0  0  0
  160.7290  213.2520  147.6030 C   0  0  1  0  0  3  0  0  0  0  0  0
  160.8850  207.5440  153.0150 C   0  0  2  0  0  3  0  0  0  0  0  0
  159.5520  209.9030  157.1770 N   0  0  0  0  0  0  0  0  0  0  0  0
  163.2050  208.9040  148.1960 C   0  0  0  0  0  3  0  0  0  0  0  0
  159.3200  213.0980  154.4070 C   0  0  0  0  0  0  0  0  0  0  0  0
  160.6950  208.0280  150.6740 O   0  0  0  0  0  0  0  0  0  0  0  0
  159.8730  213.4360  150.1070 C   0  0  0  0  0  2  0  0  0  0  0  0
  161.2360  208.4880  151.8770 C   0  0  0  0  0  2  0  0  0  0  0  0
  160.5130  209.8620  156.0640 C   0  0  2  0  0  3  0  0  0  0  0  0
  161.1630  208.1980  154.2840 N   0  0  0  0  0  2  0  0  0  0  0  0
  158.5900  210.7770  157.2600 C   0  0  0  0  0  3  0  0  0  0  0  0
  158.4320  211.7870  156.2560 N   0  0  0  0  0  2  0  0  0  0  0  0
  162.4010  208.1670  148.9670 C   0  0  0  0  0  3  0  0  0  0  0  0
  160.6500  211.2340  155.3890 C   0  0  0  0  0  2  0  0  0  0  0  0
  160.1350  208.8230  155.0520 C   0  0  0  0  0  0  0  0  0  0  0  0
  158.9220  208.5550  154.8290 O   0  0  0  0  0  0  0  0  0  0  0  0
  160.5260  213.2750  146.1050 C   0  0  0  0  0  0  0  0  0  0  0  0
  158.3040  212.4520  145.1660 O   0  0  0  0  0  0  0  0  0  0  0  0
  159.3850  212.8520  145.6230 C   0  0  0  0  0  0  0  0  0  0  0  0
  161.7180  213.2670  145.1860 C   0  0  0  0  0  2  0  0  0  0  0  0
  162.6280  213.2150  142.8350 C   0  0  0  0  0  1  0  0  0  0  0  0
  160.5200  214.4330  143.3000 C   0  0  0  0  0  1  0  0  0  0  0  0
  160.6480  212.0890  143.4380 F   0  0  0  0  0  0  0  0  0  0  0  0
  161.3720  213.2390  143.6900 C   0  0  0  0  0  0  0  0  0  0  0  0
  161.8130  205.9720  152.8910 S   0  0  0  0  0  0  0  0  0  0  0  0
  161.5350  204.3730  150.7010 C   0  0  0  0  0  3  0  0  0  0  0  0
  161.0880  205.4590  151.3280 C   0  0  0  0  0  3  0  0  0  0  0  0
  160.9320  203.9320  149.4020 C   0  0  1  0  0  3  0  0  0  0  0  0
  160.9870  204.4070  146.8910 C   0  0  0  0  0  2  0  0  0  0  0  0
  161.2700  204.9450  148.2830 C   0  0  0  0  0  3  0  0  0  0  0  0
  162.4180  204.4910  147.3970 C   0  0  0  0  0  2  0  0  0  0  0  0
  161.2940  202.4710  149.1110 C   0  0  0  0  0  2  0  0  0  0  0  0
  161.1650  201.6040  150.3540 C   0  0  0  0  0  2  0  0  0  0  0  0
  159.9060  201.0080  150.4010 O   0  0  0  0  0  0  0  0  0  0  0  0
  159.3310  201.3200  149.1680 C   0  0  0  0  0  1  0  0  0  0  0  0
  1 10  1  0  0  0  0
  1  6  1  0  0  0  0
  2 25  1  1  0  0  0
  2 23  1  0  0  0  0
  3  8  1  0  0  0  0
  5 16  1  0  0  0  0
  6 15  1  0  0  0  0
  7 18  1  0  0  0  0
  8  5  1  0  0  0  0
  9 17  1  0  0  0  0
 11  1  2  0  0  0  0
 12 28  1  6  0  0  0
 12 10  1  0  0  0  0
 12  7  1  0  0  0  0
 13 36  1  6  0  0  0
 13 21  1  0  0  0  0
 14 22  2  0  0  0  0
 15 24  2  0  0  0  0
 16  2  1  0  0  0  0
 16  4  2  0  0  0  0
 17 19  1  0  0  0  0
 18  3  1  0  0  0  0
 19 13  1  0  0  0  0
 20 25  1  6  0  0  0
 20 14  1  0  0  0  0
 21 26  1  0  0  0  0
 23 22  1  0  0  0  0
 24  9  1  0  0  0  0
 26 20  1  0  0  0  0
 27 26  2  0  0  0  0
 29 30  2  0  0  0  0
 30 28  2  0  0  0  0
 31 28  1  0  0  0  0
 32 35  1  0  0  0  0
 33 35  1  0  0  0  0
 34 35  1  0  0  0  0
 35 31  1  0  0  0  0
 37 38  2  0  0  0  0
 38 36  1  0  0  0  0
 39 43  1  6  0  0  0
 39 37  1  0  0  0  0
 40 42  1  0  0  0  0
 40 41  1  0  0  0  0
 41 39  1  0  0  0  0
 42 41  1  0  0  0  0
 43 44  1  0  0  0  0
 44 45  1  0  0  0  0
 46 45  1  0  0  0  0
M  END
>  <MODEL>
1

>  <REMARK>
 VINA RESULT:      -2.0      0.000      0.000
  Name = 
  10 active torsions:
  status: ('A' for Active; 'I' for Inactive)
    1  A    between atoms: C_4  and  C_32
    2  A    between atoms: O_11  and  C_26
    3  A    between atoms: C_13  and  C_32
    4  A    between atoms: C_14  and  S_16
    5  A    between atoms: S_16  and  C_23
    6  A    between atoms: C_19  and  C_20
    7  A    between atoms: C_19  and  C_25
    8  A    between atoms: C_25  and  C_38
    9  A    between atoms: C_26  and  C_36
   10  A    between atoms: C_32  and  C_36
                            x       y       z     vdW  Elec       q    Type
                         _______ _______ _______ _____ _____    ______ ____

>  <TORSDO>
F 10

$$$$
=
 OpenBabel11042420593D

 46 48  0  0  1  0  0  0  0  0999 V2000
  161.8850  209.0460  140.6000 C   0  0  0  0  0  0  0  0  0  0  0  0
  161.7580  210.1680  148.2760 C   0  0  2  0  0  3  0  0  0  0  0  0
  160.7490  212.8560  144.2830 C   0  0  0  0  0  2  0  0  0  0  0  0
  162.6940  212.3610  148.1280 O   0  0  0  0  0  0  0  0  0  0  0  0
  161.3670  211.6950  146.3230 N   0  0  0  0  0  2  0  0  0  0  0  0
  162.8860  208.0740  140.5110 O   0  0  0  0  0  0  0  0  0  0  0  0
  160.1050  211.4820  142.0180 S   0  0  0  0  0  0  0  0  0  0  0  0
  161.5840  212.9080  145.5500 C   0  0  0  0  0  2  0  0  0  0  0  0
  161.3560  206.9580  142.6790 N   0  0  0  0  0  2  0  0  0  0  0  0
  162.2670  210.4190  140.7440 N   0  0  0  0  0  2  0  0  0  0  0  0
  160.6660  208.7280  140.5050 O   0  0  0  0  0  0  0  0  0  0  0  0
  161.3460  211.5560  140.6740 C   0  0  1  0  0  3  0  0  0  0  0  0
  161.5830  205.7700  146.0010 C   0  0  2  0  0  3  0  0  0  0  0  0
  162.1650  208.2100  150.2870 N   0  0  0  0  0  0  0  0  0  0  0  0
  162.6800  206.6970  140.6730 C   0  0  0  0  0  3  0  0  0  0  0  0
  161.9740  211.4750  147.5950 C   0  0  0  0  0  0  0  0  0  0  0  0
  160.8560  206.3880  143.8010 O   0  0  0  0  0  0  0  0  0  0  0  0
  161.3280  211.8450  143.3110 C   0  0  0  0  0  2  0  0  0  0  0  0
  161.8210  206.6410  144.7780 C   0  0  0  0  0  2  0  0  0  0  0  0
  162.7190  207.9730  148.9450 C   0  0  2  0  0  3  0  0  0  0  0  0
  162.3750  206.2750  147.1120 N   0  0  0  0  0  2  0  0  0  0  0  0
  161.5280  209.2970  150.6150 C   0  0  0  0  0  3  0  0  0  0  0  0
  161.3520  210.3570  149.6660 N   0  0  0  0  0  2  0  0  0  0  0  0
  161.9720  206.1580  141.6680 C   0  0  0  0  0  3  0  0  0  0  0  0
  163.0040  209.2920  148.2130 C   0  0  0  0  0  2  0  0  0  0  0  0
  161.8100  207.1100  148.1230 C   0  0  0  0  0  0  0  0  0  0  0  0
  160.5580  207.1720  148.2710 O   0  0  0  0  0  0  0  0  0  0  0  0
  160.7320  211.6940  139.3000 C   0  0  0  0  0  0  0  0  0  0  0  0
  162.2390  211.4350  137.2610 O   0  0  0  0  0  0  0  0  0  0  0  0
  161.5050  211.5620  138.2530 C   0  0  0  0  0  0  0  0  0  0  0  0
  159.4480  212.4600  139.1260 C   0  0  0  0  0  2  0  0  0  0  0  0
  158.0110  211.5650  137.2580 C   0  0  0  0  0  1  0  0  0  0  0  0
  156.9730  212.1010  139.4440 C   0  0  0  0  0  1  0  0  0  0  0  0
  158.4740  210.3070  139.1950 F   0  0  0  0  0  0  0  0  0  0  0  0
  158.2320  211.5970  138.7610 C   0  0  0  0  0  0  0  0  0  0  0  0
  161.9980  204.0200  145.6680 S   0  0  0  0  0  0  0  0  0  0  0  0
  161.1080  203.4780  148.1870 C   0  0  0  0  0  3  0  0  0  0  0  0
  162.1740  203.5460  147.3930 C   0  0  0  0  0  3  0  0  0  0  0  0
  161.2450  203.0760  149.6240 C   0  0  1  0  0  3  0  0  0  0  0  0
  161.5510  204.9320  151.3550 C   0  0  0  0  0  2  0  0  0  0  0  0
  160.5610  204.1170  150.5400 C   0  0  0  0  0  3  0  0  0  0  0  0
  160.7500  203.8230  152.0190 C   0  0  0  0  0  2  0  0  0  0  0  0
  160.8000  201.6210  149.8180 C   0  0  0  0  0  2  0  0  0  0  0  0
  160.4910  200.9480  148.4900 C   0  0  0  0  0  2  0  0  0  0  0  0
  161.5610  200.1500  148.0890 O   0  0  0  0  0  0  0  0  0  0  0  0
  161.3320  199.9240  146.7300 C   0  0  0  0  0  1  0  0  0  0  0  0
  1 10  1  0  0  0  0
  2 25  1  1  0  0  0
  2 23  1  0  0  0  0
  3  8  1  0  0  0  0
  5 16  1  0  0  0  0
  6  1  1  0  0  0  0
  6 15  1  0  0  0  0
  7 18  1  0  0  0  0
  8  5  1  0  0  0  0
  9 17  1  0  0  0  0
 11  1  2  0  0  0  0
 12 28  1  6  0  0  0
 12 10  1  0  0  0  0
 12  7  1  0  0  0  0
 13 36  1  6  0  0  0
 13 21  1  0  0  0  0
 14 22  2  0  0  0  0
 15 24  2  0  0  0  0
 16  4  2  0  0  0  0
 16  2  1  0  0  0  0
 17 19  1  0  0  0  0
 18  3  1  0  0  0  0
 19 13  1  0  0  0  0
 20 25  1  6  0  0  0
 20 14  1  0  0  0  0
 21 26  1  0  0  0  0
 23 22  1  0  0  0  0
 24  9  1  0  0  0  0
 26 27  2  0  0  0  0
 26 20  1  0  0  0  0
 29 30  2  0  0  0  0
 30 28  2  0  0  0  0
 31 28  1  0  0  0  0
 32 35  1  0  0  0  0
 35 31  1  0  0  0  0
 35 34  1  0  0  0  0
 35 33  1  0  0  0  0
 36 38  1  0  0  0  0
 38 37  2  0  0  0  0
 39 37  1  6  0  0  0
 39 43  1  0  0  0  0
 39 41  1  0  0  0  0
 40 42  1  0  0  0  0
 41 40  1  0  0  0  0
 41 42  1  0  0  0  0
 44 43  1  0  0  0  0
 45 44  1  0  0  0  0
 46 45  1  0  0  0  0
M  END
>  <MODEL>
2

>  <REMARK>
 VINA RESULT:      -1.1      4.222      6.616
  Name = 
  10 active torsions:
  status: ('A' for Active; 'I' for Inactive)
    1  A    between atoms: C_4  and  C_32
    2  A    between atoms: O_11  and  C_26
    3  A    between atoms: C_13  and  C_32
    4  A    between atoms: C_14  and  S_16
    5  A    between atoms: S_16  and  C_23
    6  A    between atoms: C_19  and  C_20
    7  A    between atoms: C_19  and  C_25
    8  A    between atoms: C_25  and  C_38
    9  A    between atoms: C_26  and  C_36
   10  A    between atoms: C_32  and  C_36
                            x       y       z     vdW  Elec       q    Type
                         _______ _______ _______ _____ _____    ______ ____

>  <TORSDO>
F 10

$$$$
=
 OpenBabel11042420593D

 46 48  0  0  1  0  0  0  0  0999 V2000
  161.8520  209.1350  140.5660 C   0  0  0  0  0  0  0  0  0  0  0  0
  161.7430  210.0680  148.2670 C   0  0  2  0  0  3  0  0  0  0  0  0
  160.6360  212.8230  144.3470 C   0  0  0  0  0  2  0  0  0  0  0  0
  162.6170  212.2900  148.1670 O   0  0  0  0  0  0  0  0  0  0  0  0
  161.2990  211.6300  146.3540 N   0  0  0  0  0  2  0  0  0  0  0  0
  162.8790  208.1940  140.4480 O   0  0  0  0  0  0  0  0  0  0  0  0
  160.0160  211.4860  142.0530 S   0  0  0  0  0  0  0  0  0  0  0  0
  161.4770  212.8670  145.6100 C   0  0  0  0  0  2  0  0  0  0  0  0
  161.3940  206.9850  142.5960 N   0  0  0  0  0  2  0  0  0  0  0  0
  162.1970  210.5140  140.7400 N   0  0  0  0  0  2  0  0  0  0  0  0
  160.6420  208.7860  140.4700 O   0  0  0  0  0  0  0  0  0  0  0  0
  161.2450  211.6270  140.7040 C   0  0  1  0  0  3  0  0  0  0  0  0
  161.6750  205.7230  145.8870 C   0  0  2  0  0  3  0  0  0  0  0  0
  162.2160  208.0750  150.2280 N   0  0  0  0  0  0  0  0  0  0  0  0
  162.7120  206.8080  140.5770 C   0  0  0  0  0  3  0  0  0  0  0  0
  161.9190  211.3970  147.6170 C   0  0  0  0  0  0  0  0  0  0  0  0
  160.9170  206.3740  143.7070 O   0  0  0  0  0  0  0  0  0  0  0  0
  161.2360  211.8520  143.3470 C   0  0  0  0  0  2  0  0  0  0  0  0
  161.8800  206.6300  144.6850 C   0  0  0  0  0  2  0  0  0  0  0  0
  162.7680  207.8850  148.8780 C   0  0  2  0  0  3  0  0  0  0  0  0
  162.4590  206.2230  147.0060 N   0  0  0  0  0  2  0  0  0  0  0  0
  161.5510  209.1350  150.5860 C   0  0  0  0  0  3  0  0  0  0  0  0
  161.3410  210.2120  149.6640 N   0  0  0  0  0  2  0  0  0  0  0  0
  162.0250  206.2260  141.5630 C   0  0  0  0  0  3  0  0  0  0  0  0
  163.0120  209.2280  148.1760 C   0  0  0  0  0  2  0  0  0  0  0  0
  161.8780  207.0170  148.0400 C   0  0  0  0  0  0  0  0  0  0  0  0
  160.6260  207.0410  148.1960 O   0  0  0  0  0  0  0  0  0  0  0  0
  160.6190  211.7820  139.3370 C   0  0  0  0  0  0  0  0  0  0  0  0
  162.1160  211.5910  137.2830 O   0  0  0  0  0  0  0  0  0  0  0  0
  161.3870  211.6840  138.2820 C   0  0  0  0  0  0  0  0  0  0  0  0
  159.3200  212.5280  139.1870 C   0  0  0  0  0  2  0  0  0  0  0  0
  157.8480  211.7250  137.3040 C   0  0  0  0  0  1  0  0  0  0  0  0
  156.8720  212.0600  139.5580 C   0  0  0  0  0  1  0  0  0  0  0  0
  158.4190  210.3430  139.1250 F   0  0  0  0  0  0  0  0  0  0  0  0
  158.1210  211.6520  138.7980 C   0  0  0  0  0  0  0  0  0  0  0  0
  162.1350  203.9940  145.5090 S   0  0  0  0  0  0  0  0  0  0  0  0
  161.3620  203.6470  148.1000 C   0  0  0  0  0  3  0  0  0  0  0  0
  161.1770  203.2580  146.8410 C   0  0  0  0  0  3  0  0  0  0  0  0
  160.5630  203.0450  149.2160 C   0  0  1  0  0  3  0  0  0  0  0  0
  160.5940  200.6190  150.0200 C   0  0  0  0  0  2  0  0  0  0  0  0
  160.2220  201.5710  148.8970 C   0  0  0  0  0  3  0  0  0  0  0  0
  161.4520  200.6900  148.7680 C   0  0  0  0  0  2  0  0  0  0  0  0
  161.2520  203.2940  150.5640 C   0  0  0  0  0  2  0  0  0  0  0  0
  161.0640  204.7290  151.0320 C   0  0  0  0  0  2  0  0  0  0  0  0
  162.0850  205.0910  151.9090 O   0  0  0  0  0  0  0  0  0  0  0  0
  161.4320  205.7870  152.9280 C   0  0  0  0  0  1  0  0  0  0  0  0
  1 10  1  0  0  0  0
  2 25  1  1  0  0  0
  2 23  1  0  0  0  0
  3  8  1  0  0  0  0
  5 16  1  0  0  0  0
  6  1  1  0  0  0  0
  6 15  1  0  0  0  0
  7 18  1  0  0  0  0
  8  5  1  0  0  0  0
  9 17  1  0  0  0  0
 11  1  2  0  0  0  0
 12 28  1  6  0  0  0
 12 10  1  0  0  0  0
 12  7  1  0  0  0  0
 13 36  1  6  0  0  0
 13 21  1  0  0  0  0
 14 22  2  0  0  0  0
 15 24  2  0  0  0  0
 16  4  2  0  0  0  0
 16  2  1  0  0  0  0
 17 19  1  0  0  0  0
 18  3  1  0  0  0  0
 19 13  1  0  0  0  0
 20 25  1  6  0  0  0
 20 14  1  0  0  0  0
 21 26  1  0  0  0  0
 23 22  1  0  0  0  0
 24  9  1  0  0  0  0
 26 27  2  0  0  0  0
 26 20  1  0  0  0  0
 29 30  2  0  0  0  0
 30 28  2  0  0  0  0
 31 28  1  0  0  0  0
 32 35  1  0  0  0  0
 35 34  1  0  0  0  0
 35 31  1  0  0  0  0
 35 33  1  0  0  0  0
 36 38  1  0  0  0  0
 38 37  2  0  0  0  0
 39 37  1  6  0  0  0
 39 43  1  0  0  0  0
 41 39  1  0  0  0  0
 41 40  1  0  0  0  0
 42 41  1  0  0  0  0
 42 40  1  0  0  0  0
 43 44  1  0  0  0  0
 44 45  1  0  0  0  0
 45 46  1  0  0  0  0
M  END
>  <MODEL>
3

>  <REMARK>
 VINA RESULT:      -1.0      4.221      6.730
  Name = 
  10 active torsions:
  status: ('A' for Active; 'I' for Inactive)
    1  A    between atoms: C_4  and  C_32
    2  A    between atoms: O_11  and  C_26
    3  A    between atoms: C_13  and  C_32
    4  A    between atoms: C_14  and  S_16
    5  A    between atoms: S_16  and  C_23
    6  A    between atoms: C_19  and  C_20
    7  A    between atoms: C_19  and  C_25
    8  A    between atoms: C_25  and  C_38
    9  A    between atoms: C_26  and  C_36
   10  A    between atoms: C_32  and  C_36
                            x       y       z     vdW  Elec       q    Type
                         _______ _______ _______ _____ _____    ______ ____

>  <TORSDO>
F 10

$$$$
=
 OpenBabel11042420593D

 46 48  0  0  1  0  0  0  0  0999 V2000
  160.6930  204.6160  147.2370 C   0  0  0  0  0  0  0  0  0  0  0  0
  161.2610  208.2930  154.0460 C   0  0  2  0  0  3  0  0  0  0  0  0
  161.1330  203.6120  152.5450 C   0  0  0  0  0  2  0  0  0  0  0  0
  159.7700  206.7930  155.1570 O   0  0  0  0  0  0  0  0  0  0  0  0
  161.0440  205.8700  153.4290 N   0  0  0  0  0  2  0  0  0  0  0  0
  159.9800  205.5690  146.5030 O   0  0  0  0  0  0  0  0  0  0  0  0
  161.8950  203.1350  149.9710 S   0  0  0  0  0  0  0  0  0  0  0  0
  160.4410  204.5500  153.5170 C   0  0  0  0  0  2  0  0  0  0  0  0
  161.9530  207.2920  147.6960 N   0  0  0  0  0  2  0  0  0  0  0  0
  159.9780  203.7640  148.1390 N   0  0  0  0  0  2  0  0  0  0  0  0
  161.9380  204.4740  147.0740 O   0  0  0  0  0  0  0  0  0  0  0  0
  160.5550  202.6130  148.8380 C   0  0  1  0  0  3  0  0  0  0  0  0
  162.3700  210.2280  149.6220 C   0  0  2  0  0  3  0  0  0  0  0  0
  161.5820  211.0820  154.4510 N   0  0  0  0  0  0  0  0  0  0  0  0
  160.5570  206.6540  145.8280 C   0  0  0  0  0  3  0  0  0  0  0  0
  160.6430  206.9560  154.2640 C   0  0  0  0  0  0  0  0  0  0  0  0
  162.6920  208.2580  148.2940 O   0  0  0  0  0  0  0  0  0  0  0  0
  160.7510  203.9560  151.1170 C   0  0  0  0  0  2  0  0  0  0  0  0
  161.7940  208.9050  149.1450 C   0  0  0  0  0  2  0  0  0  0  0  0
  160.9830  210.6130  153.1910 C   0  0  2  0  0  3  0  0  0  0  0  0
  161.5840  210.7180  150.7440 N   0  0  0  0  0  2  0  0  0  0  0  0
  161.9380  210.2810  155.4140 C   0  0  0  0  0  3  0  0  0  0  0  0
  161.7360  208.8670  155.3020 N   0  0  0  0  0  2  0  0  0  0  0  0
  161.4750  207.4640  146.3610 C   0  0  0  0  0  3  0  0  0  0  0  0
  160.2910  209.2550  153.3690 C   0  0  0  0  0  2  0  0  0  0  0  0
  162.0040  210.5350  152.0960 C   0  0  0  0  0  0  0  0  0  0  0  0
  163.2030  210.2400  152.3550 O   0  0  0  0  0  0  0  0  0  0  0  0
  160.9750  201.5270  147.8750 C   0  0  0  0  0  0  0  0  0  0  0  0
  162.1620  199.4710  148.8020 O   0  0  0  0  0  0  0  0  0  0  0  0
  161.5850  200.4710  148.3500 C   0  0  0  0  0  0  0  0  0  0  0  0
  161.1760  201.8510  146.4190 C   0  0  0  0  0  2  0  0  0  0  0  0
  160.2430  200.1860  144.7720 C   0  0  0  0  0  1  0  0  0  0  0  0
  159.7060  202.5910  144.5100 C   0  0  0  0  0  1  0  0  0  0  0  0
  158.8720  201.3280  146.3100 F   0  0  0  0  0  0  0  0  0  0  0  0
  159.9900  201.4880  145.5130 C   0  0  0  0  0  0  0  0  0  0  0  0
  162.4020  211.4680  148.2780 S   0  0  0  0  0  0  0  0  0  0  0  0
  160.0910  212.9130  148.3550 C   0  0  0  0  0  3  0  0  0  0  0  0
  161.1920  212.5700  149.0210 C   0  0  0  0  0  3  0  0  0  0  0  0
  159.0730  213.8250  148.9690 C   0  0  1  0  0  3  0  0  0  0  0  0
  157.6730  212.6200  147.2030 C   0  0  0  0  0  2  0  0  0  0  0  0
  157.6560  213.4650  148.4650 C   0  0  0  0  0  3  0  0  0  0  0  0
  157.3240  214.0970  147.1240 C   0  0  0  0  0  2  0  0  0  0  0  0
  159.2470  213.8730  150.4920 C   0  0  0  0  0  2  0  0  0  0  0  0
  158.0070  213.3680  151.2140 C   0  0  0  0  0  2  0  0  0  0  0  0
  158.3510  212.3820  152.1370 O   0  0  0  0  0  0  0  0  0  0  0  0
  157.9360  212.9000  153.3650 C   0  0  0  0  0  1  0  0  0  0  0  0
  1 10  1  0  0  0  0
  2 25  1  1  0  0  0
  2 16  1  0  0  0  0
  2 23  1  0  0  0  0
  3  8  1  0  0  0  0
  5  8  1  0  0  0  0
  5 16  1  0  0  0  0
  6  1  1  0  0  0  0
  7 18  1  0  0  0  0
  9 17  1  0  0  0  0
 10 12  1  0  0  0  0
 11  1  2  0  0  0  0
 12 28  1  6  0  0  0
 12  7  1  0  0  0  0
 13 36  1  6  0  0  0
 13 21  1  0  0  0  0
 14 22  2  0  0  0  0
 15 24  2  0  0  0  0
 15  6  1  0  0  0  0
 16  4  2  0  0  0  0
 17 19  1  0  0  0  0
 18  3  1  0  0  0  0
 19 13  1  0  0  0  0
 20 25  1  1  0  0  0
 20 14  1  0  0  0  0
 21 26  1  0  0  0  0
 23 22  1  0  0  0  0
 24  9  1  0  0  0  0
 26 27  2  0  0  0  0
 26 20  1  0  0  0  0
 28 30  2  0  0  0  0
 30 29  2  0  0  0  0
 31 28  1  0  0  0  0
 32 35  1  0  0  0  0
 33 35  1  0  0  0  0
 35 34  1  0  0  0  0
 35 31  1  0  0  0  0
 36 38  1  0  0  0  0
 37 38  2  0  0  0  0
 39 37  1  1  0  0  0
 39 43  1  0  0  0  0
 40 41  1  0  0  0  0
 41 39  1  0  0  0  0
 42 40  1  0  0  0  0
 42 41  1  0  0  0  0
 43 44  1  0  0  0  0
 44 45  1  0  0  0  0
 45 46  1  0  0  0  0
M  END
>  <MODEL>
4

>  <REMARK>
 VINA RESULT:      -0.2      3.242      8.675
  Name = 
  10 active torsions:
  status: ('A' for Active; 'I' for Inactive)
    1  A    between atoms: C_4  and  C_32
    2  A    between atoms: O_11  and  C_26
    3  A    between atoms: C_13  and  C_32
    4  A    between atoms: C_14  and  S_16
    5  A    between atoms: S_16  and  C_23
    6  A    between atoms: C_19  and  C_20
    7  A    between atoms: C_19  and  C_25
    8  A    between atoms: C_25  and  C_38
    9  A    between atoms: C_26  and  C_36
   10  A    between atoms: C_32  and  C_36
                            x       y       z     vdW  Elec       q    Type
                         _______ _______ _______ _____ _____    ______ ____

>  <TORSDO>
F 10

$$$$
=
 OpenBabel11042420593D

 46 48  0  0  1  0  0  0  0  0999 V2000
  161.6560  209.4160  148.0080 C   0  0  0  0  0  0  0  0  0  0  0  0
  161.4200  208.0420  140.3750 C   0  0  2  0  0  3  0  0  0  0  0  0
  161.4280  205.3170  144.4690 C   0  0  0  0  0  2  0  0  0  0  0  0
  162.9380  206.2020  140.5020 O   0  0  0  0  0  0  0  0  0  0  0  0
  161.5820  206.5350  142.3750 N   0  0  0  0  0  2  0  0  0  0  0  0
  162.3490  210.6310  148.0160 O   0  0  0  0  0  0  0  0  0  0  0  0
  160.5530  206.5350  146.7470 S   0  0  0  0  0  0  0  0  0  0  0  0
  162.1720  205.4570  143.1530 C   0  0  0  0  0  2  0  0  0  0  0  0
  160.4490  211.2020  145.9310 N   0  0  0  0  0  0  0  0  0  0  0  0
  162.3990  208.2000  147.8640 N   0  0  0  0  0  2  0  0  0  0  0  0
  160.4040  209.3860  148.1740 O   0  0  0  0  0  0  0  0  0  0  0  0
  161.8390  206.8550  148.0110 C   0  0  1  0  0  3  0  0  0  0  0  0
  160.1480  212.2930  142.5820 C   0  0  2  0  0  3  0  0  0  0  0  0
  161.1490  209.9660  138.3090 N   0  0  0  0  0  0  0  0  0  0  0  0
  161.7570  211.8900  147.8450 C   0  0  0  0  0  2  0  0  0  0  0  0
  162.0300  206.8710  141.0630 C   0  0  0  0  0  0  0  0  0  0  0  0
  159.7470  211.5720  144.8330 O   0  0  0  0  0  0  0  0  0  0  0  0
  161.7540  206.4820  145.3860 C   0  0  0  0  0  2  0  0  0  0  0  0
  160.6880  211.5640  143.8010 C   0  0  0  0  0  2  0  0  0  0  0  0
  161.6890  210.3940  139.6090 C   0  0  2  0  0  3  0  0  0  0  0  0
  160.9860  211.9900  141.4310 N   0  0  0  0  0  2  0  0  0  0  0  0
  160.8240  208.7340  138.0410 C   0  0  0  0  0  3  0  0  0  0  0  0
  161.0050  207.7010  139.0170 N   0  0  0  0  0  2  0  0  0  0  0  0
  160.8720  212.1760  146.8870 C   0  0  0  0  0  3  0  0  0  0  0  0
  162.3720  209.2320  140.3440 C   0  0  0  0  0  2  0  0  0  0  0  0
  160.6220  210.9980  140.4730 C   0  0  0  0  0  0  0  0  0  0  0  0
  159.4310  210.5850  140.4050 O   0  0  0  0  0  0  0  0  0  0  0  0
  161.3650  206.5980  149.4230 C   0  0  0  0  0  0  0  0  0  0  0  0
  162.8600  207.3190  151.3570 O   0  0  0  0  0  0  0  0  0  0  0  0
  162.1330  206.9670  150.4160 C   0  0  0  0  0  0  0  0  0  0  0  0
  160.3510  205.5180  149.6890 C   0  0  0  0  0  2  0  0  0  0  0  0
  161.2040  203.4480  148.5280 C   0  0  0  0  0  1  0  0  0  0  0  0
  160.0300  203.2310  150.7000 C   0  0  0  0  0  1  0  0  0  0  0  0
  162.1490  204.2370  150.5370 F   0  0  0  0  0  0  0  0  0  0  0  0
  160.9450  204.1130  149.8700 C   0  0  0  0  0  0  0  0  0  0  0  0
  160.0740  214.0990  142.8580 S   0  0  0  0  0  0  0  0  0  0  0  0
  157.8910  213.6850  141.2790 C   0  0  0  0  0  3  0  0  0  0  0  0
  158.9640  214.4450  141.4870 C   0  0  0  0  0  3  0  0  0  0  0  0
  156.9550  213.9710  140.1440 C   0  0  1  0  0  3  0  0  0  0  0  0
  156.9620  214.1830  137.5970 C   0  0  0  0  0  2  0  0  0  0  0  0
  157.7500  214.3750  138.8810 C   0  0  0  0  0  3  0  0  0  0  0  0
  158.0580  213.1980  137.9700 C   0  0  0  0  0  2  0  0  0  0  0  0
  155.9600  212.8180  139.9660 C   0  0  0  0  0  2  0  0  0  0  0  0
  154.5790  213.1840  140.4880 C   0  0  0  0  0  2  0  0  0  0  0  0
  154.1650  214.4020  139.9520 O   0  0  0  0  0  0  0  0  0  0  0  0
  153.7340  214.0820  138.6630 C   0  0  0  0  0  1  0  0  0  0  0  0
  1  6  1  0  0  0  0
  1 11  2  0  0  0  0
  2 25  1  6  0  0  0
  2 16  1  0  0  0  0
  3 18  1  0  0  0  0
  4 16  2  0  0  0  0
  5  8  1  0  0  0  0
  7 12  1  0  0  0  0
  8  3  1  0  0  0  0
  9 24  2  0  0  0  0
 10  1  1  0  0  0  0
 10 12  1  0  0  0  0
 12 28  1  1  0  0  0
 13 36  1  1  0  0  0
 13 19  1  0  0  0  0
 14 20  1  0  0  0  0
 15  6  1  0  0  0  0
 16  5  1  0  0  0  0
 17  9  1  0  0  0  0
 18  7  1  0  0  0  0
 19 17  1  0  0  0  0
 20 25  1  1  0  0  0
 20 26  1  0  0  0  0
 21 13  1  0  0  0  0
 22 14  2  0  0  0  0
 22 23  1  0  0  0  0
 23  2  1  0  0  0  0
 24 15  1  0  0  0  0
 26 21  1  0  0  0  0
 27 26  2  0  0  0  0
 28 31  1  0  0  0  0
 28 30  2  0  0  0  0
 30 29  2  0  0  0  0
 31 35  1  0  0  0  0
 32 35  1  0  0  0  0
 35 34  1  0  0  0  0
 35 33  1  0  0  0  0
 37 38  2  0  0  0  0
 38 36  1  0  0  0  0
 39 43  1  6  0  0  0
 39 37  1  0  0  0  0
 40 42  1  0  0  0  0
 40 41  1  0  0  0  0
 41 39  1  0  0  0  0
 42 41  1  0  0  0  0
 43 44  1  0  0  0  0
 45 44  1  0  0  0  0
 46 45  1  0  0  0  0
M  END
>  <MODEL>
5

>  <REMARK>
 VINA RESULT:       0.0      5.097     12.462
  Name = 
  10 active torsions:
  status: ('A' for Active; 'I' for Inactive)
    1  A    between atoms: C_4  and  C_32
    2  A    between atoms: O_11  and  C_26
    3  A    between atoms: C_13  and  C_32
    4  A    between atoms: C_14  and  S_16
    5  A    between atoms: S_16  and  C_23
    6  A    between atoms: C_19  and  C_20
    7  A    between atoms: C_19  and  C_25
    8  A    between atoms: C_25  and  C_38
    9  A    between atoms: C_26  and  C_36
   10  A    between atoms: C_32  and  C_36
                            x       y       z     vdW  Elec       q    Type
                         _______ _______ _______ _____ _____    ______ ____

>  <TORSDO>
F 10

$$$$
=
 OpenBabel11042420593D

 46 48  0  0  1  0  0  0  0  0999 V2000
  161.9900  208.3900  148.1880 C   0  0  0  0  0  0  0  0  0  0  0  0
  161.4890  209.1380  140.4820 C   0  0  2  0  0  3  0  0  0  0  0  0
  161.2000  205.4400  143.7110 C   0  0  0  0  0  2  0  0  0  0  0  0
  162.7620  207.1630  140.0510 O   0  0  0  0  0  0  0  0  0  0  0  0
  161.4820  207.1440  142.0050 N   0  0  0  0  0  2  0  0  0  0  0  0
  162.8310  209.4660  148.4840 O   0  0  0  0  0  0  0  0  0  0  0  0
  160.5140  206.1010  146.2650 S   0  0  0  0  0  0  0  0  0  0  0  0
  161.9400  205.8350  142.4450 C   0  0  0  0  0  2  0  0  0  0  0  0
  160.9940  210.7950  146.7110 N   0  0  0  0  0  0  0  0  0  0  0  0
  162.5700  207.1760  147.6960 N   0  0  0  0  0  2  0  0  0  0  0  0
  160.7460  208.4650  148.3970 O   0  0  0  0  0  0  0  0  0  0  0  0
  161.8450  205.9170  147.5090 C   0  0  1  0  0  3  0  0  0  0  0  0
  160.7940  212.7670  143.7830 C   0  0  2  0  0  3  0  0  0  0  0  0
  161.4400  211.5610  139.0080 N   0  0  0  0  0  0  0  0  0  0  0  0
  162.4020  210.7870  148.6770 C   0  0  0  0  0  2  0  0  0  0  0  0
  161.9530  207.7620  140.8090 C   0  0  0  0  0  0  0  0  0  0  0  0
  160.3320  211.5260  145.7820 O   0  0  0  0  0  0  0  0  0  0  0  0
  161.6820  206.2710  144.8850 C   0  0  0  0  0  2  0  0  0  0  0  0
  161.2520  211.6810  144.7420 C   0  0  0  0  0  2  0  0  0  0  0  0
  162.0450  211.5590  140.3490 C   0  0  2  0  0  3  0  0  0  0  0  0
  161.5730  212.6840  142.5570 N   0  0  0  0  0  2  0  0  0  0  0  0
  160.9580  210.4930  138.4410 C   0  0  0  0  0  3  0  0  0  0  0  0
  161.0170  209.2230  139.1020 N   0  0  0  0  0  2  0  0  0  0  0  0
  161.5490  211.4220  147.8690 C   0  0  0  0  0  3  0  0  0  0  0  0
  162.5830  210.1710  140.7220 C   0  0  0  0  0  2  0  0  0  0  0  0
  161.0740  212.0340  141.3880 C   0  0  0  0  0  0  0  0  0  0  0  0
  159.8390  211.7990  141.2690 O   0  0  0  0  0  0  0  0  0  0  0  0
  161.3600  205.3520  148.8240 C   0  0  0  0  0  0  0  0  0  0  0  0
  160.9050  202.8480  148.9780 O   0  0  0  0  0  0  0  0  0  0  0  0
  161.1260  204.0670  148.9030 C   0  0  0  0  0  0  0  0  0  0  0  0
  160.6730  206.2480  149.8190 C   0  0  0  0  0  2  0  0  0  0  0  0
  161.2710  205.0980  151.9810 C   0  0  0  0  0  1  0  0  0  0  0  0
  160.8470  207.5400  151.9760 C   0  0  0  0  0  1  0  0  0  0  0  0
  162.7330  206.6110  150.9220 F   0  0  0  0  0  0  0  0  0  0  0  0
  161.3940  206.3760  151.1690 C   0  0  0  0  0  0  0  0  0  0  0  0
  160.9540  214.4290  144.5280 S   0  0  0  0  0  0  0  0  0  0  0  0
  158.8620  214.4520  146.2770 C   0  0  0  0  0  3  0  0  0  0  0  0
  160.1030  214.0230  146.0590 C   0  0  0  0  0  3  0  0  0  0  0  0
  158.1430  214.1120  147.5460 C   0  0  1  0  0  3  0  0  0  0  0  0
  157.1070  212.2200  146.1750 C   0  0  0  0  0  2  0  0  0  0  0  0
  156.8770  213.2790  147.2390 C   0  0  0  0  0  3  0  0  0  0  0  0
  156.3520  213.4930  145.8290 C   0  0  0  0  0  2  0  0  0  0  0  0
  159.1130  213.5000  148.5650 C   0  0  0  0  0  2  0  0  0  0  0  0
  158.4990  213.4350  149.9540 C   0  0  0  0  0  2  0  0  0  0  0  0
  159.4720  213.6590  150.9260 O   0  0  0  0  0  0  0  0  0  0  0  0
  159.0460  212.9030  152.0200 C   0  0  0  0  0  1  0  0  0  0  0  0
  1 11  2  0  0  0  0
  1  6  1  0  0  0  0
  2 25  1  6  0  0  0
  2 16  1  0  0  0  0
  3 18  1  0  0  0  0
  4 16  2  0  0  0  0
  5  8  1  0  0  0  0
  6 15  1  0  0  0  0
  7 12  1  0  0  0  0
  8  3  1  0  0  0  0
  9 24  2  0  0  0  0
 10  1  1  0  0  0  0
 12 10  1  0  0  0  0
 12 28  1  1  0  0  0
 13 36  1  1  0  0  0
 13 19  1  0  0  0  0
 14 20  1  0  0  0  0
 16  5  1  0  0  0  0
 17  9  1  0  0  0  0
 18  7  1  0  0  0  0
 19 17  1  0  0  0  0
 20 25  1  1  0  0  0
 20 26  1  0  0  0  0
 21 13  1  0  0  0  0
 22 14  2  0  0  0  0
 22 23  1  0  0  0  0
 23  2  1  0  0  0  0
 24 15  1  0  0  0  0
 26 21  1  0  0  0  0
 27 26  2  0  0  0  0
 28 30  2  0  0  0  0
 28 31  1  0  0  0  0
 30 29  2  0  0  0  0
 31 35  1  0  0  0  0
 34 35  1  0  0  0  0
 35 33  1  0  0  0  0
 35 32  1  0  0  0  0
 36 38  1  0  0  0  0
 38 37  2  0  0  0  0
 39 37  1  6  0  0  0
 39 43  1  0  0  0  0
 40 41  1  0  0  0  0
 41 39  1  0  0  0  0
 42 40  1  0  0  0  0
 42 41  1  0  0  0  0
 43 44  1  0  0  0  0
 44 45  1  0  0  0  0
 45 46  1  0  0  0  0
M  END
>  <MODEL>
6

>  <REMARK>
 VINA RESULT:       0.0      4.083     11.293
  Name = 
  10 active torsions:
  status: ('A' for Active; 'I' for Inactive)
    1  A    between atoms: C_4  and  C_32
    2  A    between atoms: O_11  and  C_26
    3  A    between atoms: C_13  and  C_32
    4  A    between atoms: C_14  and  S_16
    5  A    between atoms: S_16  and  C_23
    6  A    between atoms: C_19  and  C_20
    7  A    between atoms: C_19  and  C_25
    8  A    between atoms: C_25  and  C_38
    9  A    between atoms: C_26  and  C_36
   10  A    between atoms: C_32  and  C_36
                            x       y       z     vdW  Elec       q    Type
                         _______ _______ _______ _____ _____    ______ ____

>  <TORSDO>
F 10

$$$$
=
 OpenBabel11042420593D

 46 48  0  0  1  0  0  0  0  0999 V2000
  160.7150  204.7760  147.2550 C   0  0  0  0  0  0  0  0  0  0  0  0
  161.2380  208.3190  154.1370 C   0  0  2  0  0  3  0  0  0  0  0  0
  161.0550  203.6680  152.5490 C   0  0  0  0  0  2  0  0  0  0  0  0
  159.7050  206.8250  155.1980 O   0  0  0  0  0  0  0  0  0  0  0  0
  160.9900  205.9110  153.4730 N   0  0  0  0  0  2  0  0  0  0  0  0
  160.0300  205.7540  146.5270 O   0  0  0  0  0  0  0  0  0  0  0  0
  161.8480  203.2240  149.9790 S   0  0  0  0  0  0  0  0  0  0  0  0
  160.3630  204.6000  153.5280 C   0  0  0  0  0  2  0  0  0  0  0  0
  162.0120  207.4210  147.7820 N   0  0  0  0  0  2  0  0  0  0  0  0
  159.9710  203.9190  148.1290 N   0  0  0  0  0  2  0  0  0  0  0  0
  161.9590  204.6140  147.1080 O   0  0  0  0  0  0  0  0  0  0  0  0
  160.5170  202.7460  148.8160 C   0  0  1  0  0  3  0  0  0  0  0  0
  162.4500  210.3140  149.7670 C   0  0  2  0  0  3  0  0  0  0  0  0
  161.6010  211.0940  154.5980 N   0  0  0  0  0  0  0  0  0  0  0  0
  160.6360  206.8410  145.8810 C   0  0  0  0  0  3  0  0  0  0  0  0
  160.5950  206.9880  154.3210 C   0  0  0  0  0  0  0  0  0  0  0  0
  162.7590  208.3620  148.4090 O   0  0  0  0  0  0  0  0  0  0  0  0
  160.7010  204.0440  151.1220 C   0  0  0  0  0  2  0  0  0  0  0  0
  161.8590  209.0100  149.2570 C   0  0  0  0  0  2  0  0  0  0  0  0
  161.0140  210.6580  153.3210 C   0  0  2  0  0  3  0  0  0  0  0  0
  161.6550  210.7970  150.8860 N   0  0  0  0  0  2  0  0  0  0  0  0
  161.9280  210.2700  155.5520 C   0  0  0  0  0  3  0  0  0  0  0  0
  161.7030  208.8620  155.4110 N   0  0  0  0  0  2  0  0  0  0  0  0
  161.5590  207.6250  146.4430 C   0  0  0  0  0  3  0  0  0  0  0  0
  160.2960  209.3090  153.4630 C   0  0  0  0  0  2  0  0  0  0  0  0
  162.0500  210.5820  152.2400 C   0  0  0  0  0  0  0  0  0  0  0  0
  163.2400  210.2610  152.5130 O   0  0  0  0  0  0  0  0  0  0  0  0
  160.9330  201.6700  147.8400 C   0  0  0  0  0  0  0  0  0  0  0  0
  162.1040  199.5940  148.7440 O   0  0  0  0  0  0  0  0  0  0  0  0
  161.5350  200.6050  148.3030 C   0  0  0  0  0  0  0  0  0  0  0  0
  161.1420  202.0130  146.3890 C   0  0  0  0  0  2  0  0  0  0  0  0
  160.2280  200.3200  144.7600 C   0  0  0  0  0  1  0  0  0  0  0  0
  159.7140  202.7230  144.4380 C   0  0  0  0  0  1  0  0  0  0  0  0
  158.8370  201.5050  146.2480 F   0  0  0  0  0  0  0  0  0  0  0  0
  159.9710  201.6390  145.4690 C   0  0  0  0  0  0  0  0  0  0  0  0
  162.5240  211.5770  148.4460 S   0  0  0  0  0  0  0  0  0  0  0  0
  160.2240  212.6180  147.4170 C   0  0  0  0  0  3  0  0  0  0  0  0
  160.7490  211.6570  148.1750 C   0  0  0  0  0  3  0  0  0  0  0  0
  158.7460  212.6880  147.1780 C   0  0  1  0  0  3  0  0  0  0  0  0
  158.3070  213.5660  149.5370 C   0  0  0  0  0  2  0  0  0  0  0  0
  158.1140  213.7980  148.0490 C   0  0  0  0  0  3  0  0  0  0  0  0
  156.9540  213.3010  148.8960 C   0  0  0  0  0  2  0  0  0  0  0  0
  158.4490  212.7670  145.6760 C   0  0  0  0  0  2  0  0  0  0  0  0
  159.5910  212.1980  144.8480 C   0  0  0  0  0  2  0  0  0  0  0  0
  159.4280  212.5270  143.5040 O   0  0  0  0  0  0  0  0  0  0  0  0
  160.1440  213.7170  143.3510 C   0  0  0  0  0  1  0  0  0  0  0  0
  1 10  1  0  0  0  0
  2 25  1  1  0  0  0
  2 16  1  0  0  0  0
  2 23  1  0  0  0  0
  3  8  1  0  0  0  0
  5  8  1  0  0  0  0
  5 16  1  0  0  0  0
  6  1  1  0  0  0  0
  7 18  1  0  0  0  0
  9 17  1  0  0  0  0
 10 12  1  0  0  0  0
 11  1  2  0  0  0  0
 12 28  1  6  0  0  0
 12  7  1  0  0  0  0
 13 36  1  6  0  0  0
 13 21  1  0  0  0  0
 14 22  2  0  0  0  0
 15 24  2  0  0  0  0
 15  6  1  0  0  0  0
 16  4  2  0  0  0  0
 17 19  1  0  0  0  0
 18  3  1  0  0  0  0
 19 13  1  0  0  0  0
 20 25  1  1  0  0  0
 20 14  1  0  0  0  0
 21 26  1  0  0  0  0
 23 22  1  0  0  0  0
 24  9  1  0  0  0  0
 26 27  2  0  0  0  0
 26 20  1  0  0  0  0
 28 30  2  0  0  0  0
 30 29  2  0  0  0  0
 31 28  1  0  0  0  0
 32 35  1  0  0  0  0
 33 35  1  0  0  0  0
 35 34  1  0  0  0  0
 35 31  1  0  0  0  0
 37 38  2  0  0  0  0
 38 36  1  0  0  0  0
 39 43  1  6  0  0  0
 39 37  1  0  0  0  0
 39 41  1  0  0  0  0
 41 42  1  0  0  0  0
 41 40  1  0  0  0  0
 42 40  1  0  0  0  0
 44 43  1  0  0  0  0
 45 44  1  0  0  0  0
 46 45  1  0  0  0  0
M  END
>  <MODEL>
7

>  <REMARK>
 VINA RESULT:       0.2      3.039      8.674
  Name = 
  10 active torsions:
  status: ('A' for Active; 'I' for Inactive)
    1  A    between atoms: C_4  and  C_32
    2  A    between atoms: O_11  and  C_26
    3  A    between atoms: C_13  and  C_32
    4  A    between atoms: C_14  and  S_16
    5  A    between atoms: S_16  and  C_23
    6  A    between atoms: C_19  and  C_20
    7  A    between atoms: C_19  and  C_25
    8  A    between atoms: C_25  and  C_38
    9  A    between atoms: C_26  and  C_36
   10  A    between atoms: C_32  and  C_36
                            x       y       z     vdW  Elec       q    Type
                         _______ _______ _______ _____ _____    ______ ____

>  <TORSDO>
F 10

$$$$
=
 OpenBabel11042420593D

 46 48  0  0  1  0  0  0  0  0999 V2000
  161.8920  208.4530  148.2010 C   0  0  0  0  0  0  0  0  0  0  0  0
  161.3700  209.0830  140.4860 C   0  0  2  0  0  3  0  0  0  0  0  0
  161.2290  205.4170  143.7610 C   0  0  0  0  0  2  0  0  0  0  0  0
  162.7240  207.1570  140.0800 O   0  0  0  0  0  0  0  0  0  0  0  0
  161.4420  207.1100  142.0340 N   0  0  0  0  0  2  0  0  0  0  0  0
  162.6890  209.5660  148.4840 O   0  0  0  0  0  0  0  0  0  0  0  0
  160.5140  206.0820  146.3060 S   0  0  0  0  0  0  0  0  0  0  0  0
  161.9540  205.8270  142.4910 C   0  0  0  0  0  2  0  0  0  0  0  0
  160.8010  210.7960  146.6940 N   0  0  0  0  0  0  0  0  0  0  0  0
  162.5220  207.2580  147.7240 N   0  0  0  0  0  2  0  0  0  0  0  0
  160.6470  208.4800  148.4080 O   0  0  0  0  0  0  0  0  0  0  0  0
  161.8500  205.9680  147.5530 C   0  0  1  0  0  3  0  0  0  0  0  0
  160.5230  212.7210  143.7410 C   0  0  2  0  0  3  0  0  0  0  0  0
  161.2230  211.4830  138.9820 N   0  0  0  0  0  0  0  0  0  0  0  0
  162.2060  210.8710  148.6600 C   0  0  0  0  0  2  0  0  0  0  0  0
  161.8900  207.7310  140.8310 C   0  0  0  0  0  0  0  0  0  0  0  0
  160.1100  211.4880  145.7550 O   0  0  0  0  0  0  0  0  0  0  0  0
  161.6760  206.2820  144.9250 C   0  0  0  0  0  2  0  0  0  0  0  0
  161.0240  211.6670  144.7140 C   0  0  0  0  0  2  0  0  0  0  0  0
  161.8260  211.5240  140.3230 C   0  0  2  0  0  3  0  0  0  0  0  0
  161.3070  212.6550  142.5160 N   0  0  0  0  0  2  0  0  0  0  0  0
  160.7860  210.3890  138.4270 C   0  0  0  0  0  3  0  0  0  0  0  0
  160.8970  209.1310  139.1040 N   0  0  0  0  0  2  0  0  0  0  0  0
  161.3280  211.4600  147.8430 C   0  0  0  0  0  3  0  0  0  0  0  0
  162.4210  210.1630  140.7130 C   0  0  0  0  0  2  0  0  0  0  0  0
  160.8360  211.9710  141.3560 C   0  0  0  0  0  0  0  0  0  0  0  0
  159.6120  211.6840  141.2390 O   0  0  0  0  0  0  0  0  0  0  0  0
  161.3870  205.3990  148.8750 C   0  0  0  0  0  0  0  0  0  0  0  0
  160.9050  202.9010  149.0230 O   0  0  0  0  0  0  0  0  0  0  0  0
  161.1390  204.1170  148.9510 C   0  0  0  0  0  0  0  0  0  0  0  0
  160.7330  206.2970  149.8900 C   0  0  0  0  0  2  0  0  0  0  0  0
  160.7820  205.6020  152.3130 C   0  0  0  0  0  1  0  0  0  0  0  0
  161.6120  207.8480  151.6720 C   0  0  0  0  0  1  0  0  0  0  0  0
  162.7510  205.8870  151.0510 F   0  0  0  0  0  0  0  0  0  0  0  0
  161.4810  206.4020  151.2270 C   0  0  0  0  0  0  0  0  0  0  0  0
  160.6140  214.3990  144.4650 S   0  0  0  0  0  0  0  0  0  0  0  0
  158.1660  213.7400  145.4670 C   0  0  0  0  0  3  0  0  0  0  0  0
  159.4130  214.0970  145.7680 C   0  0  0  0  0  3  0  0  0  0  0  0
  157.1600  213.4780  146.5470 C   0  0  1  0  0  3  0  0  0  0  0  0
  157.1570  213.0000  149.0580 C   0  0  0  0  0  2  0  0  0  0  0  0
  157.7560  213.8240  147.9310 C   0  0  0  0  0  3  0  0  0  0  0  0
  156.7440  214.4510  148.8750 C   0  0  0  0  0  2  0  0  0  0  0  0
  155.8240  214.1510  146.2080 C   0  0  0  0  0  2  0  0  0  0  0  0
  155.5400  214.1130  144.7150 C   0  0  0  0  0  2  0  0  0  0  0  0
  154.2120  214.4530  144.4640 O   0  0  0  0  0  0  0  0  0  0  0  0
  154.1040  214.4170  143.0730 C   0  0  0  0  0  1  0  0  0  0  0  0
  1 11  2  0  0  0  0
  1  6  1  0  0  0  0
  2 25  1  6  0  0  0
  2 16  1  0  0  0  0
  3 18  1  0  0  0  0
  4 16  2  0  0  0  0
  5  8  1  0  0  0  0
  6 15  1  0  0  0  0
  7 12  1  0  0  0  0
  8  3  1  0  0  0  0
  9 24  2  0  0  0  0
 10  1  1  0  0  0  0
 12 10  1  0  0  0  0
 12 28  1  1  0  0  0
 13 36  1  1  0  0  0
 13 19  1  0  0  0  0
 14 20  1  0  0  0  0
 16  5  1  0  0  0  0
 17  9  1  0  0  0  0
 18  7  1  0  0  0  0
 19 17  1  0  0  0  0
 20 25  1  1  0  0  0
 20 26  1  0  0  0  0
 21 13  1  0  0  0  0
 22 14  2  0  0  0  0
 22 23  1  0  0  0  0
 23  2  1  0  0  0  0
 24 15  1  0  0  0  0
 26 21  1  0  0  0  0
 27 26  2  0  0  0  0
 28 30  2  0  0  0  0
 28 31  1  0  0  0  0
 30 29  2  0  0  0  0
 31 35  1  0  0  0  0
 34 35  1  0  0  0  0
 35 33  1  0  0  0  0
 35 32  1  0  0  0  0
 36 38  1  0  0  0  0
 37 38  2  0  0  0  0
 39 37  1  6  0  0  0
 39 41  1  0  0  0  0
 41 42  1  0  0  0  0
 41 40  1  0  0  0  0
 42 40  1  0  0  0  0
 43 39  1  0  0  0  0
 44 43  1  0  0  0  0
 45 44  1  0  0  0  0
 46 45  1  0  0  0  0
M  END
>  <MODEL>
8

>  <REMARK>
 VINA RESULT:       0.3      4.398     11.611
  Name = 
  10 active torsions:
  status: ('A' for Active; 'I' for Inactive)
    1  A    between atoms: C_4  and  C_32
    2  A    between atoms: O_11  and  C_26
    3  A    between atoms: C_13  and  C_32
    4  A    between atoms: C_14  and  S_16
    5  A    between atoms: S_16  and  C_23
    6  A    between atoms: C_19  and  C_20
    7  A    between atoms: C_19  and  C_25
    8  A    between atoms: C_25  and  C_38
    9  A    between atoms: C_26  and  C_36
   10  A    between atoms: C_32  and  C_36
                            x       y       z     vdW  Elec       q    Type
                         _______ _______ _______ _____ _____    ______ ____

>  <TORSDO>
F 10

$$$$
=
 OpenBabel11042420593D

 46 48  0  0  1  0  0  0  0  0999 V2000
  161.7060  209.3440  148.2090 C   0  0  0  0  0  0  0  0  0  0  0  0
  161.4600  207.9350  140.5840 C   0  0  2  0  0  3  0  0  0  0  0  0
  161.1720  205.2520  144.6960 C   0  0  0  0  0  2  0  0  0  0  0  0
  162.8110  205.9700  140.7450 O   0  0  0  0  0  0  0  0  0  0  0  0
  161.4610  206.4350  142.5960 N   0  0  0  0  0  2  0  0  0  0  0  0
  162.5020  210.4930  148.2200 O   0  0  0  0  0  0  0  0  0  0  0  0
  160.3740  206.5590  146.9510 S   0  0  0  0  0  0  0  0  0  0  0  0
  161.9440  205.3160  143.3900 C   0  0  0  0  0  2  0  0  0  0  0  0
  160.6900  211.2110  146.1030 N   0  0  0  0  0  0  0  0  0  0  0  0
  162.3410  208.0660  148.0850 N   0  0  0  0  0  2  0  0  0  0  0  0
  160.4540  209.4240  148.3570 O   0  0  0  0  0  0  0  0  0  0  0  0
  161.6640  206.7760  148.2320 C   0  0  1  0  0  3  0  0  0  0  0  0
  160.5330  212.2970  142.7420 C   0  0  2  0  0  3  0  0  0  0  0  0
  161.3880  209.8580  138.5010 N   0  0  0  0  0  0  0  0  0  0  0  0
  162.0250  211.7980  148.0310 C   0  0  0  0  0  2  0  0  0  0  0  0
  161.9560  206.7200  141.2890 C   0  0  0  0  0  0  0  0  0  0  0  0
  160.0380  211.6330  144.9920 O   0  0  0  0  0  0  0  0  0  0  0  0
  161.5850  206.3920  145.6090 C   0  0  0  0  0  2  0  0  0  0  0  0
  160.9900  211.5340  143.9750 C   0  0  0  0  0  2  0  0  0  0  0  0
  161.9450  210.2480  139.8060 C   0  0  2  0  0  3  0  0  0  0  0  0
  161.3580  211.9140  141.6070 N   0  0  0  0  0  2  0  0  0  0  0  0
  160.9610  208.6570  138.2360 C   0  0  0  0  0  3  0  0  0  0  0  0
  161.0370  207.6200  139.2220 N   0  0  0  0  0  2  0  0  0  0  0  0
  161.1820  212.1520  147.0580 C   0  0  0  0  0  3  0  0  0  0  0  0
  162.5130  209.0370  140.5590 C   0  0  0  0  0  2  0  0  0  0  0  0
  160.9220  210.9490  140.6490 C   0  0  0  0  0  0  0  0  0  0  0  0
  159.7010  210.6410  140.5670 O   0  0  0  0  0  0  0  0  0  0  0  0
  161.1500  206.5720  149.6390 C   0  0  0  0  0  0  0  0  0  0  0  0
  162.3350  207.7680  151.5530 O   0  0  0  0  0  0  0  0  0  0  0  0
  161.7580  207.1850  150.6220 C   0  0  0  0  0  0  0  0  0  0  0  0
  160.3470  205.3440  149.9740 C   0  0  0  0  0  2  0  0  0  0  0  0
  160.7020  203.0620  148.9630 C   0  0  0  0  0  1  0  0  0  0  0  0
  161.0580  203.3870  151.3940 C   0  0  0  0  0  1  0  0  0  0  0  0
  162.4870  204.3550  149.7960 F   0  0  0  0  0  0  0  0  0  0  0  0
  161.1610  204.0430  150.0280 C   0  0  0  0  0  0  0  0  0  0  0  0
  160.6130  214.1050  143.0050 S   0  0  0  0  0  0  0  0  0  0  0  0
  161.3500  214.1240  140.3810 C   0  0  0  0  0  3  0  0  0  0  0  0
  161.7120  214.4390  141.6220 C   0  0  0  0  0  3  0  0  0  0  0  0
  162.2560  214.4060  139.2200 C   0  0  1  0  0  3  0  0  0  0  0  0
  164.6940  214.2560  138.4660 C   0  0  0  0  0  2  0  0  0  0  0  0
  163.7350  214.2510  139.6440 C   0  0  0  0  0  3  0  0  0  0  0  0
  164.3580  212.9500  139.1670 C   0  0  0  0  0  2  0  0  0  0  0  0
  161.8250  213.5930  137.9940 C   0  0  0  0  0  2  0  0  0  0  0  0
  160.3630  213.8330  137.6480 C   0  0  0  0  0  2  0  0  0  0  0  0
  159.5690  212.8090  138.1610 O   0  0  0  0  0  0  0  0  0  0  0  0
  158.3230  213.4060  138.3620 C   0  0  0  0  0  1  0  0  0  0  0  0
  1  6  1  0  0  0  0
  1 11  2  0  0  0  0
  2 25  1  6  0  0  0
  2 16  1  0  0  0  0
  3 18  1  0  0  0  0
  4 16  2  0  0  0  0
  5  8  1  0  0  0  0
  7 12  1  0  0  0  0
  8  3  1  0  0  0  0
  9 24  2  0  0  0  0
 10  1  1  0  0  0  0
 10 12  1  0  0  0  0
 12 28  1  1  0  0  0
 13 36  1  1  0  0  0
 13 19  1  0  0  0  0
 14 20  1  0  0  0  0
 15  6  1  0  0  0  0
 16  5  1  0  0  0  0
 17  9  1  0  0  0  0
 18  7  1  0  0  0  0
 19 17  1  0  0  0  0
 20 25  1  1  0  0  0
 20 26  1  0  0  0  0
 21 13  1  0  0  0  0
 22 14  2  0  0  0  0
 22 23  1  0  0  0  0
 23  2  1  0  0  0  0
 24 15  1  0  0  0  0
 26 21  1  0  0  0  0
 27 26  2  0  0  0  0
 28 31  1  0  0  0  0
 28 30  2  0  0  0  0
 30 29  2  0  0  0  0
 31 35  1  0  0  0  0
 32 35  1  0  0  0  0
 34 35  1  0  0  0  0
 35 33  1  0  0  0  0
 37 38  2  0  0  0  0
 38 36  1  0  0  0  0
 39 43  1  6  0  0  0
 39 41  1  0  0  0  0
 39 37  1  0  0  0  0
 40 42  1  0  0  0  0
 40 41  1  0  0  0  0
 42 41  1  0  0  0  0
 44 43  1  0  0  0  0
 44 45  1  0  0  0  0
 45 46  1  0  0  0  0
M  END
>  <MODEL>
9

>  <REMARK>
 VINA RESULT:       0.4      4.717     12.338
  Name = 
  10 active torsions:
  status: ('A' for Active; 'I' for Inactive)
    1  A    between atoms: C_4  and  C_32
    2  A    between atoms: O_11  and  C_26
    3  A    between atoms: C_13  and  C_32
    4  A    between atoms: C_14  and  S_16
    5  A    between atoms: S_16  and  C_23
    6  A    between atoms: C_19  and  C_20
    7  A    between atoms: C_19  and  C_25
    8  A    between atoms: C_25  and  C_38
    9  A    between atoms: C_26  and  C_36
   10  A    between atoms: C_32  and  C_36
                            x       y       z     vdW  Elec       q    Type
                         _______ _______ _______ _____ _____    ______ ____

>  <TORSDO>
F 10

$$$$
