=
 OpenBabel11052409283D

 35 39  0  0  1  0  0  0  0  0999 V2000
  161.4830  209.0780  152.7210 N   0  0  0  0  0  0  0  0  0  0  0  0
  159.7330  210.4950  153.6780 C   0  0  0  0  0  2  0  0  0  0  0  0
  157.7980  213.2840  153.4550 C   0  0  0  0  0  0  0  0  0  0  0  0
  158.9090  213.5350  154.3230 N   0  0  0  0  0  2  0  0  0  0  0  0
  160.4280  212.9000  156.0360 N   0  0  0  0  0  0  0  0  0  0  0  0
  159.3820  211.0760  155.0100 C   0  0  2  0  0  3  0  0  0  0  0  0
  159.5790  212.5530  155.1220 C   0  0  0  0  0  0  0  0  0  0  0  0
  160.9840  211.7320  156.7080 C   0  0  0  0  0  2  0  0  0  0  0  0
  160.8350  209.7670  153.8040 C   0  0  0  0  0  0  0  0  0  0  0  0
  160.5220  210.6220  155.8410 C   0  0  2  0  0  3  0  0  0  0  0  0
  161.3860  209.8990  155.1470 C   0  0  0  0  0  3  0  0  0  0  0  0
  157.1700  212.1920  153.5070 O   0  0  0  0  0  0  0  0  0  0  0  0
  155.7290  214.4530  150.6620 C   0  0  0  0  0  2  0  0  0  0  0  0
  157.3360  214.3580  152.5250 C   0  0  1  0  0  3  0  0  0  0  0  0
  156.9760  213.7600  151.1750 C   0  0  1  0  0  3  0  0  0  0  0  0
  155.8830  214.1370  152.1360 C   0  0  2  0  0  3  0  0  0  0  0  0
  162.3480  209.7970  151.7850 C   0  0  0  0  0  2  0  0  0  0  0  0
  161.5400  210.2920  150.5980 C   0  0  0  0  0  2  0  0  0  0  0  0
  162.2300  211.3240  149.9620 O   0  0  0  0  0  0  0  0  0  0  0  0
  162.2160  210.9800  148.6110 C   0  0  0  0  0  3  0  0  0  0  0  0
  161.2610  211.7470  147.9460 O   0  0  0  0  0  1  0  0  0  0  0  0
  161.8990  209.6290  148.4760 O   0  0  0  0  0  1  0  0  0  0  0  0
  161.1760  207.6670  152.4900 C   0  0  2  0  0  3  0  0  0  0  0  0
  162.1200  206.1240  154.2080 O   0  0  0  0  0  0  0  0  0  0  0  0
  160.0110  206.9780  154.4730 O   0  0  0  0  0  1  0  0  0  0  0  0
  161.0630  206.9170  153.7820 C   0  0  0  0  0  0  0  0  0  0  0  0
  162.1810  207.0330  151.5300 C   0  0  0  0  0  2  0  0  0  0  0  0
  161.4470  204.7790  151.0160 C   0  0  0  0  0  3  0  0  0  0  0  0
  161.2280  204.5090  147.9690 C   0  0  0  0  0  0  0  0  0  0  0  0
  161.6600  204.1640  146.5900 C   0  0  0  0  0  1  0  0  0  0  0  0
  160.9010  206.5620  149.3790 C   0  0  0  0  0  3  0  0  0  0  0  0
  161.2240  203.5420  148.8870 C   0  0  0  0  0  3  0  0  0  0  0  0
  160.6990  203.7240  150.2720 C   0  0  0  0  0  2  0  0  0  0  0  0
  161.5130  206.0530  150.6260 C   0  0  0  0  0  0  0  0  0  0  0  0
  160.7780  205.8910  148.2260 C   0  0  0  0  0  3  0  0  0  0  0  0
  1  9  1  0  0  0  0
  2  9  1  0  0  0  0
  3 12  2  0  0  0  0
  3  4  1  0  0  0  0
  4  7  1  0  0  0  0
  5  8  1  0  0  0  0
  6  2  1  6  0  0  0
  6  7  1  0  0  0  0
  6 10  1  0  0  0  0
  7  5  2  0  0  0  0
  9 11  2  0  0  0  0
 10 11  1  6  0  0  0
 10  8  1  0  0  0  0
 14  3  1  1  0  0  0
 15 13  1  6  0  0  0
 15 16  1  0  0  0  0
 15 14  1  0  0  0  0
 16 13  1  6  0  0  0
 16 14  1  0  0  0  0
 17  1  1  0  0  0  0
 18 17  1  0  0  0  0
 19 18  1  0  0  0  0
 20 19  1  0  0  0  0
 21 20  1  0  0  0  0
 22 20  1  0  0  0  0
 23 27  1  6  0  0  0
 23  1  1  0  0  0  0
 23 26  1  0  0  0  0
 26 24  2  0  0  0  0
 26 25  1  0  0  0  0
 29 35  1  0  0  0  0
 29 32  2  0  0  0  0
 30 29  1  0  0  0  0
 31 34  1  0  0  0  0
 32 33  1  0  0  0  0
 33 28  1  0  0  0  0
 34 28  2  0  0  0  0
 34 27  1  0  0  0  0
 35 31  2  0  0  0  0
M  END
>  <MODEL>
1

>  <REMARK>
 VINA RESULT:      -7.2      0.000      0.000
  Name = 
  10 active torsions:
  status: ('A' for Active; 'I' for Inactive)
    1  A    between atoms: C_2  and  O_19
    2  A    between atoms: C_7  and  C_17
    3  A    between atoms: C_7  and  N_29
    4  A    between atoms: C_8  and  C_15
    5  A    between atoms: C_11  and  C_18
    6  A    between atoms: C_11  and  C_22
    7  A    between atoms: C_11  and  N_29
    8  A    between atoms: C_17  and  O_19
    9  A    between atoms: C_18  and  C_33
   10  A    between atoms: C_26  and  N_29
                            x       y       z     vdW  Elec       q    Type
                         _______ _______ _______ _____ _____    ______ ____

>  <TORSDO>
F 10

$$$$
=
 OpenBabel11052409283D

 35 39  0  0  1  0  0  0  0  0999 V2000
  161.0930  212.3200  149.8340 N   0  0  0  0  0  0  0  0  0  0  0  0
  161.8720  210.0070  149.6640 C   0  0  0  0  0  2  0  0  0  0  0  0
  161.5950  206.9400  148.2180 C   0  0  0  0  0  0  0  0  0  0  0  0
  160.9100  206.9440  149.4760 N   0  0  0  0  0  2  0  0  0  0  0  0
  160.7210  207.5420  151.7680 N   0  0  0  0  0  0  0  0  0  0  0  0
  162.2290  208.8870  150.5870 C   0  0  2  0  0  3  0  0  0  0  0  0
  161.2530  207.7550  150.6060 C   0  0  0  0  0  0  0  0  0  0  0  0
  161.2160  208.4940  152.7550 C   0  0  0  0  0  2  0  0  0  0  0  0
  161.5250  211.0640  150.3860 C   0  0  0  0  0  0  0  0  0  0  0  0
  161.9240  209.4830  151.9090 C   0  0  2  0  0  3  0  0  0  0  0  0
  161.4800  210.7260  151.8030 C   0  0  0  0  0  3  0  0  0  0  0  0
  162.7170  207.4990  148.0900 O   0  0  0  0  0  0  0  0  0  0  0  0
  161.7940  204.4160  145.5660 C   0  0  0  0  0  2  0  0  0  0  0  0
  161.0010  206.2020  147.0620 C   0  0  1  0  0  3  0  0  0  0  0  0
  162.0910  205.8120  146.0780 C   0  0  1  0  0  3  0  0  0  0  0  0
  161.5290  204.7780  147.0130 C   0  0  2  0  0  3  0  0  0  0  0  0
  160.3760  213.2950  150.6560 C   0  0  0  0  0  2  0  0  0  0  0  0
  159.1350  212.6610  151.2610 C   0  0  0  0  0  2  0  0  0  0  0  0
  158.6330  213.4870  152.2670 O   0  0  0  0  0  0  0  0  0  0  0  0
  158.5210  212.6580  153.3830 C   0  0  0  0  0  3  0  0  0  0  0  0
  159.7020  212.7120  154.1220 O   0  0  0  0  0  1  0  0  0  0  0  0
  158.2940  211.3460  152.9690 O   0  0  0  0  0  1  0  0  0  0  0  0
  161.2720  212.5670  148.4040 C   0  0  2  0  0  3  0  0  0  0  0  0
  162.9100  214.4430  148.2610 O   0  0  0  0  0  1  0  0  0  0  0  0
  163.5560  212.3160  147.7050 O   0  0  0  0  0  0  0  0  0  0  0  0
  162.6460  213.0880  148.1110 C   0  0  0  0  0  0  0  0  0  0  0  0
  160.1710  213.4740  147.8580 C   0  0  0  0  0  2  0  0  0  0  0  0
  159.2750  212.4520  145.8490 C   0  0  0  0  0  3  0  0  0  0  0  0
  161.2800  212.8910  143.5690 C   0  0  0  0  0  0  0  0  0  0  0  0
  162.4020  212.5670  142.6510 C   0  0  0  0  0  1  0  0  0  0  0  0
  160.8440  214.3530  145.5640 C   0  0  0  0  0  3  0  0  0  0  0  0
  160.2370  212.0600  143.6050 C   0  0  0  0  0  3  0  0  0  0  0  0
  158.9950  212.3310  144.3870 C   0  0  0  0  0  2  0  0  0  0  0  0
  160.0830  213.3760  146.3720 C   0  0  0  0  0  0  0  0  0  0  0  0
  161.3630  214.1420  144.3480 C   0  0  0  0  0  3  0  0  0  0  0  0
  1  9  1  0  0  0  0
  1 17  1  0  0  0  0
  2  9  1  0  0  0  0
  3  4  1  0  0  0  0
  4  7  1  0  0  0  0
  5  8  1  0  0  0  0
  6  2  1  6  0  0  0
  6  7  1  0  0  0  0
  6 10  1  0  0  0  0
  7  5  2  0  0  0  0
  9 11  2  0  0  0  0
 10 11  1  6  0  0  0
 10  8  1  0  0  0  0
 12  3  2  0  0  0  0
 14  3  1  1  0  0  0
 15 13  1  6  0  0  0
 15 16  1  0  0  0  0
 15 14  1  0  0  0  0
 16 13  1  6  0  0  0
 16 14  1  0  0  0  0
 17 18  1  0  0  0  0
 18 19  1  0  0  0  0
 19 20  1  0  0  0  0
 20 21  1  0  0  0  0
 22 20  1  0  0  0  0
 23 27  1  1  0  0  0
 23  1  1  0  0  0  0
 25 26  2  0  0  0  0
 26 24  1  0  0  0  0
 26 23  1  0  0  0  0
 28 34  2  0  0  0  0
 29 32  2  0  0  0  0
 29 35  1  0  0  0  0
 30 29  1  0  0  0  0
 31 34  1  0  0  0  0
 32 33  1  0  0  0  0
 33 28  1  0  0  0  0
 34 27  1  0  0  0  0
 35 31  2  0  0  0  0
M  END
>  <MODEL>
2

>  <REMARK>
 VINA RESULT:      -6.8      3.121      8.020
  Name = 
  10 active torsions:
  status: ('A' for Active; 'I' for Inactive)
    1  A    between atoms: C_2  and  O_19
    2  A    between atoms: C_7  and  C_17
    3  A    between atoms: C_7  and  N_29
    4  A    between atoms: C_8  and  C_15
    5  A    between atoms: C_11  and  C_18
    6  A    between atoms: C_11  and  C_22
    7  A    between atoms: C_11  and  N_29
    8  A    between atoms: C_17  and  O_19
    9  A    between atoms: C_18  and  C_33
   10  A    between atoms: C_26  and  N_29
                            x       y       z     vdW  Elec       q    Type
                         _______ _______ _______ _____ _____    ______ ____

>  <TORSDO>
F 10

$$$$
=
 OpenBabel11052409283D

 35 39  0  0  1  0  0  0  0  0999 V2000
  160.3450  209.9520  153.6000 N   0  0  0  0  0  0  0  0  0  0  0  0
  161.4490  208.3320  152.1370 C   0  0  0  0  0  2  0  0  0  0  0  0
  161.6120  206.7740  149.1160 C   0  0  0  0  0  0  0  0  0  0  0  0
  160.9400  205.9320  150.0590 N   0  0  0  0  0  2  0  0  0  0  0  0
  160.6760  204.9830  152.2210 N   0  0  0  0  0  0  0  0  0  0  0  0
  161.9680  206.9330  152.2240 C   0  0  2  0  0  3  0  0  0  0  0  0
  161.1660  205.9190  151.4740 C   0  0  0  0  0  0  0  0  0  0  0  0
  161.0320  205.1860  153.6200 C   0  0  0  0  0  2  0  0  0  0  0  0
  160.9560  208.6810  153.3180 C   0  0  0  0  0  0  0  0  0  0  0  0
  161.5860  206.5600  153.6060 C   0  0  2  0  0  3  0  0  0  0  0  0
  160.9670  207.5480  154.2340 C   0  0  0  0  0  3  0  0  0  0  0  0
  162.6420  207.4220  149.4480 O   0  0  0  0  0  0  0  0  0  0  0  0
  161.5600  205.5000  145.6790 C   0  0  0  0  0  2  0  0  0  0  0  0
  161.1270  206.8300  147.7050 C   0  0  1  0  0  3  0  0  0  0  0  0
  162.2120  206.3390  146.7610 C   0  0  1  0  0  3  0  0  0  0  0  0
  161.0640  205.4330  147.1090 C   0  0  2  0  0  3  0  0  0  0  0  0
  159.5380  210.6380  152.5900 C   0  0  0  0  0  2  0  0  0  0  0  0
  160.3150  211.8030  152.0020 C   0  0  0  0  0  2  0  0  0  0  0  0
  159.6550  212.9970  152.2940 O   0  0  0  0  0  0  0  0  0  0  0  0
  159.4440  213.5980  151.0520 C   0  0  0  0  0  3  0  0  0  0  0  0
  158.1860  213.2380  150.5710 O   0  0  0  0  0  1  0  0  0  0  0  0
  160.4220  213.1710  150.1550 O   0  0  0  0  0  1  0  0  0  0  0  0
  160.6350  210.6130  154.8720 C   0  0  2  0  0  3  0  0  0  0  0  0
  162.2100  209.5980  156.5190 O   0  0  0  0  0  1  0  0  0  0  0  0
  163.0270  210.7070  154.6880 O   0  0  0  0  0  0  0  0  0  0  0  0
  162.0250  210.3070  155.3400 C   0  0  0  0  0  0  0  0  0  0  0  0
  159.5760  210.2790  155.9220 C   0  0  0  0  0  2  0  0  0  0  0  0
  157.1930  210.7010  155.7510 C   0  0  0  0  0  3  0  0  0  0  0  0
  156.7930  213.4640  154.4810 C   0  0  0  0  0  0  0  0  0  0  0  0
  156.5550  214.4520  153.3970 C   0  0  0  0  0  1  0  0  0  0  0  0
  158.6960  212.6690  155.9160 C   0  0  0  0  0  3  0  0  0  0  0  0
  155.8910  212.4990  154.6620 C   0  0  0  0  0  3  0  0  0  0  0  0
  155.9460  211.5210  155.7880 C   0  0  0  0  0  2  0  0  0  0  0  0
  158.4200  211.2180  155.8350 C   0  0  0  0  0  0  0  0  0  0  0  0
  157.9890  213.6430  155.3280 C   0  0  0  0  0  3  0  0  0  0  0  0
  1 23  1  0  0  0  0
  2  9  1  0  0  0  0
  3 12  2  0  0  0  0
  3  4  1  0  0  0  0
  4  7  1  0  0  0  0
  5  8  1  0  0  0  0
  6  2  1  6  0  0  0
  6 10  1  0  0  0  0
  7  5  2  0  0  0  0
  7  6  1  0  0  0  0
  9  1  1  0  0  0  0
  9 11  2  0  0  0  0
 10  8  1  6  0  0  0
 10 11  1  0  0  0  0
 14  3  1  1  0  0  0
 15 13  1  6  0  0  0
 15 16  1  0  0  0  0
 15 14  1  0  0  0  0
 16 13  1  6  0  0  0
 16 14  1  0  0  0  0
 17  1  1  0  0  0  0
 18 19  1  0  0  0  0
 18 17  1  0  0  0  0
 20 19  1  0  0  0  0
 21 20  1  0  0  0  0
 22 20  1  0  0  0  0
 23 26  1  0  0  0  0
 23 27  1  1  0  0  0
 25 26  2  0  0  0  0
 26 24  1  0  0  0  0
 28 33  1  0  0  0  0
 28 34  2  0  0  0  0
 29 32  2  0  0  0  0
 29 35  1  0  0  0  0
 30 29  1  0  0  0  0
 32 33  1  0  0  0  0
 34 31  1  0  0  0  0
 34 27  1  0  0  0  0
 35 31  2  0  0  0  0
M  END
>  <MODEL>
3

>  <REMARK>
 VINA RESULT:      -6.8      2.230      7.680
  Name = 
  10 active torsions:
  status: ('A' for Active; 'I' for Inactive)
    1  A    between atoms: C_2  and  O_19
    2  A    between atoms: C_7  and  C_17
    3  A    between atoms: C_7  and  N_29
    4  A    between atoms: C_8  and  C_15
    5  A    between atoms: C_11  and  C_18
    6  A    between atoms: C_11  and  C_22
    7  A    between atoms: C_11  and  N_29
    8  A    between atoms: C_17  and  O_19
    9  A    between atoms: C_18  and  C_33
   10  A    between atoms: C_26  and  N_29
                            x       y       z     vdW  Elec       q    Type
                         _______ _______ _______ _____ _____    ______ ____

>  <TORSDO>
F 10

$$$$
=
 OpenBabel11052409283D

 35 39  0  0  1  0  0  0  0  0999 V2000
  161.1930  210.2750  151.7570 N   0  0  0  0  0  0  0  0  0  0  0  0
  161.8810  208.2670  150.5410 C   0  0  0  0  0  2  0  0  0  0  0  0
  161.4940  206.2120  147.8580 C   0  0  0  0  0  0  0  0  0  0  0  0
  160.8000  205.6680  148.9870 N   0  0  0  0  0  2  0  0  0  0  0  0
  160.6160  205.1610  151.3000 N   0  0  0  0  0  0  0  0  0  0  0  0
  162.1860  206.8360  150.8480 C   0  0  2  0  0  3  0  0  0  0  0  0
  161.1650  205.8590  150.3590 C   0  0  0  0  0  0  0  0  0  0  0  0
  161.1400  205.5370  152.6080 C   0  0  0  0  0  2  0  0  0  0  0  0
  161.5700  208.8910  151.6700 C   0  0  0  0  0  0  0  0  0  0  0  0
  161.8940  206.7750  152.2990 C   0  0  2  0  0  3  0  0  0  0  0  0
  161.5010  207.9450  152.7770 C   0  0  0  0  0  3  0  0  0  0  0  0
  162.6400  206.7230  147.9870 O   0  0  0  0  0  0  0  0  0  0  0  0
  161.4320  204.8570  144.4510 C   0  0  0  0  0  2  0  0  0  0  0  0
  160.8810  206.1060  146.4990 C   0  0  1  0  0  3  0  0  0  0  0  0
  161.9610  205.8600  145.4580 C   0  0  1  0  0  3  0  0  0  0  0  0
  161.1010  204.7170  145.9230 C   0  0  2  0  0  3  0  0  0  0  0  0
  161.7210  211.2580  150.8100 C   0  0  0  0  0  2  0  0  0  0  0  0
  161.9270  210.6170  149.4480 C   0  0  0  0  0  2  0  0  0  0  0  0
  162.4390  211.5630  148.5600 O   0  0  0  0  0  0  0  0  0  0  0  0
  161.4140  212.4970  148.4090 C   0  0  0  0  0  3  0  0  0  0  0  0
  160.7610  212.2780  147.1970 O   0  0  0  0  0  1  0  0  0  0  0  0
  161.9490  213.7840  148.4200 O   0  0  0  0  0  1  0  0  0  0  0  0
  160.3650  210.7180  152.8780 C   0  0  2  0  0  3  0  0  0  0  0  0
  159.3990  212.5870  151.5350 O   0  0  0  0  0  0  0  0  0  0  0  0
  158.0270  211.2600  152.8030 O   0  0  0  0  0  1  0  0  0  0  0  0
  159.1930  211.5230  152.4030 C   0  0  0  0  0  0  0  0  0  0  0  0
  161.1990  211.4580  153.9220 C   0  0  0  0  0  2  0  0  0  0  0  0
  162.4380  210.4250  155.7340 C   0  0  0  0  0  3  0  0  0  0  0  0
  160.6900  208.2250  156.9640 C   0  0  0  0  0  0  0  0  0  0  0  0
  160.1690  206.8510  157.1820 C   0  0  0  0  0  1  0  0  0  0  0  0
  159.9610  210.3590  155.8570 C   0  0  0  0  0  3  0  0  0  0  0  0
  161.9940  208.4390  157.1380 C   0  0  0  0  0  3  0  0  0  0  0  0
  162.6240  209.7900  157.0720 C   0  0  0  0  0  2  0  0  0  0  0  0
  161.2440  210.7010  155.2070 C   0  0  0  0  0  0  0  0  0  0  0  0
  159.7200  209.2850  156.6200 C   0  0  0  0  0  3  0  0  0  0  0  0
  1 23  1  0  0  0  0
  2  9  1  0  0  0  0
  3 12  2  0  0  0  0
  3  4  1  0  0  0  0
  4  7  1  0  0  0  0
  5  8  1  0  0  0  0
  6  2  1  6  0  0  0
  6 10  1  0  0  0  0
  7  6  1  0  0  0  0
  7  5  2  0  0  0  0
  9  1  1  0  0  0  0
  9 11  2  0  0  0  0
 10  8  1  6  0  0  0
 10 11  1  0  0  0  0
 14  3  1  1  0  0  0
 15 13  1  6  0  0  0
 15 16  1  0  0  0  0
 15 14  1  0  0  0  0
 16 13  1  6  0  0  0
 16 14  1  0  0  0  0
 17  1  1  0  0  0  0
 18 17  1  0  0  0  0
 19 18  1  0  0  0  0
 20 22  1  0  0  0  0
 20 19  1  0  0  0  0
 21 20  1  0  0  0  0
 23 27  1  1  0  0  0
 24 26  2  0  0  0  0
 26 25  1  0  0  0  0
 26 23  1  0  0  0  0
 27 34  1  0  0  0  0
 28 33  1  0  0  0  0
 29 32  2  0  0  0  0
 29 30  1  0  0  0  0
 31 35  2  0  0  0  0
 33 32  1  0  0  0  0
 34 28  2  0  0  0  0
 34 31  1  0  0  0  0
 35 29  1  0  0  0  0
M  END
>  <MODEL>
4

>  <REMARK>
 VINA RESULT:      -6.7      2.598      7.480
  Name = 
  10 active torsions:
  status: ('A' for Active; 'I' for Inactive)
    1  A    between atoms: C_2  and  O_19
    2  A    between atoms: C_7  and  C_17
    3  A    between atoms: C_7  and  N_29
    4  A    between atoms: C_8  and  C_15
    5  A    between atoms: C_11  and  C_18
    6  A    between atoms: C_11  and  C_22
    7  A    between atoms: C_11  and  N_29
    8  A    between atoms: C_17  and  O_19
    9  A    between atoms: C_18  and  C_33
   10  A    between atoms: C_26  and  N_29
                            x       y       z     vdW  Elec       q    Type
                         _______ _______ _______ _____ _____    ______ ____

>  <TORSDO>
F 10

$$$$
=
 OpenBabel11052409283D

 35 39  0  0  1  0  0  0  0  0999 V2000
  160.8880  209.0920  153.1900 N   0  0  0  0  0  0  0  0  0  0  0  0
  159.5940  210.0190  155.0480 C   0  0  0  0  0  2  0  0  0  0  0  0
  157.2830  212.2570  156.1560 C   0  0  0  0  0  0  0  0  0  0  0  0
  158.6010  212.7520  156.4190 N   0  0  0  0  0  2  0  0  0  0  0  0
  160.8590  212.4710  157.1000 N   0  0  0  0  0  0  0  0  0  0  0  0
  159.8370  210.4680  156.4520 C   0  0  2  0  0  3  0  0  0  0  0  0
  159.7600  211.9460  156.6600 C   0  0  0  0  0  0  0  0  0  0  0  0
  161.8970  211.4590  157.2590 C   0  0  0  0  0  2  0  0  0  0  0  0
  160.7350  209.5790  154.5340 C   0  0  0  0  0  0  0  0  0  0  0  0
  161.3030  210.2890  156.5720 C   0  0  2  0  0  3  0  0  0  0  0  0
  161.8380  209.8130  155.4590 C   0  0  0  0  0  3  0  0  0  0  0  0
  156.9980  211.0440  156.3490 O   0  0  0  0  0  0  0  0  0  0  0  0
  155.7100  214.3720  153.6080 C   0  0  0  0  0  2  0  0  0  0  0  0
  156.2160  213.2050  155.7150 C   0  0  1  0  0  3  0  0  0  0  0  0
  156.7690  214.1620  154.6720 C   0  0  1  0  0  3  0  0  0  0  0  0
  155.9070  213.0090  154.2410 C   0  0  2  0  0  3  0  0  0  0  0  0
  161.0040  210.0200  152.0640 C   0  0  0  0  0  2  0  0  0  0  0  0
  160.5440  211.4070  152.4770 C   0  0  0  0  0  2  0  0  0  0  0  0
  160.2750  212.1670  151.3390 O   0  0  0  0  0  0  0  0  0  0  0  0
  159.1910  212.9690  151.6960 C   0  0  0  0  0  3  0  0  0  0  0  0
  158.2030  212.1790  152.2820 O   0  0  0  0  0  1  0  0  0  0  0  0
  158.6750  213.5900  150.5600 O   0  0  0  0  0  1  0  0  0  0  0  0
  160.8070  207.6530  152.9410 C   0  0  2  0  0  3  0  0  0  0  0  0
  161.9990  206.1000  154.4880 O   0  0  0  0  0  0  0  0  0  0  0  0
  159.9240  206.8980  155.0420 O   0  0  0  0  0  1  0  0  0  0  0  0
  160.8790  206.8760  154.2200 C   0  0  0  0  0  0  0  0  0  0  0  0
  161.8580  207.2090  151.9250 C   0  0  0  0  0  2  0  0  0  0  0  0
  161.1770  204.9670  151.2990 C   0  0  0  0  0  3  0  0  0  0  0  0
  161.2510  204.7580  148.2390 C   0  0  0  0  0  0  0  0  0  0  0  0
  161.8140  204.4400  146.9010 C   0  0  0  0  0  1  0  0  0  0  0  0
  160.7910  206.7830  149.6530 C   0  0  0  0  0  3  0  0  0  0  0  0
  161.1590  203.7730  149.1330 C   0  0  0  0  0  3  0  0  0  0  0  0
  160.5030  203.9280  150.4650 C   0  0  0  0  0  2  0  0  0  0  0  0
  161.2800  206.2480  150.9420 C   0  0  0  0  0  0  0  0  0  0  0  0
  160.7790  206.1360  148.4800 C   0  0  0  0  0  3  0  0  0  0  0  0
  1  9  1  0  0  0  0
  3 12  2  0  0  0  0
  3  4  1  0  0  0  0
  4  7  1  0  0  0  0
  5  8  1  0  0  0  0
  6  2  1  6  0  0  0
  6 10  1  0  0  0  0
  6  7  1  0  0  0  0
  7  5  2  0  0  0  0
  9  2  1  0  0  0  0
  9 11  2  0  0  0  0
 10 11  1  6  0  0  0
 10  8  1  0  0  0  0
 14  3  1  6  0  0  0
 15 13  1  1  0  0  0
 15 14  1  0  0  0  0
 16 13  1  1  0  0  0
 16 15  1  0  0  0  0
 16 14  1  0  0  0  0
 17 18  1  0  0  0  0
 17  1  1  0  0  0  0
 19 20  1  0  0  0  0
 19 18  1  0  0  0  0
 20 21  1  0  0  0  0
 22 20  1  0  0  0  0
 23 27  1  6  0  0  0
 23  1  1  0  0  0  0
 23 26  1  0  0  0  0
 26 24  2  0  0  0  0
 26 25  1  0  0  0  0
 29 35  1  0  0  0  0
 29 32  2  0  0  0  0
 30 29  1  0  0  0  0
 31 34  1  0  0  0  0
 32 33  1  0  0  0  0
 33 28  1  0  0  0  0
 34 28  2  0  0  0  0
 34 27  1  0  0  0  0
 35 31  2  0  0  0  0
M  END
>  <MODEL>
5

>  <REMARK>
 VINA RESULT:      -6.7      1.692      2.228
  Name = 
  10 active torsions:
  status: ('A' for Active; 'I' for Inactive)
    1  A    between atoms: C_2  and  O_19
    2  A    between atoms: C_7  and  C_17
    3  A    between atoms: C_7  and  N_29
    4  A    between atoms: C_8  and  C_15
    5  A    between atoms: C_11  and  C_18
    6  A    between atoms: C_11  and  C_22
    7  A    between atoms: C_11  and  N_29
    8  A    between atoms: C_17  and  O_19
    9  A    between atoms: C_18  and  C_33
   10  A    between atoms: C_26  and  N_29
                            x       y       z     vdW  Elec       q    Type
                         _______ _______ _______ _____ _____    ______ ____

>  <TORSDO>
F 10

$$$$
=
 OpenBabel11052409283D

 35 39  0  0  1  0  0  0  0  0999 V2000
  160.5490  209.2890  152.8070 N   0  0  0  0  0  0  0  0  0  0  0  0
  161.5210  207.6730  151.2490 C   0  0  0  0  0  2  0  0  0  0  0  0
  161.4290  206.1330  148.2160 C   0  0  0  0  0  0  0  0  0  0  0  0
  160.8300  205.2880  149.2050 N   0  0  0  0  0  2  0  0  0  0  0  0
  160.7370  204.3270  151.3760 N   0  0  0  0  0  0  0  0  0  0  0  0
  162.0370  206.2710  151.2850 C   0  0  2  0  0  3  0  0  0  0  0  0
  161.1710  205.2660  150.5970 C   0  0  0  0  0  0  0  0  0  0  0  0
  161.2060  204.5200  152.7430 C   0  0  0  0  0  2  0  0  0  0  0  0
  161.1270  208.0170  152.4680 C   0  0  0  0  0  0  0  0  0  0  0  0
  161.7650  205.8910  152.6920 C   0  0  2  0  0  3  0  0  0  0  0  0
  161.2060  206.8780  153.3730 C   0  0  0  0  0  3  0  0  0  0  0  0
  162.4860  206.7740  148.4660 O   0  0  0  0  0  0  0  0  0  0  0  0
  161.4100  205.2260  144.6640 C   0  0  0  0  0  2  0  0  0  0  0  0
  160.8310  206.2000  146.8490 C   0  0  1  0  0  3  0  0  0  0  0  0
  161.9220  206.0940  145.7970 C   0  0  1  0  0  3  0  0  0  0  0  0
  161.0640  204.8970  146.1020 C   0  0  2  0  0  3  0  0  0  0  0  0
  159.7250  209.4440  154.0060 C   0  0  0  0  0  2  0  0  0  0  0  0
  160.6080  209.5720  155.2360 C   0  0  0  0  0  2  0  0  0  0  0  0
  159.8660  209.2650  156.3760 O   0  0  0  0  0  0  0  0  0  0  0  0
  160.5810  208.2430  157.0000 C   0  0  0  0  0  3  0  0  0  0  0  0
  161.9080  208.2780  156.5730 O   0  0  0  0  0  1  0  0  0  0  0  0
  160.0200  207.0100  156.6680 O   0  0  0  0  0  1  0  0  0  0  0  0
  160.6930  210.4070  151.8740 C   0  0  2  0  0  3  0  0  0  0  0  0
  162.1660  210.4940  149.8620 O   0  0  0  0  0  0  0  0  0  0  0  0
  163.0910  210.3310  151.9510 O   0  0  0  0  0  1  0  0  0  0  0  0
  162.0520  210.4170  151.2440 C   0  0  0  0  0  0  0  0  0  0  0  0
  160.3480  211.7350  152.5460 C   0  0  0  0  0  2  0  0  0  0  0  0
  158.2320  212.7450  151.9250 C   0  0  0  0  0  3  0  0  0  0  0  0
  158.2910  213.3290  148.9140 C   0  0  0  0  0  0  0  0  0  0  0  0
  158.0490  213.0900  147.4680 C   0  0  0  0  0  1  0  0  0  0  0  0
  160.2120  213.2870  150.5320 C   0  0  0  0  0  3  0  0  0  0  0  0
  157.2410  213.3280  149.7360 C   0  0  0  0  0  3  0  0  0  0  0  0
  157.3290  213.6750  151.1850 C   0  0  0  0  0  2  0  0  0  0  0  0
  159.5280  212.5950  151.6450 C   0  0  0  0  0  0  0  0  0  0  0  0
  159.6750  213.6050  149.3470 C   0  0  0  0  0  3  0  0  0  0  0  0
  1 17  1  0  0  0  0
  2  9  1  0  0  0  0
  3 12  2  0  0  0  0
  3  4  1  0  0  0  0
  4  7  1  0  0  0  0
  5  8  1  0  0  0  0
  6  2  1  1  0  0  0
  6 10  1  0  0  0  0
  7  6  1  0  0  0  0
  7  5  2  0  0  0  0
  9  1  1  0  0  0  0
  9 11  2  0  0  0  0
 10  8  1  6  0  0  0
 10 11  1  0  0  0  0
 14  3  1  1  0  0  0
 15 13  1  6  0  0  0
 15 16  1  0  0  0  0
 15 14  1  0  0  0  0
 16 13  1  6  0  0  0
 16 14  1  0  0  0  0
 17 18  1  0  0  0  0
 18 19  1  0  0  0  0
 19 20  1  0  0  0  0
 21 20  1  0  0  0  0
 22 20  1  0  0  0  0
 23 27  1  1  0  0  0
 23  1  1  0  0  0  0
 24 26  2  0  0  0  0
 26 23  1  0  0  0  0
 26 25  1  0  0  0  0
 29 35  1  0  0  0  0
 29 32  2  0  0  0  0
 30 29  1  0  0  0  0
 31 34  1  0  0  0  0
 32 33  1  0  0  0  0
 33 28  1  0  0  0  0
 34 28  2  0  0  0  0
 34 27  1  0  0  0  0
 35 31  2  0  0  0  0
M  END
>  <MODEL>
6

>  <REMARK>
 VINA RESULT:      -6.6      2.288      7.993
  Name = 
  10 active torsions:
  status: ('A' for Active; 'I' for Inactive)
    1  A    between atoms: C_2  and  O_19
    2  A    between atoms: C_7  and  C_17
    3  A    between atoms: C_7  and  N_29
    4  A    between atoms: C_8  and  C_15
    5  A    between atoms: C_11  and  C_18
    6  A    between atoms: C_11  and  C_22
    7  A    between atoms: C_11  and  N_29
    8  A    between atoms: C_17  and  O_19
    9  A    between atoms: C_18  and  C_33
   10  A    between atoms: C_26  and  N_29
                            x       y       z     vdW  Elec       q    Type
                         _______ _______ _______ _____ _____    ______ ____

>  <TORSDO>
F 10

$$$$
=
 OpenBabel11052409283D

 35 39  0  0  1  0  0  0  0  0999 V2000
  162.0980  209.0750  148.9540 N   0  0  0  0  0  0  0  0  0  0  0  0
  160.9750  210.9560  147.8670 C   0  0  0  0  0  2  0  0  0  0  0  0
  159.7290  212.3580  145.0280 C   0  0  0  0  0  0  0  0  0  0  0  0
  161.0320  212.8890  145.2980 N   0  0  0  0  0  2  0  0  0  0  0  0
  162.7050  213.7170  146.7670 N   0  0  0  0  0  0  0  0  0  0  0  0
  161.0690  212.4480  147.8570 C   0  0  2  0  0  3  0  0  0  0  0  0
  161.6190  213.0330  146.5970 C   0  0  0  0  0  0  0  0  0  0  0  0
  163.1140  213.7150  148.1660 C   0  0  0  0  0  2  0  0  0  0  0  0
  161.8810  210.4740  148.7080 C   0  0  0  0  0  0  0  0  0  0  0  0
  162.2300  212.6780  148.7490 C   0  0  2  0  0  3  0  0  0  0  0  0
  162.7310  211.5450  149.2150 C   0  0  0  0  0  3  0  0  0  0  0  0
  158.8950  212.1870  145.9580 O   0  0  0  0  0  0  0  0  0  0  0  0
  160.3470  212.5040  141.4170 C   0  0  0  0  0  2  0  0  0  0  0  0
  159.3310  212.0710  143.6170 C   0  0  1  0  0  3  0  0  0  0  0  0
  159.8590  213.1570  142.6950 C   0  0  1  0  0  3  0  0  0  0  0  0
  160.5610  211.8290  142.7570 C   0  0  2  0  0  3  0  0  0  0  0  0
  162.6500  208.2060  147.9140 C   0  0  0  0  0  2  0  0  0  0  0  0
  161.5610  207.3140  147.3430 C   0  0  0  0  0  2  0  0  0  0  0  0
  162.1440  206.2670  146.6290 O   0  0  0  0  0  0  0  0  0  0  0  0
  161.0690  205.4840  146.2080 C   0  0  0  0  0  3  0  0  0  0  0  0
  161.5490  204.3270  145.5950 O   0  0  0  0  0  1  0  0  0  0  0  0
  160.2960  206.2040  145.2980 O   0  0  0  0  0  1  0  0  0  0  0  0
  161.6510  208.4980  150.2210 C   0  0  2  0  0  3  0  0  0  0  0  0
  162.7260  209.9540  151.9380 O   0  0  0  0  0  1  0  0  0  0  0  0
  160.4570  210.0270  151.6360 O   0  0  0  0  0  0  0  0  0  0  0  0
  161.5680  209.5400  151.2940 C   0  0  0  0  0  0  0  0  0  0  0  0
  162.5210  207.3090  150.6250 C   0  0  0  0  0  2  0  0  0  0  0  0
  161.7130  205.6800  152.2300 C   0  0  0  0  0  3  0  0  0  0  0  0
  160.8510  203.1650  150.7000 C   0  0  0  0  0  0  0  0  0  0  0  0
  160.9820  201.8060  150.1150 C   0  0  0  0  0  1  0  0  0  0  0  0
  160.8160  205.5530  149.9210 C   0  0  0  0  0  3  0  0  0  0  0  0
  161.0510  203.3080  152.0110 C   0  0  0  0  0  3  0  0  0  0  0  0
  160.8320  204.5900  152.7430 C   0  0  0  0  0  2  0  0  0  0  0  0
  161.6840  206.1250  150.9730 C   0  0  0  0  0  0  0  0  0  0  0  0
  160.4550  204.2690  149.8020 C   0  0  0  0  0  3  0  0  0  0  0  0
  1 23  1  0  0  0  0
  2  9  1  0  0  0  0
  3  4  1  0  0  0  0
  3 12  2  0  0  0  0
  4  7  1  0  0  0  0
  5  8  1  0  0  0  0
  6  2  1  6  0  0  0
  6 10  1  0  0  0  0
  7  5  2  0  0  0  0
  7  6  1  0  0  0  0
  9  1  1  0  0  0  0
  9 11  2  0  0  0  0
 10  8  1  6  0  0  0
 10 11  1  0  0  0  0
 14  3  1  1  0  0  0
 15 13  1  6  0  0  0
 15 16  1  0  0  0  0
 15 14  1  0  0  0  0
 16 13  1  6  0  0  0
 16 14  1  0  0  0  0
 17  1  1  0  0  0  0
 18 17  1  0  0  0  0
 19 18  1  0  0  0  0
 20 19  1  0  0  0  0
 21 20  1  0  0  0  0
 22 20  1  0  0  0  0
 23 27  1  1  0  0  0
 23 26  1  0  0  0  0
 26 25  2  0  0  0  0
 26 24  1  0  0  0  0
 27 34  1  0  0  0  0
 28 33  1  0  0  0  0
 29 32  2  0  0  0  0
 30 29  1  0  0  0  0
 31 34  1  0  0  0  0
 32 33  1  0  0  0  0
 34 28  2  0  0  0  0
 35 31  2  0  0  0  0
 35 29  1  0  0  0  0
M  END
>  <MODEL>
7

>  <REMARK>
 VINA RESULT:      -6.6      4.074      6.337
  Name = 
  10 active torsions:
  status: ('A' for Active; 'I' for Inactive)
    1  A    between atoms: C_2  and  O_19
    2  A    between atoms: C_7  and  C_17
    3  A    between atoms: C_7  and  N_29
    4  A    between atoms: C_8  and  C_15
    5  A    between atoms: C_11  and  C_18
    6  A    between atoms: C_11  and  C_22
    7  A    between atoms: C_11  and  N_29
    8  A    between atoms: C_17  and  O_19
    9  A    between atoms: C_18  and  C_33
   10  A    between atoms: C_26  and  N_29
                            x       y       z     vdW  Elec       q    Type
                         _______ _______ _______ _____ _____    ______ ____

>  <TORSDO>
F 10

$$$$
=
 OpenBabel11052409283D

 35 39  0  0  1  0  0  0  0  0999 V2000
  161.6500  206.1790  151.4380 N   0  0  0  0  0  0  0  0  0  0  0  0
  160.4680  208.0520  152.4750 C   0  0  0  0  0  2  0  0  0  0  0  0
  159.8860  211.4010  152.6310 C   0  0  0  0  0  0  0  0  0  0  0  0
  160.8230  211.0250  153.6460 N   0  0  0  0  0  2  0  0  0  0  0  0
  161.6170  209.5630  155.3420 N   0  0  0  0  0  0  0  0  0  0  0  0
  160.1390  208.5290  153.8530 C   0  0  2  0  0  3  0  0  0  0  0  0
  160.8850  209.7470  154.2900 C   0  0  0  0  0  0  0  0  0  0  0  0
  161.5260  208.1860  155.8120 C   0  0  0  0  0  2  0  0  0  0  0  0
  161.1440  206.9140  152.5640 C   0  0  0  0  0  0  0  0  0  0  0  0
  160.8280  207.5180  154.6890 C   0  0  2  0  0  3  0  0  0  0  0  0
  161.4430  206.6030  153.9570 C   0  0  0  0  0  3  0  0  0  0  0  0
  158.8760  210.6860  152.3870 O   0  0  0  0  0  0  0  0  0  0  0  0
  158.5520  214.4530  151.0990 C   0  0  0  0  0  2  0  0  0  0  0  0
  160.0720  212.6910  151.9010 C   0  0  1  0  0  3  0  0  0  0  0  0
  158.8640  212.9720  151.0220 C   0  0  1  0  0  3  0  0  0  0  0  0
  159.0190  213.7000  152.3290 C   0  0  2  0  0  3  0  0  0  0  0  0
  162.1490  204.8120  151.5950 C   0  0  0  0  0  2  0  0  0  0  0  0
  161.0280  203.8140  151.3600 C   0  0  0  0  0  2  0  0  0  0  0  0
  161.5660  202.5370  151.2060 O   0  0  0  0  0  0  0  0  0  0  0  0
  160.5570  201.8000  150.5860 C   0  0  0  0  0  3  0  0  0  0  0  0
  161.0850  200.6010  150.1060 O   0  0  0  0  0  1  0  0  0  0  0  0
  160.0300  202.5320  149.5230 O   0  0  0  0  0  1  0  0  0  0  0  0
  161.7740  206.8540  150.1460 C   0  0  2  0  0  3  0  0  0  0  0  0
  161.5880  209.2180  149.3720 O   0  0  0  0  0  0  0  0  0  0  0  0
  162.7150  208.7330  151.3060 O   0  0  0  0  0  1  0  0  0  0  0  0
  162.0490  208.3160  150.3210 C   0  0  0  0  0  0  0  0  0  0  0  0
  160.5550  206.5870  149.2640 C   0  0  0  0  0  2  0  0  0  0  0  0
  160.4810  206.5800  146.8400 C   0  0  0  0  0  3  0  0  0  0  0  0
  161.1130  203.7410  145.8660 C   0  0  0  0  0  0  0  0  0  0  0  0
  160.8310  202.3600  145.3960 C   0  0  0  0  0  1  0  0  0  0  0  0
  161.9240  204.8920  147.9470 C   0  0  0  0  0  3  0  0  0  0  0  0
  160.5990  204.7580  145.1730 C   0  0  0  0  0  3  0  0  0  0  0  0
  160.9040  206.1900  145.4630 C   0  0  0  0  0  2  0  0  0  0  0  0
  160.9600  206.0130  147.9490 C   0  0  0  0  0  0  0  0  0  0  0  0
  161.9890  203.9050  147.0420 C   0  0  0  0  0  3  0  0  0  0  0  0
  1 17  1  0  0  0  0
  1  9  1  0  0  0  0
  2  9  1  0  0  0  0
  3  4  1  0  0  0  0
  4  7  1  0  0  0  0
  5  8  1  0  0  0  0
  6  2  1  6  0  0  0
  6  7  1  0  0  0  0
  6 10  1  0  0  0  0
  7  5  2  0  0  0  0
  9 11  2  0  0  0  0
 10 11  1  6  0  0  0
 10  8  1  0  0  0  0
 12  3  2  0  0  0  0
 14 16  1  0  0  0  0
 14  3  1  1  0  0  0
 15 13  1  6  0  0  0
 15 14  1  0  0  0  0
 15 16  1  0  0  0  0
 16 13  1  6  0  0  0
 18 17  1  0  0  0  0
 19 18  1  0  0  0  0
 20 19  1  0  0  0  0
 21 20  1  0  0  0  0
 22 20  1  0  0  0  0
 23 27  1  1  0  0  0
 23 26  1  0  0  0  0
 23  1  1  0  0  0  0
 24 26  2  0  0  0  0
 26 25  1  0  0  0  0
 28 34  2  0  0  0  0
 29 35  1  0  0  0  0
 30 29  1  0  0  0  0
 31 34  1  0  0  0  0
 32 33  1  0  0  0  0
 32 29  2  0  0  0  0
 33 28  1  0  0  0  0
 34 27  1  0  0  0  0
 35 31  2  0  0  0  0
M  END
>  <MODEL>
8

>  <REMARK>
 VINA RESULT:      -6.5      2.427      4.651
  Name = 
  10 active torsions:
  status: ('A' for Active; 'I' for Inactive)
    1  A    between atoms: C_2  and  O_19
    2  A    between atoms: C_7  and  C_17
    3  A    between atoms: C_7  and  N_29
    4  A    between atoms: C_8  and  C_15
    5  A    between atoms: C_11  and  C_18
    6  A    between atoms: C_11  and  C_22
    7  A    between atoms: C_11  and  N_29
    8  A    between atoms: C_17  and  O_19
    9  A    between atoms: C_18  and  C_33
   10  A    between atoms: C_26  and  N_29
                            x       y       z     vdW  Elec       q    Type
                         _______ _______ _______ _____ _____    ______ ____

>  <TORSDO>
F 10

$$$$
=
 OpenBabel11052409283D

 35 39  0  0  1  0  0  0  0  0999 V2000
  162.3140  209.0870  149.2160 N   0  0  0  0  0  0  0  0  0  0  0  0
  161.1860  211.2170  148.8000 C   0  0  0  0  0  2  0  0  0  0  0  0
  158.6600  212.9300  147.2970 C   0  0  0  0  0  0  0  0  0  0  0  0
  159.8580  213.0580  146.5230 N   0  0  0  0  0  2  0  0  0  0  0  0
  162.2050  213.3590  146.3110 N   0  0  0  0  0  0  0  0  0  0  0  0
  161.5610  212.6170  148.4340 C   0  0  2  0  0  3  0  0  0  0  0  0
  161.1930  213.0210  147.0430 C   0  0  0  0  0  0  0  0  0  0  0  0
  163.4550  213.2330  147.0510 C   0  0  0  0  0  2  0  0  0  0  0  0
  162.2910  210.4900  148.9030 C   0  0  0  0  0  0  0  0  0  0  0  0
  163.0280  212.4960  148.2630 C   0  0  2  0  0  3  0  0  0  0  0  0
  163.4550  211.2650  148.4940 C   0  0  0  0  0  3  0  0  0  0  0  0
  158.6910  213.0060  148.5560 O   0  0  0  0  0  0  0  0  0  0  0  0
  155.7320  214.3410  145.6000 C   0  0  0  0  0  2  0  0  0  0  0  0
  157.3480  212.7760  146.5990 C   0  0  1  0  0  3  0  0  0  0  0  0
  156.4650  213.9800  146.8770 C   0  0  1  0  0  3  0  0  0  0  0  0
  157.1700  213.8650  145.5550 C   0  0  2  0  0  3  0  0  0  0  0  0
  162.7120  208.1000  148.2110 C   0  0  0  0  0  2  0  0  0  0  0  0
  161.4830  207.4940  147.5560 C   0  0  0  0  0  2  0  0  0  0  0  0
  161.8790  206.5950  146.5650 O   0  0  0  0  0  0  0  0  0  0  0  0
  160.7770  205.7590  146.3850 C   0  0  0  0  0  3  0  0  0  0  0  0
  161.2120  204.4400  146.2570 O   0  0  0  0  0  1  0  0  0  0  0  0
  160.0900  206.1340  145.2310 O   0  0  0  0  0  1  0  0  0  0  0  0
  161.8210  208.6400  150.5180 C   0  0  2  0  0  3  0  0  0  0  0  0
  160.5570  210.2290  151.9680 O   0  0  0  0  0  1  0  0  0  0  0  0
  162.8450  210.3240  151.8890 O   0  0  0  0  0  0  0  0  0  0  0  0
  161.7810  209.7700  151.5010 C   0  0  0  0  0  0  0  0  0  0  0  0
  162.6220  207.4440  151.0310 C   0  0  0  0  0  2  0  0  0  0  0  0
  161.7540  205.6900  152.4640 C   0  0  0  0  0  3  0  0  0  0  0  0
  160.7830  203.3870  150.6860 C   0  0  0  0  0  0  0  0  0  0  0  0
  160.8550  202.0920  149.9600 C   0  0  0  0  0  1  0  0  0  0  0  0
  160.8430  205.8430  150.1610 C   0  0  0  0  0  3  0  0  0  0  0  0
  160.9940  203.3830  152.0020 C   0  0  0  0  0  3  0  0  0  0  0  0
  160.8300  204.5880  152.8660 C   0  0  0  0  0  2  0  0  0  0  0  0
  161.7380  206.2650  151.2600 C   0  0  0  0  0  0  0  0  0  0  0  0
  160.4290  204.5940  149.9120 C   0  0  0  0  0  3  0  0  0  0  0  0
  1 23  1  0  0  0  0
  2  9  1  0  0  0  0
  3 12  2  0  0  0  0
  4  7  1  0  0  0  0
  4  3  1  0  0  0  0
  5  7  2  0  0  0  0
  5  8  1  0  0  0  0
  6  2  1  6  0  0  0
  7  6  1  0  0  0  0
  9  1  1  0  0  0  0
 10  8  1  6  0  0  0
 10  6  1  0  0  0  0
 10 11  1  0  0  0  0
 11  9  2  0  0  0  0
 14 15  1  0  0  0  0
 14  3  1  1  0  0  0
 15 13  1  6  0  0  0
 16 13  1  6  0  0  0
 16 14  1  0  0  0  0
 16 15  1  0  0  0  0
 17  1  1  0  0  0  0
 18 17  1  0  0  0  0
 19 18  1  0  0  0  0
 20 19  1  0  0  0  0
 21 20  1  0  0  0  0
 22 20  1  0  0  0  0
 23 27  1  1  0  0  0
 23 26  1  0  0  0  0
 26 25  2  0  0  0  0
 26 24  1  0  0  0  0
 27 34  1  0  0  0  0
 28 33  1  0  0  0  0
 29 32  2  0  0  0  0
 30 29  1  0  0  0  0
 31 34  1  0  0  0  0
 32 33  1  0  0  0  0
 34 28  2  0  0  0  0
 35 31  2  0  0  0  0
 35 29  1  0  0  0  0
M  END
>  <MODEL>
9

>  <REMARK>
 VINA RESULT:      -6.4      3.780      5.509
  Name = 
  10 active torsions:
  status: ('A' for Active; 'I' for Inactive)
    1  A    between atoms: C_2  and  O_19
    2  A    between atoms: C_7  and  C_17
    3  A    between atoms: C_7  and  N_29
    4  A    between atoms: C_8  and  C_15
    5  A    between atoms: C_11  and  C_18
    6  A    between atoms: C_11  and  C_22
    7  A    between atoms: C_11  and  N_29
    8  A    between atoms: C_17  and  O_19
    9  A    between atoms: C_18  and  C_33
   10  A    between atoms: C_26  and  N_29
                            x       y       z     vdW  Elec       q    Type
                         _______ _______ _______ _____ _____    ______ ____

>  <TORSDO>
F 10

$$$$
