=
 OpenBabel11042422113D

 50 51  0  0  1  0  0  0  0  0999 V2000
  161.1900  207.4770  154.3730 N   0  0  0  0  0  1  0  0  0  0  0  0
  159.5690  210.8500  154.2520 C   0  0  0  0  0  0  0  0  0  0  0  0
  159.8410  211.2300  152.9170 C   0  0  0  0  0  0  0  0  0  0  0  0
  159.7800  209.1800  156.0210 O   0  0  0  0  0  1  0  0  0  0  0  0
  160.0230  209.5910  154.7150 C   0  0  0  0  0  0  0  0  0  0  0  0
  160.7310  208.7300  153.8620 C   0  0  0  0  0  0  0  0  0  0  0  0
  160.5500  210.3540  152.0880 C   0  0  0  0  0  3  0  0  0  0  0  0
  160.9990  209.1110  152.5340 C   0  0  0  0  0  0  0  0  0  0  0  0
  162.0080  207.0530  151.8620 O   0  0  0  0  0  0  0  0  0  0  0  0
  162.1800  208.7990  150.3330 N   0  0  0  0  0  2  0  0  0  0  0  0
  161.7480  208.2550  151.5830 C   0  0  0  0  0  0  0  0  0  0  0  0
  162.8670  208.0040  149.3280 C   0  0  0  0  0  2  0  0  0  0  0  0
  161.8550  207.2820  148.4600 C   0  0  0  0  0  2  0  0  0  0  0  0
  162.4770  206.1130  147.8620 N   0  0  0  0  0  2  0  0  0  0  0  0
  161.4260  205.1420  147.5960 C   0  0  2  0  0  3  0  0  0  0  0  0
  160.8710  204.5780  148.8700 C   0  0  0  0  0  0  0  0  0  0  0  0
  159.8330  205.6120  149.8430 Cl  0  0  0  0  0  0  0  0  0  0  0  0
  161.1870  203.3750  149.2480 N   0  0  0  0  0  0  0  0  0  0  0  0
  160.7150  202.7880  150.4570 C   0  0  0  0  0  3  0  0  0  0  0  0
  161.5340  202.4190  151.3380 O   0  0  0  0  0  0  0  0  0  0  0  0
  161.9090  204.0540  146.6360 C   0  0  0  0  0  2  0  0  0  0  0  0
  161.1860  204.0930  145.2970 C   0  0  0  0  0  2  0  0  0  0  0  0
  160.5370  205.7620  145.0090 S   0  0  0  0  0  1  0  0  0  0  0  0
  158.5050  213.2150  152.9170 O   0  0  0  0  0  0  0  0  0  0  0  0
  159.3990  212.5310  152.3510 C   0  0  0  0  0  0  0  0  0  0  0  0
  159.9860  213.0430  151.1420 C   0  0  0  0  0  0  0  0  0  0  0  0
  160.4900  213.4800  150.1380 C   0  0  0  0  0  0  0  0  0  0  0  0
  161.2450  214.1250  148.6800 S   0  0  0  0  0  0  0  0  0  0  0  0
  159.5250  214.2480  146.5160 C   0  0  0  0  0  0  0  0  0  0  0  0
  159.6670  214.3030  147.8400 C   0  0  0  0  0  3  0  0  0  0  0  0
  160.7140  214.0420  145.6210 C   0  0  0  0  0  2  0  0  0  0  0  0
  160.3940  213.0110  144.5550 C   0  0  0  0  0  2  0  0  0  0  0  0
  161.0840  213.3220  143.3820 O   0  0  0  0  0  0  0  0  0  0  0  0
  161.8410  212.2700  143.1520 O   0  0  0  0  0  0  0  0  0  0  0  0
  160.0020  211.5620  142.0270 F   0  0  0  0  0  0  0  0  0  0  0  0
  161.3700  211.7430  141.9450 C   0  0  1  0  0  3  0  0  0  0  0  0
  161.6680  212.6660  140.8620 N   0  0  0  0  0  2  0  0  0  0  0  0
  160.9570  211.7760  138.7380 C   0  0  0  0  0  2  0  0  0  0  0  0
  162.0800  211.8730  139.7130 C   0  0  2  0  0  3  0  0  0  0  0  0
  160.4330  210.5610  138.7060 C   0  0  0  0  0  2  0  0  0  0  0  0
  161.5850  208.4030  138.9290 C   0  0  0  0  0  1  0  0  0  0  0  0
  161.1150  209.6440  139.6550 C   0  0  1  0  0  3  0  0  0  0  0  0
  162.3140  210.4360  140.1560 C   0  0  0  0  0  2  0  0  0  0  0  0
  158.2350  214.4070  145.9880 O   0  0  0  0  0  0  0  0  0  0  0  0
  157.0540  213.7960  146.5090 C   0  0  2  0  0  3  0  0  0  0  0  0
  157.0450  212.4260  146.2370 O   0  0  0  0  0  1  0  0  0  0  0  0
  155.7980  214.4530  145.9630 C   0  0  0  0  0  2  0  0  0  0  0  0
  155.1450  213.5820  145.1100 F   0  0  0  0  0  0  0  0  0  0  0  0
  159.2520  212.2880  156.3710 C   0  0  0  0  0  1  0  0  0  0  0  0
  158.8190  211.7420  155.0960 N   0  0  0  0  0  2  0  0  0  0  0  0
  2  5  1  0  0  0  0
  2 50  1  0  0  0  0
  3  2  2  0  0  0  0
  5  4  1  0  0  0  0
  6  1  1  0  0  0  0
  6  5  2  0  0  0  0
  7  8  2  0  0  0  0
  7  3  1  0  0  0  0
  8  6  1  0  0  0  0
 10 11  1  0  0  0  0
 11  9  2  0  0  0  0
 11  8  1  0  0  0  0
 12 10  1  0  0  0  0
 13 12  1  0  0  0  0
 14 13  1  0  0  0  0
 15 21  1  6  0  0  0
 15 14  1  0  0  0  0
 15 16  1  0  0  0  0
 16 18  2  0  0  0  0
 16 17  1  0  0  0  0
 18 19  1  0  0  0  0
 19 20  2  0  0  0  0
 22 21  1  0  0  0  0
 23 22  1  0  0  0  0
 25  3  1  0  0  0  0
 25 24  2  0  0  0  0
 26 25  1  0  0  0  0
 27 26  3  0  0  0  0
 28 27  1  0  0  0  0
 29 30  2  0  0  0  0
 30 28  1  0  0  0  0
 31 29  1  0  0  0  0
 32 31  1  0  0  0  0
 33 32  1  0  0  0  0
 34 33  1  0  0  0  0
 36 35  1  1  0  0  0
 36 34  1  0  0  0  0
 37 36  1  0  0  0  0
 38 39  1  0  0  0  0
 39 43  1  0  0  0  0
 39 37  1  1  0  0  0
 40 38  1  0  0  0  0
 40 42  1  0  0  0  0
 42 41  1  6  0  0  0
 42 43  1  0  0  0  0
 44 45  1  0  0  0  0
 44 29  1  0  0  0  0
 45 46  1  6  0  0  0
 47 45  1  0  0  0  0
 48 47  1  0  0  0  0
 50 49  1  0  0  0  0
M  END
>  <MODEL>
1

>  <REMARK>
 VINA RESULT:      -5.5      0.000      0.000
  Name = 
  24 active torsions:
  status: ('A' for Active; 'I' for Inactive)
    1  A    between atoms: C_1  and  N_47
    2  A    between atoms: C_5  and  N_29
    3  A    between atoms: C_5  and  C_39
    4  A    between atoms: N_7  and  C_19
    5  A    between atoms: N_7  and  C_37
    6  A    between atoms: C_8  and  C_13
    7  A    between atoms: C_9  and  C_25
    8  A    between atoms: C_9  and  O_43
    9  A    between atoms: C_10  and  N_49
   10  A    between atoms: C_11  and  C_20
   11  A    between atoms: C_11  and  O_43
   12  A    between atoms: C_12  and  C_42
   13  A    between atoms: C_13  and  N_29
   14  A    between atoms: C_13  and  C_42
   15  A    between atoms: C_15  and  C_50
   16  A    between atoms: S_16  and  C_22
   17  A    between atoms: S_16  and  C_33
   18  A    between atoms: O_18  and  O_32
   19  A    between atoms: O_18  and  C_46
   20  A    between atoms: C_21  and  C_50
   21  A    between atoms: N_23  and  C_39
   22  A    between atoms: C_25  and  C_46
   23  A    between atoms: C_27  and  C_45
   24  A    between atoms: O_32  and  C_37
                            x       y       z     vdW  Elec       q    Type
                         _______ _______ _______ _____ _____    ______ ____

>  <TORSDO>
F 24

$$$$
=
 OpenBabel11042422113D

 50 51  0  0  1  0  0  0  0  0999 V2000
  157.5840  211.0900  155.6360 N   0  0  0  0  0  1  0  0  0  0  0  0
  157.6290  213.2690  152.5910 C   0  0  0  0  0  0  0  0  0  0  0  0
  158.9150  212.9850  152.0770 C   0  0  0  0  0  0  0  0  0  0  0  0
  155.9470  212.8750  154.3170 O   0  0  0  0  0  1  0  0  0  0  0  0
  157.2030  212.6210  153.7760 C   0  0  0  0  0  0  0  0  0  0  0  0
  158.0420  211.7070  154.4310 C   0  0  0  0  0  0  0  0  0  0  0  0
  159.7330  212.0710  152.7500 C   0  0  0  0  0  3  0  0  0  0  0  0
  159.3220  211.4250  153.9160 C   0  0  0  0  0  0  0  0  0  0  0  0
  161.0410  210.8640  155.4760 O   0  0  0  0  0  0  0  0  0  0  0  0
  160.2850  209.1110  154.1440 N   0  0  0  0  0  2  0  0  0  0  0  0
  160.2620  210.4790  154.5620 C   0  0  0  0  0  0  0  0  0  0  0  0
  161.1390  208.1150  154.7710 C   0  0  0  0  0  2  0  0  0  0  0  0
  161.0840  206.8190  153.9840 C   0  0  0  0  0  2  0  0  0  0  0  0
  162.3640  206.5930  153.3350 N   0  0  0  0  0  2  0  0  0  0  0  0
  162.1140  205.8280  152.1230 C   0  0  2  0  0  3  0  0  0  0  0  0
  162.0020  206.7250  150.9260 C   0  0  0  0  0  0  0  0  0  0  0  0
  162.5410  208.3910  151.0940 Cl  0  0  0  0  0  0  0  0  0  0  0  0
  161.4870  206.2810  149.8190 N   0  0  0  0  0  0  0  0  0  0  0  0
  161.3290  207.0850  148.6530 C   0  0  0  0  0  3  0  0  0  0  0  0
  160.4730  206.7740  147.7860 O   0  0  0  0  0  0  0  0  0  0  0  0
  160.8990  204.9150  152.2860 C   0  0  0  0  0  2  0  0  0  0  0  0
  161.1930  203.4730  151.8960 C   0  0  0  0  0  2  0  0  0  0  0  0
  160.7090  203.2040  150.1690 S   0  0  0  0  0  1  0  0  0  0  0  0
  160.3920  214.4400  150.8810 O   0  0  0  0  0  0  0  0  0  0  0  0
  159.4390  213.6170  150.8380 C   0  0  0  0  0  0  0  0  0  0  0  0
  158.8720  213.2990  149.5550 C   0  0  0  0  0  0  0  0  0  0  0  0
  158.4100  213.0270  148.4750 C   0  0  0  0  0  0  0  0  0  0  0  0
  157.7530  212.6150  146.8910 S   0  0  0  0  0  0  0  0  0  0  0  0
  159.9160  213.2410  145.2830 C   0  0  0  0  0  0  0  0  0  0  0  0
  159.3860  212.4030  146.1750 C   0  0  0  0  0  3  0  0  0  0  0  0
  159.1500  214.4390  144.8000 C   0  0  0  0  0  2  0  0  0  0  0  0
  158.7270  214.2430  143.3570 C   0  0  0  0  0  2  0  0  0  0  0  0
  159.3360  213.0970  142.8420 O   0  0  0  0  0  0  0  0  0  0  0  0
  158.7740  212.9210  141.6650 O   0  0  0  0  0  0  0  0  0  0  0  0
  160.6220  211.6120  141.7720 F   0  0  0  0  0  0  0  0  0  0  0  0
  159.7160  212.2090  140.9170 C   0  0  1  0  0  3  0  0  0  0  0  0
  159.0430  211.1830  140.1370 N   0  0  0  0  0  2  0  0  0  0  0  0
  158.9360  210.5530  137.8130 C   0  0  0  0  0  2  0  0  0  0  0  0
  159.8300  210.9630  138.9320 C   0  0  2  0  0  3  0  0  0  0  0  0
  159.0920  209.2780  137.4960 C   0  0  0  0  0  2  0  0  0  0  0  0
  161.1630  207.9570  137.4880 C   0  0  0  0  0  1  0  0  0  0  0  0
  160.1130  208.6210  138.3520 C   0  0  1  0  0  3  0  0  0  0  0  0
  160.7390  209.7610  139.1420 C   0  0  0  0  0  2  0  0  0  0  0  0
  161.2010  212.9560  144.7990 O   0  0  0  0  0  0  0  0  0  0  0  0
  162.4210  213.3720  145.4160 C   0  0  2  0  0  3  0  0  0  0  0  0
  163.5200  213.0030  144.6380 O   0  0  0  0  0  1  0  0  0  0  0  0
  162.5550  212.8120  146.8220 C   0  0  0  0  0  2  0  0  0  0  0  0
  162.4150  213.8300  147.7470 F   0  0  0  0  0  0  0  0  0  0  0  0
  155.3290  214.1520  151.8260 C   0  0  0  0  0  1  0  0  0  0  0  0
  156.7800  214.1900  151.8840 N   0  0  0  0  0  2  0  0  0  0  0  0
  2  5  1  0  0  0  0
  3  2  2  0  0  0  0
  3  7  1  0  0  0  0
  5  4  1  0  0  0  0
  5  6  2  0  0  0  0
  6  1  1  0  0  0  0
  7  8  2  0  0  0  0
  8  6  1  0  0  0  0
  8 11  1  0  0  0  0
 10 11  1  0  0  0  0
 10 12  1  0  0  0  0
 11  9  2  0  0  0  0
 13 12  1  0  0  0  0
 14 13  1  0  0  0  0
 15 21  1  1  0  0  0
 15 14  1  0  0  0  0
 16 17  1  0  0  0  0
 16 15  1  0  0  0  0
 18 16  2  0  0  0  0
 19 18  1  0  0  0  0
 20 19  2  0  0  0  0
 22 21  1  0  0  0  0
 23 22  1  0  0  0  0
 25 24  2  0  0  0  0
 25  3  1  0  0  0  0
 26 25  1  0  0  0  0
 27 26  3  0  0  0  0
 28 27  1  0  0  0  0
 29 30  2  0  0  0  0
 30 28  1  0  0  0  0
 31 29  1  0  0  0  0
 32 31  1  0  0  0  0
 33 32  1  0  0  0  0
 34 33  1  0  0  0  0
 36 34  1  0  0  0  0
 36 35  1  1  0  0  0
 37 36  1  0  0  0  0
 38 39  1  0  0  0  0
 39 43  1  0  0  0  0
 39 37  1  1  0  0  0
 40 38  1  0  0  0  0
 40 42  1  0  0  0  0
 42 41  1  6  0  0  0
 42 43  1  0  0  0  0
 44 29  1  0  0  0  0
 44 45  1  0  0  0  0
 45 46  1  6  0  0  0
 45 47  1  0  0  0  0
 47 48  1  0  0  0  0
 49 50  1  0  0  0  0
 50  2  1  0  0  0  0
M  END
>  <MODEL>
2

>  <REMARK>
 VINA RESULT:      -5.5      2.733      4.189
  Name = 
  24 active torsions:
  status: ('A' for Active; 'I' for Inactive)
    1  A    between atoms: C_1  and  N_47
    2  A    between atoms: C_5  and  N_29
    3  A    between atoms: C_5  and  C_39
    4  A    between atoms: N_7  and  C_19
    5  A    between atoms: N_7  and  C_37
    6  A    between atoms: C_8  and  C_13
    7  A    between atoms: C_9  and  C_25
    8  A    between atoms: C_9  and  O_43
    9  A    between atoms: C_10  and  N_49
   10  A    between atoms: C_11  and  C_20
   11  A    between atoms: C_11  and  O_43
   12  A    between atoms: C_12  and  C_42
   13  A    between atoms: C_13  and  N_29
   14  A    between atoms: C_13  and  C_42
   15  A    between atoms: C_15  and  C_50
   16  A    between atoms: S_16  and  C_22
   17  A    between atoms: S_16  and  C_33
   18  A    between atoms: O_18  and  O_32
   19  A    between atoms: O_18  and  C_46
   20  A    between atoms: C_21  and  C_50
   21  A    between atoms: N_23  and  C_39
   22  A    between atoms: C_25  and  C_46
   23  A    between atoms: C_27  and  C_45
   24  A    between atoms: O_32  and  C_37
                            x       y       z     vdW  Elec       q    Type
                         _______ _______ _______ _____ _____    ______ ____

>  <TORSDO>
F 24

$$$$
=
 OpenBabel11042422113D

 50 51  0  0  1  0  0  0  0  0999 V2000
  161.2110  204.8920  152.0750 N   0  0  0  0  0  1  0  0  0  0  0  0
  160.8740  208.5370  152.8650 C   0  0  0  0  0  0  0  0  0  0  0  0
  161.1510  209.1110  151.6030 C   0  0  0  0  0  0  0  0  0  0  0  0
  160.6300  206.5210  154.2220 O   0  0  0  0  0  1  0  0  0  0  0  0
  160.8930  207.1270  152.9980 C   0  0  0  0  0  0  0  0  0  0  0  0
  161.1810  206.3090  151.8950 C   0  0  0  0  0  0  0  0  0  0  0  0
  161.4360  208.2740  150.5190 C   0  0  0  0  0  3  0  0  0  0  0  0
  161.4550  206.8840  150.6390 C   0  0  0  0  0  0  0  0  0  0  0  0
  162.2810  204.9310  149.5410 O   0  0  0  0  0  0  0  0  0  0  0  0
  161.5050  206.6180  148.1370 N   0  0  0  0  0  2  0  0  0  0  0  0
  161.7750  206.0810  149.4350 C   0  0  0  0  0  0  0  0  0  0  0  0
  161.7380  205.8650  146.9150 C   0  0  0  0  0  2  0  0  0  0  0  0
  160.8520  204.6340  146.8890 C   0  0  0  0  0  2  0  0  0  0  0  0
  161.6020  203.5100  146.3550 N   0  0  0  0  0  2  0  0  0  0  0  0
  161.3080  202.3500  147.1850 C   0  0  2  0  0  3  0  0  0  0  0  0
  160.9690  201.1540  146.3470 C   0  0  0  0  0  0  0  0  0  0  0  0
  159.9060  201.3910  144.9660 Cl  0  0  0  0  0  0  0  0  0  0  0  0
  161.4250  199.9800  146.6650 N   0  0  0  0  0  0  0  0  0  0  0  0
  161.1230  198.7980  145.9280 C   0  0  0  0  0  3  0  0  0  0  0  0
  161.8050  198.4980  144.9140 O   0  0  0  0  0  0  0  0  0  0  0  0
  160.2250  202.6690  148.2160 C   0  0  0  0  0  2  0  0  0  0  0  0
  159.9020  201.4810  149.1110 C   0  0  0  0  0  2  0  0  0  0  0  0
  161.0910  201.4140  150.4790 S   0  0  0  0  0  1  0  0  0  0  0  0
  160.6480  211.3670  152.2220 O   0  0  0  0  0  0  0  0  0  0  0  0
  161.1490  210.5800  151.3760 C   0  0  0  0  0  0  0  0  0  0  0  0
  161.7250  211.1390  150.1820 C   0  0  0  0  0  0  0  0  0  0  0  0
  162.2220  211.6090  149.1900 C   0  0  0  0  0  0  0  0  0  0  0  0
  162.9690  212.2940  147.7460 S   0  0  0  0  0  0  0  0  0  0  0  0
  161.2670  213.5440  145.9590 C   0  0  0  0  0  0  0  0  0  0  0  0
  161.3970  212.8890  147.1120 C   0  0  0  0  0  3  0  0  0  0  0  0
  162.4640  213.8460  145.1030 C   0  0  0  0  0  2  0  0  0  0  0  0
  162.5720  212.8360  143.9780 C   0  0  0  0  0  2  0  0  0  0  0  0
  162.3180  213.4650  142.7580 O   0  0  0  0  0  0  0  0  0  0  0  0
  162.5380  212.5360  141.8520 O   0  0  0  0  0  0  0  0  0  0  0  0
  163.7410  213.5400  140.2120 F   0  0  0  0  0  0  0  0  0  0  0  0
  162.4660  213.2030  140.6250 C   0  0  1  0  0  3  0  0  0  0  0  0
  161.8540  212.3330  139.6340 N   0  0  0  0  0  2  0  0  0  0  0  0
  159.6630  211.4710  140.1510 C   0  0  0  0  0  2  0  0  0  0  0  0
  160.4280  212.6310  139.6130 C   0  0  2  0  0  3  0  0  0  0  0  0
  158.9940  210.8360  139.2030 C   0  0  0  0  0  2  0  0  0  0  0  0
  157.8670  211.7900  137.2390 C   0  0  0  0  0  1  0  0  0  0  0  0
  159.2020  211.4610  137.8720 C   0  0  1  0  0  3  0  0  0  0  0  0
  159.9640  212.7450  138.1690 C   0  0  0  0  0  2  0  0  0  0  0  0
  159.9810  213.9580  145.5820 O   0  0  0  0  0  0  0  0  0  0  0  0
  159.0190  213.1410  144.9110 C   0  0  2  0  0  3  0  0  0  0  0  0
  158.4950  213.8040  143.8000 O   0  0  0  0  0  1  0  0  0  0  0  0
  157.9030  212.7100  145.8470 C   0  0  0  0  0  2  0  0  0  0  0  0
  157.9190  213.4920  146.9870 F   0  0  0  0  0  0  0  0  0  0  0  0
  161.4140  209.6910  155.1080 C   0  0  0  0  0  1  0  0  0  0  0  0
  160.5570  209.3980  153.9720 N   0  0  0  0  0  2  0  0  0  0  0  0
  2  5  1  0  0  0  0
  2 50  1  0  0  0  0
  3  2  2  0  0  0  0
  5  4  1  0  0  0  0
  6  1  1  0  0  0  0
  6  5  2  0  0  0  0
  7  8  2  0  0  0  0
  7  3  1  0  0  0  0
  8  6  1  0  0  0  0
 10 11  1  0  0  0  0
 11  9  2  0  0  0  0
 11  8  1  0  0  0  0
 12 10  1  0  0  0  0
 13 12  1  0  0  0  0
 14 13  1  0  0  0  0
 14 15  1  0  0  0  0
 15 21  1  1  0  0  0
 16 18  2  0  0  0  0
 16 15  1  0  0  0  0
 17 16  1  0  0  0  0
 19 18  1  0  0  0  0
 20 19  2  0  0  0  0
 21 22  1  0  0  0  0
 22 23  1  0  0  0  0
 25  3  1  0  0  0  0
 25 24  2  0  0  0  0
 26 25  1  0  0  0  0
 27 26  3  0  0  0  0
 28 27  1  0  0  0  0
 29 30  2  0  0  0  0
 30 28  1  0  0  0  0
 31 29  1  0  0  0  0
 32 31  1  0  0  0  0
 33 32  1  0  0  0  0
 34 33  1  0  0  0  0
 36 35  1  6  0  0  0
 36 34  1  0  0  0  0
 37 36  1  0  0  0  0
 39 37  1  6  0  0  0
 39 38  1  0  0  0  0
 40 38  1  0  0  0  0
 42 41  1  1  0  0  0
 42 43  1  0  0  0  0
 42 40  1  0  0  0  0
 43 39  1  0  0  0  0
 44 29  1  0  0  0  0
 45 46  1  6  0  0  0
 45 44  1  0  0  0  0
 45 47  1  0  0  0  0
 47 48  1  0  0  0  0
 50 49  1  0  0  0  0
M  END
>  <MODEL>
3

>  <REMARK>
 VINA RESULT:      -5.2      2.819      3.489
  Name = 
  24 active torsions:
  status: ('A' for Active; 'I' for Inactive)
    1  A    between atoms: C_1  and  N_47
    2  A    between atoms: C_5  and  N_29
    3  A    between atoms: C_5  and  C_39
    4  A    between atoms: N_7  and  C_19
    5  A    between atoms: N_7  and  C_37
    6  A    between atoms: C_8  and  C_13
    7  A    between atoms: C_9  and  C_25
    8  A    between atoms: C_9  and  O_43
    9  A    between atoms: C_10  and  N_49
   10  A    between atoms: C_11  and  C_20
   11  A    between atoms: C_11  and  O_43
   12  A    between atoms: C_12  and  C_42
   13  A    between atoms: C_13  and  N_29
   14  A    between atoms: C_13  and  C_42
   15  A    between atoms: C_15  and  C_50
   16  A    between atoms: S_16  and  C_22
   17  A    between atoms: S_16  and  C_33
   18  A    between atoms: O_18  and  O_32
   19  A    between atoms: O_18  and  C_46
   20  A    between atoms: C_21  and  C_50
   21  A    between atoms: N_23  and  C_39
   22  A    between atoms: C_25  and  C_46
   23  A    between atoms: C_27  and  C_45
   24  A    between atoms: O_32  and  C_37
                            x       y       z     vdW  Elec       q    Type
                         _______ _______ _______ _____ _____    ______ ____

>  <TORSDO>
F 24

$$$$
=
 OpenBabel11042422113D

 50 51  0  0  1  0  0  0  0  0999 V2000
  158.1770  210.9300  154.6020 N   0  0  0  0  0  1  0  0  0  0  0  0
  158.3780  213.0420  151.5160 C   0  0  0  0  0  0  0  0  0  0  0  0
  159.6540  212.6790  151.0260 C   0  0  0  0  0  0  0  0  0  0  0  0
  156.6550  212.7720  153.2260 O   0  0  0  0  0  1  0  0  0  0  0  0
  157.9030  212.4410  152.7070 C   0  0  0  0  0  0  0  0  0  0  0  0
  158.6830  211.4980  153.3920 C   0  0  0  0  0  0  0  0  0  0  0  0
  160.4130  211.7360  151.7280 C   0  0  0  0  0  3  0  0  0  0  0  0
  159.9530  211.1370  152.9010 C   0  0  0  0  0  0  0  0  0  0  0  0
  161.7960  210.5380  154.2960 O   0  0  0  0  0  0  0  0  0  0  0  0
  160.5850  208.7560  153.4160 N   0  0  0  0  0  2  0  0  0  0  0  0
  160.8330  210.1560  153.5780 C   0  0  0  0  0  0  0  0  0  0  0  0
  161.3700  207.7380  154.0960 C   0  0  0  0  0  2  0  0  0  0  0  0
  160.9180  206.3590  153.6560 C   0  0  0  0  0  2  0  0  0  0  0  0
  161.8700  205.8200  152.7010 N   0  0  0  0  0  2  0  0  0  0  0  0
  161.2970  205.9760  151.3710 C   0  0  2  0  0  3  0  0  0  0  0  0
  161.1420  204.6510  150.6870 C   0  0  0  0  0  0  0  0  0  0  0  0
  161.3600  203.1970  151.6510 Cl  0  0  0  0  0  0  0  0  0  0  0  0
  160.8900  204.5960  149.4130 N   0  0  0  0  0  0  0  0  0  0  0  0
  160.7540  203.3720  148.6960 C   0  0  0  0  0  3  0  0  0  0  0  0
  161.7700  202.6740  148.4460 O   0  0  0  0  0  0  0  0  0  0  0  0
  162.1010  206.9750  150.5380 C   0  0  0  0  0  2  0  0  0  0  0  0
  161.2590  207.6530  149.4660 C   0  0  0  0  0  2  0  0  0  0  0  0
  161.9330  209.3000  149.1200 S   0  0  0  0  0  1  0  0  0  0  0  0
  161.3200  213.8820  149.8000 O   0  0  0  0  0  0  0  0  0  0  0  0
  160.2260  213.2570  149.7820 C   0  0  0  0  0  0  0  0  0  0  0  0
  159.5450  213.1110  148.5240 C   0  0  0  0  0  0  0  0  0  0  0  0
  158.9870  212.9830  147.4630 C   0  0  0  0  0  0  0  0  0  0  0  0
  158.1880  212.7820  145.9040 S   0  0  0  0  0  0  0  0  0  0  0  0
  160.1880  213.2770  144.0580 C   0  0  0  0  0  0  0  0  0  0  0  0
  159.7420  212.5030  145.0470 C   0  0  0  0  0  3  0  0  0  0  0  0
  159.3880  214.4530  143.5770 C   0  0  0  0  0  2  0  0  0  0  0  0
  158.9790  214.2520  142.1310 C   0  0  0  0  0  2  0  0  0  0  0  0
  159.9230  213.4540  141.4840 O   0  0  0  0  0  0  0  0  0  0  0  0
  159.5250  213.4170  140.2290 O   0  0  0  0  0  0  0  0  0  0  0  0
  157.3590  212.9400  139.7540 F   0  0  0  0  0  0  0  0  0  0  0  0
  158.5590  212.4080  140.1860 C   0  0  1  0  0  3  0  0  0  0  0  0
  158.9830  211.3690  139.2620 N   0  0  0  0  0  2  0  0  0  0  0  0
  161.0360  210.8720  138.0990 C   0  0  0  0  0  2  0  0  0  0  0  0
  160.4230  211.2100  139.4150 C   0  0  2  0  0  3  0  0  0  0  0  0
  161.4480  209.6160  138.0530 C   0  0  0  0  0  2  0  0  0  0  0  0
  162.4500  208.2780  139.8530 C   0  0  0  0  0  1  0  0  0  0  0  0
  161.1760  208.9020  139.3270 C   0  0  1  0  0  3  0  0  0  0  0  0
  160.7020  209.9900  140.2790 C   0  0  0  0  0  2  0  0  0  0  0  0
  161.4180  212.9440  143.4710 O   0  0  0  0  0  0  0  0  0  0  0  0
  162.6920  213.0690  144.1070 C   0  0  2  0  0  3  0  0  0  0  0  0
  162.5490  213.1210  145.4940 O   0  0  0  0  0  1  0  0  0  0  0  0
  163.4490  214.2870  143.6050 C   0  0  0  0  0  2  0  0  0  0  0  0
  163.5700  214.2310  142.2300 F   0  0  0  0  0  0  0  0  0  0  0  0
  156.2470  213.7800  150.2630 C   0  0  0  0  0  1  0  0  0  0  0  0
  157.5890  213.9920  150.7790 N   0  0  0  0  0  2  0  0  0  0  0  0
  2  5  1  0  0  0  0
  3  2  2  0  0  0  0
  3  7  1  0  0  0  0
  5  4  1  0  0  0  0
  5  6  2  0  0  0  0
  6  1  1  0  0  0  0
  7  8  2  0  0  0  0
  8  6  1  0  0  0  0
  8 11  1  0  0  0  0
 10 11  1  0  0  0  0
 10 12  1  0  0  0  0
 11  9  2  0  0  0  0
 13 12  1  0  0  0  0
 14 13  1  0  0  0  0
 15 21  1  6  0  0  0
 15 14  1  0  0  0  0
 16 15  1  0  0  0  0
 16 17  1  0  0  0  0
 18 16  2  0  0  0  0
 19 18  1  0  0  0  0
 20 19  2  0  0  0  0
 22 21  1  0  0  0  0
 23 22  1  0  0  0  0
 25 24  2  0  0  0  0
 25  3  1  0  0  0  0
 26 25  1  0  0  0  0
 27 26  3  0  0  0  0
 28 27  1  0  0  0  0
 29 30  2  0  0  0  0
 30 28  1  0  0  0  0
 31 29  1  0  0  0  0
 32 31  1  0  0  0  0
 33 32  1  0  0  0  0
 34 33  1  0  0  0  0
 36 35  1  6  0  0  0
 36 34  1  0  0  0  0
 37 36  1  0  0  0  0
 38 39  1  0  0  0  0
 39 37  1  6  0  0  0
 39 43  1  0  0  0  0
 40 38  1  0  0  0  0
 40 42  1  0  0  0  0
 42 41  1  1  0  0  0
 42 43  1  0  0  0  0
 44 29  1  0  0  0  0
 44 45  1  0  0  0  0
 45 46  1  1  0  0  0
 47 45  1  0  0  0  0
 48 47  1  0  0  0  0
 49 50  1  0  0  0  0
 50  2  1  0  0  0  0
M  END
>  <MODEL>
4

>  <REMARK>
 VINA RESULT:      -4.8      2.580      4.055
  Name = 
  24 active torsions:
  status: ('A' for Active; 'I' for Inactive)
    1  A    between atoms: C_1  and  N_47
    2  A    between atoms: C_5  and  N_29
    3  A    between atoms: C_5  and  C_39
    4  A    between atoms: N_7  and  C_19
    5  A    between atoms: N_7  and  C_37
    6  A    between atoms: C_8  and  C_13
    7  A    between atoms: C_9  and  C_25
    8  A    between atoms: C_9  and  O_43
    9  A    between atoms: C_10  and  N_49
   10  A    between atoms: C_11  and  C_20
   11  A    between atoms: C_11  and  O_43
   12  A    between atoms: C_12  and  C_42
   13  A    between atoms: C_13  and  N_29
   14  A    between atoms: C_13  and  C_42
   15  A    between atoms: C_15  and  C_50
   16  A    between atoms: S_16  and  C_22
   17  A    between atoms: S_16  and  C_33
   18  A    between atoms: O_18  and  O_32
   19  A    between atoms: O_18  and  C_46
   20  A    between atoms: C_21  and  C_50
   21  A    between atoms: N_23  and  C_39
   22  A    between atoms: C_25  and  C_46
   23  A    between atoms: C_27  and  C_45
   24  A    between atoms: O_32  and  C_37
                            x       y       z     vdW  Elec       q    Type
                         _______ _______ _______ _____ _____    ______ ____

>  <TORSDO>
F 24

$$$$
=
 OpenBabel11042422113D

 50 51  0  0  1  0  0  0  0  0999 V2000
  161.5260  205.8150  153.6030 N   0  0  0  0  0  1  0  0  0  0  0  0
  160.0120  209.1420  154.4170 C   0  0  0  0  0  0  0  0  0  0  0  0
  160.0770  209.7810  153.1570 C   0  0  0  0  0  0  0  0  0  0  0  0
  160.4540  207.1530  155.7630 O   0  0  0  0  0  1  0  0  0  0  0  0
  160.4950  207.8170  154.5410 C   0  0  0  0  0  0  0  0  0  0  0  0
  161.0290  207.1440  153.4310 C   0  0  0  0  0  0  0  0  0  0  0  0
  160.6140  209.0890  152.0660 C   0  0  0  0  0  3  0  0  0  0  0  0
  161.0900  207.7820  152.1780 C   0  0  0  0  0  0  0  0  0  0  0  0
  162.7970  206.6140  150.9840 O   0  0  0  0  0  0  0  0  0  0  0  0
  160.8740  207.0970  149.7660 N   0  0  0  0  0  2  0  0  0  0  0  0
  161.6490  207.1340  150.9680 C   0  0  0  0  0  0  0  0  0  0  0  0
  161.3330  206.4290  148.5590 C   0  0  0  0  0  2  0  0  0  0  0  0
  161.6030  204.9650  148.8500 C   0  0  0  0  0  2  0  0  0  0  0  0
  162.2910  204.3660  147.7200 N   0  0  0  0  0  2  0  0  0  0  0  0
  161.7530  203.0260  147.5350 C   0  0  2  0  0  3  0  0  0  0  0  0
  161.1820  202.8530  146.1600 C   0  0  0  0  0  0  0  0  0  0  0  0
  161.4550  204.1370  144.9890 Cl  0  0  0  0  0  0  0  0  0  0  0  0
  160.4790  201.8000  145.8680 N   0  0  0  0  0  0  0  0  0  0  0  0
  159.8880  201.5850  144.5890 C   0  0  0  0  0  3  0  0  0  0  0  0
  159.0150  202.3800  144.1580 O   0  0  0  0  0  0  0  0  0  0  0  0
  160.7480  202.6780  148.6340 C   0  0  0  0  0  2  0  0  0  0  0  0
  161.1390  201.4290  149.4110 C   0  0  0  0  0  2  0  0  0  0  0  0
  160.8050  201.6860  151.1740 S   0  0  0  0  0  1  0  0  0  0  0  0
  158.7120  211.6740  153.6870 O   0  0  0  0  0  0  0  0  0  0  0  0
  159.5890  211.1680  152.9380 C   0  0  0  0  0  0  0  0  0  0  0  0
  160.1130  211.9700  151.8650 C   0  0  0  0  0  0  0  0  0  0  0  0
  160.5630  212.6480  150.9750 C   0  0  0  0  0  0  0  0  0  0  0  0
  161.2400  213.6440  149.6870 S   0  0  0  0  0  0  0  0  0  0  0  0
  159.4870  214.1800  147.6140 C   0  0  0  0  0  0  0  0  0  0  0  0
  159.6400  213.8600  148.8990 C   0  0  0  0  0  3  0  0  0  0  0  0
  160.6780  214.4000  146.7260 C   0  0  0  0  0  2  0  0  0  0  0  0
  161.2500  213.0700  146.2770 C   0  0  0  0  0  2  0  0  0  0  0  0
  161.2090  212.9900  144.8830 O   0  0  0  0  0  0  0  0  0  0  0  0
  160.3170  213.8890  144.5240 O   0  0  0  0  0  0  0  0  0  0  0  0
  158.4680  213.5220  143.2620 F   0  0  0  0  0  0  0  0  0  0  0  0
  159.8490  213.4560  143.2800 C   0  0  1  0  0  3  0  0  0  0  0  0
  160.3850  214.3120  142.2340 N   0  0  0  0  0  2  0  0  0  0  0  0
  160.8570  212.0900  141.4290 C   0  0  0  0  0  2  0  0  0  0  0  0
  160.5470  213.4940  141.0400 C   0  0  2  0  0  3  0  0  0  0  0  0
  162.1120  211.7680  141.1620 C   0  0  0  0  0  2  0  0  0  0  0  0
  163.4880  212.4690  139.2520 C   0  0  0  0  0  1  0  0  0  0  0  0
  162.8520  212.9030  140.5540 C   0  0  1  0  0  3  0  0  0  0  0  0
  161.7850  213.9530  140.2850 C   0  0  0  0  0  2  0  0  0  0  0  0
  158.1790  214.3230  147.1250 O   0  0  0  0  0  0  0  0  0  0  0  0
  157.0310  213.6500  147.6440 C   0  0  2  0  0  3  0  0  0  0  0  0
  156.1010  213.4050  146.6330 O   0  0  0  0  0  1  0  0  0  0  0  0
  156.3890  214.4330  148.7770 C   0  0  0  0  0  2  0  0  0  0  0  0
  155.1180  213.9470  149.0210 F   0  0  0  0  0  0  0  0  0  0  0  0
  160.1370  210.2910  156.7230 C   0  0  0  0  0  1  0  0  0  0  0  0
  159.4360  209.8470  155.5310 N   0  0  0  0  0  2  0  0  0  0  0  0
  2  5  1  0  0  0  0
  2 50  1  0  0  0  0
  3  2  2  0  0  0  0
  5  4  1  0  0  0  0
  6  1  1  0  0  0  0
  6  5  2  0  0  0  0
  7  8  2  0  0  0  0
  7  3  1  0  0  0  0
  8  6  1  0  0  0  0
 10 11  1  0  0  0  0
 11  9  2  0  0  0  0
 11  8  1  0  0  0  0
 12 13  1  0  0  0  0
 12 10  1  0  0  0  0
 14 13  1  0  0  0  0
 15 14  1  0  0  0  0
 15 21  1  1  0  0  0
 16 15  1  0  0  0  0
 17 16  1  0  0  0  0
 18 16  2  0  0  0  0
 19 18  1  0  0  0  0
 20 19  2  0  0  0  0
 21 22  1  0  0  0  0
 22 23  1  0  0  0  0
 25  3  1  0  0  0  0
 25 24  2  0  0  0  0
 26 25  1  0  0  0  0
 27 26  3  0  0  0  0
 28 27  1  0  0  0  0
 29 30  2  0  0  0  0
 30 28  1  0  0  0  0
 31 29  1  0  0  0  0
 32 31  1  0  0  0  0
 33 32  1  0  0  0  0
 34 33  1  0  0  0  0
 36 35  1  1  0  0  0
 36 34  1  0  0  0  0
 37 36  1  0  0  0  0
 39 38  1  0  0  0  0
 39 37  1  1  0  0  0
 40 38  1  0  0  0  0
 42 41  1  6  0  0  0
 42 40  1  0  0  0  0
 43 42  1  0  0  0  0
 43 39  1  0  0  0  0
 44 29  1  0  0  0  0
 44 45  1  0  0  0  0
 45 46  1  6  0  0  0
 45 47  1  0  0  0  0
 47 48  1  0  0  0  0
 50 49  1  0  0  0  0
M  END
>  <MODEL>
5

>  <REMARK>
 VINA RESULT:      -4.7      2.386      2.967
  Name = 
  24 active torsions:
  status: ('A' for Active; 'I' for Inactive)
    1  A    between atoms: C_1  and  N_47
    2  A    between atoms: C_5  and  N_29
    3  A    between atoms: C_5  and  C_39
    4  A    between atoms: N_7  and  C_19
    5  A    between atoms: N_7  and  C_37
    6  A    between atoms: C_8  and  C_13
    7  A    between atoms: C_9  and  C_25
    8  A    between atoms: C_9  and  O_43
    9  A    between atoms: C_10  and  N_49
   10  A    between atoms: C_11  and  C_20
   11  A    between atoms: C_11  and  O_43
   12  A    between atoms: C_12  and  C_42
   13  A    between atoms: C_13  and  N_29
   14  A    between atoms: C_13  and  C_42
   15  A    between atoms: C_15  and  C_50
   16  A    between atoms: S_16  and  C_22
   17  A    between atoms: S_16  and  C_33
   18  A    between atoms: O_18  and  O_32
   19  A    between atoms: O_18  and  C_46
   20  A    between atoms: C_21  and  C_50
   21  A    between atoms: N_23  and  C_39
   22  A    between atoms: C_25  and  C_46
   23  A    between atoms: C_27  and  C_45
   24  A    between atoms: O_32  and  C_37
                            x       y       z     vdW  Elec       q    Type
                         _______ _______ _______ _____ _____    ______ ____

>  <TORSDO>
F 24

$$$$
=
 OpenBabel11042422113D

 50 51  0  0  1  0  0  0  0  0999 V2000
  161.8600  204.6500  149.8380 N   0  0  0  0  0  1  0  0  0  0  0  0
  160.7390  203.3970  146.4920 C   0  0  0  0  0  0  0  0  0  0  0  0
  160.8750  204.5670  145.7080 C   0  0  0  0  0  0  0  0  0  0  0  0
  160.9560  202.3200  148.6720 O   0  0  0  0  0  1  0  0  0  0  0  0
  161.0790  203.4460  147.8650 C   0  0  0  0  0  0  0  0  0  0  0  0
  161.5480  204.6360  148.4430 C   0  0  0  0  0  0  0  0  0  0  0  0
  161.3440  205.7410  146.3090 C   0  0  0  0  0  3  0  0  0  0  0  0
  161.6840  205.7980  147.6600 C   0  0  0  0  0  0  0  0  0  0  0  0
  163.2970  207.5440  147.8920 O   0  0  0  0  0  0  0  0  0  0  0  0
  161.3300  207.8300  149.1030 N   0  0  0  0  0  2  0  0  0  0  0  0
  162.1640  207.0890  148.2070 C   0  0  0  0  0  0  0  0  0  0  0  0
  161.7100  209.1290  149.6330 C   0  0  0  0  0  2  0  0  0  0  0  0
  162.2590  208.9740  151.0380 C   0  0  0  0  0  2  0  0  0  0  0  0
  161.3910  208.0950  151.8020 N   0  0  0  0  0  2  0  0  0  0  0  0
  161.1820  208.7060  153.1070 C   0  0  2  0  0  3  0  0  0  0  0  0
  160.7780  207.6850  154.1270 C   0  0  0  0  0  0  0  0  0  0  0  0
  161.0570  205.9900  153.7500 Cl  0  0  0  0  0  0  0  0  0  0  0  0
  160.2060  208.0540  155.2350 N   0  0  0  0  0  0  0  0  0  0  0  0
  159.7750  207.1350  156.2350 C   0  0  0  0  0  3  0  0  0  0  0  0
  160.5360  206.8490  157.1950 O   0  0  0  0  0  0  0  0  0  0  0  0
  160.1940  209.8700  153.0200 C   0  0  0  0  0  2  0  0  0  0  0  0
  160.7450  211.1510  153.6300 C   0  0  0  0  0  2  0  0  0  0  0  0
  159.4000  212.3510  153.8310 S   0  0  0  0  0  1  0  0  0  0  0  0
  159.5810  203.9350  143.7980 O   0  0  0  0  0  0  0  0  0  0  0  0
  160.5440  204.6020  144.2600 C   0  0  0  0  0  0  0  0  0  0  0  0
  161.3160  205.4050  143.3500 C   0  0  0  0  0  0  0  0  0  0  0  0
  161.9750  206.0760  142.5950 C   0  0  0  0  0  0  0  0  0  0  0  0
  162.9590  207.0460  141.4990 S   0  0  0  0  0  0  0  0  0  0  0  0
  161.2060  208.2490  139.7280 C   0  0  0  0  0  0  0  0  0  0  0  0
  161.6600  207.1140  140.2590 C   0  0  0  0  0  3  0  0  0  0  0  0
  161.7590  209.5780  140.1570 C   0  0  0  0  0  2  0  0  0  0  0  0
  162.6880  210.1280  139.0930 C   0  0  0  0  0  2  0  0  0  0  0  0
  162.3590  211.4580  138.8260 O   0  0  0  0  0  0  0  0  0  0  0  0
  162.5820  212.0900  139.9600 O   0  0  0  0  0  0  0  0  0  0  0  0
  160.4710  212.8330  139.5900 F   0  0  0  0  0  0  0  0  0  0  0  0
  161.7590  213.2190  139.9120 C   0  0  1  0  0  3  0  0  0  0  0  0
  161.7540  213.8720  141.2110 N   0  0  0  0  0  2  0  0  0  0  0  0
  160.8640  212.3600  142.8640 C   0  0  0  0  0  2  0  0  0  0  0  0
  162.1010  212.8670  142.2060 C   0  0  2  0  0  3  0  0  0  0  0  0
  160.7600  212.7800  144.1140 C   0  0  0  0  0  2  0  0  0  0  0  0
  162.5520  213.1090  145.7610 C   0  0  0  0  0  1  0  0  0  0  0  0
  161.9070  213.6410  144.5000 C   0  0  1  0  0  3  0  0  0  0  0  0
  162.8780  213.5290  143.3340 C   0  0  0  0  0  2  0  0  0  0  0  0
  160.1840  208.1610  138.7710 O   0  0  0  0  0  0  0  0  0  0  0  0
  159.4710  209.2740  138.2280 C   0  0  2  0  0  3  0  0  0  0  0  0
  158.7940  209.9660  139.2330 O   0  0  0  0  0  1  0  0  0  0  0  0
  158.5040  208.8390  137.1390 C   0  0  0  0  0  2  0  0  0  0  0  0
  157.2510  208.6250  137.6830 F   0  0  0  0  0  0  0  0  0  0  0  0
  160.9680  200.9060  145.8640 C   0  0  0  0  0  1  0  0  0  0  0  0
  160.2810  202.1860  145.8670 N   0  0  0  0  0  2  0  0  0  0  0  0
  2  5  1  0  0  0  0
  3  7  1  0  0  0  0
  3  2  2  0  0  0  0
  5  6  2  0  0  0  0
  5  4  1  0  0  0  0
  6  1  1  0  0  0  0
  7  8  2  0  0  0  0
  8 11  1  0  0  0  0
  8  6  1  0  0  0  0
  9 11  2  0  0  0  0
 10 12  1  0  0  0  0
 11 10  1  0  0  0  0
 12 13  1  0  0  0  0
 13 14  1  0  0  0  0
 14 15  1  0  0  0  0
 15 21  1  6  0  0  0
 15 16  1  0  0  0  0
 16 18  2  0  0  0  0
 17 16  1  0  0  0  0
 18 19  1  0  0  0  0
 19 20  2  0  0  0  0
 21 22  1  0  0  0  0
 22 23  1  0  0  0  0
 24 25  2  0  0  0  0
 25  3  1  0  0  0  0
 26 25  1  0  0  0  0
 27 26  3  0  0  0  0
 28 27  1  0  0  0  0
 29 31  1  0  0  0  0
 29 30  2  0  0  0  0
 30 28  1  0  0  0  0
 32 31  1  0  0  0  0
 33 32  1  0  0  0  0
 33 34  1  0  0  0  0
 36 35  1  1  0  0  0
 36 34  1  0  0  0  0
 36 37  1  0  0  0  0
 38 40  1  0  0  0  0
 39 37  1  6  0  0  0
 39 38  1  0  0  0  0
 39 43  1  0  0  0  0
 40 42  1  0  0  0  0
 42 41  1  1  0  0  0
 43 42  1  0  0  0  0
 44 29  1  0  0  0  0
 45 44  1  0  0  0  0
 45 46  1  1  0  0  0
 47 48  1  0  0  0  0
 47 45  1  0  0  0  0
 49 50  1  0  0  0  0
 50  2  1  0  0  0  0
M  END
>  <MODEL>
6

>  <REMARK>
 VINA RESULT:      -4.3      3.367      8.078
  Name = 
  24 active torsions:
  status: ('A' for Active; 'I' for Inactive)
    1  A    between atoms: C_1  and  N_47
    2  A    between atoms: C_5  and  N_29
    3  A    between atoms: C_5  and  C_39
    4  A    between atoms: N_7  and  C_19
    5  A    between atoms: N_7  and  C_37
    6  A    between atoms: C_8  and  C_13
    7  A    between atoms: C_9  and  C_25
    8  A    between atoms: C_9  and  O_43
    9  A    between atoms: C_10  and  N_49
   10  A    between atoms: C_11  and  C_20
   11  A    between atoms: C_11  and  O_43
   12  A    between atoms: C_12  and  C_42
   13  A    between atoms: C_13  and  N_29
   14  A    between atoms: C_13  and  C_42
   15  A    between atoms: C_15  and  C_50
   16  A    between atoms: S_16  and  C_22
   17  A    between atoms: S_16  and  C_33
   18  A    between atoms: O_18  and  O_32
   19  A    between atoms: O_18  and  C_46
   20  A    between atoms: C_21  and  C_50
   21  A    between atoms: N_23  and  C_39
   22  A    between atoms: C_25  and  C_46
   23  A    between atoms: C_27  and  C_45
   24  A    between atoms: O_32  and  C_37
                            x       y       z     vdW  Elec       q    Type
                         _______ _______ _______ _____ _____    ______ ____

>  <TORSDO>
F 24

$$$$
=
 OpenBabel11042422113D

 50 51  0  0  1  0  0  0  0  0999 V2000
  162.1030  206.5660  145.9760 N   0  0  0  0  0  1  0  0  0  0  0  0
  161.3850  203.9110  148.5170 C   0  0  0  0  0  0  0  0  0  0  0  0
  161.1470  204.6990  149.6670 C   0  0  0  0  0  0  0  0  0  0  0  0
  161.9410  203.8190  146.1410 O   0  0  0  0  0  1  0  0  0  0  0  0
  161.6960  204.5550  147.2950 C   0  0  0  0  0  0  0  0  0  0  0  0
  161.7650  205.9550  147.2230 C   0  0  0  0  0  0  0  0  0  0  0  0
  161.2220  206.0920  149.5690 C   0  0  0  0  0  3  0  0  0  0  0  0
  161.5260  206.7360  148.3690 C   0  0  0  0  0  0  0  0  0  0  0  0
  161.1060  208.8840  147.4130 O   0  0  0  0  0  0  0  0  0  0  0  0
  162.2110  208.8980  149.4610 N   0  0  0  0  0  2  0  0  0  0  0  0
  161.5910  208.2170  148.3670 C   0  0  0  0  0  0  0  0  0  0  0  0
  162.2600  210.3480  149.5540 C   0  0  0  0  0  2  0  0  0  0  0  0
  161.8120  210.9650  148.2430 C   0  0  0  0  0  2  0  0  0  0  0  0
  161.7450  212.4090  148.3860 N   0  0  0  0  0  2  0  0  0  0  0  0
  160.8770  212.9170  147.3330 C   0  0  2  0  0  3  0  0  0  0  0  0
  159.6090  213.4820  147.9000 C   0  0  0  0  0  0  0  0  0  0  0  0
  158.2750  213.7820  146.7930 Cl  0  0  0  0  0  0  0  0  0  0  0  0
  159.5260  213.7700  149.1650 N   0  0  0  0  0  0  0  0  0  0  0  0
  158.3610  214.3310  149.7640 C   0  0  0  0  0  3  0  0  0  0  0  0
  157.7030  213.6650  150.6040 O   0  0  0  0  0  0  0  0  0  0  0  0
  160.6190  211.8510  146.2680 C   0  0  0  0  0  2  0  0  0  0  0  0
  160.0210  212.4300  144.9940 C   0  0  0  0  0  2  0  0  0  0  0  0
  161.3430  212.7330  143.7900 S   0  0  0  0  0  1  0  0  0  0  0  0
  160.2660  202.9710  151.0700 O   0  0  0  0  0  0  0  0  0  0  0  0
  160.8110  204.1040  150.9870 C   0  0  0  0  0  0  0  0  0  0  0  0
  161.1060  204.8080  152.2060 C   0  0  0  0  0  0  0  0  0  0  0  0
  161.3420  205.4080  153.2250 C   0  0  0  0  0  0  0  0  0  0  0  0
  161.6660  206.2930  154.7160 S   0  0  0  0  0  0  0  0  0  0  0  0
  160.1390  208.6010  154.6940 C   0  0  0  0  0  0  0  0  0  0  0  0
  161.0100  207.8260  154.0470 C   0  0  0  0  0  3  0  0  0  0  0  0
  159.6290  208.2190  156.0540 C   0  0  0  0  0  2  0  0  0  0  0  0
  160.4730  208.8720  157.1320 C   0  0  0  0  0  2  0  0  0  0  0  0
  160.9050  210.1250  156.6930 O   0  0  0  0  0  0  0  0  0  0  0  0
  159.9800  210.9620  157.1130 O   0  0  0  0  0  0  0  0  0  0  0  0
  161.0130  212.2460  155.5540 F   0  0  0  0  0  0  0  0  0  0  0  0
  160.4890  212.2340  156.8320 C   0  0  1  0  0  3  0  0  0  0  0  0
  159.4200  213.2160  156.9220 N   0  0  0  0  0  2  0  0  0  0  0  0
  157.8800  212.4310  155.2420 C   0  0  0  0  0  2  0  0  0  0  0  0
  158.1630  212.5140  156.7030 C   0  0  2  0  0  3  0  0  0  0  0  0
  156.8790  213.2180  154.8860 C   0  0  0  0  0  2  0  0  0  0  0  0
  154.8330  213.7370  156.1430 C   0  0  0  0  0  1  0  0  0  0  0  0
  156.3260  213.9620  156.0460 C   0  0  1  0  0  3  0  0  0  0  0  0
  157.0200  213.3520  157.2550 C   0  0  0  0  0  2  0  0  0  0  0  0
  159.7020  209.7710  154.0540 O   0  0  0  0  0  0  0  0  0  0  0  0
  160.2280  210.2810  152.8280 C   0  0  2  0  0  3  0  0  0  0  0  0
  161.5920  210.0050  152.7210 O   0  0  0  0  0  1  0  0  0  0  0  0
  159.9770  211.7730  152.6910 C   0  0  0  0  0  2  0  0  0  0  0  0
  160.4110  212.2100  151.4530 F   0  0  0  0  0  0  0  0  0  0  0  0
  160.8010  201.5790  147.5800 C   0  0  0  0  0  1  0  0  0  0  0  0
  161.2820  202.4800  148.6140 N   0  0  0  0  0  2  0  0  0  0  0  0
  1  6  1  0  0  0  0
  2 50  1  0  0  0  0
  2  3  1  0  0  0  0
  3 25  1  0  0  0  0
  4  5  1  0  0  0  0
  5  2  2  0  0  0  0
  6  5  1  0  0  0  0
  6  8  2  0  0  0  0
  7  3  2  0  0  0  0
  8  7  1  0  0  0  0
  9 11  2  0  0  0  0
 10 12  1  0  0  0  0
 11  8  1  0  0  0  0
 11 10  1  0  0  0  0
 13 14  1  0  0  0  0
 13 12  1  0  0  0  0
 15 21  1  6  0  0  0
 15 16  1  0  0  0  0
 15 14  1  0  0  0  0
 16 18  2  0  0  0  0
 17 16  1  0  0  0  0
 18 19  1  0  0  0  0
 19 20  2  0  0  0  0
 22 21  1  0  0  0  0
 23 22  1  0  0  0  0
 25 24  2  0  0  0  0
 25 26  1  0  0  0  0
 26 27  3  0  0  0  0
 27 28  1  0  0  0  0
 29 31  1  0  0  0  0
 30 29  2  0  0  0  0
 30 28  1  0  0  0  0
 31 32  1  0  0  0  0
 33 34  1  0  0  0  0
 33 32  1  0  0  0  0
 36 35  1  6  0  0  0
 36 37  1  0  0  0  0
 36 34  1  0  0  0  0
 38 39  1  0  0  0  0
 39 37  1  6  0  0  0
 39 43  1  0  0  0  0
 40 38  1  0  0  0  0
 40 42  1  0  0  0  0
 42 41  1  1  0  0  0
 42 43  1  0  0  0  0
 44 29  1  0  0  0  0
 45 46  1  1  0  0  0
 45 44  1  0  0  0  0
 47 45  1  0  0  0  0
 48 47  1  0  0  0  0
 49 50  1  0  0  0  0
M  END
>  <MODEL>
7

>  <REMARK>
 VINA RESULT:      -3.9      4.161     10.930
  Name = 
  24 active torsions:
  status: ('A' for Active; 'I' for Inactive)
    1  A    between atoms: C_1  and  N_47
    2  A    between atoms: C_5  and  N_29
    3  A    between atoms: C_5  and  C_39
    4  A    between atoms: N_7  and  C_19
    5  A    between atoms: N_7  and  C_37
    6  A    between atoms: C_8  and  C_13
    7  A    between atoms: C_9  and  C_25
    8  A    between atoms: C_9  and  O_43
    9  A    between atoms: C_10  and  N_49
   10  A    between atoms: C_11  and  C_20
   11  A    between atoms: C_11  and  O_43
   12  A    between atoms: C_12  and  C_42
   13  A    between atoms: C_13  and  N_29
   14  A    between atoms: C_13  and  C_42
   15  A    between atoms: C_15  and  C_50
   16  A    between atoms: S_16  and  C_22
   17  A    between atoms: S_16  and  C_33
   18  A    between atoms: O_18  and  O_32
   19  A    between atoms: O_18  and  C_46
   20  A    between atoms: C_21  and  C_50
   21  A    between atoms: N_23  and  C_39
   22  A    between atoms: C_25  and  C_46
   23  A    between atoms: C_27  and  C_45
   24  A    between atoms: O_32  and  C_37
                            x       y       z     vdW  Elec       q    Type
                         _______ _______ _______ _____ _____    ______ ____

>  <TORSDO>
F 24

$$$$
=
 OpenBabel11042422113D

 50 51  0  0  1  0  0  0  0  0999 V2000
  161.9420  204.3410  149.7620 N   0  0  0  0  0  1  0  0  0  0  0  0
  161.0320  203.2770  146.2890 C   0  0  0  0  0  0  0  0  0  0  0  0
  160.9230  204.5310  145.6440 C   0  0  0  0  0  0  0  0  0  0  0  0
  161.4920  202.0250  148.3340 O   0  0  0  0  0  1  0  0  0  0  0  0
  161.3790  203.2370  147.6610 C   0  0  0  0  0  0  0  0  0  0  0  0
  161.6150  204.4230  148.3730 C   0  0  0  0  0  0  0  0  0  0  0  0
  161.1620  205.6990  146.3760 C   0  0  0  0  0  3  0  0  0  0  0  0
  161.5070  205.6700  147.7280 C   0  0  0  0  0  0  0  0  0  0  0  0
  162.4740  207.8460  147.9130 O   0  0  0  0  0  0  0  0  0  0  0  0
  161.1020  207.2050  149.6800 N   0  0  0  0  0  2  0  0  0  0  0  0
  161.7330  206.9600  148.4210 C   0  0  0  0  0  0  0  0  0  0  0  0
  161.2310  208.4690  150.3880 C   0  0  0  0  0  2  0  0  0  0  0  0
  160.9060  208.2730  151.8570 C   0  0  0  0  0  2  0  0  0  0  0  0
  161.3210  209.4470  152.6050 N   0  0  0  0  0  2  0  0  0  0  0  0
  160.2080  209.8440  153.4560 C   0  0  2  0  0  3  0  0  0  0  0  0
  159.5570  211.0970  152.9500 C   0  0  0  0  0  0  0  0  0  0  0  0
  157.9570  211.4960  153.5610 Cl  0  0  0  0  0  0  0  0  0  0  0  0
  160.1530  211.8330  152.0600 N   0  0  0  0  0  0  0  0  0  0  0  0
  159.5810  213.0210  151.5190 C   0  0  0  0  0  3  0  0  0  0  0  0
  160.0930  213.5600  150.5050 O   0  0  0  0  0  0  0  0  0  0  0  0
  160.6440  209.9590  154.9160 C   0  0  0  0  0  2  0  0  0  0  0  0
  161.3120  208.6920  155.4290 C   0  0  0  0  0  2  0  0  0  0  0  0
  161.9570  208.9820  157.0990 S   0  0  0  0  0  1  0  0  0  0  0  0
  159.5740  204.0560  143.7250 O   0  0  0  0  0  0  0  0  0  0  0  0
  160.5670  204.6630  144.2070 C   0  0  0  0  0  0  0  0  0  0  0  0
  161.3490  205.4940  143.3310 C   0  0  0  0  0  0  0  0  0  0  0  0
  162.0150  206.1910  142.6070 C   0  0  0  0  0  0  0  0  0  0  0  0
  163.0070  207.2060  141.5600 S   0  0  0  0  0  0  0  0  0  0  0  0
  161.2990  208.2480  139.6500 C   0  0  0  0  0  0  0  0  0  0  0  0
  161.8020  207.1580  140.2290 C   0  0  0  0  0  3  0  0  0  0  0  0
  161.7110  209.6210  140.0990 C   0  0  0  0  0  2  0  0  0  0  0  0
  162.8300  210.1460  139.2200 C   0  0  0  0  0  2  0  0  0  0  0  0
  162.8780  211.5380  139.3060 O   0  0  0  0  0  0  0  0  0  0  0  0
  162.7220  211.7990  140.5860 O   0  0  0  0  0  0  0  0  0  0  0  0
  163.3490  213.7710  139.6560 F   0  0  0  0  0  0  0  0  0  0  0  0
  162.5960  213.1900  140.6590 C   0  0  1  0  0  3  0  0  0  0  0  0
  161.2010  213.5610  140.4890 N   0  0  0  0  0  2  0  0  0  0  0  0
  161.8310  214.0590  142.7610 C   0  0  0  0  0  2  0  0  0  0  0  0
  160.7090  214.0180  141.7810 C   0  0  2  0  0  3  0  0  0  0  0  0
  161.7310  213.1020  143.6690 C   0  0  0  0  0  2  0  0  0  0  0  0
  159.6960  212.2000  144.7080 C   0  0  0  0  0  1  0  0  0  0  0  0
  160.5290  212.2590  143.4460 C   0  0  1  0  0  3  0  0  0  0  0  0
  159.7570  212.9770  142.3500 C   0  0  0  0  0  2  0  0  0  0  0  0
  160.3600  208.0700  138.6230 O   0  0  0  0  0  0  0  0  0  0  0  0
  159.4590  209.0740  138.1510 C   0  0  2  0  0  3  0  0  0  0  0  0
  158.7920  209.6800  139.2170 O   0  0  0  0  0  1  0  0  0  0  0  0
  158.4620  208.5050  137.1560 C   0  0  0  0  0  2  0  0  0  0  0  0
  157.1920  208.9670  137.4490 F   0  0  0  0  0  0  0  0  0  0  0  0
  159.5900  201.2870  145.5020 C   0  0  0  0  0  1  0  0  0  0  0  0
  160.8100  202.0770  145.5280 N   0  0  0  0  0  2  0  0  0  0  0  0
  2  5  1  0  0  0  0
  3  2  2  0  0  0  0
  3  7  1  0  0  0  0
  5  4  1  0  0  0  0
  5  6  2  0  0  0  0
  6  1  1  0  0  0  0
  7  8  2  0  0  0  0
  8  6  1  0  0  0  0
  8 11  1  0  0  0  0
  9 11  2  0  0  0  0
 10 12  1  0  0  0  0
 11 10  1  0  0  0  0
 12 13  1  0  0  0  0
 13 14  1  0  0  0  0
 14 15  1  0  0  0  0
 15 21  1  1  0  0  0
 16 15  1  0  0  0  0
 16 17  1  0  0  0  0
 18 16  2  0  0  0  0
 19 18  1  0  0  0  0
 20 19  2  0  0  0  0
 21 22  1  0  0  0  0
 22 23  1  0  0  0  0
 24 25  2  0  0  0  0
 25  3  1  0  0  0  0
 26 25  1  0  0  0  0
 27 26  3  0  0  0  0
 28 27  1  0  0  0  0
 29 31  1  0  0  0  0
 29 30  2  0  0  0  0
 30 28  1  0  0  0  0
 32 33  1  0  0  0  0
 32 31  1  0  0  0  0
 33 34  1  0  0  0  0
 34 36  1  0  0  0  0
 36 35  1  6  0  0  0
 37 36  1  0  0  0  0
 38 40  1  0  0  0  0
 39 37  1  6  0  0  0
 39 43  1  0  0  0  0
 39 38  1  0  0  0  0
 42 40  1  0  0  0  0
 42 41  1  1  0  0  0
 43 42  1  0  0  0  0
 44 29  1  0  0  0  0
 45 44  1  0  0  0  0
 45 46  1  1  0  0  0
 47 48  1  0  0  0  0
 47 45  1  0  0  0  0
 49 50  1  0  0  0  0
 50  2  1  0  0  0  0
M  END
>  <MODEL>
8

>  <REMARK>
 VINA RESULT:      -3.8      3.411      8.469
  Name = 
  24 active torsions:
  status: ('A' for Active; 'I' for Inactive)
    1  A    between atoms: C_1  and  N_47
    2  A    between atoms: C_5  and  N_29
    3  A    between atoms: C_5  and  C_39
    4  A    between atoms: N_7  and  C_19
    5  A    between atoms: N_7  and  C_37
    6  A    between atoms: C_8  and  C_13
    7  A    between atoms: C_9  and  C_25
    8  A    between atoms: C_9  and  O_43
    9  A    between atoms: C_10  and  N_49
   10  A    between atoms: C_11  and  C_20
   11  A    between atoms: C_11  and  O_43
   12  A    between atoms: C_12  and  C_42
   13  A    between atoms: C_13  and  N_29
   14  A    between atoms: C_13  and  C_42
   15  A    between atoms: C_15  and  C_50
   16  A    between atoms: S_16  and  C_22
   17  A    between atoms: S_16  and  C_33
   18  A    between atoms: O_18  and  O_32
   19  A    between atoms: O_18  and  C_46
   20  A    between atoms: C_21  and  C_50
   21  A    between atoms: N_23  and  C_39
   22  A    between atoms: C_25  and  C_46
   23  A    between atoms: C_27  and  C_45
   24  A    between atoms: O_32  and  C_37
                            x       y       z     vdW  Elec       q    Type
                         _______ _______ _______ _____ _____    ______ ____

>  <TORSDO>
F 24

$$$$
=
 OpenBabel11042422113D

 50 51  0  0  1  0  0  0  0  0999 V2000
  161.9630  206.6590  138.4790 N   0  0  0  0  0  1  0  0  0  0  0  0
  160.7750  210.1690  139.0190 C   0  0  0  0  0  0  0  0  0  0  0  0
  160.8860  210.2760  140.4250 C   0  0  0  0  0  0  0  0  0  0  0  0
  161.0490  208.8070  137.0110 O   0  0  0  0  0  1  0  0  0  0  0  0
  161.1460  208.9560  138.3900 C   0  0  0  0  0  0  0  0  0  0  0  0
  161.6190  207.8740  139.1490 C   0  0  0  0  0  0  0  0  0  0  0  0
  161.3600  209.1830  141.1580 C   0  0  0  0  0  3  0  0  0  0  0  0
  161.7300  207.9840  140.5480 C   0  0  0  0  0  0  0  0  0  0  0  0
  163.2190  206.1940  141.0800 O   0  0  0  0  0  0  0  0  0  0  0  0
  161.5290  206.5870  142.6320 N   0  0  0  0  0  2  0  0  0  0  0  0
  162.2130  206.8790  141.4100 C   0  0  0  0  0  0  0  0  0  0  0  0
  161.9800  205.5580  143.5540 C   0  0  0  0  0  2  0  0  0  0  0  0
  160.9200  205.3110  144.6110 C   0  0  0  0  0  2  0  0  0  0  0  0
  161.3560  204.2410  145.4920 N   0  0  0  0  0  2  0  0  0  0  0  0
  161.6230  204.8260  146.7980 C   0  0  2  0  0  3  0  0  0  0  0  0
  161.4480  203.8170  147.8920 C   0  0  0  0  0  0  0  0  0  0  0  0
  161.4560  204.3940  149.5540 Cl  0  0  0  0  0  0  0  0  0  0  0  0
  161.3340  202.5540  147.6080 N   0  0  0  0  0  0  0  0  0  0  0  0
  161.1900  201.5400  148.5990 C   0  0  0  0  0  3  0  0  0  0  0  0
  161.3920  200.3350  148.3000 O   0  0  0  0  0  0  0  0  0  0  0  0
  160.7830  206.0840  147.0220 C   0  0  0  0  0  2  0  0  0  0  0  0
  161.6350  207.3160  147.2950 C   0  0  0  0  0  2  0  0  0  0  0  0
  161.8250  207.5330  149.0840 S   0  0  0  0  0  1  0  0  0  0  0  0
  159.4910  212.1700  140.8620 O   0  0  0  0  0  0  0  0  0  0  0  0
  160.5230  211.5130  141.1640 C   0  0  0  0  0  0  0  0  0  0  0  0
  161.3400  211.9880  142.2480 C   0  0  0  0  0  0  0  0  0  0  0  0
  162.0220  212.4000  143.1530 C   0  0  0  0  0  0  0  0  0  0  0  0
  163.0110  213.0240  144.4730 S   0  0  0  0  0  0  0  0  0  0  0  0
  161.6160  213.0820  146.8620 C   0  0  0  0  0  0  0  0  0  0  0  0
  161.5860  213.2590  145.5410 C   0  0  0  0  0  3  0  0  0  0  0  0
  162.8770  212.6480  147.5540 C   0  0  0  0  0  2  0  0  0  0  0  0
  162.6180  211.4050  148.3830 C   0  0  0  0  0  2  0  0  0  0  0  0
  161.9400  211.7550  149.5520 O   0  0  0  0  0  0  0  0  0  0  0  0
  162.0290  210.6900  150.3210 O   0  0  0  0  0  0  0  0  0  0  0  0
  160.2870  211.7270  151.3380 F   0  0  0  0  0  0  0  0  0  0  0  0
  161.4930  211.0860  151.5500 C   0  0  1  0  0  3  0  0  0  0  0  0
  161.2750  209.9150  152.3840 N   0  0  0  0  0  2  0  0  0  0  0  0
  161.2970  211.1410  154.4590 C   0  0  0  0  0  2  0  0  0  0  0  0
  160.4680  210.3330  153.5220 C   0  0  2  0  0  3  0  0  0  0  0  0
  161.5620  210.4860  155.5770 C   0  0  0  0  0  2  0  0  0  0  0  0
  160.1070  208.9380  156.8120 C   0  0  0  0  0  1  0  0  0  0  0  0
  160.9570  209.1290  155.5750 C   0  0  1  0  0  3  0  0  0  0  0  0
  160.0760  209.1070  154.3340 C   0  0  0  0  0  2  0  0  0  0  0  0
  160.4300  213.2950  147.5790 O   0  0  0  0  0  0  0  0  0  0  0  0
  159.2340  213.8590  147.0380 C   0  0  2  0  0  3  0  0  0  0  0  0
  158.4670  214.4510  148.0420 O   0  0  0  0  0  1  0  0  0  0  0  0
  158.4160  212.8210  146.2890 C   0  0  0  0  0  2  0  0  0  0  0  0
  157.8990  211.8990  147.1800 F   0  0  0  0  0  0  0  0  0  0  0  0
  161.0180  211.9610  137.1790 C   0  0  0  0  0  1  0  0  0  0  0  0
  160.3120  211.3030  138.2650 N   0  0  0  0  0  2  0  0  0  0  0  0
  1  6  1  0  0  0  0
  2  3  1  0  0  0  0
  3  7  2  0  0  0  0
  3 25  1  0  0  0  0
  4  5  1  0  0  0  0
  5  2  2  0  0  0  0
  5  6  1  0  0  0  0
  6  8  2  0  0  0  0
  8  7  1  0  0  0  0
  8 11  1  0  0  0  0
  9 11  2  0  0  0  0
 10 12  1  0  0  0  0
 11 10  1  0  0  0  0
 12 13  1  0  0  0  0
 13 14  1  0  0  0  0
 14 15  1  0  0  0  0
 15 21  1  1  0  0  0
 15 16  1  0  0  0  0
 16 17  1  0  0  0  0
 18 16  2  0  0  0  0
 18 19  1  0  0  0  0
 20 19  2  0  0  0  0
 21 22  1  0  0  0  0
 22 23  1  0  0  0  0
 24 25  2  0  0  0  0
 25 26  1  0  0  0  0
 26 27  3  0  0  0  0
 27 28  1  0  0  0  0
 28 30  1  0  0  0  0
 29 31  1  0  0  0  0
 29 44  1  0  0  0  0
 30 29  2  0  0  0  0
 31 32  1  0  0  0  0
 32 33  1  0  0  0  0
 33 34  1  0  0  0  0
 34 36  1  0  0  0  0
 36 35  1  6  0  0  0
 36 37  1  0  0  0  0
 38 40  1  0  0  0  0
 39 37  1  6  0  0  0
 39 43  1  0  0  0  0
 39 38  1  0  0  0  0
 42 40  1  0  0  0  0
 42 41  1  1  0  0  0
 43 42  1  0  0  0  0
 45 44  1  0  0  0  0
 45 46  1  1  0  0  0
 47 45  1  0  0  0  0
 47 48  1  0  0  0  0
 49 50  1  0  0  0  0
 50  2  1  0  0  0  0
M  END
>  <MODEL>
9

>  <REMARK>
 VINA RESULT:      -3.6      3.137     10.299
  Name = 
  24 active torsions:
  status: ('A' for Active; 'I' for Inactive)
    1  A    between atoms: C_1  and  N_47
    2  A    between atoms: C_5  and  N_29
    3  A    between atoms: C_5  and  C_39
    4  A    between atoms: N_7  and  C_19
    5  A    between atoms: N_7  and  C_37
    6  A    between atoms: C_8  and  C_13
    7  A    between atoms: C_9  and  C_25
    8  A    between atoms: C_9  and  O_43
    9  A    between atoms: C_10  and  N_49
   10  A    between atoms: C_11  and  C_20
   11  A    between atoms: C_11  and  O_43
   12  A    between atoms: C_12  and  C_42
   13  A    between atoms: C_13  and  N_29
   14  A    between atoms: C_13  and  C_42
   15  A    between atoms: C_15  and  C_50
   16  A    between atoms: S_16  and  C_22
   17  A    between atoms: S_16  and  C_33
   18  A    between atoms: O_18  and  O_32
   19  A    between atoms: O_18  and  C_46
   20  A    between atoms: C_21  and  C_50
   21  A    between atoms: N_23  and  C_39
   22  A    between atoms: C_25  and  C_46
   23  A    between atoms: C_27  and  C_45
   24  A    between atoms: O_32  and  C_37
                            x       y       z     vdW  Elec       q    Type
                         _______ _______ _______ _____ _____    ______ ____

>  <TORSDO>
F 24

$$$$
