=
 OpenBabel11052409503D

 26 27  0  0  1  0  0  0  0  0999 V2000
  161.4030  206.9770  152.4230 C   0  0  0  0  0  0  0  0  0  0  0  0
  160.7640  205.8070  152.5860 C   0  0  0  0  0  3  0  0  0  0  0  0
  161.0850  202.3430  147.5310 C   0  0  0  0  0  3  0  0  0  0  0  0
  160.9680  203.5180  148.2800 C   0  0  0  0  0  3  0  0  0  0  0  0
  161.1870  201.1040  148.1800 C   0  0  0  0  0  0  0  0  0  0  0  0
  161.3250  199.8590  147.3790 C   0  0  0  0  0  1  0  0  0  0  0  0
  160.9630  203.4580  149.6800 C   0  0  0  0  0  0  0  0  0  0  0  0
  160.8790  204.5770  151.7780 C   0  0  0  0  0  0  0  0  0  0  0  0
  161.0870  202.2130  150.3300 C   0  0  0  0  0  0  0  0  0  0  0  0
  161.0900  202.1680  151.7250 C   0  0  0  0  0  3  0  0  0  0  0  0
  160.8580  204.5970  150.4140 N   0  0  0  0  0  0  0  0  0  0  0  0
  160.9880  203.3560  152.4520 C   0  0  0  0  0  3  0  0  0  0  0  0
  161.1920  201.0380  149.5790 C   0  0  0  0  0  3  0  0  0  0  0  0
  161.1110  208.0760  153.2940 N   0  0  0  0  0  2  0  0  0  0  0  0
  160.3360  207.8040  155.7210 N   0  0  0  0  0  0  0  0  0  0  0  0
  160.6850  207.9250  154.6230 C   0  0  0  0  0  0  0  0  0  0  0  0
  162.6110  207.2530  151.1180 S   0  0  0  0  0  0  0  0  0  0  0  0
  161.5150  208.3490  150.1540 C   0  0  0  0  0  2  0  0  0  0  0  0
  161.9190  208.4030  148.7580 N   0  0  0  0  0  2  0  0  0  0  0  0
  161.2300  207.3410  148.0560 C   0  0  0  0  0  2  0  0  0  0  0  0
  162.2450  206.3930  147.4660 C   0  0  0  0  0  2  0  0  0  0  0  0
  160.4590  206.2390  145.7570 C   0  0  0  0  0  1  0  0  0  0  0  0
  161.9540  206.1920  145.9950 C   0  0  2  0  0  3  0  0  0  0  0  0
  163.8160  204.5210  145.8460 O   0  0  0  0  0  1  0  0  0  0  0  0
  161.8020  204.1380  144.8130 O   0  0  0  0  0  0  0  0  0  0  0  0
  162.5130  204.8950  145.5240 C   0  0  0  0  0  0  0  0  0  0  0  0
  1  2  2  0  0  0  0
  1 14  1  0  0  0  0
  3  5  2  0  0  0  0
  3  4  1  0  0  0  0
  4  7  2  0  0  0  0
  5 13  1  0  0  0  0
  6  5  1  0  0  0  0
  7  9  1  0  0  0  0
  7 11  1  0  0  0  0
  8 12  1  0  0  0  0
  8  2  1  0  0  0  0
  9 10  1  0  0  0  0
 10 12  2  0  0  0  0
 11  8  2  0  0  0  0
 13  9  2  0  0  0  0
 14 16  1  0  0  0  0
 16 15  3  0  0  0  0
 17  1  1  0  0  0  0
 18 17  1  0  0  0  0
 19 18  1  0  0  0  0
 20 19  1  0  0  0  0
 21 20  1  0  0  0  0
 23 22  1  1  0  0  0
 23 21  1  0  0  0  0
 25 26  2  0  0  0  0
 26 24  1  0  0  0  0
 26 23  1  0  0  0  0
M  END
>  <MODEL>
1

>  <REMARK>
 VINA RESULT:      -7.3      0.000      0.000
  Name = 
  10 active torsions:
  status: ('A' for Active; 'I' for Inactive)
    1  A    between atoms: N_5  and  C_7
    2  A    between atoms: N_5  and  C_14
    3  A    between atoms: C_7  and  S_20
    4  A    between atoms: N_8  and  C_9
    5  A    between atoms: N_8  and  C_25
    6  A    between atoms: C_9  and  S_20
    7  A    between atoms: C_12  and  C_13
    8  A    between atoms: C_22  and  C_26
    9  A    between atoms: C_24  and  C_25
   10  A    between atoms: C_24  and  C_26
                            x       y       z     vdW  Elec       q    Type
                         _______ _______ _______ _____ _____    ______ ____

>  <TORSDO>
F 10

$$$$
=
 OpenBabel11052409503D

 26 27  0  0  1  0  0  0  0  0999 V2000
  161.9910  209.4550  149.7080 C   0  0  0  0  0  0  0  0  0  0  0  0
  161.8600  208.7290  148.5860 C   0  0  0  0  0  3  0  0  0  0  0  0
  160.5990  202.9610  150.2550 C   0  0  0  0  0  3  0  0  0  0  0  0
  160.7250  204.3450  150.4070 C   0  0  0  0  0  3  0  0  0  0  0  0
  160.9440  202.3520  149.0400 C   0  0  0  0  0  0  0  0  0  0  0  0
  160.7940  200.8820  148.8810 C   0  0  0  0  0  1  0  0  0  0  0  0
  161.1880  205.1260  149.3400 C   0  0  0  0  0  0  0  0  0  0  0  0
  161.7260  207.2660  148.4490 C   0  0  0  0  0  0  0  0  0  0  0  0
  161.5150  204.5140  148.1110 C   0  0  0  0  0  0  0  0  0  0  0  0
  161.9670  205.3050  147.0540 C   0  0  0  0  0  3  0  0  0  0  0  0
  161.3060  206.4730  149.4760 N   0  0  0  0  0  0  0  0  0  0  0  0
  162.0710  206.6870  147.2220 C   0  0  0  0  0  3  0  0  0  0  0  0
  161.3990  203.1290  147.9660 C   0  0  0  0  0  3  0  0  0  0  0  0
  162.1590  210.8750  149.6240 N   0  0  0  0  0  2  0  0  0  0  0  0
  161.5980  212.2490  147.5350 N   0  0  0  0  0  0  0  0  0  0  0  0
  161.8550  211.6290  148.4790 C   0  0  0  0  0  0  0  0  0  0  0  0
  161.9980  208.7170  151.3500 S   0  0  0  0  0  0  0  0  0  0  0  0
  161.4340  210.2420  152.1810 C   0  0  0  0  0  2  0  0  0  0  0  0
  160.1160  210.0650  152.7670 N   0  0  0  0  0  2  0  0  0  0  0  0
  160.1780  210.5150  154.1420 C   0  0  0  0  0  2  0  0  0  0  0  0
  161.3980  209.9240  154.8050 C   0  0  0  0  0  2  0  0  0  0  0  0
  162.1230  208.9440  156.9610 C   0  0  0  0  0  1  0  0  0  0  0  0
  160.9720  209.0800  155.9860 C   0  0  2  0  0  3  0  0  0  0  0  0
  159.3960  207.1330  156.0950 O   0  0  0  0  0  1  0  0  0  0  0  0
  161.1680  207.1360  154.6360 O   0  0  0  0  0  0  0  0  0  0  0  0
  160.5170  207.7360  155.5300 C   0  0  0  0  0  0  0  0  0  0  0  0
  1 17  1  0  0  0  0
  2  1  2  0  0  0  0
  3  4  1  0  0  0  0
  5  3  2  0  0  0  0
  6  5  1  0  0  0  0
  7 11  1  0  0  0  0
  7  4  2  0  0  0  0
  8  2  1  0  0  0  0
  8 11  2  0  0  0  0
  9  7  1  0  0  0  0
 10 12  2  0  0  0  0
 10  9  1  0  0  0  0
 12  8  1  0  0  0  0
 13  9  2  0  0  0  0
 13  5  1  0  0  0  0
 14  1  1  0  0  0  0
 15 16  3  0  0  0  0
 16 14  1  0  0  0  0
 17 18  1  0  0  0  0
 18 19  1  0  0  0  0
 19 20  1  0  0  0  0
 20 21  1  0  0  0  0
 21 23  1  0  0  0  0
 23 22  1  1  0  0  0
 25 26  2  0  0  0  0
 26 23  1  0  0  0  0
 26 24  1  0  0  0  0
M  END
>  <MODEL>
2

>  <REMARK>
 VINA RESULT:      -7.2      3.505      6.446
  Name = 
  10 active torsions:
  status: ('A' for Active; 'I' for Inactive)
    1  A    between atoms: N_5  and  C_7
    2  A    between atoms: N_5  and  C_14
    3  A    between atoms: C_7  and  S_20
    4  A    between atoms: N_8  and  C_9
    5  A    between atoms: N_8  and  C_25
    6  A    between atoms: C_9  and  S_20
    7  A    between atoms: C_12  and  C_13
    8  A    between atoms: C_22  and  C_26
    9  A    between atoms: C_24  and  C_25
   10  A    between atoms: C_24  and  C_26
                            x       y       z     vdW  Elec       q    Type
                         _______ _______ _______ _____ _____    ______ ____

>  <TORSDO>
F 10

$$$$
=
 OpenBabel11052409503D

 26 27  0  0  1  0  0  0  0  0999 V2000
  161.9520  208.3550  149.9880 C   0  0  0  0  0  0  0  0  0  0  0  0
  161.5620  207.9200  148.7790 C   0  0  0  0  0  3  0  0  0  0  0  0
  160.7520  201.8390  148.8510 C   0  0  0  0  0  3  0  0  0  0  0  0
  160.7670  203.1400  149.3610 C   0  0  0  0  0  3  0  0  0  0  0  0
  161.1530  201.5970  147.5280 C   0  0  0  0  0  0  0  0  0  0  0  0
  161.1210  200.2140  146.9870 C   0  0  0  0  0  1  0  0  0  0  0  0
  161.1740  204.2060  148.5480 C   0  0  0  0  0  0  0  0  0  0  0  0
  161.5460  206.5390  148.2610 C   0  0  0  0  0  0  0  0  0  0  0  0
  161.5570  203.9640  147.2120 C   0  0  0  0  0  0  0  0  0  0  0  0
  161.9510  205.0350  146.4100 C   0  0  0  0  0  3  0  0  0  0  0  0
  161.1840  205.4750  149.0340 N   0  0  0  0  0  0  0  0  0  0  0  0
  161.9440  206.3290  146.9360 C   0  0  0  0  0  3  0  0  0  0  0  0
  161.5510  202.6600  146.7080 C   0  0  0  0  0  3  0  0  0  0  0  0
  161.9380  209.7580  150.2800 N   0  0  0  0  0  2  0  0  0  0  0  0
  162.2210  211.5800  148.5020 N   0  0  0  0  0  0  0  0  0  0  0  0
  162.0950  210.7570  149.3070 C   0  0  0  0  0  0  0  0  0  0  0  0
  162.5340  207.2470  151.2810 S   0  0  0  0  0  0  0  0  0  0  0  0
  161.0230  207.4180  152.2910 C   0  0  0  0  0  2  0  0  0  0  0  0
  160.9360  206.3670  153.2910 N   0  0  0  0  0  2  0  0  0  0  0  0
  160.7760  206.9990  154.5850 C   0  0  0  0  0  2  0  0  0  0  0  0
  160.8270  208.4970  154.4170 C   0  0  0  0  0  2  0  0  0  0  0  0
  159.4120  210.1430  155.6100 C   0  0  0  0  0  1  0  0  0  0  0  0
  160.5590  209.1640  155.7480 C   0  0  2  0  0  3  0  0  0  0  0  0
  162.6420  209.2450  157.1410 O   0  0  0  0  0  1  0  0  0  0  0  0
  162.0240  211.0320  155.8400 O   0  0  0  0  0  0  0  0  0  0  0  0
  161.7810  209.8620  156.2370 C   0  0  0  0  0  0  0  0  0  0  0  0
  1 14  1  0  0  0  0
  1 17  1  0  0  0  0
  2  1  2  0  0  0  0
  3  4  1  0  0  0  0
  5  3  2  0  0  0  0
  6  5  1  0  0  0  0
  7 11  1  0  0  0  0
  7  4  2  0  0  0  0
  8  2  1  0  0  0  0
  8 11  2  0  0  0  0
  9  7  1  0  0  0  0
 10 12  2  0  0  0  0
 10  9  1  0  0  0  0
 12  8  1  0  0  0  0
 13  9  2  0  0  0  0
 13  5  1  0  0  0  0
 15 16  3  0  0  0  0
 16 14  1  0  0  0  0
 17 18  1  0  0  0  0
 18 19  1  0  0  0  0
 19 20  1  0  0  0  0
 21 20  1  0  0  0  0
 21 23  1  0  0  0  0
 23 22  1  6  0  0  0
 23 26  1  0  0  0  0
 25 26  2  0  0  0  0
 26 24  1  0  0  0  0
M  END
>  <MODEL>
3

>  <REMARK>
 VINA RESULT:      -6.9      3.789      6.458
  Name = 
  10 active torsions:
  status: ('A' for Active; 'I' for Inactive)
    1  A    between atoms: N_5  and  C_7
    2  A    between atoms: N_5  and  C_14
    3  A    between atoms: C_7  and  S_20
    4  A    between atoms: N_8  and  C_9
    5  A    between atoms: N_8  and  C_25
    6  A    between atoms: C_9  and  S_20
    7  A    between atoms: C_12  and  C_13
    8  A    between atoms: C_22  and  C_26
    9  A    between atoms: C_24  and  C_25
   10  A    between atoms: C_24  and  C_26
                            x       y       z     vdW  Elec       q    Type
                         _______ _______ _______ _____ _____    ______ ____

>  <TORSDO>
F 10

$$$$
=
 OpenBabel11052409503D

 26 27  0  0  1  0  0  0  0  0999 V2000
  161.5130  209.0140  151.4520 C   0  0  0  0  0  0  0  0  0  0  0  0
  161.2080  207.9020  152.1400 C   0  0  0  0  0  3  0  0  0  0  0  0
  161.1880  203.2830  148.1010 C   0  0  0  0  0  3  0  0  0  0  0  0
  161.2170  204.6120  148.5350 C   0  0  0  0  0  3  0  0  0  0  0  0
  161.0900  202.2410  149.0350 C   0  0  0  0  0  0  0  0  0  0  0  0
  161.0730  200.8300  148.5680 C   0  0  0  0  0  1  0  0  0  0  0  0
  161.1590  204.9020  149.9050 C   0  0  0  0  0  0  0  0  0  0  0  0
  161.1700  206.5070  151.6620 C   0  0  0  0  0  0  0  0  0  0  0  0
  161.0820  203.8510  150.8420 C   0  0  0  0  0  0  0  0  0  0  0  0
  161.0340  204.1530  152.2040 C   0  0  0  0  0  3  0  0  0  0  0  0
  161.1960  206.1900  150.3350 N   0  0  0  0  0  0  0  0  0  0  0  0
  161.0810  205.4870  152.6160 C   0  0  0  0  0  3  0  0  0  0  0  0
  161.0410  202.5240  150.4050 C   0  0  0  0  0  3  0  0  0  0  0  0
  161.4420  210.2930  152.0940 N   0  0  0  0  0  2  0  0  0  0  0  0
  161.8910  210.6620  154.5890 N   0  0  0  0  0  0  0  0  0  0  0  0
  161.6890  210.4920  153.4620 C   0  0  0  0  0  0  0  0  0  0  0  0
  161.9900  208.9850  149.7170 S   0  0  0  0  0  0  0  0  0  0  0  0
  162.1950  210.7960  149.6080 C   0  0  0  0  0  2  0  0  0  0  0  0
  161.8830  211.2820  148.2740 N   0  0  0  0  0  2  0  0  0  0  0  0
  161.7880  212.7260  148.3390 C   0  0  0  0  0  2  0  0  0  0  0  0
  162.8290  213.3340  147.4320 C   0  0  0  0  0  2  0  0  0  0  0  0
  160.7000  214.3450  146.6700 C   0  0  0  0  0  1  0  0  0  0  0  0
  162.1450  214.0770  146.3050 C   0  0  2  0  0  3  0  0  0  0  0  0
  163.4360  213.1390  144.3720 O   0  0  0  0  0  0  0  0  0  0  0  0
  161.1760  212.7840  144.5650 O   0  0  0  0  0  1  0  0  0  0  0  0
  162.2240  213.2940  145.0400 C   0  0  0  0  0  0  0  0  0  0  0  0
  1 14  1  0  0  0  0
  1  2  2  0  0  0  0
  3  4  2  0  0  0  0
  3  5  1  0  0  0  0
  4  7  1  0  0  0  0
  5 13  2  0  0  0  0
  6  5  1  0  0  0  0
  7 11  2  0  0  0  0
  7  9  1  0  0  0  0
  8  2  1  0  0  0  0
  8 12  2  0  0  0  0
  9 10  2  0  0  0  0
 10 12  1  0  0  0  0
 11  8  1  0  0  0  0
 13  9  1  0  0  0  0
 14 16  1  0  0  0  0
 16 15  3  0  0  0  0
 17  1  1  0  0  0  0
 18 17  1  0  0  0  0
 19 20  1  0  0  0  0
 19 18  1  0  0  0  0
 21 20  1  0  0  0  0
 23 22  1  1  0  0  0
 23 21  1  0  0  0  0
 24 26  2  0  0  0  0
 25 26  1  0  0  0  0
 26 23  1  0  0  0  0
M  END
>  <MODEL>
4

>  <REMARK>
 VINA RESULT:      -6.9      3.971      4.461
  Name = 
  10 active torsions:
  status: ('A' for Active; 'I' for Inactive)
    1  A    between atoms: N_5  and  C_7
    2  A    between atoms: N_5  and  C_14
    3  A    between atoms: C_7  and  S_20
    4  A    between atoms: N_8  and  C_9
    5  A    between atoms: N_8  and  C_25
    6  A    between atoms: C_9  and  S_20
    7  A    between atoms: C_12  and  C_13
    8  A    between atoms: C_22  and  C_26
    9  A    between atoms: C_24  and  C_25
   10  A    between atoms: C_24  and  C_26
                            x       y       z     vdW  Elec       q    Type
                         _______ _______ _______ _____ _____    ______ ____

>  <TORSDO>
F 10

$$$$
=
 OpenBabel11052409503D

 26 27  0  0  1  0  0  0  0  0999 V2000
  161.5140  206.6640  148.8710 C   0  0  0  0  0  0  0  0  0  0  0  0
  162.0530  207.6890  149.5500 C   0  0  0  0  0  3  0  0  0  0  0  0
  160.5690  207.2320  155.4870 C   0  0  0  0  0  3  0  0  0  0  0  0
  160.8480  206.7830  154.1930 C   0  0  0  0  0  3  0  0  0  0  0  0
  160.5770  208.6060  155.7710 C   0  0  0  0  0  0  0  0  0  0  0  0
  160.2930  209.0770  157.1510 C   0  0  0  0  0  1  0  0  0  0  0  0
  161.1460  207.7050  153.1810 C   0  0  0  0  0  0  0  0  0  0  0  0
  161.7490  208.1440  150.9210 C   0  0  0  0  0  0  0  0  0  0  0  0
  161.1740  209.0850  153.4740 C   0  0  0  0  0  0  0  0  0  0  0  0
  161.4810  209.9910  152.4590 C   0  0  0  0  0  3  0  0  0  0  0  0
  161.4270  207.2750  151.9220 N   0  0  0  0  0  0  0  0  0  0  0  0
  161.7720  209.5190  151.1770 C   0  0  0  0  0  3  0  0  0  0  0  0
  160.8830  209.5320  154.7650 C   0  0  0  0  0  3  0  0  0  0  0  0
  161.9150  206.4160  147.5180 N   0  0  0  0  0  2  0  0  0  0  0  0
  160.2670  206.1990  145.5690 N   0  0  0  0  0  0  0  0  0  0  0  0
  161.0140  206.2970  146.4480 C   0  0  0  0  0  0  0  0  0  0  0  0
  160.2620  205.5800  149.5750 S   0  0  0  0  0  0  0  0  0  0  0  0
  161.4360  204.2220  149.9060 C   0  0  0  0  0  2  0  0  0  0  0  0
  160.7960  203.1370  150.6320 N   0  0  0  0  0  2  0  0  0  0  0  0
  160.4250  202.1200  149.6700 C   0  0  0  0  0  2  0  0  0  0  0  0
  161.2210  202.3170  148.4040 C   0  0  0  0  0  2  0  0  0  0  0  0
  161.5790  200.0870  147.3880 C   0  0  0  0  0  1  0  0  0  0  0  0
  160.7390  201.3460  147.3480 C   0  0  2  0  0  3  0  0  0  0  0  0
  160.0900  201.4340  144.9280 O   0  0  0  0  0  0  0  0  0  0  0  0
  161.5290  202.9840  145.8200 O   0  0  0  0  0  1  0  0  0  0  0  0
  160.8040  201.9700  145.9970 C   0  0  0  0  0  0  0  0  0  0  0  0
  1  2  2  0  0  0  0
  1 17  1  0  0  0  0
  2  8  1  0  0  0  0
  3  5  1  0  0  0  0
  4  3  2  0  0  0  0
  5  6  1  0  0  0  0
  7  9  1  0  0  0  0
  7  4  1  0  0  0  0
  8 12  2  0  0  0  0
  8 11  1  0  0  0  0
  9 13  1  0  0  0  0
 10  9  2  0  0  0  0
 11  7  2  0  0  0  0
 12 10  1  0  0  0  0
 13  5  2  0  0  0  0
 14  1  1  0  0  0  0
 15 16  3  0  0  0  0
 16 14  1  0  0  0  0
 17 18  1  0  0  0  0
 18 19  1  0  0  0  0
 20 19  1  0  0  0  0
 21 20  1  0  0  0  0
 23 22  1  6  0  0  0
 23 21  1  0  0  0  0
 24 26  2  0  0  0  0
 25 26  1  0  0  0  0
 26 23  1  0  0  0  0
M  END
>  <MODEL>
5

>  <REMARK>
 VINA RESULT:      -6.9      1.871      6.785
  Name = 
  10 active torsions:
  status: ('A' for Active; 'I' for Inactive)
    1  A    between atoms: N_5  and  C_7
    2  A    between atoms: N_5  and  C_14
    3  A    between atoms: C_7  and  S_20
    4  A    between atoms: N_8  and  C_9
    5  A    between atoms: N_8  and  C_25
    6  A    between atoms: C_9  and  S_20
    7  A    between atoms: C_12  and  C_13
    8  A    between atoms: C_22  and  C_26
    9  A    between atoms: C_24  and  C_25
   10  A    between atoms: C_24  and  C_26
                            x       y       z     vdW  Elec       q    Type
                         _______ _______ _______ _____ _____    ______ ____

>  <TORSDO>
F 10

$$$$
=
 OpenBabel11052409503D

 26 27  0  0  1  0  0  0  0  0999 V2000
  161.3140  206.8410  152.8530 C   0  0  0  0  0  0  0  0  0  0  0  0
  161.3500  205.4990  152.8230 C   0  0  0  0  0  3  0  0  0  0  0  0
  161.2450  203.8340  146.9190 C   0  0  0  0  0  3  0  0  0  0  0  0
  161.3710  204.7000  148.0080 C   0  0  0  0  0  3  0  0  0  0  0  0
  160.9450  202.4790  147.1290 C   0  0  0  0  0  0  0  0  0  0  0  0
  160.8260  201.5600  145.9670 C   0  0  0  0  0  1  0  0  0  0  0  0
  161.2080  204.2140  149.3120 C   0  0  0  0  0  0  0  0  0  0  0  0
  161.2130  204.6020  151.6600 C   0  0  0  0  0  0  0  0  0  0  0  0
  160.9280  202.8470  149.5220 C   0  0  0  0  0  0  0  0  0  0  0  0
  160.7760  202.3740  150.8260 C   0  0  0  0  0  3  0  0  0  0  0  0
  161.3370  205.0480  150.3770 N   0  0  0  0  0  0  0  0  0  0  0  0
  160.9220  203.2550  151.9000 C   0  0  0  0  0  3  0  0  0  0  0  0
  160.7900  201.9850  148.4300 C   0  0  0  0  0  3  0  0  0  0  0  0
  161.4170  207.5300  154.1040 N   0  0  0  0  0  2  0  0  0  0  0  0
  159.6830  207.3420  155.9810 N   0  0  0  0  0  0  0  0  0  0  0  0
  160.4670  207.4240  155.1320 C   0  0  0  0  0  0  0  0  0  0  0  0
  161.1070  207.8430  151.3710 S   0  0  0  0  0  0  0  0  0  0  0  0
  162.0130  209.2730  152.0530 C   0  0  0  0  0  2  0  0  0  0  0  0
  161.2560  210.5030  151.8890 N   0  0  0  0  0  2  0  0  0  0  0  0
  160.0770  210.4140  152.7250 C   0  0  0  0  0  2  0  0  0  0  0  0
  160.1180  211.5100  153.7610 C   0  0  0  0  0  2  0  0  0  0  0  0
  158.8510  211.6220  155.8870 C   0  0  0  0  0  1  0  0  0  0  0  0
  159.9590  210.9080  155.1400 C   0  0  2  0  0  3  0  0  0  0  0  0
  161.2510  211.4200  157.2260 O   0  0  0  0  0  1  0  0  0  0  0  0
  162.3170  210.7000  155.3250 O   0  0  0  0  0  0  0  0  0  0  0  0
  161.2370  210.9960  155.8990 C   0  0  0  0  0  0  0  0  0  0  0  0
  1 14  1  0  0  0  0
  2  1  2  0  0  0  0
  3  5  2  0  0  0  0
  3  4  1  0  0  0  0
  4  7  2  0  0  0  0
  5 13  1  0  0  0  0
  6  5  1  0  0  0  0
  7  9  1  0  0  0  0
  7 11  1  0  0  0  0
  8 12  1  0  0  0  0
  8  2  1  0  0  0  0
  9 10  1  0  0  0  0
 10 12  2  0  0  0  0
 11  8  2  0  0  0  0
 13  9  2  0  0  0  0
 14 16  1  0  0  0  0
 16 15  3  0  0  0  0
 17 18  1  0  0  0  0
 17  1  1  0  0  0  0
 19 18  1  0  0  0  0
 19 20  1  0  0  0  0
 20 21  1  0  0  0  0
 21 23  1  0  0  0  0
 23 22  1  1  0  0  0
 23 26  1  0  0  0  0
 25 26  2  0  0  0  0
 26 24  1  0  0  0  0
M  END
>  <MODEL>
6

>  <REMARK>
 VINA RESULT:      -6.9      3.954      5.800
  Name = 
  10 active torsions:
  status: ('A' for Active; 'I' for Inactive)
    1  A    between atoms: N_5  and  C_7
    2  A    between atoms: N_5  and  C_14
    3  A    between atoms: C_7  and  S_20
    4  A    between atoms: N_8  and  C_9
    5  A    between atoms: N_8  and  C_25
    6  A    between atoms: C_9  and  S_20
    7  A    between atoms: C_12  and  C_13
    8  A    between atoms: C_22  and  C_26
    9  A    between atoms: C_24  and  C_25
   10  A    between atoms: C_24  and  C_26
                            x       y       z     vdW  Elec       q    Type
                         _______ _______ _______ _____ _____    ______ ____

>  <TORSDO>
F 10

$$$$
=
 OpenBabel11052409503D

 26 27  0  0  1  0  0  0  0  0999 V2000
  161.1800  207.3080  153.2930 C   0  0  0  0  0  0  0  0  0  0  0  0
  161.1630  205.9710  153.1650 C   0  0  0  0  0  3  0  0  0  0  0  0
  161.4120  204.8030  147.1470 C   0  0  0  0  0  3  0  0  0  0  0  0
  161.4290  205.5820  148.3070 C   0  0  0  0  0  3  0  0  0  0  0  0
  161.2090  203.4180  147.2330 C   0  0  0  0  0  0  0  0  0  0  0  0
  161.2060  202.5930  145.9970 C   0  0  0  0  0  1  0  0  0  0  0  0
  161.2540  204.9780  149.5590 C   0  0  0  0  0  0  0  0  0  0  0  0
  161.1400  205.1670  151.9280 C   0  0  0  0  0  0  0  0  0  0  0  0
  161.0720  203.5820  149.6450 C   0  0  0  0  0  0  0  0  0  0  0  0
  160.9080  202.9910  150.8980 C   0  0  0  0  0  3  0  0  0  0  0  0
  161.2780  205.7270  150.6920 N   0  0  0  0  0  0  0  0  0  0  0  0
  160.9450  203.7870  152.0460 C   0  0  0  0  0  3  0  0  0  0  0  0
  161.0430  202.8060  148.4820 C   0  0  0  0  0  3  0  0  0  0  0  0
  161.1490  207.9000  154.5970 N   0  0  0  0  0  2  0  0  0  0  0  0
  159.7590  206.9790  156.5420 N   0  0  0  0  0  0  0  0  0  0  0  0
  160.3900  207.3940  155.6640 C   0  0  0  0  0  0  0  0  0  0  0  0
  161.2090  208.4210  151.8790 S   0  0  0  0  0  0  0  0  0  0  0  0
  160.5490  209.8410  152.8180 C   0  0  0  0  0  2  0  0  0  0  0  0
  160.7000  211.0810  152.0730 N   0  0  0  0  0  2  0  0  0  0  0  0
  159.9340  212.1040  152.7550 C   0  0  0  0  0  2  0  0  0  0  0  0
  158.5230  211.6130  152.9630 C   0  0  0  0  0  2  0  0  0  0  0  0
  158.9730  213.1600  154.8450 C   0  0  0  0  0  1  0  0  0  0  0  0
  157.9670  212.2030  154.2410 C   0  0  2  0  0  3  0  0  0  0  0  0
  156.3070  210.8500  155.5450 O   0  0  0  0  0  0  0  0  0  0  0  0
  158.5610  210.4640  155.7460 O   0  0  0  0  0  1  0  0  0  0  0  0
  157.6320  211.1230  155.2110 C   0  0  0  0  0  0  0  0  0  0  0  0
  1 14  1  0  0  0  0
  2  1  2  0  0  0  0
  3  5  2  0  0  0  0
  3  4  1  0  0  0  0
  4  7  2  0  0  0  0
  5 13  1  0  0  0  0
  6  5  1  0  0  0  0
  7  9  1  0  0  0  0
  7 11  1  0  0  0  0
  8 12  1  0  0  0  0
  8  2  1  0  0  0  0
  9 10  1  0  0  0  0
 10 12  2  0  0  0  0
 11  8  2  0  0  0  0
 13  9  2  0  0  0  0
 14 16  1  0  0  0  0
 16 15  3  0  0  0  0
 17 18  1  0  0  0  0
 17  1  1  0  0  0  0
 19 20  1  0  0  0  0
 19 18  1  0  0  0  0
 20 21  1  0  0  0  0
 21 23  1  0  0  0  0
 23 22  1  1  0  0  0
 23 26  1  0  0  0  0
 26 24  2  0  0  0  0
 26 25  1  0  0  0  0
M  END
>  <MODEL>
7

>  <REMARK>
 VINA RESULT:      -6.9      4.442      6.098
  Name = 
  10 active torsions:
  status: ('A' for Active; 'I' for Inactive)
    1  A    between atoms: N_5  and  C_7
    2  A    between atoms: N_5  and  C_14
    3  A    between atoms: C_7  and  S_20
    4  A    between atoms: N_8  and  C_9
    5  A    between atoms: N_8  and  C_25
    6  A    between atoms: C_9  and  S_20
    7  A    between atoms: C_12  and  C_13
    8  A    between atoms: C_22  and  C_26
    9  A    between atoms: C_24  and  C_25
   10  A    between atoms: C_24  and  C_26
                            x       y       z     vdW  Elec       q    Type
                         _______ _______ _______ _____ _____    ______ ____

>  <TORSDO>
F 10

$$$$
=
 OpenBabel11052409503D

 26 27  0  0  1  0  0  0  0  0999 V2000
  161.1270  207.6480  153.6810 C   0  0  0  0  0  0  0  0  0  0  0  0
  161.2630  206.3320  153.4500 C   0  0  0  0  0  3  0  0  0  0  0  0
  160.8440  201.5510  149.6280 C   0  0  0  0  0  3  0  0  0  0  0  0
  160.9030  202.2120  150.8580 C   0  0  0  0  0  3  0  0  0  0  0  0
  160.9370  202.2790  148.4330 C   0  0  0  0  0  0  0  0  0  0  0  0
  160.8590  201.5710  147.1280 C   0  0  0  0  0  1  0  0  0  0  0  0
  161.0460  203.6050  150.8970 C   0  0  0  0  0  0  0  0  0  0  0  0
  161.2060  205.6140  152.1620 C   0  0  0  0  0  0  0  0  0  0  0  0
  161.1180  204.3380  149.6930 C   0  0  0  0  0  0  0  0  0  0  0  0
  161.2510  205.7260  149.7460 C   0  0  0  0  0  3  0  0  0  0  0  0
  161.0960  204.2570  152.0880 N   0  0  0  0  0  0  0  0  0  0  0  0
  161.2930  206.3680  150.9860 C   0  0  0  0  0  3  0  0  0  0  0  0
  161.0700  203.6730  148.4650 C   0  0  0  0  0  3  0  0  0  0  0  0
  161.1650  208.1440  155.0240 N   0  0  0  0  0  2  0  0  0  0  0  0
  159.9930  207.0060  156.9970 N   0  0  0  0  0  0  0  0  0  0  0  0
  160.5240  207.5180  156.1040 C   0  0  0  0  0  0  0  0  0  0  0  0
  160.8610  208.8450  152.3630 S   0  0  0  0  0  0  0  0  0  0  0  0
  161.6530  210.2160  153.2710 C   0  0  0  0  0  2  0  0  0  0  0  0
  160.7700  211.3670  153.3620 N   0  0  0  0  0  2  0  0  0  0  0  0
  159.4070  210.8880  153.2760 C   0  0  0  0  0  2  0  0  0  0  0  0
  158.7250  211.0850  154.6070 C   0  0  0  0  0  2  0  0  0  0  0  0
  157.7150  213.3430  154.7380 C   0  0  0  0  0  1  0  0  0  0  0  0
  157.4570  211.8860  154.4120 C   0  0  2  0  0  3  0  0  0  0  0  0
  155.4060  210.4830  154.7430 O   0  0  0  0  0  0  0  0  0  0  0  0
  156.2960  211.6990  156.4750 O   0  0  0  0  0  1  0  0  0  0  0  0
  156.3620  211.3490  155.2680 C   0  0  0  0  0  0  0  0  0  0  0  0
  1 14  1  0  0  0  0
  2  1  2  0  0  0  0
  3  4  1  0  0  0  0
  4  7  2  0  0  0  0
  5 13  1  0  0  0  0
  5  3  2  0  0  0  0
  6  5  1  0  0  0  0
  7 11  1  0  0  0  0
  8  2  1  0  0  0  0
  9 10  1  0  0  0  0
  9  7  1  0  0  0  0
 10 12  2  0  0  0  0
 11  8  2  0  0  0  0
 12  8  1  0  0  0  0
 13  9  2  0  0  0  0
 14 16  1  0  0  0  0
 16 15  3  0  0  0  0
 17 18  1  0  0  0  0
 17  1  1  0  0  0  0
 18 19  1  0  0  0  0
 20 19  1  0  0  0  0
 20 21  1  0  0  0  0
 23 21  1  0  0  0  0
 23 22  1  1  0  0  0
 23 26  1  0  0  0  0
 24 26  2  0  0  0  0
 26 25  1  0  0  0  0
M  END
>  <MODEL>
8

>  <REMARK>
 VINA RESULT:      -6.8      4.692      6.510
  Name = 
  10 active torsions:
  status: ('A' for Active; 'I' for Inactive)
    1  A    between atoms: N_5  and  C_7
    2  A    between atoms: N_5  and  C_14
    3  A    between atoms: C_7  and  S_20
    4  A    between atoms: N_8  and  C_9
    5  A    between atoms: N_8  and  C_25
    6  A    between atoms: C_9  and  S_20
    7  A    between atoms: C_12  and  C_13
    8  A    between atoms: C_22  and  C_26
    9  A    between atoms: C_24  and  C_25
   10  A    between atoms: C_24  and  C_26
                            x       y       z     vdW  Elec       q    Type
                         _______ _______ _______ _____ _____    ______ ____

>  <TORSDO>
F 10

$$$$
=
 OpenBabel11052409503D

 26 27  0  0  1  0  0  0  0  0999 V2000
  161.0970  207.6580  153.4850 C   0  0  0  0  0  0  0  0  0  0  0  0
  161.2900  206.3520  153.2430 C   0  0  0  0  0  3  0  0  0  0  0  0
  161.6410  205.6530  147.1570 C   0  0  0  0  0  3  0  0  0  0  0  0
  161.6450  206.3390  148.3750 C   0  0  0  0  0  3  0  0  0  0  0  0
  161.4210  204.2680  147.1320 C   0  0  0  0  0  0  0  0  0  0  0  0
  161.4310  203.5420  145.8350 C   0  0  0  0  0  1  0  0  0  0  0  0
  161.4390  205.6410  149.5720 C   0  0  0  0  0  0  0  0  0  0  0  0
  161.2810  205.6470  151.9470 C   0  0  0  0  0  0  0  0  0  0  0  0
  161.2390  204.2450  149.5460 C   0  0  0  0  0  0  0  0  0  0  0  0
  161.0440  203.5610  150.7460 C   0  0  0  0  0  3  0  0  0  0  0  0
  161.4500  206.3000  150.7610 N   0  0  0  0  0  0  0  0  0  0  0  0
  161.0680  204.2640  151.9530 C   0  0  0  0  0  3  0  0  0  0  0  0
  161.2240  203.5630  148.3260 C   0  0  0  0  0  3  0  0  0  0  0  0
  161.0940  208.1410  154.8340 N   0  0  0  0  0  2  0  0  0  0  0  0
  159.8320  207.0050  156.7530 N   0  0  0  0  0  0  0  0  0  0  0  0
  160.4020  207.5170  155.8840 C   0  0  0  0  0  0  0  0  0  0  0  0
  160.8030  208.8590  152.1760 S   0  0  0  0  0  0  0  0  0  0  0  0
  161.6610  210.2140  153.0470 C   0  0  0  0  0  2  0  0  0  0  0  0
  160.8020  211.3790  153.1840 N   0  0  0  0  0  2  0  0  0  0  0  0
  159.4320  210.9430  153.0110 C   0  0  0  0  0  2  0  0  0  0  0  0
  158.5280  211.7830  153.8790 C   0  0  0  0  0  2  0  0  0  0  0  0
  156.5250  211.1130  155.1740 C   0  0  0  0  0  1  0  0  0  0  0  0
  158.0250  210.9500  155.0380 C   0  0  2  0  0  3  0  0  0  0  0  0
  158.0500  212.1270  157.2520 O   0  0  0  0  0  1  0  0  0  0  0  0
  159.8960  210.9870  156.5010 O   0  0  0  0  0  0  0  0  0  0  0  0
  158.7060  211.3480  156.3020 C   0  0  0  0  0  0  0  0  0  0  0  0
  1 14  1  0  0  0  0
  2  1  2  0  0  0  0
  3  4  1  0  0  0  0
  4  7  2  0  0  0  0
  5  3  2  0  0  0  0
  5 13  1  0  0  0  0
  6  5  1  0  0  0  0
  7 11  1  0  0  0  0
  8 12  1  0  0  0  0
  8  2  1  0  0  0  0
  9  7  1  0  0  0  0
  9 10  1  0  0  0  0
 10 12  2  0  0  0  0
 11  8  2  0  0  0  0
 13  9  2  0  0  0  0
 14 16  1  0  0  0  0
 16 15  3  0  0  0  0
 17 18  1  0  0  0  0
 17  1  1  0  0  0  0
 18 19  1  0  0  0  0
 20 19  1  0  0  0  0
 20 21  1  0  0  0  0
 21 23  1  0  0  0  0
 23 22  1  1  0  0  0
 23 26  1  0  0  0  0
 26 25  2  0  0  0  0
 26 24  1  0  0  0  0
M  END
>  <MODEL>
9

>  <REMARK>
 VINA RESULT:      -6.8      4.561      6.457
  Name = 
  10 active torsions:
  status: ('A' for Active; 'I' for Inactive)
    1  A    between atoms: N_5  and  C_7
    2  A    between atoms: N_5  and  C_14
    3  A    between atoms: C_7  and  S_20
    4  A    between atoms: N_8  and  C_9
    5  A    between atoms: N_8  and  C_25
    6  A    between atoms: C_9  and  S_20
    7  A    between atoms: C_12  and  C_13
    8  A    between atoms: C_22  and  C_26
    9  A    between atoms: C_24  and  C_25
   10  A    between atoms: C_24  and  C_26
                            x       y       z     vdW  Elec       q    Type
                         _______ _______ _______ _____ _____    ______ ____

>  <TORSDO>
F 10

$$$$
