=
 OpenBabel11042422363D

 33 37  0  0  1  0  0  0  0  0999 V2000
  161.3420  209.2620  152.0020 C   0  0  0  0  0  3  0  0  0  0  0  0
  161.8790  210.3000  149.8530 C   0  0  0  0  0  0  0  0  0  0  0  0
  161.6410  210.4030  151.2390 C   0  0  0  0  0  3  0  0  0  0  0  0
  160.9810  206.6720  151.8970 C   0  0  2  0  0  3  0  0  0  0  0  0
  162.0320  208.9190  147.8500 O   0  0  0  0  0  1  0  0  0  0  0  0
  161.0570  205.8210  150.7040 N   0  0  0  0  0  0  0  0  0  0  0  0
  161.5010  205.9990  148.3390 N   0  0  0  0  0  2  0  0  0  0  0  0
  161.8120  209.0450  149.2180 C   0  0  0  0  0  0  0  0  0  0  0  0
  161.5150  207.9290  150.0020 C   0  0  0  0  0  0  0  0  0  0  0  0
  161.2950  208.0290  151.3500 C   0  0  0  0  0  0  0  0  0  0  0  0
  161.3550  206.5330  149.6620 C   0  0  0  0  0  0  0  0  0  0  0  0
  159.1960  213.0930  147.1620 C   0  0  0  0  0  3  0  0  0  0  0  0
  162.1800  211.4730  149.1040 N   0  0  0  0  0  0  0  0  0  0  0  0
  161.7990  212.5940  148.2040 C   0  0  1  0  0  0  0  0  0  0  0  0
  160.8860  214.4470  145.5400 Cl  0  0  0  0  0  0  0  0  0  0  0  0
  160.8810  213.5960  148.9030 C   0  0  0  0  0  2  0  0  0  0  0  0
  159.4630  213.4190  148.4350 C   0  0  0  0  0  3  0  0  0  0  0  0
  160.3070  212.8800  146.1670 C   0  0  1  0  0  3  0  0  0  0  0  0
  163.1120  212.5350  148.6100 C   0  0  0  0  0  2  0  0  0  0  0  0
  161.4680  212.0960  146.7920 C   0  0  0  0  0  2  0  0  0  0  0  0
  161.0340  203.6230  148.8680 C   0  0  0  0  0  3  0  0  0  0  0  0
  161.1120  201.9430  147.1050 C   0  0  0  0  0  0  0  0  0  0  0  0
  160.9070  202.2900  148.4650 C   0  0  0  0  0  0  0  0  0  0  0  0
  161.5660  204.2850  146.6110 C   0  0  0  0  0  3  0  0  0  0  0  0
  161.3640  204.6260  147.9490 C   0  0  0  0  0  0  0  0  0  0  0  0
  160.5530  201.2900  149.5120 C   0  0  0  0  0  1  0  0  0  0  0  0
  161.4410  202.9580  146.1950 C   0  0  0  0  0  3  0  0  0  0  0  0
  160.9990  200.5590  146.5850 C   0  0  0  0  0  0  0  0  0  0  0  0
  160.2170  200.3030  145.4630 O   0  0  0  0  0  0  0  0  0  0  0  0
  161.5960  199.5980  147.1380 O   0  0  0  0  0  1  0  0  0  0  0  0
  162.0390  206.2300  152.9010 C   0  0  0  0  0  2  0  0  0  0  0  0
  160.7100  206.9870  154.5630 O   0  0  0  0  0  1  0  0  0  0  0  0
  161.4240  205.9030  154.1780 N   0  0  0  0  0  2  0  0  0  0  0  0
  2  3  1  0  0  0  0
  3  1  2  0  0  0  0
  4 31  1  1  0  0  0
  5  8  1  0  0  0  0
  6  4  1  0  0  0  0
  7 11  1  0  0  0  0
  8  2  2  0  0  0  0
  8  9  1  0  0  0  0
  9 10  2  0  0  0  0
 10  4  1  0  0  0  0
 10  1  1  0  0  0  0
 11  9  1  0  0  0  0
 11  6  2  0  0  0  0
 12 17  2  0  0  0  0
 13  2  1  0  0  0  0
 14 20  1  6  0  0  0
 14 19  1  0  0  0  0
 14 16  1  0  0  0  0
 14 13  1  0  0  0  0
 17 16  1  0  0  0  0
 18 15  1  1  0  0  0
 18 20  1  0  0  0  0
 18 12  1  0  0  0  0
 19 13  1  0  0  0  0
 22 23  2  0  0  0  0
 23 21  1  0  0  0  0
 23 26  1  0  0  0  0
 24 25  1  0  0  0  0
 25  7  1  0  0  0  0
 25 21  2  0  0  0  0
 27 24  2  0  0  0  0
 27 22  1  0  0  0  0
 28 22  1  0  0  0  0
 28 30  1  0  0  0  0
 29 28  2  0  0  0  0
 31 33  1  0  0  0  0
 33 32  1  0  0  0  0
M  END
>  <MODEL>
1

>  <REMARK>
 VINA RESULT:      -8.5      0.000      0.000
  Name = 
  5 active torsions:
  status: ('A' for Active; 'I' for Inactive)
    1  A    between atoms: C_1  and  C_8
    2  A    between atoms: N_3  and  C_11
    3  A    between atoms: N_13  and  C_18
    4  A    between atoms: C_18  and  C_19
    5  A    between atoms: C_22  and  N_25
                            x       y       z     vdW  Elec       q    Type
                         _______ _______ _______ _____ _____    ______ ____

>  <TORSDO>
F 5

$$$$
=
 OpenBabel11042422363D

 33 37  0  0  1  0  0  0  0  0999 V2000
  162.1070  210.8050  151.3570 C   0  0  0  0  0  3  0  0  0  0  0  0
  160.8140  209.9950  153.2680 C   0  0  0  0  0  0  0  0  0  0  0  0
  161.5040  211.0310  152.6060 C   0  0  0  0  0  3  0  0  0  0  0  0
  162.5510  209.0080  149.5060 C   0  0  2  0  0  3  0  0  0  0  0  0
  160.0610  207.6770  153.3230 O   0  0  0  0  0  1  0  0  0  0  0  0
  162.1190  207.6060  149.5200 N   0  0  0  0  0  0  0  0  0  0  0  0
  160.8850  206.0720  150.9150 N   0  0  0  0  0  2  0  0  0  0  0  0
  160.7280  208.7170  152.6830 C   0  0  0  0  0  0  0  0  0  0  0  0
  161.3340  208.5230  151.4410 C   0  0  0  0  0  0  0  0  0  0  0  0
  161.9950  209.5330  150.7930 C   0  0  0  0  0  0  0  0  0  0  0  0
  161.4450  207.3540  150.5990 C   0  0  0  0  0  0  0  0  0  0  0  0
  157.4090  212.9810  154.5850 C   0  0  0  0  0  3  0  0  0  0  0  0
  160.2110  210.2520  154.5330 N   0  0  0  0  0  0  0  0  0  0  0  0
  159.2490  210.9700  155.4100 C   0  0  1  0  0  0  0  0  0  0  0  0
  157.6620  213.2990  157.2600 Cl  0  0  0  0  0  0  0  0  0  0  0  0
  157.8020  210.5910  155.0970 C   0  0  0  0  0  2  0  0  0  0  0  0
  157.1300  211.6950  154.3260 C   0  0  0  0  0  3  0  0  0  0  0  0
  158.4130  213.3590  155.6430 C   0  0  1  0  0  3  0  0  0  0  0  0
  160.0470  210.0190  156.0030 C   0  0  0  0  0  2  0  0  0  0  0  0
  159.6420  212.4410  155.5940 C   0  0  0  0  0  2  0  0  0  0  0  0
  161.2530  204.9280  148.7480 C   0  0  0  0  0  3  0  0  0  0  0  0
  161.0740  202.5020  148.6030 C   0  0  0  0  0  0  0  0  0  0  0  0
  161.3150  203.7570  147.9860 C   0  0  0  0  0  0  0  0  0  0  0  0
  160.7180  203.6510  150.7220 C   0  0  0  0  0  3  0  0  0  0  0  0
  160.9550  204.8850  150.1150 C   0  0  0  0  0  0  0  0  0  0  0  0
  161.6400  203.8990  146.5380 C   0  0  0  0  0  1  0  0  0  0  0  0
  160.7770  202.4740  149.9730 C   0  0  0  0  0  3  0  0  0  0  0  0
  161.1170  201.2100  147.8770 C   0  0  0  0  0  0  0  0  0  0  0  0
  160.6240  201.1290  146.5790 O   0  0  0  0  0  0  0  0  0  0  0  0
  161.5920  200.1720  148.4100 O   0  0  0  0  0  1  0  0  0  0  0  0
  161.9240  209.7180  148.3120 C   0  0  0  0  0  2  0  0  0  0  0  0
  161.2420  211.8530  148.0250 O   0  0  0  0  0  1  0  0  0  0  0  0
  162.3480  211.1090  148.2670 N   0  0  0  0  0  2  0  0  0  0  0  0
  1  3  1  0  0  0  0
  2 13  1  0  0  0  0
  3  2  2  0  0  0  0
  4 31  1  6  0  0  0
  4  6  1  0  0  0  0
  4 10  1  0  0  0  0
  6 11  2  0  0  0  0
  8  2  1  0  0  0  0
  8  5  1  0  0  0  0
  9  8  2  0  0  0  0
 10  1  2  0  0  0  0
 10  9  1  0  0  0  0
 11  7  1  0  0  0  0
 11  9  1  0  0  0  0
 12 18  1  0  0  0  0
 13 14  1  0  0  0  0
 13 19  1  0  0  0  0
 14 16  1  6  0  0  0
 14 20  1  0  0  0  0
 14 19  1  0  0  0  0
 17 12  2  0  0  0  0
 17 16  1  0  0  0  0
 18 15  1  1  0  0  0
 20 18  1  0  0  0  0
 21 25  1  0  0  0  0
 22 27  2  0  0  0  0
 23 22  1  0  0  0  0
 23 21  2  0  0  0  0
 25 24  2  0  0  0  0
 25  7  1  0  0  0  0
 26 23  1  0  0  0  0
 27 24  1  0  0  0  0
 28 30  1  0  0  0  0
 28 22  1  0  0  0  0
 29 28  2  0  0  0  0
 32 33  1  0  0  0  0
 33 31  1  0  0  0  0
M  END
>  <MODEL>
2

>  <REMARK>
 VINA RESULT:      -7.3      3.492      5.448
  Name = 
  5 active torsions:
  status: ('A' for Active; 'I' for Inactive)
    1  A    between atoms: C_1  and  C_8
    2  A    between atoms: N_3  and  C_11
    3  A    between atoms: N_13  and  C_18
    4  A    between atoms: C_18  and  C_19
    5  A    between atoms: C_22  and  N_25
                            x       y       z     vdW  Elec       q    Type
                         _______ _______ _______ _____ _____    ______ ____

>  <TORSDO>
F 5

$$$$
=
 OpenBabel11042422363D

 33 37  0  0  1  0  0  0  0  0999 V2000
  160.6850  205.9430  154.2620 C   0  0  0  0  0  3  0  0  0  0  0  0
  161.2170  208.3020  153.8940 C   0  0  0  0  0  0  0  0  0  0  0  0
  160.9130  207.2350  154.7650 C   0  0  0  0  0  3  0  0  0  0  0  0
  160.5600  204.5050  152.0790 C   0  0  2  0  0  3  0  0  0  0  0  0
  161.5760  209.1200  151.6270 O   0  0  0  0  0  1  0  0  0  0  0  0
  160.7610  204.9750  150.7040 N   0  0  0  0  0  0  0  0  0  0  0  0
  161.2870  207.0030  149.5080 N   0  0  0  0  0  2  0  0  0  0  0  0
  161.2890  208.0810  152.5060 C   0  0  0  0  0  0  0  0  0  0  0  0
  161.0590  206.7870  152.0360 C   0  0  0  0  0  0  0  0  0  0  0  0
  160.7750  205.7490  152.8830 C   0  0  0  0  0  0  0  0  0  0  0  0
  161.0380  206.2420  150.6980 C   0  0  0  0  0  0  0  0  0  0  0  0
  158.2650  211.5770  155.5670 C   0  0  0  0  0  3  0  0  0  0  0  0
  161.4440  209.6020  154.4320 N   0  0  0  0  0  0  0  0  0  0  0  0
  160.9720  210.8840  155.0190 C   0  0  1  0  0  0  0  0  0  0  0  0
  159.6020  213.9290  155.4820 Cl  0  0  0  0  0  0  0  0  0  0  0  0
  160.4090  210.6900  156.4270 C   0  0  0  0  0  2  0  0  0  0  0  0
  158.9060  210.7440  156.4000 C   0  0  0  0  0  3  0  0  0  0  0  0
  159.0290  212.4730  154.6250 C   0  0  1  0  0  3  0  0  0  0  0  0
  162.3290  210.7360  154.8450 C   0  0  0  0  0  2  0  0  0  0  0  0
  160.2110  211.7290  153.9910 C   0  0  0  0  0  2  0  0  0  0  0  0
  162.3610  205.7800  147.6390 C   0  0  0  0  0  3  0  0  0  0  0  0
  161.2210  205.5840  145.4950 C   0  0  0  0  0  0  0  0  0  0  0  0
  162.3410  205.3140  146.3210 C   0  0  0  0  0  0  0  0  0  0  0  0
  160.1860  206.7800  147.3480 C   0  0  0  0  0  3  0  0  0  0  0  0
  161.2880  206.5140  148.1610 C   0  0  0  0  0  0  0  0  0  0  0  0
  163.5270  204.5410  145.8520 C   0  0  0  0  0  1  0  0  0  0  0  0
  160.1540  206.3200  146.0300 C   0  0  0  0  0  3  0  0  0  0  0  0
  161.1110  205.1320  144.0870 C   0  0  0  0  0  0  0  0  0  0  0  0
  161.7660  205.8370  143.0820 O   0  0  0  0  0  0  0  0  0  0  0  0
  160.4350  204.1180  143.7730 O   0  0  0  0  0  1  0  0  0  0  0  0
  161.6100  203.4520  152.4130 C   0  0  0  0  0  2  0  0  0  0  0  0
  160.7740  201.8520  151.0550 O   0  0  0  0  0  1  0  0  0  0  0  0
  161.8760  202.6140  151.2530 N   0  0  0  0  0  2  0  0  0  0  0  0
  1  3  1  0  0  0  0
  2 13  1  0  0  0  0
  2  3  2  0  0  0  0
  4 31  1  1  0  0  0
  4 10  1  0  0  0  0
  5  8  1  0  0  0  0
  6  4  1  0  0  0  0
  7 11  1  0  0  0  0
  8  2  1  0  0  0  0
  9  8  2  0  0  0  0
  9 10  1  0  0  0  0
 10  1  2  0  0  0  0
 11  6  2  0  0  0  0
 11  9  1  0  0  0  0
 12 17  2  0  0  0  0
 13 19  1  0  0  0  0
 13 14  1  0  0  0  0
 14 20  1  6  0  0  0
 14 16  1  0  0  0  0
 17 16  1  0  0  0  0
 18 15  1  1  0  0  0
 18 12  1  0  0  0  0
 19 14  1  0  0  0  0
 20 18  1  0  0  0  0
 21 25  1  0  0  0  0
 22 27  2  0  0  0  0
 22 23  1  0  0  0  0
 23 21  2  0  0  0  0
 24 25  2  0  0  0  0
 25  7  1  0  0  0  0
 26 23  1  0  0  0  0
 27 24  1  0  0  0  0
 28 22  1  0  0  0  0
 29 28  2  0  0  0  0
 30 28  1  0  0  0  0
 32 33  1  0  0  0  0
 33 31  1  0  0  0  0
M  END
>  <MODEL>
3

>  <REMARK>
 VINA RESULT:      -7.1      4.173      5.324
  Name = 
  5 active torsions:
  status: ('A' for Active; 'I' for Inactive)
    1  A    between atoms: C_1  and  C_8
    2  A    between atoms: N_3  and  C_11
    3  A    between atoms: N_13  and  C_18
    4  A    between atoms: C_18  and  C_19
    5  A    between atoms: C_22  and  N_25
                            x       y       z     vdW  Elec       q    Type
                         _______ _______ _______ _____ _____    ______ ____

>  <TORSDO>
F 5

$$$$
=
 OpenBabel11042422363D

 33 37  0  0  1  0  0  0  0  0999 V2000
  161.7340  208.1620  149.5690 C   0  0  0  0  0  3  0  0  0  0  0  0
  161.1840  207.0660  151.6850 C   0  0  0  0  0  0  0  0  0  0  0  0
  161.4960  208.2290  150.9520 C   0  0  0  0  0  3  0  0  0  0  0  0
  161.8680  206.5490  147.5120 C   0  0  2  0  0  3  0  0  0  0  0  0
  160.8170  204.6570  151.7380 O   0  0  0  0  0  1  0  0  0  0  0  0
  161.6630  205.0970  147.5200 N   0  0  0  0  0  0  0  0  0  0  0  0
  161.1210  203.3200  149.0600 N   0  0  0  0  0  2  0  0  0  0  0  0
  161.1130  205.8200  151.0340 C   0  0  0  0  0  0  0  0  0  0  0  0
  161.3520  205.7850  149.6590 C   0  0  0  0  0  0  0  0  0  0  0  0
  161.6440  206.9170  148.9460 C   0  0  0  0  0  0  0  0  0  0  0  0
  161.3760  204.6890  148.7170 C   0  0  0  0  0  0  0  0  0  0  0  0
  161.0330  210.7680  154.6020 C   0  0  0  0  0  3  0  0  0  0  0  0
  160.9480  207.1630  153.0870 N   0  0  0  0  0  0  0  0  0  0  0  0
  160.8070  207.9410  154.3460 C   0  0  1  0  0  0  0  0  0  0  0  0
  161.4080  209.7930  157.0980 Cl  0  0  0  0  0  0  0  0  0  0  0  0
  159.5470  208.8060  154.3420 C   0  0  0  0  0  2  0  0  0  0  0  0
  159.9040  210.2460  154.0990 C   0  0  0  0  0  3  0  0  0  0  0  0
  161.9820  209.9250  155.4140 C   0  0  1  0  0  3  0  0  0  0  0  0
  160.6490  206.5770  154.4310 C   0  0  0  0  0  2  0  0  0  0  0  0
  162.1490  208.5300  154.7980 C   0  0  0  0  0  2  0  0  0  0  0  0
  160.6230  202.2870  146.8630 C   0  0  0  0  0  3  0  0  0  0  0  0
  161.1560  199.9430  146.4680 C   0  0  0  0  0  0  0  0  0  0  0  0
  160.6320  201.1790  146.0100 C   0  0  0  0  0  0  0  0  0  0  0  0
  161.6370  200.9820  148.6180 C   0  0  0  0  0  3  0  0  0  0  0  0
  161.1220  202.1980  148.1680 C   0  0  0  0  0  0  0  0  0  0  0  0
  160.0810  201.3670  144.6380 C   0  0  0  0  0  1  0  0  0  0  0  0
  161.6530  199.8670  147.7770 C   0  0  0  0  0  3  0  0  0  0  0  0
  161.2070  198.7150  145.6370 C   0  0  0  0  0  0  0  0  0  0  0  0
  160.0250  198.0850  145.2610 O   0  0  0  0  0  1  0  0  0  0  0  0
  162.3020  198.2220  145.2600 O   0  0  0  0  0  0  0  0  0  0  0  0
  160.8260  207.2030  146.6130 C   0  0  0  0  0  2  0  0  0  0  0  0
  160.8390  206.2270  144.5760 O   0  0  0  0  0  1  0  0  0  0  0  0
  160.1900  206.2070  145.7650 N   0  0  0  0  0  2  0  0  0  0  0  0
  1  3  1  0  0  0  0
  2 13  1  0  0  0  0
  3  2  2  0  0  0  0
  4 31  1  6  0  0  0
  4  6  1  0  0  0  0
  4 10  1  0  0  0  0
  6 11  2  0  0  0  0
  8  2  1  0  0  0  0
  8  5  1  0  0  0  0
  9  8  2  0  0  0  0
 10  1  2  0  0  0  0
 10  9  1  0  0  0  0
 11  7  1  0  0  0  0
 11  9  1  0  0  0  0
 12 18  1  0  0  0  0
 13 14  1  0  0  0  0
 13 19  1  0  0  0  0
 14 16  1  1  0  0  0
 14 19  1  0  0  0  0
 14 20  1  0  0  0  0
 17 16  1  0  0  0  0
 17 12  2  0  0  0  0
 18 15  1  1  0  0  0
 20 18  1  0  0  0  0
 21 25  1  0  0  0  0
 22 27  2  0  0  0  0
 23 22  1  0  0  0  0
 23 21  2  0  0  0  0
 25 24  2  0  0  0  0
 25  7  1  0  0  0  0
 26 23  1  0  0  0  0
 27 24  1  0  0  0  0
 28 22  1  0  0  0  0
 29 28  1  0  0  0  0
 30 28  2  0  0  0  0
 32 33  1  0  0  0  0
 33 31  1  0  0  0  0
M  END
>  <MODEL>
4

>  <REMARK>
 VINA RESULT:      -6.3      3.798      5.767
  Name = 
  5 active torsions:
  status: ('A' for Active; 'I' for Inactive)
    1  A    between atoms: C_1  and  C_8
    2  A    between atoms: N_3  and  C_11
    3  A    between atoms: N_13  and  C_18
    4  A    between atoms: C_18  and  C_19
    5  A    between atoms: C_22  and  N_25
                            x       y       z     vdW  Elec       q    Type
                         _______ _______ _______ _____ _____    ______ ____

>  <TORSDO>
F 5

$$$$
