=
 OpenBabel11042423063D

 48 50  0  0  1  0  0  0  0  0999 V2000
  161.5160  206.8610  149.7460 N   0  0  0  0  0  0  0  0  0  0  0  0
  162.2900  207.3490  150.8550 C   0  0  0  0  0  0  0  0  0  0  0  0
  162.9030  208.4470  150.7550 O   0  0  0  0  0  0  0  0  0  0  0  0
  160.5680  205.7660  149.9160 C   0  0  0  0  0  2  0  0  0  0  0  0
  161.2460  204.4290  149.6610 C   0  0  0  0  0  2  0  0  0  0  0  0
  160.7190  203.3620  150.6030 C   0  0  0  0  0  2  0  0  0  0  0  0
  160.2330  202.1630  149.8090 C   0  0  0  0  0  2  0  0  0  0  0  0
  161.3640  201.3390  149.4270 N   0  0  0  0  0  2  0  0  0  0  0  0
  161.1440  200.9480  148.0450 C   0  0  0  0  0  2  0  0  0  0  0  0
  160.5460  202.1050  147.2620 C   0  0  0  0  0  2  0  0  0  0  0  0
  160.8830  201.9950  145.7740 C   0  0  1  0  0  3  0  0  0  0  0  0
  159.9870  201.1550  145.0990 O   0  0  0  0  0  1  0  0  0  0  0  0
  160.9900  203.2550  145.1480 O   0  0  0  0  0  0  0  0  0  0  0  0
  162.1950  205.3140  145.2620 C   0  0  0  0  0  1  0  0  0  0  0  0
  161.6050  204.1520  146.0380 C   0  0  0  0  0  2  0  0  0  0  0  0
  162.3430  206.5900  152.1460 C   0  0  0  0  0  2  0  0  0  0  0  0
  159.5200  212.8160  154.3680 C   0  0  0  0  0  3  0  0  0  0  0  0
  160.1060  210.4730  154.5200 C   0  0  0  0  0  0  0  0  0  0  0  0
  160.3760  209.3330  155.2950 C   0  0  0  0  0  3  0  0  0  0  0  0
  160.7140  208.0750  153.2680 C   0  0  0  0  0  0  0  0  0  0  0  0
  159.5340  212.7440  152.9640 C   0  0  0  0  0  0  0  0  0  0  0  0
  160.9210  206.8890  155.1840 N   0  0  0  0  0  0  0  0  0  0  0  0
  159.8390  211.5310  152.3370 C   0  0  0  0  0  3  0  0  0  0  0  0
  160.6730  208.1510  154.6200 C   0  0  0  0  0  0  0  0  0  0  0  0
  159.8020  211.6860  155.1420 C   0  0  0  0  0  3  0  0  0  0  0  0
  160.1290  210.3950  153.0970 C   0  0  0  0  0  0  0  0  0  0  0  0
  161.1180  205.9290  154.1700 N   0  0  0  0  0  0  0  0  0  0  0  0
  160.4330  209.1790  152.4620 C   0  0  0  0  0  3  0  0  0  0  0  0
  161.0150  206.6680  152.8900 C   0  0  2  0  0  3  0  0  0  0  0  0
  159.2500  213.8600  152.1710 O   0  0  0  0  0  0  0  0  0  0  0  0
  159.8140  214.0490  150.8810 C   0  0  0  0  0  1  0  0  0  0  0  0
  161.5820  207.5320  148.4540 C   0  0  0  0  0  2  0  0  0  0  0  0
  162.1420  208.9020  148.6160 C   0  0  0  0  0  3  0  0  0  0  0  0
  160.9270  210.9450  147.5340 C   0  0  0  0  0  3  0  0  0  0  0  0
  161.5360  209.9220  148.0760 C   0  0  0  0  0  0  0  0  0  0  0  0
  161.5110  212.2970  147.4670 C   0  0  0  0  0  0  0  0  0  0  0  0
  162.5270  212.6360  148.2750 C   0  0  0  0  0  3  0  0  0  0  0  0
  163.1960  213.9700  148.2790 C   0  0  0  0  0  1  0  0  0  0  0  0
  160.8310  213.4130  146.2750 S   0  0  0  0  0  0  0  0  0  0  0  0
  159.9830  212.6320  145.3110 O   0  0  0  0  0  0  0  0  0  0  0  0
  159.9550  214.4390  146.9410 O   0  0  0  0  0  0  0  0  0  0  0  0
  162.1000  214.1950  145.3880 N   0  0  0  0  0  2  0  0  0  0  0  0
  162.7520  213.2050  144.5430 C   0  0  0  0  0  2  0  0  0  0  0  0
  163.0870  213.8090  143.1900 C   0  0  0  0  0  2  0  0  0  0  0  0
  161.9750  213.5230  142.1950 C   0  0  0  0  0  2  0  0  0  0  0  0
  161.6070  212.1200  142.2600 N   0  0  0  0  0  2  0  0  0  0  0  0
  162.1180  211.4910  141.0540 C   0  0  0  0  0  2  0  0  0  0  0  0
  161.3560  211.8970  139.9580 O   0  0  0  0  0  1  0  0  0  0  0  0
  1  4  1  0  0  0  0
  1  2  1  0  0  0  0
  2 16  1  0  0  0  0
  3  2  2  0  0  0  0
  5  4  1  0  0  0  0
  5  6  1  0  0  0  0
  7  6  1  0  0  0  0
  8  7  1  0  0  0  0
  9  8  1  0  0  0  0
 10  9  1  0  0  0  0
 11 12  1  6  0  0  0
 11 10  1  0  0  0  0
 13 11  1  0  0  0  0
 13 15  1  0  0  0  0
 14 15  1  0  0  0  0
 17 25  1  0  0  0  0
 18 25  2  0  0  0  0
 18 19  1  0  0  0  0
 20 24  1  0  0  0  0
 21 17  2  0  0  0  0
 23 21  1  0  0  0  0
 23 26  2  0  0  0  0
 24 22  1  0  0  0  0
 24 19  2  0  0  0  0
 26 18  1  0  0  0  0
 27 22  2  0  0  0  0
 28 26  1  0  0  0  0
 28 20  2  0  0  0  0
 29 16  1  1  0  0  0
 29 20  1  0  0  0  0
 29 27  1  0  0  0  0
 30 21  1  0  0  0  0
 31 30  1  0  0  0  0
 32 33  1  0  0  0  0
 32  1  1  0  0  0  0
 34 35  2  0  0  0  0
 35 33  2  0  0  0  0
 36 34  1  0  0  0  0
 36 37  2  0  0  0  0
 37 38  1  0  0  0  0
 39 41  2  0  0  0  0
 39 36  1  0  0  0  0
 40 39  2  0  0  0  0
 42 39  1  0  0  0  0
 43 42  1  0  0  0  0
 44 43  1  0  0  0  0
 45 46  1  0  0  0  0
 45 44  1  0  0  0  0
 47 46  1  0  0  0  0
 48 47  1  0  0  0  0
M  END
>  <MODEL>
1

>  <REMARK>
 VINA RESULT:      -6.1      0.000      0.000
  Name = 
  23 active torsions:
  status: ('A' for Active; 'I' for Inactive)
    1  A    between atoms: C_3  and  N_17
    2  A    between atoms: C_3  and  C_47
    3  A    between atoms: N_5  and  C_23
    4  A    between atoms: N_5  and  C_29
    5  A    between atoms: C_7  and  O_8
    6  A    between atoms: C_9  and  C_24
    7  A    between atoms: C_9  and  N_43
    8  A    between atoms: C_10  and  N_17
    9  A    between atoms: C_10  and  C_27
   10  A    between atoms: C_12  and  C_13
   11  A    between atoms: C_13  and  N_14
   12  A    between atoms: N_14  and  C_25
   13  A    between atoms: C_16  and  C_19
   14  A    between atoms: C_19  and  C_46
   15  A    between atoms: C_20  and  C_21
   16  A    between atoms: C_20  and  S_28
   17  A    between atoms: C_24  and  C_29
   18  A    between atoms: C_25  and  C_35
   19  A    between atoms: C_27  and  C_35
   20  A    between atoms: S_28  and  N_43
   21  A    between atoms: C_38  and  O_48
   22  A    between atoms: C_39  and  C_47
   23  A    between atoms: C_39  and  O_48
                            x       y       z     vdW  Elec       q    Type
                         _______ _______ _______ _____ _____    ______ ____

>  <TORSDO>
F 23

$$$$
=
 OpenBabel11042423063D

 48 50  0  0  1  0  0  0  0  0999 V2000
  160.8550  206.8590  151.9350 N   0  0  0  0  0  0  0  0  0  0  0  0
  161.2280  206.8770  153.3220 C   0  0  0  0  0  0  0  0  0  0  0  0
  161.3670  205.7900  153.9470 O   0  0  0  0  0  0  0  0  0  0  0  0
  160.9720  208.0570  151.1090 C   0  0  0  0  0  2  0  0  0  0  0  0
  162.3570  208.1430  150.4870 C   0  0  0  0  0  2  0  0  0  0  0  0
  162.3290  208.9540  149.2050 C   0  0  0  0  0  2  0  0  0  0  0  0
  161.9140  210.3830  149.5040 C   0  0  0  0  0  2  0  0  0  0  0  0
  161.9670  211.1720  148.2880 N   0  0  0  0  0  2  0  0  0  0  0  0
  161.9080  212.5660  148.6960 C   0  0  0  0  0  2  0  0  0  0  0  0
  160.9250  213.3270  147.8220 C   0  0  0  0  0  2  0  0  0  0  0  0
  160.1560  214.3690  148.6350 C   0  0  1  0  0  3  0  0  0  0  0  0
  158.7720  214.1640  148.5670 O   0  0  0  0  0  1  0  0  0  0  0  0
  160.6060  214.4530  149.9700 O   0  0  0  0  0  0  0  0  0  0  0  0
  159.7010  213.1740  151.7720 C   0  0  0  0  0  1  0  0  0  0  0  0
  159.5000  214.3450  150.8290 C   0  0  0  0  0  2  0  0  0  0  0  0
  161.4990  208.1720  154.0270 C   0  0  0  0  0  2  0  0  0  0  0  0
  158.2400  214.0960  156.4690 C   0  0  0  0  0  3  0  0  0  0  0  0
  159.5880  212.0920  156.6170 C   0  0  0  0  0  0  0  0  0  0  0  0
  160.5870  211.3410  157.2580 C   0  0  0  0  0  3  0  0  0  0  0  0
  160.2640  209.5880  155.6370 C   0  0  0  0  0  0  0  0  0  0  0  0
  157.5660  213.5780  155.3490 C   0  0  0  0  0  0  0  0  0  0  0  0
  161.8070  209.1510  157.2350 N   0  0  0  0  0  0  0  0  0  0  0  0
  157.9090  212.3120  154.8600 C   0  0  0  0  0  3  0  0  0  0  0  0
  160.8890  210.0880  156.7300 C   0  0  0  0  0  0  0  0  0  0  0  0
  159.2440  213.3560  157.1010 C   0  0  0  0  0  3  0  0  0  0  0  0
  158.9140  211.5640  155.4770 C   0  0  0  0  0  0  0  0  0  0  0  0
  161.7810  207.9740  156.4600 N   0  0  0  0  0  0  0  0  0  0  0  0
  159.2540  210.2940  154.9820 C   0  0  0  0  0  3  0  0  0  0  0  0
  160.7970  208.2230  155.3800 C   0  0  2  0  0  3  0  0  0  0  0  0
  156.5550  214.2980  154.7050 O   0  0  0  0  0  0  0  0  0  0  0  0
  156.2650  214.1460  153.3230 C   0  0  0  0  0  1  0  0  0  0  0  0
  160.4610  205.6100  151.2970 C   0  0  0  0  0  2  0  0  0  0  0  0
  161.4410  205.2440  150.2370 C   0  0  0  0  0  3  0  0  0  0  0  0
  160.8980  205.7350  147.7310 C   0  0  0  0  0  3  0  0  0  0  0  0
  161.1700  205.4880  148.9870 C   0  0  0  0  0  0  0  0  0  0  0  0
  161.7080  205.2260  146.6080 C   0  0  0  0  0  0  0  0  0  0  0  0
  162.9930  204.8930  146.7970 C   0  0  0  0  0  3  0  0  0  0  0  0
  163.8950  204.3590  145.7350 C   0  0  0  0  0  1  0  0  0  0  0  0
  160.9030  205.0610  145.0410 S   0  0  0  0  0  0  0  0  0  0  0  0
  159.4960  205.5760  145.1650 O   0  0  0  0  0  0  0  0  0  0  0  0
  161.6080  205.8740  143.9900 O   0  0  0  0  0  0  0  0  0  0  0  0
  160.8420  203.3930  144.5680 N   0  0  0  0  0  2  0  0  0  0  0  0
  159.8760  202.7070  145.4130 C   0  0  0  0  0  2  0  0  0  0  0  0
  160.5200  201.5000  146.0740 C   0  0  0  0  0  2  0  0  0  0  0  0
  160.9340  201.8370  147.4960 C   0  0  0  0  0  2  0  0  0  0  0  0
  159.8020  201.6700  148.3900 N   0  0  0  0  0  2  0  0  0  0  0  0
  160.3230  201.7060  149.7460 C   0  0  0  0  0  2  0  0  0  0  0  0
  161.5400  201.0260  149.7950 O   0  0  0  0  0  1  0  0  0  0  0  0
  1  2  1  0  0  0  0
  2  3  2  0  0  0  0
  2 16  1  0  0  0  0
  4  1  1  0  0  0  0
  5  4  1  0  0  0  0
  6  7  1  0  0  0  0
  6  5  1  0  0  0  0
  8  9  1  0  0  0  0
  8  7  1  0  0  0  0
 10 11  1  0  0  0  0
 10  9  1  0  0  0  0
 11 12  1  1  0  0  0
 11 13  1  0  0  0  0
 13 15  1  0  0  0  0
 15 14  1  0  0  0  0
 17 25  1  0  0  0  0
 18 25  2  0  0  0  0
 18 19  1  0  0  0  0
 20 24  1  0  0  0  0
 21 17  2  0  0  0  0
 23 21  1  0  0  0  0
 23 26  2  0  0  0  0
 24 22  1  0  0  0  0
 24 19  2  0  0  0  0
 26 18  1  0  0  0  0
 27 22  2  0  0  0  0
 28 26  1  0  0  0  0
 28 20  2  0  0  0  0
 29 16  1  6  0  0  0
 29 20  1  0  0  0  0
 29 27  1  0  0  0  0
 30 21  1  0  0  0  0
 31 30  1  0  0  0  0
 32  1  1  0  0  0  0
 33 32  1  0  0  0  0
 34 35  2  0  0  0  0
 35 33  2  0  0  0  0
 36 37  2  0  0  0  0
 36 34  1  0  0  0  0
 38 37  1  0  0  0  0
 39 40  2  0  0  0  0
 39 36  1  0  0  0  0
 41 39  2  0  0  0  0
 42 39  1  0  0  0  0
 42 43  1  0  0  0  0
 43 44  1  0  0  0  0
 44 45  1  0  0  0  0
 45 46  1  0  0  0  0
 46 47  1  0  0  0  0
 47 48  1  0  0  0  0
M  END
>  <MODEL>
2

>  <REMARK>
 VINA RESULT:      -6.1      3.045      7.926
  Name = 
  23 active torsions:
  status: ('A' for Active; 'I' for Inactive)
    1  A    between atoms: C_3  and  N_17
    2  A    between atoms: C_3  and  C_47
    3  A    between atoms: N_5  and  C_23
    4  A    between atoms: N_5  and  C_29
    5  A    between atoms: C_7  and  O_8
    6  A    between atoms: C_9  and  C_24
    7  A    between atoms: C_9  and  N_43
    8  A    between atoms: C_10  and  N_17
    9  A    between atoms: C_10  and  C_27
   10  A    between atoms: C_12  and  C_13
   11  A    between atoms: C_13  and  N_14
   12  A    between atoms: N_14  and  C_25
   13  A    between atoms: C_16  and  C_19
   14  A    between atoms: C_19  and  C_46
   15  A    between atoms: C_20  and  C_21
   16  A    between atoms: C_20  and  S_28
   17  A    between atoms: C_24  and  C_29
   18  A    between atoms: C_25  and  C_35
   19  A    between atoms: C_27  and  C_35
   20  A    between atoms: S_28  and  N_43
   21  A    between atoms: C_38  and  O_48
   22  A    between atoms: C_39  and  C_47
   23  A    between atoms: C_39  and  O_48
                            x       y       z     vdW  Elec       q    Type
                         _______ _______ _______ _____ _____    ______ ____

>  <TORSDO>
F 23

$$$$
=
 OpenBabel11042423063D

 48 50  0  0  1  0  0  0  0  0999 V2000
  161.5970  209.2380  150.1750 N   0  0  0  0  0  0  0  0  0  0  0  0
  161.7720  210.5920  149.7270 C   0  0  0  0  0  0  0  0  0  0  0  0
  162.0220  211.5020  150.5650 O   0  0  0  0  0  0  0  0  0  0  0  0
  161.6010  208.1270  149.2300 C   0  0  0  0  0  2  0  0  0  0  0  0
  161.9330  206.8240  149.9400 C   0  0  0  0  0  2  0  0  0  0  0  0
  160.8170  205.8100  149.7660 C   0  0  0  0  0  2  0  0  0  0  0  0
  161.2270  204.7560  148.7540 C   0  0  0  0  0  2  0  0  0  0  0  0
  160.8260  203.4440  149.2250 N   0  0  0  0  0  2  0  0  0  0  0  0
  161.0390  202.5240  148.1200 C   0  0  0  0  0  2  0  0  0  0  0  0
  161.5560  203.2760  146.9050 C   0  0  0  0  0  2  0  0  0  0  0  0
  161.1070  202.6010  145.6070 C   0  0  1  0  0  3  0  0  0  0  0  0
  160.3040  201.4810  145.8540 O   0  0  0  0  0  1  0  0  0  0  0  0
  160.4880  203.5020  144.7140 O   0  0  0  0  0  0  0  0  0  0  0  0
  161.5510  205.4320  143.7920 C   0  0  0  0  0  1  0  0  0  0  0  0
  160.9140  204.8060  145.0180 C   0  0  0  0  0  2  0  0  0  0  0  0
  161.7040  210.9330  148.2690 C   0  0  0  0  0  2  0  0  0  0  0  0
  160.8160  213.7850  141.7310 C   0  0  0  0  0  3  0  0  0  0  0  0
  161.5070  213.7390  144.0490 C   0  0  0  0  0  0  0  0  0  0  0  0
  162.3260  214.2170  145.0860 C   0  0  0  0  0  3  0  0  0  0  0  0
  161.2320  212.7020  146.6060 C   0  0  0  0  0  0  0  0  0  0  0  0
  159.8440  212.8010  141.9850 C   0  0  0  0  0  0  0  0  0  0  0  0
  162.8120  214.0280  147.5370 N   0  0  0  0  0  0  0  0  0  0  0  0
  159.7070  212.2830  143.2780 C   0  0  0  0  0  3  0  0  0  0  0  0
  162.1480  213.6670  146.3530 C   0  0  0  0  0  0  0  0  0  0  0  0
  161.6410  214.2530  142.7570 C   0  0  0  0  0  3  0  0  0  0  0  0
  160.5290  212.7360  144.3120 C   0  0  0  0  0  0  0  0  0  0  0  0
  162.3080  213.2870  148.6260 N   0  0  0  0  0  0  0  0  0  0  0  0
  160.3860  212.2130  145.6080 C   0  0  0  0  0  3  0  0  0  0  0  0
  161.2810  212.3820  148.0580 C   0  0  2  0  0  3  0  0  0  0  0  0
  159.0050  212.3230  140.9750 O   0  0  0  0  0  0  0  0  0  0  0  0
  159.4300  211.3720  140.0090 C   0  0  0  0  0  1  0  0  0  0  0  0
  161.5260  208.9400  151.6000 C   0  0  0  0  0  2  0  0  0  0  0  0
  161.3290  210.1960  152.3770 C   0  0  0  0  0  3  0  0  0  0  0  0
  159.8590  210.1780  154.5340 C   0  0  0  0  0  3  0  0  0  0  0  0
  160.5950  210.1870  153.4530 C   0  0  0  0  0  0  0  0  0  0  0  0
  159.4430  211.4010  155.2450 C   0  0  0  0  0  0  0  0  0  0  0  0
  160.3590  212.1980  155.8150 C   0  0  0  0  0  3  0  0  0  0  0  0
  160.0460  213.4620  156.5450 C   0  0  0  0  0  1  0  0  0  0  0  0
  157.7110  211.7640  155.2840 S   0  0  0  0  0  0  0  0  0  0  0  0
  157.0120  210.8870  154.2830 O   0  0  0  0  0  0  0  0  0  0  0  0
  157.1340  211.4750  156.6420 O   0  0  0  0  0  0  0  0  0  0  0  0
  157.4340  213.4220  154.8560 N   0  0  0  0  0  2  0  0  0  0  0  0
  156.5170  213.4620  153.7260 C   0  0  0  0  0  2  0  0  0  0  0  0
  157.0130  214.4470  152.6810 C   0  0  0  0  0  2  0  0  0  0  0  0
  157.6620  213.7060  151.5250 C   0  0  0  0  0  2  0  0  0  0  0  0
  157.3620  214.3850  150.2760 N   0  0  0  0  0  2  0  0  0  0  0  0
  156.3430  213.6000  149.6010 C   0  0  0  0  0  2  0  0  0  0  0  0
  155.0890  214.1650  149.8340 O   0  0  0  0  0  1  0  0  0  0  0  0
  1 32  1  0  0  0  0
  2  1  1  0  0  0  0
  2  3  2  0  0  0  0
  4  5  1  0  0  0  0
  4  1  1  0  0  0  0
  6  5  1  0  0  0  0
  7  8  1  0  0  0  0
  7  6  1  0  0  0  0
  9  8  1  0  0  0  0
 10  9  1  0  0  0  0
 11 12  1  1  0  0  0
 11 10  1  0  0  0  0
 13 15  1  0  0  0  0
 13 11  1  0  0  0  0
 14 15  1  0  0  0  0
 16  2  1  0  0  0  0
 17 21  2  0  0  0  0
 17 25  1  0  0  0  0
 18 26  1  0  0  0  0
 18 19  1  0  0  0  0
 19 24  2  0  0  0  0
 20 29  1  0  0  0  0
 21 23  1  0  0  0  0
 22 27  2  0  0  0  0
 23 26  2  0  0  0  0
 24 20  1  0  0  0  0
 24 22  1  0  0  0  0
 25 18  2  0  0  0  0
 26 28  1  0  0  0  0
 28 20  2  0  0  0  0
 29 16  1  6  0  0  0
 29 27  1  0  0  0  0
 30 21  1  0  0  0  0
 31 30  1  0  0  0  0
 32 33  1  0  0  0  0
 33 35  2  0  0  0  0
 34 36  1  0  0  0  0
 35 34  2  0  0  0  0
 36 39  1  0  0  0  0
 36 37  2  0  0  0  0
 37 38  1  0  0  0  0
 39 41  2  0  0  0  0
 40 39  2  0  0  0  0
 42 39  1  0  0  0  0
 43 42  1  0  0  0  0
 44 43  1  0  0  0  0
 45 44  1  0  0  0  0
 46 45  1  0  0  0  0
 47 48  1  0  0  0  0
 47 46  1  0  0  0  0
M  END
>  <MODEL>
3

>  <REMARK>
 VINA RESULT:      -5.3      2.951      8.069
  Name = 
  23 active torsions:
  status: ('A' for Active; 'I' for Inactive)
    1  A    between atoms: C_3  and  N_17
    2  A    between atoms: C_3  and  C_47
    3  A    between atoms: N_5  and  C_23
    4  A    between atoms: N_5  and  C_29
    5  A    between atoms: C_7  and  O_8
    6  A    between atoms: C_9  and  C_24
    7  A    between atoms: C_9  and  N_43
    8  A    between atoms: C_10  and  N_17
    9  A    between atoms: C_10  and  C_27
   10  A    between atoms: C_12  and  C_13
   11  A    between atoms: C_13  and  N_14
   12  A    between atoms: N_14  and  C_25
   13  A    between atoms: C_16  and  C_19
   14  A    between atoms: C_19  and  C_46
   15  A    between atoms: C_20  and  C_21
   16  A    between atoms: C_20  and  S_28
   17  A    between atoms: C_24  and  C_29
   18  A    between atoms: C_25  and  C_35
   19  A    between atoms: C_27  and  C_35
   20  A    between atoms: S_28  and  N_43
   21  A    between atoms: C_38  and  O_48
   22  A    between atoms: C_39  and  C_47
   23  A    between atoms: C_39  and  O_48
                            x       y       z     vdW  Elec       q    Type
                         _______ _______ _______ _____ _____    ______ ____

>  <TORSDO>
F 23

$$$$
=
 OpenBabel11042423063D

 48 50  0  0  1  0  0  0  0  0999 V2000
  161.2040  207.3010  152.8390 N   0  0  0  0  0  0  0  0  0  0  0  0
  160.8600  206.9930  154.1990 C   0  0  0  0  0  0  0  0  0  0  0  0
  161.5310  206.1340  154.8360 O   0  0  0  0  0  0  0  0  0  0  0  0
  160.6560  208.4780  152.1730 C   0  0  0  0  0  2  0  0  0  0  0  0
  161.0810  208.5110  150.7130 C   0  0  0  0  0  2  0  0  0  0  0  0
  162.0310  209.6650  150.4480 C   0  0  0  0  0  2  0  0  0  0  0  0
  161.9490  210.0790  148.9910 C   0  0  0  0  0  2  0  0  0  0  0  0
  162.9850  211.0520  148.7000 N   0  0  0  0  0  2  0  0  0  0  0  0
  162.3110  212.2370  148.1960 C   0  0  0  0  0  2  0  0  0  0  0  0
  160.8120  212.1220  148.4190 C   0  0  0  0  0  2  0  0  0  0  0  0
  160.1200  213.4710  148.2130 C   0  0  1  0  0  3  0  0  0  0  0  0
  160.5520  214.1040  147.0420 O   0  0  0  0  0  1  0  0  0  0  0  0
  158.7130  213.3700  148.2640 O   0  0  0  0  0  0  0  0  0  0  0  0
  156.9610  213.8960  146.7290 C   0  0  0  0  0  1  0  0  0  0  0  0
  158.2310  213.1030  146.9720 C   0  0  0  0  0  2  0  0  0  0  0  0
  159.7390  207.7100  154.8890 C   0  0  0  0  0  2  0  0  0  0  0  0
  157.2750  214.4040  154.0010 C   0  0  0  0  0  3  0  0  0  0  0  0
  158.9440  212.6930  154.3760 C   0  0  0  0  0  0  0  0  0  0  0  0
  160.2780  212.2590  154.3150 C   0  0  0  0  0  3  0  0  0  0  0  0
  159.6020  210.1510  155.2660 C   0  0  0  0  0  0  0  0  0  0  0  0
  156.2760  213.5680  154.5300 C   0  0  0  0  0  0  0  0  0  0  0  0
  161.8190  210.3590  154.8590 N   0  0  0  0  0  0  0  0  0  0  0  0
  156.6150  212.2870  154.9810 C   0  0  0  0  0  3  0  0  0  0  0  0
  160.5600  210.9750  154.7770 C   0  0  0  0  0  0  0  0  0  0  0  0
  158.6010  213.9700  153.9260 C   0  0  0  0  0  3  0  0  0  0  0  0
  157.9350  211.8370  154.9070 C   0  0  0  0  0  0  0  0  0  0  0  0
  161.7020  209.0800  155.4430 N   0  0  0  0  0  0  0  0  0  0  0  0
  158.2690  210.5500  155.3620 C   0  0  0  0  0  3  0  0  0  0  0  0
  160.2550  208.8880  155.7060 C   0  0  2  0  0  3  0  0  0  0  0  0
  154.9450  213.9840  154.6190 O   0  0  0  0  0  0  0  0  0  0  0  0
  154.1880  214.3860  153.4850 C   0  0  0  0  0  1  0  0  0  0  0  0
  162.2010  206.5040  152.1360 C   0  0  0  0  0  2  0  0  0  0  0  0
  161.7250  205.1000  151.9900 C   0  0  0  0  0  3  0  0  0  0  0  0
  161.4300  204.0620  149.6130 C   0  0  0  0  0  3  0  0  0  0  0  0
  161.5770  204.5820  150.8040 C   0  0  0  0  0  0  0  0  0  0  0  0
  160.7740  202.7640  149.3680 C   0  0  0  0  0  0  0  0  0  0  0  0
  160.0680  202.1680  150.3390 C   0  0  0  0  0  3  0  0  0  0  0  0
  159.3570  200.8640  150.1920 C   0  0  0  0  0  1  0  0  0  0  0  0
  160.9480  202.0640  147.7520 S   0  0  0  0  0  0  0  0  0  0  0  0
  161.8270  200.8480  147.8440 O   0  0  0  0  0  0  0  0  0  0  0  0
  159.6120  201.6340  147.2090 O   0  0  0  0  0  0  0  0  0  0  0  0
  161.6920  203.2050  146.6780 N   0  0  0  0  0  2  0  0  0  0  0  0
  161.2060  202.9560  145.3290 C   0  0  0  0  0  2  0  0  0  0  0  0
  160.3200  204.1010  144.8700 C   0  0  0  0  0  2  0  0  0  0  0  0
  161.1570  205.1860  144.2150 C   0  0  0  0  0  2  0  0  0  0  0  0
  160.8250  206.4780  144.7910 N   0  0  0  0  0  2  0  0  0  0  0  0
  160.2960  206.2260  146.1210 C   0  0  0  0  0  2  0  0  0  0  0  0
  161.1640  206.7590  147.0750 O   0  0  0  0  0  1  0  0  0  0  0  0
  1  2  1  0  0  0  0
  2  3  2  0  0  0  0
  2 16  1  0  0  0  0
  4  1  1  0  0  0  0
  5  4  1  0  0  0  0
  6  5  1  0  0  0  0
  7  6  1  0  0  0  0
  8  7  1  0  0  0  0
  9 10  1  0  0  0  0
  9  8  1  0  0  0  0
 11 12  1  6  0  0  0
 11 13  1  0  0  0  0
 11 10  1  0  0  0  0
 14 15  1  0  0  0  0
 15 13  1  0  0  0  0
 17 21  1  0  0  0  0
 18 26  1  0  0  0  0
 19 18  2  0  0  0  0
 19 24  1  0  0  0  0
 20 28  1  0  0  0  0
 20 29  1  0  0  0  0
 21 30  1  0  0  0  0
 21 23  2  0  0  0  0
 22 27  2  0  0  0  0
 24 22  1  0  0  0  0
 24 20  2  0  0  0  0
 25 17  2  0  0  0  0
 25 18  1  0  0  0  0
 26 23  1  0  0  0  0
 26 28  2  0  0  0  0
 27 29  1  0  0  0  0
 29 16  1  6  0  0  0
 31 30  1  0  0  0  0
 32  1  1  0  0  0  0
 33 32  1  0  0  0  0
 34 35  2  0  0  0  0
 35 33  2  0  0  0  0
 36 34  1  0  0  0  0
 36 37  2  0  0  0  0
 38 37  1  0  0  0  0
 39 40  2  0  0  0  0
 39 36  1  0  0  0  0
 41 39  2  0  0  0  0
 42 39  1  0  0  0  0
 43 42  1  0  0  0  0
 44 43  1  0  0  0  0
 45 46  1  0  0  0  0
 45 44  1  0  0  0  0
 46 47  1  0  0  0  0
 47 48  1  0  0  0  0
M  END
>  <MODEL>
4

>  <REMARK>
 VINA RESULT:      -5.1      3.315      7.798
  Name = 
  23 active torsions:
  status: ('A' for Active; 'I' for Inactive)
    1  A    between atoms: C_3  and  N_17
    2  A    between atoms: C_3  and  C_47
    3  A    between atoms: N_5  and  C_23
    4  A    between atoms: N_5  and  C_29
    5  A    between atoms: C_7  and  O_8
    6  A    between atoms: C_9  and  C_24
    7  A    between atoms: C_9  and  N_43
    8  A    between atoms: C_10  and  N_17
    9  A    between atoms: C_10  and  C_27
   10  A    between atoms: C_12  and  C_13
   11  A    between atoms: C_13  and  N_14
   12  A    between atoms: N_14  and  C_25
   13  A    between atoms: C_16  and  C_19
   14  A    between atoms: C_19  and  C_46
   15  A    between atoms: C_20  and  C_21
   16  A    between atoms: C_20  and  S_28
   17  A    between atoms: C_24  and  C_29
   18  A    between atoms: C_25  and  C_35
   19  A    between atoms: C_27  and  C_35
   20  A    between atoms: S_28  and  N_43
   21  A    between atoms: C_38  and  O_48
   22  A    between atoms: C_39  and  C_47
   23  A    between atoms: C_39  and  O_48
                            x       y       z     vdW  Elec       q    Type
                         _______ _______ _______ _____ _____    ______ ____

>  <TORSDO>
F 23

$$$$
=
 OpenBabel11042423063D

 48 50  0  0  1  0  0  0  0  0999 V2000
  161.3520  207.3870  152.8230 N   0  0  0  0  0  0  0  0  0  0  0  0
  160.9650  207.0390  154.1620 C   0  0  0  0  0  0  0  0  0  0  0  0
  161.6180  206.1640  154.7950 O   0  0  0  0  0  0  0  0  0  0  0  0
  160.8210  208.5810  152.1740 C   0  0  0  0  0  2  0  0  0  0  0  0
  161.2750  208.6460  150.7240 C   0  0  0  0  0  2  0  0  0  0  0  0
  161.9710  209.9630  150.4300 C   0  0  0  0  0  2  0  0  0  0  0  0
  162.1310  210.1420  148.9320 C   0  0  0  0  0  2  0  0  0  0  0  0
  162.6330  211.4730  148.6490 N   0  0  0  0  0  2  0  0  0  0  0  0
  161.5090  212.3810  148.8050 C   0  0  0  0  0  2  0  0  0  0  0  0
  160.8650  212.6550  147.4570 C   0  0  0  0  0  2  0  0  0  0  0  0
  161.3930  213.9540  146.8470 C   0  0  1  0  0  3  0  0  0  0  0  0
  162.7300  214.1860  147.1940 O   0  0  0  0  0  1  0  0  0  0  0  0
  161.1970  214.0160  145.4500 O   0  0  0  0  0  0  0  0  0  0  0  0
  159.3180  212.5670  145.1790 C   0  0  0  0  0  1  0  0  0  0  0  0
  160.8130  212.7450  144.9910 C   0  0  0  0  0  2  0  0  0  0  0  0
  159.8200  207.7330  154.8360 C   0  0  0  0  0  2  0  0  0  0  0  0
  157.2700  214.4480  155.1200 C   0  0  0  0  0  3  0  0  0  0  0  0
  158.9600  212.7180  155.2030 C   0  0  0  0  0  0  0  0  0  0  0  0
  160.3010  212.3180  155.0800 C   0  0  0  0  0  3  0  0  0  0  0  0
  159.6460  210.0670  155.6380 C   0  0  0  0  0  0  0  0  0  0  0  0
  156.2790  213.5190  155.4830 C   0  0  0  0  0  0  0  0  0  0  0  0
  161.8630  210.3710  155.2960 N   0  0  0  0  0  0  0  0  0  0  0  0
  156.6320  212.1830  155.7030 C   0  0  0  0  0  3  0  0  0  0  0  0
  160.5960  210.9760  155.3110 C   0  0  0  0  0  0  0  0  0  0  0  0
  158.6030  214.0500  154.9830 C   0  0  0  0  0  3  0  0  0  0  0  0
  157.9580  211.7700  155.5650 C   0  0  0  0  0  0  0  0  0  0  0  0
  161.7590  209.0080  155.6430 N   0  0  0  0  0  0  0  0  0  0  0  0
  158.3070  210.4270  155.7880 C   0  0  0  0  0  3  0  0  0  0  0  0
  160.3130  208.7550  155.8540 C   0  0  2  0  0  3  0  0  0  0  0  0
  154.9410  213.8970  155.6300 O   0  0  0  0  0  0  0  0  0  0  0  0
  154.3430  214.1230  156.8990 C   0  0  0  0  0  1  0  0  0  0  0  0
  162.3730  206.6130  152.1300 C   0  0  0  0  0  2  0  0  0  0  0  0
  161.9950  205.1730  152.1040 C   0  0  0  0  0  3  0  0  0  0  0  0
  161.4140  204.0170  149.8350 C   0  0  0  0  0  3  0  0  0  0  0  0
  161.7040  204.5960  150.9720 C   0  0  0  0  0  0  0  0  0  0  0  0
  160.8350  202.6640  149.7370 C   0  0  0  0  0  0  0  0  0  0  0  0
  160.3150  202.0690  150.8200 C   0  0  0  0  0  3  0  0  0  0  0  0
  159.6950  200.7120  150.8260 C   0  0  0  0  0  1  0  0  0  0  0  0
  160.8420  201.8970  148.1420 S   0  0  0  0  0  0  0  0  0  0  0  0
  161.6530  200.6330  148.2190 O   0  0  0  0  0  0  0  0  0  0  0  0
  159.4460  201.5310  147.7180 O   0  0  0  0  0  0  0  0  0  0  0  0
  161.5690  202.9490  146.9710 N   0  0  0  0  0  2  0  0  0  0  0  0
  160.8330  202.8300  145.7210 C   0  0  0  0  0  2  0  0  0  0  0  0
  161.1240  204.0200  144.8240 C   0  0  0  0  0  2  0  0  0  0  0  0
  161.9400  205.0590  145.5740 C   0  0  0  0  0  2  0  0  0  0  0  0
  161.2520  206.3380  145.5470 N   0  0  0  0  0  2  0  0  0  0  0  0
  160.8270  206.6190  146.9070 C   0  0  0  0  0  2  0  0  0  0  0  0
  161.9040  206.4490  147.7770 O   0  0  0  0  0  1  0  0  0  0  0  0
  1  2  1  0  0  0  0
  2  3  2  0  0  0  0
  2 16  1  0  0  0  0
  4  1  1  0  0  0  0
  5  4  1  0  0  0  0
  6  5  1  0  0  0  0
  7  6  1  0  0  0  0
  8  9  1  0  0  0  0
  8  7  1  0  0  0  0
 10  9  1  0  0  0  0
 11 12  1  6  0  0  0
 11 10  1  0  0  0  0
 13 11  1  0  0  0  0
 15 14  1  0  0  0  0
 15 13  1  0  0  0  0
 17 21  1  0  0  0  0
 18 26  1  0  0  0  0
 19 18  2  0  0  0  0
 19 24  1  0  0  0  0
 20 28  1  0  0  0  0
 20 29  1  0  0  0  0
 21 30  1  0  0  0  0
 21 23  2  0  0  0  0
 22 24  1  0  0  0  0
 22 27  2  0  0  0  0
 24 20  2  0  0  0  0
 25 17  2  0  0  0  0
 25 18  1  0  0  0  0
 26 23  1  0  0  0  0
 26 28  2  0  0  0  0
 27 29  1  0  0  0  0
 29 16  1  6  0  0  0
 30 31  1  0  0  0  0
 32  1  1  0  0  0  0
 33 32  1  0  0  0  0
 34 35  2  0  0  0  0
 35 33  2  0  0  0  0
 36 34  1  0  0  0  0
 36 37  2  0  0  0  0
 37 38  1  0  0  0  0
 39 40  2  0  0  0  0
 39 36  1  0  0  0  0
 41 39  2  0  0  0  0
 42 39  1  0  0  0  0
 43 42  1  0  0  0  0
 44 45  1  0  0  0  0
 44 43  1  0  0  0  0
 46 45  1  0  0  0  0
 46 47  1  0  0  0  0
 47 48  1  0  0  0  0
M  END
>  <MODEL>
5

>  <REMARK>
 VINA RESULT:      -4.9      3.044      7.927
  Name = 
  23 active torsions:
  status: ('A' for Active; 'I' for Inactive)
    1  A    between atoms: C_3  and  N_17
    2  A    between atoms: C_3  and  C_47
    3  A    between atoms: N_5  and  C_23
    4  A    between atoms: N_5  and  C_29
    5  A    between atoms: C_7  and  O_8
    6  A    between atoms: C_9  and  C_24
    7  A    between atoms: C_9  and  N_43
    8  A    between atoms: C_10  and  N_17
    9  A    between atoms: C_10  and  C_27
   10  A    between atoms: C_12  and  C_13
   11  A    between atoms: C_13  and  N_14
   12  A    between atoms: N_14  and  C_25
   13  A    between atoms: C_16  and  C_19
   14  A    between atoms: C_19  and  C_46
   15  A    between atoms: C_20  and  C_21
   16  A    between atoms: C_20  and  S_28
   17  A    between atoms: C_24  and  C_29
   18  A    between atoms: C_25  and  C_35
   19  A    between atoms: C_27  and  C_35
   20  A    between atoms: S_28  and  N_43
   21  A    between atoms: C_38  and  O_48
   22  A    between atoms: C_39  and  C_47
   23  A    between atoms: C_39  and  O_48
                            x       y       z     vdW  Elec       q    Type
                         _______ _______ _______ _____ _____    ______ ____

>  <TORSDO>
F 23

$$$$
=
 OpenBabel11042423063D

 48 50  0  0  1  0  0  0  0  0999 V2000
  161.6780  205.7420  146.9300 N   0  0  0  0  0  0  0  0  0  0  0  0
  162.2290  204.4890  147.3650 C   0  0  0  0  0  0  0  0  0  0  0  0
  163.2520  204.4770  148.1040 O   0  0  0  0  0  0  0  0  0  0  0  0
  160.3490  205.8120  146.3330 C   0  0  0  0  0  2  0  0  0  0  0  0
  160.4340  206.3090  144.8980 C   0  0  0  0  0  2  0  0  0  0  0  0
  161.5020  205.5580  144.1240 C   0  0  0  0  0  2  0  0  0  0  0  0
  161.2080  205.6250  142.6370 C   0  0  0  0  0  2  0  0  0  0  0  0
  162.3290  206.2310  141.9440 N   0  0  0  0  0  2  0  0  0  0  0  0
  161.9770  206.2640  140.5340 C   0  0  0  0  0  2  0  0  0  0  0  0
  161.6570  207.6860  140.1070 C   0  0  0  0  0  2  0  0  0  0  0  0
  162.1410  207.9550  138.6800 C   0  0  1  0  0  3  0  0  0  0  0  0
  162.2460  206.7730  137.9360 O   0  0  0  0  0  1  0  0  0  0  0  0
  161.3570  208.9230  138.0160 O   0  0  0  0  0  0  0  0  0  0  0  0
  159.0710  208.8280  137.3330 C   0  0  0  0  0  1  0  0  0  0  0  0
  160.0400  208.8490  138.5000 C   0  0  0  0  0  2  0  0  0  0  0  0
  161.5780  203.1920  146.9890 C   0  0  0  0  0  2  0  0  0  0  0  0
  161.2530  206.0890  153.5600 C   0  0  0  0  0  3  0  0  0  0  0  0
  161.1480  204.3160  151.9160 C   0  0  0  0  0  0  0  0  0  0  0  0
  161.2360  202.9540  151.5860 C   0  0  0  0  0  3  0  0  0  0  0  0
  160.7400  203.5080  149.2950 C   0  0  0  0  0  0  0  0  0  0  0  0
  160.9380  207.0420  152.5750 C   0  0  0  0  0  0  0  0  0  0  0  0
  161.0070  201.3010  149.7160 N   0  0  0  0  0  0  0  0  0  0  0  0
  160.7300  206.6280  151.2540 C   0  0  0  0  0  3  0  0  0  0  0  0
  161.0210  202.5970  150.2570 C   0  0  0  0  0  0  0  0  0  0  0  0
  161.3550  204.7340  153.2320 C   0  0  0  0  0  3  0  0  0  0  0  0
  160.8350  205.2780  150.9110 C   0  0  0  0  0  0  0  0  0  0  0  0
  160.6870  201.3460  148.3430 N   0  0  0  0  0  0  0  0  0  0  0  0
  160.6250  204.8690  149.5830 C   0  0  0  0  0  3  0  0  0  0  0  0
  160.5270  202.7820  148.0140 C   0  0  2  0  0  3  0  0  0  0  0  0
  160.8250  208.4010  152.8820 O   0  0  0  0  0  0  0  0  0  0  0  0
  160.8310  208.8890  154.2160 C   0  0  0  0  0  1  0  0  0  0  0  0
  162.3940  206.9860  147.1840 C   0  0  0  0  0  2  0  0  0  0  0  0
  161.5260  207.9310  147.9400 C   0  0  0  0  0  3  0  0  0  0  0  0
  162.3680  210.3490  148.4530 C   0  0  0  0  0  3  0  0  0  0  0  0
  161.9470  209.1370  148.1970 C   0  0  0  0  0  0  0  0  0  0  0  0
  161.6710  211.2760  149.3640 C   0  0  0  0  0  0  0  0  0  0  0  0
  161.5030  210.9580  150.6560 C   0  0  0  0  0  3  0  0  0  0  0  0
  160.8250  211.8290  151.6610 C   0  0  0  0  0  1  0  0  0  0  0  0
  161.1040  212.8060  148.6800 S   0  0  0  0  0  0  0  0  0  0  0  0
  159.6940  213.0490  149.1430 O   0  0  0  0  0  0  0  0  0  0  0  0
  161.9550  213.9520  149.1530 O   0  0  0  0  0  0  0  0  0  0  0  0
  161.1110  212.7310  146.9470 N   0  0  0  0  0  2  0  0  0  0  0  0
  161.9810  213.7820  146.4410 C   0  0  0  0  0  2  0  0  0  0  0  0
  162.3430  213.5120  144.9900 C   0  0  0  0  0  2  0  0  0  0  0  0
  161.0860  213.3350  144.1580 C   0  0  0  0  0  2  0  0  0  0  0  0
  161.2460  212.2040  143.2600 N   0  0  0  0  0  2  0  0  0  0  0  0
  162.3240  212.5370  142.3450 C   0  0  0  0  0  2  0  0  0  0  0  0
  161.9730  212.1490  141.0520 O   0  0  0  0  0  1  0  0  0  0  0  0
  1 32  1  0  0  0  0
  1  2  1  0  0  0  0
  2  3  2  0  0  0  0
  4  1  1  0  0  0  0
  5  4  1  0  0  0  0
  6  5  1  0  0  0  0
  7  6  1  0  0  0  0
  8  7  1  0  0  0  0
  9  8  1  0  0  0  0
 10  9  1  0  0  0  0
 11 12  1  6  0  0  0
 11 10  1  0  0  0  0
 13 15  1  0  0  0  0
 13 11  1  0  0  0  0
 14 15  1  0  0  0  0
 16  2  1  0  0  0  0
 18 25  2  0  0  0  0
 19 18  1  0  0  0  0
 20 28  2  0  0  0  0
 20 24  1  0  0  0  0
 21 30  1  0  0  0  0
 21 17  2  0  0  0  0
 22 24  1  0  0  0  0
 23 21  1  0  0  0  0
 24 19  2  0  0  0  0
 25 17  1  0  0  0  0
 26 23  2  0  0  0  0
 26 18  1  0  0  0  0
 27 22  2  0  0  0  0
 28 26  1  0  0  0  0
 29 16  1  6  0  0  0
 29 27  1  0  0  0  0
 29 20  1  0  0  0  0
 30 31  1  0  0  0  0
 32 33  1  0  0  0  0
 33 35  2  0  0  0  0
 34 36  1  0  0  0  0
 35 34  2  0  0  0  0
 36 37  2  0  0  0  0
 37 38  1  0  0  0  0
 39 40  2  0  0  0  0
 39 41  2  0  0  0  0
 39 36  1  0  0  0  0
 42 39  1  0  0  0  0
 43 42  1  0  0  0  0
 44 43  1  0  0  0  0
 45 44  1  0  0  0  0
 46 45  1  0  0  0  0
 47 46  1  0  0  0  0
 48 47  1  0  0  0  0
M  END
>  <MODEL>
6

>  <REMARK>
 VINA RESULT:      -4.3      2.554      5.868
  Name = 
  23 active torsions:
  status: ('A' for Active; 'I' for Inactive)
    1  A    between atoms: C_3  and  N_17
    2  A    between atoms: C_3  and  C_47
    3  A    between atoms: N_5  and  C_23
    4  A    between atoms: N_5  and  C_29
    5  A    between atoms: C_7  and  O_8
    6  A    between atoms: C_9  and  C_24
    7  A    between atoms: C_9  and  N_43
    8  A    between atoms: C_10  and  N_17
    9  A    between atoms: C_10  and  C_27
   10  A    between atoms: C_12  and  C_13
   11  A    between atoms: C_13  and  N_14
   12  A    between atoms: N_14  and  C_25
   13  A    between atoms: C_16  and  C_19
   14  A    between atoms: C_19  and  C_46
   15  A    between atoms: C_20  and  C_21
   16  A    between atoms: C_20  and  S_28
   17  A    between atoms: C_24  and  C_29
   18  A    between atoms: C_25  and  C_35
   19  A    between atoms: C_27  and  C_35
   20  A    between atoms: S_28  and  N_43
   21  A    between atoms: C_38  and  O_48
   22  A    between atoms: C_39  and  C_47
   23  A    between atoms: C_39  and  O_48
                            x       y       z     vdW  Elec       q    Type
                         _______ _______ _______ _____ _____    ______ ____

>  <TORSDO>
F 23

$$$$
=
 OpenBabel11042423063D

 48 50  0  0  1  0  0  0  0  0999 V2000
  161.6200  204.9950  145.3220 N   0  0  0  0  0  0  0  0  0  0  0  0
  160.7340  205.9800  145.8770 C   0  0  0  0  0  0  0  0  0  0  0  0
  160.0070  206.6710  145.1110 O   0  0  0  0  0  0  0  0  0  0  0  0
  162.2480  203.9870  146.1690 C   0  0  0  0  0  2  0  0  0  0  0  0
  161.2100  203.0030  146.6870 C   0  0  0  0  0  2  0  0  0  0  0  0
  160.8510  201.9800  145.6240 C   0  0  0  0  0  2  0  0  0  0  0  0
  160.7970  200.5930  146.2380 C   0  0  0  0  0  2  0  0  0  0  0  0
  161.8440  200.4570  147.2330 N   0  0  0  0  0  2  0  0  0  0  0  0
  161.2050  199.9590  148.4400 C   0  0  0  0  0  2  0  0  0  0  0  0
  161.2340  201.0230  149.5250 C   0  0  0  0  0  2  0  0  0  0  0  0
  160.0660  201.9990  149.3700 C   0  0  1  0  0  3  0  0  0  0  0  0
  158.8400  201.3310  149.2680 O   0  0  0  0  0  1  0  0  0  0  0  0
  160.0450  202.9820  150.3820 O   0  0  0  0  0  0  0  0  0  0  0  0
  161.1970  203.3920  152.4330 C   0  0  0  0  0  1  0  0  0  0  0  0
  161.3230  203.0700  150.9560 C   0  0  0  0  0  2  0  0  0  0  0  0
  160.6290  206.1690  147.3610 C   0  0  0  0  0  2  0  0  0  0  0  0
  161.0750  208.7590  154.0510 C   0  0  0  0  0  3  0  0  0  0  0  0
  161.5180  208.6850  151.6740 C   0  0  0  0  0  0  0  0  0  0  0  0
  161.8760  209.3340  150.4810 C   0  0  0  0  0  3  0  0  0  0  0  0
  161.7020  207.2290  149.3210 C   0  0  0  0  0  0  0  0  0  0  0  0
  160.8310  207.3740  154.0640 C   0  0  0  0  0  0  0  0  0  0  0  0
  162.3470  208.9830  148.0440 N   0  0  0  0  0  0  0  0  0  0  0  0
  160.9280  206.6440  152.8740 C   0  0  0  0  0  3  0  0  0  0  0  0
  161.9580  208.5590  149.3250 C   0  0  0  0  0  0  0  0  0  0  0  0
  161.4180  209.4100  152.8630 C   0  0  0  0  0  3  0  0  0  0  0  0
  161.2640  207.2820  151.6790 C   0  0  0  0  0  0  0  0  0  0  0  0
  162.3680  207.8910  147.1520 N   0  0  0  0  0  0  0  0  0  0  0  0
  161.3610  206.5430  150.4870 C   0  0  0  0  0  3  0  0  0  0  0  0
  161.9270  206.7170  147.9420 C   0  0  2  0  0  3  0  0  0  0  0  0
  160.4910  206.7020  155.2420 O   0  0  0  0  0  0  0  0  0  0  0  0
  159.8080  207.3340  156.3160 C   0  0  0  0  0  1  0  0  0  0  0  0
  161.8170  204.9140  143.8810 C   0  0  0  0  0  2  0  0  0  0  0  0
  161.5860  206.2470  143.2570 C   0  0  0  0  0  3  0  0  0  0  0  0
  161.9540  206.5690  140.6920 C   0  0  0  0  0  3  0  0  0  0  0  0
  161.7700  206.4070  141.9770 C   0  0  0  0  0  0  0  0  0  0  0  0
  161.9490  207.8860  140.0290 C   0  0  0  0  0  0  0  0  0  0  0  0
  162.2220  208.9970  140.7270 C   0  0  0  0  0  3  0  0  0  0  0  0
  162.2560  210.3730  140.1510 C   0  0  0  0  0  1  0  0  0  0  0  0
  161.5960  207.9160  138.2950 S   0  0  0  0  0  0  0  0  0  0  0  0
  162.3010  209.0920  137.6790 O   0  0  0  0  0  0  0  0  0  0  0  0
  162.0990  206.6670  137.6250 O   0  0  0  0  0  0  0  0  0  0  0  0
  159.8900  208.0920  138.0310 N   0  0  0  0  0  2  0  0  0  0  0  0
  159.5930  209.5060  137.8520 C   0  0  0  0  0  2  0  0  0  0  0  0
  158.7640  210.0200  139.0160 C   0  0  0  0  0  2  0  0  0  0  0  0
  157.2860  209.7930  138.7510 C   0  0  0  0  0  2  0  0  0  0  0  0
  156.7130  210.9710  138.1220 N   0  0  0  0  0  2  0  0  0  0  0  0
  156.0490  211.7300  139.1670 C   0  0  0  0  0  2  0  0  0  0  0  0
  154.9270  211.0290  139.6100 O   0  0  0  0  0  1  0  0  0  0  0  0
  1  2  1  0  0  0  0
  1  4  1  0  0  0  0
  2 16  1  0  0  0  0
  3  2  2  0  0  0  0
  4  5  1  0  0  0  0
  6  7  1  0  0  0  0
  6  5  1  0  0  0  0
  7  8  1  0  0  0  0
  8  9  1  0  0  0  0
  9 10  1  0  0  0  0
 11 12  1  1  0  0  0
 11 10  1  0  0  0  0
 11 13  1  0  0  0  0
 13 15  1  0  0  0  0
 15 14  1  0  0  0  0
 17 21  1  0  0  0  0
 18 26  1  0  0  0  0
 18 25  1  0  0  0  0
 19 18  2  0  0  0  0
 20 24  2  0  0  0  0
 20 28  1  0  0  0  0
 21 30  1  0  0  0  0
 22 24  1  0  0  0  0
 23 21  2  0  0  0  0
 24 19  1  0  0  0  0
 25 17  2  0  0  0  0
 26 23  1  0  0  0  0
 27 29  1  0  0  0  0
 27 22  2  0  0  0  0
 28 26  2  0  0  0  0
 29 16  1  6  0  0  0
 29 20  1  0  0  0  0
 30 31  1  0  0  0  0
 32  1  1  0  0  0  0
 33 32  1  0  0  0  0
 34 35  2  0  0  0  0
 35 33  2  0  0  0  0
 36 34  1  0  0  0  0
 36 37  2  0  0  0  0
 38 37  1  0  0  0  0
 39 36  1  0  0  0  0
 40 39  2  0  0  0  0
 41 39  2  0  0  0  0
 42 39  1  0  0  0  0
 43 42  1  0  0  0  0
 43 44  1  0  0  0  0
 45 44  1  0  0  0  0
 46 45  1  0  0  0  0
 46 47  1  0  0  0  0
 47 48  1  0  0  0  0
M  END
>  <MODEL>
7

>  <REMARK>
 VINA RESULT:      -4.3      4.001      6.358
  Name = 
  23 active torsions:
  status: ('A' for Active; 'I' for Inactive)
    1  A    between atoms: C_3  and  N_17
    2  A    between atoms: C_3  and  C_47
    3  A    between atoms: N_5  and  C_23
    4  A    between atoms: N_5  and  C_29
    5  A    between atoms: C_7  and  O_8
    6  A    between atoms: C_9  and  C_24
    7  A    between atoms: C_9  and  N_43
    8  A    between atoms: C_10  and  N_17
    9  A    between atoms: C_10  and  C_27
   10  A    between atoms: C_12  and  C_13
   11  A    between atoms: C_13  and  N_14
   12  A    between atoms: N_14  and  C_25
   13  A    between atoms: C_16  and  C_19
   14  A    between atoms: C_19  and  C_46
   15  A    between atoms: C_20  and  C_21
   16  A    between atoms: C_20  and  S_28
   17  A    between atoms: C_24  and  C_29
   18  A    between atoms: C_25  and  C_35
   19  A    between atoms: C_27  and  C_35
   20  A    between atoms: S_28  and  N_43
   21  A    between atoms: C_38  and  O_48
   22  A    between atoms: C_39  and  C_47
   23  A    between atoms: C_39  and  O_48
                            x       y       z     vdW  Elec       q    Type
                         _______ _______ _______ _____ _____    ______ ____

>  <TORSDO>
F 23

$$$$
=
 OpenBabel11042423063D

 48 50  0  0  1  0  0  0  0  0999 V2000
  159.9270  213.1430  144.9820 N   0  0  0  0  0  0  0  0  0  0  0  0
  160.9960  212.8390  145.8920 C   0  0  0  0  0  0  0  0  0  0  0  0
  162.1680  213.2290  145.6350 O   0  0  0  0  0  0  0  0  0  0  0  0
  158.5320  212.9740  145.3760 C   0  0  0  0  0  2  0  0  0  0  0  0
  158.4400  212.4690  146.8070 C   0  0  0  0  0  2  0  0  0  0  0  0
  157.0730  212.7560  147.3990 C   0  0  0  0  0  2  0  0  0  0  0  0
  156.9270  214.2410  147.6720 C   0  0  0  0  0  2  0  0  0  0  0  0
  156.4230  214.4440  149.0180 N   0  0  0  0  0  2  0  0  0  0  0  0
  157.4040  213.8620  149.9190 C   0  0  0  0  0  2  0  0  0  0  0  0
  157.0050  214.1170  151.3630 C   0  0  0  0  0  2  0  0  0  0  0  0
  157.4620  212.9740  152.2710 C   0  0  1  0  0  3  0  0  0  0  0  0
  158.7820  212.5900  151.9980 O   0  0  0  0  0  1  0  0  0  0  0  0
  157.2730  213.2610  153.6400 O   0  0  0  0  0  0  0  0  0  0  0  0
  158.3860  214.4470  155.3880 C   0  0  0  0  0  1  0  0  0  0  0  0
  158.5280  213.4710  154.2360 C   0  0  0  0  0  2  0  0  0  0  0  0
  160.7290  212.0990  147.1690 C   0  0  0  0  0  2  0  0  0  0  0  0
  161.2860  205.8020  150.5910 C   0  0  0  0  0  3  0  0  0  0  0  0
  161.6640  208.1650  150.2300 C   0  0  0  0  0  0  0  0  0  0  0  0
  161.9690  209.4400  150.7330 C   0  0  0  0  0  3  0  0  0  0  0  0
  161.8250  210.3220  148.4950 C   0  0  0  0  0  0  0  0  0  0  0  0
  161.0840  205.6080  149.2120 C   0  0  0  0  0  0  0  0  0  0  0  0
  162.3820  211.8280  150.0900 N   0  0  0  0  0  0  0  0  0  0  0  0
  161.1690  206.7000  148.3410 C   0  0  0  0  0  3  0  0  0  0  0  0
  162.0420  210.4910  149.8210 C   0  0  0  0  0  0  0  0  0  0  0  0
  161.5760  207.0730  151.0960 C   0  0  0  0  0  3  0  0  0  0  0  0
  161.4530  207.9760  148.8320 C   0  0  0  0  0  0  0  0  0  0  0  0
  162.4100  212.5760  148.8960 N   0  0  0  0  0  0  0  0  0  0  0  0
  161.5380  209.0690  147.9520 C   0  0  0  0  0  3  0  0  0  0  0  0
  162.0260  211.6320  147.8190 C   0  0  2  0  0  3  0  0  0  0  0  0
  160.7980  204.3460  148.6860 O   0  0  0  0  0  0  0  0  0  0  0  0
  161.5960  203.7340  147.6810 C   0  0  0  0  0  1  0  0  0  0  0  0
  160.2170  213.7380  143.6830 C   0  0  0  0  0  2  0  0  0  0  0  0
  160.1030  212.7100  142.6120 C   0  0  0  0  0  3  0  0  0  0  0  0
  162.2270  211.9640  141.2880 C   0  0  0  0  0  3  0  0  0  0  0  0
  161.1630  212.3380  141.9510 C   0  0  0  0  0  0  0  0  0  0  0  0
  162.1780  211.1140  140.0850 C   0  0  0  0  0  0  0  0  0  0  0  0
  161.8610  209.8150  140.1860 C   0  0  0  0  0  3  0  0  0  0  0  0
  161.7710  208.8720  139.0320 C   0  0  0  0  0  1  0  0  0  0  0  0
  162.5280  211.8890  138.5330 S   0  0  0  0  0  0  0  0  0  0  0  0
  163.5760  212.9450  138.7470 O   0  0  0  0  0  0  0  0  0  0  0  0
  163.0670  210.8900  137.5460 O   0  0  0  0  0  0  0  0  0  0  0  0
  161.1010  212.6460  137.9010 N   0  0  0  0  0  2  0  0  0  0  0  0
  159.9720  211.7510  138.1080 C   0  0  0  0  0  2  0  0  0  0  0  0
  158.8230  212.1350  137.1920 C   0  0  0  0  0  2  0  0  0  0  0  0
  157.4950  211.9430  137.9050 C   0  0  0  0  0  2  0  0  0  0  0  0
  157.6210  210.8970  138.9050 N   0  0  0  0  0  2  0  0  0  0  0  0
  156.9720  209.7140  138.3660 C   0  0  0  0  0  2  0  0  0  0  0  0
  155.9390  209.3210  139.2170 O   0  0  0  0  0  1  0  0  0  0  0  0
  1  4  1  0  0  0  0
  1  2  1  0  0  0  0
  2 16  1  0  0  0  0
  3  2  2  0  0  0  0
  4  5  1  0  0  0  0
  5  6  1  0  0  0  0
  6  7  1  0  0  0  0
  7  8  1  0  0  0  0
  8  9  1  0  0  0  0
  9 10  1  0  0  0  0
 10 11  1  0  0  0  0
 11 12  1  1  0  0  0
 11 13  1  0  0  0  0
 13 15  1  0  0  0  0
 15 14  1  0  0  0  0
 17 25  1  0  0  0  0
 18 19  1  0  0  0  0
 18 25  2  0  0  0  0
 20 24  1  0  0  0  0
 21 17  2  0  0  0  0
 23 26  2  0  0  0  0
 23 21  1  0  0  0  0
 24 22  1  0  0  0  0
 24 19  2  0  0  0  0
 26 18  1  0  0  0  0
 27 22  2  0  0  0  0
 28 20  2  0  0  0  0
 28 26  1  0  0  0  0
 29 16  1  1  0  0  0
 29 20  1  0  0  0  0
 29 27  1  0  0  0  0
 30 21  1  0  0  0  0
 31 30  1  0  0  0  0
 32  1  1  0  0  0  0
 33 32  1  0  0  0  0
 34 35  2  0  0  0  0
 35 33  2  0  0  0  0
 36 37  2  0  0  0  0
 36 34  1  0  0  0  0
 38 37  1  0  0  0  0
 39 40  2  0  0  0  0
 39 36  1  0  0  0  0
 41 39  2  0  0  0  0
 42 43  1  0  0  0  0
 42 39  1  0  0  0  0
 44 45  1  0  0  0  0
 44 43  1  0  0  0  0
 45 46  1  0  0  0  0
 47 46  1  0  0  0  0
 47 48  1  0  0  0  0
M  END
>  <MODEL>
8

>  <REMARK>
 VINA RESULT:      -4.2      3.496      8.992
  Name = 
  23 active torsions:
  status: ('A' for Active; 'I' for Inactive)
    1  A    between atoms: C_3  and  N_17
    2  A    between atoms: C_3  and  C_47
    3  A    between atoms: N_5  and  C_23
    4  A    between atoms: N_5  and  C_29
    5  A    between atoms: C_7  and  O_8
    6  A    between atoms: C_9  and  C_24
    7  A    between atoms: C_9  and  N_43
    8  A    between atoms: C_10  and  N_17
    9  A    between atoms: C_10  and  C_27
   10  A    between atoms: C_12  and  C_13
   11  A    between atoms: C_13  and  N_14
   12  A    between atoms: N_14  and  C_25
   13  A    between atoms: C_16  and  C_19
   14  A    between atoms: C_19  and  C_46
   15  A    between atoms: C_20  and  C_21
   16  A    between atoms: C_20  and  S_28
   17  A    between atoms: C_24  and  C_29
   18  A    between atoms: C_25  and  C_35
   19  A    between atoms: C_27  and  C_35
   20  A    between atoms: S_28  and  N_43
   21  A    between atoms: C_38  and  O_48
   22  A    between atoms: C_39  and  C_47
   23  A    between atoms: C_39  and  O_48
                            x       y       z     vdW  Elec       q    Type
                         _______ _______ _______ _____ _____    ______ ____

>  <TORSDO>
F 23

$$$$
=
 OpenBabel11042423063D

 48 50  0  0  1  0  0  0  0  0999 V2000
  161.9590  210.2500  149.9040 N   0  0  0  0  0  0  0  0  0  0  0  0
  161.9660  208.8380  150.1690 C   0  0  0  0  0  0  0  0  0  0  0  0
  161.5710  208.4080  151.2870 O   0  0  0  0  0  0  0  0  0  0  0  0
  162.1220  210.7620  148.5480 C   0  0  0  0  0  2  0  0  0  0  0  0
  161.3300  212.0480  148.3640 C   0  0  0  0  0  2  0  0  0  0  0  0
  161.4370  212.5540  146.9370 C   0  0  0  0  0  2  0  0  0  0  0  0
  162.6180  213.4980  146.8090 C   0  0  0  0  0  2  0  0  0  0  0  0
  162.4940  214.2730  145.5890 N   0  0  0  0  0  2  0  0  0  0  0  0
  161.9750  213.3700  144.5760 C   0  0  0  0  0  2  0  0  0  0  0  0
  163.0590  213.0400  143.5640 C   0  0  0  0  0  2  0  0  0  0  0  0
  162.6260  213.4210  142.1470 C   0  0  1  0  0  3  0  0  0  0  0  0
  162.6170  212.3130  141.2900 O   0  0  0  0  0  1  0  0  0  0  0  0
  161.3930  214.1090  142.1250 O   0  0  0  0  0  0  0  0  0  0  0  0
  159.6790  212.4760  141.8100 C   0  0  0  0  0  1  0  0  0  0  0  0
  160.5640  213.5210  141.1560 C   0  0  0  0  0  2  0  0  0  0  0  0
  162.3970  207.8630  149.1150 C   0  0  0  0  0  2  0  0  0  0  0  0
  161.0000  200.8750  148.1670 C   0  0  0  0  0  3  0  0  0  0  0  0
  161.1870  203.2010  147.5260 C   0  0  0  0  0  0  0  0  0  0  0  0
  161.3520  204.1810  146.5330 C   0  0  0  0  0  3  0  0  0  0  0  0
  161.2060  205.8820  148.2340 C   0  0  0  0  0  0  0  0  0  0  0  0
  160.8220  201.2450  149.5120 C   0  0  0  0  0  0  0  0  0  0  0  0
  161.4480  206.6510  146.1190 N   0  0  0  0  0  0  0  0  0  0  0  0
  160.8310  202.5990  149.8640 C   0  0  0  0  0  3  0  0  0  0  0  0
  161.3520  205.5140  146.9380 C   0  0  0  0  0  0  0  0  0  0  0  0
  161.1800  201.8480  147.1790 C   0  0  0  0  0  3  0  0  0  0  0  0
  161.0140  203.5820  148.8880 C   0  0  0  0  0  0  0  0  0  0  0  0
  161.3450  207.8240  146.8950 N   0  0  0  0  0  0  0  0  0  0  0  0
  161.0200  204.9400  149.2470 C   0  0  0  0  0  3  0  0  0  0  0  0
  161.2080  207.3680  148.2990 C   0  0  2  0  0  3  0  0  0  0  0  0
  160.6360  200.2890  150.5150 O   0  0  0  0  0  0  0  0  0  0  0  0
  159.9190  200.5610  151.7110 C   0  0  0  0  0  1  0  0  0  0  0  0
  161.6720  211.1960  150.9760 C   0  0  0  0  0  2  0  0  0  0  0  0
  160.6020  210.6580  151.8600 C   0  0  0  0  0  3  0  0  0  0  0  0
  159.4110  212.2310  153.5710 C   0  0  0  0  0  3  0  0  0  0  0  0
  160.0080  211.4430  152.7140 C   0  0  0  0  0  0  0  0  0  0  0  0
  158.4930  211.7460  154.6190 C   0  0  0  0  0  0  0  0  0  0  0  0
  157.2190  211.4540  154.3220 C   0  0  0  0  0  3  0  0  0  0  0  0
  156.2150  210.9470  155.3030 C   0  0  0  0  0  1  0  0  0  0  0  0
  159.1580  211.5520  156.2480 S   0  0  0  0  0  0  0  0  0  0  0  0
  159.8930  212.8100  156.6220 O   0  0  0  0  0  0  0  0  0  0  0  0
  158.0590  211.3370  157.2520 O   0  0  0  0  0  0  0  0  0  0  0  0
  160.2760  210.2260  156.2880 N   0  0  0  0  0  2  0  0  0  0  0  0
  159.7300  209.1360  155.4920 C   0  0  0  0  0  2  0  0  0  0  0  0
  160.5560  207.8770  155.6900 C   0  0  0  0  0  2  0  0  0  0  0  0
  161.0480  207.3530  154.3520 C   0  0  0  0  0  2  0  0  0  0  0  0
  160.9050  205.9080  154.3070 N   0  0  0  0  0  2  0  0  0  0  0  0
  161.1990  205.4950  152.9460 C   0  0  0  0  0  2  0  0  0  0  0  0
  160.8170  204.1640  152.7710 O   0  0  0  0  0  1  0  0  0  0  0  0
  1  2  1  0  0  0  0
  1 32  1  0  0  0  0
  2  3  2  0  0  0  0
  4  1  1  0  0  0  0
  5  4  1  0  0  0  0
  6  5  1  0  0  0  0
  7  6  1  0  0  0  0
  8  7  1  0  0  0  0
  9  8  1  0  0  0  0
 10  9  1  0  0  0  0
 11 12  1  6  0  0  0
 11 10  1  0  0  0  0
 13 11  1  0  0  0  0
 15 14  1  0  0  0  0
 15 13  1  0  0  0  0
 16  2  1  0  0  0  0
 17 21  1  0  0  0  0
 18 26  1  0  0  0  0
 19 24  1  0  0  0  0
 19 18  2  0  0  0  0
 20 29  1  0  0  0  0
 20 28  1  0  0  0  0
 21 23  2  0  0  0  0
 21 30  1  0  0  0  0
 22 27  2  0  0  0  0
 22 24  1  0  0  0  0
 24 20  2  0  0  0  0
 25 18  1  0  0  0  0
 25 17  2  0  0  0  0
 26 28  2  0  0  0  0
 26 23  1  0  0  0  0
 27 29  1  0  0  0  0
 29 16  1  1  0  0  0
 30 31  1  0  0  0  0
 32 33  1  0  0  0  0
 33 35  2  0  0  0  0
 34 36  1  0  0  0  0
 35 34  2  0  0  0  0
 36 39  1  0  0  0  0
 37 36  2  0  0  0  0
 37 38  1  0  0  0  0
 39 42  1  0  0  0  0
 39 40  2  0  0  0  0
 39 41  2  0  0  0  0
 43 44  1  0  0  0  0
 43 42  1  0  0  0  0
 45 44  1  0  0  0  0
 46 45  1  0  0  0  0
 47 46  1  0  0  0  0
 48 47  1  0  0  0  0
M  END
>  <MODEL>
9

>  <REMARK>
 VINA RESULT:      -4.1      2.759     10.106
  Name = 
  23 active torsions:
  status: ('A' for Active; 'I' for Inactive)
    1  A    between atoms: C_3  and  N_17
    2  A    between atoms: C_3  and  C_47
    3  A    between atoms: N_5  and  C_23
    4  A    between atoms: N_5  and  C_29
    5  A    between atoms: C_7  and  O_8
    6  A    between atoms: C_9  and  C_24
    7  A    between atoms: C_9  and  N_43
    8  A    between atoms: C_10  and  N_17
    9  A    between atoms: C_10  and  C_27
   10  A    between atoms: C_12  and  C_13
   11  A    between atoms: C_13  and  N_14
   12  A    between atoms: N_14  and  C_25
   13  A    between atoms: C_16  and  C_19
   14  A    between atoms: C_19  and  C_46
   15  A    between atoms: C_20  and  C_21
   16  A    between atoms: C_20  and  S_28
   17  A    between atoms: C_24  and  C_29
   18  A    between atoms: C_25  and  C_35
   19  A    between atoms: C_27  and  C_35
   20  A    between atoms: S_28  and  N_43
   21  A    between atoms: C_38  and  O_48
   22  A    between atoms: C_39  and  C_47
   23  A    between atoms: C_39  and  O_48
                            x       y       z     vdW  Elec       q    Type
                         _______ _______ _______ _____ _____    ______ ____

>  <TORSDO>
F 23

$$$$
