=
 OpenBabel11042422073D

 54 62  0  0  1  0  0  0  0  0999 V2000
  158.9700  214.3350  147.1700 C   0  0  0  0  0  3  0  0  0  0  0  0
  156.5970  213.9570  152.1210 N   0  0  0  0  0  0  0  0  0  0  0  0
  156.9680  214.1350  148.4800 N   0  0  0  0  0  0  0  0  0  0  0  0
  159.3240  214.1000  151.9870 C   0  0  0  0  0  3  0  0  0  0  0  0
  158.9250  214.1940  144.6300 C   0  0  2  0  0  3  0  0  0  0  0  0
  158.6960  214.0120  153.1840 N   0  0  0  0  0  0  0  0  0  0  0  0
  156.0940  214.2250  147.3000 C   0  0  0  0  0  2  0  0  0  0  0  0
  159.2130  214.2180  149.6000 C   0  0  0  0  0  0  0  0  0  0  0  0
  156.8540  214.1420  146.0000 C   0  0  0  0  0  3  0  0  0  0  0  0
  154.9690  213.9380  149.9320 N   0  0  0  0  0  1  0  0  0  0  0  0
  157.3440  213.9460  153.2550 C   0  0  0  0  0  3  0  0  0  0  0  0
  162.3740  213.7010  146.8470 C   0  0  2  0  0  3  0  0  0  0  0  0
  163.2230  212.9070  145.8840 C   0  0  0  0  0  2  0  0  0  0  0  0
  161.2030  212.8860  148.9320 C   0  0  2  0  0  3  0  0  0  0  0  0
  162.5390  213.0720  148.2240 C   0  0  0  0  0  2  0  0  0  0  0  0
  157.1720  214.0430  150.8920 C   0  0  0  0  0  0  0  0  0  0  0  0
  156.3880  214.0400  149.7940 C   0  0  0  0  0  0  0  0  0  0  0  0
  161.7150  212.7370  145.8670 C   0  0  2  0  0  3  0  0  0  0  0  0
  158.5880  214.1260  150.7950 C   0  0  0  0  0  0  0  0  0  0  0  0
  158.3960  214.2510  148.3700 C   0  0  0  0  0  0  0  0  0  0  0  0
  161.2020  213.4520  144.7820 O   0  0  0  0  0  0  0  0  0  0  0  0
  159.8940  212.9980  144.5880 C   0  0  2  0  0  3  0  0  0  0  0  0
  160.7170  214.2160  149.4980 C   0  0  0  0  0  2  0  0  0  0  0  0
  158.1850  214.2510  145.9370 C   0  0  0  0  0  0  0  0  0  0  0  0
  157.8810  214.4420  143.1860 Cl  0  0  0  0  0  0  0  0  0  0  0  0
  159.7940  212.1230  143.3330 C   0  0  0  0  0  2  0  0  0  0  0  0
  160.8810  212.4480  142.3170 C   0  0  0  0  0  2  0  0  0  0  0  0
  160.7510  211.5180  141.1270 C   0  0  0  0  0  2  0  0  0  0  0  0
  161.1890  212.2470  139.8690 C   0  0  0  0  0  2  0  0  0  0  0  0
  160.7460  211.4940  138.6240 C   0  0  1  0  0  3  0  0  0  0  0  0
  161.8060  210.7180  138.1460 O   0  0  0  0  0  0  0  0  0  0  0  0
  162.3060  211.4230  137.0500 C   0  0  0  0  0  1  0  0  0  0  0  0
  159.5640  210.5890  138.9490 C   0  0  0  0  0  2  0  0  0  0  0  0
  158.3450  211.0010  138.1580 C   0  0  0  0  0  2  0  0  0  0  0  0
  156.6070  209.6560  139.2260 O   0  0  0  0  0  0  0  0  0  0  0  0
  154.8700  211.3370  139.2300 C   0  0  0  0  0  2  0  0  0  0  0  0
  155.2020  209.8520  139.1030 C   0  0  0  0  0  2  0  0  0  0  0  0
  156.4470  213.1130  138.8510 O   0  0  0  0  0  0  0  0  0  0  0  0
  157.1540  210.8740  138.9720 N   0  0  0  0  0  0  0  0  0  0  0  0
  156.1930  211.8940  139.0220 C   0  0  0  0  0  0  0  0  0  0  0  0
  161.2920  211.8580  150.0520 C   0  0  0  0  0  2  0  0  0  0  0  0
  162.1070  210.6400  149.6350 C   0  0  0  0  0  2  0  0  0  0  0  0
  162.2310  209.7390  150.7680 N   0  0  0  0  0  2  0  0  0  0  0  0
  160.7930  206.4860  149.5940 C   0  0  1  0  0  3  0  0  0  0  0  0
  162.0190  205.5030  151.6210 C   0  0  1  0  0  0  0  0  0  0  0  0
  160.3610  206.0650  148.3360 O   0  0  0  0  0  1  0  0  0  0  0  0
  160.9260  205.0380  152.5410 C   0  0  0  0  0  2  0  0  0  0  0  0
  161.0600  203.2700  150.9230 C   0  0  0  0  0  1  0  0  0  0  0  0
  162.2400  206.9660  152.0980 C   0  0  0  0  0  2  0  0  0  0  0  0
  161.6800  205.4660  150.1690 N   0  0  1  0  0  0  0  0  0  0  0  0
  161.1930  208.7250  150.6430 C   0  0  2  0  0  3  0  0  0  0  0  0
  161.0790  207.9460  151.9530 C   0  0  0  0  0  2  0  0  0  0  0  0
  160.7900  204.7530  151.0910 C   0  0  2  0  0  0  0  0  0  0  0  0
  161.5100  207.8220  149.4530 C   0  0  0  0  0  2  0  0  0  0  0  0
  1 20  2  0  0  0  0
  2 11  2  0  0  0  0
  3 17  1  0  0  0  0
  4  6  2  0  0  0  0
  5 25  1  6  0  0  0
  5 24  1  0  0  0  0
  6 11  1  0  0  0  0
  7  3  1  0  0  0  0
  8 19  2  0  0  0  0
  9  7  1  0  0  0  0
 12 13  1  6  0  0  0
 12 15  1  0  0  0  0
 14 23  1  0  0  0  0
 14 41  1  1  0  0  0
 15 14  1  0  0  0  0
 16  2  1  0  0  0  0
 17 10  1  0  0  0  0
 17 16  2  0  0  0  0
 18 13  1  6  0  0  0
 18 12  1  0  0  0  0
 19 16  1  0  0  0  0
 19  4  1  0  0  0  0
 20  3  1  0  0  0  0
 20  8  1  0  0  0  0
 21 18  1  0  0  0  0
 22 26  1  6  0  0  0
 22  5  1  0  0  0  0
 22 21  1  0  0  0  0
 23  8  1  0  0  0  0
 24  9  2  0  0  0  0
 24  1  1  0  0  0  0
 27 26  1  0  0  0  0
 28 27  1  0  0  0  0
 29 28  1  0  0  0  0
 30 33  1  1  0  0  0
 30 29  1  0  0  0  0
 31 30  1  0  0  0  0
 32 31  1  0  0  0  0
 34 33  1  0  0  0  0
 34 39  1  0  0  0  0
 37 35  1  0  0  0  0
 37 36  1  0  0  0  0
 38 40  2  0  0  0  0
 39 40  1  0  0  0  0
 39 35  1  0  0  0  0
 40 36  1  0  0  0  0
 42 41  1  0  0  0  0
 42 43  1  0  0  0  0
 44 46  1  6  0  0  0
 44 50  1  0  0  0  0
 45 49  1  6  0  0  0
 45 47  1  0  0  0  0
 48 53  1  0  0  0  0
 50 53  1  0  0  0  0
 50 45  1  0  0  0  0
 51 43  1  0  0  0  0
 51 52  1  0  0  0  0
 52 49  1  0  0  0  0
 53 45  1  0  0  0  0
 53 47  1  0  0  0  0
 54 44  1  0  0  0  0
 54 51  1  0  0  0  0
M  END
>  <MODEL>
1

>  <REMARK>
 VINA RESULT:      -6.8      0.000      0.000
  Name = 
  13 active torsions:
  status: ('A' for Active; 'I' for Inactive)
    1  A    between atoms: O_4  and  C_12
    2  A    between atoms: C_8  and  C_23
    3  A    between atoms: C_8  and  N_43
    4  A    between atoms: C_10  and  C_16
    5  A    between atoms: C_10  and  C_29
    6  A    between atoms: C_12  and  C_17
    7  A    between atoms: C_12  and  C_23
    8  A    between atoms: C_16  and  C_17
    9  A    between atoms: N_28  and  C_34
   10  A    between atoms: N_28  and  C_42
   11  A    between atoms: C_29  and  C_46
   12  A    between atoms: C_32  and  C_52
   13  A    between atoms: C_34  and  C_52
                            x       y       z     vdW  Elec       q    Type
                         _______ _______ _______ _____ _____    ______ ____

>  <TORSDO>
F 13

$$$$
=
 OpenBabel11042422073D

 54 62  0  0  1  0  0  0  0  0999 V2000
  159.0640  213.2590  150.1970 C   0  0  0  0  0  3  0  0  0  0  0  0
  156.5240  212.7680  155.0550 N   0  0  0  0  0  0  0  0  0  0  0  0
  157.0610  213.4860  151.5020 N   0  0  0  0  0  0  0  0  0  0  0  0
  159.1510  212.0320  154.8740 C   0  0  0  0  0  3  0  0  0  0  0  0
  159.0640  213.6130  147.6770 C   0  0  2  0  0  3  0  0  0  0  0  0
  158.4860  211.9350  156.0500 N   0  0  0  0  0  0  0  0  0  0  0  0
  156.3070  214.0740  150.3840 C   0  0  0  0  0  2  0  0  0  0  0  0
  159.1690  212.6200  152.5550 C   0  0  0  0  0  0  0  0  0  0  0  0
  157.0430  213.9890  149.0710 C   0  0  0  0  0  3  0  0  0  0  0  0
  155.0580  213.6890  152.9460 N   0  0  0  0  0  1  0  0  0  0  0  0
  157.1850  212.3030  156.1460 C   0  0  0  0  0  3  0  0  0  0  0  0
  162.0830  211.6160  149.6670 C   0  0  2  0  0  3  0  0  0  0  0  0
  162.6590  210.7810  148.5490 C   0  0  0  0  0  2  0  0  0  0  0  0
  160.6370  210.8580  151.5950 C   0  0  2  0  0  3  0  0  0  0  0  0
  161.9840  210.7240  150.8970 C   0  0  0  0  0  2  0  0  0  0  0  0
  157.1380  212.8870  153.8470 C   0  0  0  0  0  0  0  0  0  0  0  0
  156.4350  213.3440  152.7900 C   0  0  0  0  0  0  0  0  0  0  0  0
  161.1800  211.1200  148.5430 C   0  0  2  0  0  3  0  0  0  0  0  0
  158.5060  212.5180  153.7280 C   0  0  0  0  0  0  0  0  0  0  0  0
  158.4510  213.1460  151.3760 C   0  0  0  0  0  0  0  0  0  0  0  0
  160.9680  212.1520  147.6250 O   0  0  0  0  0  0  0  0  0  0  0  0
  159.5910  212.1960  147.3860 C   0  0  2  0  0  3  0  0  0  0  0  0
  160.5920  212.1450  152.4120 C   0  0  0  0  0  2  0  0  0  0  0  0
  158.3380  213.6660  148.9920 C   0  0  0  0  0  0  0  0  0  0  0  0
  158.2110  214.4530  146.3350 Cl  0  0  0  0  0  0  0  0  0  0  0  0
  159.2540  211.6510  145.9930 C   0  0  0  0  0  2  0  0  0  0  0  0
  160.2980  212.0420  144.9560 C   0  0  0  0  0  2  0  0  0  0  0  0
  159.6570  212.0670  143.5820 C   0  0  0  0  0  2  0  0  0  0  0  0
  160.3110  213.1500  142.7410 C   0  0  0  0  0  2  0  0  0  0  0  0
  161.2680  212.5430  141.7260 C   0  0  1  0  0  3  0  0  0  0  0  0
  162.4930  212.2760  142.3420 O   0  0  0  0  0  0  0  0  0  0  0  0
  162.9920  213.5250  142.7130 C   0  0  0  0  0  1  0  0  0  0  0  0
  160.6900  211.2490  141.1670 C   0  0  0  0  0  2  0  0  0  0  0  0
  161.7800  210.4000  140.5550 C   0  0  0  0  0  2  0  0  0  0  0  0
  160.9010  211.0010  138.3570 O   0  0  0  0  0  0  0  0  0  0  0  0
  160.1430  208.7980  137.7100 C   0  0  0  0  0  2  0  0  0  0  0  0
  159.8880  210.3020  137.6400 C   0  0  0  0  0  2  0  0  0  0  0  0
  161.4810  207.7310  139.4000 O   0  0  0  0  0  0  0  0  0  0  0  0
  161.4480  210.0720  139.1840 N   0  0  0  0  0  0  0  0  0  0  0  0
  161.0850  208.7690  138.8140 C   0  0  0  0  0  0  0  0  0  0  0  0
  160.3450  209.6690  152.5000 C   0  0  0  0  0  2  0  0  0  0  0  0
  161.4420  208.6160  152.4170 C   0  0  0  0  0  2  0  0  0  0  0  0
  160.8390  207.2940  152.4570 N   0  0  0  0  0  2  0  0  0  0  0  0
  161.3870  204.5630  149.9540 C   0  0  1  0  0  3  0  0  0  0  0  0
  160.9380  206.4030  148.2250 C   0  0  1  0  0  0  0  0  0  0  0  0
  161.2620  203.1770  150.0520 O   0  0  0  0  0  1  0  0  0  0  0  0
  162.2460  206.5870  147.5110 C   0  0  0  0  0  2  0  0  0  0  0  0
  161.3300  204.6310  146.4640 C   0  0  0  0  0  1  0  0  0  0  0  0
  161.0620  207.4220  149.3930 C   0  0  0  0  0  2  0  0  0  0  0  0
  160.6910  205.0280  148.7460 N   0  0  1  0  0  0  0  0  0  0  0  0
  161.6440  206.4150  151.6200 C   0  0  2  0  0  3  0  0  0  0  0  0
  162.1710  207.1990  150.4180 C   0  0  0  0  0  2  0  0  0  0  0  0
  161.7900  205.2040  147.7920 C   0  0  2  0  0  0  0  0  0  0  0  0
  160.8090  205.2060  151.2060 C   0  0  0  0  0  2  0  0  0  0  0  0
  1 20  2  0  0  0  0
  2 11  2  0  0  0  0
  3 17  1  0  0  0  0
  4  6  2  0  0  0  0
  5 25  1  6  0  0  0
  5 24  1  0  0  0  0
  6 11  1  0  0  0  0
  7  3  1  0  0  0  0
  8 19  2  0  0  0  0
  9  7  1  0  0  0  0
 12 13  1  6  0  0  0
 12 15  1  0  0  0  0
 14 23  1  0  0  0  0
 14 41  1  1  0  0  0
 15 14  1  0  0  0  0
 16  2  1  0  0  0  0
 17 10  1  0  0  0  0
 17 16  2  0  0  0  0
 18 13  1  6  0  0  0
 18 12  1  0  0  0  0
 19 16  1  0  0  0  0
 19  4  1  0  0  0  0
 20  3  1  0  0  0  0
 20  8  1  0  0  0  0
 21 18  1  0  0  0  0
 22 26  1  6  0  0  0
 22 21  1  0  0  0  0
 22  5  1  0  0  0  0
 23  8  1  0  0  0  0
 24  9  2  0  0  0  0
 24  1  1  0  0  0  0
 27 26  1  0  0  0  0
 28 27  1  0  0  0  0
 29 28  1  0  0  0  0
 30 33  1  1  0  0  0
 30 31  1  0  0  0  0
 30 29  1  0  0  0  0
 31 32  1  0  0  0  0
 34 33  1  0  0  0  0
 35 39  1  0  0  0  0
 36 40  1  0  0  0  0
 37 36  1  0  0  0  0
 37 35  1  0  0  0  0
 39 34  1  0  0  0  0
 40 39  1  0  0  0  0
 40 38  2  0  0  0  0
 42 43  1  0  0  0  0
 42 41  1  0  0  0  0
 44 46  1  1  0  0  0
 44 54  1  0  0  0  0
 45 47  1  6  0  0  0
 45 50  1  0  0  0  0
 45 49  1  0  0  0  0
 47 53  1  0  0  0  0
 48 53  1  0  0  0  0
 49 52  1  0  0  0  0
 50 44  1  0  0  0  0
 51 43  1  0  0  0  0
 52 51  1  0  0  0  0
 53 45  1  0  0  0  0
 53 50  1  0  0  0  0
 54 51  1  0  0  0  0
M  END
>  <MODEL>
2

>  <REMARK>
 VINA RESULT:      -6.5      2.380      3.707
  Name = 
  13 active torsions:
  status: ('A' for Active; 'I' for Inactive)
    1  A    between atoms: O_4  and  C_12
    2  A    between atoms: C_8  and  C_23
    3  A    between atoms: C_8  and  N_43
    4  A    between atoms: C_10  and  C_16
    5  A    between atoms: C_10  and  C_29
    6  A    between atoms: C_12  and  C_17
    7  A    between atoms: C_12  and  C_23
    8  A    between atoms: C_16  and  C_17
    9  A    between atoms: N_28  and  C_34
   10  A    between atoms: N_28  and  C_42
   11  A    between atoms: C_29  and  C_46
   12  A    between atoms: C_32  and  C_52
   13  A    between atoms: C_34  and  C_52
                            x       y       z     vdW  Elec       q    Type
                         _______ _______ _______ _____ _____    ______ ____

>  <TORSDO>
F 13

$$$$
=
 OpenBabel11042422073D

 54 62  0  0  1  0  0  0  0  0999 V2000
  158.8580  214.1940  148.1470 C   0  0  0  0  0  3  0  0  0  0  0  0
  155.8810  214.1070  152.7750 N   0  0  0  0  0  0  0  0  0  0  0  0
  156.7040  214.2480  149.2070 N   0  0  0  0  0  0  0  0  0  0  0  0
  158.6000  213.8980  152.9670 C   0  0  0  0  0  3  0  0  0  0  0  0
  159.1000  214.0680  145.6170 C   0  0  2  0  0  3  0  0  0  0  0  0
  157.8270  213.8880  154.0800 N   0  0  0  0  0  0  0  0  0  0  0  0
  155.9970  214.4530  147.9340 C   0  0  0  0  0  2  0  0  0  0  0  0
  158.7910  214.0380  150.5870 C   0  0  0  0  0  0  0  0  0  0  0  0
  156.8900  214.2780  146.7320 C   0  0  0  0  0  3  0  0  0  0  0  0
  154.5380  214.3050  150.4090 N   0  0  0  0  0  1  0  0  0  0  0  0
  156.4790  213.9960  153.9890 C   0  0  0  0  0  3  0  0  0  0  0  0
  162.1680  213.1270  148.2180 C   0  0  2  0  0  3  0  0  0  0  0  0
  163.0180  212.2350  147.3460 C   0  0  0  0  0  2  0  0  0  0  0  0
  160.6620  212.4630  150.1340 C   0  0  2  0  0  3  0  0  0  0  0  0
  162.0860  212.4780  149.5920 C   0  0  0  0  0  2  0  0  0  0  0  0
  156.6050  214.1220  151.6240 C   0  0  0  0  0  0  0  0  0  0  0  0
  155.9640  214.2230  150.4410 C   0  0  0  0  0  0  0  0  0  0  0  0
  161.5140  212.2590  147.1490 C   0  0  2  0  0  3  0  0  0  0  0  0
  158.0220  214.0230  151.6970 C   0  0  0  0  0  0  0  0  0  0  0  0
  158.1390  214.1800  149.2690 C   0  0  0  0  0  0  0  0  0  0  0  0
  161.2300  213.0380  146.0240 O   0  0  0  0  0  0  0  0  0  0  0  0
  159.9070  212.7570  145.6680 C   0  0  2  0  0  3  0  0  0  0  0  0
  160.2840  213.8430  150.6620 C   0  0  0  0  0  2  0  0  0  0  0  0
  158.2220  214.2150  146.8280 C   0  0  0  0  0  0  0  0  0  0  0  0
  158.2760  214.4530  144.0650 Cl  0  0  0  0  0  0  0  0  0  0  0  0
  159.8470  211.9070  144.3940 C   0  0  0  0  0  2  0  0  0  0  0  0
  160.7700  212.4380  143.3050 C   0  0  0  0  0  2  0  0  0  0  0  0
  160.2410  212.0150  141.9480 C   0  0  0  0  0  2  0  0  0  0  0  0
  161.3000  212.2780  140.8920 C   0  0  0  0  0  2  0  0  0  0  0  0
  161.0160  211.4790  139.6280 C   0  0  1  0  0  3  0  0  0  0  0  0
  162.0080  210.5100  139.4570 O   0  0  0  0  0  0  0  0  0  0  0  0
  162.7850  210.9720  138.3940 C   0  0  0  0  0  1  0  0  0  0  0  0
  159.6560  210.7980  139.7310 C   0  0  0  0  0  2  0  0  0  0  0  0
  159.0660  210.5780  138.3580 C   0  0  0  0  0  2  0  0  0  0  0  0
  157.3800  212.2740  138.8550 O   0  0  0  0  0  0  0  0  0  0  0  0
  155.4730  210.7920  138.9810 C   0  0  0  0  0  2  0  0  0  0  0  0
  156.1420  212.0540  139.5230 C   0  0  0  0  0  2  0  0  0  0  0  0
  156.6430  209.0260  137.8420 O   0  0  0  0  0  0  0  0  0  0  0  0
  157.7050  211.0700  138.3150 N   0  0  0  0  0  0  0  0  0  0  0  0
  156.6110  210.1910  138.3120 C   0  0  0  0  0  0  0  0  0  0  0  0
  160.4850  211.4280  151.2360 C   0  0  0  0  0  2  0  0  0  0  0  0
  161.4840  210.2870  151.1030 C   0  0  0  0  0  2  0  0  0  0  0  0
  161.0180  209.1520  151.8840 N   0  0  0  0  0  2  0  0  0  0  0  0
  161.6220  205.5250  151.1740 C   0  0  1  0  0  3  0  0  0  0  0  0
  160.6850  206.0830  148.8530 C   0  0  1  0  0  0  0  0  0  0  0  0
  161.7140  204.4180  152.0200 O   0  0  0  0  0  1  0  0  0  0  0  0
  161.8470  205.9070  147.9180 C   0  0  0  0  0  2  0  0  0  0  0  0
  161.0950  203.6560  148.2740 C   0  0  0  0  0  1  0  0  0  0  0  0
  160.8140  207.5810  149.2480 C   0  0  0  0  0  2  0  0  0  0  0  0
  160.7120  205.2130  150.0640 N   0  0  1  0  0  0  0  0  0  0  0  0
  161.8250  207.9980  151.5090 C   0  0  2  0  0  3  0  0  0  0  0  0
  162.0690  208.0140  150.0010 C   0  0  0  0  0  2  0  0  0  0  0  0
  161.6380  204.8870  148.9740 C   0  0  2  0  0  0  0  0  0  0  0  0
  161.1270  206.7220  151.9730 C   0  0  0  0  0  2  0  0  0  0  0  0
  1 20  2  0  0  0  0
  2 11  2  0  0  0  0
  3 20  1  0  0  0  0
  3 17  1  0  0  0  0
  4  6  2  0  0  0  0
  5 25  1  6  0  0  0
  5 22  1  0  0  0  0
  5 24  1  0  0  0  0
  7  3  1  0  0  0  0
  8 23  1  0  0  0  0
  8 19  2  0  0  0  0
  9 24  2  0  0  0  0
  9  7  1  0  0  0  0
 10 17  1  0  0  0  0
 11  6  1  0  0  0  0
 12 13  1  6  0  0  0
 12 15  1  0  0  0  0
 14 23  1  0  0  0  0
 14 41  1  1  0  0  0
 15 14  1  0  0  0  0
 16 19  1  0  0  0  0
 16  2  1  0  0  0  0
 17 16  2  0  0  0  0
 18 13  1  6  0  0  0
 18 12  1  0  0  0  0
 19  4  1  0  0  0  0
 20  8  1  0  0  0  0
 21 18  1  0  0  0  0
 22 26  1  6  0  0  0
 22 21  1  0  0  0  0
 24  1  1  0  0  0  0
 27 26  1  0  0  0  0
 28 27  1  0  0  0  0
 29 28  1  0  0  0  0
 30 33  1  1  0  0  0
 30 29  1  0  0  0  0
 31 30  1  0  0  0  0
 32 31  1  0  0  0  0
 34 33  1  0  0  0  0
 35 37  1  0  0  0  0
 36 37  1  0  0  0  0
 38 40  2  0  0  0  0
 39 34  1  0  0  0  0
 39 35  1  0  0  0  0
 40 39  1  0  0  0  0
 40 36  1  0  0  0  0
 42 41  1  0  0  0  0
 42 43  1  0  0  0  0
 44 54  1  0  0  0  0
 44 46  1  1  0  0  0
 45 47  1  6  0  0  0
 45 53  1  0  0  0  0
 45 49  1  0  0  0  0
 45 50  1  0  0  0  0
 47 53  1  0  0  0  0
 48 53  1  0  0  0  0
 49 52  1  0  0  0  0
 50 44  1  0  0  0  0
 51 43  1  0  0  0  0
 51 54  1  0  0  0  0
 52 51  1  0  0  0  0
 53 50  1  0  0  0  0
M  END
>  <MODEL>
3

>  <REMARK>
 VINA RESULT:      -6.3      1.285      1.826
  Name = 
  13 active torsions:
  status: ('A' for Active; 'I' for Inactive)
    1  A    between atoms: O_4  and  C_12
    2  A    between atoms: C_8  and  C_23
    3  A    between atoms: C_8  and  N_43
    4  A    between atoms: C_10  and  C_16
    5  A    between atoms: C_10  and  C_29
    6  A    between atoms: C_12  and  C_17
    7  A    between atoms: C_12  and  C_23
    8  A    between atoms: C_16  and  C_17
    9  A    between atoms: N_28  and  C_34
   10  A    between atoms: N_28  and  C_42
   11  A    between atoms: C_29  and  C_46
   12  A    between atoms: C_32  and  C_52
   13  A    between atoms: C_34  and  C_52
                            x       y       z     vdW  Elec       q    Type
                         _______ _______ _______ _____ _____    ______ ____

>  <TORSDO>
F 13

$$$$
=
 OpenBabel11042422073D

 54 62  0  0  1  0  0  0  0  0999 V2000
  160.9340  212.0470  151.1010 C   0  0  0  0  0  3  0  0  0  0  0  0
  158.7250  211.5190  156.1140 N   0  0  0  0  0  0  0  0  0  0  0  0
  159.3560  212.8090  152.7430 N   0  0  0  0  0  0  0  0  0  0  0  0
  160.6620  209.7490  155.3470 C   0  0  0  0  0  3  0  0  0  0  0  0
  160.9750  213.0020  148.7430 C   0  0  2  0  0  3  0  0  0  0  0  0
  160.0940  209.6610  156.5740 N   0  0  0  0  0  0  0  0  0  0  0  0
  158.9210  213.9420  151.9120 C   0  0  0  0  0  2  0  0  0  0  0  0
  160.8410  210.8430  153.2280 C   0  0  0  0  0  0  0  0  0  0  0  0
  159.4570  213.8770  150.5050 C   0  0  0  0  0  3  0  0  0  0  0  0
  157.7750  213.5150  154.5160 N   0  0  0  0  0  1  0  0  0  0  0  0
  159.1370  210.5400  156.9600 C   0  0  0  0  0  3  0  0  0  0  0  0
  162.7610  209.4160  149.7470 C   0  0  2  0  0  3  0  0  0  0  0  0
  162.8070  208.7330  148.4010 C   0  0  0  0  0  2  0  0  0  0  0  0
  161.2300  208.9240  151.6960 C   0  0  2  0  0  3  0  0  0  0  0  0
  162.3100  208.3810  150.7680 C   0  0  0  0  0  2  0  0  0  0  0  0
  159.2580  211.6550  154.8700 C   0  0  0  0  0  0  0  0  0  0  0  0
  158.8070  212.6370  154.0630 C   0  0  0  0  0  0  0  0  0  0  0  0
  161.6750  209.6930  148.7140 C   0  0  2  0  0  3  0  0  0  0  0  0
  160.2720  210.7520  154.4500 C   0  0  0  0  0  0  0  0  0  0  0  0
  160.4050  211.9230  152.3180 C   0  0  0  0  0  0  0  0  0  0  0  0
  161.9370  210.9080  148.0740 O   0  0  0  0  0  0  0  0  0  0  0  0
  160.7400  211.6300  148.0850 C   0  0  2  0  0  3  0  0  0  0  0  0
  161.8520  209.8310  152.7530 C   0  0  0  0  0  2  0  0  0  0  0  0
  160.4320  213.0360  150.1440 C   0  0  0  0  0  0  0  0  0  0  0  0
  160.5610  214.4530  147.7630 Cl  0  0  0  0  0  0  0  0  0  0  0  0
  160.1120  211.6780  146.6880 C   0  0  0  0  0  2  0  0  0  0  0  0
  159.0960  212.8050  146.5530 C   0  0  0  0  0  2  0  0  0  0  0  0
  159.0380  213.2600  145.1070 C   0  0  0  0  0  2  0  0  0  0  0  0
  160.1550  212.5920  144.3250 C   0  0  0  0  0  2  0  0  0  0  0  0
  160.7400  213.5450  143.2940 C   0  0  1  0  0  3  0  0  0  0  0  0
  161.7850  214.2720  143.8700 O   0  0  0  0  0  0  0  0  0  0  0  0
  162.7000  213.3110  144.3020 C   0  0  0  0  0  1  0  0  0  0  0  0
  161.2690  212.7640  142.0960 C   0  0  0  0  0  2  0  0  0  0  0  0
  160.2280  211.7920  141.5930 C   0  0  0  0  0  2  0  0  0  0  0  0
  161.2990  210.0880  140.2080 O   0  0  0  0  0  0  0  0  0  0  0  0
  161.9080  211.5250  138.3610 C   0  0  0  0  0  2  0  0  0  0  0  0
  162.2940  210.3190  139.2160 C   0  0  0  0  0  2  0  0  0  0  0  0
  160.3760  213.2420  139.0590 O   0  0  0  0  0  0  0  0  0  0  0  0
  160.6210  211.2620  140.3040 N   0  0  0  0  0  0  0  0  0  0  0  0
  160.8970  212.1100  139.2210 C   0  0  0  0  0  0  0  0  0  0  0  0
  160.4510  207.8070  152.3750 C   0  0  0  0  0  2  0  0  0  0  0  0
  161.3150  207.0390  153.3660 C   0  0  0  0  0  2  0  0  0  0  0  0
  161.8570  205.8590  152.7130 N   0  0  0  0  0  2  0  0  0  0  0  0
  160.8190  204.6600  149.3200 C   0  0  1  0  0  3  0  0  0  0  0  0
  161.4320  202.3420  150.2300 C   0  0  1  0  0  0  0  0  0  0  0  0
  160.7580  205.3100  148.0860 O   0  0  0  0  0  1  0  0  0  0  0  0
  160.1280  201.6010  150.3000 C   0  0  0  0  0  2  0  0  0  0  0  0
  160.7170  201.4390  147.9790 C   0  0  0  0  0  1  0  0  0  0  0  0
  161.5050  203.0000  151.6370 C   0  0  0  0  0  2  0  0  0  0  0  0
  161.5140  203.3760  149.1580 N   0  0  1  0  0  0  0  0  0  0  0  0
  160.9000  205.4370  151.7000 C   0  0  2  0  0  3  0  0  0  0  0  0
  160.4270  204.0160  152.0050 C   0  0  0  0  0  2  0  0  0  0  0  0
  160.4040  202.4190  149.0940 C   0  0  2  0  0  0  0  0  0  0  0  0
  161.5400  205.5540  150.3190 C   0  0  0  0  0  2  0  0  0  0  0  0
  1 20  2  0  0  0  0
  2 11  2  0  0  0  0
  3 17  1  0  0  0  0
  4  6  2  0  0  0  0
  5 25  1  6  0  0  0
  5 24  1  0  0  0  0
  6 11  1  0  0  0  0
  7  3  1  0  0  0  0
  8 19  2  0  0  0  0
  9  7  1  0  0  0  0
 12 13  1  6  0  0  0
 12 15  1  0  0  0  0
 14 41  1  1  0  0  0
 14 23  1  0  0  0  0
 15 14  1  0  0  0  0
 16  2  1  0  0  0  0
 17 10  1  0  0  0  0
 17 16  2  0  0  0  0
 18 13  1  6  0  0  0
 18 12  1  0  0  0  0
 19 16  1  0  0  0  0
 19  4  1  0  0  0  0
 20  3  1  0  0  0  0
 20  8  1  0  0  0  0
 21 22  1  0  0  0  0
 21 18  1  0  0  0  0
 22 26  1  6  0  0  0
 22  5  1  0  0  0  0
 23  8  1  0  0  0  0
 24  9  2  0  0  0  0
 24  1  1  0  0  0  0
 27 26  1  0  0  0  0
 28 27  1  0  0  0  0
 29 28  1  0  0  0  0
 30 33  1  6  0  0  0
 30 31  1  0  0  0  0
 30 29  1  0  0  0  0
 31 32  1  0  0  0  0
 34 33  1  0  0  0  0
 35 39  1  0  0  0  0
 36 37  1  0  0  0  0
 36 40  1  0  0  0  0
 37 35  1  0  0  0  0
 38 40  2  0  0  0  0
 39 34  1  0  0  0  0
 40 39  1  0  0  0  0
 41 42  1  0  0  0  0
 43 42  1  0  0  0  0
 44 46  1  6  0  0  0
 44 54  1  0  0  0  0
 45 47  1  6  0  0  0
 45 49  1  0  0  0  0
 48 53  1  0  0  0  0
 49 52  1  0  0  0  0
 50 44  1  0  0  0  0
 50 45  1  0  0  0  0
 51 52  1  0  0  0  0
 51 43  1  0  0  0  0
 53 50  1  0  0  0  0
 53 45  1  0  0  0  0
 53 47  1  0  0  0  0
 54 51  1  0  0  0  0
M  END
>  <MODEL>
4

>  <REMARK>
 VINA RESULT:      -5.1      2.619      4.789
  Name = 
  13 active torsions:
  status: ('A' for Active; 'I' for Inactive)
    1  A    between atoms: O_4  and  C_12
    2  A    between atoms: C_8  and  C_23
    3  A    between atoms: C_8  and  N_43
    4  A    between atoms: C_10  and  C_16
    5  A    between atoms: C_10  and  C_29
    6  A    between atoms: C_12  and  C_17
    7  A    between atoms: C_12  and  C_23
    8  A    between atoms: C_16  and  C_17
    9  A    between atoms: N_28  and  C_34
   10  A    between atoms: N_28  and  C_42
   11  A    between atoms: C_29  and  C_46
   12  A    between atoms: C_32  and  C_52
   13  A    between atoms: C_34  and  C_52
                            x       y       z     vdW  Elec       q    Type
                         _______ _______ _______ _____ _____    ______ ____

>  <TORSDO>
F 13

$$$$
=
 OpenBabel11042422073D

 54 62  0  0  1  0  0  0  0  0999 V2000
  160.4910  212.0100  151.1690 C   0  0  0  0  0  3  0  0  0  0  0  0
  158.4930  210.9380  156.1840 N   0  0  0  0  0  0  0  0  0  0  0  0
  158.8170  212.4090  152.8430 N   0  0  0  0  0  0  0  0  0  0  0  0
  160.7280  209.6000  155.3550 C   0  0  0  0  0  3  0  0  0  0  0  0
  160.3140  213.0120  148.8370 C   0  0  2  0  0  3  0  0  0  0  0  0
  160.2040  209.3730  156.5840 N   0  0  0  0  0  0  0  0  0  0  0  0
  158.1590  213.4550  152.0460 C   0  0  0  0  0  2  0  0  0  0  0  0
  160.6620  210.7590  153.2640 C   0  0  0  0  0  0  0  0  0  0  0  0
  158.6780  213.5300  150.6330 C   0  0  0  0  0  3  0  0  0  0  0  0
  157.1510  212.7490  154.6470 N   0  0  0  0  0  1  0  0  0  0  0  0
  159.0990  210.0380  157.0010 C   0  0  0  0  0  3  0  0  0  0  0  0
  162.7780  209.8190  149.7310 C   0  0  2  0  0  3  0  0  0  0  0  0
  162.9390  209.1910  148.3670 C   0  0  0  0  0  2  0  0  0  0  0  0
  161.3980  208.9910  151.6780 C   0  0  2  0  0  3  0  0  0  0  0  0
  162.5510  208.6920  150.7280 C   0  0  0  0  0  2  0  0  0  0  0  0
  158.9730  211.2070  154.9400 C   0  0  0  0  0  0  0  0  0  0  0  0
  158.3290  212.1010  154.1620 C   0  0  0  0  0  0  0  0  0  0  0  0
  161.6450  209.9040  148.7140 C   0  0  2  0  0  3  0  0  0  0  0  0
  160.1380  210.5290  154.4870 C   0  0  0  0  0  0  0  0  0  0  0  0
  160.0120  211.7550  152.3870 C   0  0  0  0  0  0  0  0  0  0  0  0
  161.6570  211.1620  148.1050 O   0  0  0  0  0  0  0  0  0  0  0  0
  160.3420  211.6360  148.1450 C   0  0  2  0  0  3  0  0  0  0  0  0
  161.8450  209.9760  152.7540 C   0  0  0  0  0  2  0  0  0  0  0  0
  159.7930  212.9040  150.2430 C   0  0  0  0  0  0  0  0  0  0  0  0
  159.6130  214.3770  147.8990 Cl  0  0  0  0  0  0  0  0  0  0  0  0
  159.6980  211.5950  146.7540 C   0  0  0  0  0  2  0  0  0  0  0  0
  160.6180  212.1570  145.6780 C   0  0  0  0  0  2  0  0  0  0  0  0
  159.9210  212.0870  144.3330 C   0  0  0  0  0  2  0  0  0  0  0  0
  160.8780  212.5410  143.2460 C   0  0  0  0  0  2  0  0  0  0  0  0
  160.7810  211.6380  142.0250 C   0  0  1  0  0  3  0  0  0  0  0  0
  159.4460  211.5410  141.6230 O   0  0  0  0  0  0  0  0  0  0  0  0
  159.2770  212.5570  140.6820 C   0  0  0  0  0  1  0  0  0  0  0  0
  161.6130  212.2070  140.8820 C   0  0  0  0  0  2  0  0  0  0  0  0
  162.6540  211.2090  140.4340 C   0  0  0  0  0  2  0  0  0  0  0  0
  162.0160  211.5260  138.0970 O   0  0  0  0  0  0  0  0  0  0  0  0
  160.8280  209.4380  137.8120 C   0  0  0  0  0  2  0  0  0  0  0  0
  160.9070  210.9190  137.4410 C   0  0  0  0  0  2  0  0  0  0  0  0
  161.8350  208.4810  139.7750 O   0  0  0  0  0  0  0  0  0  0  0  0
  162.3160  210.6890  139.1250 N   0  0  0  0  0  0  0  0  0  0  0  0
  161.6950  209.4400  138.9750 C   0  0  0  0  0  0  0  0  0  0  0  0
  160.8600  207.7270  152.3340 C   0  0  0  0  0  2  0  0  0  0  0  0
  161.7530  206.5250  152.0570 C   0  0  0  0  0  2  0  0  0  0  0  0
  161.0400  205.3090  152.4130 N   0  0  0  0  0  2  0  0  0  0  0  0
  160.9490  202.3210  150.1570 C   0  0  1  0  0  3  0  0  0  0  0  0
  160.8430  204.0610  148.2760 C   0  0  1  0  0  0  0  0  0  0  0  0
  160.5450  201.0040  150.3800 O   0  0  0  0  0  1  0  0  0  0  0  0
  162.1410  203.9080  147.5380 C   0  0  0  0  0  2  0  0  0  0  0  0
  160.8150  202.1030  146.6760 C   0  0  0  0  0  1  0  0  0  0  0  0
  161.2040  205.1270  149.3480 C   0  0  0  0  0  2  0  0  0  0  0  0
  160.3320  202.8160  148.9190 N   0  0  1  0  0  0  0  0  0  0  0  0
  161.6250  204.2150  151.6500 C   0  0  2  0  0  3  0  0  0  0  0  0
  162.2710  204.7670  150.3790 C   0  0  0  0  0  2  0  0  0  0  0  0
  161.4180  202.6780  147.9440 C   0  0  2  0  0  0  0  0  0  0  0  0
  160.5490  203.1740  151.3520 C   0  0  0  0  0  2  0  0  0  0  0  0
  1 20  2  0  0  0  0
  2 11  2  0  0  0  0
  3 17  1  0  0  0  0
  4  6  2  0  0  0  0
  5 25  1  6  0  0  0
  5 24  1  0  0  0  0
  6 11  1  0  0  0  0
  7  3  1  0  0  0  0
  8 19  2  0  0  0  0
  9  7  1  0  0  0  0
 12 13  1  6  0  0  0
 12 15  1  0  0  0  0
 14 41  1  1  0  0  0
 14 23  1  0  0  0  0
 15 14  1  0  0  0  0
 16  2  1  0  0  0  0
 17 10  1  0  0  0  0
 17 16  2  0  0  0  0
 18 13  1  6  0  0  0
 18 12  1  0  0  0  0
 19 16  1  0  0  0  0
 19  4  1  0  0  0  0
 20  3  1  0  0  0  0
 20  8  1  0  0  0  0
 21 22  1  0  0  0  0
 21 18  1  0  0  0  0
 22 26  1  6  0  0  0
 22  5  1  0  0  0  0
 23  8  1  0  0  0  0
 24  9  2  0  0  0  0
 24  1  1  0  0  0  0
 27 26  1  0  0  0  0
 28 27  1  0  0  0  0
 29 28  1  0  0  0  0
 30 33  1  6  0  0  0
 30 29  1  0  0  0  0
 31 30  1  0  0  0  0
 32 31  1  0  0  0  0
 34 33  1  0  0  0  0
 35 39  1  0  0  0  0
 36 40  1  0  0  0  0
 37 36  1  0  0  0  0
 37 35  1  0  0  0  0
 39 34  1  0  0  0  0
 40 39  1  0  0  0  0
 40 38  2  0  0  0  0
 42 41  1  0  0  0  0
 42 43  1  0  0  0  0
 44 46  1  1  0  0  0
 44 54  1  0  0  0  0
 45 47  1  6  0  0  0
 45 50  1  0  0  0  0
 45 49  1  0  0  0  0
 47 53  1  0  0  0  0
 48 53  1  0  0  0  0
 49 52  1  0  0  0  0
 50 44  1  0  0  0  0
 51 43  1  0  0  0  0
 52 51  1  0  0  0  0
 53 45  1  0  0  0  0
 53 50  1  0  0  0  0
 54 51  1  0  0  0  0
M  END
>  <MODEL>
5

>  <REMARK>
 VINA RESULT:      -4.4      2.792      4.853
  Name = 
  13 active torsions:
  status: ('A' for Active; 'I' for Inactive)
    1  A    between atoms: O_4  and  C_12
    2  A    between atoms: C_8  and  C_23
    3  A    between atoms: C_8  and  N_43
    4  A    between atoms: C_10  and  C_16
    5  A    between atoms: C_10  and  C_29
    6  A    between atoms: C_12  and  C_17
    7  A    between atoms: C_12  and  C_23
    8  A    between atoms: C_16  and  C_17
    9  A    between atoms: N_28  and  C_34
   10  A    between atoms: N_28  and  C_42
   11  A    between atoms: C_29  and  C_46
   12  A    between atoms: C_32  and  C_52
   13  A    between atoms: C_34  and  C_52
                            x       y       z     vdW  Elec       q    Type
                         _______ _______ _______ _____ _____    ______ ____

>  <TORSDO>
F 13

$$$$
=
 OpenBabel11042422073D

 54 62  0  0  1  0  0  0  0  0999 V2000
  161.8670  206.6490  151.5630 C   0  0  0  0  0  3  0  0  0  0  0  0
  161.4920  204.0370  146.7330 N   0  0  0  0  0  0  0  0  0  0  0  0
  161.1350  204.7340  150.3130 N   0  0  0  0  0  0  0  0  0  0  0  0
  162.6710  206.5030  146.7960 C   0  0  0  0  0  3  0  0  0  0  0  0
  161.2590  206.9560  154.0140 C   0  0  2  0  0  3  0  0  0  0  0  0
  162.5620  205.8200  145.6310 N   0  0  0  0  0  0  0  0  0  0  0  0
  160.6570  204.0350  151.5150 C   0  0  0  0  0  2  0  0  0  0  0  0
  162.2990  206.6340  149.1560 C   0  0  0  0  0  0  0  0  0  0  0  0
  160.6450  204.9150  152.7400 C   0  0  0  0  0  3  0  0  0  0  0  0
  160.4350  202.8040  148.9250 N   0  0  0  0  0  1  0  0  0  0  0  0
  161.9820  204.5950  145.5960 C   0  0  0  0  0  3  0  0  0  0  0  0
  162.5780  210.0530  151.6200 C   0  0  2  0  0  3  0  0  0  0  0  0
  162.0230  211.2450  152.3620 C   0  0  0  0  0  2  0  0  0  0  0  0
  161.7620  209.0430  149.4530 C   0  0  2  0  0  3  0  0  0  0  0  0
  162.3280  210.2820  150.1370 C   0  0  0  0  0  2  0  0  0  0  0  0
  161.5720  204.6760  147.9310 C   0  0  0  0  0  0  0  0  0  0  0  0
  161.0600  204.0840  149.0300 C   0  0  0  0  0  0  0  0  0  0  0  0
  161.2720  209.9270  152.3960 C   0  0  2  0  0  3  0  0  0  0  0  0
  162.1870  205.9560  147.9930 C   0  0  0  0  0  0  0  0  0  0  0  0
  161.7830  206.0140  150.3940 C   0  0  0  0  0  0  0  0  0  0  0  0
  161.5160  209.3110  153.6260 O   0  0  0  0  0  0  0  0  0  0  0  0
  160.5560  208.3040  153.7650 C   0  0  2  0  0  3  0  0  0  0  0  0
  162.8720  208.0280  149.2020 C   0  0  0  0  0  2  0  0  0  0  0  0
  161.2570  206.1030  152.7770 C   0  0  0  0  0  0  0  0  0  0  0  0
  160.8080  206.0710  155.5150 Cl  0  0  0  0  0  0  0  0  0  0  0  0
  159.5000  208.6880  154.8080 C   0  0  0  0  0  2  0  0  0  0  0  0
  159.8750  209.9550  155.5660 C   0  0  0  0  0  2  0  0  0  0  0  0
  158.6130  210.6850  155.9820 C   0  0  0  0  0  2  0  0  0  0  0  0
  158.8310  212.1820  155.8480 C   0  0  0  0  0  2  0  0  0  0  0  0
  157.5710  212.8700  155.3440 C   0  0  1  0  0  3  0  0  0  0  0  0
  156.8900  213.4440  156.4210 O   0  0  0  0  0  0  0  0  0  0  0  0
  155.5950  212.9280  156.3460 C   0  0  0  0  0  1  0  0  0  0  0  0
  157.9320  213.9570  154.3380 C   0  0  0  0  0  2  0  0  0  0  0  0
  157.0450  213.8690  153.1180 C   0  0  0  0  0  2  0  0  0  0  0  0
  159.1500  213.2020  152.0730 O   0  0  0  0  0  0  0  0  0  0  0  0
  158.6350  213.9460  149.8310 C   0  0  0  0  0  2  0  0  0  0  0  0
  159.7160  213.7660  150.8950 C   0  0  0  0  0  2  0  0  0  0  0  0
  156.2800  214.0700  150.3040 O   0  0  0  0  0  0  0  0  0  0  0  0
  157.8160  213.4410  151.9700 N   0  0  0  0  0  0  0  0  0  0  0  0
  157.4570  213.8200  150.6680 C   0  0  0  0  0  0  0  0  0  0  0  0
  161.0750  209.3840  148.1380 C   0  0  0  0  0  2  0  0  0  0  0  0
  161.4100  210.7960  147.6770 C   0  0  0  0  0  2  0  0  0  0  0  0
  160.1880  211.5840  147.6260 N   0  0  0  0  0  2  0  0  0  0  0  0
  161.8700  213.6060  144.9600 C   0  0  1  0  0  3  0  0  0  0  0  0
  160.0160  212.6860  143.4460 C   0  0  1  0  0  0  0  0  0  0  0  0
  163.1820  214.0660  144.8350 O   0  0  0  0  0  1  0  0  0  0  0  0
  159.1890  213.8840  143.0810 C   0  0  0  0  0  2  0  0  0  0  0  0
  161.0640  214.0510  141.5940 C   0  0  0  0  0  1  0  0  0  0  0  0
  159.3130  212.1900  144.7410 C   0  0  0  0  0  2  0  0  0  0  0  0
  161.4580  212.9680  143.7020 N   0  0  1  0  0  0  0  0  0  0  0  0
  160.4790  212.8010  146.8810 C   0  0  2  0  0  3  0  0  0  0  0  0
  159.3090  213.1210  145.9500 C   0  0  0  0  0  2  0  0  0  0  0  0
  160.6660  214.0190  143.0570 C   0  0  2  0  0  0  0  0  0  0  0  0
  161.7940  212.6280  146.1240 C   0  0  0  0  0  2  0  0  0  0  0  0
  1 24  1  0  0  0  0
  2 16  1  0  0  0  0
  3 20  1  0  0  0  0
  3  7  1  0  0  0  0
  4 19  1  0  0  0  0
  5 25  1  1  0  0  0
  6  4  2  0  0  0  0
  7  9  1  0  0  0  0
  8 23  1  0  0  0  0
  8 20  1  0  0  0  0
  9 24  2  0  0  0  0
 10 17  1  0  0  0  0
 11  6  1  0  0  0  0
 11  2  2  0  0  0  0
 12 15  1  6  0  0  0
 12 13  1  0  0  0  0
 12 18  1  0  0  0  0
 14 41  1  6  0  0  0
 14 15  1  0  0  0  0
 16 19  1  0  0  0  0
 16 17  2  0  0  0  0
 17  3  1  0  0  0  0
 18 13  1  1  0  0  0
 18 21  1  0  0  0  0
 19  8  2  0  0  0  0
 20  1  2  0  0  0  0
 21 22  1  0  0  0  0
 22  5  1  0  0  0  0
 22 26  1  1  0  0  0
 23 14  1  0  0  0  0
 24  5  1  0  0  0  0
 26 27  1  0  0  0  0
 27 28  1  0  0  0  0
 29 28  1  0  0  0  0
 30 33  1  6  0  0  0
 30 29  1  0  0  0  0
 30 31  1  0  0  0  0
 32 31  1  0  0  0  0
 34 33  1  0  0  0  0
 36 40  1  0  0  0  0
 36 37  1  0  0  0  0
 37 35  1  0  0  0  0
 38 40  2  0  0  0  0
 39 35  1  0  0  0  0
 39 34  1  0  0  0  0
 40 39  1  0  0  0  0
 42 41  1  0  0  0  0
 43 42  1  0  0  0  0
 44 46  1  6  0  0  0
 44 54  1  0  0  0  0
 45 47  1  6  0  0  0
 45 50  1  0  0  0  0
 45 49  1  0  0  0  0
 48 53  1  0  0  0  0
 49 52  1  0  0  0  0
 50 44  1  0  0  0  0
 51 43  1  0  0  0  0
 52 51  1  0  0  0  0
 53 47  1  0  0  0  0
 53 45  1  0  0  0  0
 53 50  1  0  0  0  0
 54 51  1  0  0  0  0
M  END
>  <MODEL>
6

>  <REMARK>
 VINA RESULT:      -3.9      4.081     11.421
  Name = 
  13 active torsions:
  status: ('A' for Active; 'I' for Inactive)
    1  A    between atoms: O_4  and  C_12
    2  A    between atoms: C_8  and  C_23
    3  A    between atoms: C_8  and  N_43
    4  A    between atoms: C_10  and  C_16
    5  A    between atoms: C_10  and  C_29
    6  A    between atoms: C_12  and  C_17
    7  A    between atoms: C_12  and  C_23
    8  A    between atoms: C_16  and  C_17
    9  A    between atoms: N_28  and  C_34
   10  A    between atoms: N_28  and  C_42
   11  A    between atoms: C_29  and  C_46
   12  A    between atoms: C_32  and  C_52
   13  A    between atoms: C_34  and  C_52
                            x       y       z     vdW  Elec       q    Type
                         _______ _______ _______ _____ _____    ______ ____

>  <TORSDO>
F 13

$$$$
