=
 OpenBabel11042421013D

 59 66  0  0  1  0  0  0  0  0999 V2000
  160.3680  206.6840  154.1030 C   0  0  0  0  0  2  0  0  0  0  0  0
  161.5600  210.2180  151.9820 C   0  0  0  0  0  3  0  0  0  0  0  0
  161.5030  209.0770  152.6600 C   0  0  0  0  0  0  0  0  0  0  0  0
  160.8270  206.6190  152.6900 C   0  0  0  0  0  0  0  0  0  0  0  0
  161.8130  210.7100  154.2260 C   0  0  0  0  0  3  0  0  0  0  0  0
  161.6510  209.4010  154.0910 C   0  0  0  0  0  0  0  0  0  0  0  0
  161.7660  211.3740  152.8960 C   0  0  0  0  0  2  0  0  0  0  0  0
  161.6010  208.4980  155.2990 C   0  0  2  0  0  3  0  0  0  0  0  0
  161.0560  205.2250  150.7140 C   0  0  0  0  0  0  0  0  0  0  0  0
  161.7360  207.5620  150.6350 C   0  0  0  0  0  0  0  0  0  0  0  0
  161.5650  206.3160  150.0130 C   0  0  0  0  0  3  0  0  0  0  0  0
  161.3590  207.7360  151.9980 C   0  0  0  0  0  0  0  0  0  0  0  0
  160.6910  205.3850  152.0490 C   0  0  0  0  0  3  0  0  0  0  0  0
  161.5440  207.0060  155.0010 C   0  0  0  0  0  2  0  0  0  0  0  0
  160.1100  210.2750  156.3000 N   0  0  0  0  0  2  0  0  0  0  0  0
  159.9770  208.0620  157.0110 O   0  0  0  0  0  0  0  0  0  0  0  0
  160.5240  208.9120  156.2580 C   0  0  0  0  0  0  0  0  0  0  0  0
  158.9360  210.6460  156.9730 N   0  0  0  0  0  2  0  0  0  0  0  0
  157.1180  213.9920  154.2580 C   0  0  0  0  0  2  0  0  0  0  0  0
  155.6340  211.9070  155.6250 C   0  0  0  0  0  2  0  0  0  0  0  0
  158.1910  213.9160  156.5180 O   0  0  0  0  0  0  0  0  0  0  0  0
  154.9530  213.2710  155.4630 C   0  0  0  0  0  2  0  0  0  0  0  0
  155.8700  214.4240  155.0290 C   0  0  0  0  0  2  0  0  0  0  0  0
  157.2310  213.1600  157.2590 C   0  0  0  0  0  2  0  0  0  0  0  0
  158.6860  212.0390  154.9920 C   0  0  2  0  0  3  0  0  0  0  0  0
  157.9740  211.1110  155.9800 C   0  0  2  0  0  3  0  0  0  0  0  0
  156.7860  211.8150  156.6410 C   0  0  2  0  0  3  0  0  0  0  0  0
  158.2860  213.5210  155.1570 C   0  0  1  0  0  3  0  0  0  0  0  0
  158.9360  212.9370  152.7000 S   0  0  0  0  0  1  0  0  0  0  0  0
  158.4930  211.5970  153.6820 O   0  0  0  0  0  0  0  0  0  0  0  0
  160.9030  203.9170  150.0560 C   0  0  0  0  0  0  0  0  0  0  0  0
  161.0890  202.8550  150.7100 O   0  0  0  0  0  0  0  0  0  0  0  0
  160.5640  203.8630  148.7010 O   0  0  0  0  0  0  0  0  0  0  0  0
  161.3950  203.2320  147.7280 C   0  0  2  0  0  3  0  0  0  0  0  0
  162.4870  203.5130  145.5400 O   0  0  0  0  0  0  0  0  0  0  0  0
  162.8150  204.7560  146.1220 C   0  0  1  0  0  0  0  0  0  0  0  0
  163.8810  204.6370  146.9960 F   0  0  0  0  0  0  0  0  0  0  0  0
  162.8530  205.8590  145.0810 C   0  0  0  0  0  1  0  0  0  0  0  0
  161.5390  204.0550  146.4330 C   0  0  2  0  0  0  0  0  0  0  0  0
  160.1610  203.8270  144.4850 O   0  0  0  0  0  1  0  0  0  0  0  0
  160.2750  204.4950  145.7060 C   0  0  0  0  0  2  0  0  0  0  0  0
  161.5850  200.8850  148.2080 O   0  0  0  0  0  1  0  0  0  0  0  0
  160.8920  201.8230  147.4380 C   0  0  0  0  0  2  0  0  0  0  0  0
  162.2990  208.6260  149.9160 O   0  0  0  0  0  0  0  0  0  0  0  0
  161.6650  209.8870  149.7190 C   0  0  0  0  0  2  0  0  0  0  0  0
  161.9940  210.4590  148.3460 C   0  0  0  0  0  2  0  0  0  0  0  0
  162.7870  211.6060  148.4700 O   0  0  0  0  0  0  0  0  0  0  0  0
  160.8570  212.2010  147.1500 C   0  0  0  0  0  2  0  0  0  0  0  0
  161.0830  213.4300  143.8130 O   0  0  0  0  0  0  0  0  0  0  0  0
  162.2480  213.2340  145.7640 C   0  0  2  0  0  3  0  0  0  0  0  0
  161.9770  212.6860  148.1020 C   0  0  2  0  0  3  0  0  0  0  0  0
  160.2630  212.7740  144.7870 C   0  0  1  0  0  3  0  0  0  0  0  0
  163.2830  214.4030  143.8070 C   0  0  0  0  0  2  0  0  0  0  0  0
  162.2740  213.7960  144.4140 C   0  0  0  0  0  0  0  0  0  0  0  0
  160.8490  213.1630  146.0720 N   0  0  1  0  0  0  0  0  0  0  0  0
  163.0170  213.9330  147.2120 S   0  0  0  0  0  0  0  0  0  0  0  0
  158.8400  213.3100  144.6720 C   0  0  0  0  0  2  0  0  0  0  0  0
  157.8790  212.5580  145.5820 C   0  0  0  0  0  2  0  0  0  0  0  0
  156.8940  213.5180  146.2240 C   0  0  0  0  0  1  0  0  0  0  0  0
  1 14  1  0  0  0  0
  2  3  2  0  0  0  0
  2  7  1  0  0  0  0
  3  6  1  0  0  0  0
  4  1  1  0  0  0  0
  6  5  2  0  0  0  0
  6  8  1  0  0  0  0
  7  5  1  0  0  0  0
  8 17  1  6  0  0  0
  9 13  2  0  0  0  0
 10 12  1  0  0  0  0
 11 10  2  0  0  0  0
 11  9  1  0  0  0  0
 12  3  1  0  0  0  0
 12  4  2  0  0  0  0
 13  4  1  0  0  0  0
 14  8  1  0  0  0  0
 15 18  1  0  0  0  0
 17 15  1  0  0  0  0
 17 16  2  0  0  0  0
 19 23  1  0  0  0  0
 21 24  1  0  0  0  0
 22 20  1  0  0  0  0
 23 22  1  0  0  0  0
 25 30  1  6  0  0  0
 25 28  1  0  0  0  0
 25 26  1  0  0  0  0
 26 27  1  0  0  0  0
 26 18  1  1  0  0  0
 27 20  1  6  0  0  0
 27 24  1  0  0  0  0
 28 19  1  1  0  0  0
 28 21  1  0  0  0  0
 29 30  1  0  0  0  0
 31 32  2  0  0  0  0
 31  9  1  0  0  0  0
 33 31  1  0  0  0  0
 34 43  1  6  0  0  0
 34 33  1  0  0  0  0
 35 36  1  0  0  0  0
 35 39  1  0  0  0  0
 36 38  1  6  0  0  0
 36 39  1  0  0  0  0
 36 37  1  0  0  0  0
 39 41  1  6  0  0  0
 39 34  1  0  0  0  0
 40 41  1  0  0  0  0
 43 42  1  0  0  0  0
 44 10  1  0  0  0  0
 45 44  1  0  0  0  0
 46 47  1  0  0  0  0
 46 45  1  0  0  0  0
 48 51  1  0  0  0  0
 49 54  1  0  0  0  0
 49 52  1  0  0  0  0
 50 54  1  6  0  0  0
 50 55  1  0  0  0  0
 50 56  1  0  0  0  0
 51 47  1  6  0  0  0
 52 57  1  1  0  0  0
 52 55  1  0  0  0  0
 53 54  2  0  0  0  0
 55 48  1  1  0  0  0
 56 51  1  0  0  0  0
 57 58  1  0  0  0  0
 58 59  1  0  0  0  0
M  END
>  <MODEL>
1

>  <REMARK>
 VINA RESULT:      -6.2      0.000      0.000
  Name = 
  17 active torsions:
  status: ('A' for Active; 'I' for Inactive)
    1  A    between atoms: C_4  and  C_19
    2  A    between atoms: C_4  and  O_20
    3  A    between atoms: C_4  and  C_54
    4  A    between atoms: C_6  and  C_28
    5  A    between atoms: C_6  and  C_30
    6  A    between atoms: N_7  and  N_59
    7  A    between atoms: C_10  and  O_20
    8  A    between atoms: C_10  and  C_36
    9  A    between atoms: C_14  and  C_54
   10  A    between atoms: C_27  and  O_58
   11  A    between atoms: C_32  and  O_38
   12  A    between atoms: C_35  and  C_45
   13  A    between atoms: C_39  and  O_46
   14  A    between atoms: C_40  and  N_59
   15  A    between atoms: O_46  and  C_56
   16  A    between atoms: C_52  and  C_56
   17  A    between atoms: C_52  and  O_58
                            x       y       z     vdW  Elec       q    Type
                         _______ _______ _______ _____ _____    ______ ____

>  <TORSDO>
F 17

$$$$
=
 OpenBabel11042421013D

 59 66  0  0  1  0  0  0  0  0999 V2000
  160.2430  206.8040  154.4920 C   0  0  0  0  0  2  0  0  0  0  0  0
  161.2680  210.1260  151.9800 C   0  0  0  0  0  3  0  0  0  0  0  0
  161.2640  209.0750  152.7920 C   0  0  2  0  0  3  0  0  0  0  0  0
  160.7470  206.5980  153.1090 C   0  0  0  0  0  0  0  0  0  0  0  0
  161.4210  210.9020  154.1520 C   0  0  0  0  0  3  0  0  0  0  0  0
  161.3470  209.5800  154.1750 C   0  0  0  0  0  0  0  0  0  0  0  0
  161.3710  211.3960  152.7500 C   0  0  0  0  0  3  0  0  0  0  0  0
  161.3190  208.8270  155.4840 C   0  0  2  0  0  3  0  0  0  0  0  0
  161.1260  204.9940  151.3240 C   0  0  0  0  0  0  0  0  0  0  0  0
  161.6560  207.3450  150.9740 C   0  0  0  0  0  0  0  0  0  0  0  0
  161.5840  206.0250  150.5060 C   0  0  0  0  0  3  0  0  0  0  0  0
  161.2270  207.6570  152.2970 C   0  0  0  0  0  0  0  0  0  0  0  0
  160.7110  205.2900  152.6210 C   0  0  0  0  0  3  0  0  0  0  0  0
  161.3670  207.3110  155.3700 C   0  0  0  0  0  2  0  0  0  0  0  0
  160.0560  210.6650  156.6720 N   0  0  0  0  0  2  0  0  0  0  0  0
  159.3520  208.4500  156.8050 O   0  0  0  0  0  0  0  0  0  0  0  0
  160.1880  209.2810  156.3600 C   0  0  0  0  0  0  0  0  0  0  0  0
  158.8770  211.1600  157.2500 N   0  0  0  0  0  2  0  0  0  0  0  0
  155.4680  213.9890  155.7520 C   0  0  0  0  0  2  0  0  0  0  0  0
  157.6120  212.8920  154.1340 C   0  0  0  0  0  2  0  0  0  0  0  0
  155.6040  211.6110  156.5200 O   0  0  0  0  0  0  0  0  0  0  0  0
  156.2510  213.1010  153.4590 C   0  0  0  0  0  2  0  0  0  0  0  0
  155.0750  213.3760  154.4070 C   0  0  0  0  0  2  0  0  0  0  0  0
  156.3920  211.0250  155.4840 C   0  0  0  0  0  2  0  0  0  0  0  0
  157.4250  213.1140  157.2400 C   0  0  2  0  0  3  0  0  0  0  0  0
  158.3920  212.2560  156.4190 C   0  0  2  0  0  3  0  0  0  0  0  0
  157.7220  211.7360  155.1440 C   0  0  2  0  0  3  0  0  0  0  0  0
  155.9540  212.9590  156.8000 C   0  0  1  0  0  3  0  0  0  0  0  0
  159.3880  214.4310  156.5060 S   0  0  0  0  0  1  0  0  0  0  0  0
  157.8280  214.4510  157.2280 O   0  0  0  0  0  0  0  0  0  0  0  0
  161.0780  203.6090  150.8290 C   0  0  0  0  0  0  0  0  0  0  0  0
  161.5710  202.6750  151.5160 O   0  0  0  0  0  0  0  0  0  0  0  0
  160.4940  203.3410  149.5870 O   0  0  0  0  0  0  0  0  0  0  0  0
  161.1360  202.5410  148.5960 C   0  0  2  0  0  3  0  0  0  0  0  0
  162.3520  204.3670  147.4810 O   0  0  0  0  0  0  0  0  0  0  0  0
  161.0290  204.7380  147.1570 C   0  0  1  0  0  0  0  0  0  0  0  0
  160.4090  205.3720  148.2190 F   0  0  0  0  0  0  0  0  0  0  0  0
  160.9590  205.3880  145.7870 C   0  0  0  0  0  1  0  0  0  0  0  0
  161.4330  203.3130  147.2950 C   0  0  2  0  0  0  0  0  0  0  0  0
  160.6320  201.7550  145.6600 O   0  0  0  0  0  1  0  0  0  0  0  0
  161.7400  202.5190  146.0320 C   0  0  0  0  0  2  0  0  0  0  0  0
  159.6160  200.8950  149.4670 O   0  0  0  0  0  1  0  0  0  0  0  0
  160.3160  201.2850  148.3220 C   0  0  0  0  0  2  0  0  0  0  0  0
  162.1710  208.3500  150.1420 O   0  0  0  0  0  0  0  0  0  0  0  0
  161.5670  209.6280  149.9570 C   0  0  0  0  0  2  0  0  0  0  0  0
  161.6340  210.0610  148.4980 C   0  0  0  0  0  2  0  0  0  0  0  0
  162.7320  210.9020  148.2870 O   0  0  0  0  0  0  0  0  0  0  0  0
  160.6950  212.1250  147.8710 C   0  0  0  0  0  2  0  0  0  0  0  0
  159.7060  213.2170  144.6260 O   0  0  0  0  0  0  0  0  0  0  0  0
  161.5220  212.6280  145.8740 C   0  0  2  0  0  3  0  0  0  0  0  0
  162.2160  212.1950  148.1480 C   0  0  2  0  0  3  0  0  0  0  0  0
  159.2770  212.8760  145.9490 C   0  0  1  0  0  3  0  0  0  0  0  0
  161.8300  213.3810  143.5070 C   0  0  0  0  0  2  0  0  0  0  0  0
  161.0880  213.1520  144.5800 C   0  0  0  0  0  0  0  0  0  0  0  0
  160.4800  213.0370  146.7700 N   0  0  1  0  0  0  0  0  0  0  0  0
  163.0470  213.0160  146.7110 S   0  0  0  0  0  0  0  0  0  0  0  0
  158.2030  213.8660  146.3870 C   0  0  0  0  0  2  0  0  0  0  0  0
  157.5610  213.4550  147.7050 C   0  0  0  0  0  2  0  0  0  0  0  0
  156.3660  214.3390  148.0120 C   0  0  0  0  0  1  0  0  0  0  0  0
  1 14  1  0  0  0  0
  2  7  2  0  0  0  0
  3  2  1  6  0  0  0
  3  6  1  0  0  0  0
  4  1  1  0  0  0  0
  5  6  2  0  0  0  0
  6  8  1  0  0  0  0
  7  5  1  0  0  0  0
  8 17  1  6  0  0  0
  9 13  2  0  0  0  0
 10 12  1  0  0  0  0
 11 10  2  0  0  0  0
 11  9  1  0  0  0  0
 12  3  1  0  0  0  0
 12  4  2  0  0  0  0
 13  4  1  0  0  0  0
 14  8  1  0  0  0  0
 15 18  1  0  0  0  0
 17 15  1  0  0  0  0
 17 16  2  0  0  0  0
 21 28  1  0  0  0  0
 22 20  1  0  0  0  0
 22 23  1  0  0  0  0
 23 19  1  0  0  0  0
 24 21  1  0  0  0  0
 25 30  1  6  0  0  0
 26 25  1  0  0  0  0
 26 18  1  1  0  0  0
 27 20  1  6  0  0  0
 27 24  1  0  0  0  0
 27 26  1  0  0  0  0
 28 19  1  6  0  0  0
 28 25  1  0  0  0  0
 29 30  1  0  0  0  0
 31  9  1  0  0  0  0
 31 32  2  0  0  0  0
 33 31  1  0  0  0  0
 34 43  1  6  0  0  0
 34 33  1  0  0  0  0
 36 38  1  6  0  0  0
 36 39  1  0  0  0  0
 36 35  1  0  0  0  0
 36 37  1  0  0  0  0
 39 41  1  6  0  0  0
 39 35  1  0  0  0  0
 39 34  1  0  0  0  0
 40 41  1  0  0  0  0
 43 42  1  0  0  0  0
 44 10  1  0  0  0  0
 45 44  1  0  0  0  0
 46 45  1  0  0  0  0
 47 46  1  0  0  0  0
 48 51  1  0  0  0  0
 49 52  1  0  0  0  0
 50 54  1  6  0  0  0
 50 56  1  0  0  0  0
 50 55  1  0  0  0  0
 51 47  1  6  0  0  0
 52 57  1  1  0  0  0
 52 55  1  0  0  0  0
 53 54  2  0  0  0  0
 54 49  1  0  0  0  0
 55 48  1  1  0  0  0
 56 51  1  0  0  0  0
 57 58  1  0  0  0  0
 58 59  1  0  0  0  0
M  END
>  <MODEL>
2

>  <REMARK>
 VINA RESULT:      -5.9      1.384      1.762
  Name = 
  17 active torsions:
  status: ('A' for Active; 'I' for Inactive)
    1  A    between atoms: C_4  and  C_19
    2  A    between atoms: C_4  and  O_20
    3  A    between atoms: C_4  and  C_54
    4  A    between atoms: C_6  and  C_28
    5  A    between atoms: C_6  and  C_30
    6  A    between atoms: N_7  and  N_59
    7  A    between atoms: C_10  and  O_20
    8  A    between atoms: C_10  and  C_36
    9  A    between atoms: C_14  and  C_54
   10  A    between atoms: C_27  and  O_58
   11  A    between atoms: C_32  and  O_38
   12  A    between atoms: C_35  and  C_45
   13  A    between atoms: C_39  and  O_46
   14  A    between atoms: C_40  and  N_59
   15  A    between atoms: O_46  and  C_56
   16  A    between atoms: C_52  and  C_56
   17  A    between atoms: C_52  and  O_58
                            x       y       z     vdW  Elec       q    Type
                         _______ _______ _______ _____ _____    ______ ____

>  <TORSDO>
F 17

$$$$
=
 OpenBabel11042421013D

 59 66  0  0  1  0  0  0  0  0999 V2000
  161.4030  206.3900  152.9660 C   0  0  0  0  0  2  0  0  0  0  0  0
  162.3560  208.0880  149.1440 C   0  0  0  0  0  3  0  0  0  0  0  0
  161.7670  207.6520  150.2530 C   0  0  2  0  0  3  0  0  0  0  0  0
  161.5080  207.8610  152.7800 C   0  0  0  0  0  0  0  0  0  0  0  0
  161.4720  205.9980  148.7070 C   0  0  0  0  0  3  0  0  0  0  0  0
  161.2190  206.3140  149.9690 C   0  0  0  0  0  0  0  0  0  0  0  0
  162.2310  207.0920  148.0450 C   0  0  0  0  0  3  0  0  0  0  0  0
  160.5080  205.3450  150.8820 C   0  0  2  0  0  3  0  0  0  0  0  0
  161.5710  210.0280  153.8780 C   0  0  0  0  0  0  0  0  0  0  0  0
  161.8030  209.8870  151.4580 C   0  0  0  0  0  0  0  0  0  0  0  0
  161.7600  210.6400  152.6410 C   0  0  0  0  0  3  0  0  0  0  0  0
  161.6830  208.4690  151.5110 C   0  0  0  0  0  0  0  0  0  0  0  0
  161.4450  208.6410  153.9380 C   0  0  0  0  0  3  0  0  0  0  0  0
  160.1630  205.8790  152.2650 C   0  0  0  0  0  2  0  0  0  0  0  0
  160.9190  203.0070  150.0160 N   0  0  0  0  0  2  0  0  0  0  0  0
  162.1020  203.8310  151.8440 O   0  0  0  0  0  0  0  0  0  0  0  0
  161.2240  204.0280  150.9610 C   0  0  0  0  0  0  0  0  0  0  0  0
  161.7470  201.8820  149.8840 N   0  0  0  0  0  2  0  0  0  0  0  0
  160.4320  202.2290  145.4100 C   0  0  0  0  0  2  0  0  0  0  0  0
  161.7790  199.9640  146.6240 C   0  0  0  0  0  2  0  0  0  0  0  0
  159.2510  201.9700  147.6010 O   0  0  0  0  0  0  0  0  0  0  0  0
  160.7760  199.6730  145.5010 C   0  0  0  0  0  2  0  0  0  0  0  0
  159.8620  200.8420  145.1070 C   0  0  0  0  0  2  0  0  0  0  0  0
  159.6790  200.6660  147.9980 C   0  0  0  0  0  2  0  0  0  0  0  0
  161.5400  202.8900  147.6790 C   0  0  2  0  0  3  0  0  0  0  0  0
  161.9630  201.6450  148.4610 C   0  0  2  0  0  3  0  0  0  0  0  0
  161.2020  200.4060  147.9810 C   0  0  2  0  0  3  0  0  0  0  0  0
  160.2380  202.6880  146.8750 C   0  0  1  0  0  3  0  0  0  0  0  0
  161.8200  204.2820  145.6520 S   0  0  0  0  0  1  0  0  0  0  0  0
  162.5840  203.3320  146.8630 O   0  0  0  0  0  0  0  0  0  0  0  0
  161.5040  210.8310  155.1100 C   0  0  0  0  0  0  0  0  0  0  0  0
  162.5450  211.0300  155.7910 O   0  0  0  0  0  0  0  0  0  0  0  0
  160.2760  211.3560  155.5230 O   0  0  0  0  0  0  0  0  0  0  0  0
  159.1060  211.3040  154.7080 C   0  0  2  0  0  3  0  0  0  0  0  0
  157.4380  212.6860  153.5390 O   0  0  0  0  0  0  0  0  0  0  0  0
  158.5170  212.8140  152.6380 C   0  0  1  0  0  0  0  0  0  0  0  0
  158.6300  211.6990  151.8270 F   0  0  0  0  0  0  0  0  0  0  0  0
  158.5310  214.1860  151.9880 C   0  0  0  0  0  1  0  0  0  0  0  0
  158.7310  212.6720  154.1030 C   0  0  2  0  0  0  0  0  0  0  0  0
  157.8370  214.3240  155.5910 O   0  0  0  0  0  1  0  0  0  0  0  0
  158.9970  213.9270  154.9230 C   0  0  0  0  0  2  0  0  0  0  0  0
  157.6990  211.4490  156.6510 O   0  0  0  0  0  1  0  0  0  0  0  0
  157.9440  210.7060  155.4930 C   0  0  0  0  0  2  0  0  0  0  0  0
  161.9440  210.5400  150.2240 O   0  0  0  0  0  0  0  0  0  0  0  0
  161.1920  211.6850  149.8300 C   0  0  0  0  0  2  0  0  0  0  0  0
  162.0470  212.6520  149.0210 C   0  0  0  0  0  2  0  0  0  0  0  0
  161.2550  213.3690  148.1180 O   0  0  0  0  0  0  0  0  0  0  0  0
  161.1080  212.4760  145.8830 C   0  0  0  0  0  2  0  0  0  0  0  0
  158.7350  213.6150  143.4810 O   0  0  0  0  0  0  0  0  0  0  0  0
  159.1300  213.4690  145.7230 C   0  0  2  0  0  3  0  0  0  0  0  0
  160.5870  212.4190  147.3390 C   0  0  2  0  0  3  0  0  0  0  0  0
  159.9980  212.9760  143.6960 C   0  0  1  0  0  3  0  0  0  0  0  0
  156.9800  214.4510  144.8990 C   0  0  0  0  0  2  0  0  0  0  0  0
  158.1460  213.8520  144.7110 C   0  0  0  0  0  0  0  0  0  0  0  0
  159.9160  212.4650  145.0660 N   0  0  1  0  0  0  0  0  0  0  0  0
  158.7780  212.8120  147.3420 S   0  0  0  0  0  0  0  0  0  0  0  0
  160.1380  211.8210  142.7090 C   0  0  0  0  0  2  0  0  0  0  0  0
  159.8900  212.2700  141.2760 C   0  0  0  0  0  2  0  0  0  0  0  0
  160.7840  211.5050  140.3170 C   0  0  0  0  0  1  0  0  0  0  0  0
  3  2  1  6  0  0  0
  3 12  1  0  0  0  0
  4  1  1  0  0  0  0
  4 13  1  0  0  0  0
  5  6  2  0  0  0  0
  6  3  1  0  0  0  0
  6  8  1  0  0  0  0
  7  5  1  0  0  0  0
  7  2  2  0  0  0  0
  8 17  1  1  0  0  0
  8 14  1  0  0  0  0
  9 13  2  0  0  0  0
  9 31  1  0  0  0  0
 10 12  1  0  0  0  0
 10 11  2  0  0  0  0
 11  9  1  0  0  0  0
 12  4  2  0  0  0  0
 14  1  1  0  0  0  0
 15 17  1  0  0  0  0
 17 16  2  0  0  0  0
 18 15  1  0  0  0  0
 21 24  1  0  0  0  0
 22 20  1  0  0  0  0
 23 19  1  0  0  0  0
 23 22  1  0  0  0  0
 25 30  1  6  0  0  0
 25 26  1  0  0  0  0
 26 18  1  1  0  0  0
 27 20  1  6  0  0  0
 27 24  1  0  0  0  0
 27 26  1  0  0  0  0
 28 19  1  6  0  0  0
 28 21  1  0  0  0  0
 28 25  1  0  0  0  0
 29 30  1  0  0  0  0
 31 33  1  0  0  0  0
 31 32  2  0  0  0  0
 34 43  1  1  0  0  0
 34 33  1  0  0  0  0
 35 39  1  0  0  0  0
 36 38  1  6  0  0  0
 36 35  1  0  0  0  0
 36 39  1  0  0  0  0
 37 36  1  0  0  0  0
 39 34  1  0  0  0  0
 39 41  1  1  0  0  0
 41 40  1  0  0  0  0
 43 42  1  0  0  0  0
 44 10  1  0  0  0  0
 45 44  1  0  0  0  0
 46 45  1  0  0  0  0
 47 46  1  0  0  0  0
 48 51  1  0  0  0  0
 49 52  1  0  0  0  0
 49 54  1  0  0  0  0
 50 54  1  6  0  0  0
 50 56  1  0  0  0  0
 51 56  1  0  0  0  0
 51 47  1  1  0  0  0
 52 57  1  6  0  0  0
 52 55  1  0  0  0  0
 54 53  2  0  0  0  0
 55 50  1  0  0  0  0
 55 48  1  1  0  0  0
 58 57  1  0  0  0  0
 59 58  1  0  0  0  0
M  END
>  <MODEL>
3

>  <REMARK>
 VINA RESULT:      -5.4      3.206      9.386
  Name = 
  17 active torsions:
  status: ('A' for Active; 'I' for Inactive)
    1  A    between atoms: C_4  and  C_19
    2  A    between atoms: C_4  and  O_20
    3  A    between atoms: C_4  and  C_54
    4  A    between atoms: C_6  and  C_28
    5  A    between atoms: C_6  and  C_30
    6  A    between atoms: N_7  and  N_59
    7  A    between atoms: C_10  and  O_20
    8  A    between atoms: C_10  and  C_36
    9  A    between atoms: C_14  and  C_54
   10  A    between atoms: C_27  and  O_58
   11  A    between atoms: C_32  and  O_38
   12  A    between atoms: C_35  and  C_45
   13  A    between atoms: C_39  and  O_46
   14  A    between atoms: C_40  and  N_59
   15  A    between atoms: O_46  and  C_56
   16  A    between atoms: C_52  and  C_56
   17  A    between atoms: C_52  and  O_58
                            x       y       z     vdW  Elec       q    Type
                         _______ _______ _______ _____ _____    ______ ____

>  <TORSDO>
F 17

$$$$
=
 OpenBabel11042421013D

 59 66  0  0  1  0  0  0  0  0999 V2000
  160.4280  206.9270  152.5010 C   0  0  0  0  0  2  0  0  0  0  0  0
  161.6870  210.9280  151.5970 C   0  0  0  0  0  3  0  0  0  0  0  0
  161.6070  209.6400  151.9170 C   0  0  0  0  0  0  0  0  0  0  0  0
  161.0240  207.2700  151.1830 C   0  0  0  0  0  0  0  0  0  0  0  0
  161.7010  210.7640  153.9030 C   0  0  0  0  0  3  0  0  0  0  0  0
  161.6020  209.5470  153.3880 C   0  0  0  0  0  0  0  0  0  0  0  0
  161.7590  211.7780  152.8170 C   0  0  0  0  0  2  0  0  0  0  0  0
  161.4680  208.3360  154.2810 C   0  0  2  0  0  3  0  0  0  0  0  0
  161.4980  206.4970  148.9290 C   0  0  0  0  0  0  0  0  0  0  0  0
  162.0940  208.7660  149.5830 C   0  0  0  0  0  0  0  0  0  0  0  0
  162.0310  207.7470  148.6210 C   0  0  0  0  0  3  0  0  0  0  0  0
  161.5790  208.5420  150.8930 C   0  0  0  0  0  0  0  0  0  0  0  0
  160.9990  206.2670  150.2100 C   0  0  0  0  0  3  0  0  0  0  0  0
  161.4970  206.9910  153.5710 C   0  0  0  0  0  2  0  0  0  0  0  0
  159.8760  209.7390  155.6530 N   0  0  0  0  0  2  0  0  0  0  0  0
  159.6540  207.4230  155.5580 O   0  0  0  0  0  0  0  0  0  0  0  0
  160.2880  208.4520  155.2000 C   0  0  0  0  0  0  0  0  0  0  0  0
  158.6330  209.9140  156.2800 N   0  0  0  0  0  2  0  0  0  0  0  0
  156.1270  213.5450  154.7280 C   0  0  0  0  0  2  0  0  0  0  0  0
  158.9660  213.5600  155.3280 C   0  0  0  0  0  2  0  0  0  0  0  0
  156.9280  211.3840  153.7530 O   0  0  0  0  0  0  0  0  0  0  0  0
  158.4800  214.4530  154.1800 C   0  0  0  0  0  2  0  0  0  0  0  0
  157.0500  214.1850  153.6890 C   0  0  0  0  0  2  0  0  0  0  0  0
  158.3420  211.5860  153.7440 C   0  0  0  0  0  2  0  0  0  0  0  0
  156.7930  211.5050  156.2150 C   0  0  2  0  0  3  0  0  0  0  0  0
  158.3140  211.3370  156.2590 C   0  0  2  0  0  3  0  0  0  0  0  0
  158.9820  212.0420  155.0750 C   0  0  2  0  0  3  0  0  0  0  0  0
  156.2780  212.0100  154.8500 C   0  0  1  0  0  3  0  0  0  0  0  0
  154.6670  212.4830  157.0220 S   0  0  0  0  0  1  0  0  0  0  0  0
  156.3620  212.3240  157.2610 O   0  0  0  0  0  0  0  0  0  0  0  0
  161.4590  205.4280  147.9170 C   0  0  0  0  0  0  0  0  0  0  0  0
  162.2350  205.4690  146.9250 O   0  0  0  0  0  0  0  0  0  0  0  0
  160.5470  204.3780  148.0590 O   0  0  0  0  0  0  0  0  0  0  0  0
  160.9550  203.0430  148.3530 C   0  0  2  0  0  3  0  0  0  0  0  0
  161.5960  202.4370  146.0550 O   0  0  0  0  0  0  0  0  0  0  0  0
  160.2020  202.5680  145.8790 C   0  0  1  0  0  0  0  0  0  0  0  0
  159.8310  203.8960  145.7650 F   0  0  0  0  0  0  0  0  0  0  0  0
  159.6810  201.5810  144.8500 C   0  0  0  0  0  1  0  0  0  0  0  0
  160.7890  202.0840  147.1580 C   0  0  2  0  0  0  0  0  0  0  0  0
  162.1400  200.1560  147.6030 O   0  0  0  0  0  1  0  0  0  0  0  0
  160.8240  200.5840  147.4190 C   0  0  0  0  0  2  0  0  0  0  0  0
  160.6340  203.2180  150.7280 O   0  0  0  0  0  1  0  0  0  0  0  0
  160.2210  202.5280  149.5850 C   0  0  0  0  0  2  0  0  0  0  0  0
  162.6830  209.9950  149.2560 O   0  0  0  0  0  0  0  0  0  0  0  0
  162.3490  210.7650  148.1040 C   0  0  0  0  0  2  0  0  0  0  0  0
  162.6530  212.2420  148.3230 C   0  0  0  0  0  2  0  0  0  0  0  0
  162.8060  212.8980  147.0960 O   0  0  0  0  0  0  0  0  0  0  0  0
  160.5420  213.2820  147.8350 C   0  0  0  0  0  2  0  0  0  0  0  0
  157.6830  212.2970  145.9510 O   0  0  0  0  0  0  0  0  0  0  0  0
  159.8940  212.8260  145.7630 C   0  0  2  0  0  3  0  0  0  0  0  0
  161.7360  213.7930  146.9930 C   0  0  2  0  0  3  0  0  0  0  0  0
  158.2020  212.6170  147.2470 C   0  0  1  0  0  3  0  0  0  0  0  0
  158.5660  212.2800  143.7130 C   0  0  0  0  0  2  0  0  0  0  0  0
  158.6810  212.4990  145.0140 C   0  0  0  0  0  0  0  0  0  0  0  0
  159.3950  213.4210  146.9690 N   0  0  1  0  0  0  0  0  0  0  0  0
  161.2140  213.8940  145.2190 S   0  0  0  0  0  0  0  0  0  0  0  0
  157.1680  213.4480  147.9990 C   0  0  0  0  0  2  0  0  0  0  0  0
  156.7740  212.8000  149.3180 C   0  0  0  0  0  2  0  0  0  0  0  0
  157.7940  213.1250  150.3940 C   0  0  0  0  0  1  0  0  0  0  0  0
  1 14  1  0  0  0  0
  2  3  2  0  0  0  0
  2  7  1  0  0  0  0
  3  6  1  0  0  0  0
  4  1  1  0  0  0  0
  6  5  2  0  0  0  0
  6  8  1  0  0  0  0
  7  5  1  0  0  0  0
  8 17  1  6  0  0  0
  9 13  1  0  0  0  0
 10 12  2  0  0  0  0
 11  9  2  0  0  0  0
 11 10  1  0  0  0  0
 12  4  1  0  0  0  0
 12  3  1  0  0  0  0
 13  4  2  0  0  0  0
 14  8  1  0  0  0  0
 15 18  1  0  0  0  0
 17 16  2  0  0  0  0
 17 15  1  0  0  0  0
 21 28  1  0  0  0  0
 22 20  1  0  0  0  0
 23 22  1  0  0  0  0
 23 19  1  0  0  0  0
 24 21  1  0  0  0  0
 25 26  1  0  0  0  0
 25 30  1  1  0  0  0
 26 18  1  6  0  0  0
 27 24  1  6  0  0  0
 27 20  1  0  0  0  0
 27 26  1  0  0  0  0
 28 19  1  1  0  0  0
 28 25  1  0  0  0  0
 29 30  1  0  0  0  0
 31 33  1  0  0  0  0
 31  9  1  0  0  0  0
 32 31  2  0  0  0  0
 33 34  1  0  0  0  0
 34 43  1  1  0  0  0
 35 39  1  0  0  0  0
 36 38  1  6  0  0  0
 36 35  1  0  0  0  0
 36 39  1  0  0  0  0
 37 36  1  0  0  0  0
 39 41  1  1  0  0  0
 39 34  1  0  0  0  0
 41 40  1  0  0  0  0
 43 42  1  0  0  0  0
 44 10  1  0  0  0  0
 45 46  1  0  0  0  0
 45 44  1  0  0  0  0
 47 46  1  0  0  0  0
 49 52  1  0  0  0  0
 50 54  1  6  0  0  0
 50 55  1  0  0  0  0
 51 47  1  6  0  0  0
 51 48  1  0  0  0  0
 52 57  1  1  0  0  0
 53 54  2  0  0  0  0
 54 49  1  0  0  0  0
 55 52  1  0  0  0  0
 55 48  1  1  0  0  0
 56 50  1  0  0  0  0
 56 51  1  0  0  0  0
 57 58  1  0  0  0  0
 58 59  1  0  0  0  0
M  END
>  <MODEL>
4

>  <REMARK>
 VINA RESULT:      -4.7      1.827      2.870
  Name = 
  17 active torsions:
  status: ('A' for Active; 'I' for Inactive)
    1  A    between atoms: C_4  and  C_19
    2  A    between atoms: C_4  and  O_20
    3  A    between atoms: C_4  and  C_54
    4  A    between atoms: C_6  and  C_28
    5  A    between atoms: C_6  and  C_30
    6  A    between atoms: N_7  and  N_59
    7  A    between atoms: C_10  and  O_20
    8  A    between atoms: C_10  and  C_36
    9  A    between atoms: C_14  and  C_54
   10  A    between atoms: C_27  and  O_58
   11  A    between atoms: C_32  and  O_38
   12  A    between atoms: C_35  and  C_45
   13  A    between atoms: C_39  and  O_46
   14  A    between atoms: C_40  and  N_59
   15  A    between atoms: O_46  and  C_56
   16  A    between atoms: C_52  and  C_56
   17  A    between atoms: C_52  and  O_58
                            x       y       z     vdW  Elec       q    Type
                         _______ _______ _______ _____ _____    ______ ____

>  <TORSDO>
F 17

$$$$
=
 OpenBabel11042421013D

 59 66  0  0  1  0  0  0  0  0999 V2000
  161.0350  210.3690  148.0640 C   0  0  0  0  0  2  0  0  0  0  0  0
  159.7680  212.0560  151.7990 C   0  0  0  0  0  3  0  0  0  0  0  0
  160.3940  211.7450  150.6690 C   0  0  0  0  0  0  0  0  0  0  0  0
  160.3360  211.6800  148.1210 C   0  0  0  0  0  0  0  0  0  0  0  0
  161.4820  210.5930  152.3130 C   0  0  0  0  0  3  0  0  0  0  0  0
  161.4760  210.8010  151.0040 C   0  0  0  0  0  0  0  0  0  0  0  0
  160.3900  211.3650  152.9620 C   0  0  0  0  0  2  0  0  0  0  0  0
  162.4520  210.0870  150.1010 C   0  0  2  0  0  3  0  0  0  0  0  0
  159.2790  213.4520  146.8390 C   0  0  0  0  0  0  0  0  0  0  0  0
  159.3240  213.5750  149.2710 C   0  0  0  0  0  0  0  0  0  0  0  0
  158.9500  214.1030  148.0260 C   0  0  0  0  0  3  0  0  0  0  0  0
  160.0250  212.3370  149.3380 C   0  0  0  0  0  0  0  0  0  0  0  0
  159.9720  212.2440  146.8960 C   0  0  0  0  0  3  0  0  0  0  0  0
  162.4280  210.5130  148.6400 C   0  0  0  0  0  2  0  0  0  0  0  0
  162.0500  207.8010  149.1020 N   0  0  0  0  0  2  0  0  0  0  0  0
  162.5500  208.0480  151.3620 O   0  0  0  0  0  0  0  0  0  0  0  0
  162.3520  208.5960  150.2440 C   0  0  0  0  0  0  0  0  0  0  0  0
  162.2170  206.4080  149.1330 N   0  0  0  0  0  2  0  0  0  0  0  0
  161.2760  203.4480  145.6370 C   0  0  0  0  0  2  0  0  0  0  0  0
  160.2190  206.1340  145.9330 C   0  0  0  0  0  2  0  0  0  0  0  0
  163.2720  204.7700  146.3670 O   0  0  0  0  0  0  0  0  0  0  0  0
  160.4740  205.6260  144.5090 C   0  0  0  0  0  2  0  0  0  0  0  0
  161.3170  204.3470  144.4010 C   0  0  0  0  0  2  0  0  0  0  0  0
  162.8160  206.1070  146.1560 C   0  0  0  0  0  2  0  0  0  0  0  0
  161.5580  204.3130  148.0840 C   0  0  2  0  0  3  0  0  0  0  0  0
  161.3030  205.8210  148.1610 C   0  0  2  0  0  3  0  0  0  0  0  0
  161.4540  206.4780  146.7860 C   0  0  2  0  0  3  0  0  0  0  0  0
  162.2390  203.8810  146.7680 C   0  0  1  0  0  3  0  0  0  0  0  0
  160.5700  202.9050  149.8630 S   0  0  0  0  0  1  0  0  0  0  0  0
  160.3740  203.6060  148.3060 O   0  0  0  0  0  0  0  0  0  0  0  0
  158.9020  214.0290  145.5380 C   0  0  0  0  0  0  0  0  0  0  0  0
  157.7090  214.3700  145.3210 O   0  0  0  0  0  0  0  0  0  0  0  0
  159.8740  214.1810  144.5440 O   0  0  0  0  0  0  0  0  0  0  0  0
  160.5440  213.0700  143.9520 C   0  0  2  0  0  3  0  0  0  0  0  0
  162.2300  212.4030  142.2870 O   0  0  0  0  0  0  0  0  0  0  0  0
  162.9160  213.4780  142.8920 C   0  0  1  0  0  0  0  0  0  0  0  0
  163.4880  213.0980  144.0930 F   0  0  0  0  0  0  0  0  0  0  0  0
  163.7750  214.2200  141.8840 C   0  0  0  0  0  1  0  0  0  0  0  0
  161.4340  213.4680  142.7580 C   0  0  2  0  0  0  0  0  0  0  0  0
  160.7380  213.4480  140.4650 O   0  0  0  0  0  1  0  0  0  0  0  0
  160.8040  214.2450  141.6090 C   0  0  0  0  0  2  0  0  0  0  0  0
  160.0120  210.7260  143.9070 O   0  0  0  0  0  1  0  0  0  0  0  0
  159.5370  211.9940  143.5600 C   0  0  0  0  0  2  0  0  0  0  0  0
  159.0220  214.2820  150.4440 O   0  0  0  0  0  0  0  0  0  0  0  0
  157.7270  214.3410  151.0360 C   0  0  0  0  0  2  0  0  0  0  0  0
  157.8200  214.4370  152.5530 C   0  0  0  0  0  2  0  0  0  0  0  0
  156.5420  214.4530  153.1230 O   0  0  0  0  0  0  0  0  0  0  0  0
  157.9750  213.3020  154.6850 C   0  0  0  0  0  2  0  0  0  0  0  0
  157.3390  209.9900  155.8360 O   0  0  0  0  0  0  0  0  0  0  0  0
  156.3290  211.8400  154.9640 C   0  0  2  0  0  3  0  0  0  0  0  0
  156.7140  214.1770  154.4840 C   0  0  2  0  0  3  0  0  0  0  0  0
  158.3240  211.0070  155.6220 C   0  0  1  0  0  3  0  0  0  0  0  0
  154.9520  209.8400  155.5720 C   0  0  0  0  0  2  0  0  0  0  0  0
  156.0950  210.5070  155.5180 C   0  0  0  0  0  0  0  0  0  0  0  0
  157.5540  212.2530  155.5850 N   0  0  1  0  0  0  0  0  0  0  0  0
  155.2360  213.2420  155.0920 S   0  0  0  0  0  0  0  0  0  0  0  0
  159.2860  211.0160  156.8060 C   0  0  0  0  0  2  0  0  0  0  0  0
  160.1160  209.7410  156.8670 C   0  0  0  0  0  2  0  0  0  0  0  0
  161.4910  209.9740  156.2680 C   0  0  0  0  0  1  0  0  0  0  0  0
  1  4  1  0  0  0  0
  1 14  1  0  0  0  0
  2  7  1  0  0  0  0
  3  6  1  0  0  0  0
  3  2  2  0  0  0  0
  4 12  1  0  0  0  0
  5  7  1  0  0  0  0
  6  5  2  0  0  0  0
  8 17  1  6  0  0  0
  8  6  1  0  0  0  0
  9 13  1  0  0  0  0
  9 11  2  0  0  0  0
 10 12  2  0  0  0  0
 10 44  1  0  0  0  0
 11 10  1  0  0  0  0
 12  3  1  0  0  0  0
 13  4  2  0  0  0  0
 14  8  1  0  0  0  0
 15 18  1  0  0  0  0
 15 17  1  0  0  0  0
 17 16  2  0  0  0  0
 21 28  1  0  0  0  0
 22 20  1  0  0  0  0
 23 22  1  0  0  0  0
 23 19  1  0  0  0  0
 24 21  1  0  0  0  0
 24 27  1  0  0  0  0
 25 26  1  0  0  0  0
 25 30  1  6  0  0  0
 26 18  1  1  0  0  0
 27 20  1  6  0  0  0
 27 26  1  0  0  0  0
 28 19  1  6  0  0  0
 28 25  1  0  0  0  0
 30 29  1  0  0  0  0
 31  9  1  0  0  0  0
 32 31  2  0  0  0  0
 33 31  1  0  0  0  0
 34 43  1  6  0  0  0
 34 33  1  0  0  0  0
 35 39  1  0  0  0  0
 35 36  1  0  0  0  0
 36 38  1  6  0  0  0
 36 37  1  0  0  0  0
 39 41  1  6  0  0  0
 39 36  1  0  0  0  0
 39 34  1  0  0  0  0
 40 41  1  0  0  0  0
 43 42  1  0  0  0  0
 44 45  1  0  0  0  0
 45 46  1  0  0  0  0
 46 47  1  0  0  0  0
 50 56  1  1  0  0  0
 50 54  1  0  0  0  0
 50 55  1  0  0  0  0
 51 47  1  6  0  0  0
 51 48  1  0  0  0  0
 51 56  1  0  0  0  0
 52 49  1  0  0  0  0
 52 57  1  1  0  0  0
 54 53  2  0  0  0  0
 54 49  1  0  0  0  0
 55 48  1  6  0  0  0
 55 52  1  0  0  0  0
 57 58  1  0  0  0  0
 59 58  1  0  0  0  0
M  END
>  <MODEL>
5

>  <REMARK>
 VINA RESULT:      -4.4      2.984     10.055
  Name = 
  17 active torsions:
  status: ('A' for Active; 'I' for Inactive)
    1  A    between atoms: C_4  and  C_19
    2  A    between atoms: C_4  and  O_20
    3  A    between atoms: C_4  and  C_54
    4  A    between atoms: C_6  and  C_28
    5  A    between atoms: C_6  and  C_30
    6  A    between atoms: N_7  and  N_59
    7  A    between atoms: C_10  and  O_20
    8  A    between atoms: C_10  and  C_36
    9  A    between atoms: C_14  and  C_54
   10  A    between atoms: C_27  and  O_58
   11  A    between atoms: C_32  and  O_38
   12  A    between atoms: C_35  and  C_45
   13  A    between atoms: C_39  and  O_46
   14  A    between atoms: C_40  and  N_59
   15  A    between atoms: O_46  and  C_56
   16  A    between atoms: C_52  and  C_56
   17  A    between atoms: C_52  and  O_58
                            x       y       z     vdW  Elec       q    Type
                         _______ _______ _______ _____ _____    ______ ____

>  <TORSDO>
F 17

$$$$
=
 OpenBabel11042421013D

 59 66  0  0  1  0  0  0  0  0999 V2000
  161.1540  208.4260  152.9850 C   0  0  0  0  0  2  0  0  0  0  0  0
  159.9970  212.3530  151.7020 C   0  0  0  0  0  3  0  0  0  0  0  0
  160.6450  211.2630  152.0990 C   0  0  0  0  0  0  0  0  0  0  0  0
  161.3560  208.8700  151.5810 C   0  0  0  0  0  0  0  0  0  0  0  0
  160.3020  212.4970  153.9890 C   0  0  0  0  0  3  0  0  0  0  0  0
  160.8220  211.3570  153.5590 C   0  0  0  0  0  0  0  0  0  0  0  0
  159.7120  213.2540  152.8530 C   0  0  0  0  0  2  0  0  0  0  0  0
  161.4350  210.3720  154.5260 C   0  0  2  0  0  3  0  0  0  0  0  0
  161.9660  208.1970  149.3280 C   0  0  0  0  0  0  0  0  0  0  0  0
  161.3140  210.5010  149.7700 C   0  0  0  0  0  0  0  0  0  0  0  0
  161.7200  209.4940  148.8820 C   0  0  0  0  0  3  0  0  0  0  0  0
  161.1170  210.1990  151.1490 C   0  0  0  0  0  0  0  0  0  0  0  0
  161.7830  207.8950  150.6760 C   0  0  0  0  0  3  0  0  0  0  0  0
  162.1150  209.1670  153.8920 C   0  0  0  0  0  2  0  0  0  0  0  0
  159.4860  210.8950  156.0460 N   0  0  0  0  0  2  0  0  0  0  0  0
  160.4960  208.7970  156.0730 O   0  0  0  0  0  0  0  0  0  0  0  0
  160.4630  209.9620  155.5920 C   0  0  0  0  0  0  0  0  0  0  0  0
  158.4010  210.4730  156.8280 N   0  0  0  0  0  2  0  0  0  0  0  0
  156.0220  213.7040  154.4270 C   0  0  0  0  0  2  0  0  0  0  0  0
  154.9980  212.1120  156.6260 C   0  0  0  0  0  2  0  0  0  0  0  0
  157.9030  213.7340  156.0780 O   0  0  0  0  0  0  0  0  0  0  0  0
  154.4660  213.5430  156.4790 C   0  0  0  0  0  2  0  0  0  0  0  0
  155.2490  214.4480  155.5180 C   0  0  0  0  0  2  0  0  0  0  0  0
  157.2490  213.2650  157.2580 C   0  0  0  0  0  2  0  0  0  0  0  0
  157.5260  211.6160  154.8660 C   0  0  2  0  0  3  0  0  0  0  0  0
  157.1770  210.9670  156.2080 C   0  0  2  0  0  3  0  0  0  0  0  0
  156.4460  211.9510  157.1250 C   0  0  2  0  0  3  0  0  0  0  0  0
  157.3940  213.1540  154.8850 C   0  0  1  0  0  3  0  0  0  0  0  0
  155.6420  210.0270  154.6380 S   0  0  0  0  0  1  0  0  0  0  0  0
  156.7700  211.0480  153.8380 O   0  0  0  0  0  0  0  0  0  0  0  0
  162.4140  207.1540  148.3900 C   0  0  0  0  0  0  0  0  0  0  0  0
  163.2180  207.4410  147.4630 O   0  0  0  0  0  0  0  0  0  0  0  0
  161.9300  205.8500  148.5280 O   0  0  0  0  0  0  0  0  0  0  0  0
  161.1900  205.1950  147.4990 C   0  0  2  0  0  3  0  0  0  0  0  0
  162.3730  203.2420  146.5780 O   0  0  0  0  0  0  0  0  0  0  0  0
  161.0450  202.8650  146.2870 C   0  0  1  0  0  0  0  0  0  0  0  0
  160.5730  203.5120  145.1590 F   0  0  0  0  0  0  0  0  0  0  0  0
  160.8640  201.3620  146.3870 C   0  0  0  0  0  1  0  0  0  0  0  0
  161.3870  203.6660  147.4940 C   0  0  2  0  0  0  0  0  0  0  0  0
  160.4490  203.2770  149.6650 O   0  0  0  0  0  1  0  0  0  0  0  0
  161.5180  202.9450  148.8290 C   0  0  0  0  0  2  0  0  0  0  0  0
  160.4570  206.5710  145.6700 O   0  0  0  0  0  1  0  0  0  0  0  0
  161.5250  205.8020  146.1410 C   0  0  0  0  0  2  0  0  0  0  0  0
  161.1250  211.8080  149.2980 O   0  0  0  0  0  0  0  0  0  0  0  0
  161.9320  212.4270  148.3000 C   0  0  0  0  0  2  0  0  0  0  0  0
  161.1950  213.5840  147.6370 C   0  0  0  0  0  2  0  0  0  0  0  0
  161.8170  213.9360  146.4330 O   0  0  0  0  0  0  0  0  0  0  0  0
  162.4960  213.0010  144.3160 C   0  0  0  0  0  2  0  0  0  0  0  0
  160.9110  213.8130  141.2290 O   0  0  0  0  0  0  0  0  0  0  0  0
  160.5780  213.7460  143.4860 C   0  0  2  0  0  3  0  0  0  0  0  0
  161.5440  212.9010  145.5320 C   0  0  2  0  0  3  0  0  0  0  0  0
  162.1000  213.3350  141.8670 C   0  0  1  0  0  3  0  0  0  0  0  0
  158.7120  214.4500  141.9720 C   0  0  0  0  0  2  0  0  0  0  0  0
  159.9350  213.9930  142.1950 C   0  0  0  0  0  0  0  0  0  0  0  0
  161.6390  212.8360  143.1650 N   0  0  1  0  0  0  0  0  0  0  0  0
  159.7980  213.0730  144.9400 S   0  0  0  0  0  0  0  0  0  0  0  0
  162.6760  212.1920  141.0360 C   0  0  0  0  0  2  0  0  0  0  0  0
  162.5670  212.4690  139.5440 C   0  0  0  0  0  2  0  0  0  0  0  0
  163.8890  212.9800  139.0010 C   0  0  0  0  0  1  0  0  0  0  0  0
  1 14  1  0  0  0  0
  2  3  2  0  0  0  0
  2  7  1  0  0  0  0
  3  6  1  0  0  0  0
  4  1  1  0  0  0  0
  6  5  2  0  0  0  0
  6  8  1  0  0  0  0
  7  5  1  0  0  0  0
  8 17  1  1  0  0  0
  9 13  1  0  0  0  0
 10 12  2  0  0  0  0
 11  9  2  0  0  0  0
 11 10  1  0  0  0  0
 12  4  1  0  0  0  0
 12  3  1  0  0  0  0
 13  4  2  0  0  0  0
 14  8  1  0  0  0  0
 15 18  1  0  0  0  0
 17 15  1  0  0  0  0
 17 16  2  0  0  0  0
 19 23  1  0  0  0  0
 21 24  1  0  0  0  0
 22 20  1  0  0  0  0
 23 22  1  0  0  0  0
 25 30  1  6  0  0  0
 25 28  1  0  0  0  0
 25 26  1  0  0  0  0
 26 18  1  1  0  0  0
 26 27  1  0  0  0  0
 27 20  1  6  0  0  0
 27 24  1  0  0  0  0
 28 19  1  1  0  0  0
 28 21  1  0  0  0  0
 30 29  1  0  0  0  0
 31 33  1  0  0  0  0
 31  9  1  0  0  0  0
 32 31  2  0  0  0  0
 34 43  1  6  0  0  0
 34 33  1  0  0  0  0
 35 39  1  0  0  0  0
 36 38  1  1  0  0  0
 36 35  1  0  0  0  0
 36 39  1  0  0  0  0
 37 36  1  0  0  0  0
 39 34  1  0  0  0  0
 39 41  1  1  0  0  0
 41 40  1  0  0  0  0
 42 43  1  0  0  0  0
 44 10  1  0  0  0  0
 45 44  1  0  0  0  0
 46 45  1  0  0  0  0
 47 46  1  0  0  0  0
 48 51  1  0  0  0  0
 49 52  1  0  0  0  0
 49 54  1  0  0  0  0
 50 54  1  6  0  0  0
 50 56  1  0  0  0  0
 51 47  1  1  0  0  0
 52 57  1  6  0  0  0
 52 55  1  0  0  0  0
 53 54  2  0  0  0  0
 55 50  1  0  0  0  0
 55 48  1  1  0  0  0
 56 51  1  0  0  0  0
 58 57  1  0  0  0  0
 59 58  1  0  0  0  0
M  END
>  <MODEL>
6

>  <REMARK>
 VINA RESULT:      -4.1      2.074      3.416
  Name = 
  17 active torsions:
  status: ('A' for Active; 'I' for Inactive)
    1  A    between atoms: C_4  and  C_19
    2  A    between atoms: C_4  and  O_20
    3  A    between atoms: C_4  and  C_54
    4  A    between atoms: C_6  and  C_28
    5  A    between atoms: C_6  and  C_30
    6  A    between atoms: N_7  and  N_59
    7  A    between atoms: C_10  and  O_20
    8  A    between atoms: C_10  and  C_36
    9  A    between atoms: C_14  and  C_54
   10  A    between atoms: C_27  and  O_58
   11  A    between atoms: C_32  and  O_38
   12  A    between atoms: C_35  and  C_45
   13  A    between atoms: C_39  and  O_46
   14  A    between atoms: C_40  and  N_59
   15  A    between atoms: O_46  and  C_56
   16  A    between atoms: C_52  and  C_56
   17  A    between atoms: C_52  and  O_58
                            x       y       z     vdW  Elec       q    Type
                         _______ _______ _______ _____ _____    ______ ____

>  <TORSDO>
F 17

$$$$
=
 OpenBabel11042421013D

 59 66  0  0  1  0  0  0  0  0999 V2000
  159.7880  213.8880  149.5910 C   0  0  0  0  0  2  0  0  0  0  0  0
  161.5700  209.9880  149.7260 C   0  0  0  0  0  3  0  0  0  0  0  0
  161.3070  211.2900  149.7730 C   0  0  2  0  0  3  0  0  0  0  0  0
  160.0180  213.1890  150.8820 C   0  0  0  0  0  0  0  0  0  0  0  0
  162.2450  210.9250  147.7230 C   0  0  0  0  0  3  0  0  0  0  0  0
  161.7270  211.8760  148.4870 C   0  0  0  0  0  0  0  0  0  0  0  0
  162.1950  209.6160  148.4270 C   0  0  0  0  0  3  0  0  0  0  0  0
  161.6040  213.2940  147.9830 C   0  0  2  0  0  3  0  0  0  0  0  0
  159.6030  213.2000  153.2760 C   0  0  0  0  0  0  0  0  0  0  0  0
  160.8580  211.3710  152.2710 C   0  0  0  0  0  0  0  0  0  0  0  0
  160.2820  211.9890  153.3910 C   0  0  0  0  0  3  0  0  0  0  0  0
  160.7270  211.9660  150.9830 C   0  0  0  0  0  0  0  0  0  0  0  0
  159.4770  213.7920  152.0210 C   0  0  0  0  0  3  0  0  0  0  0  0
  161.1170  214.3130  149.0030 C   0  0  0  0  0  2  0  0  0  0  0  0
  161.0260  214.4500  145.8120 N   0  0  0  0  0  2  0  0  0  0  0  0
  159.9810  212.4620  146.4240 O   0  0  0  0  0  0  0  0  0  0  0  0
  160.8140  213.3640  146.7090 C   0  0  0  0  0  0  0  0  0  0  0  0
  160.5190  214.4090  144.5050 N   0  0  0  0  0  2  0  0  0  0  0  0
  162.6150  213.3110  140.4710 C   0  0  0  0  0  2  0  0  0  0  0  0
  161.5590  211.4330  142.4150 C   0  0  0  0  0  2  0  0  0  0  0  0
  160.4260  214.3340  141.1230 O   0  0  0  0  0  0  0  0  0  0  0  0
  161.4830  211.0390  140.9350 C   0  0  0  0  0  2  0  0  0  0  0  0
  161.7520  212.1690  139.9310 C   0  0  0  0  0  2  0  0  0  0  0  0
  159.7890  213.2390  141.7830 C   0  0  0  0  0  2  0  0  0  0  0  0
  162.2440  214.4530  142.7890 C   0  0  2  0  0  3  0  0  0  0  0  0
  161.3980  213.5650  143.7050 C   0  0  2  0  0  3  0  0  0  0  0  0
  160.6010  212.5380  142.8950 C   0  0  2  0  0  3  0  0  0  0  0  0
  161.8350  214.3560  141.3040 C   0  0  1  0  0  3  0  0  0  0  0  0
  163.6960  213.3910  144.4880 S   0  0  0  0  0  1  0  0  0  0  0  0
  163.6030  214.1830  142.9660 O   0  0  0  0  0  0  0  0  0  0  0  0
  159.0240  213.8510  154.4620 C   0  0  0  0  0  0  0  0  0  0  0  0
  159.7770  214.3750  155.3270 O   0  0  0  0  0  0  0  0  0  0  0  0
  157.6360  213.8700  154.6290 O   0  0  0  0  0  0  0  0  0  0  0  0
  156.9870  213.2350  155.7290 C   0  0  2  0  0  3  0  0  0  0  0  0
  157.1120  211.1810  157.0800 O   0  0  0  0  0  0  0  0  0  0  0  0
  158.4060  211.1660  156.5160 C   0  0  1  0  0  0  0  0  0  0  0  0
  159.2550  212.0340  157.1790 F   0  0  0  0  0  0  0  0  0  0  0  0
  158.8790  209.7460  156.2620 C   0  0  0  0  0  1  0  0  0  0  0  0
  157.2350  211.7140  155.7790 C   0  0  2  0  0  0  0  0  0  0  0  0
  155.4820  210.1450  155.3270 O   0  0  0  0  0  1  0  0  0  0  0  0
  156.5500  210.8310  154.7460 C   0  0  0  0  0  2  0  0  0  0  0  0
  154.9700  213.4890  157.0110 O   0  0  0  0  0  1  0  0  0  0  0  0
  155.4970  213.5540  155.7180 C   0  0  0  0  0  2  0  0  0  0  0  0
  161.5780  210.1780  152.4300 O   0  0  0  0  0  0  0  0  0  0  0  0
  161.1360  209.0700  153.2100 C   0  0  0  0  0  2  0  0  0  0  0  0
  161.9810  207.8330  152.9350 C   0  0  0  0  0  2  0  0  0  0  0  0
  162.1400  207.6440  151.5570 O   0  0  0  0  0  0  0  0  0  0  0  0
  161.2230  205.4170  151.4210 C   0  0  0  0  0  2  0  0  0  0  0  0
  161.5410  203.3520  148.5340 O   0  0  0  0  0  0  0  0  0  0  0  0
  161.5480  205.5250  149.2280 C   0  0  2  0  0  3  0  0  0  0  0  0
  161.0200  206.9230  151.1280 C   0  0  2  0  0  3  0  0  0  0  0  0
  161.3300  203.3940  149.9500 C   0  0  1  0  0  3  0  0  0  0  0  0
  161.8010  204.9940  146.7950 C   0  0  0  0  0  2  0  0  0  0  0  0
  161.5940  204.6500  148.0570 C   0  0  0  0  0  0  0  0  0  0  0  0
  160.8320  204.7490  150.2000 N   0  0  1  0  0  0  0  0  0  0  0  0
  160.8290  207.1550  149.3000 S   0  0  0  0  0  0  0  0  0  0  0  0
  160.2670  202.3650  150.3190 C   0  0  0  0  0  2  0  0  0  0  0  0
  159.7240  201.6500  149.0900 C   0  0  0  0  0  2  0  0  0  0  0  0
  158.5740  200.7360  149.4720 C   0  0  0  0  0  1  0  0  0  0  0  0
  1  4  1  0  0  0  0
  3  2  1  1  0  0  0
  3 12  1  0  0  0  0
  4 12  2  0  0  0  0
  4 13  1  0  0  0  0
  5  7  1  0  0  0  0
  5  6  2  0  0  0  0
  6  3  1  0  0  0  0
  7  2  2  0  0  0  0
  8 17  1  6  0  0  0
  8  6  1  0  0  0  0
  8 14  1  0  0  0  0
  9 11  1  0  0  0  0
  9 31  1  0  0  0  0
 10 44  1  0  0  0  0
 10 11  2  0  0  0  0
 12 10  1  0  0  0  0
 13  9  2  0  0  0  0
 14  1  1  0  0  0  0
 15 17  1  0  0  0  0
 16 17  2  0  0  0  0
 18 15  1  0  0  0  0
 20 27  1  0  0  0  0
 21 28  1  0  0  0  0
 21 24  1  0  0  0  0
 22 20  1  0  0  0  0
 23 19  1  0  0  0  0
 23 22  1  0  0  0  0
 25 30  1  6  0  0  0
 25 26  1  0  0  0  0
 26 18  1  6  0  0  0
 27 24  1  6  0  0  0
 27 26  1  0  0  0  0
 28 19  1  1  0  0  0
 28 25  1  0  0  0  0
 30 29  1  0  0  0  0
 31 33  1  0  0  0  0
 31 32  2  0  0  0  0
 33 34  1  0  0  0  0
 34 43  1  6  0  0  0
 34 39  1  0  0  0  0
 36 38  1  6  0  0  0
 36 35  1  0  0  0  0
 36 37  1  0  0  0  0
 39 41  1  6  0  0  0
 39 36  1  0  0  0  0
 39 35  1  0  0  0  0
 41 40  1  0  0  0  0
 43 42  1  0  0  0  0
 44 45  1  0  0  0  0
 46 45  1  0  0  0  0
 47 46  1  0  0  0  0
 49 52  1  0  0  0  0
 50 54  1  6  0  0  0
 50 56  1  0  0  0  0
 50 55  1  0  0  0  0
 51 48  1  0  0  0  0
 51 47  1  6  0  0  0
 52 55  1  0  0  0  0
 52 57  1  6  0  0  0
 53 54  2  0  0  0  0
 54 49  1  0  0  0  0
 55 48  1  1  0  0  0
 56 51  1  0  0  0  0
 58 59  1  0  0  0  0
 58 57  1  0  0  0  0
M  END
>  <MODEL>
7

>  <REMARK>
 VINA RESULT:      -3.6      3.183     11.071
  Name = 
  17 active torsions:
  status: ('A' for Active; 'I' for Inactive)
    1  A    between atoms: C_4  and  C_19
    2  A    between atoms: C_4  and  O_20
    3  A    between atoms: C_4  and  C_54
    4  A    between atoms: C_6  and  C_28
    5  A    between atoms: C_6  and  C_30
    6  A    between atoms: N_7  and  N_59
    7  A    between atoms: C_10  and  O_20
    8  A    between atoms: C_10  and  C_36
    9  A    between atoms: C_14  and  C_54
   10  A    between atoms: C_27  and  O_58
   11  A    between atoms: C_32  and  O_38
   12  A    between atoms: C_35  and  C_45
   13  A    between atoms: C_39  and  O_46
   14  A    between atoms: C_40  and  N_59
   15  A    between atoms: O_46  and  C_56
   16  A    between atoms: C_52  and  C_56
   17  A    between atoms: C_52  and  O_58
                            x       y       z     vdW  Elec       q    Type
                         _______ _______ _______ _____ _____    ______ ____

>  <TORSDO>
F 17

$$$$
=
 OpenBabel11042421013D

 59 66  0  0  1  0  0  0  0  0999 V2000
  160.5060  207.0190  153.2930 C   0  0  0  0  0  2  0  0  0  0  0  0
  161.0720  210.3620  150.6650 C   0  0  0  0  0  3  0  0  0  0  0  0
  161.2130  209.3240  151.4830 C   0  0  2  0  0  3  0  0  0  0  0  0
  160.8850  206.8260  151.8690 C   0  0  0  0  0  0  0  0  0  0  0  0
  161.3870  211.1770  152.8050 C   0  0  0  0  0  3  0  0  0  0  0  0
  161.3990  209.8530  152.8460 C   0  0  0  0  0  0  0  0  0  0  0  0
  161.1700  211.6470  151.4110 C   0  0  0  0  0  3  0  0  0  0  0  0
  161.5460  209.1190  154.1570 C   0  0  2  0  0  3  0  0  0  0  0  0
  161.1870  205.2220  150.0690 C   0  0  0  0  0  0  0  0  0  0  0  0
  161.5330  207.5960  149.6490 C   0  0  0  0  0  0  0  0  0  0  0  0
  161.4980  206.2670  149.2010 C   0  0  0  0  0  3  0  0  0  0  0  0
  161.2160  207.9000  151.0050 C   0  0  0  0  0  0  0  0  0  0  0  0
  160.8840  205.5100  151.3980 C   0  0  0  0  0  3  0  0  0  0  0  0
  161.6780  207.6070  154.0520 C   0  0  0  0  0  2  0  0  0  0  0  0
  159.4440  210.4020  154.7250 N   0  0  0  0  0  2  0  0  0  0  0  0
  160.4910  209.0570  156.3110 O   0  0  0  0  0  0  0  0  0  0  0  0
  160.4800  209.5150  155.1370 C   0  0  0  0  0  0  0  0  0  0  0  0
  158.2950  210.5760  155.5120 N   0  0  0  0  0  2  0  0  0  0  0  0
  155.7910  214.2490  156.9650 C   0  0  0  0  0  2  0  0  0  0  0  0
  156.3680  213.5580  154.2070 C   0  0  0  0  0  2  0  0  0  0  0  0
  155.4570  211.7690  156.9150 O   0  0  0  0  0  0  0  0  0  0  0  0
  155.0170  214.2190  154.5040 C   0  0  0  0  0  2  0  0  0  0  0  0
  154.6170  214.2770  155.9850 C   0  0  0  0  0  2  0  0  0  0  0  0
  155.3940  211.5220  155.5100 C   0  0  0  0  0  2  0  0  0  0  0  0
  157.7880  212.5750  156.8050 C   0  0  2  0  0  3  0  0  0  0  0  0
  157.8800  211.9700  155.4020 C   0  0  2  0  0  3  0  0  0  0  0  0
  156.5480  212.0970  154.6570 C   0  0  2  0  0  3  0  0  0  0  0  0
  156.3360  212.8300  157.2610 C   0  0  1  0  0  3  0  0  0  0  0  0
  159.5620  213.6920  155.4900 S   0  0  0  0  0  1  0  0  0  0  0  0
  158.5640  213.7330  156.8890 O   0  0  0  0  0  0  0  0  0  0  0  0
  161.1770  203.8300  149.5920 C   0  0  0  0  0  0  0  0  0  0  0  0
  160.3500  203.0050  150.0670 O   0  0  0  0  0  0  0  0  0  0  0  0
  162.1000  203.4270  148.6220 O   0  0  0  0  0  0  0  0  0  0  0  0
  161.7020  202.9440  147.3400 C   0  0  2  0  0  3  0  0  0  0  0  0
  162.5330  203.8060  145.1890 O   0  0  0  0  0  0  0  0  0  0  0  0
  162.8440  204.9080  146.0150 C   0  0  1  0  0  0  0  0  0  0  0  0
  164.0030  204.6840  146.7380 F   0  0  0  0  0  0  0  0  0  0  0  0
  162.7020  206.2180  145.2630 C   0  0  0  0  0  1  0  0  0  0  0  0
  161.6550  204.0500  146.2670 C   0  0  2  0  0  0  0  0  0  0  0  0
  160.2310  205.9280  145.8320 O   0  0  0  0  0  1  0  0  0  0  0  0
  160.2950  204.5340  145.7800 C   0  0  0  0  0  2  0  0  0  0  0  0
  160.5480  200.8370  147.2810 O   0  0  0  0  0  1  0  0  0  0  0  0
  160.3680  202.2130  147.4430 C   0  0  0  0  0  2  0  0  0  0  0  0
  161.9000  208.6190  148.7620 O   0  0  0  0  0  0  0  0  0  0  0  0
  163.1680  209.2680  148.7660 C   0  0  0  0  0  2  0  0  0  0  0  0
  163.0190  210.7680  148.5430 C   0  0  0  0  0  2  0  0  0  0  0  0
  162.2570  211.0200  147.3960 O   0  0  0  0  0  0  0  0  0  0  0  0
  160.3520  212.2390  148.2330 C   0  0  0  0  0  2  0  0  0  0  0  0
  157.6020  213.2050  146.1830 O   0  0  0  0  0  0  0  0  0  0  0  0
  159.8150  212.6540  146.1210 C   0  0  2  0  0  3  0  0  0  0  0  0
  161.7360  212.3090  147.5450 C   0  0  2  0  0  3  0  0  0  0  0  0
  158.0540  212.9210  147.5120 C   0  0  1  0  0  3  0  0  0  0  0  0
  158.6350  213.3070  144.0120 C   0  0  0  0  0  2  0  0  0  0  0  0
  158.6840  213.1280  145.3240 C   0  0  0  0  0  0  0  0  0  0  0  0
  159.5060  213.1060  147.4460 N   0  0  1  0  0  0  0  0  0  0  0  0
  161.5310  213.0650  145.8670 S   0  0  0  0  0  0  0  0  0  0  0  0
  157.4350  213.9360  148.4680 C   0  0  0  0  0  2  0  0  0  0  0  0
  157.6690  213.5550  149.9230 C   0  0  0  0  0  2  0  0  0  0  0  0
  156.3510  213.4920  150.6740 C   0  0  0  0  0  1  0  0  0  0  0  0
  1 14  1  0  0  0  0
  2  7  2  0  0  0  0
  3  2  1  6  0  0  0
  3  6  1  0  0  0  0
  4  1  1  0  0  0  0
  5  6  2  0  0  0  0
  6  8  1  0  0  0  0
  7  5  1  0  0  0  0
  8 17  1  1  0  0  0
  9 13  2  0  0  0  0
 10 12  1  0  0  0  0
 11 10  2  0  0  0  0
 11  9  1  0  0  0  0
 12  3  1  0  0  0  0
 12  4  2  0  0  0  0
 13  4  1  0  0  0  0
 14  8  1  0  0  0  0
 15 17  1  0  0  0  0
 15 18  1  0  0  0  0
 17 16  2  0  0  0  0
 20 22  1  0  0  0  0
 21 28  1  0  0  0  0
 22 23  1  0  0  0  0
 23 19  1  0  0  0  0
 24 21  1  0  0  0  0
 25 30  1  6  0  0  0
 25 28  1  0  0  0  0
 26 18  1  1  0  0  0
 26 25  1  0  0  0  0
 27 20  1  1  0  0  0
 27 26  1  0  0  0  0
 27 24  1  0  0  0  0
 28 19  1  6  0  0  0
 29 30  1  0  0  0  0
 31 32  2  0  0  0  0
 31  9  1  0  0  0  0
 33 31  1  0  0  0  0
 34 43  1  1  0  0  0
 34 33  1  0  0  0  0
 35 36  1  0  0  0  0
 35 39  1  0  0  0  0
 36 38  1  6  0  0  0
 36 39  1  0  0  0  0
 36 37  1  0  0  0  0
 39 41  1  6  0  0  0
 39 34  1  0  0  0  0
 41 40  1  0  0  0  0
 42 43  1  0  0  0  0
 44 45  1  0  0  0  0
 44 10  1  0  0  0  0
 46 45  1  0  0  0  0
 47 46  1  0  0  0  0
 49 52  1  0  0  0  0
 50 54  1  6  0  0  0
 50 55  1  0  0  0  0
 51 47  1  6  0  0  0
 51 48  1  0  0  0  0
 52 57  1  1  0  0  0
 53 54  2  0  0  0  0
 54 49  1  0  0  0  0
 55 52  1  0  0  0  0
 55 48  1  1  0  0  0
 56 50  1  0  0  0  0
 56 51  1  0  0  0  0
 57 58  1  0  0  0  0
 58 59  1  0  0  0  0
M  END
>  <MODEL>
8

>  <REMARK>
 VINA RESULT:      -3.4      1.560      2.144
  Name = 
  17 active torsions:
  status: ('A' for Active; 'I' for Inactive)
    1  A    between atoms: C_4  and  C_19
    2  A    between atoms: C_4  and  O_20
    3  A    between atoms: C_4  and  C_54
    4  A    between atoms: C_6  and  C_28
    5  A    between atoms: C_6  and  C_30
    6  A    between atoms: N_7  and  N_59
    7  A    between atoms: C_10  and  O_20
    8  A    between atoms: C_10  and  C_36
    9  A    between atoms: C_14  and  C_54
   10  A    between atoms: C_27  and  O_58
   11  A    between atoms: C_32  and  O_38
   12  A    between atoms: C_35  and  C_45
   13  A    between atoms: C_39  and  O_46
   14  A    between atoms: C_40  and  N_59
   15  A    between atoms: O_46  and  C_56
   16  A    between atoms: C_52  and  C_56
   17  A    between atoms: C_52  and  O_58
                            x       y       z     vdW  Elec       q    Type
                         _______ _______ _______ _____ _____    ______ ____

>  <TORSDO>
F 17

$$$$
=
 OpenBabel11042421013D

 59 66  0  0  1  0  0  0  0  0999 V2000
  159.5750  213.3680  149.4850 C   0  0  0  0  0  2  0  0  0  0  0  0
  162.1290  209.9860  148.8210 C   0  0  0  0  0  3  0  0  0  0  0  0
  161.6080  211.1730  149.1140 C   0  0  2  0  0  3  0  0  0  0  0  0
  160.0660  212.5380  150.6160 C   0  0  0  0  0  0  0  0  0  0  0  0
  162.4030  211.3580  146.9810 C   0  0  0  0  0  3  0  0  0  0  0  0
  161.7740  212.0360  147.9310 C   0  0  0  0  0  0  0  0  0  0  0  0
  162.6910  209.9740  147.4430 C   0  0  0  0  0  3  0  0  0  0  0  0
  161.3150  213.4540  147.6950 C   0  0  2  0  0  3  0  0  0  0  0  0
  159.8860  212.0720  152.9940 C   0  0  0  0  0  0  0  0  0  0  0  0
  161.3900  210.7490  151.6090 C   0  0  0  0  0  0  0  0  0  0  0  0
  160.8080  211.0370  152.8520 C   0  0  0  0  0  3  0  0  0  0  0  0
  161.0180  211.5000  150.4570 C   0  0  0  0  0  0  0  0  0  0  0  0
  159.5220  212.8160  151.8730 C   0  0  0  0  0  3  0  0  0  0  0  0
  160.7260  214.1640  148.9060 C   0  0  0  0  0  2  0  0  0  0  0  0
  160.7380  214.4520  145.4460 N   0  0  0  0  0  2  0  0  0  0  0  0
  159.3760  212.8370  146.4230 O   0  0  0  0  0  0  0  0  0  0  0  0
  160.4100  213.5530  146.5010 C   0  0  0  0  0  0  0  0  0  0  0  0
  160.0810  214.3760  144.2090 N   0  0  0  0  0  2  0  0  0  0  0  0
  161.7010  212.9350  140.0660 C   0  0  0  0  0  2  0  0  0  0  0  0
  160.6250  211.2420  142.1620 C   0  0  0  0  0  2  0  0  0  0  0  0
  159.6940  214.2070  140.8520 O   0  0  0  0  0  0  0  0  0  0  0  0
  160.3820  210.8130  140.7100 C   0  0  0  0  0  2  0  0  0  0  0  0
  160.6810  211.8760  139.6440 C   0  0  0  0  0  2  0  0  0  0  0  0
  159.0050  213.2070  141.6050 C   0  0  0  0  0  2  0  0  0  0  0  0
  161.6500  214.1820  142.3590 C   0  0  2  0  0  3  0  0  0  0  0  0
  160.7970  213.4180  143.3750 C   0  0  2  0  0  3  0  0  0  0  0  0
  159.8310  212.4580  142.6750 C   0  0  2  0  0  3  0  0  0  0  0  0
  161.1080  214.0840  140.9170 C   0  0  1  0  0  3  0  0  0  0  0  0
  163.2210  213.3680  144.0880 S   0  0  0  0  0  1  0  0  0  0  0  0
  162.9830  213.7740  142.4350 O   0  0  0  0  0  0  0  0  0  0  0  0
  159.2990  212.3790  154.3080 C   0  0  0  0  0  0  0  0  0  0  0  0
  158.2600  213.0870  154.3860 O   0  0  0  0  0  0  0  0  0  0  0  0
  159.9120  211.8920  155.4670 O   0  0  0  0  0  0  0  0  0  0  0  0
  159.3220  210.8760  156.2760 C   0  0  2  0  0  3  0  0  0  0  0  0
  160.2570  208.8800  155.1790 O   0  0  0  0  0  0  0  0  0  0  0  0
  159.5820  208.2590  156.2530 C   0  0  1  0  0  0  0  0  0  0  0  0
  158.2260  208.1530  156.0030 F   0  0  0  0  0  0  0  0  0  0  0  0
  160.3280  207.0270  156.7330 C   0  0  0  0  0  1  0  0  0  0  0  0
  160.1940  209.6090  156.3850 C   0  0  2  0  0  0  0  0  0  0  0  0
  161.9260  211.0660  157.1730 O   0  0  0  0  0  1  0  0  0  0  0  0
  161.5640  209.7240  157.0410 C   0  0  0  0  0  2  0  0  0  0  0  0
  156.9530  211.1600  156.5650 O   0  0  0  0  0  1  0  0  0  0  0  0
  157.9230  210.5440  155.7680 C   0  0  0  0  0  2  0  0  0  0  0  0
  162.3530  209.7340  151.5110 O   0  0  0  0  0  0  0  0  0  0  0  0
  162.2500  208.4640  152.1490 C   0  0  0  0  0  2  0  0  0  0  0  0
  162.8310  207.3600  151.2740 C   0  0  0  0  0  2  0  0  0  0  0  0
  162.6050  207.6380  149.9210 O   0  0  0  0  0  0  0  0  0  0  0  0
  161.3960  205.5580  150.0990 C   0  0  0  0  0  2  0  0  0  0  0  0
  161.4040  203.0750  147.5430 O   0  0  0  0  0  0  0  0  0  0  0  0
  161.7100  205.3050  147.9170 C   0  0  2  0  0  3  0  0  0  0  0  0
  161.3950  207.0200  149.5900 C   0  0  2  0  0  3  0  0  0  0  0  0
  161.2150  203.3490  148.9360 C   0  0  1  0  0  3  0  0  0  0  0  0
  161.8660  204.4000  145.5880 C   0  0  0  0  0  2  0  0  0  0  0  0
  161.6260  204.2720  146.8850 C   0  0  0  0  0  0  0  0  0  0  0  0
  160.9070  204.7810  148.9840 N   0  0  1  0  0  0  0  0  0  0  0  0
  161.2180  207.0090  147.7460 S   0  0  0  0  0  0  0  0  0  0  0  0
  160.0270  202.5360  149.4400 C   0  0  0  0  0  2  0  0  0  0  0  0
  160.1520  201.0650  149.0690 C   0  0  0  0  0  2  0  0  0  0  0  0
  160.8170  200.9140  147.7130 C   0  0  0  0  0  1  0  0  0  0  0  0
  1  4  1  0  0  0  0
  3  2  1  1  0  0  0
  3 12  1  0  0  0  0
  4 13  1  0  0  0  0
  5  7  1  0  0  0  0
  5  6  2  0  0  0  0
  6  3  1  0  0  0  0
  7  2  2  0  0  0  0
  8 17  1  6  0  0  0
  8  6  1  0  0  0  0
  8 14  1  0  0  0  0
  9 31  1  0  0  0  0
 10 11  2  0  0  0  0
 11  9  1  0  0  0  0
 12  4  2  0  0  0  0
 12 10  1  0  0  0  0
 13  9  2  0  0  0  0
 14  1  1  0  0  0  0
 15 17  1  0  0  0  0
 16 17  2  0  0  0  0
 18 15  1  0  0  0  0
 20 27  1  0  0  0  0
 21 28  1  0  0  0  0
 21 24  1  0  0  0  0
 22 20  1  0  0  0  0
 23 19  1  0  0  0  0
 23 22  1  0  0  0  0
 25 30  1  6  0  0  0
 25 26  1  0  0  0  0
 26 18  1  6  0  0  0
 27 24  1  6  0  0  0
 27 26  1  0  0  0  0
 28 19  1  1  0  0  0
 28 25  1  0  0  0  0
 30 29  1  0  0  0  0
 31 32  2  0  0  0  0
 31 33  1  0  0  0  0
 33 34  1  0  0  0  0
 34 43  1  6  0  0  0
 34 39  1  0  0  0  0
 35 36  1  0  0  0  0
 35 39  1  0  0  0  0
 36 39  1  0  0  0  0
 36 38  1  1  0  0  0
 37 36  1  0  0  0  0
 39 41  1  1  0  0  0
 41 40  1  0  0  0  0
 43 42  1  0  0  0  0
 44 10  1  0  0  0  0
 44 45  1  0  0  0  0
 46 45  1  0  0  0  0
 47 46  1  0  0  0  0
 49 52  1  0  0  0  0
 50 54  1  6  0  0  0
 50 55  1  0  0  0  0
 51 47  1  6  0  0  0
 51 48  1  0  0  0  0
 52 55  1  0  0  0  0
 52 57  1  6  0  0  0
 53 54  2  0  0  0  0
 54 49  1  0  0  0  0
 55 48  1  1  0  0  0
 56 50  1  0  0  0  0
 56 51  1  0  0  0  0
 58 57  1  0  0  0  0
 59 58  1  0  0  0  0
M  END
>  <MODEL>
9

>  <REMARK>
 VINA RESULT:      -3.2      3.237     10.653
  Name = 
  17 active torsions:
  status: ('A' for Active; 'I' for Inactive)
    1  A    between atoms: C_4  and  C_19
    2  A    between atoms: C_4  and  O_20
    3  A    between atoms: C_4  and  C_54
    4  A    between atoms: C_6  and  C_28
    5  A    between atoms: C_6  and  C_30
    6  A    between atoms: N_7  and  N_59
    7  A    between atoms: C_10  and  O_20
    8  A    between atoms: C_10  and  C_36
    9  A    between atoms: C_14  and  C_54
   10  A    between atoms: C_27  and  O_58
   11  A    between atoms: C_32  and  O_38
   12  A    between atoms: C_35  and  C_45
   13  A    between atoms: C_39  and  O_46
   14  A    between atoms: C_40  and  N_59
   15  A    between atoms: O_46  and  C_56
   16  A    between atoms: C_52  and  C_56
   17  A    between atoms: C_52  and  O_58
                            x       y       z     vdW  Elec       q    Type
                         _______ _______ _______ _____ _____    ______ ____

>  <TORSDO>
F 17

$$$$
