=
 OpenBabel11042421313D

 27 29  0  0  1  0  0  0  0  0999 V2000
  161.3440  205.2010  149.7090 C   0  0  0  0  0  0  0  0  0  0  0  0
  161.4670  204.0310  150.6260 C   0  0  1  0  0  3  0  0  0  0  0  0
  161.2320  206.3170  150.3990 C   0  0  0  0  0  0  0  0  0  0  0  0
  161.4490  205.1940  148.2140 C   0  0  0  0  0  2  0  0  0  0  0  0
  161.3560  204.7010  151.9700 C   0  0  0  0  0  3  0  0  0  0  0  0
  160.8290  206.4740  147.6300 C   0  0  1  0  0  3  0  0  0  0  0  0
  161.3390  207.7120  148.3840 C   0  0  0  0  0  2  0  0  0  0  0  0
  161.2190  206.0170  151.8200 C   0  0  0  0  0  0  0  0  0  0  0  0
  161.1240  207.5700  149.7920 O   0  0  0  0  0  0  0  0  0  0  0  0
  161.2070  208.3640  152.6890 C   0  0  0  0  0  3  0  0  0  0  0  0
  161.0810  209.2510  153.7120 N   0  0  0  0  0  0  0  0  0  0  0  0
  160.8350  208.8410  154.9850 C   0  0  0  0  0  0  0  0  0  0  0  0
  160.7050  207.4790  155.2680 C   0  0  0  0  0  3  0  0  0  0  0  0
  161.0850  206.9880  152.9250 C   0  0  0  0  0  0  0  0  0  0  0  0
  160.8310  206.5540  154.2320 C   0  0  0  0  0  3  0  0  0  0  0  0
  160.7090  209.8080  156.0390 C   0  0  0  0  0  0  0  0  0  0  0  0
  160.6080  210.5870  156.8890 N   0  0  0  0  0  0  0  0  0  0  0  0
  161.4140  201.8260  148.8070 O   0  0  0  0  0  0  0  0  0  0  0  0
  160.3860  202.0370  149.5040 C   0  0  0  0  0  0  0  0  0  0  0  0
  159.2560  201.1840  149.3690 N   0  0  0  0  0  1  0  0  0  0  0  0
  160.3420  203.1280  150.4240 N   0  0  0  0  0  2  0  0  0  0  0  0
  161.1500  206.5780  146.2760 O   0  0  0  0  0  0  0  0  0  0  0  0
  161.7170  205.3450  145.9470 C   0  0  0  0  0  2  0  0  0  0  0  0
  161.3620  204.9810  144.5180 C   0  0  0  0  0  2  0  0  0  0  0  0
  160.4530  203.9220  144.5100 O   0  0  0  0  0  0  0  0  0  0  0  0
  160.3010  201.7790  145.2620 O   0  0  0  0  0  1  0  0  0  0  0  0
  161.0180  202.9710  145.3580 C   0  0  0  0  0  2  0  0  0  0  0  0
  1  3  2  0  0  0  0
  1  2  1  0  0  0  0
  2 21  1  6  0  0  0
  2  5  1  0  0  0  0
  3  8  1  0  0  0  0
  4  1  1  0  0  0  0
  6 22  1  6  0  0  0
  6  4  1  0  0  0  0
  6  7  1  0  0  0  0
  7  9  1  0  0  0  0
  8  5  2  0  0  0  0
  8 14  1  0  0  0  0
  9  3  1  0  0  0  0
 10 14  2  0  0  0  0
 10 11  1  0  0  0  0
 11 12  2  0  0  0  0
 12 13  1  0  0  0  0
 12 16  1  0  0  0  0
 14 15  1  0  0  0  0
 15 13  2  0  0  0  0
 16 17  3  0  0  0  0
 18 19  2  0  0  0  0
 19 21  1  0  0  0  0
 20 19  1  0  0  0  0
 23 22  1  0  0  0  0
 24 23  1  0  0  0  0
 25 24  1  0  0  0  0
 25 27  1  0  0  0  0
 26 27  1  0  0  0  0
M  END
>  <MODEL>
1

>  <REMARK>
 VINA RESULT:      -8.1      0.000      0.000
  Name = 
  8 active torsions:
  status: ('A' for Active; 'I' for Inactive)
    1  A    between atoms: C_5  and  O_23
    2  A    between atoms: C_6  and  C_8
    3  A    between atoms: C_7  and  N_26
    4  A    between atoms: O_14  and  C_15
    5  A    between atoms: O_14  and  C_19
    6  A    between atoms: C_19  and  C_27
    7  A    between atoms: C_21  and  C_22
    8  A    between atoms: O_23  and  C_27
                            x       y       z     vdW  Elec       q    Type
                         _______ _______ _______ _____ _____    ______ ____

>  <TORSDO>
F 8

$$$$
=
 OpenBabel11042421313D

 27 29  0  0  1  0  0  0  0  0999 V2000
  160.8420  205.0790  149.4950 C   0  0  0  0  0  0  0  0  0  0  0  0
  160.7420  206.2060  148.5230 C   0  0  1  0  0  3  0  0  0  0  0  0
  160.9900  205.5380  150.7200 C   0  0  0  0  0  0  0  0  0  0  0  0
  160.6800  203.6170  149.2040 C   0  0  0  0  0  2  0  0  0  0  0  0
  160.9100  207.3930  149.4360 C   0  0  0  0  0  3  0  0  0  0  0  0
  161.2900  202.7780  150.3390 C   0  0  1  0  0  3  0  0  0  0  0  0
  160.8210  203.2980  151.7070 C   0  0  0  0  0  2  0  0  0  0  0  0
  161.0530  206.9890  150.6960 C   0  0  0  0  0  0  0  0  0  0  0  0
  161.0880  204.6990  151.8330 O   0  0  0  0  0  0  0  0  0  0  0  0
  161.8010  209.1580  151.6990 C   0  0  0  0  0  3  0  0  0  0  0  0
  161.9680  209.9750  152.7720 N   0  0  0  0  0  0  0  0  0  0  0  0
  161.6000  209.5910  154.0240 C   0  0  0  0  0  0  0  0  0  0  0  0
  161.0360  208.3300  154.2320 C   0  0  0  0  0  3  0  0  0  0  0  0
  161.2390  207.8830  151.8580 C   0  0  0  0  0  0  0  0  0  0  0  0
  160.8570  207.4770  153.1420 C   0  0  0  0  0  3  0  0  0  0  0  0
  161.7930  210.4820  155.1340 C   0  0  0  0  0  0  0  0  0  0  0  0
  161.9490  211.2000  156.0280 N   0  0  0  0  0  0  0  0  0  0  0  0
  160.5230  205.5560  145.7480 O   0  0  0  0  0  0  0  0  0  0  0  0
  161.6690  205.8190  146.2010 C   0  0  0  0  0  0  0  0  0  0  0  0
  162.7930  205.7900  145.3310 N   0  0  0  0  0  1  0  0  0  0  0  0
  161.8500  206.1410  147.5810 N   0  0  0  0  0  2  0  0  0  0  0  0
  160.9190  201.4410  150.1890 O   0  0  0  0  0  0  0  0  0  0  0  0
  160.5790  201.3140  148.8410 C   0  0  0  0  0  2  0  0  0  0  0  0
  161.5710  200.4040  148.1420 C   0  0  0  0  0  2  0  0  0  0  0  0
  161.2230  200.2660  146.7980 O   0  0  0  0  0  0  0  0  0  0  0  0
  160.1320  201.4600  145.1970 O   0  0  0  0  0  1  0  0  0  0  0  0
  160.8110  201.5400  146.4110 C   0  0  0  0  0  2  0  0  0  0  0  0
  1  3  2  0  0  0  0
  2 21  1  6  0  0  0
  2  5  1  0  0  0  0
  2  1  1  0  0  0  0
  3  9  1  0  0  0  0
  4  1  1  0  0  0  0
  4  6  1  0  0  0  0
  5  8  2  0  0  0  0
  6 22  1  6  0  0  0
  6  7  1  0  0  0  0
  7  9  1  0  0  0  0
  8  3  1  0  0  0  0
  8 14  1  0  0  0  0
 10 14  2  0  0  0  0
 10 11  1  0  0  0  0
 11 12  2  0  0  0  0
 12 13  1  0  0  0  0
 12 16  1  0  0  0  0
 14 15  1  0  0  0  0
 15 13  2  0  0  0  0
 16 17  3  0  0  0  0
 18 19  2  0  0  0  0
 19 21  1  0  0  0  0
 20 19  1  0  0  0  0
 23 22  1  0  0  0  0
 24 23  1  0  0  0  0
 25 24  1  0  0  0  0
 26 27  1  0  0  0  0
 27 25  1  0  0  0  0
M  END
>  <MODEL>
2

>  <REMARK>
 VINA RESULT:      -7.9      2.064      3.639
  Name = 
  8 active torsions:
  status: ('A' for Active; 'I' for Inactive)
    1  A    between atoms: C_5  and  O_23
    2  A    between atoms: C_6  and  C_8
    3  A    between atoms: C_7  and  N_26
    4  A    between atoms: O_14  and  C_15
    5  A    between atoms: O_14  and  C_19
    6  A    between atoms: C_19  and  C_27
    7  A    between atoms: C_21  and  C_22
    8  A    between atoms: O_23  and  C_27
                            x       y       z     vdW  Elec       q    Type
                         _______ _______ _______ _____ _____    ______ ____

>  <TORSDO>
F 8

$$$$
=
 OpenBabel11042421313D

 27 29  0  0  1  0  0  0  0  0999 V2000
  161.4450  205.5470  151.9620 C   0  0  0  0  0  0  0  0  0  0  0  0
  161.7590  206.3340  153.1890 C   0  0  1  0  0  3  0  0  0  0  0  0
  161.4860  206.3190  150.8970 C   0  0  0  0  0  0  0  0  0  0  0  0
  161.2280  204.0670  151.8680 C   0  0  0  0  0  2  0  0  0  0  0  0
  161.9400  207.7140  152.6130 C   0  0  0  0  0  3  0  0  0  0  0  0
  160.5000  203.7180  150.5590 C   0  0  1  0  0  3  0  0  0  0  0  0
  161.1610  204.4280  149.3680 C   0  0  0  0  0  2  0  0  0  0  0  0
  161.7770  207.6860  151.2920 C   0  0  0  0  0  0  0  0  0  0  0  0
  161.2520  205.8370  149.6070 O   0  0  0  0  0  0  0  0  0  0  0  0
  161.9800  208.6960  149.0100 C   0  0  0  0  0  3  0  0  0  0  0  0
  162.0780  209.7800  148.1950 N   0  0  0  0  0  0  0  0  0  0  0  0
  162.0850  211.0460  148.6920 C   0  0  0  0  0  0  0  0  0  0  0  0
  161.9910  211.2580  150.0690 C   0  0  0  0  0  3  0  0  0  0  0  0
  161.8840  208.8590  150.3990 C   0  0  0  0  0  0  0  0  0  0  0  0
  161.8900  210.1580  150.9210 C   0  0  0  0  0  3  0  0  0  0  0  0
  162.1910  212.1660  147.8000 C   0  0  0  0  0  0  0  0  0  0  0  0
  162.2760  213.0690  147.0800 N   0  0  0  0  0  0  0  0  0  0  0  0
  161.5430  207.8160  155.6240 O   0  0  0  0  0  0  0  0  0  0  0  0
  160.5680  207.0910  155.2900 C   0  0  0  0  0  0  0  0  0  0  0  0
  159.4120  207.0390  156.1160 N   0  0  0  0  0  1  0  0  0  0  0  0
  160.6160  206.3160  154.0910 N   0  0  0  0  0  2  0  0  0  0  0  0
  160.5230  202.3380  150.3600 O   0  0  0  0  0  0  0  0  0  0  0  0
  160.8030  202.1770  149.0010 C   0  0  0  0  0  2  0  0  0  0  0  0
  161.2360  200.7490  148.7290 C   0  0  0  0  0  2  0  0  0  0  0  0
  161.2250  200.5050  147.3550 O   0  0  0  0  0  0  0  0  0  0  0  0
  160.4340  201.4980  145.4660 O   0  0  0  0  0  1  0  0  0  0  0  0
  160.8220  201.7120  146.7880 C   0  0  0  0  0  2  0  0  0  0  0  0
  1  2  1  0  0  0  0
  2 21  1  1  0  0  0
  3  8  1  0  0  0  0
  3  1  2  0  0  0  0
  4  1  1  0  0  0  0
  5  2  1  0  0  0  0
  6 22  1  6  0  0  0
  6  4  1  0  0  0  0
  7  9  1  0  0  0  0
  7  6  1  0  0  0  0
  8  5  2  0  0  0  0
  9  3  1  0  0  0  0
 10 14  1  0  0  0  0
 11 12  1  0  0  0  0
 11 10  2  0  0  0  0
 12 13  2  0  0  0  0
 13 15  1  0  0  0  0
 14 15  2  0  0  0  0
 14  8  1  0  0  0  0
 16 12  1  0  0  0  0
 17 16  3  0  0  0  0
 19 18  2  0  0  0  0
 19 20  1  0  0  0  0
 21 19  1  0  0  0  0
 23 22  1  0  0  0  0
 24 23  1  0  0  0  0
 25 24  1  0  0  0  0
 26 27  1  0  0  0  0
 27 25  1  0  0  0  0
M  END
>  <MODEL>
3

>  <REMARK>
 VINA RESULT:      -7.1      2.959      5.402
  Name = 
  8 active torsions:
  status: ('A' for Active; 'I' for Inactive)
    1  A    between atoms: C_5  and  O_23
    2  A    between atoms: C_6  and  C_8
    3  A    between atoms: C_7  and  N_26
    4  A    between atoms: O_14  and  C_15
    5  A    between atoms: O_14  and  C_19
    6  A    between atoms: C_19  and  C_27
    7  A    between atoms: C_21  and  C_22
    8  A    between atoms: O_23  and  C_27
                            x       y       z     vdW  Elec       q    Type
                         _______ _______ _______ _____ _____    ______ ____

>  <TORSDO>
F 8

$$$$
=
 OpenBabel11042421313D

 27 29  0  0  1  0  0  0  0  0999 V2000
  161.6790  209.3470  150.5740 C   0  0  0  0  0  0  0  0  0  0  0  0
  162.2620  209.6550  149.2370 C   0  0  1  0  0  3  0  0  0  0  0  0
  161.4010  208.0640  150.6710 C   0  0  0  0  0  0  0  0  0  0  0  0
  161.5220  210.2880  151.7310 C   0  0  0  0  0  2  0  0  0  0  0  0
  162.2150  208.3010  148.5790 C   0  0  0  0  0  3  0  0  0  0  0  0
  160.4960  209.7330  152.7330 C   0  0  1  0  0  3  0  0  0  0  0  0
  160.7870  208.2550  153.0390 C   0  0  0  0  0  2  0  0  0  0  0  0
  161.7140  207.3970  149.4200 C   0  0  0  0  0  0  0  0  0  0  0  0
  160.8640  207.4950  151.8290 O   0  0  0  0  0  0  0  0  0  0  0  0
  161.7260  205.4790  147.8120 C   0  0  0  0  0  3  0  0  0  0  0  0
  161.5500  204.1590  147.5360 N   0  0  0  0  0  0  0  0  0  0  0  0
  161.1760  203.2740  148.4980 C   0  0  0  0  0  0  0  0  0  0  0  0
  160.9630  203.7120  149.8070 C   0  0  0  0  0  3  0  0  0  0  0  0
  161.5240  205.9650  149.1110 C   0  0  0  0  0  0  0  0  0  0  0  0
  161.1390  205.0620  150.1090 C   0  0  0  0  0  3  0  0  0  0  0  0
  160.9990  201.8870  148.1680 C   0  0  0  0  0  0  0  0  0  0  0  0
  160.8570  200.7700  147.9020 N   0  0  0  0  0  0  0  0  0  0  0  0
  163.0470  212.2100  148.2230 O   0  0  0  0  0  0  0  0  0  0  0  0
  161.8550  211.8450  148.0350 C   0  0  0  0  0  0  0  0  0  0  0  0
  160.9600  212.6970  147.3340 N   0  0  0  0  0  1  0  0  0  0  0  0
  161.3960  210.5850  148.5250 N   0  0  0  0  0  2  0  0  0  0  0  0
  160.5380  210.4770  153.9120 O   0  0  0  0  0  0  0  0  0  0  0  0
  161.8860  210.4930  154.2770 C   0  0  0  0  0  2  0  0  0  0  0  0
  162.0110  210.4840  155.7890 C   0  0  0  0  0  2  0  0  0  0  0  0
  162.0320  209.1690  156.2540 O   0  0  0  0  0  0  0  0  0  0  0  0
  160.0430  208.0980  156.5330 O   0  0  0  0  0  1  0  0  0  0  0  0
  160.8990  209.0640  157.0590 C   0  0  0  0  0  2  0  0  0  0  0  0
  1  3  2  0  0  0  0
  1  4  1  0  0  0  0
  2 21  1  6  0  0  0
  2  1  1  0  0  0  0
  3  9  1  0  0  0  0
  4  6  1  0  0  0  0
  5  2  1  0  0  0  0
  5  8  2  0  0  0  0
  6  7  1  0  0  0  0
  6 22  1  1  0  0  0
  8  3  1  0  0  0  0
  9  7  1  0  0  0  0
 10 14  1  0  0  0  0
 11 10  2  0  0  0  0
 11 12  1  0  0  0  0
 12 13  2  0  0  0  0
 13 15  1  0  0  0  0
 14  8  1  0  0  0  0
 14 15  2  0  0  0  0
 16 12  1  0  0  0  0
 17 16  3  0  0  0  0
 19 18  2  0  0  0  0
 19 21  1  0  0  0  0
 20 19  1  0  0  0  0
 22 23  1  0  0  0  0
 23 24  1  0  0  0  0
 24 25  1  0  0  0  0
 25 27  1  0  0  0  0
 26 27  1  0  0  0  0
M  END
>  <MODEL>
4

>  <REMARK>
 VINA RESULT:      -6.9      3.813      8.583
  Name = 
  8 active torsions:
  status: ('A' for Active; 'I' for Inactive)
    1  A    between atoms: C_5  and  O_23
    2  A    between atoms: C_6  and  C_8
    3  A    between atoms: C_7  and  N_26
    4  A    between atoms: O_14  and  C_15
    5  A    between atoms: O_14  and  C_19
    6  A    between atoms: C_19  and  C_27
    7  A    between atoms: C_21  and  C_22
    8  A    between atoms: O_23  and  C_27
                            x       y       z     vdW  Elec       q    Type
                         _______ _______ _______ _____ _____    ______ ____

>  <TORSDO>
F 8

$$$$
=
 OpenBabel11042421313D

 27 29  0  0  1  0  0  0  0  0999 V2000
  161.0420  205.8560  149.7240 C   0  0  0  0  0  0  0  0  0  0  0  0
  160.4560  205.1060  150.8720 C   0  0  1  0  0  3  0  0  0  0  0  0
  161.2530  205.0480  148.7060 C   0  0  0  0  0  0  0  0  0  0  0  0
  161.2670  207.3350  149.6290 C   0  0  0  0  0  2  0  0  0  0  0  0
  160.4210  203.7050  150.3190 C   0  0  0  0  0  3  0  0  0  0  0  0
  162.2760  207.6500  148.5130 C   0  0  1  0  0  3  0  0  0  0  0  0
  161.9120  206.8920  147.2270 C   0  0  0  0  0  2  0  0  0  0  0  0
  160.8850  203.6920  149.0710 C   0  0  0  0  0  0  0  0  0  0  0  0
  161.7760  205.4910  147.4880 O   0  0  0  0  0  0  0  0  0  0  0  0
  161.3670  201.2530  148.7690 C   0  0  0  0  0  3  0  0  0  0  0  0
  161.4650  200.1510  147.9790 N   0  0  0  0  0  0  0  0  0  0  0  0
  161.2070  200.2040  146.6450 C   0  0  0  0  0  0  0  0  0  0  0  0
  160.8310  201.4130  146.0540 C   0  0  0  0  0  3  0  0  0  0  0  0
  160.9940  202.4890  148.2200 C   0  0  0  0  0  0  0  0  0  0  0  0
  160.7260  202.5550  146.8480 C   0  0  0  0  0  3  0  0  0  0  0  0
  161.3200  199.0190  145.8440 C   0  0  0  0  0  0  0  0  0  0  0  0
  161.4130  198.0630  145.1980 N   0  0  0  0  0  0  0  0  0  0  0  0
  160.4560  207.1420  152.8790 O   0  0  0  0  0  0  0  0  0  0  0  0
  161.3000  206.2120  152.9860 C   0  0  0  0  0  0  0  0  0  0  0  0
  162.2030  206.2030  154.0840 N   0  0  0  0  0  1  0  0  0  0  0  0
  161.3600  205.1690  152.0120 N   0  0  0  0  0  2  0  0  0  0  0  0
  162.2920  209.0220  148.2640 O   0  0  0  0  0  0  0  0  0  0  0  0
  161.9560  209.6110  149.4860 C   0  0  0  0  0  2  0  0  0  0  0  0
  161.9820  211.1220  149.3540 C   0  0  0  0  0  2  0  0  0  0  0  0
  161.8110  211.4830  148.0170 O   0  0  0  0  0  0  0  0  0  0  0  0
  162.3630  213.2320  146.6700 O   0  0  0  0  0  1  0  0  0  0  0  0
  162.7160  212.5240  147.8170 C   0  0  0  0  0  2  0  0  0  0  0  0
  1  2  1  0  0  0  0
  2 21  1  1  0  0  0
  3  8  1  0  0  0  0
  3  1  2  0  0  0  0
  4  1  1  0  0  0  0
  5  2  1  0  0  0  0
  6 22  1  6  0  0  0
  6  4  1  0  0  0  0
  7  9  1  0  0  0  0
  7  6  1  0  0  0  0
  8  5  2  0  0  0  0
  9  3  1  0  0  0  0
 11 10  2  0  0  0  0
 12 11  1  0  0  0  0
 13 12  2  0  0  0  0
 13 15  1  0  0  0  0
 14 10  1  0  0  0  0
 14  8  1  0  0  0  0
 15 14  2  0  0  0  0
 16 12  1  0  0  0  0
 17 16  3  0  0  0  0
 18 19  2  0  0  0  0
 19 20  1  0  0  0  0
 21 19  1  0  0  0  0
 22 23  1  0  0  0  0
 24 23  1  0  0  0  0
 25 24  1  0  0  0  0
 26 27  1  0  0  0  0
 27 25  1  0  0  0  0
M  END
>  <MODEL>
5

>  <REMARK>
 VINA RESULT:      -6.9      2.917      7.879
  Name = 
  8 active torsions:
  status: ('A' for Active; 'I' for Inactive)
    1  A    between atoms: C_5  and  O_23
    2  A    between atoms: C_6  and  C_8
    3  A    between atoms: C_7  and  N_26
    4  A    between atoms: O_14  and  C_15
    5  A    between atoms: O_14  and  C_19
    6  A    between atoms: C_19  and  C_27
    7  A    between atoms: C_21  and  C_22
    8  A    between atoms: O_23  and  C_27
                            x       y       z     vdW  Elec       q    Type
                         _______ _______ _______ _____ _____    ______ ____

>  <TORSDO>
F 8

$$$$
=
 OpenBabel11042421313D

 27 29  0  0  1  0  0  0  0  0999 V2000
  161.1440  208.1780  151.8560 C   0  0  0  0  0  0  0  0  0  0  0  0
  160.6100  207.5130  153.0800 C   0  0  1  0  0  3  0  0  0  0  0  0
  161.3050  207.3000  150.8880 C   0  0  0  0  0  0  0  0  0  0  0  0
  161.3710  209.6450  151.6490 C   0  0  0  0  0  2  0  0  0  0  0  0
  160.5440  206.0780  152.6270 C   0  0  0  0  0  3  0  0  0  0  0  0
  162.3280  209.8750  150.4680 C   0  0  1  0  0  3  0  0  0  0  0  0
  161.9020  209.0320  149.2560 C   0  0  0  0  0  2  0  0  0  0  0  0
  160.9500  205.9750  151.3630 C   0  0  0  0  0  0  0  0  0  0  0  0
  161.7720  207.6540  149.6200 O   0  0  0  0  0  0  0  0  0  0  0  0
  161.1540  204.7330  149.1980 C   0  0  0  0  0  3  0  0  0  0  0  0
  161.2120  203.5700  148.4970 N   0  0  0  0  0  0  0  0  0  0  0  0
  161.1390  202.3610  149.1160 C   0  0  0  0  0  0  0  0  0  0  0  0
  161.0000  202.2920  150.5040 C   0  0  0  0  0  3  0  0  0  0  0  0
  161.0140  204.7150  150.5930 C   0  0  0  0  0  0  0  0  0  0  0  0
  160.9370  203.4760  151.2400 C   0  0  0  0  0  3  0  0  0  0  0  0
  161.2040  201.1530  148.3410 C   0  0  0  0  0  0  0  0  0  0  0  0
  161.2570  200.1800  147.7180 N   0  0  0  0  0  0  0  0  0  0  0  0
  159.9920  208.3890  155.7300 O   0  0  0  0  0  0  0  0  0  0  0  0
  161.1890  208.0830  155.4760 C   0  0  0  0  0  0  0  0  0  0  0  0
  162.1710  208.1770  156.4990 N   0  0  0  0  0  1  0  0  0  0  0  0
  161.5660  207.6480  154.1700 N   0  0  0  0  0  2  0  0  0  0  0  0
  162.3380  211.2270  150.1250 O   0  0  0  0  0  0  0  0  0  0  0  0
  161.9930  211.2540  148.7720 C   0  0  0  0  0  2  0  0  0  0  0  0
  162.7030  212.4040  148.0830 C   0  0  0  0  0  2  0  0  0  0  0  0
  161.9420  212.8520  147.0030 O   0  0  0  0  0  0  0  0  0  0  0  0
  160.0420  212.2090  145.9270 O   0  0  0  0  0  1  0  0  0  0  0  0
  160.7160  212.2060  147.1480 C   0  0  0  0  0  2  0  0  0  0  0  0
  1  2  1  0  0  0  0
  2 21  1  1  0  0  0
  3  8  1  0  0  0  0
  3  1  2  0  0  0  0
  4  1  1  0  0  0  0
  5  2  1  0  0  0  0
  6 22  1  6  0  0  0
  6  4  1  0  0  0  0
  7  9  1  0  0  0  0
  7  6  1  0  0  0  0
  8  5  2  0  0  0  0
  9  3  1  0  0  0  0
 10 14  1  0  0  0  0
 11 12  1  0  0  0  0
 11 10  2  0  0  0  0
 12 13  2  0  0  0  0
 13 15  1  0  0  0  0
 14 15  2  0  0  0  0
 14  8  1  0  0  0  0
 16 12  1  0  0  0  0
 17 16  3  0  0  0  0
 19 18  2  0  0  0  0
 19 20  1  0  0  0  0
 21 19  1  0  0  0  0
 23 22  1  0  0  0  0
 24 23  1  0  0  0  0
 25 27  1  0  0  0  0
 25 24  1  0  0  0  0
 26 27  1  0  0  0  0
M  END
>  <MODEL>
6

>  <REMARK>
 VINA RESULT:      -6.8      2.972      7.220
  Name = 
  8 active torsions:
  status: ('A' for Active; 'I' for Inactive)
    1  A    between atoms: C_5  and  O_23
    2  A    between atoms: C_6  and  C_8
    3  A    between atoms: C_7  and  N_26
    4  A    between atoms: O_14  and  C_15
    5  A    between atoms: O_14  and  C_19
    6  A    between atoms: C_19  and  C_27
    7  A    between atoms: C_21  and  C_22
    8  A    between atoms: O_23  and  C_27
                            x       y       z     vdW  Elec       q    Type
                         _______ _______ _______ _____ _____    ______ ____

>  <TORSDO>
F 8

$$$$
=
 OpenBabel11042421313D

 27 29  0  0  1  0  0  0  0  0999 V2000
  161.8490  209.1790  150.4630 C   0  0  0  0  0  0  0  0  0  0  0  0
  162.3320  209.5450  149.1000 C   0  0  1  0  0  3  0  0  0  0  0  0
  161.5760  207.8930  150.5260 C   0  0  0  0  0  0  0  0  0  0  0  0
  161.7770  210.0700  151.6670 C   0  0  0  0  0  2  0  0  0  0  0  0
  162.2340  208.2190  148.3910 C   0  0  0  0  0  3  0  0  0  0  0  0
  160.8280  209.4710  152.7170 C   0  0  1  0  0  3  0  0  0  0  0  0
  161.1380  207.9820  152.9380 C   0  0  0  0  0  2  0  0  0  0  0  0
  161.7960  207.2810  149.2270 C   0  0  0  0  0  0  0  0  0  0  0  0
  161.1250  207.2740  151.6940 O   0  0  0  0  0  0  0  0  0  0  0  0
  161.9030  205.3870  147.5930 C   0  0  0  0  0  3  0  0  0  0  0  0
  161.7030  204.0800  147.2750 N   0  0  0  0  0  0  0  0  0  0  0  0
  161.1930  203.1970  148.1750 C   0  0  0  0  0  0  0  0  0  0  0  0
  160.8590  203.6250  149.4620 C   0  0  0  0  0  3  0  0  0  0  0  0
  161.5820  205.8620  148.8730 C   0  0  0  0  0  0  0  0  0  0  0  0
  161.0560  204.9620  149.8070 C   0  0  0  0  0  3  0  0  0  0  0  0
  160.9960  201.8250  147.8020 C   0  0  0  0  0  0  0  0  0  0  0  0
  160.8380  200.7180  147.5020 N   0  0  0  0  0  0  0  0  0  0  0  0
  163.0160  212.1890  148.2550 O   0  0  0  0  0  0  0  0  0  0  0  0
  161.8270  211.8070  148.0850 C   0  0  0  0  0  0  0  0  0  0  0  0
  160.8840  212.6860  147.4850 N   0  0  0  0  0  1  0  0  0  0  0  0
  161.4160  210.5020  148.4950 N   0  0  0  0  0  2  0  0  0  0  0  0
  160.9570  210.1650  153.9200 O   0  0  0  0  0  0  0  0  0  0  0  0
  159.6900  210.7010  154.1620 C   0  0  0  0  0  2  0  0  0  0  0  0
  159.6730  212.1710  153.7860 C   0  0  0  0  0  2  0  0  0  0  0  0
  158.7840  212.3790  152.7310 O   0  0  0  0  0  0  0  0  0  0  0  0
  159.9850  212.9480  150.8830 O   0  0  0  0  0  1  0  0  0  0  0  0
  159.3340  213.4390  152.0130 C   0  0  0  0  0  2  0  0  0  0  0  0
  1  3  2  0  0  0  0
  1  4  1  0  0  0  0
  2 21  1  6  0  0  0
  2  1  1  0  0  0  0
  3  9  1  0  0  0  0
  4  6  1  0  0  0  0
  5  2  1  0  0  0  0
  5  8  2  0  0  0  0
  6  7  1  0  0  0  0
  6 22  1  1  0  0  0
  8  3  1  0  0  0  0
  9  7  1  0  0  0  0
 10 14  1  0  0  0  0
 11 10  2  0  0  0  0
 11 12  1  0  0  0  0
 12 13  2  0  0  0  0
 13 15  1  0  0  0  0
 14  8  1  0  0  0  0
 14 15  2  0  0  0  0
 16 12  1  0  0  0  0
 17 16  3  0  0  0  0
 19 18  2  0  0  0  0
 19 21  1  0  0  0  0
 20 19  1  0  0  0  0
 22 23  1  0  0  0  0
 24 23  1  0  0  0  0
 25 24  1  0  0  0  0
 26 27  1  0  0  0  0
 27 25  1  0  0  0  0
M  END
>  <MODEL>
7

>  <REMARK>
 VINA RESULT:      -6.7      3.791      8.488
  Name = 
  8 active torsions:
  status: ('A' for Active; 'I' for Inactive)
    1  A    between atoms: C_5  and  O_23
    2  A    between atoms: C_6  and  C_8
    3  A    between atoms: C_7  and  N_26
    4  A    between atoms: O_14  and  C_15
    5  A    between atoms: O_14  and  C_19
    6  A    between atoms: C_19  and  C_27
    7  A    between atoms: C_21  and  C_22
    8  A    between atoms: O_23  and  C_27
                            x       y       z     vdW  Elec       q    Type
                         _______ _______ _______ _____ _____    ______ ____

>  <TORSDO>
F 8

$$$$
=
 OpenBabel11042421313D

 27 29  0  0  1  0  0  0  0  0999 V2000
  161.1100  205.6540  149.5900 C   0  0  0  0  0  0  0  0  0  0  0  0
  160.4550  204.9240  150.7130 C   0  0  1  0  0  3  0  0  0  0  0  0
  161.3450  204.8380  148.5840 C   0  0  0  0  0  0  0  0  0  0  0  0
  161.3770  207.1270  149.5020 C   0  0  0  0  0  2  0  0  0  0  0  0
  160.4090  203.5230  150.1620 C   0  0  0  0  0  3  0  0  0  0  0  0
  162.4430  207.4120  148.4310 C   0  0  1  0  0  3  0  0  0  0  0  0
  162.1160  206.6590  147.1310 C   0  0  0  0  0  2  0  0  0  0  0  0
  160.9270  203.4920  148.9360 C   0  0  0  0  0  0  0  0  0  0  0  0
  161.9330  205.2630  147.3900 O   0  0  0  0  0  0  0  0  0  0  0  0
  160.7210  202.3280  146.7290 C   0  0  0  0  0  3  0  0  0  0  0  0
  160.8300  201.2110  145.9610 N   0  0  0  0  0  0  0  0  0  0  0  0
  161.2490  200.0270  146.4800 C   0  0  0  0  0  0  0  0  0  0  0  0
  161.5810  199.9350  147.8340 C   0  0  0  0  0  3  0  0  0  0  0  0
  161.0420  202.2840  148.0930 C   0  0  0  0  0  0  0  0  0  0  0  0
  161.4750  201.0690  148.6390 C   0  0  0  0  0  3  0  0  0  0  0  0
  161.3510  198.8690  145.6370 C   0  0  0  0  0  0  0  0  0  0  0  0
  161.4330  197.9360  144.9570 N   0  0  0  0  0  0  0  0  0  0  0  0
  160.4570  206.9940  152.6850 O   0  0  0  0  0  0  0  0  0  0  0  0
  161.2520  206.0290  152.8450 C   0  0  0  0  0  0  0  0  0  0  0  0
  162.1040  206.0010  153.9830 N   0  0  0  0  0  1  0  0  0  0  0  0
  161.3090  204.9680  151.8920 N   0  0  0  0  0  2  0  0  0  0  0  0
  162.5050  208.7830  148.1800 O   0  0  0  0  0  0  0  0  0  0  0  0
  161.6030  209.3520  149.0820 C   0  0  0  0  0  2  0  0  0  0  0  0
  162.1440  210.6780  149.5820 C   0  0  0  0  0  2  0  0  0  0  0  0
  161.6870  210.9160  150.8790 O   0  0  0  0  0  0  0  0  0  0  0  0
  161.9100  210.0750  152.9830 O   0  0  0  0  0  1  0  0  0  0  0  0
  162.3140  209.9420  151.6550 C   0  0  0  0  0  2  0  0  0  0  0  0
  1  2  1  0  0  0  0
  2 21  1  1  0  0  0
  3  8  1  0  0  0  0
  3  1  2  0  0  0  0
  4  1  1  0  0  0  0
  5  2  1  0  0  0  0
  6 22  1  6  0  0  0
  6  4  1  0  0  0  0
  7  9  1  0  0  0  0
  7  6  1  0  0  0  0
  8  5  2  0  0  0  0
  9  3  1  0  0  0  0
 10 14  1  0  0  0  0
 11 12  1  0  0  0  0
 11 10  2  0  0  0  0
 12 13  2  0  0  0  0
 13 15  1  0  0  0  0
 14 15  2  0  0  0  0
 14  8  1  0  0  0  0
 16 12  1  0  0  0  0
 17 16  3  0  0  0  0
 18 19  2  0  0  0  0
 19 20  1  0  0  0  0
 21 19  1  0  0  0  0
 22 23  1  0  0  0  0
 23 24  1  0  0  0  0
 24 25  1  0  0  0  0
 25 27  1  0  0  0  0
 27 26  1  0  0  0  0
M  END
>  <MODEL>
8

>  <REMARK>
 VINA RESULT:      -6.6      2.711      7.906
  Name = 
  8 active torsions:
  status: ('A' for Active; 'I' for Inactive)
    1  A    between atoms: C_5  and  O_23
    2  A    between atoms: C_6  and  C_8
    3  A    between atoms: C_7  and  N_26
    4  A    between atoms: O_14  and  C_15
    5  A    between atoms: O_14  and  C_19
    6  A    between atoms: C_19  and  C_27
    7  A    between atoms: C_21  and  C_22
    8  A    between atoms: O_23  and  C_27
                            x       y       z     vdW  Elec       q    Type
                         _______ _______ _______ _____ _____    ______ ____

>  <TORSDO>
F 8

$$$$
=
 OpenBabel11042421313D

 27 29  0  0  1  0  0  0  0  0999 V2000
  161.6520  209.6210  152.0430 C   0  0  0  0  0  0  0  0  0  0  0  0
  162.2030  210.0440  150.7240 C   0  0  1  0  0  3  0  0  0  0  0  0
  161.3510  208.3390  152.0270 C   0  0  0  0  0  0  0  0  0  0  0  0
  161.5440  210.4510  153.2870 C   0  0  0  0  0  2  0  0  0  0  0  0
  162.1110  208.7580  149.9440 C   0  0  0  0  0  3  0  0  0  0  0  0
  160.5360  209.8210  154.2620 C   0  0  1  0  0  3  0  0  0  0  0  0
  160.8060  208.3160  154.4200 C   0  0  0  0  0  2  0  0  0  0  0  0
  161.6160  207.7890  150.7100 C   0  0  0  0  0  0  0  0  0  0  0  0
  160.8350  207.6720  153.1410 O   0  0  0  0  0  0  0  0  0  0  0  0
  161.1360  206.0980  148.9270 C   0  0  0  0  0  3  0  0  0  0  0  0
  160.9290  204.8130  148.5340 N   0  0  0  0  0  0  0  0  0  0  0  0
  160.9610  203.7820  149.4200 C   0  0  0  0  0  0  0  0  0  0  0  0
  161.2110  204.0300  150.7720 C   0  0  0  0  0  3  0  0  0  0  0  0
  161.3900  206.3950  150.2740 C   0  0  0  0  0  0  0  0  0  0  0  0
  161.4250  205.3420  151.1950 C   0  0  0  0  0  3  0  0  0  0  0  0
  160.7370  202.4380  148.9670 C   0  0  0  0  0  0  0  0  0  0  0  0
  160.5570  201.3550  148.6010 N   0  0  0  0  0  0  0  0  0  0  0  0
  162.9170  211.7860  148.5730 O   0  0  0  0  0  0  0  0  0  0  0  0
  161.7530  211.8840  149.0470 C   0  0  0  0  0  0  0  0  0  0  0  0
  160.8490  212.8360  148.5020 N   0  0  0  0  0  1  0  0  0  0  0  0
  161.3360  211.0510  150.1290 N   0  0  0  0  0  2  0  0  0  0  0  0
  160.6250  210.4500  155.5040 O   0  0  0  0  0  0  0  0  0  0  0  0
  159.7510  211.5360  155.4190 C   0  0  0  0  0  2  0  0  0  0  0  0
  158.3160  211.0490  155.4910 C   0  0  0  0  0  2  0  0  0  0  0  0
  157.4670  211.9890  154.9060 O   0  0  0  0  0  0  0  0  0  0  0  0
  155.7040  210.5680  155.1410 O   0  0  0  0  0  1  0  0  0  0  0  0
  156.2400  211.7930  155.5370 C   0  0  0  0  0  2  0  0  0  0  0  0
  1  4  1  0  0  0  0
  2 21  1  6  0  0  0
  2  1  1  0  0  0  0
  3  1  2  0  0  0  0
  3  9  1  0  0  0  0
  4  6  1  0  0  0  0
  5  8  2  0  0  0  0
  5  2  1  0  0  0  0
  6  7  1  0  0  0  0
  6 22  1  1  0  0  0
  8  3  1  0  0  0  0
  9  7  1  0  0  0  0
 10 14  1  0  0  0  0
 11 10  2  0  0  0  0
 11 12  1  0  0  0  0
 12 13  2  0  0  0  0
 13 15  1  0  0  0  0
 14  8  1  0  0  0  0
 14 15  2  0  0  0  0
 16 12  1  0  0  0  0
 17 16  3  0  0  0  0
 18 19  2  0  0  0  0
 19 21  1  0  0  0  0
 20 19  1  0  0  0  0
 23 24  1  0  0  0  0
 23 22  1  0  0  0  0
 25 24  1  0  0  0  0
 25 27  1  0  0  0  0
 26 27  1  0  0  0  0
M  END
>  <MODEL>
9

>  <REMARK>
 VINA RESULT:      -6.5      3.939      8.751
  Name = 
  8 active torsions:
  status: ('A' for Active; 'I' for Inactive)
    1  A    between atoms: C_5  and  O_23
    2  A    between atoms: C_6  and  C_8
    3  A    between atoms: C_7  and  N_26
    4  A    between atoms: O_14  and  C_15
    5  A    between atoms: O_14  and  C_19
    6  A    between atoms: C_19  and  C_27
    7  A    between atoms: C_21  and  C_22
    8  A    between atoms: O_23  and  C_27
                            x       y       z     vdW  Elec       q    Type
                         _______ _______ _______ _____ _____    ______ ____

>  <TORSDO>
F 8

$$$$
