=
 OpenBabel11042421373D

 45 48  0  0  1  0  0  0  0  0999 V2000
  160.7570  209.4830  157.2610 F   0  0  0  0  0  0  0  0  0  0  0  0
  158.5720  212.1690  151.5970 C   0  0  2  0  0  3  0  0  0  0  0  0
  160.6920  208.4570  148.1170 C   0  0  0  0  0  2  0  0  0  0  0  0
  161.9610  203.9260  152.6850 C   0  0  0  0  0  3  0  0  0  0  0  0
  160.2350  209.8640  154.9680 C   0  0  0  0  0  3  0  0  0  0  0  0
  160.9950  207.2280  154.3860 C   0  0  0  0  0  0  0  0  0  0  0  0
  159.6830  210.2300  152.5890 N   0  0  0  0  0  2  0  0  0  0  0  0
  157.9380  213.1930  148.9920 O   0  0  0  0  0  0  0  0  0  0  0  0
  161.8930  208.0260  148.9500 C   0  0  0  0  0  2  0  0  0  0  0  0
  161.6500  211.4260  148.2930 C   0  0  1  0  0  3  0  0  0  0  0  0
  160.1860  213.4920  148.3370 C   0  0  0  0  0  0  0  0  0  0  0  0
  160.8900  205.7840  151.3840 S   0  0  0  0  0  0  0  0  0  0  0  0
  161.4340  205.1970  152.8660 C   0  0  0  0  0  0  0  0  0  0  0  0
  159.2910  211.6120  152.8130 C   0  0  0  0  0  2  0  0  0  0  0  0
  163.5730  211.7410  147.0720 C   0  0  0  0  0  2  0  0  0  0  0  0
  160.8200  210.7880  147.1650 C   0  0  0  0  0  2  0  0  0  0  0  0
  161.4060  205.8780  154.1270 N   0  0  0  0  0  2  0  0  0  0  0  0
  159.9300  214.4530  147.5630 O   0  0  0  0  0  0  0  0  0  0  0  0
  163.5080  213.2710  147.1910 C   0  0  0  0  0  2  0  0  0  0  0  0
  163.0240  211.0940  148.2010 O   0  0  0  0  0  0  0  0  0  0  0  0
  162.7700  207.0620  148.2010 C   0  0  0  0  0  0  0  0  0  0  0  0
  161.0730  205.3810  148.4010 O   0  0  0  0  0  0  0  0  0  0  0  0
  161.9190  203.4870  151.3980 N   0  0  0  0  0  0  0  0  0  0  0  0
  162.3390  205.6610  147.8760 C   0  0  0  0  0  2  0  0  0  0  0  0
  161.1340  209.3140  146.9410 C   0  0  0  0  0  2  0  0  0  0  0  0
  163.9690  207.4710  147.7960 C   0  0  0  0  0  2  0  0  0  0  0  0
  160.5410  208.0800  153.3660 C   0  0  0  0  0  3  0  0  0  0  0  0
  161.2170  204.1700  149.0880 C   0  0  1  0  0  3  0  0  0  0  0  0
  161.3680  204.3960  150.5620 C   0  0  0  0  0  0  0  0  0  0  0  0
  159.1560  213.0280  149.2740 C   0  0  0  0  0  0  0  0  0  0  0  0
  161.0640  207.7110  155.6970 C   0  0  0  0  0  3  0  0  0  0  0  0
  160.6860  209.0250  155.9890 C   0  0  0  0  0  0  0  0  0  0  0  0
  159.5350  212.4660  150.5370 N   0  0  0  0  0  2  0  0  0  0  0  0
  162.6260  213.7040  148.2760 N   0  0  0  0  0  2  0  0  0  0  0  0
  160.1600  209.3940  153.6480 C   0  0  0  0  0  0  0  0  0  0  0  0
  161.4830  212.8840  148.2970 N   0  0  0  0  0  0  0  0  0  0  0  0
  156.4450  213.4040  152.0110 O   0  0  0  0  0  0  0  0  0  0  0  0
  158.4600  214.4380  152.3660 O   0  0  0  0  0  1  0  0  0  0  0  0
  157.8340  213.4060  152.0050 C   0  0  0  0  0  0  0  0  0  0  0  0
  160.0570  203.2270  148.7690 C   0  0  0  0  0  2  0  0  0  0  0  0
  160.5240  201.8630  148.2730 C   0  0  2  0  0  3  0  0  0  0  0  0
  161.6620  201.4680  148.9550 F   0  0  0  0  0  0  0  0  0  0  0  0
  160.5690  200.7070  145.9670 C   0  0  0  0  0  1  0  0  0  0  0  0
  160.8090  201.9140  146.8070 C   0  0  0  0  0  0  0  0  0  0  0  0
  161.2490  202.9320  146.2940 O   0  0  0  0  0  0  0  0  0  0  0  0
  2 39  1  1  0  0  0
  2 14  1  0  0  0  0
  3  9  1  0  0  0  0
  4 13  2  0  0  0  0
  5 32  1  0  0  0  0
  6 31  1  0  0  0  0
  7 14  1  0  0  0  0
  7 35  1  0  0  0  0
  8 30  2  0  0  0  0
 10 16  1  6  0  0  0
 10 36  1  0  0  0  0
 11 30  1  0  0  0  0
 12 13  1  0  0  0  0
 13 17  1  0  0  0  0
 15 19  1  0  0  0  0
 15 20  1  0  0  0  0
 17  6  1  0  0  0  0
 18 11  2  0  0  0  0
 19 34  1  0  0  0  0
 20 10  1  0  0  0  0
 21  9  1  0  0  0  0
 22 28  1  0  0  0  0
 23  4  1  0  0  0  0
 24 21  1  0  0  0  0
 24 22  1  0  0  0  0
 25 16  1  0  0  0  0
 25  3  1  0  0  0  0
 26 21  2  0  0  0  0
 27 35  1  0  0  0  0
 27  6  2  0  0  0  0
 28 40  1  1  0  0  0
 28 29  1  0  0  0  0
 29 12  1  0  0  0  0
 29 23  2  0  0  0  0
 30 33  1  0  0  0  0
 31 32  2  0  0  0  0
 32  1  1  0  0  0  0
 33  2  1  0  0  0  0
 34 36  1  0  0  0  0
 35  5  2  0  0  0  0
 36 11  1  0  0  0  0
 39 37  2  0  0  0  0
 39 38  1  0  0  0  0
 41 40  1  0  0  0  0
 41 42  1  1  0  0  0
 43 44  1  0  0  0  0
 44 41  1  0  0  0  0
 45 44  2  0  0  0  0
M  END
>  <MODEL>
1

>  <REMARK>
 VINA RESULT:       4.9      0.000      0.000
  Name = 
  4 active torsions:
  status: ('A' for Active; 'I' for Inactive)
    1  A    between atoms: C_2  and  C_26
    2  A    between atoms: C_2  and  C_35
    3  A    between atoms: CA_3  and  C_22
    4  A    between atoms: C_25  and  C_26
                            x       y       z     vdW  Elec       q    Type
                         _______ _______ _______ _____ _____    ______ ____

>  <TORSDO>
F 4

$$$$
