=
 OpenBabel11052411373D

 43 45  0  0  1  0  0  0  0  0999 V2000
  158.9230  212.8410  153.6270 C   0  0  2  0  0  3  0  0  0  0  0  0
  157.8180  213.2470  154.5440 C   0  0  0  0  0  0  0  0  0  0  0  0
  157.8070  214.3910  155.0680 O   0  0  0  0  0  0  0  0  0  0  0  0
  156.7650  212.3320  154.8230 N   0  0  0  0  0  1  0  0  0  0  0  0
  159.0780  213.8300  152.5680 N   0  0  0  0  0  2  0  0  0  0  0  0
  158.8070  213.6600  150.1500 C   0  0  0  0  0  3  0  0  0  0  0  0
  156.0690  214.1700  150.3700 C   0  0  0  0  0  3  0  0  0  0  0  0
  158.0180  213.7040  148.9960 C   0  0  0  0  0  0  0  0  0  0  0  0
  158.2390  213.8680  151.4110 C   0  0  0  0  0  0  0  0  0  0  0  0
  156.8640  214.1230  151.5170 C   0  0  0  0  0  3  0  0  0  0  0  0
  156.6440  213.9610  149.1140 C   0  0  0  0  0  3  0  0  0  0  0  0
  158.8700  212.5830  145.4160 N   0  0  0  0  0  2  0  0  0  0  0  0
  160.1510  213.1730  145.1510 C   0  0  0  0  0  0  0  0  0  0  0  0
  160.7660  213.8140  146.0440 O   0  0  0  0  0  0  0  0  0  0  0  0
  158.1390  212.6910  146.6400 C   0  0  0  0  0  0  0  0  0  0  0  0
  157.0400  212.0840  146.7470 O   0  0  0  0  0  0  0  0  0  0  0  0
  158.6450  213.4850  147.7250 N   0  0  0  0  0  2  0  0  0  0  0  0
  162.2830  212.9750  143.9220 C   0  0  0  0  0  1  0  0  0  0  0  0
  160.7730  213.0360  143.7980 C   0  0  1  0  0  3  0  0  0  0  0  0
  160.2660  211.7920  143.0810 C   0  0  0  0  0  2  0  0  0  0  0  0
  161.2400  210.8050  141.1430 O   0  0  0  0  0  1  0  0  0  0  0  0
  160.3780  212.9080  140.8520 O   0  0  0  0  0  0  0  0  0  0  0  0
  160.6670  211.8050  141.6450 C   0  0  0  0  0  0  0  0  0  0  0  0
  158.6360  211.4670  153.0300 C   0  0  0  0  0  2  0  0  0  0  0  0
  161.3410  210.8510  151.2720 C   0  0  0  0  0  2  0  0  0  0  0  0
  160.3920  208.3920  157.0010 C   0  0  0  0  0  3  0  0  0  0  0  0
  162.5700  209.9540  151.3150 C   0  0  0  0  0  2  0  0  0  0  0  0
  160.2910  207.1780  154.8100 C   0  0  0  0  0  3  0  0  0  0  0  0
  161.4930  207.7100  151.5210 C   0  0  0  0  0  0  0  0  0  0  0  0
  162.2560  208.6540  150.8150 O   0  0  0  0  0  0  0  0  0  0  0  0
  160.2160  207.2230  156.1360 C   0  0  0  0  0  3  0  0  0  0  0  0
  161.0190  207.9710  152.7120 C   0  0  0  0  0  0  0  0  0  0  0  0
  160.3620  209.6770  156.6620 C   0  0  0  0  0  3  0  0  0  0  0  0
  160.1410  209.6970  154.1330 C   0  0  0  0  0  0  0  0  0  0  0  0
  159.8820  210.5770  152.9290 C   0  0  2  0  0  3  0  0  0  0  0  0
  160.1230  210.2680  155.3410 C   0  0  0  0  0  3  0  0  0  0  0  0
  160.5470  208.2900  153.8890 C   0  0  0  0  0  0  0  0  0  0  0  0
  161.0280  211.2930  152.5620 O   0  0  0  0  0  0  0  0  0  0  0  0
  161.8160  205.3750  151.6480 O   0  0  0  0  0  1  0  0  0  0  0  0
  161.2020  206.3840  150.9050 C   0  0  2  0  0  3  0  0  0  0  0  0
  161.7080  206.3540  149.4750 C   0  0  0  0  0  2  0  0  0  0  0  0
  160.9920  205.4130  148.7380 O   0  0  0  0  0  0  0  0  0  0  0  0
  160.6700  206.0690  147.5500 C   0  0  0  0  0  1  0  0  0  0  0  0
  1 24  1  6  0  0  0
  1  2  1  0  0  0  0
  2  4  1  0  0  0  0
  2  3  2  0  0  0  0
  5  1  1  0  0  0  0
  6  9  1  0  0  0  0
  7 10  1  0  0  0  0
  8 11  1  0  0  0  0
  8  6  2  0  0  0  0
  9 10  2  0  0  0  0
  9  5  1  0  0  0  0
 11  7  2  0  0  0  0
 12 15  1  0  0  0  0
 13 12  1  0  0  0  0
 13 14  2  0  0  0  0
 15 16  2  0  0  0  0
 15 17  1  0  0  0  0
 17  8  1  0  0  0  0
 19 18  1  1  0  0  0
 19 13  1  0  0  0  0
 20 19  1  0  0  0  0
 21 23  1  0  0  0  0
 22 23  2  0  0  0  0
 23 20  1  0  0  0  0
 25 27  1  0  0  0  0
 25 38  1  0  0  0  0
 28 31  2  0  0  0  0
 29 32  2  0  0  0  0
 30 27  1  0  0  0  0
 30 29  1  0  0  0  0
 31 26  1  0  0  0  0
 32 37  2  0  0  0  0
 33 26  2  0  0  0  0
 34 36  2  0  0  0  0
 35 24  1  1  0  0  0
 35 34  1  0  0  0  0
 36 33  1  0  0  0  0
 37 34  1  0  0  0  0
 37 28  1  0  0  0  0
 38 35  1  0  0  0  0
 40 29  1  0  0  0  0
 40 39  1  1  0  0  0
 41 40  1  0  0  0  0
 42 41  1  0  0  0  0
 43 42  1  0  0  0  0
M  END
>  <MODEL>
1

>  <REMARK>
 VINA RESULT:      -6.9      0.000      0.000
  Name = 
  12 active torsions:
  status: ('A' for Active; 'I' for Inactive)
    1  A    between atoms: C_5  and  C_17
    2  A    between atoms: C_8  and  C_23
    3  A    between atoms: C_10  and  C_15
    4  A    between atoms: C_15  and  C_33
    5  A    between atoms: C_17  and  N_19
    6  A    between atoms: C_17  and  C_43
    7  A    between atoms: N_19  and  C_30
    8  A    between atoms: C_23  and  C_41
    9  A    between atoms: O_24  and  C_41
   10  A    between atoms: C_25  and  N_42
   11  A    between atoms: C_31  and  C_43
   12  A    between atoms: C_33  and  C_37
                            x       y       z     vdW  Elec       q    Type
                         _______ _______ _______ _____ _____    ______ ____

>  <TORSDO>
F 12

$$$$
=
 OpenBabel11052411373D

 43 45  0  0  1  0  0  0  0  0999 V2000
  160.6900  209.8060  152.8290 C   0  0  2  0  0  3  0  0  0  0  0  0
  161.4150  209.5450  154.1050 C   0  0  0  0  0  0  0  0  0  0  0  0
  161.3180  208.4300  154.6820 O   0  0  0  0  0  0  0  0  0  0  0  0
  162.2280  210.5640  154.6730 N   0  0  0  0  0  1  0  0  0  0  0  0
  159.6200  210.7700  153.0540 N   0  0  0  0  0  2  0  0  0  0  0  0
  159.9270  212.0860  151.0240 C   0  0  0  0  0  3  0  0  0  0  0  0
  159.0520  214.3960  152.3280 C   0  0  0  0  0  3  0  0  0  0  0  0
  159.8780  213.2960  150.3250 C   0  0  0  0  0  0  0  0  0  0  0  0
  159.5430  212.0210  152.3670 C   0  0  0  0  0  0  0  0  0  0  0  0
  159.1030  213.1830  153.0170 C   0  0  0  0  0  3  0  0  0  0  0  0
  159.4380  214.4530  150.9860 C   0  0  0  0  0  3  0  0  0  0  0  0
  159.9750  213.2800  146.4790 N   0  0  0  0  0  2  0  0  0  0  0  0
  161.3700  213.3700  146.1550 C   0  0  0  0  0  0  0  0  0  0  0  0
  162.2470  213.3540  147.0600 O   0  0  0  0  0  0  0  0  0  0  0  0
  159.4260  213.2250  147.7990 C   0  0  0  0  0  0  0  0  0  0  0  0
  158.1790  213.1060  147.9330 O   0  0  0  0  0  0  0  0  0  0  0  0
  160.2820  213.3140  148.9490 N   0  0  0  0  0  2  0  0  0  0  0  0
  163.2740  213.1520  144.6000 C   0  0  0  0  0  1  0  0  0  0  0  0
  161.8020  213.4880  144.7280 C   0  0  1  0  0  3  0  0  0  0  0  0
  160.9860  212.5720  143.8280 C   0  0  0  0  0  2  0  0  0  0  0  0
  161.0900  213.8070  141.7920 O   0  0  0  0  0  1  0  0  0  0  0  0
  162.0870  211.7450  141.7480 O   0  0  0  0  0  0  0  0  0  0  0  0
  161.3760  212.7440  142.3990 C   0  0  0  0  0  0  0  0  0  0  0  0
  160.1230  208.5070  152.2670 C   0  0  0  0  0  2  0  0  0  0  0  0
  162.3500  209.1080  149.9300 C   0  0  0  0  0  2  0  0  0  0  0  0
  161.1810  203.2960  152.0780 C   0  0  0  0  0  3  0  0  0  0  0  0
  163.2450  208.3480  148.9600 C   0  0  0  0  0  2  0  0  0  0  0  0
  160.5280  204.2310  149.8450 C   0  0  0  0  0  3  0  0  0  0  0  0
  161.5530  206.9290  147.7930 C   0  0  0  0  0  0  0  0  0  0  0  0
  162.5060  207.9600  147.8010 O   0  0  0  0  0  0  0  0  0  0  0  0
  160.5830  203.2520  150.7420 C   0  0  0  0  0  3  0  0  0  0  0  0
  161.2840  206.2420  148.8720 C   0  0  0  0  0  0  0  0  0  0  0  0
  161.5170  204.3640  152.7930 C   0  0  0  0  0  3  0  0  0  0  0  0
  161.1000  206.3490  151.2650 C   0  0  0  0  0  0  0  0  0  0  0  0
  161.0230  207.8600  151.2060 C   0  0  2  0  0  3  0  0  0  0  0  0
  161.3600  205.7820  152.4460 C   0  0  0  0  0  3  0  0  0  0  0  0
  161.0340  205.6000  149.9840 C   0  0  0  0  0  0  0  0  0  0  0  0
  162.2980  208.4360  151.1560 O   0  0  0  0  0  0  0  0  0  0  0  0
  159.5860  206.0340  146.8440 O   0  0  0  0  0  1  0  0  0  0  0  0
  160.8190  206.6110  146.5360 C   0  0  2  0  0  3  0  0  0  0  0  0
  161.6360  205.6570  145.6840 C   0  0  0  0  0  2  0  0  0  0  0  0
  161.8200  204.4540  146.3630 O   0  0  0  0  0  0  0  0  0  0  0  0
  161.4240  203.4740  145.4540 C   0  0  0  0  0  1  0  0  0  0  0  0
  1 24  1  1  0  0  0
  1  5  1  0  0  0  0
  1  2  1  0  0  0  0
  2  4  1  0  0  0  0
  2  3  2  0  0  0  0
  6  9  1  0  0  0  0
  7 10  1  0  0  0  0
  8 11  1  0  0  0  0
  8  6  2  0  0  0  0
  9 10  2  0  0  0  0
  9  5  1  0  0  0  0
 11  7  2  0  0  0  0
 12 15  1  0  0  0  0
 13 12  1  0  0  0  0
 13 14  2  0  0  0  0
 15 16  2  0  0  0  0
 15 17  1  0  0  0  0
 17  8  1  0  0  0  0
 19 18  1  1  0  0  0
 19 13  1  0  0  0  0
 20 19  1  0  0  0  0
 21 23  1  0  0  0  0
 22 23  2  0  0  0  0
 23 20  1  0  0  0  0
 25 38  1  0  0  0  0
 26 33  2  0  0  0  0
 27 25  1  0  0  0  0
 28 37  1  0  0  0  0
 28 31  2  0  0  0  0
 29 30  1  0  0  0  0
 29 32  2  0  0  0  0
 30 27  1  0  0  0  0
 31 26  1  0  0  0  0
 32 37  2  0  0  0  0
 34 36  2  0  0  0  0
 35 34  1  0  0  0  0
 35 24  1  1  0  0  0
 36 33  1  0  0  0  0
 37 34  1  0  0  0  0
 38 35  1  0  0  0  0
 40 39  1  1  0  0  0
 40 29  1  0  0  0  0
 41 42  1  0  0  0  0
 41 40  1  0  0  0  0
 43 42  1  0  0  0  0
M  END
>  <MODEL>
2

>  <REMARK>
 VINA RESULT:      -6.4      2.280      3.860
  Name = 
  12 active torsions:
  status: ('A' for Active; 'I' for Inactive)
    1  A    between atoms: C_5  and  C_17
    2  A    between atoms: C_8  and  C_23
    3  A    between atoms: C_10  and  C_15
    4  A    between atoms: C_15  and  C_33
    5  A    between atoms: C_17  and  N_19
    6  A    between atoms: C_17  and  C_43
    7  A    between atoms: N_19  and  C_30
    8  A    between atoms: C_23  and  C_41
    9  A    between atoms: O_24  and  C_41
   10  A    between atoms: C_25  and  N_42
   11  A    between atoms: C_31  and  C_43
   12  A    between atoms: C_33  and  C_37
                            x       y       z     vdW  Elec       q    Type
                         _______ _______ _______ _____ _____    ______ ____

>  <TORSDO>
F 12

$$$$
=
 OpenBabel11052411373D

 43 45  0  0  1  0  0  0  0  0999 V2000
  161.9040  209.5630  151.8890 C   0  0  2  0  0  3  0  0  0  0  0  0
  162.0610  209.5770  150.4060 C   0  0  0  0  0  0  0  0  0  0  0  0
  162.3310  208.5190  149.7790 O   0  0  0  0  0  0  0  0  0  0  0  0
  161.8980  210.7970  149.6940 N   0  0  0  0  0  1  0  0  0  0  0  0
  162.5620  208.3880  152.4470 N   0  0  0  0  0  2  0  0  0  0  0  0
  161.9340  206.4400  151.1220 C   0  0  0  0  0  3  0  0  0  0  0  0
  160.9690  205.1390  153.3980 C   0  0  0  0  0  3  0  0  0  0  0  0
  161.3840  205.1600  151.0040 C   0  0  0  0  0  0  0  0  0  0  0  0
  162.0060  207.0740  152.3660 C   0  0  0  0  0  0  0  0  0  0  0  0
  161.5210  206.4170  153.5060 C   0  0  0  0  0  3  0  0  0  0  0  0
  160.9000  204.5130  152.1510 C   0  0  0  0  0  3  0  0  0  0  0  0
  160.9250  202.7340  148.0530 N   0  0  0  0  0  2  0  0  0  0  0  0
  161.3030  203.4980  146.8990 C   0  0  0  0  0  0  0  0  0  0  0  0
  161.7530  204.6690  147.0170 O   0  0  0  0  0  0  0  0  0  0  0  0
  160.9530  203.1970  149.4060 C   0  0  0  0  0  0  0  0  0  0  0  0
  160.6310  202.4000  150.3270 O   0  0  0  0  0  0  0  0  0  0  0  0
  161.3310  204.5490  149.7070 N   0  0  0  0  0  2  0  0  0  0  0  0
  160.6970  201.4690  145.6290 C   0  0  0  0  0  1  0  0  0  0  0  0
  161.1610  202.9090  145.5320 C   0  0  1  0  0  3  0  0  0  0  0  0
  160.1800  203.7090  144.6860 C   0  0  0  0  0  2  0  0  0  0  0  0
  161.6300  205.3610  143.7650 O   0  0  0  0  0  0  0  0  0  0  0  0
  159.9820  206.1530  145.1460 O   0  0  0  0  0  1  0  0  0  0  0  0
  160.6490  205.1140  144.5110 C   0  0  0  0  0  0  0  0  0  0  0  0
  160.4260  209.5700  152.2650 C   0  0  0  0  0  2  0  0  0  0  0  0
  160.8130  210.2540  155.4530 C   0  0  0  0  0  2  0  0  0  0  0  0
  158.5050  214.4470  151.3470 C   0  0  0  0  0  3  0  0  0  0  0  0
  160.4690  211.3500  156.4530 C   0  0  0  0  0  2  0  0  0  0  0  0
  157.2260  213.2220  153.1220 C   0  0  0  0  0  3  0  0  0  0  0  0
  157.9980  211.5100  156.1250 C   0  0  0  0  0  0  0  0  0  0  0  0
  159.1230  211.2050  156.9080 O   0  0  0  0  0  0  0  0  0  0  0  0
  157.3130  214.0920  152.1210 C   0  0  0  0  0  3  0  0  0  0  0  0
  158.1200  211.9630  154.9040 C   0  0  0  0  0  0  0  0  0  0  0  0
  159.6560  213.7870  151.2620 C   0  0  0  0  0  3  0  0  0  0  0  0
  159.4460  211.8610  152.9030 C   0  0  0  0  0  0  0  0  0  0  0  0
  160.0870  210.5730  153.3760 C   0  0  2  0  0  3  0  0  0  0  0  0
  160.0320  212.5200  151.8990 C   0  0  0  0  0  3  0  0  0  0  0  0
  158.2960  212.3890  153.6800 C   0  0  0  0  0  0  0  0  0  0  0  0
  161.1700  210.8230  154.2270 O   0  0  0  0  0  0  0  0  0  0  0  0
  155.8130  210.7120  155.7190 O   0  0  0  0  0  1  0  0  0  0  0  0
  156.6310  211.3060  156.6830 C   0  0  2  0  0  3  0  0  0  0  0  0
  156.0410  212.6360  157.1110 C   0  0  0  0  0  2  0  0  0  0  0  0
  155.1170  213.0730  156.1640 O   0  0  0  0  0  0  0  0  0  0  0  0
  155.3280  214.4480  156.0750 C   0  0  0  0  0  1  0  0  0  0  0  0
  1 24  1  6  0  0  0
  1  5  1  0  0  0  0
  2  1  1  0  0  0  0
  3  2  2  0  0  0  0
  4  2  1  0  0  0  0
  6  9  1  0  0  0  0
  7 10  1  0  0  0  0
  8  6  2  0  0  0  0
  8 11  1  0  0  0  0
  9  5  1  0  0  0  0
  9 10  2  0  0  0  0
 11  7  2  0  0  0  0
 12 15  1  0  0  0  0
 13 14  2  0  0  0  0
 13 12  1  0  0  0  0
 15 17  1  0  0  0  0
 15 16  2  0  0  0  0
 17  8  1  0  0  0  0
 19 18  1  1  0  0  0
 19 13  1  0  0  0  0
 20 19  1  0  0  0  0
 21 23  2  0  0  0  0
 23 20  1  0  0  0  0
 23 22  1  0  0  0  0
 25 27  1  0  0  0  0
 26 31  1  0  0  0  0
 27 30  1  0  0  0  0
 28 37  1  0  0  0  0
 29 40  1  0  0  0  0
 29 30  1  0  0  0  0
 31 28  2  0  0  0  0
 32 29  2  0  0  0  0
 33 26  2  0  0  0  0
 33 36  1  0  0  0  0
 34 35  1  0  0  0  0
 34 37  1  0  0  0  0
 35 24  1  6  0  0  0
 35 38  1  0  0  0  0
 36 34  2  0  0  0  0
 37 32  2  0  0  0  0
 38 25  1  0  0  0  0
 40 39  1  6  0  0  0
 40 41  1  0  0  0  0
 42 41  1  0  0  0  0
 43 42  1  0  0  0  0
M  END
>  <MODEL>
3

>  <REMARK>
 VINA RESULT:      -6.2      4.031      8.267
  Name = 
  12 active torsions:
  status: ('A' for Active; 'I' for Inactive)
    1  A    between atoms: C_5  and  C_17
    2  A    between atoms: C_8  and  C_23
    3  A    between atoms: C_10  and  C_15
    4  A    between atoms: C_15  and  C_33
    5  A    between atoms: C_17  and  N_19
    6  A    between atoms: C_17  and  C_43
    7  A    between atoms: N_19  and  C_30
    8  A    between atoms: C_23  and  C_41
    9  A    between atoms: O_24  and  C_41
   10  A    between atoms: C_25  and  N_42
   11  A    between atoms: C_31  and  C_43
   12  A    between atoms: C_33  and  C_37
                            x       y       z     vdW  Elec       q    Type
                         _______ _______ _______ _____ _____    ______ ____

>  <TORSDO>
F 12

$$$$
=
 OpenBabel11052411373D

 43 45  0  0  1  0  0  0  0  0999 V2000
  159.0720  212.8610  151.9640 C   0  0  2  0  0  3  0  0  0  0  0  0
  158.2790  213.8260  152.7780 C   0  0  0  0  0  0  0  0  0  0  0  0
  157.1080  214.1410  152.4390 O   0  0  0  0  0  0  0  0  0  0  0  0
  158.8500  214.3900  153.9520 N   0  0  0  0  0  1  0  0  0  0  0  0
  158.8000  213.0650  150.5470 N   0  0  0  0  0  2  0  0  0  0  0  0
  159.6490  213.0870  148.2610 C   0  0  0  0  0  3  0  0  0  0  0  0
  161.9480  214.4510  149.0740 C   0  0  0  0  0  3  0  0  0  0  0  0
  160.6250  213.4180  147.3160 C   0  0  0  0  0  0  0  0  0  0  0  0
  159.8120  213.4320  149.6060 C   0  0  0  0  0  0  0  0  0  0  0  0
  160.9670  214.1170  150.0100 C   0  0  0  0  0  3  0  0  0  0  0  0
  161.7770  214.1030  147.7310 C   0  0  0  0  0  3  0  0  0  0  0  0
  159.1160  212.2950  143.9600 N   0  0  0  0  0  2  0  0  0  0  0  0
  160.2230  212.3070  143.0480 C   0  0  0  0  0  0  0  0  0  0  0  0
  161.3890  212.5650  143.4480 O   0  0  0  0  0  0  0  0  0  0  0  0
  159.1790  212.6150  145.3530 C   0  0  0  0  0  0  0  0  0  0  0  0
  158.1310  212.5220  146.0450 O   0  0  0  0  0  0  0  0  0  0  0  0
  160.4140  213.0440  145.9480 N   0  0  0  0  0  2  0  0  0  0  0  0
  158.8990  212.8990  141.0500 C   0  0  0  0  0  1  0  0  0  0  0  0
  160.0020  212.0150  141.5980 C   0  0  1  0  0  3  0  0  0  0  0  0
  161.2760  212.2240  140.7920 C   0  0  0  0  0  2  0  0  0  0  0  0
  162.6550  210.6480  139.6540 O   0  0  0  0  0  1  0  0  0  0  0  0
  160.4160  210.5200  139.1860 O   0  0  0  0  0  0  0  0  0  0  0  0
  161.4960  211.0970  139.8410 C   0  0  0  0  0  0  0  0  0  0  0  0
  158.7360  211.4280  152.3670 C   0  0  0  0  0  2  0  0  0  0  0  0
  161.4490  210.3600  150.8560 C   0  0  0  0  0  2  0  0  0  0  0  0
  160.4260  209.4620  157.0130 C   0  0  0  0  0  3  0  0  0  0  0  0
  162.6690  209.4940  151.1410 C   0  0  0  0  0  2  0  0  0  0  0  0
  160.3310  207.7260  155.2060 C   0  0  0  0  0  3  0  0  0  0  0  0
  161.5660  207.3860  151.9050 C   0  0  0  0  0  0  0  0  0  0  0  0
  162.3450  208.1110  150.9880 O   0  0  0  0  0  0  0  0  0  0  0  0
  160.2450  208.1120  156.4750 C   0  0  0  0  0  3  0  0  0  0  0  0
  161.0850  207.9480  152.9830 C   0  0  0  0  0  0  0  0  0  0  0  0
  160.4120  210.6170  156.3560 C   0  0  0  0  0  3  0  0  0  0  0  0
  160.2130  209.9890  153.9040 C   0  0  0  0  0  0  0  0  0  0  0  0
  159.9740  210.5320  152.5110 C   0  0  2  0  0  3  0  0  0  0  0  0
  160.1910  210.8510  154.9240 C   0  0  0  0  0  3  0  0  0  0  0  0
  160.6060  208.5630  154.0340 C   0  0  0  0  0  0  0  0  0  0  0  0
  161.1310  211.1200  151.9860 O   0  0  0  0  0  0  0  0  0  0  0  0
  162.4170  205.1850  151.8460 O   0  0  0  0  0  1  0  0  0  0  0  0
  161.2660  205.9500  151.6470 C   0  0  2  0  0  3  0  0  0  0  0  0
  160.7690  205.7720  150.2240 C   0  0  0  0  0  2  0  0  0  0  0  0
  161.2740  204.5870  149.6890 O   0  0  0  0  0  0  0  0  0  0  0  0
  161.1600  204.7490  148.3100 C   0  0  0  0  0  1  0  0  0  0  0  0
  1 24  1  1  0  0  0
  1  2  1  0  0  0  0
  2  4  1  0  0  0  0
  3  2  2  0  0  0  0
  5  1  1  0  0  0  0
  6  9  1  0  0  0  0
  7 10  1  0  0  0  0
  8 11  1  0  0  0  0
  8  6  2  0  0  0  0
  9 10  2  0  0  0  0
  9  5  1  0  0  0  0
 11  7  2  0  0  0  0
 12 15  1  0  0  0  0
 13 14  2  0  0  0  0
 13 12  1  0  0  0  0
 15 17  1  0  0  0  0
 15 16  2  0  0  0  0
 17  8  1  0  0  0  0
 19 18  1  6  0  0  0
 19 13  1  0  0  0  0
 20 19  1  0  0  0  0
 21 23  1  0  0  0  0
 22 23  2  0  0  0  0
 23 20  1  0  0  0  0
 25 27  1  0  0  0  0
 25 38  1  0  0  0  0
 28 31  2  0  0  0  0
 29 32  2  0  0  0  0
 30 27  1  0  0  0  0
 30 29  1  0  0  0  0
 31 26  1  0  0  0  0
 32 37  2  0  0  0  0
 33 26  2  0  0  0  0
 34 37  1  0  0  0  0
 34 36  2  0  0  0  0
 35 24  1  1  0  0  0
 35 34  1  0  0  0  0
 36 33  1  0  0  0  0
 37 28  1  0  0  0  0
 38 35  1  0  0  0  0
 40 39  1  6  0  0  0
 40 29  1  0  0  0  0
 41 40  1  0  0  0  0
 42 41  1  0  0  0  0
 43 42  1  0  0  0  0
M  END
>  <MODEL>
4

>  <REMARK>
 VINA RESULT:      -5.9      1.613      2.276
  Name = 
  12 active torsions:
  status: ('A' for Active; 'I' for Inactive)
    1  A    between atoms: C_5  and  C_17
    2  A    between atoms: C_8  and  C_23
    3  A    between atoms: C_10  and  C_15
    4  A    between atoms: C_15  and  C_33
    5  A    between atoms: C_17  and  N_19
    6  A    between atoms: C_17  and  C_43
    7  A    between atoms: N_19  and  C_30
    8  A    between atoms: C_23  and  C_41
    9  A    between atoms: O_24  and  C_41
   10  A    between atoms: C_25  and  N_42
   11  A    between atoms: C_31  and  C_43
   12  A    between atoms: C_33  and  C_37
                            x       y       z     vdW  Elec       q    Type
                         _______ _______ _______ _____ _____    ______ ____

>  <TORSDO>
F 12

$$$$
=
 OpenBabel11052411373D

 43 45  0  0  1  0  0  0  0  0999 V2000
  161.3690  208.6300  153.0310 C   0  0  2  0  0  3  0  0  0  0  0  0
  160.6720  208.3970  154.3290 C   0  0  0  0  0  0  0  0  0  0  0  0
  160.0080  209.3160  154.8750 O   0  0  0  0  0  0  0  0  0  0  0  0
  160.7550  207.1200  154.9510 N   0  0  0  0  0  1  0  0  0  0  0  0
  161.7620  210.0290  152.9230 N   0  0  0  0  0  2  0  0  0  0  0  0
  161.2590  211.3270  150.9200 C   0  0  0  0  0  3  0  0  0  0  0  0
  159.1630  212.6310  152.2300 C   0  0  0  0  0  3  0  0  0  0  0  0
  160.5110  212.2910  150.2370 C   0  0  0  0  0  0  0  0  0  0  0  0
  160.9680  211.0100  152.2510 C   0  0  0  0  0  0  0  0  0  0  0  0
  159.9140  211.6660  152.9040 C   0  0  0  0  0  3  0  0  0  0  0  0
  159.4610  212.9430  150.9010 C   0  0  0  0  0  3  0  0  0  0  0  0
  162.2940  212.6900  146.8510 N   0  0  0  0  0  2  0  0  0  0  0  0
  161.3070  213.2810  145.9940 C   0  0  0  0  0  0  0  0  0  0  0  0
  160.1790  213.6180  146.4410 O   0  0  0  0  0  0  0  0  0  0  0  0
  162.1150  212.3700  148.2330 C   0  0  0  0  0  0  0  0  0  0  0  0
  163.0860  211.8900  148.8760 O   0  0  0  0  0  0  0  0  0  0  0  0
  160.8460  212.5830  148.8740 N   0  0  0  0  0  2  0  0  0  0  0  0
  163.0910  213.3250  144.2890 C   0  0  0  0  0  1  0  0  0  0  0  0
  161.6080  213.5020  144.5460 C   0  0  1  0  0  3  0  0  0  0  0  0
  160.8160  212.5450  143.6660 C   0  0  0  0  0  2  0  0  0  0  0  0
  161.7550  211.6950  141.6470 O   0  0  0  0  0  1  0  0  0  0  0  0
  160.9980  213.8550  141.5500 O   0  0  0  0  0  0  0  0  0  0  0  0
  161.2280  212.6700  142.2380 C   0  0  0  0  0  0  0  0  0  0  0  0
  160.4620  208.2430  151.8670 C   0  0  0  0  0  2  0  0  0  0  0  0
  162.4000  208.5260  149.2320 C   0  0  0  0  0  2  0  0  0  0  0  0
  161.2430  202.9820  152.0040 C   0  0  0  0  0  3  0  0  0  0  0  0
  163.1280  207.6410  148.2290 C   0  0  0  0  0  2  0  0  0  0  0  0
  160.3570  203.7710  149.7950 C   0  0  0  0  0  3  0  0  0  0  0  0
  161.2380  206.2310  147.4060 C   0  0  0  0  0  0  0  0  0  0  0  0
  162.2310  207.2040  147.2070 O   0  0  0  0  0  0  0  0  0  0  0  0
  160.4790  202.8650  150.7600 C   0  0  0  0  0  3  0  0  0  0  0  0
  161.0760  205.6500  148.5650 C   0  0  0  0  0  0  0  0  0  0  0  0
  161.7170  204.0840  152.5760 C   0  0  0  0  0  3  0  0  0  0  0  0
  161.2020  205.9600  150.9440 C   0  0  0  0  0  0  0  0  0  0  0  0
  161.1890  207.4630  150.7640 C   0  0  2  0  0  3  0  0  0  0  0  0
  161.5830  205.4760  152.1300 C   0  0  0  0  0  3  0  0  0  0  0  0
  160.9390  205.1160  149.7510 C   0  0  0  0  0  0  0  0  0  0  0  0
  162.4730  207.9590  150.5080 O   0  0  0  0  0  0  0  0  0  0  0  0
  160.3220  204.4680  146.1310 O   0  0  0  0  0  1  0  0  0  0  0  0
  160.3360  205.8560  146.2800 C   0  0  2  0  0  3  0  0  0  0  0  0
  160.8100  206.5080  144.9950 C   0  0  0  0  0  2  0  0  0  0  0  0
  161.8190  205.7390  144.4170 O   0  0  0  0  0  0  0  0  0  0  0  0
  161.5840  205.8260  143.0460 C   0  0  0  0  0  1  0  0  0  0  0  0
  1 24  1  6  0  0  0
  1  2  1  0  0  0  0
  2  3  2  0  0  0  0
  2  4  1  0  0  0  0
  5  1  1  0  0  0  0
  6  9  1  0  0  0  0
  7 10  1  0  0  0  0
  8 11  1  0  0  0  0
  8  6  2  0  0  0  0
  9 10  2  0  0  0  0
  9  5  1  0  0  0  0
 11  7  2  0  0  0  0
 12 15  1  0  0  0  0
 13 14  2  0  0  0  0
 13 12  1  0  0  0  0
 15 17  1  0  0  0  0
 15 16  2  0  0  0  0
 17  8  1  0  0  0  0
 19 18  1  1  0  0  0
 19 13  1  0  0  0  0
 20 19  1  0  0  0  0
 21 23  1  0  0  0  0
 22 23  2  0  0  0  0
 23 20  1  0  0  0  0
 25 38  1  0  0  0  0
 26 33  2  0  0  0  0
 27 25  1  0  0  0  0
 28 31  2  0  0  0  0
 29 32  2  0  0  0  0
 30 29  1  0  0  0  0
 30 27  1  0  0  0  0
 31 26  1  0  0  0  0
 32 37  2  0  0  0  0
 34 36  2  0  0  0  0
 35 34  1  0  0  0  0
 35 24  1  1  0  0  0
 36 33  1  0  0  0  0
 37 28  1  0  0  0  0
 37 34  1  0  0  0  0
 38 35  1  0  0  0  0
 40 39  1  6  0  0  0
 40 29  1  0  0  0  0
 41 40  1  0  0  0  0
 42 41  1  0  0  0  0
 43 42  1  0  0  0  0
M  END
>  <MODEL>
5

>  <REMARK>
 VINA RESULT:      -5.6      2.505      4.450
  Name = 
  12 active torsions:
  status: ('A' for Active; 'I' for Inactive)
    1  A    between atoms: C_5  and  C_17
    2  A    between atoms: C_8  and  C_23
    3  A    between atoms: C_10  and  C_15
    4  A    between atoms: C_15  and  C_33
    5  A    between atoms: C_17  and  N_19
    6  A    between atoms: C_17  and  C_43
    7  A    between atoms: N_19  and  C_30
    8  A    between atoms: C_23  and  C_41
    9  A    between atoms: O_24  and  C_41
   10  A    between atoms: C_25  and  N_42
   11  A    between atoms: C_31  and  C_43
   12  A    between atoms: C_33  and  C_37
                            x       y       z     vdW  Elec       q    Type
                         _______ _______ _______ _____ _____    ______ ____

>  <TORSDO>
F 12

$$$$
=
 OpenBabel11052411373D

 43 45  0  0  1  0  0  0  0  0999 V2000
  160.2570  209.7640  154.4790 C   0  0  2  0  0  3  0  0  0  0  0  0
  159.7310  209.1380  155.7270 C   0  0  0  0  0  0  0  0  0  0  0  0
  159.2370  209.8490  156.6420 O   0  0  0  0  0  0  0  0  0  0  0  0
  159.7820  207.7250  155.8800 N   0  0  0  0  0  1  0  0  0  0  0  0
  161.2150  208.8690  153.8420 N   0  0  0  0  0  2  0  0  0  0  0  0
  161.3670  207.6240  151.7500 C   0  0  0  0  0  3  0  0  0  0  0  0
  161.9530  209.9640  150.3410 C   0  0  0  0  0  3  0  0  0  0  0  0
  161.5890  207.5620  150.3710 C   0  0  0  0  0  0  0  0  0  0  0  0
  161.4340  208.8450  152.4290 C   0  0  0  0  0  0  0  0  0  0  0  0
  161.7280  210.0170  151.7170 C   0  0  0  0  0  3  0  0  0  0  0  0
  161.8840  208.7400  149.6690 C   0  0  0  0  0  3  0  0  0  0  0  0
  161.7730  204.6550  147.8560 N   0  0  0  0  0  2  0  0  0  0  0  0
  161.2460  203.5290  148.5710 C   0  0  0  0  0  0  0  0  0  0  0  0
  160.7800  203.6610  149.7340 O   0  0  0  0  0  0  0  0  0  0  0  0
  161.8880  205.9870  148.3650 C   0  0  0  0  0  0  0  0  0  0  0  0
  162.3350  206.8900  147.6080 O   0  0  0  0  0  0  0  0  0  0  0  0
  161.5100  206.2870  149.7180 N   0  0  0  0  0  2  0  0  0  0  0  0
  161.2760  201.1000  149.0090 C   0  0  0  0  0  1  0  0  0  0  0  0
  161.2460  202.1740  147.9390 C   0  0  1  0  0  3  0  0  0  0  0  0
  160.0260  201.9790  147.0510 C   0  0  0  0  0  2  0  0  0  0  0  0
  161.1820  202.6550  145.0790 O   0  0  0  0  0  1  0  0  0  0  0  0
  159.9960  200.7020  144.9080 O   0  0  0  0  0  0  0  0  0  0  0  0
  160.4280  201.8110  145.6240 C   0  0  0  0  0  0  0  0  0  0  0  0
  160.9140  211.1030  154.7960 C   0  0  0  0  0  2  0  0  0  0  0  0
  159.6780  213.1420  157.0540 C   0  0  0  0  0  2  0  0  0  0  0  0
  158.5820  213.8570  150.8860 C   0  0  0  0  0  3  0  0  0  0  0  0
  158.6930  214.2980  157.1550 C   0  0  0  0  0  2  0  0  0  0  0  0
  156.9510  213.0690  152.6200 C   0  0  0  0  0  3  0  0  0  0  0  0
  156.6590  213.2570  156.1440 C   0  0  0  0  0  0  0  0  0  0  0  0
  157.3540  213.8070  157.2350 O   0  0  0  0  0  0  0  0  0  0  0  0
  157.2810  213.3930  151.3740 C   0  0  0  0  0  3  0  0  0  0  0  0
  157.2100  213.1670  154.9620 C   0  0  0  0  0  0  0  0  0  0  0  0
  159.7640  213.7700  151.4880 C   0  0  0  0  0  3  0  0  0  0  0  0
  159.2740  212.8080  153.7870 C   0  0  0  0  0  0  0  0  0  0  0  0
  159.9030  212.2330  155.0380 C   0  0  2  0  0  3  0  0  0  0  0  0
  160.0850  213.1690  152.7880 C   0  0  0  0  0  3  0  0  0  0  0  0
  157.8140  213.0770  153.8050 C   0  0  0  0  0  0  0  0  0  0  0  0
  160.4090  213.2410  155.8660 O   0  0  0  0  0  0  0  0  0  0  0  0
  154.6010  213.5510  157.2610 O   0  0  0  0  0  1  0  0  0  0  0  0
  155.2700  212.7520  156.3320 C   0  0  2  0  0  3  0  0  0  0  0  0
  155.3020  211.3140  156.8150 C   0  0  0  0  0  2  0  0  0  0  0  0
  154.2850  210.5840  156.2000 O   0  0  0  0  0  0  0  0  0  0  0  0
  153.5380  210.0660  157.2560 C   0  0  0  0  0  1  0  0  0  0  0  0
  1 24  1  1  0  0  0
  1  2  1  0  0  0  0
  2  4  1  0  0  0  0
  2  3  2  0  0  0  0
  5  1  1  0  0  0  0
  6  9  1  0  0  0  0
  7 10  1  0  0  0  0
  8  6  2  0  0  0  0
  9  5  1  0  0  0  0
 10  9  2  0  0  0  0
 11  7  2  0  0  0  0
 11  8  1  0  0  0  0
 12 15  1  0  0  0  0
 12 13  1  0  0  0  0
 13 14  2  0  0  0  0
 15 17  1  0  0  0  0
 16 15  2  0  0  0  0
 17  8  1  0  0  0  0
 19 13  1  0  0  0  0
 19 18  1  1  0  0  0
 20 19  1  0  0  0  0
 21 23  1  0  0  0  0
 22 23  2  0  0  0  0
 23 20  1  0  0  0  0
 25 27  1  0  0  0  0
 26 31  1  0  0  0  0
 26 33  2  0  0  0  0
 27 30  1  0  0  0  0
 28 37  1  0  0  0  0
 29 40  1  0  0  0  0
 29 30  1  0  0  0  0
 31 28  2  0  0  0  0
 32 29  2  0  0  0  0
 33 36  1  0  0  0  0
 34 37  1  0  0  0  0
 34 35  1  0  0  0  0
 35 24  1  6  0  0  0
 35 38  1  0  0  0  0
 36 34  2  0  0  0  0
 37 32  2  0  0  0  0
 38 25  1  0  0  0  0
 40 41  1  0  0  0  0
 40 39  1  1  0  0  0
 42 41  1  0  0  0  0
 42 43  1  0  0  0  0
M  END
>  <MODEL>
6

>  <REMARK>
 VINA RESULT:      -5.5      4.383      8.313
  Name = 
  12 active torsions:
  status: ('A' for Active; 'I' for Inactive)
    1  A    between atoms: C_5  and  C_17
    2  A    between atoms: C_8  and  C_23
    3  A    between atoms: C_10  and  C_15
    4  A    between atoms: C_15  and  C_33
    5  A    between atoms: C_17  and  N_19
    6  A    between atoms: C_17  and  C_43
    7  A    between atoms: N_19  and  C_30
    8  A    between atoms: C_23  and  C_41
    9  A    between atoms: O_24  and  C_41
   10  A    between atoms: C_25  and  N_42
   11  A    between atoms: C_31  and  C_43
   12  A    between atoms: C_33  and  C_37
                            x       y       z     vdW  Elec       q    Type
                         _______ _______ _______ _____ _____    ______ ____

>  <TORSDO>
F 12

$$$$
=
 OpenBabel11052411373D

 43 45  0  0  1  0  0  0  0  0999 V2000
  160.7560  208.9700  153.3400 C   0  0  2  0  0  3  0  0  0  0  0  0
  160.6660  208.7810  154.8170 C   0  0  0  0  0  0  0  0  0  0  0  0
  159.5460  208.7040  155.3870 O   0  0  0  0  0  0  0  0  0  0  0  0
  161.8580  208.6810  155.5860 N   0  0  0  0  0  1  0  0  0  0  0  0
  161.7260  208.0390  152.7790 N   0  0  0  0  0  2  0  0  0  0  0  0
  161.4410  206.1150  151.3080 C   0  0  0  0  0  3  0  0  0  0  0  0
  160.9170  204.4570  153.4950 C   0  0  0  0  0  3  0  0  0  0  0  0
  161.1660  204.7600  151.0970 C   0  0  0  0  0  0  0  0  0  0  0  0
  161.4560  206.6460  152.6010 C   0  0  0  0  0  0  0  0  0  0  0  0
  161.1930  205.8110  153.6960 C   0  0  0  0  0  3  0  0  0  0  0  0
  160.9030  203.9330  152.2000 C   0  0  0  0  0  3  0  0  0  0  0  0
  160.7850  202.6000  147.9360 N   0  0  0  0  0  2  0  0  0  0  0  0
  161.2440  203.4420  146.8690 C   0  0  0  0  0  0  0  0  0  0  0  0
  161.7230  204.5830  147.1050 O   0  0  0  0  0  0  0  0  0  0  0  0
  160.7580  202.9500  149.3230 C   0  0  0  0  0  0  0  0  0  0  0  0
  160.3650  202.0920  150.1570 O   0  0  0  0  0  0  0  0  0  0  0  0
  161.1610  204.2590  149.7530 N   0  0  0  0  0  2  0  0  0  0  0  0
  160.6950  201.5280  145.4100 C   0  0  0  0  0  1  0  0  0  0  0  0
  161.1550  202.9720  145.4520 C   0  0  1  0  0  3  0  0  0  0  0  0
  160.2010  203.8390  144.6430 C   0  0  0  0  0  2  0  0  0  0  0  0
  160.0500  206.1950  144.9690 O   0  0  0  0  0  1  0  0  0  0  0  0
  161.9610  205.4610  143.9390 O   0  0  0  0  0  0  0  0  0  0  0  0
  160.7210  205.2310  144.5200 C   0  0  0  0  0  0  0  0  0  0  0  0
  161.1500  210.4060  153.0140 C   0  0  0  0  0  2  0  0  0  0  0  0
  160.5740  211.6880  155.9820 C   0  0  0  0  0  2  0  0  0  0  0  0
  158.4700  214.3620  150.6730 C   0  0  0  0  0  3  0  0  0  0  0  0
  159.7570  212.8010  156.6240 C   0  0  0  0  0  2  0  0  0  0  0  0
  157.1010  213.1490  152.3890 C   0  0  0  0  0  3  0  0  0  0  0  0
  157.4720  212.2320  155.7890 C   0  0  0  0  0  0  0  0  0  0  0  0
  158.4090  212.3750  156.8260 O   0  0  0  0  0  0  0  0  0  0  0  0
  157.2350  213.8320  151.2570 C   0  0  0  0  0  3  0  0  0  0  0  0
  157.7880  212.4920  154.5470 C   0  0  0  0  0  0  0  0  0  0  0  0
  159.7240  214.0320  150.9650 C   0  0  0  0  0  3  0  0  0  0  0  0
  159.5540  212.4210  152.9200 C   0  0  0  0  0  0  0  0  0  0  0  0
  160.3310  211.4510  153.7850 C   0  0  2  0  0  3  0  0  0  0  0  0
  160.2060  213.0370  151.9300 C   0  0  0  0  0  3  0  0  0  0  0  0
  158.1600  212.7410  153.3180 C   0  0  0  0  0  0  0  0  0  0  0  0
  161.0860  212.1210  154.7540 O   0  0  0  0  0  0  0  0  0  0  0  0
  155.7210  210.7660  155.1930 O   0  0  0  0  0  1  0  0  0  0  0  0
  156.0930  211.7620  156.0980 C   0  0  2  0  0  3  0  0  0  0  0  0
  155.1190  212.9230  156.0170 C   0  0  0  0  0  2  0  0  0  0  0  0
  155.0170  213.5450  157.2610 O   0  0  0  0  0  0  0  0  0  0  0  0
  153.7490  214.1240  157.2600 C   0  0  0  0  0  1  0  0  0  0  0  0
  1 24  1  1  0  0  0
  1  2  1  0  0  0  0
  2  3  2  0  0  0  0
  2  4  1  0  0  0  0
  5  1  1  0  0  0  0
  6  9  1  0  0  0  0
  7 10  1  0  0  0  0
  8  6  2  0  0  0  0
  8 11  1  0  0  0  0
  9  5  1  0  0  0  0
  9 10  2  0  0  0  0
 11  7  2  0  0  0  0
 12 15  1  0  0  0  0
 13 14  2  0  0  0  0
 13 12  1  0  0  0  0
 15 17  1  0  0  0  0
 15 16  2  0  0  0  0
 17  8  1  0  0  0  0
 19 18  1  1  0  0  0
 19 13  1  0  0  0  0
 20 19  1  0  0  0  0
 22 23  2  0  0  0  0
 23 20  1  0  0  0  0
 23 21  1  0  0  0  0
 25 27  1  0  0  0  0
 26 33  2  0  0  0  0
 26 31  1  0  0  0  0
 27 30  1  0  0  0  0
 28 37  1  0  0  0  0
 29 40  1  0  0  0  0
 29 30  1  0  0  0  0
 31 28  2  0  0  0  0
 32 29  2  0  0  0  0
 33 36  1  0  0  0  0
 34 37  1  0  0  0  0
 34 35  1  0  0  0  0
 35 24  1  6  0  0  0
 35 38  1  0  0  0  0
 36 34  2  0  0  0  0
 37 32  2  0  0  0  0
 38 25  1  0  0  0  0
 40 39  1  6  0  0  0
 41 40  1  0  0  0  0
 41 42  1  0  0  0  0
 43 42  1  0  0  0  0
M  END
>  <MODEL>
7

>  <REMARK>
 VINA RESULT:      -5.4      4.361      8.409
  Name = 
  12 active torsions:
  status: ('A' for Active; 'I' for Inactive)
    1  A    between atoms: C_5  and  C_17
    2  A    between atoms: C_8  and  C_23
    3  A    between atoms: C_10  and  C_15
    4  A    between atoms: C_15  and  C_33
    5  A    between atoms: C_17  and  N_19
    6  A    between atoms: C_17  and  C_43
    7  A    between atoms: N_19  and  C_30
    8  A    between atoms: C_23  and  C_41
    9  A    between atoms: O_24  and  C_41
   10  A    between atoms: C_25  and  N_42
   11  A    between atoms: C_31  and  C_43
   12  A    between atoms: C_33  and  C_37
                            x       y       z     vdW  Elec       q    Type
                         _______ _______ _______ _____ _____    ______ ____

>  <TORSDO>
F 12

$$$$
=
 OpenBabel11052411373D

 43 45  0  0  1  0  0  0  0  0999 V2000
  161.7760  210.4000  149.9420 C   0  0  2  0  0  3  0  0  0  0  0  0
  162.0310  209.1200  149.2210 C   0  0  0  0  0  0  0  0  0  0  0  0
  161.5550  208.9250  148.0710 O   0  0  0  0  0  0  0  0  0  0  0  0
  162.8230  208.1120  149.8370 N   0  0  0  0  0  1  0  0  0  0  0  0
  162.4780  211.4910  149.2780 N   0  0  0  0  0  2  0  0  0  0  0  0
  161.9140  212.3590  147.0700 C   0  0  0  0  0  3  0  0  0  0  0  0
  160.4560  214.4520  148.2100 C   0  0  0  0  0  3  0  0  0  0  0  0
  161.2890  213.2970  146.2410 C   0  0  0  0  0  0  0  0  0  0  0  0
  161.8150  212.4590  148.4610 C   0  0  0  0  0  0  0  0  0  0  0  0
  161.0820  213.5110  149.0290 C   0  0  0  0  0  3  0  0  0  0  0  0
  160.5590  214.3460  146.8200 C   0  0  0  0  0  3  0  0  0  0  0  0
  160.7270  212.4980  142.5200 N   0  0  0  0  0  2  0  0  0  0  0  0
  161.9170  212.9680  141.8690 C   0  0  0  0  0  0  0  0  0  0  0  0
  162.8800  213.4310  142.5360 O   0  0  0  0  0  0  0  0  0  0  0  0
  160.4700  212.5480  143.9260 C   0  0  0  0  0  0  0  0  0  0  0  0
  159.3950  212.0590  144.3640 O   0  0  0  0  0  0  0  0  0  0  0  0
  161.4180  213.1530  144.8200 N   0  0  0  0  0  2  0  0  0  0  0  0
  160.6450  212.8420  139.7570 C   0  0  0  0  0  1  0  0  0  0  0  0
  162.0260  212.9150  140.3790 C   0  0  1  0  0  3  0  0  0  0  0  0
  162.7700  214.1270  139.8370 C   0  0  0  0  0  2  0  0  0  0  0  0
  164.4350  212.7510  138.8290 O   0  0  0  0  0  1  0  0  0  0  0  0
  163.6350  214.4530  137.5200 O   0  0  0  0  0  0  0  0  0  0  0  0
  163.6690  213.7410  138.7110 C   0  0  0  0  0  0  0  0  0  0  0  0
  162.2260  210.2870  151.3940 C   0  0  0  0  0  2  0  0  0  0  0  0
  159.5070  211.6750  152.6030 C   0  0  0  0  0  2  0  0  0  0  0  0
  160.9500  205.6200  153.6090 C   0  0  0  0  0  3  0  0  0  0  0  0
  158.3670  211.3510  153.5590 C   0  0  0  0  0  2  0  0  0  0  0  0
  161.0540  207.4870  155.2800 C   0  0  0  0  0  3  0  0  0  0  0  0
  159.6520  210.7220  155.6060 C   0  0  0  0  0  0  0  0  0  0  0  0
  158.7730  211.5680  154.9100 O   0  0  0  0  0  0  0  0  0  0  0  0
  161.1890  206.2130  154.9270 C   0  0  0  0  0  3  0  0  0  0  0  0
  160.1570  209.6550  155.0450 C   0  0  0  0  0  0  0  0  0  0  0  0
  160.8470  206.2380  152.4370 C   0  0  0  0  0  3  0  0  0  0  0  0
  160.9430  208.7180  152.9770 C   0  0  0  0  0  0  0  0  0  0  0  0
  161.0620  210.1020  152.3780 C   0  0  2  0  0  3  0  0  0  0  0  0
  160.9670  207.6720  152.1460 C   0  0  0  0  0  3  0  0  0  0  0  0
  160.6550  208.6130  154.4300 C   0  0  0  0  0  0  0  0  0  0  0  0
  159.8400  210.5410  151.8550 O   0  0  0  0  0  0  0  0  0  0  0  0
  159.8630  212.4120  157.2410 O   0  0  0  0  0  1  0  0  0  0  0  0
  160.0320  211.0450  157.0100 C   0  0  2  0  0  3  0  0  0  0  0  0
  161.4770  210.6550  157.2600 C   0  0  0  0  0  2  0  0  0  0  0  0
  162.3290  211.5790  156.6570 O   0  0  0  0  0  0  0  0  0  0  0  0
  163.4540  210.8370  156.2980 C   0  0  0  0  0  1  0  0  0  0  0  0
  1 24  1  1  0  0  0
  2  4  1  0  0  0  0
  2  1  1  0  0  0  0
  3  2  2  0  0  0  0
  5  1  1  0  0  0  0
  6  9  1  0  0  0  0
  7 10  1  0  0  0  0
  8 11  1  0  0  0  0
  8  6  2  0  0  0  0
  9 10  2  0  0  0  0
  9  5  1  0  0  0  0
 11  7  2  0  0  0  0
 12 15  1  0  0  0  0
 13 12  1  0  0  0  0
 13 14  2  0  0  0  0
 15 16  2  0  0  0  0
 15 17  1  0  0  0  0
 17  8  1  0  0  0  0
 19 18  1  6  0  0  0
 19 13  1  0  0  0  0
 20 19  1  0  0  0  0
 22 23  2  0  0  0  0
 23 21  1  0  0  0  0
 23 20  1  0  0  0  0
 25 27  1  0  0  0  0
 26 31  1  0  0  0  0
 27 30  1  0  0  0  0
 29 40  1  0  0  0  0
 30 29  1  0  0  0  0
 31 28  2  0  0  0  0
 32 29  2  0  0  0  0
 33 26  2  0  0  0  0
 34 37  1  0  0  0  0
 35 24  1  6  0  0  0
 35 34  1  0  0  0  0
 36 33  1  0  0  0  0
 36 34  2  0  0  0  0
 37 32  2  0  0  0  0
 37 28  1  0  0  0  0
 38 35  1  0  0  0  0
 38 25  1  0  0  0  0
 40 39  1  6  0  0  0
 40 41  1  0  0  0  0
 42 41  1  0  0  0  0
 43 42  1  0  0  0  0
M  END
>  <MODEL>
8

>  <REMARK>
 VINA RESULT:      -5.4      2.863      5.417
  Name = 
  12 active torsions:
  status: ('A' for Active; 'I' for Inactive)
    1  A    between atoms: C_5  and  C_17
    2  A    between atoms: C_8  and  C_23
    3  A    between atoms: C_10  and  C_15
    4  A    between atoms: C_15  and  C_33
    5  A    between atoms: C_17  and  N_19
    6  A    between atoms: C_17  and  C_43
    7  A    between atoms: N_19  and  C_30
    8  A    between atoms: C_23  and  C_41
    9  A    between atoms: O_24  and  C_41
   10  A    between atoms: C_25  and  N_42
   11  A    between atoms: C_31  and  C_43
   12  A    between atoms: C_33  and  C_37
                            x       y       z     vdW  Elec       q    Type
                         _______ _______ _______ _____ _____    ______ ____

>  <TORSDO>
F 12

$$$$
=
 OpenBabel11052411373D

 43 45  0  0  1  0  0  0  0  0999 V2000
  161.5430  211.0160  149.7350 C   0  0  2  0  0  3  0  0  0  0  0  0
  162.4340  210.6640  148.5920 C   0  0  0  0  0  0  0  0  0  0  0  0
  162.4380  209.4980  148.1160 O   0  0  0  0  0  0  0  0  0  0  0  0
  163.2840  211.6580  148.0320 N   0  0  0  0  0  1  0  0  0  0  0  0
  161.2330  212.4390  149.7040 N   0  0  0  0  0  2  0  0  0  0  0  0
  160.7280  212.7930  147.3440 C   0  0  0  0  0  3  0  0  0  0  0  0
  158.5790  214.4530  148.0020 C   0  0  0  0  0  3  0  0  0  0  0  0
  159.9660  213.3730  146.3240 C   0  0  0  0  0  0  0  0  0  0  0  0
  160.4250  213.0370  148.6870 C   0  0  0  0  0  0  0  0  0  0  0  0
  159.3440  213.8700  149.0130 C   0  0  0  0  0  3  0  0  0  0  0  0
  158.8890  214.2060  146.6620 C   0  0  0  0  0  3  0  0  0  0  0  0
  161.7280  213.1380  142.9120 N   0  0  0  0  0  2  0  0  0  0  0  0
  160.8220  212.3870  142.0920 C   0  0  0  0  0  0  0  0  0  0  0  0
  159.6930  212.0370  142.5280 O   0  0  0  0  0  0  0  0  0  0  0  0
  161.5050  213.5140  144.2740 C   0  0  0  0  0  0  0  0  0  0  0  0
  162.3740  214.2110  144.8610 O   0  0  0  0  0  0  0  0  0  0  0  0
  160.3150  213.0950  144.9620 N   0  0  0  0  0  2  0  0  0  0  0  0
  162.0250  210.7250  140.7200 C   0  0  0  0  0  1  0  0  0  0  0  0
  161.2130  212.0040  140.7000 C   0  0  1  0  0  3  0  0  0  0  0  0
  159.9890  211.8220  139.8140 C   0  0  0  0  0  2  0  0  0  0  0  0
  160.1360  211.0350  137.5690 O   0  0  0  0  0  0  0  0  0  0  0  0
  160.8780  213.1750  137.9160 O   0  0  0  0  0  1  0  0  0  0  0  0
  160.3450  211.9770  138.3740 C   0  0  0  0  0  0  0  0  0  0  0  0
  162.2090  210.6470  151.0560 C   0  0  0  0  0  2  0  0  0  0  0  0
  159.9500  210.9480  153.4210 C   0  0  0  0  0  2  0  0  0  0  0  0
  161.1020  205.4710  150.5160 C   0  0  0  0  0  3  0  0  0  0  0  0
  159.0330  210.0730  154.2640 C   0  0  0  0  0  2  0  0  0  0  0  0
  161.7270  206.0860  152.8650 C   0  0  0  0  0  3  0  0  0  0  0  0
  160.6930  208.4890  155.2520 C   0  0  0  0  0  0  0  0  0  0  0  0
  159.7490  209.5220  155.3700 O   0  0  0  0  0  0  0  0  0  0  0  0
  161.6780  205.2380  151.8420 C   0  0  0  0  0  3  0  0  0  0  0  0
  160.9730  207.9520  154.0930 C   0  0  0  0  0  0  0  0  0  0  0  0
  160.7870  206.6310  149.9490 C   0  0  0  0  0  3  0  0  0  0  0  0
  161.1970  208.3840  151.7400 C   0  0  0  0  0  0  0  0  0  0  0  0
  161.2860  209.8710  152.0060 C   0  0  2  0  0  3  0  0  0  0  0  0
  160.9510  207.9860  150.4880 C   0  0  0  0  0  3  0  0  0  0  0  0
  161.2360  207.4670  152.9070 C   0  0  0  0  0  0  0  0  0  0  0  0
  160.0150  210.4490  152.1150 O   0  0  0  0  0  0  0  0  0  0  0  0
  160.5260  207.2500  157.2540 O   0  0  0  0  0  1  0  0  0  0  0  0
  161.4040  207.9940  156.4640 C   0  0  2  0  0  3  0  0  0  0  0  0
  161.9480  209.1660  157.2600 C   0  0  0  0  0  2  0  0  0  0  0  0
  162.7450  209.9660  156.4430 O   0  0  0  0  0  0  0  0  0  0  0  0
  163.0210  211.0920  157.2160 C   0  0  0  0  0  1  0  0  0  0  0  0
  1 24  1  1  0  0  0
  2  1  1  0  0  0  0
  3  2  2  0  0  0  0
  4  2  1  0  0  0  0
  5  1  1  0  0  0  0
  6  9  1  0  0  0  0
  7 10  1  0  0  0  0
  8 11  1  0  0  0  0
  8  6  2  0  0  0  0
  9 10  2  0  0  0  0
  9  5  1  0  0  0  0
 11  7  2  0  0  0  0
 12 15  1  0  0  0  0
 13 14  2  0  0  0  0
 13 12  1  0  0  0  0
 15 16  2  0  0  0  0
 15 17  1  0  0  0  0
 17  8  1  0  0  0  0
 19 18  1  1  0  0  0
 19 13  1  0  0  0  0
 20 19  1  0  0  0  0
 21 23  2  0  0  0  0
 22 23  1  0  0  0  0
 23 20  1  0  0  0  0
 25 27  1  0  0  0  0
 26 31  1  0  0  0  0
 27 30  1  0  0  0  0
 28 37  1  0  0  0  0
 29 30  1  0  0  0  0
 29 40  1  0  0  0  0
 31 28  2  0  0  0  0
 32 29  2  0  0  0  0
 33 36  1  0  0  0  0
 33 26  2  0  0  0  0
 34 35  1  0  0  0  0
 34 37  1  0  0  0  0
 35 24  1  6  0  0  0
 35 38  1  0  0  0  0
 36 34  2  0  0  0  0
 37 32  2  0  0  0  0
 38 25  1  0  0  0  0
 40 39  1  1  0  0  0
 40 41  1  0  0  0  0
 42 43  1  0  0  0  0
 42 41  1  0  0  0  0
M  END
>  <MODEL>
9

>  <REMARK>
 VINA RESULT:      -4.9      2.592      5.181
  Name = 
  12 active torsions:
  status: ('A' for Active; 'I' for Inactive)
    1  A    between atoms: C_5  and  C_17
    2  A    between atoms: C_8  and  C_23
    3  A    between atoms: C_10  and  C_15
    4  A    between atoms: C_15  and  C_33
    5  A    between atoms: C_17  and  N_19
    6  A    between atoms: C_17  and  C_43
    7  A    between atoms: N_19  and  C_30
    8  A    between atoms: C_23  and  C_41
    9  A    between atoms: O_24  and  C_41
   10  A    between atoms: C_25  and  N_42
   11  A    between atoms: C_31  and  C_43
   12  A    between atoms: C_33  and  C_37
                            x       y       z     vdW  Elec       q    Type
                         _______ _______ _______ _____ _____    ______ ____

>  <TORSDO>
F 12

$$$$
