=
 OpenBabel11052411593D

 61 68  0  0  1  0  0  0  0  0999 V2000
  160.9820  211.3020  150.8210 O   0  0  0  0  0  0  0  0  0  0  0  0
  160.6440  208.9620  153.5510 C   0  0  2  0  0  3  0  0  0  0  0  0
  161.1120  207.6290  152.8560 C   0  0  1  0  0  3  0  0  0  0  0  0
  161.1210  210.3350  153.0440 C   0  0  1  0  0  0  0  0  0  0  0  0
  161.6650  210.2930  151.5290 C   0  0  1  0  0  3  0  0  0  0  0  0
  160.1310  211.5200  153.1920 C   0  0  0  0  0  2  0  0  0  0  0  0
  160.9410  205.8430  148.5700 C   0  0  0  0  0  1  0  0  0  0  0  0
  161.9370  206.8530  149.2100 C   0  0  2  0  0  0  0  0  0  0  0  0
  160.3940  212.2260  151.8220 C   0  0  2  0  0  3  0  0  0  0  0  0
  161.8400  206.5430  150.7460 C   0  0  1  0  0  3  0  0  0  0  0  0
  162.0320  207.7810  151.6250 C   0  0  1  0  0  3  0  0  0  0  0  0
  161.7080  206.4580  153.7350 C   0  0  0  0  0  1  0  0  0  0  0  0
  161.6890  208.9540  150.6930 C   0  0  2  0  0  3  0  0  0  0  0  0
  161.5530  208.4320  149.1530 C   0  0  0  0  0  2  0  0  0  0  0  0
  161.9500  209.4140  154.0850 C   0  0  1  0  0  3  0  0  0  0  0  0
  161.8480  208.2570  156.6580 C   0  0  0  0  0  2  0  0  0  0  0  0
  162.0960  209.8400  156.6220 C   0  0  1  0  0  3  0  0  0  0  0  0
  161.4870  209.0670  155.3920 C   0  0  1  0  0  3  0  0  0  0  0  0
  161.1190  210.8090  157.2210 C   0  0  0  0  0  2  0  0  0  0  0  0
  159.7280  213.3060  157.0270 O   0  0  0  0  0  1  0  0  0  0  0  0
  159.1650  210.9130  156.3580 N   0  0  0  0  0  2  0  0  0  0  0  0
  159.1450  212.1640  157.2430 C   0  0  2  0  0  0  0  0  0  0  0  0
  160.3180  211.6880  156.4320 C   0  0  1  0  0  3  0  0  0  0  0  0
  157.8710  212.6000  156.6510 C   0  0  1  0  0  3  0  0  0  0  0  0
  157.8720  213.4570  155.5500 O   0  0  0  0  0  1  0  0  0  0  0  0
  156.5770  211.7330  156.5850 C   0  0  0  0  0  2  0  0  0  0  0  0
  155.2340  210.0440  155.2360 C   0  0  0  0  0  1  0  0  0  0  0  0
  156.5120  210.9040  155.3080 C   0  0  0  0  0  2  0  0  0  0  0  0
  159.3990  205.8870  151.5510 O   0  0  0  0  0  0  0  0  0  0  0  0
  160.5980  205.5880  151.2710 C   0  0  0  0  0  0  0  0  0  0  0  0
  161.1640  204.5600  151.9390 O   0  0  0  0  0  0  0  0  0  0  0  0
  162.5910  202.3460  152.0130 C   0  0  0  0  0  1  0  0  0  0  0  0
  161.7110  203.3460  151.2840 C   0  0  1  0  0  3  0  0  0  0  0  0
  160.6320  202.6660  150.5540 C   0  0  0  0  0  2  0  0  0  0  0  0
  161.2740  201.7430  149.6950 O   0  0  0  0  0  0  0  0  0  0  0  0
  160.4890  201.4300  148.5890 C   0  0  2  0  0  3  0  0  0  0  0  0
  158.9570  201.4770  148.8050 C   0  0  0  0  0  1  0  0  0  0  0  0
  161.0030  200.1880  147.8930 C   0  0  0  0  0  2  0  0  0  0  0  0
  160.5090  199.8250  145.6650 C   0  0  0  0  0  2  0  0  0  0  0  0
  161.5190  201.9550  146.3520 O   0  0  0  0  0  0  0  0  0  0  0  0
  160.9210  202.2000  145.1790 N   0  0  0  0  0  0  0  0  0  0  0  0
  161.6130  200.5120  146.5060 C   0  0  1  0  0  3  0  0  0  0  0  0
  159.9280  201.1020  145.0120 C   0  0  0  0  0  2  0  0  0  0  0  0
  159.1280  204.3090  144.7380 C   0  0  0  0  0  1  0  0  0  0  0  0
  160.9860  204.0190  146.7320 C   0  0  0  0  0  1  0  0  0  0  0  0
  160.5970  203.7330  145.1870 C   0  0  0  0  0  0  0  0  0  0  0  0
  161.1880  205.7840  143.6780 C   0  0  1  0  0  3  0  0  0  0  0  0
  161.7430  204.4980  144.3980 C   0  0  1  0  0  3  0  0  0  0  0  0
  162.1690  205.9030  144.8580 C   0  0  0  0  0  2  0  0  0  0  0  0
  161.6250  205.7110  142.1760 C   0  0  0  0  0  2  0  0  0  0  0  0
  162.0000  206.8950  141.5340 O   0  0  0  0  0  1  0  0  0  0  0  0
  163.3580  206.6850  148.6030 C   0  0  0  0  0  3  0  0  0  0  0  0
  163.6090  205.9100  147.4920 C   0  0  0  0  0  2  0  0  0  0  0  0
  159.1580  213.0910  151.3080 C   0  0  0  0  0  2  0  0  0  0  0  0
  158.9200  213.7350  149.5160 S   0  0  0  0  0  0  0  0  0  0  0  0
  160.3790  213.7730  148.8240 N   0  0  0  0  0  2  0  0  0  0  0  0
  159.7870  214.4500  145.2420 O   0  0  0  0  0  0  0  0  0  0  0  0
  159.5930  214.0940  146.4180 C   0  0  0  0  0  3  0  0  0  0  0  0
  160.6500  214.0420  147.3790 N   0  0  0  0  0  0  0  0  0  0  0  0
  162.1070  214.2950  146.9940 C   0  0  0  0  0  2  0  0  0  0  0  0
  162.9190  213.1610  146.6390 O   0  0  0  0  0  1  0  0  0  0  0  0
  1  5  1  0  0  0  0
  1  9  1  0  0  0  0
  2 15  1  0  0  0  0
  3  2  1  0  0  0  0
  3 12  1  0  0  0  0
  4  6  1  0  0  0  0
  4  2  1  0  0  0  0
  4 15  1  0  0  0  0
  5  4  1  0  0  0  0
  7  8  1  0  0  0  0
  8 10  1  0  0  0  0
  9  6  1  0  0  0  0
 10 30  1  0  0  0  0
 10 11  1  0  0  0  0
 11  3  1  0  0  0  0
 13  5  1  0  0  0  0
 13 11  1  0  0  0  0
 14  8  1  0  0  0  0
 14 13  1  0  0  0  0
 15 18  1  0  0  0  0
 17 16  1  0  0  0  0
 17 19  1  0  0  0  0
 18 17  1  0  0  0  0
 18 16  1  0  0  0  0
 20 22  1  0  0  0  0
 21 23  1  0  0  0  0
 21 22  1  0  0  0  0
 23 19  1  0  0  0  0
 23 22  1  0  0  0  0
 24 22  1  0  0  0  0
 25 24  1  0  0  0  0
 26 24  1  0  0  0  0
 27 28  1  0  0  0  0
 28 26  1  0  0  0  0
 30 29  2  0  0  0  0
 30 31  1  0  0  0  0
 33 31  1  0  0  0  0
 33 32  1  0  0  0  0
 34 33  1  0  0  0  0
 35 34  1  0  0  0  0
 36 37  1  0  0  0  0
 36 35  1  0  0  0  0
 38 36  1  0  0  0  0
 39 42  1  0  0  0  0
 40 42  1  0  0  0  0
 41 46  1  0  0  0  0
 41 40  1  0  0  0  0
 42 38  1  0  0  0  0
 43 41  1  0  0  0  0
 43 39  1  0  0  0  0
 44 46  1  0  0  0  0
 46 45  1  0  0  0  0
 47 48  1  0  0  0  0
 47 49  1  0  0  0  0
 48 49  1  0  0  0  0
 48 46  1  0  0  0  0
 50 47  1  0  0  0  0
 51 50  1  0  0  0  0
 52  8  1  0  0  0  0
 53 52  2  0  0  0  0
 54  9  1  0  0  0  0
 55 54  1  0  0  0  0
 56 55  1  0  0  0  0
 57 58  2  0  0  0  0
 58 59  1  0  0  0  0
 59 56  1  0  0  0  0
 60 59  1  0  0  0  0
 61 60  1  0  0  0  0
M  END
>  <MODEL>
1

>  <REMARK>
 VINA RESULT:      -1.1      0.000      0.000
  Name = 
  22 active torsions:
  status: ('A' for Active; 'I' for Inactive)
    1  A    between atoms: O_5  and  C_10
    2  A    between atoms: O_5  and  C_22
    3  A    between atoms: C_8  and  C_48
    4  A    between atoms: C_8  and  C_58
    5  A    between atoms: C_9  and  C_18
    6  A    between atoms: C_10  and  C_26
    7  A    between atoms: C_11  and  C_25
    8  A    between atoms: C_11  and  C_59
    9  A    between atoms: C_13  and  C_33
   10  A    between atoms: C_13  and  S_46
   11  A    between atoms: O_14  and  C_35
   12  A    between atoms: O_14  and  C_50
   13  A    between atoms: C_19  and  C_60
   14  A    between atoms: C_22  and  C_50
   15  A    between atoms: C_26  and  C_34
   16  A    between atoms: C_27  and  C_32
   17  A    between atoms: N_30  and  C_60
   18  A    between atoms: C_31  and  N_45
   19  A    between atoms: C_35  and  C_37
   20  A    between atoms: N_45  and  N_54
   21  A    between atoms: C_51  and  C_57
   22  A    between atoms: C_55  and  C_58
                            x       y       z     vdW  Elec       q    Type
                         _______ _______ _______ _____ _____    ______ ____

>  <TORSDO>
F 22

$$$$
=
 OpenBabel11052411593D

 61 68  0  0  1  0  0  0  0  0999 V2000
  161.0980  206.9270  147.1380 O   0  0  0  0  0  0  0  0  0  0  0  0
  161.5290  204.4880  149.7660 C   0  0  2  0  0  3  0  0  0  0  0  0
  161.4370  205.4090  151.0400 C   0  0  1  0  0  3  0  0  0  0  0  0
  160.8580  204.8930  148.4410 C   0  0  1  0  0  0  0  0  0  0  0  0
  160.5430  206.4690  148.3500 C   0  0  1  0  0  3  0  0  0  0  0  0
  161.5600  204.4420  147.1330 C   0  0  0  0  0  2  0  0  0  0  0  0
  162.5400  209.7980  152.0940 C   0  0  0  0  0  1  0  0  0  0  0  0
  161.2840  209.2070  151.3890 C   0  0  2  0  0  0  0  0  0  0  0  0
  161.3480  205.7380  146.2860 C   0  0  2  0  0  3  0  0  0  0  0  0
  161.2340  207.7260  151.9070 C   0  0  1  0  0  3  0  0  0  0  0  0
  160.6800  206.7440  150.8710 C   0  0  1  0  0  3  0  0  0  0  0  0
  160.9760  204.7880  152.4190 C   0  0  0  0  0  1  0  0  0  0  0  0
  160.9020  207.4560  149.5280 C   0  0  2  0  0  3  0  0  0  0  0  0
  161.3470  209.0060  149.7760 C   0  0  0  0  0  2  0  0  0  0  0  0
  160.0990  204.1200  149.6440 C   0  0  1  0  0  3  0  0  0  0  0  0
  159.8550  201.5230  150.7220 C   0  0  0  0  0  2  0  0  0  0  0  0
  160.1290  201.5920  149.1450 C   0  0  1  0  0  3  0  0  0  0  0  0
  160.4420  202.8090  150.0960 C   0  0  1  0  0  3  0  0  0  0  0  0
  161.3730  201.0210  148.5300 C   0  0  0  0  0  2  0  0  0  0  0  0
  161.8380  202.1290  145.9300 O   0  0  0  0  0  1  0  0  0  0  0  0
  160.2060  200.4010  146.8470 N   0  0  0  0  0  2  0  0  0  0  0  0
  160.6660  201.7850  146.3740 C   0  0  2  0  0  0  0  0  0  0  0  0
  161.5110  200.7960  147.1270 C   0  0  1  0  0  3  0  0  0  0  0  0
  160.1300  201.5350  145.0260 C   0  0  1  0  0  3  0  0  0  0  0  0
  159.4600  200.3430  144.7520 O   0  0  0  0  0  1  0  0  0  0  0  0
  159.5650  202.6350  144.0760 C   0  0  0  0  0  2  0  0  0  0  0  0
  157.4710  203.9900  143.5740 C   0  0  0  0  0  1  0  0  0  0  0  0
  158.3300  203.3100  144.6600 C   0  0  0  0  0  2  0  0  0  0  0  0
  163.2710  206.1110  152.4350 O   0  0  0  0  0  0  0  0  0  0  0  0
  162.5610  207.1290  152.6900 C   0  0  0  0  0  0  0  0  0  0  0  0
  162.4430  207.5100  153.9800 O   0  0  0  0  0  0  0  0  0  0  0  0
  161.3570  206.7210  156.2480 C   0  0  0  0  0  1  0  0  0  0  0  0
  161.2520  207.2320  154.8220 C   0  0  1  0  0  3  0  0  0  0  0  0
  160.3260  208.3690  154.7350 C   0  0  0  0  0  2  0  0  0  0  0  0
  161.0700  209.5000  155.1470 O   0  0  0  0  0  0  0  0  0  0  0  0
  160.5590  210.0600  156.3140 C   0  0  2  0  0  3  0  0  0  0  0  0
  159.1150  209.6520  156.6920 C   0  0  0  0  0  1  0  0  0  0  0  0
  160.8440  211.5450  156.3740 C   0  0  0  0  0  2  0  0  0  0  0  0
  160.3800  213.7200  157.0050 C   0  0  0  0  0  2  0  0  0  0  0  0
  158.5330  212.1830  156.4970 O   0  0  0  0  0  0  0  0  0  0  0  0
  158.0300  213.4160  156.3500 N   0  0  0  0  0  0  0  0  0  0  0  0
  159.7900  212.3040  157.2190 C   0  0  1  0  0  3  0  0  0  0  0  0
  159.2140  214.3010  156.1690 C   0  0  0  0  0  2  0  0  0  0  0  0
  156.4110  211.8030  154.7250 C   0  0  0  0  0  1  0  0  0  0  0  0
  155.7020  213.9650  156.2560 C   0  0  0  0  0  1  0  0  0  0  0  0
  156.8390  213.2630  155.3420 C   0  0  0  0  0  0  0  0  0  0  0  0
  157.5110  213.6130  152.8400 C   0  0  1  0  0  3  0  0  0  0  0  0
  157.0310  214.3120  154.1670 C   0  0  1  0  0  3  0  0  0  0  0  0
  156.1110  214.2440  152.9350 C   0  0  0  0  0  2  0  0  0  0  0  0
  158.7860  214.3720  152.3390 C   0  0  0  0  0  2  0  0  0  0  0  0
  159.2370  214.1260  151.0390 O   0  0  0  0  0  1  0  0  0  0  0  0
  160.0210  210.0520  151.7160 C   0  0  0  0  0  2  0  0  0  0  0  0
  160.0740  211.2310  152.4280 C   0  0  0  0  0  1  0  0  0  0  0  0
  162.4420  205.9360  145.1440 C   0  0  0  0  0  2  0  0  0  0  0  0
  162.2100  205.4920  143.2920 S   0  0  0  0  0  0  0  0  0  0  0  0
  162.0200  206.8810  142.4890 N   0  0  0  0  0  2  0  0  0  0  0  0
  162.4110  206.0810  138.9040 O   0  0  0  0  0  0  0  0  0  0  0  0
  162.5530  206.0400  140.1400 C   0  0  0  0  0  3  0  0  0  0  0  0
  161.9840  207.0280  141.0010 N   0  0  0  0  0  0  0  0  0  0  0  0
  161.2740  208.2670  140.4550 C   0  0  0  0  0  2  0  0  0  0  0  0
  161.8420  208.9190  139.3050 O   0  0  0  0  0  1  0  0  0  0  0  0
  1  5  1  0  0  0  0
  2  3  1  0  0  0  0
  3 12  1  0  0  0  0
  4 15  1  0  0  0  0
  4  2  1  0  0  0  0
  5  4  1  0  0  0  0
  5 13  1  0  0  0  0
  6  4  1  0  0  0  0
  8 52  1  0  0  0  0
  8 10  1  0  0  0  0
  8  7  1  0  0  0  0
  9  6  1  0  0  0  0
  9  1  1  0  0  0  0
 10 30  1  0  0  0  0
 11  3  1  0  0  0  0
 11 10  1  0  0  0  0
 13 14  1  0  0  0  0
 13 11  1  0  0  0  0
 14  8  1  0  0  0  0
 15  2  1  0  0  0  0
 15 18  1  0  0  0  0
 17 18  1  0  0  0  0
 17 16  1  0  0  0  0
 18 16  1  0  0  0  0
 19 17  1  0  0  0  0
 20 22  1  0  0  0  0
 21 23  1  0  0  0  0
 22 21  1  0  0  0  0
 22 23  1  0  0  0  0
 23 19  1  0  0  0  0
 24 22  1  0  0  0  0
 25 24  1  0  0  0  0
 26 28  1  0  0  0  0
 26 24  1  0  0  0  0
 27 28  1  0  0  0  0
 29 30  2  0  0  0  0
 30 31  1  0  0  0  0
 31 33  1  0  0  0  0
 33 32  1  0  0  0  0
 34 33  1  0  0  0  0
 34 35  1  0  0  0  0
 35 36  1  0  0  0  0
 36 38  1  0  0  0  0
 36 37  1  0  0  0  0
 38 42  1  0  0  0  0
 39 42  1  0  0  0  0
 40 42  1  0  0  0  0
 41 40  1  0  0  0  0
 43 41  1  0  0  0  0
 43 39  1  0  0  0  0
 44 46  1  0  0  0  0
 46 45  1  0  0  0  0
 46 41  1  0  0  0  0
 47 49  1  0  0  0  0
 47 48  1  0  0  0  0
 48 46  1  0  0  0  0
 49 48  1  0  0  0  0
 50 47  1  0  0  0  0
 51 50  1  0  0  0  0
 52 53  1  0  0  0  0
 54  9  1  0  0  0  0
 55 54  1  0  0  0  0
 56 55  1  0  0  0  0
 57 58  2  0  0  0  0
 58 59  1  0  0  0  0
 59 56  1  0  0  0  0
 60 59  1  0  0  0  0
 61 60  1  0  0  0  0
M  END
>  <MODEL>
2

>  <REMARK>
 VINA RESULT:       0.2      3.060     10.963
  Name = 
  22 active torsions:
  status: ('A' for Active; 'I' for Inactive)
    1  A    between atoms: O_5  and  C_10
    2  A    between atoms: O_5  and  C_22
    3  A    between atoms: C_8  and  C_48
    4  A    between atoms: C_8  and  C_58
    5  A    between atoms: C_9  and  C_18
    6  A    between atoms: C_10  and  C_26
    7  A    between atoms: C_11  and  C_25
    8  A    between atoms: C_11  and  C_59
    9  A    between atoms: C_13  and  C_33
   10  A    between atoms: C_13  and  S_46
   11  A    between atoms: O_14  and  C_35
   12  A    between atoms: O_14  and  C_50
   13  A    between atoms: C_19  and  C_60
   14  A    between atoms: C_22  and  C_50
   15  A    between atoms: C_26  and  C_34
   16  A    between atoms: C_27  and  C_32
   17  A    between atoms: N_30  and  C_60
   18  A    between atoms: C_31  and  N_45
   19  A    between atoms: C_35  and  C_37
   20  A    between atoms: N_45  and  N_54
   21  A    between atoms: C_51  and  C_57
   22  A    between atoms: C_55  and  C_58
                            x       y       z     vdW  Elec       q    Type
                         _______ _______ _______ _____ _____    ______ ____

>  <TORSDO>
F 22

$$$$
=
 OpenBabel11052411593D

 61 68  0  0  1  0  0  0  0  0999 V2000
  161.3600  208.9620  155.6410 O   0  0  0  0  0  0  0  0  0  0  0  0
  161.5130  210.7040  152.4810 C   0  0  2  0  0  3  0  0  0  0  0  0
  161.4430  209.4940  151.4750 C   0  0  1  0  0  3  0  0  0  0  0  0
  160.9220  210.5940  153.8980 C   0  0  1  0  0  0  0  0  0  0  0  0
  160.7290  209.0720  154.3860 C   0  0  1  0  0  3  0  0  0  0  0  0
  161.6350  211.3960  155.0190 C   0  0  0  0  0  2  0  0  0  0  0  0
  162.8320  205.0600  151.4590 C   0  0  0  0  0  1  0  0  0  0  0  0
  161.5610  205.7250  152.0650 C   0  0  2  0  0  0  0  0  0  0  0  0
  161.5500  210.3360  156.1650 C   0  0  2  0  0  3  0  0  0  0  0  0
  161.3820  207.0270  151.2080 C   0  0  1  0  0  3  0  0  0  0  0  0
  160.7940  208.1960  152.0020 C   0  0  1  0  0  3  0  0  0  0  0  0
  160.8880  209.7270  150.0130 C   0  0  0  0  0  1  0  0  0  0  0  0
  161.1170  207.8510  153.4640 C   0  0  2  0  0  3  0  0  0  0  0  0
  161.6670  206.3190  153.5760 C   0  0  0  0  0  2  0  0  0  0  0  0
  160.0650  210.9990  152.5870 C   0  0  1  0  0  3  0  0  0  0  0  0
  160.4760  212.6930  150.3670 C   0  0  0  0  0  2  0  0  0  0  0  0
  159.0570  212.8420  151.0950 C   0  0  1  0  0  3  0  0  0  0  0  0
  160.2920  212.1780  151.8130 C   0  0  1  0  0  3  0  0  0  0  0  0
  158.6380  214.1210  151.7600 C   0  0  0  0  0  2  0  0  0  0  0  0
  158.3180  212.8040  154.2840 O   0  0  0  0  0  1  0  0  0  0  0  0
  156.7730  214.1890  152.8060 N   0  0  0  0  0  2  0  0  0  0  0  0
  157.3760  212.9090  153.3950 C   0  0  2  0  0  0  0  0  0  0  0  0
  158.1340  214.1710  153.0950 C   0  0  1  0  0  3  0  0  0  0  0  0
  156.3000  212.8250  154.3950 C   0  0  1  0  0  3  0  0  0  0  0  0
  155.1350  213.5740  154.2290 O   0  0  0  0  0  1  0  0  0  0  0  0
  155.9370  211.5440  155.2070 C   0  0  0  0  0  2  0  0  0  0  0  0
  154.4480  211.3500  157.2600 C   0  0  0  0  0  1  0  0  0  0  0  0
  155.7980  211.8360  156.6960 C   0  0  0  0  0  2  0  0  0  0  0  0
  163.5840  208.3020  150.4560 O   0  0  0  0  0  0  0  0  0  0  0  0
  162.6320  207.4970  150.2340 C   0  0  0  0  0  0  0  0  0  0  0  0
  162.1880  207.3800  148.9630 O   0  0  0  0  0  0  0  0  0  0  0  0
  160.2320  205.7350  148.3230 C   0  0  0  0  0  1  0  0  0  0  0  0
  161.7030  206.1100  148.3680 C   0  0  1  0  0  3  0  0  0  0  0  0
  162.3370  205.9200  147.0570 C   0  0  0  0  0  2  0  0  0  0  0  0
  161.5270  204.9810  146.3740 O   0  0  0  0  0  0  0  0  0  0  0  0
  161.1080  205.4600  145.1360 C   0  0  2  0  0  3  0  0  0  0  0  0
  160.2630  206.7570  145.1560 C   0  0  0  0  0  1  0  0  0  0  0  0
  160.5500  204.3420  144.2820 C   0  0  0  0  0  2  0  0  0  0  0  0
  159.6500  202.2210  144.0980 C   0  0  0  0  0  2  0  0  0  0  0  0
  160.3280  203.0650  146.3020 O   0  0  0  0  0  0  0  0  0  0  0  0
  160.3170  201.7300  146.4130 N   0  0  0  0  0  0  0  0  0  0  0  0
  159.6080  203.4120  145.0870 C   0  0  1  0  0  3  0  0  0  0  0  0
  160.3960  201.2230  145.0150 C   0  0  0  0  0  2  0  0  0  0  0  0
  162.0570  199.9340  147.6790 C   0  0  0  0  0  1  0  0  0  0  0  0
  162.3370  202.6380  147.3200 C   0  0  0  0  0  1  0  0  0  0  0  0
  161.3250  201.3980  147.5660 C   0  0  0  0  0  0  0  0  0  0  0  0
  159.4970  200.7720  149.3270 C   0  0  1  0  0  3  0  0  0  0  0  0
  160.6520  201.7750  148.9530 C   0  0  1  0  0  3  0  0  0  0  0  0
  160.7960  200.8180  150.1490 C   0  0  0  0  0  2  0  0  0  0  0  0
  158.2200  201.6190  149.6520 C   0  0  0  0  0  2  0  0  0  0  0  0
  157.0410  201.3380  148.9550 O   0  0  0  0  0  1  0  0  0  0  0  0
  160.3540  204.7470  152.0200 C   0  0  0  0  0  3  0  0  0  0  0  0
  160.4960  203.3790  152.1080 C   0  0  0  0  0  2  0  0  0  0  0  0
  162.6970  210.4950  157.2610 C   0  0  0  0  0  2  0  0  0  0  0  0
  164.0570  211.8480  157.2610 S   0  0  0  0  0  0  0  0  0  0  0  0
  165.1180  211.4580  156.1070 N   0  0  0  0  0  2  0  0  0  0  0  0
  167.3220  214.3950  155.7110 O   0  0  0  0  0  0  0  0  0  0  0  0
  166.3250  213.7020  155.9820 C   0  0  0  0  0  3  0  0  0  0  0  0
  166.2450  212.3190  155.6340 N   0  0  0  0  0  0  0  0  0  0  0  0
  167.3210  211.6320  154.7930 C   0  0  0  0  0  2  0  0  0  0  0  0
  168.6900  212.0310  154.9920 O   0  0  0  0  0  1  0  0  0  0  0  0
  1  9  1  0  0  0  0
  2 15  1  0  0  0  0
  2  4  1  0  0  0  0
  3 11  1  0  0  0  0
  3  2  1  0  0  0  0
  4  5  1  0  0  0  0
  4  6  1  0  0  0  0
  5  1  1  0  0  0  0
  6  9  1  0  0  0  0
  7  8  1  0  0  0  0
  8 14  1  0  0  0  0
  9 54  1  0  0  0  0
 10 11  1  0  0  0  0
 10  8  1  0  0  0  0
 11 13  1  0  0  0  0
 12  3  1  0  0  0  0
 13 14  1  0  0  0  0
 13  5  1  0  0  0  0
 15  4  1  0  0  0  0
 16 17  1  0  0  0  0
 16 18  1  0  0  0  0
 17 19  1  0  0  0  0
 17 18  1  0  0  0  0
 18 15  1  0  0  0  0
 19 23  1  0  0  0  0
 21 23  1  0  0  0  0
 21 22  1  0  0  0  0
 22 20  1  0  0  0  0
 22 24  1  0  0  0  0
 23 22  1  0  0  0  0
 24 26  1  0  0  0  0
 25 24  1  0  0  0  0
 26 28  1  0  0  0  0
 28 27  1  0  0  0  0
 30 29  2  0  0  0  0
 30 10  1  0  0  0  0
 31 30  1  0  0  0  0
 32 33  1  0  0  0  0
 33 31  1  0  0  0  0
 34 33  1  0  0  0  0
 35 34  1  0  0  0  0
 36 37  1  0  0  0  0
 36 35  1  0  0  0  0
 38 42  1  0  0  0  0
 38 36  1  0  0  0  0
 39 43  1  0  0  0  0
 39 42  1  0  0  0  0
 40 41  1  0  0  0  0
 41 46  1  0  0  0  0
 42 40  1  0  0  0  0
 43 41  1  0  0  0  0
 45 46  1  0  0  0  0
 46 44  1  0  0  0  0
 46 48  1  0  0  0  0
 47 50  1  0  0  0  0
 47 49  1  0  0  0  0
 48 47  1  0  0  0  0
 48 49  1  0  0  0  0
 51 50  1  0  0  0  0
 52  8  1  0  0  0  0
 52 53  2  0  0  0  0
 55 54  1  0  0  0  0
 56 55  1  0  0  0  0
 57 58  2  0  0  0  0
 59 58  1  0  0  0  0
 59 56  1  0  0  0  0
 60 61  1  0  0  0  0
 60 59  1  0  0  0  0
M  END
>  <MODEL>
3

>  <REMARK>
 VINA RESULT:       0.2      3.110      5.755
  Name = 
  22 active torsions:
  status: ('A' for Active; 'I' for Inactive)
    1  A    between atoms: O_5  and  C_10
    2  A    between atoms: O_5  and  C_22
    3  A    between atoms: C_8  and  C_48
    4  A    between atoms: C_8  and  C_58
    5  A    between atoms: C_9  and  C_18
    6  A    between atoms: C_10  and  C_26
    7  A    between atoms: C_11  and  C_25
    8  A    between atoms: C_11  and  C_59
    9  A    between atoms: C_13  and  C_33
   10  A    between atoms: C_13  and  S_46
   11  A    between atoms: O_14  and  C_35
   12  A    between atoms: O_14  and  C_50
   13  A    between atoms: C_19  and  C_60
   14  A    between atoms: C_22  and  C_50
   15  A    between atoms: C_26  and  C_34
   16  A    between atoms: C_27  and  C_32
   17  A    between atoms: N_30  and  C_60
   18  A    between atoms: C_31  and  N_45
   19  A    between atoms: C_35  and  C_37
   20  A    between atoms: N_45  and  N_54
   21  A    between atoms: C_51  and  C_57
   22  A    between atoms: C_55  and  C_58
                            x       y       z     vdW  Elec       q    Type
                         _______ _______ _______ _____ _____    ______ ____

>  <TORSDO>
F 22

$$$$
=
 OpenBabel11052411593D

 61 68  0  0  1  0  0  0  0  0999 V2000
  161.1630  209.3590  153.2510 O   0  0  0  0  0  0  0  0  0  0  0  0
  161.0330  206.1710  151.5600 C   0  0  2  0  0  3  0  0  0  0  0  0
  161.4810  206.5890  150.1090 C   0  0  1  0  0  3  0  0  0  0  0  0
  161.4550  206.9930  152.7900 C   0  0  1  0  0  0  0  0  0  0  0  0
  161.9050  208.4940  152.4220 C   0  0  1  0  0  3  0  0  0  0  0  0
  160.4570  207.0420  153.9770 C   0  0  0  0  0  2  0  0  0  0  0  0
  161.0750  210.3650  147.4320 C   0  0  0  0  0  1  0  0  0  0  0  0
  162.0920  210.0240  148.5610 C   0  0  2  0  0  0  0  0  0  0  0  0
  160.6220  208.5470  154.3690 C   0  0  2  0  0  3  0  0  0  0  0  0
  162.0950  208.4550  148.5920 C   0  0  1  0  0  3  0  0  0  0  0  0
  162.3200  207.8800  149.9920 C   0  0  1  0  0  3  0  0  0  0  0  0
  162.1490  205.5170  149.1590 C   0  0  0  0  0  1  0  0  0  0  0  0
  161.9010  209.0190  150.9340 C   0  0  2  0  0  3  0  0  0  0  0  0
  161.6780  210.3980  150.0890 C   0  0  0  0  0  2  0  0  0  0  0  0
  162.3620  205.8320  152.1210 C   0  0  1  0  0  3  0  0  0  0  0  0
  160.8920  203.4510  152.4950 C   0  0  0  0  0  2  0  0  0  0  0  0
  160.9120  204.0220  150.9990 C   0  0  1  0  0  3  0  0  0  0  0  0
  161.9870  204.4550  152.0650 C   0  0  1  0  0  3  0  0  0  0  0  0
  161.5190  203.2510  149.8640 C   0  0  0  0  0  2  0  0  0  0  0  0
  160.0710  200.9990  148.8450 O   0  0  0  0  0  1  0  0  0  0  0  0
  161.7300  202.6420  147.8240 N   0  0  0  0  0  2  0  0  0  0  0  0
  161.2700  201.3260  148.4620 C   0  0  2  0  0  0  0  0  0  0  0  0
  160.7430  202.6910  148.8040 C   0  0  1  0  0  3  0  0  0  0  0  0
  161.1130  200.7030  147.1380 C   0  0  1  0  0  3  0  0  0  0  0  0
  161.4760  199.3700  146.9480 O   0  0  0  0  0  1  0  0  0  0  0  0
  159.9800  201.0430  146.1230 C   0  0  0  0  0  2  0  0  0  0  0  0
  159.2020  202.8430  144.5010 C   0  0  0  0  0  1  0  0  0  0  0  0
  160.4090  202.1190  145.1310 C   0  0  0  0  0  2  0  0  0  0  0  0
  159.8630  207.0760  148.2000 O   0  0  0  0  0  0  0  0  0  0  0  0
  160.9040  207.6570  147.7700 C   0  0  0  0  0  0  0  0  0  0  0  0
  161.4740  207.1800  146.6430 O   0  0  0  0  0  0  0  0  0  0  0  0
  159.5180  205.9800  145.3480 C   0  0  0  0  0  1  0  0  0  0  0  0
  160.9440  206.0290  145.8690 C   0  0  1  0  0  3  0  0  0  0  0  0
  161.9030  205.6750  144.8150 C   0  0  0  0  0  2  0  0  0  0  0  0
  161.2930  206.0620  143.5980 O   0  0  0  0  0  0  0  0  0  0  0  0
  162.2040  206.0890  142.5460 C   0  0  2  0  0  3  0  0  0  0  0  0
  163.5600  206.7780  142.8340 C   0  0  0  0  0  1  0  0  0  0  0  0
  161.5320  206.5060  141.2560 C   0  0  0  0  0  2  0  0  0  0  0  0
  162.4340  206.4080  139.1300 C   0  0  0  0  0  2  0  0  0  0  0  0
  161.7500  208.5760  140.0590 O   0  0  0  0  0  0  0  0  0  0  0  0
  161.7620  208.7390  138.7290 N   0  0  0  0  0  0  0  0  0  0  0  0
  162.4730  207.3500  140.3590 C   0  0  1  0  0  3  0  0  0  0  0  0
  161.6870  207.3610  138.1680 C   0  0  0  0  0  2  0  0  0  0  0  0
  161.1320  211.1530  137.4510 C   0  0  0  0  0  1  0  0  0  0  0  0
  159.5210  208.9840  137.9240 C   0  0  0  0  0  1  0  0  0  0  0  0
  160.7510  209.9010  138.4420 C   0  0  0  0  0  0  0  0  0  0  0  0
  160.9370  211.7850  140.2450 C   0  0  1  0  0  3  0  0  0  0  0  0
  160.2070  210.4540  139.8270 C   0  0  1  0  0  3  0  0  0  0  0  0
  159.4470  211.7920  139.8610 C   0  0  0  0  0  2  0  0  0  0  0  0
  161.4680  211.5950  141.7060 C   0  0  0  0  0  2  0  0  0  0  0  0
  162.1480  212.6570  142.3090 O   0  0  0  0  0  1  0  0  0  0  0  0
  163.4760  210.6710  148.2690 C   0  0  0  0  0  3  0  0  0  0  0  0
  163.7170  212.0190  148.4170 C   0  0  0  0  0  2  0  0  0  0  0  0
  159.3430  209.1570  155.0980 C   0  0  0  0  0  2  0  0  0  0  0  0
  158.9920  211.0260  155.3520 S   0  0  0  0  0  0  0  0  0  0  0  0
  157.4290  211.2670  155.0250 N   0  0  0  0  0  2  0  0  0  0  0  0
  156.3570  214.4350  156.5910 O   0  0  0  0  0  0  0  0  0  0  0  0
  156.8710  213.3120  156.4440 C   0  0  0  0  0  3  0  0  0  0  0  0
  156.6770  212.5380  155.2590 N   0  0  0  0  0  0  0  0  0  0  0  0
  155.7220  212.9800  154.1510 C   0  0  0  0  0  2  0  0  0  0  0  0
  156.0610  214.1570  153.3960 O   0  0  0  0  0  1  0  0  0  0  0  0
  1  9  1  0  0  0  0
  2 15  1  0  0  0  0
  2  4  1  0  0  0  0
  3  2  1  0  0  0  0
  4  6  1  0  0  0  0
  5  4  1  0  0  0  0
  5  1  1  0  0  0  0
  6  9  1  0  0  0  0
  7  8  1  0  0  0  0
  8 10  1  0  0  0  0
  8 14  1  0  0  0  0
  9 54  1  0  0  0  0
 10 11  1  0  0  0  0
 11  3  1  0  0  0  0
 11 13  1  0  0  0  0
 12  3  1  0  0  0  0
 13  5  1  0  0  0  0
 14 13  1  0  0  0  0
 15  4  1  0  0  0  0
 17 18  1  0  0  0  0
 17 16  1  0  0  0  0
 18 15  1  0  0  0  0
 18 16  1  0  0  0  0
 19 17  1  0  0  0  0
 21 22  1  0  0  0  0
 21 23  1  0  0  0  0
 22 23  1  0  0  0  0
 22 20  1  0  0  0  0
 23 19  1  0  0  0  0
 24 22  1  0  0  0  0
 25 24  1  0  0  0  0
 26 24  1  0  0  0  0
 27 28  1  0  0  0  0
 28 26  1  0  0  0  0
 30 29  2  0  0  0  0
 30 10  1  0  0  0  0
 31 30  1  0  0  0  0
 32 33  1  0  0  0  0
 33 31  1  0  0  0  0
 34 33  1  0  0  0  0
 35 34  1  0  0  0  0
 36 37  1  0  0  0  0
 36 35  1  0  0  0  0
 38 36  1  0  0  0  0
 39 42  1  0  0  0  0
 40 42  1  0  0  0  0
 41 40  1  0  0  0  0
 42 38  1  0  0  0  0
 43 41  1  0  0  0  0
 43 39  1  0  0  0  0
 44 46  1  0  0  0  0
 45 46  1  0  0  0  0
 46 41  1  0  0  0  0
 46 48  1  0  0  0  0
 47 50  1  0  0  0  0
 48 49  1  0  0  0  0
 48 47  1  0  0  0  0
 49 47  1  0  0  0  0
 50 51  1  0  0  0  0
 52 53  2  0  0  0  0
 52  8  1  0  0  0  0
 54 55  1  0  0  0  0
 56 59  1  0  0  0  0
 56 55  1  0  0  0  0
 58 57  2  0  0  0  0
 59 58  1  0  0  0  0
 60 59  1  0  0  0  0
 61 60  1  0  0  0  0
M  END
>  <MODEL>
4

>  <REMARK>
 VINA RESULT:       0.3      3.237      8.526
  Name = 
  22 active torsions:
  status: ('A' for Active; 'I' for Inactive)
    1  A    between atoms: O_5  and  C_10
    2  A    between atoms: O_5  and  C_22
    3  A    between atoms: C_8  and  C_48
    4  A    between atoms: C_8  and  C_58
    5  A    between atoms: C_9  and  C_18
    6  A    between atoms: C_10  and  C_26
    7  A    between atoms: C_11  and  C_25
    8  A    between atoms: C_11  and  C_59
    9  A    between atoms: C_13  and  C_33
   10  A    between atoms: C_13  and  S_46
   11  A    between atoms: O_14  and  C_35
   12  A    between atoms: O_14  and  C_50
   13  A    between atoms: C_19  and  C_60
   14  A    between atoms: C_22  and  C_50
   15  A    between atoms: C_26  and  C_34
   16  A    between atoms: C_27  and  C_32
   17  A    between atoms: N_30  and  C_60
   18  A    between atoms: C_31  and  N_45
   19  A    between atoms: C_35  and  C_37
   20  A    between atoms: N_45  and  N_54
   21  A    between atoms: C_51  and  C_57
   22  A    between atoms: C_55  and  C_58
                            x       y       z     vdW  Elec       q    Type
                         _______ _______ _______ _____ _____    ______ ____

>  <TORSDO>
F 22

$$$$
=
 OpenBabel11052411593D

 61 68  0  0  1  0  0  0  0  0999 V2000
  161.3230  209.5220  153.2870 O   0  0  0  0  0  0  0  0  0  0  0  0
  161.0710  206.2470  151.7840 C   0  0  2  0  0  3  0  0  0  0  0  0
  161.4790  206.5730  150.2980 C   0  0  1  0  0  3  0  0  0  0  0  0
  161.5500  207.1280  152.9520 C   0  0  1  0  0  0  0  0  0  0  0  0
  162.0190  208.5950  152.4850 C   0  0  1  0  0  3  0  0  0  0  0  0
  160.5930  207.2660  154.1650 C   0  0  0  0  0  2  0  0  0  0  0  0
  161.0640  210.2010  147.4250 C   0  0  0  0  0  1  0  0  0  0  0  0
  162.1100  209.9010  148.5390 C   0  0  2  0  0  0  0  0  0  0  0  0
  160.8030  208.7860  154.4650 C   0  0  2  0  0  3  0  0  0  0  0  0
  162.0810  208.3360  148.6590 C   0  0  1  0  0  3  0  0  0  0  0  0
  162.3400  207.8360  150.0820 C   0  0  1  0  0  3  0  0  0  0  0  0
  162.0930  205.4340  149.3900 C   0  0  0  0  0  1  0  0  0  0  0  0
  161.9760  209.0360  150.9700 C   0  0  2  0  0  3  0  0  0  0  0  0
  161.7550  210.3690  150.0550 C   0  0  0  0  0  2  0  0  0  0  0  0
  162.4100  205.9100  152.3220 C   0  0  1  0  0  3  0  0  0  0  0  0
  160.9130  203.5860  152.8910 C   0  0  0  0  0  2  0  0  0  0  0  0
  160.8680  204.0800  151.3680 C   0  0  1  0  0  3  0  0  0  0  0  0
  162.0050  204.5410  152.3560 C   0  0  1  0  0  3  0  0  0  0  0  0
  161.4010  203.2380  150.2460 C   0  0  0  0  0  2  0  0  0  0  0  0
  159.6810  201.4030  148.8740 O   0  0  0  0  0  1  0  0  0  0  0  0
  161.6930  202.8000  148.1720 N   0  0  0  0  0  2  0  0  0  0  0  0
  160.9500  201.5370  148.6220 C   0  0  2  0  0  0  0  0  0  0  0  0
  160.6420  202.9370  149.0750 C   0  0  1  0  0  3  0  0  0  0  0  0
  160.8120  201.0850  147.2290 C   0  0  1  0  0  3  0  0  0  0  0  0
  160.4460  201.9920  146.2350 O   0  0  0  0  0  1  0  0  0  0  0  0
  161.6750  199.9670  146.5670 C   0  0  0  0  0  2  0  0  0  0  0  0
  160.1010  199.9200  144.5680 C   0  0  0  0  0  1  0  0  0  0  0  0
  160.8490  199.0910  145.6320 C   0  0  0  0  0  2  0  0  0  0  0  0
  159.8300  206.9540  148.4210 O   0  0  0  0  0  0  0  0  0  0  0  0
  160.8470  207.5210  147.9220 C   0  0  0  0  0  0  0  0  0  0  0  0
  161.3570  207.0120  146.7790 O   0  0  0  0  0  0  0  0  0  0  0  0
  159.3920  206.0210  145.3310 C   0  0  0  0  0  1  0  0  0  0  0  0
  160.7380  205.8960  146.0210 C   0  0  1  0  0  3  0  0  0  0  0  0
  161.7410  205.3120  145.1210 C   0  0  0  0  0  2  0  0  0  0  0  0
  161.1860  205.4020  143.8220 O   0  0  0  0  0  0  0  0  0  0  0  0
  162.1420  205.7450  142.8710 C   0  0  2  0  0  3  0  0  0  0  0  0
  163.3210  206.6150  143.3710 C   0  0  0  0  0  1  0  0  0  0  0  0
  161.4890  206.2210  141.5910 C   0  0  0  0  0  2  0  0  0  0  0  0
  162.2360  206.3170  139.4060 C   0  0  0  0  0  2  0  0  0  0  0  0
  161.8420  208.3990  140.6470 O   0  0  0  0  0  0  0  0  0  0  0  0
  161.7840  208.7330  139.3500 N   0  0  0  0  0  0  0  0  0  0  0  0
  162.4520  207.0820  140.7350 C   0  0  1  0  0  3  0  0  0  0  0  0
  161.5300  207.4540  138.6300 C   0  0  0  0  0  2  0  0  0  0  0  0
  159.2540  209.9160  139.1010 C   0  0  0  0  0  1  0  0  0  0  0  0
  161.3590  210.6710  140.6890 C   0  0  0  0  0  1  0  0  0  0  0  0
  160.8820  210.0130  139.2890 C   0  0  0  0  0  0  0  0  0  0  0  0
  162.2170  212.2290  138.9060 C   0  0  1  0  0  3  0  0  0  0  0  0
  161.4920  211.0130  138.2160 C   0  0  1  0  0  3  0  0  0  0  0  0
  163.0180  211.1770  138.1180 C   0  0  0  0  0  2  0  0  0  0  0  0
  161.6370  213.5420  138.2810 C   0  0  0  0  0  2  0  0  0  0  0  0
  162.3710  214.1790  137.2760 O   0  0  0  0  0  1  0  0  0  0  0  0
  163.4960  210.4980  148.1670 C   0  0  0  0  0  3  0  0  0  0  0  0
  163.6950  211.8430  147.9430 C   0  0  0  0  0  2  0  0  0  0  0  0
  159.5610  209.4650  155.1980 C   0  0  0  0  0  2  0  0  0  0  0  0
  158.4930  210.8930  154.4880 S   0  0  0  0  0  0  0  0  0  0  0  0
  159.5000  211.9250  153.7610 N   0  0  0  0  0  2  0  0  0  0  0  0
  159.2160  214.1850  150.8540 O   0  0  0  0  0  0  0  0  0  0  0  0
  159.6430  213.3000  151.6170 C   0  0  0  0  0  3  0  0  0  0  0  0
  159.0930  213.0920  152.9200 N   0  0  0  0  0  0  0  0  0  0  0  0
  158.0350  214.0230  153.5100 C   0  0  0  0  0  2  0  0  0  0  0  0
  158.1120  214.3300  154.9140 O   0  0  0  0  0  1  0  0  0  0  0  0
  1  9  1  0  0  0  0
  2 15  1  0  0  0  0
  2  4  1  0  0  0  0
  3  2  1  0  0  0  0
  4  6  1  0  0  0  0
  5  4  1  0  0  0  0
  5  1  1  0  0  0  0
  6  9  1  0  0  0  0
  7  8  1  0  0  0  0
  8 10  1  0  0  0  0
  8 14  1  0  0  0  0
  9 54  1  0  0  0  0
 10 11  1  0  0  0  0
 11  3  1  0  0  0  0
 11 13  1  0  0  0  0
 12  3  1  0  0  0  0
 13  5  1  0  0  0  0
 14 13  1  0  0  0  0
 15 18  1  0  0  0  0
 15  4  1  0  0  0  0
 17 18  1  0  0  0  0
 17 16  1  0  0  0  0
 18 16  1  0  0  0  0
 19 17  1  0  0  0  0
 21 22  1  0  0  0  0
 21 23  1  0  0  0  0
 22 20  1  0  0  0  0
 22 23  1  0  0  0  0
 23 19  1  0  0  0  0
 24 22  1  0  0  0  0
 25 24  1  0  0  0  0
 26 24  1  0  0  0  0
 27 28  1  0  0  0  0
 28 26  1  0  0  0  0
 30 29  2  0  0  0  0
 30 10  1  0  0  0  0
 31 30  1  0  0  0  0
 32 33  1  0  0  0  0
 33 31  1  0  0  0  0
 34 33  1  0  0  0  0
 35 34  1  0  0  0  0
 36 37  1  0  0  0  0
 36 35  1  0  0  0  0
 38 36  1  0  0  0  0
 39 42  1  0  0  0  0
 40 42  1  0  0  0  0
 41 40  1  0  0  0  0
 42 38  1  0  0  0  0
 43 41  1  0  0  0  0
 43 39  1  0  0  0  0
 44 46  1  0  0  0  0
 46 41  1  0  0  0  0
 46 45  1  0  0  0  0
 48 47  1  0  0  0  0
 48 46  1  0  0  0  0
 49 48  1  0  0  0  0
 49 47  1  0  0  0  0
 50 47  1  0  0  0  0
 51 50  1  0  0  0  0
 52  8  1  0  0  0  0
 53 52  2  0  0  0  0
 55 54  1  0  0  0  0
 56 55  1  0  0  0  0
 57 58  2  0  0  0  0
 58 59  1  0  0  0  0
 59 60  1  0  0  0  0
 59 56  1  0  0  0  0
 60 61  1  0  0  0  0
M  END
>  <MODEL>
5

>  <REMARK>
 VINA RESULT:       1.2      3.402      8.197
  Name = 
  22 active torsions:
  status: ('A' for Active; 'I' for Inactive)
    1  A    between atoms: O_5  and  C_10
    2  A    between atoms: O_5  and  C_22
    3  A    between atoms: C_8  and  C_48
    4  A    between atoms: C_8  and  C_58
    5  A    between atoms: C_9  and  C_18
    6  A    between atoms: C_10  and  C_26
    7  A    between atoms: C_11  and  C_25
    8  A    between atoms: C_11  and  C_59
    9  A    between atoms: C_13  and  C_33
   10  A    between atoms: C_13  and  S_46
   11  A    between atoms: O_14  and  C_35
   12  A    between atoms: O_14  and  C_50
   13  A    between atoms: C_19  and  C_60
   14  A    between atoms: C_22  and  C_50
   15  A    between atoms: C_26  and  C_34
   16  A    between atoms: C_27  and  C_32
   17  A    between atoms: N_30  and  C_60
   18  A    between atoms: C_31  and  N_45
   19  A    between atoms: C_35  and  C_37
   20  A    between atoms: N_45  and  N_54
   21  A    between atoms: C_51  and  C_57
   22  A    between atoms: C_55  and  C_58
                            x       y       z     vdW  Elec       q    Type
                         _______ _______ _______ _____ _____    ______ ____

>  <TORSDO>
F 22

$$$$
=
 OpenBabel11052411593D

 61 68  0  0  1  0  0  0  0  0999 V2000
  160.5730  212.5720  150.3260 O   0  0  0  0  0  0  0  0  0  0  0  0
  160.3720  210.2400  153.0760 C   0  0  2  0  0  3  0  0  0  0  0  0
  160.9970  208.9530  152.4170 C   0  0  1  0  0  3  0  0  0  0  0  0
  160.7270  211.6480  152.5650 C   0  0  1  0  0  0  0  0  0  0  0  0
  161.3270  211.6450  151.0720 C   0  0  1  0  0  3  0  0  0  0  0  0
  159.6180  212.7290  152.6610 C   0  0  0  0  0  2  0  0  0  0  0  0
  161.1640  207.1120  148.1540 C   0  0  0  0  0  1  0  0  0  0  0  0
  162.0300  208.2250  148.8150 C   0  0  2  0  0  0  0  0  0  0  0  0
  159.8590  213.4430  151.2920 C   0  0  2  0  0  3  0  0  0  0  0  0
  161.9080  207.9230  150.3500 C   0  0  1  0  0  3  0  0  0  0  0  0
  161.9410  209.1840  151.2170 C   0  0  1  0  0  3  0  0  0  0  0  0
  161.6750  207.8580  153.3330 C   0  0  0  0  0  1  0  0  0  0  0  0
  161.5170  210.3060  150.2570 C   0  0  2  0  0  3  0  0  0  0  0  0
  161.4910  209.7570  148.7210 C   0  0  0  0  0  2  0  0  0  0  0  0
  161.6050  210.8270  153.6490 C   0  0  1  0  0  3  0  0  0  0  0  0
  161.4560  209.5680  156.1710 C   0  0  0  0  0  2  0  0  0  0  0  0
  161.7880  211.1350  156.2010 C   0  0  1  0  0  3  0  0  0  0  0  0
  161.1320  210.4500  154.9430 C   0  0  1  0  0  3  0  0  0  0  0  0
  160.8690  212.1280  156.8480 C   0  0  0  0  0  2  0  0  0  0  0  0
  158.4620  211.5840  155.3920 O   0  0  0  0  0  1  0  0  0  0  0  0
  159.0970  213.2790  157.1860 N   0  0  0  0  0  2  0  0  0  0  0  0
  158.8340  212.7740  155.7630 C   0  0  2  0  0  0  0  0  0  0  0  0
  159.4510  211.9700  156.8730 C   0  0  1  0  0  3  0  0  0  0  0  0
  157.4570  213.2900  155.8010 C   0  0  1  0  0  3  0  0  0  0  0  0
  156.7970  213.6020  154.6130 O   0  0  0  0  0  1  0  0  0  0  0  0
  156.3830  212.8830  156.8560 C   0  0  0  0  0  2  0  0  0  0  0  0
  155.3500  210.6430  156.2330 C   0  0  0  0  0  1  0  0  0  0  0  0
  155.1950  212.1770  156.2130 C   0  0  0  0  0  2  0  0  0  0  0  0
  159.8980  206.9440  151.7780 O   0  0  0  0  0  0  0  0  0  0  0  0
  160.7490  206.8530  150.8450 C   0  0  0  0  0  0  0  0  0  0  0  0
  161.2070  205.6230  150.5250 O   0  0  0  0  0  0  0  0  0  0  0  0
  161.2830  204.6720  152.9810 C   0  0  0  0  0  1  0  0  0  0  0  0
  161.2510  204.4830  151.4750 C   0  0  1  0  0  3  0  0  0  0  0  0
  160.2360  203.4950  151.0870 C   0  0  0  0  0  2  0  0  0  0  0  0
  160.8340  202.7110  150.0720 O   0  0  0  0  0  0  0  0  0  0  0  0
  160.5490  201.3580  150.2240 C   0  0  2  0  0  3  0  0  0  0  0  0
  161.3350  200.6150  151.3310 C   0  0  0  0  0  1  0  0  0  0  0  0
  160.5090  200.6570  148.8830 C   0  0  0  0  0  2  0  0  0  0  0  0
  161.3510  200.1290  146.7960 C   0  0  0  0  0  2  0  0  0  0  0  0
  161.7730  202.3530  147.7480 O   0  0  0  0  0  0  0  0  0  0  0  0
  161.9290  202.4900  146.4240 N   0  0  0  0  0  0  0  0  0  0  0  0
  161.7860  200.9300  148.0480 C   0  0  1  0  0  3  0  0  0  0  0  0
  161.2150  201.3270  145.8260 C   0  0  0  0  0  2  0  0  0  0  0  0
  160.5650  204.8670  147.0170 C   0  0  0  0  0  1  0  0  0  0  0  0
  163.1610  204.5300  146.2020 C   0  0  0  0  0  1  0  0  0  0  0  0
  161.6340  203.9990  146.1230 C   0  0  0  0  0  0  0  0  0  0  0  0
  159.8660  204.7730  144.3580 C   0  0  1  0  0  3  0  0  0  0  0  0
  161.2970  204.1520  144.5790 C   0  0  1  0  0  3  0  0  0  0  0  0
  161.1330  205.5590  143.9770 C   0  0  0  0  0  2  0  0  0  0  0  0
  159.0880  203.8310  143.3790 C   0  0  0  0  0  2  0  0  0  0  0  0
  157.9230  203.2100  143.8410 O   0  0  0  0  0  1  0  0  0  0  0  0
  163.4820  208.1950  148.2610 C   0  0  0  0  0  3  0  0  0  0  0  0
  164.3310  207.1260  148.4470 C   0  0  0  0  0  2  0  0  0  0  0  0
  158.5620  214.1730  150.7210 C   0  0  0  0  0  2  0  0  0  0  0  0
  158.1340  214.3900  148.8630 S   0  0  0  0  0  0  0  0  0  0  0  0
  159.2450  213.5770  148.0190 N   0  0  0  0  0  2  0  0  0  0  0  0
  160.2510  212.4020  144.6650 O   0  0  0  0  0  0  0  0  0  0  0  0
  160.3180  212.7430  145.8600 C   0  0  0  0  0  3  0  0  0  0  0  0
  159.2070  213.3240  146.5460 N   0  0  0  0  0  0  0  0  0  0  0  0
  157.9090  213.6840  145.8250 C   0  0  0  0  0  2  0  0  0  0  0  0
  156.7520  212.8630  146.0660 O   0  0  0  0  0  1  0  0  0  0  0  0
  1  5  1  0  0  0  0
  1  9  1  0  0  0  0
  2 15  1  0  0  0  0
  3  2  1  0  0  0  0
  3 12  1  0  0  0  0
  4  6  1  0  0  0  0
  4  2  1  0  0  0  0
  4 15  1  0  0  0  0
  5  4  1  0  0  0  0
  7  8  1  0  0  0  0
  8 10  1  0  0  0  0
  9  6  1  0  0  0  0
 10 30  1  0  0  0  0
 10 11  1  0  0  0  0
 11  3  1  0  0  0  0
 13  5  1  0  0  0  0
 13 11  1  0  0  0  0
 14  8  1  0  0  0  0
 14 13  1  0  0  0  0
 15 18  1  0  0  0  0
 16 17  1  0  0  0  0
 17 19  1  0  0  0  0
 18 16  1  0  0  0  0
 18 17  1  0  0  0  0
 19 23  1  0  0  0  0
 20 22  1  0  0  0  0
 22 24  1  0  0  0  0
 22 23  1  0  0  0  0
 22 21  1  0  0  0  0
 23 21  1  0  0  0  0
 24 26  1  0  0  0  0
 25 24  1  0  0  0  0
 28 27  1  0  0  0  0
 28 26  1  0  0  0  0
 30 29  2  0  0  0  0
 31 30  1  0  0  0  0
 31 33  1  0  0  0  0
 33 32  1  0  0  0  0
 34 33  1  0  0  0  0
 35 36  1  0  0  0  0
 35 34  1  0  0  0  0
 36 37  1  0  0  0  0
 38 36  1  0  0  0  0
 39 42  1  0  0  0  0
 40 42  1  0  0  0  0
 41 40  1  0  0  0  0
 42 38  1  0  0  0  0
 43 41  1  0  0  0  0
 43 39  1  0  0  0  0
 46 45  1  0  0  0  0
 46 41  1  0  0  0  0
 46 44  1  0  0  0  0
 47 48  1  0  0  0  0
 48 46  1  0  0  0  0
 49 47  1  0  0  0  0
 49 48  1  0  0  0  0
 50 51  1  0  0  0  0
 50 47  1  0  0  0  0
 52 53  2  0  0  0  0
 52  8  1  0  0  0  0
 54  9  1  0  0  0  0
 55 54  1  0  0  0  0
 56 55  1  0  0  0  0
 57 58  2  0  0  0  0
 58 59  1  0  0  0  0
 59 56  1  0  0  0  0
 60 61  1  0  0  0  0
 60 59  1  0  0  0  0
M  END
>  <MODEL>
6

>  <REMARK>
 VINA RESULT:       1.8      1.611      2.065
  Name = 
  22 active torsions:
  status: ('A' for Active; 'I' for Inactive)
    1  A    between atoms: O_5  and  C_10
    2  A    between atoms: O_5  and  C_22
    3  A    between atoms: C_8  and  C_48
    4  A    between atoms: C_8  and  C_58
    5  A    between atoms: C_9  and  C_18
    6  A    between atoms: C_10  and  C_26
    7  A    between atoms: C_11  and  C_25
    8  A    between atoms: C_11  and  C_59
    9  A    between atoms: C_13  and  C_33
   10  A    between atoms: C_13  and  S_46
   11  A    between atoms: O_14  and  C_35
   12  A    between atoms: O_14  and  C_50
   13  A    between atoms: C_19  and  C_60
   14  A    between atoms: C_22  and  C_50
   15  A    between atoms: C_26  and  C_34
   16  A    between atoms: C_27  and  C_32
   17  A    between atoms: N_30  and  C_60
   18  A    between atoms: C_31  and  N_45
   19  A    between atoms: C_35  and  C_37
   20  A    between atoms: N_45  and  N_54
   21  A    between atoms: C_51  and  C_57
   22  A    between atoms: C_55  and  C_58
                            x       y       z     vdW  Elec       q    Type
                         _______ _______ _______ _____ _____    ______ ____

>  <TORSDO>
F 22

$$$$
