=
 OpenBabel11052410583D

 37 41  0  0  1  0  0  0  0  0999 V2000
  160.9010  202.3470  150.1860 C   0  0  0  0  0  0  0  0  0  0  0  0
  160.7650  201.0420  149.4910 C   0  0  0  0  0  1  0  0  0  0  0  0
  161.3430  203.5790  152.2160 N   0  0  0  0  0  0  0  0  0  0  0  0
  160.8470  204.7340  150.1850 C   0  0  0  0  0  0  0  0  0  0  0  0
  161.2210  205.9820  152.0130 N   0  0  0  0  0  0  0  0  0  0  0  0
  160.7110  203.5450  149.4770 C   0  0  0  0  0  3  0  0  0  0  0  0
  161.2220  202.3850  151.5610 C   0  0  0  0  0  3  0  0  0  0  0  0
  161.1460  204.7310  151.5240 C   0  0  0  0  0  0  0  0  0  0  0  0
  160.7340  206.0590  149.8100 C   0  0  0  0  0  0  0  0  0  0  0  0
  161.5870  206.3460  153.3760 C   0  0  0  0  0  1  0  0  0  0  0  0
  160.9710  206.8030  150.9560 C   0  0  0  0  0  0  0  0  0  0  0  0
  160.9670  208.2010  150.9840 O   0  0  0  0  0  0  0  0  0  0  0  0
  162.0800  208.9870  150.5870 C   0  0  0  0  0  2  0  0  0  0  0  0
  161.9450  210.3770  151.1780 C   0  0  0  0  0  2  0  0  0  0  0  0
  161.5960  211.3600  150.1160 C   0  0  0  0  0  0  0  0  0  0  0  0
  161.3050  212.6750  148.0840 C   0  0  0  0  0  0  0  0  0  0  0  0
  160.8540  212.4690  150.3390 N   0  0  0  0  0  0  0  0  0  0  0  0
  162.0610  211.2260  148.5050 S   0  0  0  0  0  0  0  0  0  0  0  0
  160.6860  213.2080  149.2100 C   0  0  0  0  0  3  0  0  0  0  0  0
  160.2300  212.8350  144.3620 C   0  0  0  0  0  2  0  0  0  0  0  0
  161.2460  213.2770  146.7150 C   0  0  1  0  0  3  0  0  0  0  0  0
  161.3870  213.7520  143.9500 C   0  0  0  0  0  2  0  0  0  0  0  0
  162.5640  213.1280  146.0030 C   0  0  0  0  0  3  0  0  0  0  0  0
  162.6340  213.3600  144.6870 C   0  0  0  0  0  3  0  0  0  0  0  0
  160.0740  212.6980  145.8930 C   0  0  1  0  0  3  0  0  0  0  0  0
  158.7600  213.2570  146.3460 C   0  0  0  0  0  0  0  0  0  0  0  0
  157.5580  212.3800  146.3760 C   0  0  0  0  0  1  0  0  0  0  0  0
  158.6650  214.4250  146.6850 O   0  0  0  0  0  0  0  0  0  0  0  0
  160.4160  206.5920  148.5570 O   0  0  0  0  0  0  0  0  0  0  0  0
  161.3630  207.2640  147.7400 C   0  0  0  0  0  2  0  0  0  0  0  0
  162.3780  206.2710  147.1820 C   0  0  0  0  0  2  0  0  0  0  0  0
  161.7310  205.2680  146.3500 N   0  0  0  0  0  0  0  0  0  0  0  0
  161.1520  205.6920  145.0720 C   0  0  0  0  0  2  0  0  0  0  0  0
  160.3360  204.6010  144.4290 C   0  0  0  0  0  3  0  0  0  0  0  0
  160.4530  203.3250  144.8020 C   0  0  0  0  0  3  0  0  0  0  0  0
  161.3400  202.9410  145.9090 C   0  0  0  0  0  3  0  0  0  0  0  0
  161.9410  203.8780  146.6410 C   0  0  0  0  0  3  0  0  0  0  0  0
  1  7  1  0  0  0  0
  2  1  1  0  0  0  0
  4  8  2  0  0  0  0
  5 10  1  0  0  0  0
  6  4  1  0  0  0  0
  6  1  2  0  0  0  0
  7  3  2  0  0  0  0
  8  5  1  0  0  0  0
  8  3  1  0  0  0  0
  9  4  1  0  0  0  0
  9 11  2  0  0  0  0
 11 12  1  0  0  0  0
 11  5  1  0  0  0  0
 13 12  1  0  0  0  0
 13 14  1  0  0  0  0
 15 17  2  0  0  0  0
 15 14  1  0  0  0  0
 16 18  1  0  0  0  0
 16 19  2  0  0  0  0
 18 15  1  0  0  0  0
 19 17  1  0  0  0  0
 20 25  1  0  0  0  0
 21 16  1  1  0  0  0
 22 20  1  0  0  0  0
 22 24  1  0  0  0  0
 23 21  1  0  0  0  0
 24 23  2  0  0  0  0
 25 26  1  1  0  0  0
 25 21  1  0  0  0  0
 26 27  1  0  0  0  0
 26 28  2  0  0  0  0
 29  9  1  0  0  0  0
 30 29  1  0  0  0  0
 31 30  1  0  0  0  0
 32 37  1  0  0  0  0
 32 31  1  0  0  0  0
 33 32  1  0  0  0  0
 34 35  2  0  0  0  0
 34 33  1  0  0  0  0
 35 36  1  0  0  0  0
 36 37  2  0  0  0  0
M  END
>  <MODEL>
1

>  <REMARK>
 VINA RESULT:      -8.4      0.000      0.000
  Name = 
  10 active torsions:
  status: ('A' for Active; 'I' for Inactive)
    1  A    between atoms: C_3  and  C_26
    2  A    between atoms: O_4  and  C_18
    3  A    between atoms: O_4  and  C_37
    4  A    between atoms: C_5  and  C_13
    5  A    between atoms: N_8  and  C_23
    6  A    between atoms: C_9  and  C_34
    7  A    between atoms: C_18  and  C_26
    8  A    between atoms: C_19  and  C_23
    9  A    between atoms: C_19  and  O_36
   10  A    between atoms: C_32  and  O_36
                            x       y       z     vdW  Elec       q    Type
                         _______ _______ _______ _____ _____    ______ ____

>  <TORSDO>
F 10

$$$$
=
 OpenBabel11052410583D

 37 41  0  0  1  0  0  0  0  0999 V2000
  160.9400  202.1780  150.2100 C   0  0  0  0  0  0  0  0  0  0  0  0
  160.8560  200.8010  149.6610 C   0  0  0  0  0  1  0  0  0  0  0  0
  161.1890  203.6390  152.1180 N   0  0  0  0  0  0  0  0  0  0  0  0
  160.9280  204.5490  149.9250 C   0  0  0  0  0  0  0  0  0  0  0  0
  161.1300  206.0020  151.6240 N   0  0  0  0  0  0  0  0  0  0  0  0
  160.8460  203.2860  149.3500 C   0  0  0  0  0  3  0  0  0  0  0  0
  161.1180  202.3760  151.5980 C   0  0  0  0  0  3  0  0  0  0  0  0
  161.0860  204.7020  151.2790 C   0  0  0  0  0  0  0  0  0  0  0  0
  160.8770  205.8220  149.3880 C   0  0  0  0  0  0  0  0  0  0  0  0
  161.3580  206.5220  152.9670 C   0  0  0  0  0  1  0  0  0  0  0  0
  161.0050  206.6940  150.4590 C   0  0  0  0  0  0  0  0  0  0  0  0
  161.0220  208.0850  150.3220 O   0  0  0  0  0  0  0  0  0  0  0  0
  162.1920  208.8180  149.9940 C   0  0  0  0  0  2  0  0  0  0  0  0
  161.9400  210.2940  150.2320 C   0  0  0  0  0  2  0  0  0  0  0  0
  161.6350  210.5430  151.6670 C   0  0  0  0  0  0  0  0  0  0  0  0
  160.7590  211.2230  153.8370 C   0  0  0  0  0  0  0  0  0  0  0  0
  162.3900  210.0660  152.6840 N   0  0  0  0  0  0  0  0  0  0  0  0
  160.3190  211.4310  152.2210 S   0  0  0  0  0  0  0  0  0  0  0  0
  161.9070  210.4410  153.8990 C   0  0  0  0  0  3  0  0  0  0  0  0
  157.9410  211.1920  156.5000 C   0  0  0  0  0  2  0  0  0  0  0  0
  160.0150  211.7380  155.0300 C   0  0  1  0  0  3  0  0  0  0  0  0
  158.0560  212.6890  156.8050 C   0  0  0  0  0  2  0  0  0  0  0  0
  159.2500  212.9900  154.6900 C   0  0  0  0  0  3  0  0  0  0  0  0
  158.3210  213.4470  155.5370 C   0  0  0  0  0  3  0  0  0  0  0  0
  159.1050  210.6510  155.6410 C   0  0  1  0  0  3  0  0  0  0  0  0
  159.9020  209.6370  156.4040 C   0  0  0  0  0  0  0  0  0  0  0  0
  159.7160  208.1880  156.1180 C   0  0  0  0  0  1  0  0  0  0  0  0
  160.6970  209.9870  157.2600 O   0  0  0  0  0  0  0  0  0  0  0  0
  160.7000  206.2040  148.0550 O   0  0  0  0  0  0  0  0  0  0  0  0
  161.7590  206.6910  147.2440 C   0  0  0  0  0  2  0  0  0  0  0  0
  162.5260  205.5280  146.6240 C   0  0  0  0  0  2  0  0  0  0  0  0
  161.6290  204.6120  145.9370 N   0  0  0  0  0  0  0  0  0  0  0  0
  160.9270  205.0900  144.7420 C   0  0  0  0  0  2  0  0  0  0  0  0
  159.8810  204.1140  144.2700 C   0  0  0  0  0  3  0  0  0  0  0  0
  159.8760  202.8410  144.6730 C   0  0  0  0  0  3  0  0  0  0  0  0
  160.8580  202.3560  145.6530 C   0  0  0  0  0  3  0  0  0  0  0  0
  161.6860  203.2120  146.2490 C   0  0  0  0  0  3  0  0  0  0  0  0
  1  7  1  0  0  0  0
  2  1  1  0  0  0  0
  4  8  2  0  0  0  0
  5 10  1  0  0  0  0
  6  4  1  0  0  0  0
  6  1  2  0  0  0  0
  7  3  2  0  0  0  0
  8  5  1  0  0  0  0
  8  3  1  0  0  0  0
  9  4  1  0  0  0  0
  9 11  2  0  0  0  0
 11  5  1  0  0  0  0
 12 11  1  0  0  0  0
 13 14  1  0  0  0  0
 13 12  1  0  0  0  0
 14 15  1  0  0  0  0
 15 18  1  0  0  0  0
 15 17  2  0  0  0  0
 16 19  2  0  0  0  0
 17 19  1  0  0  0  0
 18 16  1  0  0  0  0
 20 22  1  0  0  0  0
 21 16  1  6  0  0  0
 21 25  1  0  0  0  0
 23 21  1  0  0  0  0
 23 24  2  0  0  0  0
 24 22  1  0  0  0  0
 25 26  1  1  0  0  0
 25 20  1  0  0  0  0
 26 28  2  0  0  0  0
 27 26  1  0  0  0  0
 29  9  1  0  0  0  0
 30 29  1  0  0  0  0
 31 30  1  0  0  0  0
 32 37  1  0  0  0  0
 32 31  1  0  0  0  0
 33 32  1  0  0  0  0
 34 35  2  0  0  0  0
 34 33  1  0  0  0  0
 35 36  1  0  0  0  0
 36 37  2  0  0  0  0
M  END
>  <MODEL>
2

>  <REMARK>
 VINA RESULT:      -8.1      3.308      5.709
  Name = 
  10 active torsions:
  status: ('A' for Active; 'I' for Inactive)
    1  A    between atoms: C_3  and  C_26
    2  A    between atoms: O_4  and  C_18
    3  A    between atoms: O_4  and  C_37
    4  A    between atoms: C_5  and  C_13
    5  A    between atoms: N_8  and  C_23
    6  A    between atoms: C_9  and  C_34
    7  A    between atoms: C_18  and  C_26
    8  A    between atoms: C_19  and  C_23
    9  A    between atoms: C_19  and  O_36
   10  A    between atoms: C_32  and  O_36
                            x       y       z     vdW  Elec       q    Type
                         _______ _______ _______ _____ _____    ______ ____

>  <TORSDO>
F 10

$$$$
=
 OpenBabel11052410583D

 37 41  0  0  1  0  0  0  0  0999 V2000
  160.9060  201.7170  147.7900 C   0  0  0  0  0  0  0  0  0  0  0  0
  160.9040  201.0220  146.4780 C   0  0  0  0  0  1  0  0  0  0  0  0
  161.0820  201.6050  150.1970 N   0  0  0  0  0  0  0  0  0  0  0  0
  160.7390  203.7020  149.1060 C   0  0  0  0  0  0  0  0  0  0  0  0
  160.8660  203.7170  151.3470 N   0  0  0  0  0  0  0  0  0  0  0  0
  160.7320  203.1100  147.8480 C   0  0  0  0  0  3  0  0  0  0  0  0
  161.0850  200.9780  148.9810 C   0  0  0  0  0  3  0  0  0  0  0  0
  160.9010  202.9500  150.2410 C   0  0  0  0  0  0  0  0  0  0  0  0
  160.6010  205.0140  149.5190 C   0  0  0  0  0  0  0  0  0  0  0  0
  161.0750  203.2550  152.7140 C   0  0  0  0  0  1  0  0  0  0  0  0
  160.6850  204.9910  150.9030 C   0  0  0  0  0  0  0  0  0  0  0  0
  160.6110  206.1370  151.7000 O   0  0  0  0  0  0  0  0  0  0  0  0
  161.7160  206.6450  152.4320 C   0  0  0  0  0  2  0  0  0  0  0  0
  161.3000  206.8660  153.8730 C   0  0  0  0  0  2  0  0  0  0  0  0
  160.8900  208.2810  154.0830 C   0  0  0  0  0  0  0  0  0  0  0  0
  160.2110  210.6170  153.9260 C   0  0  0  0  0  0  0  0  0  0  0  0
  160.7850  208.8560  155.3030 N   0  0  0  0  0  0  0  0  0  0  0  0
  160.4950  209.3510  152.8470 S   0  0  0  0  0  0  0  0  0  0  0  0
  160.4050  210.1590  155.2250 C   0  0  0  0  0  3  0  0  0  0  0  0
  157.5980  213.3440  153.0460 C   0  0  0  0  0  2  0  0  0  0  0  0
  159.7620  212.0000  153.5690 C   0  0  1  0  0  3  0  0  0  0  0  0
  158.6120  214.2480  152.3380 C   0  0  0  0  0  2  0  0  0  0  0  0
  160.1290  212.3370  152.1480 C   0  0  0  0  0  3  0  0  0  0  0  0
  159.5870  213.4110  151.5630 C   0  0  0  0  0  3  0  0  0  0  0  0
  158.2540  212.1920  153.8400 C   0  0  1  0  0  3  0  0  0  0  0  0
  157.9750  212.3310  155.3060 C   0  0  0  0  0  0  0  0  0  0  0  0
  156.9050  211.5080  155.9320 C   0  0  0  0  0  1  0  0  0  0  0  0
  158.6130  213.1160  155.9880 O   0  0  0  0  0  0  0  0  0  0  0  0
  160.3850  206.1580  148.7450 O   0  0  0  0  0  0  0  0  0  0  0  0
  161.2650  207.2730  148.7530 C   0  0  0  0  0  2  0  0  0  0  0  0
  162.4210  207.0390  147.7850 C   0  0  0  0  0  2  0  0  0  0  0  0
  162.0180  206.1870  146.6770 N   0  0  0  0  0  0  0  0  0  0  0  0
  160.8000  206.5340  145.9400 C   0  0  0  0  0  2  0  0  0  0  0  0
  160.3950  205.4530  144.9730 C   0  0  0  0  0  3  0  0  0  0  0  0
  161.2460  204.5000  144.5890 C   0  0  0  0  0  3  0  0  0  0  0  0
  162.6020  204.4280  145.1520 C   0  0  0  0  0  3  0  0  0  0  0  0
  162.9550  205.2370  146.1490 C   0  0  0  0  0  3  0  0  0  0  0  0
  1  6  2  0  0  0  0
  1  7  1  0  0  0  0
  2  1  1  0  0  0  0
  3  8  1  0  0  0  0
  4  9  1  0  0  0  0
  4  8  2  0  0  0  0
  5 10  1  0  0  0  0
  6  4  1  0  0  0  0
  7  3  2  0  0  0  0
  8  5  1  0  0  0  0
  9 11  2  0  0  0  0
 11  5  1  0  0  0  0
 11 12  1  0  0  0  0
 12 13  1  0  0  0  0
 13 14  1  0  0  0  0
 14 15  1  0  0  0  0
 15 17  2  0  0  0  0
 16 19  2  0  0  0  0
 18 16  1  0  0  0  0
 18 15  1  0  0  0  0
 19 17  1  0  0  0  0
 20 25  1  0  0  0  0
 21 25  1  0  0  0  0
 21 16  1  6  0  0  0
 22 20  1  0  0  0  0
 23 21  1  0  0  0  0
 24 23  2  0  0  0  0
 24 22  1  0  0  0  0
 25 26  1  1  0  0  0
 26 27  1  0  0  0  0
 26 28  2  0  0  0  0
 29 30  1  0  0  0  0
 29  9  1  0  0  0  0
 31 30  1  0  0  0  0
 32 31  1  0  0  0  0
 33 32  1  0  0  0  0
 34 33  1  0  0  0  0
 35 34  2  0  0  0  0
 35 36  1  0  0  0  0
 36 37  2  0  0  0  0
 37 32  1  0  0  0  0
M  END
>  <MODEL>
3

>  <REMARK>
 VINA RESULT:      -7.9      3.765      5.005
  Name = 
  10 active torsions:
  status: ('A' for Active; 'I' for Inactive)
    1  A    between atoms: C_3  and  C_26
    2  A    between atoms: O_4  and  C_18
    3  A    between atoms: O_4  and  C_37
    4  A    between atoms: C_5  and  C_13
    5  A    between atoms: N_8  and  C_23
    6  A    between atoms: C_9  and  C_34
    7  A    between atoms: C_18  and  C_26
    8  A    between atoms: C_19  and  C_23
    9  A    between atoms: C_19  and  O_36
   10  A    between atoms: C_32  and  O_36
                            x       y       z     vdW  Elec       q    Type
                         _______ _______ _______ _____ _____    ______ ____

>  <TORSDO>
F 10

$$$$
=
 OpenBabel11052410583D

 37 41  0  0  1  0  0  0  0  0999 V2000
  160.8970  202.3830  149.4430 C   0  0  0  0  0  0  0  0  0  0  0  0
  160.7340  200.9430  149.7670 C   0  0  0  0  0  1  0  0  0  0  0  0
  161.3730  204.1010  147.8120 N   0  0  0  0  0  0  0  0  0  0  0  0
  160.9080  204.6830  150.0810 C   0  0  0  0  0  0  0  0  0  0  0  0
  161.3560  206.3620  148.6600 N   0  0  0  0  0  0  0  0  0  0  0  0
  160.7380  203.3530  150.4470 C   0  0  0  0  0  3  0  0  0  0  0  0
  161.2120  202.7790  148.1230 C   0  0  0  0  0  3  0  0  0  0  0  0
  161.2280  205.0290  148.7930 C   0  0  0  0  0  0  0  0  0  0  0  0
  160.8250  205.8630  150.7970 C   0  0  0  0  0  0  0  0  0  0  0  0
  161.6210  207.0740  147.4160 C   0  0  0  0  0  1  0  0  0  0  0  0
  161.1040  206.8790  149.8940 C   0  0  0  0  0  0  0  0  0  0  0  0
  161.0990  208.2350  150.2320 O   0  0  0  0  0  0  0  0  0  0  0  0
  162.2770  209.0240  150.2920 C   0  0  0  0  0  2  0  0  0  0  0  0
  161.9500  210.3610  150.9290 C   0  0  0  0  0  2  0  0  0  0  0  0
  161.6300  211.3690  149.8830 C   0  0  0  0  0  0  0  0  0  0  0  0
  161.3260  212.6960  147.8610 C   0  0  0  0  0  0  0  0  0  0  0  0
  161.0330  212.5550  150.1460 N   0  0  0  0  0  0  0  0  0  0  0  0
  161.9500  211.1750  148.2430 S   0  0  0  0  0  0  0  0  0  0  0  0
  160.8590  213.3010  149.0220 C   0  0  0  0  0  3  0  0  0  0  0  0
  160.1460  212.8390  144.1700 C   0  0  0  0  0  2  0  0  0  0  0  0
  161.2270  213.2930  146.4910 C   0  0  1  0  0  3  0  0  0  0  0  0
  161.2880  213.7560  143.7210 C   0  0  0  0  0  2  0  0  0  0  0  0
  162.5260  213.1430  145.7420 C   0  0  0  0  0  3  0  0  0  0  0  0
  162.5570  213.3700  144.4240 C   0  0  0  0  0  3  0  0  0  0  0  0
  160.0340  212.7080  145.7050 C   0  0  1  0  0  3  0  0  0  0  0  0
  158.7320  213.2660  146.1930 C   0  0  0  0  0  0  0  0  0  0  0  0
  157.5590  212.3650  146.3550 C   0  0  0  0  0  1  0  0  0  0  0  0
  158.6230  214.4530  146.4530 O   0  0  0  0  0  0  0  0  0  0  0  0
  160.5520  206.0470  152.1560 O   0  0  0  0  0  0  0  0  0  0  0  0
  161.5440  206.4250  153.0980 C   0  0  0  0  0  2  0  0  0  0  0  0
  160.9000  206.7330  154.4470 C   0  0  0  0  0  2  0  0  0  0  0  0
  161.2830  208.0520  154.9260 N   0  0  0  0  0  0  0  0  0  0  0  0
  160.9120  209.2190  154.1220 C   0  0  0  0  0  2  0  0  0  0  0  0
  161.5570  210.4840  154.6260 C   0  0  0  0  0  3  0  0  0  0  0  0
  162.0810  210.5640  155.8510 C   0  0  0  0  0  3  0  0  0  0  0  0
  162.1080  209.3920  156.7380 C   0  0  0  0  0  3  0  0  0  0  0  0
  161.7280  208.2000  156.2820 C   0  0  0  0  0  3  0  0  0  0  0  0
  1  2  1  0  0  0  0
  1  6  1  0  0  0  0
  3  7  1  0  0  0  0
  3  8  2  0  0  0  0
  4  6  2  0  0  0  0
  4  9  1  0  0  0  0
  5  8  1  0  0  0  0
  5 11  1  0  0  0  0
  7  1  2  0  0  0  0
  8  4  1  0  0  0  0
  9 29  1  0  0  0  0
 10  5  1  0  0  0  0
 11 12  1  0  0  0  0
 11  9  2  0  0  0  0
 12 13  1  0  0  0  0
 13 14  1  0  0  0  0
 15 17  2  0  0  0  0
 15 14  1  0  0  0  0
 16 18  1  0  0  0  0
 16 19  2  0  0  0  0
 18 15  1  0  0  0  0
 19 17  1  0  0  0  0
 20 25  1  0  0  0  0
 21 16  1  1  0  0  0
 22 20  1  0  0  0  0
 22 24  1  0  0  0  0
 23 21  1  0  0  0  0
 24 23  2  0  0  0  0
 25 26  1  1  0  0  0
 25 21  1  0  0  0  0
 26 27  1  0  0  0  0
 26 28  2  0  0  0  0
 29 30  1  0  0  0  0
 30 31  1  0  0  0  0
 31 32  1  0  0  0  0
 32 37  1  0  0  0  0
 33 34  1  0  0  0  0
 33 32  1  0  0  0  0
 34 35  2  0  0  0  0
 35 36  1  0  0  0  0
 37 36  2  0  0  0  0
M  END
>  <MODEL>
4

>  <REMARK>
 VINA RESULT:      -7.8      1.779      5.078
  Name = 
  10 active torsions:
  status: ('A' for Active; 'I' for Inactive)
    1  A    between atoms: C_3  and  C_26
    2  A    between atoms: O_4  and  C_18
    3  A    between atoms: O_4  and  C_37
    4  A    between atoms: C_5  and  C_13
    5  A    between atoms: N_8  and  C_23
    6  A    between atoms: C_9  and  C_34
    7  A    between atoms: C_18  and  C_26
    8  A    between atoms: C_19  and  C_23
    9  A    between atoms: C_19  and  O_36
   10  A    between atoms: C_32  and  O_36
                            x       y       z     vdW  Elec       q    Type
                         _______ _______ _______ _____ _____    ______ ____

>  <TORSDO>
F 10

$$$$
=
 OpenBabel11052410583D

 37 41  0  0  1  0  0  0  0  0999 V2000
  161.5530  205.0110  145.9260 C   0  0  0  0  0  0  0  0  0  0  0  0
  161.7190  205.2510  144.4700 C   0  0  0  0  0  1  0  0  0  0  0  0
  161.3780  203.4540  147.7650 N   0  0  0  0  0  0  0  0  0  0  0  0
  161.2580  205.8060  148.1570 C   0  0  0  0  0  0  0  0  0  0  0  0
  161.0620  204.4550  149.9390 N   0  0  0  0  0  0  0  0  0  0  0  0
  161.4140  206.0970  146.8070 C   0  0  0  0  0  3  0  0  0  0  0  0
  161.5370  203.6900  146.4270 C   0  0  0  0  0  3  0  0  0  0  0  0
  161.2330  204.5100  148.6050 C   0  0  0  0  0  0  0  0  0  0  0  0
  161.1020  206.6110  149.2710 C   0  0  0  0  0  0  0  0  0  0  0  0
  161.0580  203.2430  150.7500 C   0  0  0  0  0  1  0  0  0  0  0  0
  160.9850  205.7500  150.3520 C   0  0  0  0  0  0  0  0  0  0  0  0
  160.8320  206.1850  151.6710 O   0  0  0  0  0  0  0  0  0  0  0  0
  161.9040  206.6940  152.4490 C   0  0  0  0  0  2  0  0  0  0  0  0
  161.3960  207.0400  153.8350 C   0  0  0  0  0  2  0  0  0  0  0  0
  161.1010  208.4950  153.9310 C   0  0  0  0  0  0  0  0  0  0  0  0
  160.4890  210.8320  153.6070 C   0  0  0  0  0  0  0  0  0  0  0  0
  161.3170  209.2290  155.0470 N   0  0  0  0  0  0  0  0  0  0  0  0
  160.4560  209.4210  152.6830 S   0  0  0  0  0  0  0  0  0  0  0  0
  160.9760  210.5350  154.8750 C   0  0  0  0  0  3  0  0  0  0  0  0
  157.8220  213.5090  152.7330 C   0  0  0  0  0  2  0  0  0  0  0  0
  160.0170  212.1850  153.1730 C   0  0  1  0  0  3  0  0  0  0  0  0
  158.7720  214.3340  151.8590 C   0  0  0  0  0  2  0  0  0  0  0  0
  160.2530  212.3920  151.7000 C   0  0  0  0  0  3  0  0  0  0  0  0
  159.6660  213.4180  151.0750 C   0  0  0  0  0  3  0  0  0  0  0  0
  158.5420  212.4220  153.5630 C   0  0  1  0  0  3  0  0  0  0  0  0
  158.4010  212.6920  155.0300 C   0  0  0  0  0  0  0  0  0  0  0  0
  159.2210  213.7600  155.6630 C   0  0  0  0  0  1  0  0  0  0  0  0
  157.6250  212.0410  155.7100 O   0  0  0  0  0  0  0  0  0  0  0  0
  161.0350  208.0060  149.3420 O   0  0  0  0  0  0  0  0  0  0  0  0
  161.9520  208.8580  148.6730 C   0  0  0  0  0  2  0  0  0  0  0  0
  161.9940  210.2240  149.3530 C   0  0  0  0  0  2  0  0  0  0  0  0
  161.9610  211.3000  148.3740 N   0  0  0  0  0  0  0  0  0  0  0  0
  160.6770  211.6330  147.7490 C   0  0  0  0  0  2  0  0  0  0  0  0
  160.8370  212.6090  146.6130 C   0  0  0  0  0  3  0  0  0  0  0  0
  161.9440  213.3390  146.4640 C   0  0  0  0  0  3  0  0  0  0  0  0
  163.0880  213.1670  147.3710 C   0  0  0  0  0  3  0  0  0  0  0  0
  163.0830  212.1890  148.2760 C   0  0  0  0  0  3  0  0  0  0  0  0
  1  7  2  0  0  0  0
  1  6  1  0  0  0  0
  2  1  1  0  0  0  0
  3  8  2  0  0  0  0
  4  8  1  0  0  0  0
  4  9  1  0  0  0  0
  5 11  1  0  0  0  0
  5 10  1  0  0  0  0
  6  4  2  0  0  0  0
  7  3  1  0  0  0  0
  8  5  1  0  0  0  0
  9 29  1  0  0  0  0
  9 11  2  0  0  0  0
 11 12  1  0  0  0  0
 12 13  1  0  0  0  0
 13 14  1  0  0  0  0
 14 15  1  0  0  0  0
 15 17  2  0  0  0  0
 16 19  2  0  0  0  0
 18 16  1  0  0  0  0
 18 15  1  0  0  0  0
 19 17  1  0  0  0  0
 20 25  1  0  0  0  0
 21 25  1  0  0  0  0
 21 16  1  6  0  0  0
 22 20  1  0  0  0  0
 23 21  1  0  0  0  0
 24 23  2  0  0  0  0
 24 22  1  0  0  0  0
 25 26  1  1  0  0  0
 26 27  1  0  0  0  0
 26 28  2  0  0  0  0
 30 29  1  0  0  0  0
 30 31  1  0  0  0  0
 32 31  1  0  0  0  0
 33 32  1  0  0  0  0
 34 33  1  0  0  0  0
 35 34  2  0  0  0  0
 35 36  1  0  0  0  0
 36 37  2  0  0  0  0
 37 32  1  0  0  0  0
M  END
>  <MODEL>
5

>  <REMARK>
 VINA RESULT:      -7.6      2.929      6.192
  Name = 
  10 active torsions:
  status: ('A' for Active; 'I' for Inactive)
    1  A    between atoms: C_3  and  C_26
    2  A    between atoms: O_4  and  C_18
    3  A    between atoms: O_4  and  C_37
    4  A    between atoms: C_5  and  C_13
    5  A    between atoms: N_8  and  C_23
    6  A    between atoms: C_9  and  C_34
    7  A    between atoms: C_18  and  C_26
    8  A    between atoms: C_19  and  C_23
    9  A    between atoms: C_19  and  O_36
   10  A    between atoms: C_32  and  O_36
                            x       y       z     vdW  Elec       q    Type
                         _______ _______ _______ _____ _____    ______ ____

>  <TORSDO>
F 10

$$$$
=
 OpenBabel11052410583D

 37 41  0  0  1  0  0  0  0  0999 V2000
  157.4090  212.4990  156.2120 C   0  0  0  0  0  0  0  0  0  0  0  0
  156.1320  213.1590  156.5870 C   0  0  0  0  0  1  0  0  0  0  0  0
  159.4080  211.3190  156.8810 N   0  0  0  0  0  0  0  0  0  0  0  0
  159.0110  211.8160  154.5800 C   0  0  0  0  0  0  0  0  0  0  0  0
  160.9120  210.7350  155.0850 N   0  0  0  0  0  0  0  0  0  0  0  0
  157.8030  212.4440  154.8650 C   0  0  0  0  0  3  0  0  0  0  0  0
  158.2260  211.9230  157.2110 C   0  0  0  0  0  3  0  0  0  0  0  0
  159.7850  211.2820  155.5770 C   0  0  0  0  0  0  0  0  0  0  0  0
  159.6830  211.5870  153.3940 C   0  0  0  0  0  0  0  0  0  0  0  0
  161.9220  210.0210  155.8560 C   0  0  0  0  0  1  0  0  0  0  0  0
  160.8490  210.9190  153.7370 C   0  0  0  0  0  0  0  0  0  0  0  0
  161.7960  210.4880  152.8030 O   0  0  0  0  0  0  0  0  0  0  0  0
  161.8310  209.1670  152.2870 C   0  0  0  0  0  2  0  0  0  0  0  0
  162.3040  209.2060  150.8470 C   0  0  0  0  0  2  0  0  0  0  0  0
  161.7060  208.0840  150.0740 C   0  0  0  0  0  0  0  0  0  0  0  0
  160.9890  206.4340  148.4290 C   0  0  0  0  0  0  0  0  0  0  0  0
  160.8150  207.2090  150.5960 N   0  0  0  0  0  0  0  0  0  0  0  0
  162.0560  207.7420  148.4650 S   0  0  0  0  0  0  0  0  0  0  0  0
  160.4110  206.2840  149.6840 C   0  0  0  0  0  3  0  0  0  0  0  0
  161.8830  203.6410  145.8920 C   0  0  0  0  0  2  0  0  0  0  0  0
  160.7370  205.5310  147.2620 C   0  0  1  0  0  3  0  0  0  0  0  0
  160.8870  204.1260  144.8330 C   0  0  0  0  0  2  0  0  0  0  0  0
  160.7970  206.2950  145.9650 C   0  0  0  0  0  3  0  0  0  0  0  0
  160.8620  205.6270  144.8080 C   0  0  0  0  0  3  0  0  0  0  0  0
  161.6950  204.3200  147.2670 C   0  0  1  0  0  3  0  0  0  0  0  0
  161.3000  203.3150  148.3060 C   0  0  0  0  0  0  0  0  0  0  0  0
  160.5650  202.0870  147.9000 C   0  0  0  0  0  1  0  0  0  0  0  0
  161.5710  203.4980  149.4810 O   0  0  0  0  0  0  0  0  0  0  0  0
  159.3230  211.9610  152.0950 O   0  0  0  0  0  0  0  0  0  0  0  0
  159.5210  213.2700  151.5850 C   0  0  0  0  0  2  0  0  0  0  0  0
  158.2550  213.7620  150.8890 C   0  0  0  0  0  2  0  0  0  0  0  0
  158.2960  213.4840  149.4620 N   0  0  0  0  0  0  0  0  0  0  0  0
  157.0640  213.0420  148.8030 C   0  0  0  0  0  2  0  0  0  0  0  0
  157.3090  212.5890  147.3870 C   0  0  0  0  0  3  0  0  0  0  0  0
  158.4250  212.9110  146.7310 C   0  0  0  0  0  3  0  0  0  0  0  0
  159.4970  213.6690  147.3920 C   0  0  0  0  0  3  0  0  0  0  0  0
  159.4240  213.9320  148.6950 C   0  0  0  0  0  3  0  0  0  0  0  0
  1  2  1  0  0  0  0
  1  7  1  0  0  0  0
  3  7  2  0  0  0  0
  4  6  1  0  0  0  0
  4  8  2  0  0  0  0
  5  8  1  0  0  0  0
  5 10  1  0  0  0  0
  6  1  2  0  0  0  0
  8  3  1  0  0  0  0
  9 11  2  0  0  0  0
  9  4  1  0  0  0  0
 11  5  1  0  0  0  0
 12 11  1  0  0  0  0
 13 12  1  0  0  0  0
 14 13  1  0  0  0  0
 15 17  2  0  0  0  0
 15 14  1  0  0  0  0
 16 18  1  0  0  0  0
 16 19  2  0  0  0  0
 18 15  1  0  0  0  0
 19 17  1  0  0  0  0
 20 25  1  0  0  0  0
 21 25  1  0  0  0  0
 21 16  1  1  0  0  0
 22 20  1  0  0  0  0
 23 21  1  0  0  0  0
 24 22  1  0  0  0  0
 24 23  2  0  0  0  0
 25 26  1  1  0  0  0
 26 28  2  0  0  0  0
 27 26  1  0  0  0  0
 29  9  1  0  0  0  0
 30 29  1  0  0  0  0
 31 30  1  0  0  0  0
 32 31  1  0  0  0  0
 33 32  1  0  0  0  0
 34 33  1  0  0  0  0
 35 34  2  0  0  0  0
 35 36  1  0  0  0  0
 36 37  2  0  0  0  0
 37 32  1  0  0  0  0
M  END
>  <MODEL>
6

>  <REMARK>
 VINA RESULT:      -7.3      3.587      8.504
  Name = 
  10 active torsions:
  status: ('A' for Active; 'I' for Inactive)
    1  A    between atoms: C_3  and  C_26
    2  A    between atoms: O_4  and  C_18
    3  A    between atoms: O_4  and  C_37
    4  A    between atoms: C_5  and  C_13
    5  A    between atoms: N_8  and  C_23
    6  A    between atoms: C_9  and  C_34
    7  A    between atoms: C_18  and  C_26
    8  A    between atoms: C_19  and  C_23
    9  A    between atoms: C_19  and  O_36
   10  A    between atoms: C_32  and  O_36
                            x       y       z     vdW  Elec       q    Type
                         _______ _______ _______ _____ _____    ______ ____

>  <TORSDO>
F 10

$$$$
=
 OpenBabel11052410583D

 37 41  0  0  1  0  0  0  0  0999 V2000
  157.2540  212.8190  155.0420 C   0  0  0  0  0  0  0  0  0  0  0  0
  156.1470  213.7940  155.2100 C   0  0  0  0  0  1  0  0  0  0  0  0
  158.6110  211.0430  155.9600 N   0  0  0  0  0  0  0  0  0  0  0  0
  158.9950  211.8340  153.7400 C   0  0  0  0  0  0  0  0  0  0  0  0
  160.3310  210.1950  154.4940 N   0  0  0  0  0  0  0  0  0  0  0  0
  157.9670  212.7660  153.8330 C   0  0  0  0  0  3  0  0  0  0  0  0
  157.5890  211.9420  156.0980 C   0  0  0  0  0  3  0  0  0  0  0  0
  159.3010  211.0090  154.7920 C   0  0  0  0  0  0  0  0  0  0  0  0
  159.8760  211.5180  152.7220 C   0  0  0  0  0  0  0  0  0  0  0  0
  160.8690  209.1480  155.3540 C   0  0  0  0  0  1  0  0  0  0  0  0
  160.6840  210.5050  153.2160 C   0  0  0  0  0  0  0  0  0  0  0  0
  161.6980  209.8950  152.4720 O   0  0  0  0  0  0  0  0  0  0  0  0
  161.4500  209.1490  151.2890 C   0  0  0  0  0  2  0  0  0  0  0  0
  160.9940  207.7530  151.6660 C   0  0  0  0  0  2  0  0  0  0  0  0
  161.1280  206.8330  150.5040 C   0  0  0  0  0  0  0  0  0  0  0  0
  161.4110  204.9770  148.9500 C   0  0  0  0  0  0  0  0  0  0  0  0
  161.0850  207.2460  149.2160 N   0  0  0  0  0  0  0  0  0  0  0  0
  161.3370  205.1690  150.6250 S   0  0  0  0  0  0  0  0  0  0  0  0
  161.2410  206.2160  148.3420 C   0  0  0  0  0  3  0  0  0  0  0  0
  160.8550  202.5210  146.0020 C   0  0  0  0  0  2  0  0  0  0  0  0
  161.5730  203.6830  148.2150 C   0  0  1  0  0  3  0  0  0  0  0  0
  161.1460  201.2710  146.8380 C   0  0  0  0  0  2  0  0  0  0  0  0
  160.7710  202.5870  148.8680 C   0  0  0  0  0  3  0  0  0  0  0  0
  160.5730  201.4360  148.2150 C   0  0  0  0  0  3  0  0  0  0  0  0
  161.2300  203.8380  146.7170 C   0  0  1  0  0  3  0  0  0  0  0  0
  162.3200  204.5530  145.9780 C   0  0  0  0  0  0  0  0  0  0  0  0
  161.9770  205.6820  145.0720 C   0  0  0  0  0  1  0  0  0  0  0  0
  163.4850  204.2140  146.1090 O   0  0  0  0  0  0  0  0  0  0  0  0
  159.9910  212.0930  151.4530 O   0  0  0  0  0  0  0  0  0  0  0  0
  159.8790  213.4890  151.2240 C   0  0  0  0  0  2  0  0  0  0  0  0
  159.1680  213.7510  149.9000 C   0  0  0  0  0  2  0  0  0  0  0  0
  160.1090  213.7710  148.7900 N   0  0  0  0  0  0  0  0  0  0  0  0
  159.5900  213.5750  147.4340 C   0  0  0  0  0  2  0  0  0  0  0  0
  160.6940  213.4060  146.4230 C   0  0  0  0  0  3  0  0  0  0  0  0
  161.9510  213.7650  146.6900 C   0  0  0  0  0  3  0  0  0  0  0  0
  162.3230  214.2810  148.0160 C   0  0  0  0  0  3  0  0  0  0  0  0
  161.4350  214.2760  149.0080 C   0  0  0  0  0  3  0  0  0  0  0  0
  1  2  1  0  0  0  0
  1  7  1  0  0  0  0
  3  7  2  0  0  0  0
  4  6  1  0  0  0  0
  4  8  2  0  0  0  0
  5  8  1  0  0  0  0
  5 10  1  0  0  0  0
  6  1  2  0  0  0  0
  8  3  1  0  0  0  0
  9 11  2  0  0  0  0
  9  4  1  0  0  0  0
 11  5  1  0  0  0  0
 12 11  1  0  0  0  0
 13 14  1  0  0  0  0
 13 12  1  0  0  0  0
 15 18  1  0  0  0  0
 15 14  1  0  0  0  0
 16 18  1  0  0  0  0
 17 15  2  0  0  0  0
 19 16  2  0  0  0  0
 19 17  1  0  0  0  0
 20 25  1  0  0  0  0
 20 22  1  0  0  0  0
 21 23  1  0  0  0  0
 21 16  1  1  0  0  0
 22 24  1  0  0  0  0
 24 23  2  0  0  0  0
 25 26  1  6  0  0  0
 25 21  1  0  0  0  0
 26 28  2  0  0  0  0
 27 26  1  0  0  0  0
 29  9  1  0  0  0  0
 30 29  1  0  0  0  0
 31 30  1  0  0  0  0
 32 37  1  0  0  0  0
 32 31  1  0  0  0  0
 33 32  1  0  0  0  0
 34 35  2  0  0  0  0
 34 33  1  0  0  0  0
 35 36  1  0  0  0  0
 36 37  2  0  0  0  0
M  END
>  <MODEL>
7

>  <REMARK>
 VINA RESULT:      -7.1      3.417      8.824
  Name = 
  10 active torsions:
  status: ('A' for Active; 'I' for Inactive)
    1  A    between atoms: C_3  and  C_26
    2  A    between atoms: O_4  and  C_18
    3  A    between atoms: O_4  and  C_37
    4  A    between atoms: C_5  and  C_13
    5  A    between atoms: N_8  and  C_23
    6  A    between atoms: C_9  and  C_34
    7  A    between atoms: C_18  and  C_26
    8  A    between atoms: C_19  and  C_23
    9  A    between atoms: C_19  and  O_36
   10  A    between atoms: C_32  and  O_36
                            x       y       z     vdW  Elec       q    Type
                         _______ _______ _______ _____ _____    ______ ____

>  <TORSDO>
F 10

$$$$
=
 OpenBabel11052410583D

 37 41  0  0  1  0  0  0  0  0999 V2000
  161.4280  204.5650  147.0040 C   0  0  0  0  0  0  0  0  0  0  0  0
  161.4260  204.1610  145.5760 C   0  0  0  0  0  1  0  0  0  0  0  0
  161.0510  203.9950  149.3220 N   0  0  0  0  0  0  0  0  0  0  0  0
  161.7750  206.1890  148.7190 C   0  0  0  0  0  0  0  0  0  0  0  0
  161.4370  205.7800  150.9000 N   0  0  0  0  0  0  0  0  0  0  0  0
  161.7970  205.8720  147.3660 C   0  0  0  0  0  3  0  0  0  0  0  0
  161.0610  203.6340  148.0020 C   0  0  0  0  0  3  0  0  0  0  0  0
  161.3980  205.2640  149.6580 C   0  0  0  0  0  0  0  0  0  0  0  0
  162.0730  207.3500  149.4080 C   0  0  0  0  0  0  0  0  0  0  0  0
  161.1660  205.0550  152.1360 C   0  0  0  0  0  1  0  0  0  0  0  0
  161.8560  207.0670  150.7480 C   0  0  0  0  0  0  0  0  0  0  0  0
  162.0690  207.9890  151.7770 O   0  0  0  0  0  0  0  0  0  0  0  0
  161.0850  208.9210  152.1990 C   0  0  0  0  0  2  0  0  0  0  0  0
  161.7470  210.0060  153.0260 C   0  0  0  0  0  2  0  0  0  0  0  0
  160.7350  210.9950  153.4880 C   0  0  0  0  0  0  0  0  0  0  0  0
  158.8590  212.5180  153.8060 C   0  0  0  0  0  0  0  0  0  0  0  0
  160.8290  211.6680  154.6580 N   0  0  0  0  0  0  0  0  0  0  0  0
  159.3430  211.4020  152.6360 S   0  0  0  0  0  0  0  0  0  0  0  0
  159.7850  212.5190  154.8440 C   0  0  0  0  0  3  0  0  0  0  0  0
  155.0220  213.0740  153.8270 C   0  0  0  0  0  2  0  0  0  0  0  0
  157.6080  213.3400  153.7810 C   0  0  1  0  0  3  0  0  0  0  0  0
  155.1030  214.4530  153.1650 C   0  0  0  0  0  2  0  0  0  0  0  0
  157.3690  213.9160  152.4100 C   0  0  0  0  0  3  0  0  0  0  0  0
  156.1780  214.4520  152.1180 C   0  0  0  0  0  3  0  0  0  0  0  0
  156.3930  212.5360  154.2920 C   0  0  1  0  0  3  0  0  0  0  0  0
  156.4270  212.3830  155.7830 C   0  0  0  0  0  0  0  0  0  0  0  0
  156.7550  213.5590  156.6350 C   0  0  0  0  0  1  0  0  0  0  0  0
  156.1940  211.3050  156.3030 O   0  0  0  0  0  0  0  0  0  0  0  0
  162.4790  208.5890  148.9030 O   0  0  0  0  0  0  0  0  0  0  0  0
  161.5800  209.6640  148.6760 C   0  0  0  0  0  2  0  0  0  0  0  0
  162.3410  210.9840  148.6080 C   0  0  0  0  0  2  0  0  0  0  0  0
  161.4380  212.1020  148.3810 N   0  0  0  0  0  0  0  0  0  0  0  0
  160.8350  212.2510  147.0540 C   0  0  0  0  0  2  0  0  0  0  0  0
  160.1040  213.5600  146.9080 C   0  0  0  0  0  3  0  0  0  0  0  0
  159.7500  214.2900  147.9680 C   0  0  0  0  0  3  0  0  0  0  0  0
  160.1240  213.8740  149.3270 C   0  0  0  0  0  3  0  0  0  0  0  0
  160.9320  212.8310  149.5090 C   0  0  0  0  0  3  0  0  0  0  0  0
  1  6  2  0  0  0  0
  1  7  1  0  0  0  0
  2  1  1  0  0  0  0
  3  8  1  0  0  0  0
  4  9  1  0  0  0  0
  4  8  2  0  0  0  0
  5 10  1  0  0  0  0
  6  4  1  0  0  0  0
  7  3  2  0  0  0  0
  8  5  1  0  0  0  0
  9 11  2  0  0  0  0
 11  5  1  0  0  0  0
 11 12  1  0  0  0  0
 12 13  1  0  0  0  0
 13 14  1  0  0  0  0
 14 15  1  0  0  0  0
 15 17  2  0  0  0  0
 16 19  2  0  0  0  0
 17 19  1  0  0  0  0
 18 15  1  0  0  0  0
 18 16  1  0  0  0  0
 20 25  1  0  0  0  0
 21 16  1  6  0  0  0
 21 25  1  0  0  0  0
 22 20  1  0  0  0  0
 23 21  1  0  0  0  0
 24 23  2  0  0  0  0
 24 22  1  0  0  0  0
 25 26  1  1  0  0  0
 26 28  2  0  0  0  0
 26 27  1  0  0  0  0
 29  9  1  0  0  0  0
 30 29  1  0  0  0  0
 31 30  1  0  0  0  0
 32 31  1  0  0  0  0
 32 37  1  0  0  0  0
 33 32  1  0  0  0  0
 34 33  1  0  0  0  0
 34 35  2  0  0  0  0
 35 36  1  0  0  0  0
 36 37  2  0  0  0  0
M  END
>  <MODEL>
8

>  <REMARK>
 VINA RESULT:      -6.9      3.907      6.724
  Name = 
  10 active torsions:
  status: ('A' for Active; 'I' for Inactive)
    1  A    between atoms: C_3  and  C_26
    2  A    between atoms: O_4  and  C_18
    3  A    between atoms: O_4  and  C_37
    4  A    between atoms: C_5  and  C_13
    5  A    between atoms: N_8  and  C_23
    6  A    between atoms: C_9  and  C_34
    7  A    between atoms: C_18  and  C_26
    8  A    between atoms: C_19  and  C_23
    9  A    between atoms: C_19  and  O_36
   10  A    between atoms: C_32  and  O_36
                            x       y       z     vdW  Elec       q    Type
                         _______ _______ _______ _____ _____    ______ ____

>  <TORSDO>
F 10

$$$$
=
 OpenBabel11052410583D

 37 41  0  0  1  0  0  0  0  0999 V2000
  155.9970  214.1160  149.1120 C   0  0  0  0  0  0  0  0  0  0  0  0
  154.6950  214.4530  149.7420 C   0  0  0  0  0  1  0  0  0  0  0  0
  157.2500  213.5060  147.1380 N   0  0  0  0  0  0  0  0  0  0  0  0
  158.3540  213.7620  149.2400 C   0  0  0  0  0  0  0  0  0  0  0  0
  159.6170  213.1730  147.4800 N   0  0  0  0  0  0  0  0  0  0  0  0
  157.1680  214.0890  149.8880 C   0  0  0  0  0  3  0  0  0  0  0  0
  156.0590  213.8250  147.7300 C   0  0  0  0  0  3  0  0  0  0  0  0
  158.3730  213.4710  147.9000 C   0  0  0  0  0  0  0  0  0  0  0  0
  159.6580  213.6480  149.6870 C   0  0  0  0  0  0  0  0  0  0  0  0
  160.0080  212.8840  146.1060 C   0  0  0  0  0  1  0  0  0  0  0  0
  160.4110  213.2850  148.5800 C   0  0  0  0  0  0  0  0  0  0  0  0
  161.7950  213.0910  148.6190 O   0  0  0  0  0  0  0  0  0  0  0  0
  162.3980  211.8050  148.6230 C   0  0  0  0  0  2  0  0  0  0  0  0
  162.1240  211.1300  149.9520 C   0  0  0  0  0  2  0  0  0  0  0  0
  162.1000  209.6510  149.7870 C   0  0  0  0  0  0  0  0  0  0  0  0
  161.9830  207.2270  150.0090 C   0  0  0  0  0  0  0  0  0  0  0  0
  162.3140  209.0280  148.6040 N   0  0  0  0  0  0  0  0  0  0  0  0
  161.7960  208.5580  151.0280 S   0  0  0  0  0  0  0  0  0  0  0  0
  162.2490  207.6750  148.7200 C   0  0  0  0  0  3  0  0  0  0  0  0
  160.0780  203.8670  150.3610 C   0  0  0  0  0  2  0  0  0  0  0  0
  161.8310  205.7880  150.3960 C   0  0  1  0  0  3  0  0  0  0  0  0
  160.9730  203.3480  151.4910 C   0  0  0  0  0  2  0  0  0  0  0  0
  161.7360  205.6390  151.8910 C   0  0  0  0  0  3  0  0  0  0  0  0
  161.3340  204.4740  152.4140 C   0  0  0  0  0  3  0  0  0  0  0  0
  160.6360  205.1310  149.6700 C   0  0  1  0  0  3  0  0  0  0  0  0
  160.9560  204.8540  148.2330 C   0  0  0  0  0  0  0  0  0  0  0  0
  161.6320  203.5810  147.8620 C   0  0  0  0  0  1  0  0  0  0  0  0
  160.6720  205.6640  147.3650 O   0  0  0  0  0  0  0  0  0  0  0  0
  160.1590  213.8180  150.9810 O   0  0  0  0  0  0  0  0  0  0  0  0
  159.4920  213.3380  152.1380 C   0  0  0  0  0  2  0  0  0  0  0  0
  159.7760  211.8520  152.3320 C   0  0  0  0  0  2  0  0  0  0  0  0
  159.4970  211.4360  153.6980 N   0  0  0  0  0  0  0  0  0  0  0  0
  158.2760  211.9310  154.3400 C   0  0  0  0  0  2  0  0  0  0  0  0
  158.2320  211.5950  155.8080 C   0  0  0  0  0  3  0  0  0  0  0  0
  159.0190  210.6570  156.3380 C   0  0  0  0  0  3  0  0  0  0  0  0
  160.0160  209.9570  155.5160 C   0  0  0  0  0  3  0  0  0  0  0  0
  160.2350  210.3400  154.2590 C   0  0  0  0  0  3  0  0  0  0  0  0
  1  2  1  0  0  0  0
  1  6  1  0  0  0  0
  3  7  1  0  0  0  0
  3  8  2  0  0  0  0
  4  9  1  0  0  0  0
  4  6  2  0  0  0  0
  5  8  1  0  0  0  0
  5 11  1  0  0  0  0
  7  1  2  0  0  0  0
  8  4  1  0  0  0  0
  9 29  1  0  0  0  0
 10  5  1  0  0  0  0
 11 12  1  0  0  0  0
 11  9  2  0  0  0  0
 12 13  1  0  0  0  0
 13 14  1  0  0  0  0
 15 14  1  0  0  0  0
 15 18  1  0  0  0  0
 16 18  1  0  0  0  0
 17 19  1  0  0  0  0
 17 15  2  0  0  0  0
 19 16  2  0  0  0  0
 20 22  1  0  0  0  0
 21 16  1  1  0  0  0
 21 23  1  0  0  0  0
 22 24  1  0  0  0  0
 23 24  2  0  0  0  0
 25 26  1  6  0  0  0
 25 20  1  0  0  0  0
 25 21  1  0  0  0  0
 27 26  1  0  0  0  0
 28 26  2  0  0  0  0
 29 30  1  0  0  0  0
 30 31  1  0  0  0  0
 31 32  1  0  0  0  0
 32 37  1  0  0  0  0
 32 33  1  0  0  0  0
 33 34  1  0  0  0  0
 34 35  2  0  0  0  0
 36 35  1  0  0  0  0
 37 36  2  0  0  0  0
M  END
>  <MODEL>
9

>  <REMARK>
 VINA RESULT:      -6.7      3.082      9.544
  Name = 
  10 active torsions:
  status: ('A' for Active; 'I' for Inactive)
    1  A    between atoms: C_3  and  C_26
    2  A    between atoms: O_4  and  C_18
    3  A    between atoms: O_4  and  C_37
    4  A    between atoms: C_5  and  C_13
    5  A    between atoms: N_8  and  C_23
    6  A    between atoms: C_9  and  C_34
    7  A    between atoms: C_18  and  C_26
    8  A    between atoms: C_19  and  C_23
    9  A    between atoms: C_19  and  O_36
   10  A    between atoms: C_32  and  O_36
                            x       y       z     vdW  Elec       q    Type
                         _______ _______ _______ _____ _____    ______ ____

>  <TORSDO>
F 10

$$$$
