=
 OpenBabel11052411433D

 42 47  0  0  1  0  0  0  0  0999 V2000
  161.4860  205.6740  147.3830 C   0  0  1  0  0  3  0  0  0  0  0  0
  162.0490  207.8160  151.2490 S   0  0  0  0  0  0  0  0  0  0  0  0
  161.4950  206.2960  151.9980 C   0  0  0  0  0  0  0  0  0  0  0  0
  161.6320  205.1730  148.8280 C   0  0  0  0  0  2  0  0  0  0  0  0
  161.2060  207.1810  147.2880 C   0  0  0  0  0  2  0  0  0  0  0  0
  160.8850  205.4480  151.1720 C   0  0  0  0  0  0  0  0  0  0  0  0
  160.3880  204.1010  151.5960 C   0  0  0  0  0  1  0  0  0  0  0  0
  160.7050  205.9340  149.7770 C   0  0  1  0  0  3  0  0  0  0  0  0
  161.7170  207.9400  148.5150 C   0  0  2  0  0  3  0  0  0  0  0  0
  161.0220  207.4430  149.7890 C   0  0  2  0  0  3  0  0  0  0  0  0
  162.3530  210.2070  148.7730 C   0  0  0  0  0  3  0  0  0  0  0  0
  161.4890  209.3530  148.3600 N   0  0  0  0  0  0  0  0  0  0  0  0
  160.8850  211.8900  147.7170 C   0  0  2  0  0  3  0  0  0  0  0  0
  163.2460  212.3080  147.8890 C   0  0  0  0  0  3  0  0  0  0  0  0
  160.4770  213.3520  147.6090 C   0  0  1  0  0  0  0  0  0  0  0  0
  162.1080  211.6700  148.6100 C   0  0  2  0  0  3  0  0  0  0  0  0
  161.0640  214.2940  148.4630 O   0  0  0  0  0  1  0  0  0  0  0  0
  162.8360  212.9130  146.7850 C   0  0  0  0  0  3  0  0  0  0  0  0
  161.3710  212.7480  146.5350 C   0  0  1  0  0  3  0  0  0  0  0  0
  159.1150  213.6150  147.1670 N   0  0  0  0  0  2  0  0  0  0  0  0
  157.2250  212.4390  146.2060 C   0  0  0  0  0  1  0  0  0  0  0  0
  158.7330  212.5680  146.2320 C   0  0  0  0  0  2  0  0  0  0  0  0
  162.7320  205.3350  146.5790 C   0  0  0  0  0  2  0  0  0  0  0  0
  162.4420  204.2710  145.5320 C   0  0  0  0  0  2  0  0  0  0  0  0
  161.2380  204.5930  144.8150 N   0  0  0  0  0  0  0  0  0  0  0  0
  161.2710  205.4410  143.8560 C   0  0  0  0  0  2  0  0  0  0  0  0
  161.7430  206.0210  153.4490 C   0  0  0  0  0  2  0  0  0  0  0  0
  160.7590  206.7950  154.3070 C   0  0  0  0  0  2  0  0  0  0  0  0
  161.4980  207.8740  155.0740 C   0  0  0  0  0  2  0  0  0  0  0  0
  160.3730  209.7920  154.1250 C   0  0  0  0  0  0  0  0  0  0  0  0
  159.2800  210.7170  156.4450 N   0  0  0  0  0  2  0  0  0  0  0  0
  159.9720  210.5850  153.1770 C   0  0  0  0  0  3  0  0  0  0  0  0
  159.9170  209.3960  156.4700 C   0  0  0  0  0  2  0  0  0  0  0  0
  158.8160  212.6710  152.3910 N   0  0  0  0  0  0  0  0  0  0  0  0
  157.1100  212.7860  154.6540 C   0  0  0  0  0  2  0  0  0  0  0  0
  157.7400  213.6540  152.4390 C   0  0  0  0  0  2  0  0  0  0  0  0
  158.1020  210.6460  155.5840 C   0  0  0  0  0  2  0  0  0  0  0  0
  157.4770  214.0430  153.8810 C   0  0  0  0  0  2  0  0  0  0  0  0
  158.1510  211.7070  154.5160 C   0  0  0  0  0  0  0  0  0  0  0  0
  159.7860  212.7940  151.3120 C   0  0  0  0  0  1  0  0  0  0  0  0
  158.9440  211.6440  153.4020 C   0  0  0  0  0  0  0  0  0  0  0  0
  160.6500  209.0930  155.1890 C   0  0  0  0  0  0  0  0  0  0  0  0
  1 23  1  6  0  0  0
  1  4  1  0  0  0  0
  2  3  1  0  0  0  0
  3 27  1  0  0  0  0
  5  1  1  0  0  0  0
  5  9  1  0  0  0  0
  6  7  1  0  0  0  0
  6  3  2  0  0  0  0
  8  4  1  6  0  0  0
  8 10  1  0  0  0  0
  8  6  1  0  0  0  0
  9 12  1  6  0  0  0
  9 10  1  0  0  0  0
 10  2  1  1  0  0  0
 12 11  2  0  0  0  0
 13 16  1  0  0  0  0
 14 16  1  0  0  0  0
 15 13  1  0  0  0  0
 15 17  1  0  0  0  0
 16 11  1  0  0  0  0
 18 14  2  0  0  0  0
 19 18  1  0  0  0  0
 19 15  1  0  0  0  0
 19 13  1  0  0  0  0
 20 15  1  0  0  0  0
 21 22  1  0  0  0  0
 22 20  1  0  0  0  0
 24 23  1  0  0  0  0
 25 24  1  0  0  0  0
 26 25  2  0  0  0  0
 27 28  1  0  0  0  0
 28 29  1  0  0  0  0
 29 42  1  0  0  0  0
 30 42  2  0  0  0  0
 31 33  1  0  0  0  0
 32 41  1  0  0  0  0
 32 30  2  0  0  0  0
 34 36  1  0  0  0  0
 34 41  1  0  0  0  0
 36 38  1  0  0  0  0
 37 31  1  0  0  0  0
 38 35  1  0  0  0  0
 39 35  1  0  0  0  0
 39 37  1  0  0  0  0
 40 34  1  0  0  0  0
 41 39  2  0  0  0  0
 42 33  1  0  0  0  0
M  END
>  <MODEL>
1

>  <REMARK>
 VINA RESULT:      -8.6      0.000      0.000
  Name = 
  11 active torsions:
  status: ('A' for Active; 'I' for Inactive)
    1  A    between atoms: N_1  and  C_9
    2  A    between atoms: C_3  and  C_6
    3  A    between atoms: C_6  and  C_9
    4  A    between atoms: C_10  and  C_18
    5  A    between atoms: C_10  and  C_35
    6  A    between atoms: C_11  and  C_35
    7  A    between atoms: C_16  and  C_27
    8  A    between atoms: C_18  and  C_41
    9  A    between atoms: N_21  and  C_25
   10  A    between atoms: N_21  and  C_40
   11  A    between atoms: N_29  and  C_38
                            x       y       z     vdW  Elec       q    Type
                         _______ _______ _______ _____ _____    ______ ____

>  <TORSDO>
F 11

$$$$
=
 OpenBabel11052411433D

 42 47  0  0  1  0  0  0  0  0999 V2000
  159.6440  209.5530  156.1160 C   0  0  1  0  0  3  0  0  0  0  0  0
  160.1560  212.1430  152.5260 S   0  0  0  0  0  0  0  0  0  0  0  0
  158.6270  212.9010  153.0430 C   0  0  0  0  0  0  0  0  0  0  0  0
  159.0290  210.9040  155.7230 C   0  0  0  0  0  2  0  0  0  0  0  0
  160.3390  208.8390  154.9470 C   0  0  0  0  0  2  0  0  0  0  0  0
  157.9210  212.2020  153.9300 C   0  0  0  0  0  0  0  0  0  0  0  0
  156.6330  212.6860  154.5200 C   0  0  0  0  0  1  0  0  0  0  0  0
  158.4870  210.8750  154.2930 C   0  0  1  0  0  3  0  0  0  0  0  0
  160.7980  209.8200  153.8650 C   0  0  2  0  0  3  0  0  0  0  0  0
  159.6010  210.5730  153.2710 C   0  0  2  0  0  3  0  0  0  0  0  0
  160.8660  208.3330  152.0230 C   0  0  0  0  0  3  0  0  0  0  0  0
  161.4960  209.1180  152.8180 N   0  0  0  0  0  0  0  0  0  0  0  0
  160.5970  207.0960  149.9010 C   0  0  2  0  0  3  0  0  0  0  0  0
  162.2580  206.3900  151.4890 C   0  0  0  0  0  3  0  0  0  0  0  0
  161.2650  206.4650  148.6880 C   0  0  1  0  0  0  0  0  0  0  0  0
  161.5960  207.6070  150.9410 C   0  0  2  0  0  3  0  0  0  0  0  0
  162.6480  206.6030  148.5160 O   0  0  0  0  0  1  0  0  0  0  0  0
  161.8450  205.2970  150.8650 C   0  0  0  0  0  3  0  0  0  0  0  0
  160.8000  205.5720  149.8300 C   0  0  1  0  0  3  0  0  0  0  0  0
  160.4540  206.3560  147.4840 N   0  0  0  0  0  2  0  0  0  0  0  0
  160.5640  205.9360  145.0990 C   0  0  0  0  0  1  0  0  0  0  0  0
  161.2930  205.8250  146.4210 C   0  0  0  0  0  2  0  0  0  0  0  0
  160.6300  209.7350  157.2600 C   0  0  0  0  0  2  0  0  0  0  0  0
  161.8580  208.8560  157.0770 C   0  0  0  0  0  2  0  0  0  0  0  0
  163.0560  209.6310  157.2550 N   0  0  0  0  0  0  0  0  0  0  0  0
  163.1400  210.8050  156.7510 C   0  0  0  0  0  2  0  0  0  0  0  0
  158.2190  214.2410  152.5130 C   0  0  0  0  0  2  0  0  0  0  0  0
  158.5170  214.3340  151.0290 C   0  0  0  0  0  2  0  0  0  0  0  0
  157.3330  213.8080  150.2420 C   0  0  0  0  0  2  0  0  0  0  0  0
  158.8500  213.5490  148.3770 C   0  0  0  0  0  0  0  0  0  0  0  0
  157.0410  214.0640  146.4030 N   0  0  0  0  0  2  0  0  0  0  0  0
  159.9780  213.2780  147.7920 C   0  0  0  0  0  3  0  0  0  0  0  0
  156.5320  213.8950  147.7680 C   0  0  0  0  0  2  0  0  0  0  0  0
  161.4200  213.1440  145.7410 N   0  0  0  0  0  0  0  0  0  0  0  0
  159.2130  212.7520  144.0040 C   0  0  0  0  0  2  0  0  0  0  0  0
  161.6500  212.8310  144.3350 C   0  0  0  0  0  2  0  0  0  0  0  0
  157.5950  212.7890  145.9550 C   0  0  0  0  0  2  0  0  0  0  0  0
  160.5060  213.3780  143.5040 C   0  0  0  0  0  2  0  0  0  0  0  0
  159.0160  212.9560  145.4820 C   0  0  0  0  0  0  0  0  0  0  0  0
  162.5750  213.5410  146.5340 C   0  0  0  0  0  1  0  0  0  0  0  0
  160.0920  213.1080  146.3130 C   0  0  0  0  0  0  0  0  0  0  0  0
  157.6420  213.8150  148.7850 C   0  0  0  0  0  0  0  0  0  0  0  0
  1 23  1  1  0  0  0
  2  3  1  0  0  0  0
  3  6  2  0  0  0  0
  4  1  1  0  0  0  0
  5  1  1  0  0  0  0
  6  8  1  0  0  0  0
  6  7  1  0  0  0  0
  8  4  1  1  0  0  0
  9 12  1  6  0  0  0
  9  5  1  0  0  0  0
 10  2  1  1  0  0  0
 10  9  1  0  0  0  0
 10  8  1  0  0  0  0
 11 12  2  0  0  0  0
 13 16  1  0  0  0  0
 15 19  1  0  0  0  0
 15 13  1  0  0  0  0
 16 14  1  0  0  0  0
 16 11  1  0  0  0  0
 17 15  1  0  0  0  0
 18 14  2  0  0  0  0
 19 13  1  0  0  0  0
 19 18  1  0  0  0  0
 20 15  1  0  0  0  0
 21 22  1  0  0  0  0
 22 20  1  0  0  0  0
 24 25  1  0  0  0  0
 24 23  1  0  0  0  0
 26 25  2  0  0  0  0
 27  3  1  0  0  0  0
 28 27  1  0  0  0  0
 29 28  1  0  0  0  0
 30 42  2  0  0  0  0
 31 33  1  0  0  0  0
 32 30  2  0  0  0  0
 33 42  1  0  0  0  0
 34 41  1  0  0  0  0
 34 40  1  0  0  0  0
 35 39  1  0  0  0  0
 36 34  1  0  0  0  0
 37 31  1  0  0  0  0
 38 35  1  0  0  0  0
 38 36  1  0  0  0  0
 39 37  1  0  0  0  0
 39 41  2  0  0  0  0
 41 32  1  0  0  0  0
 42 29  1  0  0  0  0
M  END
>  <MODEL>
2

>  <REMARK>
 VINA RESULT:      -7.0      2.346      8.525
  Name = 
  11 active torsions:
  status: ('A' for Active; 'I' for Inactive)
    1  A    between atoms: N_1  and  C_9
    2  A    between atoms: C_3  and  C_6
    3  A    between atoms: C_6  and  C_9
    4  A    between atoms: C_10  and  C_18
    5  A    between atoms: C_10  and  C_35
    6  A    between atoms: C_11  and  C_35
    7  A    between atoms: C_16  and  C_27
    8  A    between atoms: C_18  and  C_41
    9  A    between atoms: N_21  and  C_25
   10  A    between atoms: N_21  and  C_40
   11  A    between atoms: N_29  and  C_38
                            x       y       z     vdW  Elec       q    Type
                         _______ _______ _______ _____ _____    ______ ____

>  <TORSDO>
F 11

$$$$
=
 OpenBabel11052411433D

 42 47  0  0  1  0  0  0  0  0999 V2000
  159.6440  209.8450  156.0370 C   0  0  1  0  0  3  0  0  0  0  0  0
  160.4340  211.9280  152.1770 S   0  0  0  0  0  0  0  0  0  0  0  0
  158.9540  212.8500  152.5470 C   0  0  0  0  0  0  0  0  0  0  0  0
  159.1410  211.1780  155.4620 C   0  0  0  0  0  2  0  0  0  0  0  0
  160.3130  208.9450  154.9870 C   0  0  0  0  0  2  0  0  0  0  0  0
  158.1760  212.3190  153.4880 C   0  0  0  0  0  0  0  0  0  0  0  0
  156.9140  212.9610  153.9720 C   0  0  0  0  0  1  0  0  0  0  0  0
  158.6330  211.0100  154.0290 C   0  0  1  0  0  3  0  0  0  0  0  0
  160.8690  209.7490  153.8100 C   0  0  2  0  0  3  0  0  0  0  0  0
  159.7470  210.5050  153.0890 C   0  0  2  0  0  3  0  0  0  0  0  0
  161.0380  208.6450  151.7220 C   0  0  0  0  0  3  0  0  0  0  0  0
  161.5380  208.8760  152.8800 N   0  0  0  0  0  0  0  0  0  0  0  0
  160.7480  207.2520  149.7020 C   0  0  2  0  0  3  0  0  0  0  0  0
  162.2040  206.5070  151.4630 C   0  0  0  0  0  3  0  0  0  0  0  0
  161.4050  206.4330  148.6010 C   0  0  1  0  0  0  0  0  0  0  0  0
  161.7360  207.7370  150.7640 C   0  0  2  0  0  3  0  0  0  0  0  0
  162.8030  206.3870  148.5190 O   0  0  0  0  0  1  0  0  0  0  0  0
  161.6960  205.4170  150.9080 C   0  0  0  0  0  3  0  0  0  0  0  0
  160.7610  205.7150  149.7790 C   0  0  1  0  0  3  0  0  0  0  0  0
  160.6630  206.3070  147.3540 N   0  0  0  0  0  2  0  0  0  0  0  0
  161.7090  205.6450  145.2700 C   0  0  0  0  0  1  0  0  0  0  0  0
  161.2050  205.1760  146.6180 C   0  0  0  0  0  2  0  0  0  0  0  0
  160.6120  210.0970  157.1830 C   0  0  0  0  0  2  0  0  0  0  0  0
  161.7120  209.0470  157.2190 C   0  0  0  0  0  2  0  0  0  0  0  0
  163.0030  209.6790  157.2600 N   0  0  0  0  0  0  0  0  0  0  0  0
  163.1940  210.7860  156.6460 C   0  0  0  0  0  2  0  0  0  0  0  0
  158.6590  214.1390  151.8450 C   0  0  0  0  0  2  0  0  0  0  0  0
  159.5880  214.3190  150.6590 C   0  0  0  0  0  2  0  0  0  0  0  0
  158.8360  214.0150  149.3780 C   0  0  0  0  0  2  0  0  0  0  0  0
  159.5330  213.8380  147.0700 C   0  0  0  0  0  0  0  0  0  0  0  0
  161.8560  212.4870  147.5260 N   0  0  0  0  0  2  0  0  0  0  0  0
  159.4600  214.0400  145.7880 C   0  0  0  0  0  3  0  0  0  0  0  0
  161.1410  213.0270  148.6880 C   0  0  0  0  0  2  0  0  0  0  0  0
  160.2980  213.6770  143.4490 N   0  0  0  0  0  0  0  0  0  0  0  0
  162.9640  213.2030  144.2930 C   0  0  0  0  0  2  0  0  0  0  0  0
  161.3590  213.5410  142.4580 C   0  0  0  0  0  2  0  0  0  0  0  0
  162.3320  213.6050  146.7150 C   0  0  0  0  0  2  0  0  0  0  0  0
  162.4340  212.6150  142.9950 C   0  0  0  0  0  2  0  0  0  0  0  0
  161.8670  213.4700  145.2880 C   0  0  0  0  0  0  0  0  0  0  0  0
  158.9270  213.7060  142.9600 C   0  0  0  0  0  1  0  0  0  0  0  0
  160.5920  213.7320  144.8650 C   0  0  0  0  0  0  0  0  0  0  0  0
  159.7850  213.5710  148.3190 C   0  0  0  0  0  0  0  0  0  0  0  0
  1 23  1  1  0  0  0
  2  3  1  0  0  0  0
  3  6  2  0  0  0  0
  4  1  1  0  0  0  0
  5  1  1  0  0  0  0
  6  7  1  0  0  0  0
  6  8  1  0  0  0  0
  8  4  1  1  0  0  0
  9 12  1  6  0  0  0
  9  5  1  0  0  0  0
 10  2  1  1  0  0  0
 10  9  1  0  0  0  0
 10  8  1  0  0  0  0
 11 12  2  0  0  0  0
 13 19  1  0  0  0  0
 13 16  1  0  0  0  0
 15 13  1  0  0  0  0
 15 19  1  0  0  0  0
 16 14  1  0  0  0  0
 16 11  1  0  0  0  0
 17 15  1  0  0  0  0
 18 14  2  0  0  0  0
 19 18  1  0  0  0  0
 20 15  1  0  0  0  0
 21 22  1  0  0  0  0
 22 20  1  0  0  0  0
 23 24  1  0  0  0  0
 24 25  1  0  0  0  0
 26 25  2  0  0  0  0
 27  3  1  0  0  0  0
 28 27  1  0  0  0  0
 29 28  1  0  0  0  0
 30 42  2  0  0  0  0
 31 33  1  0  0  0  0
 32 30  2  0  0  0  0
 34 41  1  0  0  0  0
 35 39  1  0  0  0  0
 36 38  1  0  0  0  0
 36 34  1  0  0  0  0
 37 31  1  0  0  0  0
 38 35  1  0  0  0  0
 39 37  1  0  0  0  0
 40 34  1  0  0  0  0
 41 39  2  0  0  0  0
 41 32  1  0  0  0  0
 42 33  1  0  0  0  0
 42 29  1  0  0  0  0
M  END
>  <MODEL>
3

>  <REMARK>
 VINA RESULT:      -6.8      2.523      8.794
  Name = 
  11 active torsions:
  status: ('A' for Active; 'I' for Inactive)
    1  A    between atoms: N_1  and  C_9
    2  A    between atoms: C_3  and  C_6
    3  A    between atoms: C_6  and  C_9
    4  A    between atoms: C_10  and  C_18
    5  A    between atoms: C_10  and  C_35
    6  A    between atoms: C_11  and  C_35
    7  A    between atoms: C_16  and  C_27
    8  A    between atoms: C_18  and  C_41
    9  A    between atoms: N_21  and  C_25
   10  A    between atoms: N_21  and  C_40
   11  A    between atoms: N_29  and  C_38
                            x       y       z     vdW  Elec       q    Type
                         _______ _______ _______ _____ _____    ______ ____

>  <TORSDO>
F 11

$$$$
=
 OpenBabel11052411433D

 42 47  0  0  1  0  0  0  0  0999 V2000
  158.6160  212.6680  155.5970 C   0  0  1  0  0  3  0  0  0  0  0  0
  160.4190  209.9510  152.5610 S   0  0  0  0  0  0  0  0  0  0  0  0
  161.0680  209.0620  153.9640 C   0  0  0  0  0  0  0  0  0  0  0  0
  159.1680  211.2380  155.6920 C   0  0  0  0  0  2  0  0  0  0  0  0
  159.0070  213.3860  154.2970 C   0  0  0  0  0  2  0  0  0  0  0  0
  161.0440  209.7290  155.1170 C   0  0  0  0  0  0  0  0  0  0  0  0
  161.5020  209.1430  156.4150 C   0  0  0  0  0  1  0  0  0  0  0  0
  160.5440  211.1280  155.0340 C   0  0  1  0  0  3  0  0  0  0  0  0
  159.3100  212.4020  153.1650 C   0  0  2  0  0  3  0  0  0  0  0  0
  160.4870  211.4910  153.5360 C   0  0  2  0  0  3  0  0  0  0  0  0
  159.1130  212.7440  150.8300 C   0  0  0  0  0  3  0  0  0  0  0  0
  159.6140  213.1150  151.9510 N   0  0  0  0  0  0  0  0  0  0  0  0
  159.9630  212.5120  148.5220 C   0  0  2  0  0  3  0  0  0  0  0  0
  160.5430  214.4530  149.8150 C   0  0  0  0  0  3  0  0  0  0  0  0
  160.1840  213.1600  147.1630 C   0  0  1  0  0  0  0  0  0  0  0  0
  159.4340  213.4870  149.5760 C   0  0  2  0  0  3  0  0  0  0  0  0
  159.6970  214.4530  146.9300 O   0  0  0  0  0  1  0  0  0  0  0  0
  161.5660  214.2190  149.0080 C   0  0  0  0  0  3  0  0  0  0  0  0
  161.3570  213.0300  148.1240 C   0  0  1  0  0  3  0  0  0  0  0  0
  160.2550  212.2630  146.0190 N   0  0  0  0  0  2  0  0  0  0  0  0
  159.7290  212.2580  143.6520 C   0  0  0  0  0  1  0  0  0  0  0  0
  159.2940  212.7180  145.0270 C   0  0  0  0  0  2  0  0  0  0  0  0
  157.1010  212.6590  155.7380 C   0  0  0  0  0  2  0  0  0  0  0  0
  156.4390  211.9930  154.5420 C   0  0  0  0  0  2  0  0  0  0  0  0
  156.0370  210.6540  154.8770 N   0  0  0  0  0  0  0  0  0  0  0  0
  155.1470  210.4580  155.7760 C   0  0  0  0  0  2  0  0  0  0  0  0
  161.5680  207.6590  153.8170 C   0  0  0  0  0  2  0  0  0  0  0  0
  160.8250  206.9470  152.7020 C   0  0  0  0  0  2  0  0  0  0  0  0
  161.7430  206.7870  151.5060 C   0  0  0  0  0  2  0  0  0  0  0  0
  161.5290  205.6280  149.3950 C   0  0  0  0  0  0  0  0  0  0  0  0
  160.2860  203.4030  150.3610 N   0  0  0  0  0  2  0  0  0  0  0  0
  161.6930  205.4450  148.1190 C   0  0  0  0  0  3  0  0  0  0  0  0
  160.8300  204.3570  151.3330 C   0  0  0  0  0  2  0  0  0  0  0  0
  161.2980  204.1360  146.0130 N   0  0  0  0  0  0  0  0  0  0  0  0
  160.9560  201.6830  147.3960 C   0  0  0  0  0  2  0  0  0  0  0  0
  161.1770  202.8910  145.2630 C   0  0  0  0  0  2  0  0  0  0  0  0
  161.4000  202.8100  149.6240 C   0  0  0  0  0  2  0  0  0  0  0  0
  160.3100  201.9180  146.0390 C   0  0  0  0  0  2  0  0  0  0  0  0
  161.2060  202.9690  148.1380 C   0  0  0  0  0  0  0  0  0  0  0  0
  161.2580  205.3780  145.2560 C   0  0  0  0  0  1  0  0  0  0  0  0
  161.4040  204.1390  147.4560 C   0  0  0  0  0  0  0  0  0  0  0  0
  161.3080  205.6270  150.6790 C   0  0  0  0  0  0  0  0  0  0  0  0
  1  4  1  0  0  0  0
  1 23  1  6  0  0  0
  2  3  1  0  0  0  0
  3  6  2  0  0  0  0
  5  1  1  0  0  0  0
  6  7  1  0  0  0  0
  8  6  1  0  0  0  0
  8  4  1  6  0  0  0
  9 12  1  6  0  0  0
  9 10  1  0  0  0  0
  9  5  1  0  0  0  0
 10  2  1  6  0  0  0
 10  8  1  0  0  0  0
 11 12  2  0  0  0  0
 13 16  1  0  0  0  0
 15 19  1  0  0  0  0
 15 13  1  0  0  0  0
 16 14  1  0  0  0  0
 16 11  1  0  0  0  0
 17 15  1  0  0  0  0
 18 14  2  0  0  0  0
 19 13  1  0  0  0  0
 19 18  1  0  0  0  0
 20 15  1  0  0  0  0
 21 22  1  0  0  0  0
 22 20  1  0  0  0  0
 24 25  1  0  0  0  0
 24 23  1  0  0  0  0
 25 26  2  0  0  0  0
 27  3  1  0  0  0  0
 28 27  1  0  0  0  0
 29 28  1  0  0  0  0
 30 42  2  0  0  0  0
 31 33  1  0  0  0  0
 32 30  2  0  0  0  0
 34 41  1  0  0  0  0
 35 39  1  0  0  0  0
 36 34  1  0  0  0  0
 36 38  1  0  0  0  0
 37 31  1  0  0  0  0
 38 35  1  0  0  0  0
 39 37  1  0  0  0  0
 40 34  1  0  0  0  0
 41 32  1  0  0  0  0
 41 39  2  0  0  0  0
 42 33  1  0  0  0  0
 42 29  1  0  0  0  0
M  END
>  <MODEL>
4

>  <REMARK>
 VINA RESULT:      -6.5      1.995      8.164
  Name = 
  11 active torsions:
  status: ('A' for Active; 'I' for Inactive)
    1  A    between atoms: N_1  and  C_9
    2  A    between atoms: C_3  and  C_6
    3  A    between atoms: C_6  and  C_9
    4  A    between atoms: C_10  and  C_18
    5  A    between atoms: C_10  and  C_35
    6  A    between atoms: C_11  and  C_35
    7  A    between atoms: C_16  and  C_27
    8  A    between atoms: C_18  and  C_41
    9  A    between atoms: N_21  and  C_25
   10  A    between atoms: N_21  and  C_40
   11  A    between atoms: N_29  and  C_38
                            x       y       z     vdW  Elec       q    Type
                         _______ _______ _______ _____ _____    ______ ____

>  <TORSDO>
F 11

$$$$
=
 OpenBabel11052411433D

 42 47  0  0  1  0  0  0  0  0999 V2000
  159.4040  210.1580  156.1220 C   0  0  1  0  0  3  0  0  0  0  0  0
  160.4760  211.8770  152.1540 S   0  0  0  0  0  0  0  0  0  0  0  0
  159.1350  213.0140  152.4540 C   0  0  0  0  0  0  0  0  0  0  0  0
  159.0880  211.5100  155.4650 C   0  0  0  0  0  2  0  0  0  0  0  0
  159.9450  209.1140  155.1350 C   0  0  0  0  0  2  0  0  0  0  0  0
  158.2900  212.6500  153.4180 C   0  0  0  0  0  0  0  0  0  0  0  0
  157.1270  213.4870  153.8510 C   0  0  0  0  0  1  0  0  0  0  0  0
  158.5640  211.3270  154.0400 C   0  0  1  0  0  3  0  0  0  0  0  0
  160.6070  209.7620  153.9170 C   0  0  2  0  0  3  0  0  0  0  0  0
  159.5990  210.6200  153.1420 C   0  0  2  0  0  3  0  0  0  0  0  0
  160.4820  208.3230  152.0400 C   0  0  0  0  0  3  0  0  0  0  0  0
  161.1520  208.7510  153.0470 N   0  0  0  0  0  0  0  0  0  0  0  0
  160.6760  205.8880  151.6710 C   0  0  2  0  0  3  0  0  0  0  0  0
  162.5420  207.3190  151.1750 C   0  0  0  0  0  3  0  0  0  0  0  0
  161.0960  204.7590  150.7420 C   0  0  1  0  0  0  0  0  0  0  0  0
  161.0520  207.2740  151.1440 C   0  0  2  0  0  3  0  0  0  0  0  0
  161.5520  205.0630  149.4530 O   0  0  0  0  0  1  0  0  0  0  0  0
  163.0500  206.1580  151.5560 C   0  0  0  0  0  3  0  0  0  0  0  0
  162.0040  205.1450  151.9010 C   0  0  1  0  0  3  0  0  0  0  0  0
  160.4180  203.4830  150.9220 N   0  0  0  0  0  2  0  0  0  0  0  0
  160.5330  202.0670  148.9570 C   0  0  0  0  0  1  0  0  0  0  0  0
  161.2040  202.4560  150.2570 C   0  0  0  0  0  2  0  0  0  0  0  0
  160.3960  210.3450  157.2610 C   0  0  0  0  0  2  0  0  0  0  0  0
  161.2460  211.5890  157.0550 C   0  0  0  0  0  2  0  0  0  0  0  0
  162.6320  211.2280  156.9220 N   0  0  0  0  0  0  0  0  0  0  0  0
  163.0200  210.0500  157.2370 C   0  0  0  0  0  2  0  0  0  0  0  0
  159.0190  214.2860  151.6730 C   0  0  0  0  0  2  0  0  0  0  0  0
  158.7670  213.9850  150.2080 C   0  0  0  0  0  2  0  0  0  0  0  0
  160.0820  214.0160  149.4530 C   0  0  0  0  0  2  0  0  0  0  0  0
  160.8330  213.5910  147.1950 C   0  0  0  0  0  0  0  0  0  0  0  0
  158.3950  213.7800  145.9910 N   0  0  0  0  0  2  0  0  0  0  0  0
  161.6910  213.2980  146.2630 C   0  0  0  0  0  3  0  0  0  0  0  0
  158.4320  213.7610  147.4580 C   0  0  0  0  0  2  0  0  0  0  0  0
  162.2950  212.9710  143.8490 N   0  0  0  0  0  0  0  0  0  0  0  0
  159.6500  212.2730  143.1020 C   0  0  0  0  0  2  0  0  0  0  0  0
  162.0250  212.4950  142.4970 C   0  0  0  0  0  2  0  0  0  0  0  0
  158.8540  212.4830  145.5000 C   0  0  0  0  0  2  0  0  0  0  0  0
  160.6150  212.8860  142.0990 C   0  0  0  0  0  2  0  0  0  0  0  0
  159.9860  212.6500  144.5200 C   0  0  0  0  0  0  0  0  0  0  0  0
  163.6200  213.5130  144.1130 C   0  0  0  0  0  1  0  0  0  0  0  0
  161.2740  212.9510  144.8730 C   0  0  0  0  0  0  0  0  0  0  0  0
  159.8380  213.8550  147.9930 C   0  0  0  0  0  0  0  0  0  0  0  0
  1 23  1  1  0  0  0
  2  3  1  0  0  0  0
  3  6  2  0  0  0  0
  4  1  1  0  0  0  0
  5  1  1  0  0  0  0
  6  7  1  0  0  0  0
  6  8  1  0  0  0  0
  8  4  1  1  0  0  0
  9 12  1  6  0  0  0
  9  5  1  0  0  0  0
 10  2  1  1  0  0  0
 10  9  1  0  0  0  0
 10  8  1  0  0  0  0
 11 12  2  0  0  0  0
 13 19  1  0  0  0  0
 14 18  2  0  0  0  0
 15 20  1  0  0  0  0
 15 13  1  0  0  0  0
 15 19  1  0  0  0  0
 16 14  1  0  0  0  0
 16 13  1  0  0  0  0
 16 11  1  0  0  0  0
 17 15  1  0  0  0  0
 18 19  1  0  0  0  0
 21 22  1  0  0  0  0
 22 20  1  0  0  0  0
 24 23  1  0  0  0  0
 25 24  1  0  0  0  0
 25 26  2  0  0  0  0
 27  3  1  0  0  0  0
 28 27  1  0  0  0  0
 29 28  1  0  0  0  0
 30 42  2  0  0  0  0
 31 33  1  0  0  0  0
 32 30  2  0  0  0  0
 33 42  1  0  0  0  0
 34 40  1  0  0  0  0
 34 41  1  0  0  0  0
 35 39  1  0  0  0  0
 36 34  1  0  0  0  0
 37 31  1  0  0  0  0
 38 36  1  0  0  0  0
 38 35  1  0  0  0  0
 39 41  2  0  0  0  0
 39 37  1  0  0  0  0
 41 32  1  0  0  0  0
 42 29  1  0  0  0  0
M  END
>  <MODEL>
5

>  <REMARK>
 VINA RESULT:      -6.2      3.043      9.354
  Name = 
  11 active torsions:
  status: ('A' for Active; 'I' for Inactive)
    1  A    between atoms: N_1  and  C_9
    2  A    between atoms: C_3  and  C_6
    3  A    between atoms: C_6  and  C_9
    4  A    between atoms: C_10  and  C_18
    5  A    between atoms: C_10  and  C_35
    6  A    between atoms: C_11  and  C_35
    7  A    between atoms: C_16  and  C_27
    8  A    between atoms: C_18  and  C_41
    9  A    between atoms: N_21  and  C_25
   10  A    between atoms: N_21  and  C_40
   11  A    between atoms: N_29  and  C_38
                            x       y       z     vdW  Elec       q    Type
                         _______ _______ _______ _____ _____    ______ ____

>  <TORSDO>
F 11

$$$$
=
 OpenBabel11052411433D

 42 47  0  0  1  0  0  0  0  0999 V2000
  160.7680  207.7050  154.4840 C   0  0  1  0  0  3  0  0  0  0  0  0
  162.4170  208.9110  150.5240 S   0  0  0  0  0  0  0  0  0  0  0  0
  161.5940  210.4630  150.8240 C   0  0  0  0  0  0  0  0  0  0  0  0
  160.9800  209.0790  153.8300 C   0  0  0  0  0  2  0  0  0  0  0  0
  160.8850  206.5360  153.4940 C   0  0  0  0  0  2  0  0  0  0  0  0
  160.6710  210.4380  151.7850 C   0  0  0  0  0  0  0  0  0  0  0  0
  159.9020  211.6470  152.2170 C   0  0  0  0  0  1  0  0  0  0  0  0
  160.4310  209.1070  152.4030 C   0  0  1  0  0  3  0  0  0  0  0  0
  161.7460  206.8950  152.2800 C   0  0  2  0  0  3  0  0  0  0  0  0
  161.1320  208.0670  151.5050 C   0  0  2  0  0  3  0  0  0  0  0  0
  161.5660  204.5800  151.8150 C   0  0  0  0  0  3  0  0  0  0  0  0
  161.8780  205.7560  151.4090 N   0  0  0  0  0  0  0  0  0  0  0  0
  161.1090  203.7370  149.5380 C   0  0  2  0  0  3  0  0  0  0  0  0
  160.9090  202.2540  151.4180 C   0  0  0  0  0  3  0  0  0  0  0  0
  161.3340  202.6450  148.5030 C   0  0  1  0  0  0  0  0  0  0  0  0
  161.7070  203.4040  150.9060 C   0  0  2  0  0  3  0  0  0  0  0  0
  162.2150  201.5950  148.7920 O   0  0  0  0  0  1  0  0  0  0  0  0
  160.0230  201.8470  150.5230 C   0  0  0  0  0  3  0  0  0  0  0  0
  160.0250  202.6760  149.2770 C   0  0  1  0  0  3  0  0  0  0  0  0
  161.2050  203.0360  147.1060 N   0  0  0  0  0  2  0  0  0  0  0  0
  161.2250  205.0360  145.7370 C   0  0  0  0  0  1  0  0  0  0  0  0
  161.8200  204.3440  146.9450 C   0  0  0  0  0  2  0  0  0  0  0  0
  161.7540  207.5070  155.6250 C   0  0  0  0  0  2  0  0  0  0  0  0
  161.0880  207.7250  156.9750 C   0  0  0  0  0  2  0  0  0  0  0  0
  160.9620  209.1310  157.2470 N   0  0  0  0  0  0  0  0  0  0  0  0
  162.0030  209.8770  157.2610 C   0  0  0  0  0  2  0  0  0  0  0  0
  161.9630  211.6890  150.0470 C   0  0  0  0  0  2  0  0  0  0  0  0
  162.0770  211.3640  148.5700 C   0  0  0  0  0  2  0  0  0  0  0  0
  162.6240  212.5670  147.8280 C   0  0  0  0  0  2  0  0  0  0  0  0
  162.1280  212.9540  145.4940 C   0  0  0  0  0  0  0  0  0  0  0  0
  159.5140  213.6580  145.8210 N   0  0  0  0  0  2  0  0  0  0  0  0
  162.3680  212.9830  144.2170 C   0  0  0  0  0  3  0  0  0  0  0  0
  160.2240  213.1110  146.9830 C   0  0  0  0  0  2  0  0  0  0  0  0
  161.6940  213.5220  141.8600 N   0  0  0  0  0  0  0  0  0  0  0  0
  158.9240  213.2430  142.4050 C   0  0  0  0  0  2  0  0  0  0  0  0
  160.7300  213.5750  140.7660 C   0  0  0  0  0  2  0  0  0  0  0  0
  159.4020  212.6080  144.8120 C   0  0  0  0  0  2  0  0  0  0  0  0
  159.4180  214.1380  141.2780 C   0  0  0  0  0  2  0  0  0  0  0  0
  159.9540  213.0720  143.4890 C   0  0  0  0  0  0  0  0  0  0  0  0
  163.0710  213.8800  141.5540 C   0  0  0  0  0  1  0  0  0  0  0  0
  161.2890  213.1750  143.2040 C   0  0  0  0  0  0  0  0  0  0  0  0
  161.7010  212.9520  146.7250 C   0  0  0  0  0  0  0  0  0  0  0  0
  1 23  1  1  0  0  0
  2  3  1  0  0  0  0
  3  6  2  0  0  0  0
  4  1  1  0  0  0  0
  5  1  1  0  0  0  0
  6  7  1  0  0  0  0
  6  8  1  0  0  0  0
  8  4  1  1  0  0  0
  9 12  1  6  0  0  0
  9  5  1  0  0  0  0
 10  2  1  1  0  0  0
 10  9  1  0  0  0  0
 10  8  1  0  0  0  0
 12 11  2  0  0  0  0
 13 16  1  0  0  0  0
 15 17  1  0  0  0  0
 15 19  1  0  0  0  0
 15 13  1  0  0  0  0
 16 14  1  0  0  0  0
 16 11  1  0  0  0  0
 18 14  2  0  0  0  0
 19 13  1  0  0  0  0
 19 18  1  0  0  0  0
 20 15  1  0  0  0  0
 21 22  1  0  0  0  0
 22 20  1  0  0  0  0
 23 24  1  0  0  0  0
 24 25  1  0  0  0  0
 25 26  2  0  0  0  0
 27  3  1  0  0  0  0
 28 27  1  0  0  0  0
 29 28  1  0  0  0  0
 30 42  2  0  0  0  0
 31 33  1  0  0  0  0
 32 30  2  0  0  0  0
 34 41  1  0  0  0  0
 35 39  1  0  0  0  0
 36 38  1  0  0  0  0
 36 34  1  0  0  0  0
 37 31  1  0  0  0  0
 38 35  1  0  0  0  0
 39 37  1  0  0  0  0
 40 34  1  0  0  0  0
 41 39  2  0  0  0  0
 41 32  1  0  0  0  0
 42 33  1  0  0  0  0
 42 29  1  0  0  0  0
M  END
>  <MODEL>
6

>  <REMARK>
 VINA RESULT:      -6.0      3.240      9.415
  Name = 
  11 active torsions:
  status: ('A' for Active; 'I' for Inactive)
    1  A    between atoms: N_1  and  C_9
    2  A    between atoms: C_3  and  C_6
    3  A    between atoms: C_6  and  C_9
    4  A    between atoms: C_10  and  C_18
    5  A    between atoms: C_10  and  C_35
    6  A    between atoms: C_11  and  C_35
    7  A    between atoms: C_16  and  C_27
    8  A    between atoms: C_18  and  C_41
    9  A    between atoms: N_21  and  C_25
   10  A    between atoms: N_21  and  C_40
   11  A    between atoms: N_29  and  C_38
                            x       y       z     vdW  Elec       q    Type
                         _______ _______ _______ _____ _____    ______ ____

>  <TORSDO>
F 11

$$$$
=
 OpenBabel11052411433D

 42 47  0  0  1  0  0  0  0  0999 V2000
  158.8100  211.6500  156.2540 C   0  0  1  0  0  3  0  0  0  0  0  0
  160.4630  209.2530  152.8810 S   0  0  0  0  0  0  0  0  0  0  0  0
  161.1830  208.2360  154.1560 C   0  0  0  0  0  0  0  0  0  0  0  0
  159.3690  210.2210  156.1810 C   0  0  0  0  0  2  0  0  0  0  0  0
  159.1340  212.4930  155.0120 C   0  0  0  0  0  2  0  0  0  0  0  0
  161.2160  208.7870  155.3680 C   0  0  0  0  0  0  0  0  0  0  0  0
  161.7390  208.0800  156.5790 C   0  0  0  0  0  1  0  0  0  0  0  0
  160.7100  210.1840  155.4470 C   0  0  1  0  0  3  0  0  0  0  0  0
  159.3810  211.6250  153.7750 C   0  0  2  0  0  3  0  0  0  0  0  0
  160.5770  210.6910  153.9970 C   0  0  2  0  0  3  0  0  0  0  0  0
  158.8270  212.4270  151.6170 C   0  0  0  0  0  3  0  0  0  0  0  0
  159.6220  212.4550  152.6230 N   0  0  0  0  0  0  0  0  0  0  0  0
  159.8440  212.4880  149.3670 C   0  0  2  0  0  3  0  0  0  0  0  0
  159.9840  214.4200  150.7890 C   0  0  0  0  0  3  0  0  0  0  0  0
  160.0280  213.2450  148.0590 C   0  0  1  0  0  0  0  0  0  0  0  0
  159.0850  213.2890  150.4260 C   0  0  2  0  0  3  0  0  0  0  0  0
  159.3300  214.4420  147.8550 O   0  0  0  0  0  1  0  0  0  0  0  0
  161.0810  214.4200  150.0460 C   0  0  0  0  0  3  0  0  0  0  0  0
  161.1440  213.2670  149.0940 C   0  0  1  0  0  3  0  0  0  0  0  0
  160.3290  212.4440  146.8810 N   0  0  0  0  0  2  0  0  0  0  0  0
  159.8190  212.1400  144.5310 C   0  0  0  0  0  1  0  0  0  0  0  0
  159.5980  213.0020  145.7560 C   0  0  0  0  0  2  0  0  0  0  0  0
  157.3040  211.6170  156.4690 C   0  0  0  0  0  2  0  0  0  0  0  0
  156.6510  212.9090  156.0030 C   0  0  0  0  0  2  0  0  0  0  0  0
  155.8300  212.6640  154.8480 N   0  0  0  0  0  0  0  0  0  0  0  0
  155.2600  213.6410  154.2490 C   0  0  0  0  0  2  0  0  0  0  0  0
  161.6770  206.8560  153.8480 C   0  0  0  0  0  2  0  0  0  0  0  0
  161.1190  206.3790  152.5210 C   0  0  0  0  0  2  0  0  0  0  0  0
  161.0830  207.5360  151.5430 C   0  0  0  0  0  2  0  0  0  0  0  0
  161.1430  205.9190  149.7480 C   0  0  0  0  0  0  0  0  0  0  0  0
  162.7080  207.3650  148.0480 N   0  0  0  0  0  2  0  0  0  0  0  0
  160.8390  204.8150  149.1320 C   0  0  0  0  0  3  0  0  0  0  0  0
  162.2010  208.0390  149.2480 C   0  0  0  0  0  2  0  0  0  0  0  0
  161.0930  203.2240  147.2060 N   0  0  0  0  0  0  0  0  0  0  0  0
  161.8430  205.2700  145.3910 C   0  0  0  0  0  2  0  0  0  0  0  0
  161.2400  202.9180  145.7880 C   0  0  0  0  0  2  0  0  0  0  0  0
  161.5750  207.0420  147.1850 C   0  0  0  0  0  2  0  0  0  0  0  0
  162.2880  203.8310  145.1820 C   0  0  0  0  0  2  0  0  0  0  0  0
  161.5640  205.5750  146.8380 C   0  0  0  0  0  0  0  0  0  0  0  0
  160.9160  202.1030  148.1170 C   0  0  0  0  0  1  0  0  0  0  0  0
  161.1680  204.5840  147.6950 C   0  0  0  0  0  0  0  0  0  0  0  0
  161.5220  207.0820  150.1940 C   0  0  0  0  0  0  0  0  0  0  0  0
  1 23  1  6  0  0  0
  2  3  1  0  0  0  0
  3  6  2  0  0  0  0
  4  1  1  0  0  0  0
  5  1  1  0  0  0  0
  6  8  1  0  0  0  0
  6  7  1  0  0  0  0
  8  4  1  6  0  0  0
  9 12  1  6  0  0  0
  9 10  1  0  0  0  0
  9  5  1  0  0  0  0
 10  2  1  6  0  0  0
 10  8  1  0  0  0  0
 11 12  2  0  0  0  0
 13 16  1  0  0  0  0
 15 19  1  0  0  0  0
 15 13  1  0  0  0  0
 16 14  1  0  0  0  0
 16 11  1  0  0  0  0
 17 15  1  0  0  0  0
 18 14  2  0  0  0  0
 19 13  1  0  0  0  0
 19 18  1  0  0  0  0
 20 15  1  0  0  0  0
 21 22  1  0  0  0  0
 22 20  1  0  0  0  0
 24 23  1  0  0  0  0
 25 24  1  0  0  0  0
 26 25  2  0  0  0  0
 27  3  1  0  0  0  0
 28 27  1  0  0  0  0
 29 28  1  0  0  0  0
 30 42  2  0  0  0  0
 31 33  1  0  0  0  0
 32 30  2  0  0  0  0
 33 42  1  0  0  0  0
 34 41  1  0  0  0  0
 34 40  1  0  0  0  0
 35 39  1  0  0  0  0
 36 34  1  0  0  0  0
 37 31  1  0  0  0  0
 38 35  1  0  0  0  0
 38 36  1  0  0  0  0
 39 37  1  0  0  0  0
 39 41  2  0  0  0  0
 41 32  1  0  0  0  0
 42 29  1  0  0  0  0
M  END
>  <MODEL>
7

>  <REMARK>
 VINA RESULT:      -5.7      1.705      8.171
  Name = 
  11 active torsions:
  status: ('A' for Active; 'I' for Inactive)
    1  A    between atoms: N_1  and  C_9
    2  A    between atoms: C_3  and  C_6
    3  A    between atoms: C_6  and  C_9
    4  A    between atoms: C_10  and  C_18
    5  A    between atoms: C_10  and  C_35
    6  A    between atoms: C_11  and  C_35
    7  A    between atoms: C_16  and  C_27
    8  A    between atoms: C_18  and  C_41
    9  A    between atoms: N_21  and  C_25
   10  A    between atoms: N_21  and  C_40
   11  A    between atoms: N_29  and  C_38
                            x       y       z     vdW  Elec       q    Type
                         _______ _______ _______ _____ _____    ______ ____

>  <TORSDO>
F 11

$$$$
=
 OpenBabel11052411433D

 42 47  0  0  1  0  0  0  0  0999 V2000
  161.9250  211.1730  149.3310 C   0  0  1  0  0  3  0  0  0  0  0  0
  161.1820  207.3400  151.4780 S   0  0  0  0  0  0  0  0  0  0  0  0
  161.7520  208.2150  152.9230 C   0  0  0  0  0  0  0  0  0  0  0  0
  161.7470  210.8430  150.8200 C   0  0  0  0  0  2  0  0  0  0  0  0
  162.1680  209.9320  148.4590 C   0  0  0  0  0  2  0  0  0  0  0  0
  162.4100  209.3460  152.6770 C   0  0  0  0  0  0  0  0  0  0  0  0
  162.9290  210.2470  153.7530 C   0  0  0  0  0  1  0  0  0  0  0  0
  162.6220  209.6610  151.2380 C   0  0  1  0  0  3  0  0  0  0  0  0
  161.5980  208.6610  149.0950 C   0  0  2  0  0  3  0  0  0  0  0  0
  162.2650  208.3850  150.4480 C   0  0  2  0  0  3  0  0  0  0  0  0
  160.7900  206.9050  147.7260 C   0  0  0  0  0  3  0  0  0  0  0  0
  161.7940  207.5340  148.2200 N   0  0  0  0  0  0  0  0  0  0  0  0
  161.2450  204.4780  147.6560 C   0  0  2  0  0  3  0  0  0  0  0  0
  162.2390  205.9240  146.0130 C   0  0  0  0  0  3  0  0  0  0  0  0
  161.3310  203.2110  146.8180 C   0  0  1  0  0  0  0  0  0  0  0  0
  161.0010  205.7370  146.8210 C   0  0  2  0  0  3  0  0  0  0  0  0
  160.9690  203.2550  145.4660 O   0  0  0  0  0  1  0  0  0  0  0  0
  163.0930  204.9310  146.2050 C   0  0  0  0  0  3  0  0  0  0  0  0
  162.6130  203.9310  147.2100 C   0  0  1  0  0  3  0  0  0  0  0  0
  161.1210  201.9530  147.5200 N   0  0  0  0  0  2  0  0  0  0  0  0
  160.8940  201.0380  149.7540 C   0  0  0  0  0  1  0  0  0  0  0  0
  160.6990  202.2580  148.8780 C   0  0  0  0  0  2  0  0  0  0  0  0
  160.7150  211.9330  148.8100 C   0  0  0  0  0  2  0  0  0  0  0  0
  160.8920  212.3200  147.3500 C   0  0  0  0  0  2  0  0  0  0  0  0
  162.0840  213.1070  147.1840 N   0  0  0  0  0  0  0  0  0  0  0  0
  162.1960  213.8970  146.1820 C   0  0  0  0  0  2  0  0  0  0  0  0
  161.4650  207.6930  154.2970 C   0  0  0  0  0  2  0  0  0  0  0  0
  160.0570  208.0660  154.7200 C   0  0  0  0  0  2  0  0  0  0  0  0
  160.1180  209.0450  155.8750 C   0  0  0  0  0  2  0  0  0  0  0  0
  158.9990  210.6980  154.5110 C   0  0  0  0  0  0  0  0  0  0  0  0
  157.3170  211.6380  156.4390 N   0  0  0  0  0  2  0  0  0  0  0  0
  158.7210  211.3470  153.4190 C   0  0  0  0  0  3  0  0  0  0  0  0
  158.0920  210.4300  156.7400 C   0  0  0  0  0  2  0  0  0  0  0  0
  157.5160  213.1730  152.1890 N   0  0  0  0  0  0  0  0  0  0  0  0
  155.3540  213.2200  154.0230 C   0  0  0  0  0  2  0  0  0  0  0  0
  156.3420  213.9910  151.9060 C   0  0  0  0  0  2  0  0  0  0  0  0
  156.3750  211.3280  155.3670 C   0  0  0  0  0  2  0  0  0  0  0  0
  155.7230  214.4520  153.2110 C   0  0  0  0  0  2  0  0  0  0  0  0
  156.5260  212.2970  154.2220 C   0  0  0  0  0  0  0  0  0  0  0  0
  158.6760  213.3490  151.3270 C   0  0  0  0  0  1  0  0  0  0  0  0
  157.5450  212.2600  153.3100 C   0  0  0  0  0  0  0  0  0  0  0  0
  159.1210  210.1340  155.6780 C   0  0  0  0  0  0  0  0  0  0  0  0
  1 23  1  6  0  0  0
  1  4  1  0  0  0  0
  2  3  1  0  0  0  0
  3 27  1  0  0  0  0
  5  9  1  0  0  0  0
  5  1  1  0  0  0  0
  6  3  2  0  0  0  0
  6  7  1  0  0  0  0
  8  4  1  6  0  0  0
  8  6  1  0  0  0  0
  9 12  1  6  0  0  0
  9 10  1  0  0  0  0
 10  8  1  0  0  0  0
 10  2  1  1  0  0  0
 11 12  2  0  0  0  0
 14 18  2  0  0  0  0
 14 16  1  0  0  0  0
 15 19  1  0  0  0  0
 15 20  1  0  0  0  0
 15 13  1  0  0  0  0
 16 13  1  0  0  0  0
 16 11  1  0  0  0  0
 17 15  1  0  0  0  0
 18 19  1  0  0  0  0
 19 13  1  0  0  0  0
 20 22  1  0  0  0  0
 22 21  1  0  0  0  0
 24 23  1  0  0  0  0
 25 24  1  0  0  0  0
 26 25  2  0  0  0  0
 27 28  1  0  0  0  0
 28 29  1  0  0  0  0
 30 42  2  0  0  0  0
 31 33  1  0  0  0  0
 32 30  2  0  0  0  0
 34 41  1  0  0  0  0
 35 39  1  0  0  0  0
 36 34  1  0  0  0  0
 36 38  1  0  0  0  0
 37 31  1  0  0  0  0
 38 35  1  0  0  0  0
 39 37  1  0  0  0  0
 40 34  1  0  0  0  0
 41 32  1  0  0  0  0
 41 39  2  0  0  0  0
 42 29  1  0  0  0  0
 42 33  1  0  0  0  0
M  END
>  <MODEL>
8

>  <REMARK>
 VINA RESULT:      -5.6      2.512      5.891
  Name = 
  11 active torsions:
  status: ('A' for Active; 'I' for Inactive)
    1  A    between atoms: N_1  and  C_9
    2  A    between atoms: C_3  and  C_6
    3  A    between atoms: C_6  and  C_9
    4  A    between atoms: C_10  and  C_18
    5  A    between atoms: C_10  and  C_35
    6  A    between atoms: C_11  and  C_35
    7  A    between atoms: C_16  and  C_27
    8  A    between atoms: C_18  and  C_41
    9  A    between atoms: N_21  and  C_25
   10  A    between atoms: N_21  and  C_40
   11  A    between atoms: N_29  and  C_38
                            x       y       z     vdW  Elec       q    Type
                         _______ _______ _______ _____ _____    ______ ____

>  <TORSDO>
F 11

$$$$
