=
 OpenBabel11042421523D

 47 52  0  0  1  0  0  0  0  0999 V2000
  162.3960  208.1830  148.9090 C   0  0  2  0  0  3  0  0  0  0  0  0
  160.8250  211.4540  148.7960 C   0  0  0  0  0  2  0  0  0  0  0  0
  162.1570  210.7990  149.1530 C   0  0  2  0  0  0  0  0  0  0  0  0
  160.5570  210.1950  157.0680 C   0  0  0  0  0  3  0  0  0  0  0  0
  160.4050  212.5310  149.8000 C   0  0  1  0  0  3  0  0  0  0  0  0
  161.9720  206.4620  151.1410 O   0  0  0  0  0  0  0  0  0  0  0  0
  160.8240  211.2880  156.3580 C   0  0  0  0  0  0  0  0  0  0  0  0
  159.9670  209.2420  154.1830 C   0  0  0  0  0  0  0  0  0  0  0  0
  159.5530  213.6520  149.2010 C   0  0  2  0  0  3  0  0  0  0  0  0
  158.4180  213.0570  151.3060 C   0  0  0  0  0  2  0  0  0  0  0  0
  159.8320  209.0660  156.5920 N   0  0  0  0  0  2  0  0  0  0  0  0
  160.1610  208.4860  152.9100 C   0  0  0  0  0  2  0  0  0  0  0  0
  159.9790  213.4740  153.0470 O   0  0  0  0  0  0  0  0  0  0  0  0
  159.9010  208.5570  155.2850 N   0  0  0  0  0  0  0  0  0  0  0  0
  161.9050  207.7040  151.3420 C   0  0  0  0  0  0  0  0  0  0  0  0
  161.6400  208.1960  152.7230 C   0  0  0  0  0  2  0  0  0  0  0  0
  162.0650  208.6270  150.2540 N   0  0  0  0  0  0  0  0  0  0  0  0
  162.0340  210.0610  150.4770 C   0  0  0  0  0  2  0  0  0  0  0  0
  158.8890  212.5110  149.9550 C   0  0  2  0  0  3  0  0  0  0  0  0
  160.2440  211.5600  155.0380 C   0  0  0  0  0  3  0  0  0  0  0  0
  159.8240  210.7120  154.0950 C   0  0  0  0  0  0  0  0  0  0  0  0
  159.2560  212.6210  152.4680 C   0  0  0  0  0  0  0  0  0  0  0  0
  163.2540  211.8450  149.2550 C   0  0  0  0  0  1  0  0  0  0  0  0
  159.2590  211.2440  152.8820 N   0  0  0  0  0  2  0  0  0  0  0  0
  162.5960  209.6310  147.8250 S   0  0  0  0  0  0  0  0  0  0  0  0
  162.8300  212.1960  157.2580 O   0  0  0  0  0  0  0  0  0  0  0  0
  161.6090  212.3690  156.9860 C   0  0  0  0  0  0  0  0  0  0  0  0
  160.9980  213.5960  157.2610 O   0  0  0  0  0  0  0  0  0  0  0  0
  159.9110  214.0860  156.4890 C   0  0  0  0  0  1  0  0  0  0  0  0
  161.4040  207.2430  148.3740 N   0  0  0  0  0  2  0  0  0  0  0  0
  161.8670  206.6530  147.1210 C   0  0  0  0  0  2  0  0  0  0  0  0
  162.1990  205.1870  147.3390 C   0  0  0  0  0  2  0  0  0  0  0  0
  161.0700  204.5030  147.9600 N   0  0  0  0  0  2  0  0  0  0  0  0
  161.3330  203.0760  147.8950 C   0  0  2  0  0  3  0  0  0  0  0  0
  161.1720  202.6370  146.5820 O   0  0  0  0  0  1  0  0  0  0  0  0
  161.1130  201.2890  149.6020 C   0  0  0  0  0  2  0  0  0  0  0  0
  160.3620  202.3420  148.8020 C   0  0  0  0  0  3  0  0  0  0  0  0
  160.7380  202.6040  150.2440 C   0  0  0  0  0  2  0  0  0  0  0  0
  159.3370  213.4970  147.7680 N   0  0  0  0  0  2  0  0  0  0  0  0
  160.2230  214.4520  147.1130 C   0  0  0  0  0  2  0  0  0  0  0  0
  160.4230  212.8650  143.7190 N   0  0  0  0  0  0  0  0  0  0  0  0
  160.7700  213.8700  145.8560 C   0  0  0  0  0  0  0  0  0  0  0  0
  159.9120  213.4010  144.8600 C   0  0  0  0  0  3  0  0  0  0  0  0
  161.7630  212.7730  143.5160 C   0  0  0  0  0  0  0  0  0  0  0  0
  162.1490  213.7920  145.6620 C   0  0  0  0  0  3  0  0  0  0  0  0
  162.2830  212.1720  142.2600 C   0  0  0  0  0  1  0  0  0  0  0  0
  162.6520  213.2380  144.4850 C   0  0  0  0  0  3  0  0  0  0  0  0
  1 30  1  6  0  0  0
  1 17  1  0  0  0  0
  2  3  1  0  0  0  0
  3 23  1  1  0  0  0
  3 18  1  0  0  0  0
  5  2  1  6  0  0  0
  5 19  1  0  0  0  0
  6 15  2  0  0  0  0
  7 27  1  0  0  0  0
  7  4  2  0  0  0  0
  8 14  2  0  0  0  0
  9 39  1  6  0  0  0
  9  5  1  0  0  0  0
  9 19  1  0  0  0  0
 10 22  1  0  0  0  0
 11  4  1  0  0  0  0
 12  8  1  0  0  0  0
 14 11  1  0  0  0  0
 15 16  1  0  0  0  0
 16 12  1  0  0  0  0
 17 18  1  0  0  0  0
 17 15  1  0  0  0  0
 19 10  1  1  0  0  0
 20  7  1  0  0  0  0
 21  8  1  0  0  0  0
 21 20  2  0  0  0  0
 22 24  1  0  0  0  0
 22 13  2  0  0  0  0
 24 21  1  0  0  0  0
 25  1  1  0  0  0  0
 25  3  1  0  0  0  0
 27 26  2  0  0  0  0
 27 28  1  0  0  0  0
 29 28  1  0  0  0  0
 31 32  1  0  0  0  0
 31 30  1  0  0  0  0
 32 33  1  0  0  0  0
 34 35  1  6  0  0  0
 34 33  1  0  0  0  0
 34 37  1  0  0  0  0
 36 38  1  0  0  0  0
 37 36  1  0  0  0  0
 37 38  1  0  0  0  0
 40 39  1  0  0  0  0
 41 43  1  0  0  0  0
 42 40  1  0  0  0  0
 43 42  2  0  0  0  0
 44 41  2  0  0  0  0
 44 47  1  0  0  0  0
 45 42  1  0  0  0  0
 46 44  1  0  0  0  0
 47 45  2  0  0  0  0
M  END
>  <MODEL>
1

>  <REMARK>
 VINA RESULT:      -2.9      0.000      0.000
  Name = 
  11 active torsions:
  status: ('A' for Active; 'I' for Inactive)
    1  A    between atoms: C_2  and  N_24
    2  A    between atoms: C_5  and  N_21
    3  A    between atoms: C_5  and  C_40
    4  A    between atoms: C_7  and  C_42
    5  A    between atoms: C_10  and  C_36
    6  A    between atoms: C_12  and  N_21
    7  A    between atoms: C_12  and  C_43
    8  A    between atoms: C_16  and  N_31
    9  A    between atoms: N_24  and  C_43
   10  A    between atoms: O_25  and  C_36
   11  A    between atoms: N_31  and  C_42
                            x       y       z     vdW  Elec       q    Type
                         _______ _______ _______ _____ _____    ______ ____

>  <TORSDO>
F 11

$$$$
=
 OpenBabel11042421523D

 47 52  0  0  1  0  0  0  0  0999 V2000
  162.3630  208.0440  148.7840 C   0  0  2  0  0  3  0  0  0  0  0  0
  160.8810  211.3580  148.7810 C   0  0  0  0  0  2  0  0  0  0  0  0
  162.2030  210.6600  149.0900 C   0  0  2  0  0  0  0  0  0  0  0  0
  160.7810  209.9240  157.0290 C   0  0  0  0  0  3  0  0  0  0  0  0
  160.5160  212.4240  149.8190 C   0  0  1  0  0  3  0  0  0  0  0  0
  161.9460  206.2860  150.9890 O   0  0  0  0  0  0  0  0  0  0  0  0
  161.0620  211.0250  156.3360 C   0  0  0  0  0  0  0  0  0  0  0  0
  160.0950  209.0520  154.1400 C   0  0  0  0  0  0  0  0  0  0  0  0
  159.6820  213.5810  149.2660 C   0  0  2  0  0  3  0  0  0  0  0  0
  158.5820  212.9710  151.3860 C   0  0  0  0  0  2  0  0  0  0  0  0
  160.0140  208.8250  156.5470 N   0  0  0  0  0  2  0  0  0  0  0  0
  160.2360  208.3190  152.8460 C   0  0  0  0  0  2  0  0  0  0  0  0
  160.1970  213.3060  153.0950 O   0  0  0  0  0  0  0  0  0  0  0  0
  160.0370  208.3450  155.2280 N   0  0  0  0  0  0  0  0  0  0  0  0
  161.9190  207.5250  151.2180 C   0  0  0  0  0  0  0  0  0  0  0  0
  161.7020  207.9930  152.6150 C   0  0  0  0  0  2  0  0  0  0  0  0
  162.0770  208.4670  150.1470 N   0  0  0  0  0  0  0  0  0  0  0  0
  162.0930  209.8970  150.4020 C   0  0  0  0  0  2  0  0  0  0  0  0
  159.0050  212.4430  150.0120 C   0  0  2  0  0  3  0  0  0  0  0  0
  160.4580  211.3420  155.0380 C   0  0  0  0  0  3  0  0  0  0  0  0
  159.9910  210.5270  154.0870 C   0  0  0  0  0  0  0  0  0  0  0  0
  159.4370  212.4870  152.5160 C   0  0  0  0  0  0  0  0  0  0  0  0
  163.3320  211.6720  149.1870 C   0  0  0  0  0  1  0  0  0  0  0  0
  159.4110  211.1010  152.9010 N   0  0  0  0  0  2  0  0  0  0  0  0
  162.5770  209.5100  147.7270 S   0  0  0  0  0  0  0  0  0  0  0  0
  163.1070  211.8480  157.2290 O   0  0  0  0  0  0  0  0  0  0  0  0
  161.8920  212.0690  156.9670 C   0  0  0  0  0  0  0  0  0  0  0  0
  161.3300  213.3170  157.2560 O   0  0  0  0  0  0  0  0  0  0  0  0
  159.9260  213.5280  157.2600 C   0  0  0  0  0  1  0  0  0  0  0  0
  161.3320  207.1440  148.2550 N   0  0  0  0  0  2  0  0  0  0  0  0
  161.8670  206.3160  147.1770 C   0  0  0  0  0  2  0  0  0  0  0  0
  162.5640  205.1000  147.7650 C   0  0  0  0  0  2  0  0  0  0  0  0
  162.6870  204.0550  146.7550 N   0  0  0  0  0  2  0  0  0  0  0  0
  161.3730  203.4650  146.5730 C   0  0  2  0  0  3  0  0  0  0  0  0
  161.3370  202.2180  147.1960 O   0  0  0  0  0  1  0  0  0  0  0  0
  159.8280  204.0630  144.7250 C   0  0  0  0  0  2  0  0  0  0  0  0
  161.0930  203.3020  145.0890 C   0  0  0  0  0  3  0  0  0  0  0  0
  161.1830  204.6560  144.4180 C   0  0  0  0  0  2  0  0  0  0  0  0
  159.4270  213.4640  147.8360 N   0  0  0  0  0  2  0  0  0  0  0  0
  160.5510  214.1040  147.1640 C   0  0  0  0  0  2  0  0  0  0  0  0
  159.7020  212.6680  143.8020 N   0  0  0  0  0  0  0  0  0  0  0  0
  160.6870  213.5800  145.7760 C   0  0  0  0  0  0  0  0  0  0  0  0
  159.5640  213.1510  145.0670 C   0  0  0  0  0  3  0  0  0  0  0  0
  160.9160  212.5940  143.1990 C   0  0  0  0  0  0  0  0  0  0  0  0
  161.9410  213.5210  145.1690 C   0  0  0  0  0  3  0  0  0  0  0  0
  161.0260  212.0530  141.8190 C   0  0  0  0  0  1  0  0  0  0  0  0
  162.0600  213.0230  143.8720 C   0  0  0  0  0  3  0  0  0  0  0  0
  1 30  1  6  0  0  0
  1 17  1  0  0  0  0
  2  3  1  0  0  0  0
  3 23  1  1  0  0  0
  3 18  1  0  0  0  0
  5  2  1  6  0  0  0
  5 19  1  0  0  0  0
  6 15  2  0  0  0  0
  7 27  1  0  0  0  0
  7  4  2  0  0  0  0
  8 14  2  0  0  0  0
  9 39  1  6  0  0  0
  9  5  1  0  0  0  0
  9 19  1  0  0  0  0
 10 22  1  0  0  0  0
 11  4  1  0  0  0  0
 12  8  1  0  0  0  0
 14 11  1  0  0  0  0
 15 16  1  0  0  0  0
 16 12  1  0  0  0  0
 17 18  1  0  0  0  0
 17 15  1  0  0  0  0
 19 10  1  1  0  0  0
 20  7  1  0  0  0  0
 21  8  1  0  0  0  0
 21 20  2  0  0  0  0
 22 24  1  0  0  0  0
 22 13  2  0  0  0  0
 24 21  1  0  0  0  0
 25  1  1  0  0  0  0
 25  3  1  0  0  0  0
 27 26  2  0  0  0  0
 27 28  1  0  0  0  0
 28 29  1  0  0  0  0
 31 32  1  0  0  0  0
 31 30  1  0  0  0  0
 33 32  1  0  0  0  0
 34 33  1  0  0  0  0
 34 35  1  1  0  0  0
 36 37  1  0  0  0  0
 37 34  1  0  0  0  0
 38 36  1  0  0  0  0
 38 37  1  0  0  0  0
 40 39  1  0  0  0  0
 41 43  1  0  0  0  0
 42 40  1  0  0  0  0
 43 42  2  0  0  0  0
 44 41  2  0  0  0  0
 44 47  1  0  0  0  0
 45 42  1  0  0  0  0
 46 44  1  0  0  0  0
 47 45  2  0  0  0  0
M  END
>  <MODEL>
2

>  <REMARK>
 VINA RESULT:      -1.1      1.033      1.470
  Name = 
  11 active torsions:
  status: ('A' for Active; 'I' for Inactive)
    1  A    between atoms: C_2  and  N_24
    2  A    between atoms: C_5  and  N_21
    3  A    between atoms: C_5  and  C_40
    4  A    between atoms: C_7  and  C_42
    5  A    between atoms: C_10  and  C_36
    6  A    between atoms: C_12  and  N_21
    7  A    between atoms: C_12  and  C_43
    8  A    between atoms: C_16  and  N_31
    9  A    between atoms: N_24  and  C_43
   10  A    between atoms: O_25  and  C_36
   11  A    between atoms: N_31  and  C_42
                            x       y       z     vdW  Elec       q    Type
                         _______ _______ _______ _____ _____    ______ ____

>  <TORSDO>
F 11

$$$$
=
 OpenBabel11042421523D

 47 52  0  0  1  0  0  0  0  0999 V2000
  159.7240  211.4210  154.7670 C   0  0  2  0  0  3  0  0  0  0  0  0
  160.5570  212.2190  151.3250 C   0  0  0  0  0  2  0  0  0  0  0  0
  159.4330  211.5980  152.1510 C   0  0  2  0  0  0  0  0  0  0  0  0
  161.8980  203.9590  151.0800 C   0  0  0  0  0  3  0  0  0  0  0  0
  160.8400  211.4480  150.0320 C   0  0  1  0  0  3  0  0  0  0  0  0
  160.7180  209.0350  155.9690 O   0  0  0  0  0  0  0  0  0  0  0  0
  161.3390  204.7810  150.1950 C   0  0  0  0  0  0  0  0  0  0  0  0
  162.3860  206.7240  152.3810 C   0  0  0  0  0  0  0  0  0  0  0  0
  161.3740  212.3120  148.8880 C   0  0  2  0  0  3  0  0  0  0  0  0
  162.8110  210.3090  148.8880 C   0  0  0  0  0  2  0  0  0  0  0  0
  162.7930  204.3540  152.1150 N   0  0  0  0  0  2  0  0  0  0  0  0
  162.2300  207.8360  153.3660 C   0  0  0  0  0  2  0  0  0  0  0  0
  161.3770  208.4590  148.4850 O   0  0  0  0  0  0  0  0  0  0  0  0
  162.7030  205.5520  152.8420 N   0  0  0  0  0  0  0  0  0  0  0  0
  160.5420  209.0300  154.7210 C   0  0  0  0  0  0  0  0  0  0  0  0
  160.8330  207.7830  153.9600 C   0  0  0  0  0  2  0  0  0  0  0  0
  160.0860  210.2110  154.0450 N   0  0  0  0  0  0  0  0  0  0  0  0
  159.8380  210.2070  152.6140 C   0  0  0  0  0  2  0  0  0  0  0  0
  162.3340  211.4920  149.7350 C   0  0  2  0  0  3  0  0  0  0  0  0
  161.7160  206.1910  150.0470 C   0  0  0  0  0  3  0  0  0  0  0  0
  162.2090  207.0460  150.9470 C   0  0  0  0  0  0  0  0  0  0  0  0
  162.2010  208.9960  149.2710 C   0  0  0  0  0  0  0  0  0  0  0  0
  158.1570  211.5080  151.3320 C   0  0  0  0  0  1  0  0  0  0  0  0
  162.5280  208.3870  150.5320 N   0  0  0  0  0  2  0  0  0  0  0  0
  159.1190  212.6700  153.5900 S   0  0  0  0  0  0  0  0  0  0  0  0
  159.5380  203.3750  149.5340 O   0  0  0  0  0  0  0  0  0  0  0  0
  160.4110  204.2210  149.1930 C   0  0  0  0  0  0  0  0  0  0  0  0
  160.4910  204.6490  147.8640 O   0  0  0  0  0  0  0  0  0  0  0  0
  161.1220  203.8700  146.8580 C   0  0  0  0  0  1  0  0  0  0  0  0
  160.8330  211.9370  155.5770 N   0  0  0  0  0  2  0  0  0  0  0  0
  160.4870  211.9330  156.9960 C   0  0  0  0  0  2  0  0  0  0  0  0
  159.4030  212.9640  157.2600 C   0  0  0  0  0  2  0  0  0  0  0  0
  158.0910  212.3250  157.2600 N   0  0  0  0  0  2  0  0  0  0  0  0
  157.2670  213.0180  156.2860 C   0  0  2  0  0  3  0  0  0  0  0  0
  156.9600  214.2910  156.7650 O   0  0  0  0  0  1  0  0  0  0  0  0
  155.4240  212.5670  154.6860 C   0  0  0  0  0  2  0  0  0  0  0  0
  155.9860  212.2350  156.0600 C   0  0  0  0  0  3  0  0  0  0  0  0
  156.1870  211.2810  154.9040 C   0  0  0  0  0  2  0  0  0  0  0  0
  161.4750  213.7220  149.2410 N   0  0  0  0  0  2  0  0  0  0  0  0
  160.7070  214.4520  148.2390 C   0  0  0  0  0  2  0  0  0  0  0  0
  160.7090  212.9370  144.8060 N   0  0  0  0  0  0  0  0  0  0  0  0
  161.1390  214.0570  146.8700 C   0  0  0  0  0  0  0  0  0  0  0  0
  160.3000  213.2980  146.0520 C   0  0  0  0  0  3  0  0  0  0  0  0
  161.9250  213.3010  144.3240 C   0  0  0  0  0  0  0  0  0  0  0  0
  162.3880  214.4490  146.3900 C   0  0  0  0  0  3  0  0  0  0  0  0
  162.3390  212.8810  142.9610 C   0  0  0  0  0  1  0  0  0  0  0  0
  162.7870  214.0680  145.1090 C   0  0  0  0  0  3  0  0  0  0  0  0
  1 30  1  6  0  0  0
  2  3  1  0  0  0  0
  3 23  1  6  0  0  0
  3 18  1  0  0  0  0
  3 25  1  0  0  0  0
  4 11  1  0  0  0  0
  5  2  1  1  0  0  0
  7  4  2  0  0  0  0
  8 14  2  0  0  0  0
  8 12  1  0  0  0  0
  9 39  1  1  0  0  0
  9 19  1  0  0  0  0
  9  5  1  0  0  0  0
 10 22  1  0  0  0  0
 11 14  1  0  0  0  0
 12 16  1  0  0  0  0
 13 22  2  0  0  0  0
 15  6  2  0  0  0  0
 16 15  1  0  0  0  0
 17 15  1  0  0  0  0
 17  1  1  0  0  0  0
 18 17  1  0  0  0  0
 19 10  1  6  0  0  0
 19  5  1  0  0  0  0
 20  7  1  0  0  0  0
 20 21  2  0  0  0  0
 21  8  1  0  0  0  0
 22 24  1  0  0  0  0
 24 21  1  0  0  0  0
 25  1  1  0  0  0  0
 27 26  2  0  0  0  0
 27  7  1  0  0  0  0
 28 27  1  0  0  0  0
 29 28  1  0  0  0  0
 30 31  1  0  0  0  0
 31 32  1  0  0  0  0
 33 32  1  0  0  0  0
 34 35  1  1  0  0  0
 34 33  1  0  0  0  0
 36 38  1  0  0  0  0
 36 37  1  0  0  0  0
 37 34  1  0  0  0  0
 38 37  1  0  0  0  0
 40 39  1  0  0  0  0
 41 43  1  0  0  0  0
 42 40  1  0  0  0  0
 43 42  2  0  0  0  0
 44 41  2  0  0  0  0
 44 47  1  0  0  0  0
 45 42  1  0  0  0  0
 46 44  1  0  0  0  0
 47 45  2  0  0  0  0
M  END
>  <MODEL>
3

>  <REMARK>
 VINA RESULT:      -0.2      2.521      7.766
  Name = 
  11 active torsions:
  status: ('A' for Active; 'I' for Inactive)
    1  A    between atoms: C_2  and  N_24
    2  A    between atoms: C_5  and  N_21
    3  A    between atoms: C_5  and  C_40
    4  A    between atoms: C_7  and  C_42
    5  A    between atoms: C_10  and  C_36
    6  A    between atoms: C_12  and  N_21
    7  A    between atoms: C_12  and  C_43
    8  A    between atoms: C_16  and  N_31
    9  A    between atoms: N_24  and  C_43
   10  A    between atoms: O_25  and  C_36
   11  A    between atoms: N_31  and  C_42
                            x       y       z     vdW  Elec       q    Type
                         _______ _______ _______ _____ _____    ______ ____

>  <TORSDO>
F 11

$$$$
