=
 OpenBabel11052410183D

 57 62  0  0  1  0  0  0  0  0999 V2000
  160.1840  206.9320  149.4750 S   0  0  0  0  0  1  0  0  0  0  0  0
  161.3830  206.6690  150.8320 C   0  0  1  0  0  0  0  0  0  0  0  0
  161.8930  205.2460  150.7790 C   0  0  0  0  0  3  0  0  0  0  0  0
  161.2550  204.2980  150.0920 C   0  0  0  0  0  3  0  0  0  0  0  0
  161.1380  202.0600  151.0580 C   0  0  0  0  0  1  0  0  0  0  0  0
  161.8030  202.9150  149.9930 C   0  0  1  0  0  3  0  0  0  0  0  0
  161.5450  202.4110  148.6820 O   0  0  0  0  0  0  0  0  0  0  0  0
  161.4530  202.6070  146.1460 C   0  0  1  0  0  3  0  0  0  0  0  0
  161.5740  203.8820  145.3670 C   0  0  1  0  0  3  0  0  0  0  0  0
  160.7270  205.9390  145.1470 C   0  0  0  0  0  3  0  0  0  0  0  0
  162.1980  204.3700  147.5130 N   0  0  0  0  0  0  0  0  0  0  0  0
  161.7570  206.1120  145.9030 N   0  0  0  0  0  0  0  0  0  0  0  0
  160.5440  204.5290  144.8290 C   0  0  0  0  0  2  0  0  0  0  0  0
  161.7310  203.1580  147.5120 C   0  0  0  0  0  0  0  0  0  0  0  0
  162.4000  204.8300  146.1450 C   0  0  2  0  0  3  0  0  0  0  0  0
  159.6750  201.3320  144.9970 C   0  0  0  0  0  2  0  0  0  0  0  0
  160.0780  201.9960  146.0810 C   0  0  0  0  0  3  0  0  0  0  0  0
  162.4880  207.6360  150.7410 N   0  0  0  0  0  2  0  0  0  0  0  0
  162.0160  209.0120  150.6160 C   0  0  0  0  0  2  0  0  0  0  0  0
  162.6890  209.6800  149.4340 C   0  0  0  0  0  2  0  0  0  0  0  0
  161.6480  210.2710  148.5010 C   0  0  0  0  0  2  0  0  0  0  0  0
  160.5040  213.2180  149.5140 C   0  0  0  0  0  1  0  0  0  0  0  0
  162.9460  213.4950  147.1760 N   0  0  0  0  0  2  0  0  0  0  0  0
  164.1960  211.5640  147.6450 O   0  0  0  0  0  0  0  0  0  0  0  0
  161.9300  211.6800  148.2720 N   0  0  0  0  0  0  0  0  0  0  0  0
  163.1090  212.1960  147.6980 C   0  0  0  0  0  0  0  0  0  0  0  0
  160.8920  212.6940  148.1390 C   0  0  2  0  0  3  0  0  0  0  0  0
  161.5380  213.8430  147.3360 C   0  0  2  0  0  3  0  0  0  0  0  0
  160.8850  213.9220  145.9730 C   0  0  0  0  0  2  0  0  0  0  0  0
  159.4550  214.4080  146.1040 C   0  0  0  0  0  2  0  0  0  0  0  0
  158.5430  213.5860  145.2090 C   0  0  0  0  0  2  0  0  0  0  0  0
  157.9300  214.4530  144.1160 C   0  0  0  0  0  2  0  0  0  0  0  0
  158.6860  214.3020  142.8030 C   0  0  0  0  0  2  0  0  0  0  0  0
  159.2060  212.8840  142.6500 C   0  0  0  0  0  2  0  0  0  0  0  0
  160.6610  212.9140  142.2340 C   0  0  0  0  0  1  0  0  0  0  0  0
  160.6850  206.9030  152.1770 C   0  0  0  0  0  2  0  0  0  0  0  0
  161.3930  207.8910  152.9850 N   0  0  0  0  0  2  0  0  0  0  0  0
  159.5120  211.1480  156.2660 C   0  0  2  0  0  3  0  0  0  0  0  0
  161.1120  209.0610  155.1440 C   0  0  2  0  0  3  0  0  0  0  0  0
  158.5190  210.5030  153.6670 C   0  0  0  0  0  2  0  0  0  0  0  0
  160.2150  210.1190  155.6160 C   0  0  0  0  0  0  0  0  0  0  0  0
  159.1090  210.7440  154.9810 C   0  0  0  0  0  0  0  0  0  0  0  0
  160.4110  208.5520  153.8240 C   0  0  1  0  0  3  0  0  0  0  0  0
  159.6080  209.6220  152.9510 C   0  0  0  0  0  2  0  0  0  0  0  0
  160.0310  212.8860  154.7790 C   0  0  0  0  0  2  0  0  0  0  0  0
  160.1730  212.4540  156.1640 N   0  0  1  0  0  0  0  0  0  0  0  0
  158.9700  213.9580  154.6990 C   0  0  2  0  0  3  0  0  0  0  0  0
  158.7940  214.4530  156.1090 C   0  0  0  0  0  2  0  0  0  0  0  0
  159.5170  213.4650  156.9960 C   0  0  0  0  0  2  0  0  0  0  0  0
  157.6710  213.3600  154.1630 C   0  0  0  0  0  2  0  0  0  0  0  0
  156.6290  214.4380  153.8770 C   0  0  0  0  0  2  0  0  0  0  0  0
  155.6290  213.9690  152.8350 C   0  0  0  0  0  2  0  0  0  0  0  0
  156.0500  214.4530  151.4820 C   0  0  0  0  0  3  0  0  0  0  0  0
  156.6350  213.6200  150.6220 C   0  0  0  0  0  2  0  0  0  0  0  0
  162.2050  207.8180  156.8900 O   0  0  0  0  0  1  0  0  0  0  0  0
  160.1210  207.0650  156.2850 O   0  0  0  0  0  0  0  0  0  0  0  0
  161.1780  207.9620  156.1640 C   0  0  0  0  0  0  0  0  0  0  0  0
  2  1  1  6  0  0  0
  2 36  1  0  0  0  0
  3  2  1  0  0  0  0
  4  3  2  0  0  0  0
  6  4  1  0  0  0  0
  6  5  1  1  0  0  0
  7  6  1  0  0  0  0
  8 17  1  1  0  0  0
  8 14  1  0  0  0  0
  9 13  1  1  0  0  0
  9 15  1  0  0  0  0
  9  8  1  0  0  0  0
 10 12  2  0  0  0  0
 13 10  1  0  0  0  0
 14 11  2  0  0  0  0
 14  7  1  0  0  0  0
 15 12  1  1  0  0  0
 15 11  1  0  0  0  0
 16 17  2  0  0  0  0
 18  2  1  0  0  0  0
 19 18  1  0  0  0  0
 20 19  1  0  0  0  0
 21 20  1  0  0  0  0
 23 28  1  0  0  0  0
 23 26  1  0  0  0  0
 24 26  2  0  0  0  0
 25 21  1  0  0  0  0
 26 25  1  0  0  0  0
 27 25  1  0  0  0  0
 27 22  1  1  0  0  0
 28 29  1  6  0  0  0
 28 27  1  0  0  0  0
 29 30  1  0  0  0  0
 31 30  1  0  0  0  0
 32 31  1  0  0  0  0
 33 32  1  0  0  0  0
 34 33  1  0  0  0  0
 35 34  1  0  0  0  0
 36 37  1  0  0  0  0
 38 42  1  6  0  0  0
 39 41  1  0  0  0  0
 39 57  1  1  0  0  0
 40 42  1  0  0  0  0
 41 38  1  0  0  0  0
 42 41  2  0  0  0  0
 43 37  1  6  0  0  0
 43 39  1  0  0  0  0
 44 40  1  0  0  0  0
 44 43  1  0  0  0  0
 46 45  1  6  0  0  0
 46 38  1  0  0  0  0
 46 49  1  0  0  0  0
 47 50  1  1  0  0  0
 47 45  1  0  0  0  0
 47 48  1  0  0  0  0
 48 49  1  0  0  0  0
 51 50  1  0  0  0  0
 52 51  1  0  0  0  0
 53 52  1  0  0  0  0
 54 53  2  0  0  0  0
 57 56  2  0  0  0  0
 57 55  1  0  0  0  0
M  END
>  <MODEL>
1

>  <REMARK>
 VINA RESULT:      -4.2      0.000      0.000
  Name = 
  25 active torsions:
  status: ('A' for Active; 'I' for Inactive)
    1  A    between atoms: C_1  and  N_15
    2  A    between atoms: C_1  and  C_54
    3  A    between atoms: C_2  and  N_34
    4  A    between atoms: C_3  and  C_14
    5  A    between atoms: C_3  and  C_50
    6  A    between atoms: C_4  and  C_56
    7  A    between atoms: C_8  and  C_26
    8  A    between atoms: C_8  and  C_46
    9  A    between atoms: C_12  and  C_14
   10  A    between atoms: N_15  and  C_49
   11  A    between atoms: C_16  and  C_55
   12  A    between atoms: N_21  and  C_32
   13  A    between atoms: C_24  and  C_33
   14  A    between atoms: C_24  and  C_50
   15  A    between atoms: C_30  and  C_36
   16  A    between atoms: C_30  and  C_46
   17  A    between atoms: C_31  and  O_44
   18  A    between atoms: C_31  and  C_52
   19  A    between atoms: C_32  and  C_54
   20  A    between atoms: C_33  and  C_41
   21  A    between atoms: C_38  and  N_43
   22  A    between atoms: C_38  and  C_49
   23  A    between atoms: C_39  and  O_44
   24  A    between atoms: C_42  and  N_43
   25  A    between atoms: C_47  and  C_49
                            x       y       z     vdW  Elec       q    Type
                         _______ _______ _______ _____ _____    ______ ____

>  <TORSDO>
F 25

$$$$
=
 OpenBabel11052410183D

 57 62  0  0  1  0  0  0  0  0999 V2000
  162.8780  209.7650  151.6030 S   0  0  0  0  0  1  0  0  0  0  0  0
  161.1450  209.4440  152.0990 C   0  0  1  0  0  0  0  0  0  0  0  0
  161.1320  208.7530  153.4450 C   0  0  0  0  0  3  0  0  0  0  0  0
  160.1710  208.9820  154.3420 C   0  0  0  0  0  3  0  0  0  0  0  0
  161.5030  207.6310  155.8760 C   0  0  0  0  0  1  0  0  0  0  0  0
  160.1330  208.2440  155.6360 C   0  0  1  0  0  3  0  0  0  0  0  0
  159.7810  209.1580  156.6760 O   0  0  0  0  0  0  0  0  0  0  0  0
  159.8980  211.6990  156.7520 C   0  0  1  0  0  3  0  0  0  0  0  0
  158.9390  212.6340  156.0800 C   0  0  1  0  0  3  0  0  0  0  0  0
  158.0080  213.1450  154.1120 C   0  0  0  0  0  3  0  0  0  0  0  0
  157.9910  210.5540  155.9870 N   0  0  0  0  0  0  0  0  0  0  0  0
  157.1300  212.3900  154.6790 N   0  0  0  0  0  0  0  0  0  0  0  0
  159.1950  213.2800  154.9450 C   0  0  0  0  0  2  0  0  0  0  0  0
  159.1980  210.4110  156.4440 C   0  0  0  0  0  0  0  0  0  0  0  0
  157.6240  211.9650  155.9790 C   0  0  2  0  0  3  0  0  0  0  0  0
  162.3220  211.2220  156.8050 C   0  0  0  0  0  2  0  0  0  0  0  0
  161.2760  211.7210  156.1450 C   0  0  0  0  0  3  0  0  0  0  0  0
  160.3770  210.6970  152.1350 N   0  0  0  0  0  2  0  0  0  0  0  0
  161.0870  211.8050  151.5030 C   0  0  0  0  0  2  0  0  0  0  0  0
  160.0940  212.8360  151.0070 C   0  0  0  0  0  2  0  0  0  0  0  0
  159.3960  212.3340  149.7560 C   0  0  0  0  0  2  0  0  0  0  0  0
  157.6290  213.9080  147.4280 C   0  0  0  0  0  1  0  0  0  0  0  0
  160.9630  214.4520  147.1310 N   0  0  0  0  0  2  0  0  0  0  0  0
  161.6160  214.2900  149.3790 O   0  0  0  0  0  0  0  0  0  0  0  0
  159.6310  213.2530  148.6530 N   0  0  0  0  0  0  0  0  0  0  0  0
  160.7980  214.0220  148.4620 C   0  0  0  0  0  0  0  0  0  0  0  0
  158.9500  213.1570  147.3690 C   0  0  2  0  0  3  0  0  0  0  0  0
  159.8770  213.8640  146.3570 C   0  0  2  0  0  3  0  0  0  0  0  0
  160.4430  212.8340  145.4020 C   0  0  0  0  0  2  0  0  0  0  0  0
  160.3770  213.3480  143.9770 C   0  0  0  0  0  2  0  0  0  0  0  0
  159.0050  213.0690  143.3880 C   0  0  0  0  0  2  0  0  0  0  0  0
  158.9580  213.4530  141.9140 C   0  0  0  0  0  2  0  0  0  0  0  0
  160.3310  213.3330  141.2690 C   0  0  0  0  0  2  0  0  0  0  0  0
  160.2020  212.8830  139.8240 C   0  0  0  0  0  2  0  0  0  0  0  0
  159.6530  211.4730  139.7750 C   0  0  0  0  0  1  0  0  0  0  0  0
  160.4820  208.5340  151.0590 C   0  0  0  0  0  2  0  0  0  0  0  0
  160.3500  207.1660  151.5500 N   0  0  0  0  0  2  0  0  0  0  0  0
  161.5760  203.3810  148.5360 C   0  0  2  0  0  3  0  0  0  0  0  0
  160.6910  204.8230  150.8410 C   0  0  2  0  0  3  0  0  0  0  0  0
  162.0450  206.1690  148.1320 C   0  0  0  0  0  2  0  0  0  0  0  0
  161.1900  204.1960  149.6140 C   0  0  0  0  0  0  0  0  0  0  0  0
  161.7630  204.7710  148.4500 C   0  0  0  0  0  0  0  0  0  0  0  0
  161.1740  206.3200  150.7070 C   0  0  1  0  0  3  0  0  0  0  0  0
  161.2440  206.9470  149.2390 C   0  0  0  0  0  2  0  0  0  0  0  0
  160.3800  204.0100  146.6180 C   0  0  0  0  0  2  0  0  0  0  0  0
  160.4540  203.0010  147.6680 N   0  0  1  0  0  0  0  0  0  0  0  0
  160.9360  203.4330  145.3360 C   0  0  2  0  0  3  0  0  0  0  0  0
  160.9410  201.9420  145.5370 C   0  0  0  0  0  2  0  0  0  0  0  0
  160.6840  201.7130  147.0100 C   0  0  0  0  0  2  0  0  0  0  0  0
  162.3510  203.9590  145.1050 C   0  0  0  0  0  2  0  0  0  0  0  0
  162.3960  205.4840  145.1190 C   0  0  0  0  0  2  0  0  0  0  0  0
  161.3080  206.0710  144.2390 C   0  0  0  0  0  2  0  0  0  0  0  0
  161.4290  205.5180  142.8540 C   0  0  0  0  0  3  0  0  0  0  0  0
  161.7200  206.3220  141.8310 C   0  0  0  0  0  2  0  0  0  0  0  0
  161.6880  204.8600  153.0300 O   0  0  0  0  0  1  0  0  0  0  0  0
  161.5450  202.7960  152.0340 O   0  0  0  0  0  0  0  0  0  0  0  0
  161.3210  204.1690  152.0360 C   0  0  0  0  0  0  0  0  0  0  0  0
  2  1  1  6  0  0  0
  2 18  1  0  0  0  0
  2  3  1  0  0  0  0
  3  4  2  0  0  0  0
  4  6  1  0  0  0  0
  6  5  1  1  0  0  0
  6  7  1  0  0  0  0
  8 17  1  6  0  0  0
  9 13  1  6  0  0  0
  9  8  1  0  0  0  0
 10 12  2  0  0  0  0
 10 13  1  0  0  0  0
 11 14  2  0  0  0  0
 14  7  1  0  0  0  0
 14  8  1  0  0  0  0
 15 12  1  6  0  0  0
 15 11  1  0  0  0  0
 15  9  1  0  0  0  0
 17 16  2  0  0  0  0
 19 18  1  0  0  0  0
 20 19  1  0  0  0  0
 21 20  1  0  0  0  0
 23 26  1  0  0  0  0
 25 21  1  0  0  0  0
 26 25  1  0  0  0  0
 26 24  2  0  0  0  0
 27 22  1  1  0  0  0
 27 25  1  0  0  0  0
 28 29  1  6  0  0  0
 28 23  1  0  0  0  0
 28 27  1  0  0  0  0
 30 29  1  0  0  0  0
 31 30  1  0  0  0  0
 32 31  1  0  0  0  0
 33 32  1  0  0  0  0
 34 33  1  0  0  0  0
 35 34  1  0  0  0  0
 36 37  1  0  0  0  0
 36  2  1  0  0  0  0
 38 42  1  6  0  0  0
 38 41  1  0  0  0  0
 39 57  1  1  0  0  0
 40 42  1  0  0  0  0
 40 44  1  0  0  0  0
 41 39  1  0  0  0  0
 42 41  2  0  0  0  0
 43 39  1  0  0  0  0
 43 37  1  1  0  0  0
 44 43  1  0  0  0  0
 46 45  1  6  0  0  0
 46 38  1  0  0  0  0
 47 50  1  1  0  0  0
 47 48  1  0  0  0  0
 47 45  1  0  0  0  0
 48 49  1  0  0  0  0
 49 46  1  0  0  0  0
 50 51  1  0  0  0  0
 52 51  1  0  0  0  0
 53 52  1  0  0  0  0
 54 53  2  0  0  0  0
 56 57  2  0  0  0  0
 57 55  1  0  0  0  0
M  END
>  <MODEL>
2

>  <REMARK>
 VINA RESULT:      -3.2      2.047      9.027
  Name = 
  25 active torsions:
  status: ('A' for Active; 'I' for Inactive)
    1  A    between atoms: C_1  and  N_15
    2  A    between atoms: C_1  and  C_54
    3  A    between atoms: C_2  and  N_34
    4  A    between atoms: C_3  and  C_14
    5  A    between atoms: C_3  and  C_50
    6  A    between atoms: C_4  and  C_56
    7  A    between atoms: C_8  and  C_26
    8  A    between atoms: C_8  and  C_46
    9  A    between atoms: C_12  and  C_14
   10  A    between atoms: N_15  and  C_49
   11  A    between atoms: C_16  and  C_55
   12  A    between atoms: N_21  and  C_32
   13  A    between atoms: C_24  and  C_33
   14  A    between atoms: C_24  and  C_50
   15  A    between atoms: C_30  and  C_36
   16  A    between atoms: C_30  and  C_46
   17  A    between atoms: C_31  and  O_44
   18  A    between atoms: C_31  and  C_52
   19  A    between atoms: C_32  and  C_54
   20  A    between atoms: C_33  and  C_41
   21  A    between atoms: C_38  and  N_43
   22  A    between atoms: C_38  and  C_49
   23  A    between atoms: C_39  and  O_44
   24  A    between atoms: C_42  and  N_43
   25  A    between atoms: C_47  and  C_49
                            x       y       z     vdW  Elec       q    Type
                         _______ _______ _______ _____ _____    ______ ____

>  <TORSDO>
F 25

$$$$
=
 OpenBabel11052410183D

 57 62  0  0  1  0  0  0  0  0999 V2000
  163.2920  207.8670  148.9360 S   0  0  0  0  0  1  0  0  0  0  0  0
  161.7300  208.4790  149.6700 C   0  0  1  0  0  0  0  0  0  0  0  0
  161.8690  208.5210  151.1750 C   0  0  0  0  0  3  0  0  0  0  0  0
  161.1070  209.3150  151.9280 C   0  0  0  0  0  3  0  0  0  0  0  0
  162.0290  210.5000  153.8520 C   0  0  0  0  0  1  0  0  0  0  0  0
  161.2080  209.2980  153.4150 C   0  0  1  0  0  3  0  0  0  0  0  0
  159.8910  209.3370  153.9670 O   0  0  0  0  0  0  0  0  0  0  0  0
  158.9530  210.6300  155.9470 C   0  0  1  0  0  3  0  0  0  0  0  0
  158.6310  212.0940  155.9560 C   0  0  1  0  0  3  0  0  0  0  0  0
  159.4820  214.1230  155.5590 C   0  0  0  0  0  3  0  0  0  0  0  0
  158.9830  211.5200  153.7700 N   0  0  0  0  0  0  0  0  0  0  0  0
  158.8700  213.8280  154.4630 N   0  0  0  0  0  0  0  0  0  0  0  0
  159.4010  213.0250  156.5130 C   0  0  0  0  0  2  0  0  0  0  0  0
  159.3060  210.4940  154.4970 C   0  0  0  0  0  0  0  0  0  0  0  0
  158.2770  212.5050  154.5800 C   0  0  2  0  0  3  0  0  0  0  0  0
  160.3430  209.0090  157.1900 C   0  0  0  0  0  2  0  0  0  0  0  0
  160.1250  210.2720  156.8220 C   0  0  0  0  0  3  0  0  0  0  0  0
  161.3880  209.8020  149.1280 N   0  0  0  0  0  2  0  0  0  0  0  0
  162.4050  210.8070  149.4250 C   0  0  0  0  0  2  0  0  0  0  0  0
  162.1760  212.0370  148.5700 C   0  0  0  0  0  2  0  0  0  0  0  0
  161.0500  211.7900  147.5840 C   0  0  0  0  0  2  0  0  0  0  0  0
  159.0890  214.4520  147.8910 C   0  0  0  0  0  1  0  0  0  0  0  0
  160.8490  214.4490  144.9910 N   0  0  0  0  0  2  0  0  0  0  0  0
  162.7750  213.2930  145.6700 O   0  0  0  0  0  0  0  0  0  0  0  0
  160.7570  213.0110  146.8490 N   0  0  0  0  0  0  0  0  0  0  0  0
  161.5570  213.5650  145.8290 C   0  0  0  0  0  0  0  0  0  0  0  0
  159.4140  213.5570  146.7030 C   0  0  2  0  0  3  0  0  0  0  0  0
  159.4570  214.4250  145.4270 C   0  0  2  0  0  3  0  0  0  0  0  0
  158.6080  213.7730  144.3570 C   0  0  0  0  0  2  0  0  0  0  0  0
  159.2680  213.9220  143.0010 C   0  0  0  0  0  2  0  0  0  0  0  0
  159.4450  212.5580  142.3570 C   0  0  0  0  0  2  0  0  0  0  0  0
  160.3170  212.6540  141.1100 C   0  0  0  0  0  2  0  0  0  0  0  0
  160.3800  211.3230  140.3760 C   0  0  0  0  0  2  0  0  0  0  0  0
  161.6350  211.2450  139.5250 C   0  0  0  0  0  2  0  0  0  0  0  0
  162.6370  212.2760  139.9950 C   0  0  0  0  0  1  0  0  0  0  0  0
  160.5890  207.5260  149.2960 C   0  0  0  0  0  2  0  0  0  0  0  0
  160.4180  206.4760  150.2960 N   0  0  0  0  0  2  0  0  0  0  0  0
  161.5660  201.8120  148.9400 C   0  0  2  0  0  3  0  0  0  0  0  0
  160.6330  204.0220  150.4940 C   0  0  2  0  0  3  0  0  0  0  0  0
  162.2680  204.2460  147.6200 C   0  0  0  0  0  2  0  0  0  0  0  0
  161.1690  202.9750  149.6200 C   0  0  0  0  0  0  0  0  0  0  0  0
  161.8610  203.0690  148.3850 C   0  0  0  0  0  0  0  0  0  0  0  0
  161.2340  205.3480  149.8850 C   0  0  1  0  0  3  0  0  0  0  0  0
  161.4510  205.4040  148.3030 C   0  0  0  0  0  2  0  0  0  0  0  0
  159.9710  202.2290  147.2710 C   0  0  0  0  0  2  0  0  0  0  0  0
  160.4820  201.1960  148.1640 N   0  0  1  0  0  0  0  0  0  0  0  0
  160.4710  201.9660  145.8700 C   0  0  2  0  0  3  0  0  0  0  0  0
  160.9280  200.5320  145.8700 C   0  0  0  0  0  2  0  0  0  0  0  0
  160.9680  200.1030  147.3190 C   0  0  0  0  0  2  0  0  0  0  0  0
  161.6290  202.9090  145.5490 C   0  0  0  0  0  2  0  0  0  0  0  0
  161.2580  203.9070  144.4550 C   0  0  0  0  0  2  0  0  0  0  0  0
  159.7750  204.2290  144.4890 C   0  0  0  0  0  2  0  0  0  0  0  0
  159.5580  205.5220  145.2110 C   0  0  0  0  0  3  0  0  0  0  0  0
  160.4960  206.4690  145.1900 C   0  0  0  0  0  2  0  0  0  0  0  0
  160.5750  202.9660  152.6560 O   0  0  0  0  0  1  0  0  0  0  0  0
  162.1780  204.5870  152.3810 O   0  0  0  0  0  0  0  0  0  0  0  0
  161.1290  203.8130  151.8960 C   0  0  0  0  0  0  0  0  0  0  0  0
  2  1  1  6  0  0  0
  2  3  1  0  0  0  0
  3  4  2  0  0  0  0
  4  6  1  0  0  0  0
  6  5  1  1  0  0  0
  6  7  1  0  0  0  0
  7 14  1  0  0  0  0
  8  9  1  0  0  0  0
  8 17  1  1  0  0  0
  9 13  1  6  0  0  0
 10 13  1  0  0  0  0
 11 14  2  0  0  0  0
 12 15  1  0  0  0  0
 12 10  2  0  0  0  0
 14  8  1  0  0  0  0
 15 11  1  6  0  0  0
 15  9  1  0  0  0  0
 17 16  2  0  0  0  0
 18 19  1  0  0  0  0
 18  2  1  0  0  0  0
 20 19  1  0  0  0  0
 21 20  1  0  0  0  0
 23 28  1  0  0  0  0
 23 26  1  0  0  0  0
 24 26  2  0  0  0  0
 25 21  1  0  0  0  0
 26 25  1  0  0  0  0
 27 25  1  0  0  0  0
 27 22  1  1  0  0  0
 28 29  1  6  0  0  0
 28 27  1  0  0  0  0
 30 29  1  0  0  0  0
 31 30  1  0  0  0  0
 32 31  1  0  0  0  0
 33 32  1  0  0  0  0
 34 35  1  0  0  0  0
 34 33  1  0  0  0  0
 36  2  1  0  0  0  0
 36 37  1  0  0  0  0
 38 42  1  6  0  0  0
 38 41  1  0  0  0  0
 39 57  1  1  0  0  0
 40 44  1  0  0  0  0
 40 42  1  0  0  0  0
 41 39  1  0  0  0  0
 42 41  2  0  0  0  0
 43 37  1  6  0  0  0
 43 39  1  0  0  0  0
 44 43  1  0  0  0  0
 46 45  1  6  0  0  0
 46 38  1  0  0  0  0
 47 50  1  1  0  0  0
 47 45  1  0  0  0  0
 48 47  1  0  0  0  0
 48 49  1  0  0  0  0
 49 46  1  0  0  0  0
 51 52  1  0  0  0  0
 51 50  1  0  0  0  0
 52 53  1  0  0  0  0
 54 53  2  0  0  0  0
 57 56  2  0  0  0  0
 57 55  1  0  0  0  0
M  END
>  <MODEL>
3

>  <REMARK>
 VINA RESULT:      -3.0      2.060      9.107
  Name = 
  25 active torsions:
  status: ('A' for Active; 'I' for Inactive)
    1  A    between atoms: C_1  and  N_15
    2  A    between atoms: C_1  and  C_54
    3  A    between atoms: C_2  and  N_34
    4  A    between atoms: C_3  and  C_14
    5  A    between atoms: C_3  and  C_50
    6  A    between atoms: C_4  and  C_56
    7  A    between atoms: C_8  and  C_26
    8  A    between atoms: C_8  and  C_46
    9  A    between atoms: C_12  and  C_14
   10  A    between atoms: N_15  and  C_49
   11  A    between atoms: C_16  and  C_55
   12  A    between atoms: N_21  and  C_32
   13  A    between atoms: C_24  and  C_33
   14  A    between atoms: C_24  and  C_50
   15  A    between atoms: C_30  and  C_36
   16  A    between atoms: C_30  and  C_46
   17  A    between atoms: C_31  and  O_44
   18  A    between atoms: C_31  and  C_52
   19  A    between atoms: C_32  and  C_54
   20  A    between atoms: C_33  and  C_41
   21  A    between atoms: C_38  and  N_43
   22  A    between atoms: C_38  and  C_49
   23  A    between atoms: C_39  and  O_44
   24  A    between atoms: C_42  and  N_43
   25  A    between atoms: C_47  and  C_49
                            x       y       z     vdW  Elec       q    Type
                         _______ _______ _______ _____ _____    ______ ____

>  <TORSDO>
F 25

$$$$
=
 OpenBabel11052410183D

 57 62  0  0  1  0  0  0  0  0999 V2000
  163.3980  210.0870  150.1000 S   0  0  0  0  0  1  0  0  0  0  0  0
  161.6410  210.5070  149.8030 C   0  0  1  0  0  0  0  0  0  0  0  0
  161.1260  211.3420  150.9540 C   0  0  0  0  0  3  0  0  0  0  0  0
  160.1920  212.2780  150.7800 C   0  0  0  0  0  3  0  0  0  0  0  0
  158.5560  213.9710  151.4190 C   0  0  0  0  0  1  0  0  0  0  0  0
  159.6460  213.0470  151.9340 C   0  0  1  0  0  3  0  0  0  0  0  0
  159.1350  212.1260  152.9000 O   0  0  0  0  0  0  0  0  0  0  0  0
  159.5020  212.6780  155.3570 C   0  0  1  0  0  3  0  0  0  0  0  0
  160.2050  211.8020  156.3500 C   0  0  1  0  0  3  0  0  0  0  0  0
  160.2300  209.7480  157.2310 C   0  0  0  0  0  3  0  0  0  0  0  0
  160.6390  210.9200  154.2840 N   0  0  0  0  0  0  0  0  0  0  0  0
  161.1250  209.6930  156.3040 N   0  0  0  0  0  0  0  0  0  0  0  0
  159.5830  211.0530  157.2560 C   0  0  0  0  0  2  0  0  0  0  0  0
  159.7590  211.8620  154.1260 C   0  0  0  0  0  0  0  0  0  0  0  0
  161.1990  210.9790  155.6280 C   0  0  2  0  0  3  0  0  0  0  0  0
  157.2130  213.3330  154.6990 C   0  0  0  0  0  2  0  0  0  0  0  0
  158.0250  212.8090  155.6170 C   0  0  0  0  0  3  0  0  0  0  0  0
  161.4870  211.2120  148.5210 N   0  0  0  0  0  2  0  0  0  0  0  0
  162.5080  212.2380  148.3230 C   0  0  0  0  0  2  0  0  0  0  0  0
  162.0690  213.1950  147.2340 C   0  0  0  0  0  2  0  0  0  0  0  0
  160.9060  212.6080  146.4560 C   0  0  0  0  0  2  0  0  0  0  0  0
  158.9220  214.1350  144.2750 C   0  0  0  0  0  1  0  0  0  0  0  0
  161.8920  213.2140  142.9200 N   0  0  0  0  0  2  0  0  0  0  0  0
  163.2770  213.3590  144.8090 O   0  0  0  0  0  0  0  0  0  0  0  0
  160.9580  213.0570  145.0720 N   0  0  0  0  0  0  0  0  0  0  0  0
  162.1310  213.2240  144.3090 C   0  0  0  0  0  0  0  0  0  0  0  0
  159.8410  212.9300  144.1460 C   0  0  2  0  0  3  0  0  0  0  0  0
  160.4720  212.9380  142.7370 C   0  0  2  0  0  3  0  0  0  0  0  0
  160.3050  211.5690  142.1120 C   0  0  0  0  0  2  0  0  0  0  0  0
  161.4950  211.2450  141.2320 C   0  0  0  0  0  2  0  0  0  0  0  0
  161.1410  211.4780  139.7730 C   0  0  0  0  0  2  0  0  0  0  0  0
  160.9550  210.1540  139.0410 C   0  0  0  0  0  2  0  0  0  0  0  0
  161.5300  208.9950  139.8420 C   0  0  0  0  0  2  0  0  0  0  0  0
  161.5800  207.7370  138.9930 C   0  0  0  0  0  2  0  0  0  0  0  0
  162.3740  206.6670  139.7110 C   0  0  0  0  0  1  0  0  0  0  0  0
  160.8200  209.2150  149.7110 C   0  0  0  0  0  2  0  0  0  0  0  0
  160.8060  208.4980  150.9820 N   0  0  0  0  0  2  0  0  0  0  0  0
  161.5650  203.5660  151.0870 C   0  0  2  0  0  3  0  0  0  0  0  0
  161.1230  206.2520  151.9620 C   0  0  2  0  0  3  0  0  0  0  0  0
  161.7660  205.3260  148.8460 C   0  0  0  0  0  2  0  0  0  0  0  0
  161.3780  204.9240  151.3980 C   0  0  0  0  0  0  0  0  0  0  0  0
  161.6440  204.5240  150.0620 C   0  0  0  0  0  0  0  0  0  0  0  0
  161.4740  207.2270  150.7720 C   0  0  1  0  0  3  0  0  0  0  0  0
  161.1820  206.7180  149.2870 C   0  0  0  0  0  2  0  0  0  0  0  0
  159.7980  203.1200  149.6090 C   0  0  0  0  0  2  0  0  0  0  0  0
  160.3050  202.8260  150.9450 N   0  0  1  0  0  0  0  0  0  0  0  0
  160.0390  201.9280  148.7130 C   0  0  2  0  0  3  0  0  0  0  0  0
  160.3040  200.7750  149.6430 C   0  0  0  0  0  2  0  0  0  0  0  0
  160.5110  201.3780  151.0140 C   0  0  0  0  0  2  0  0  0  0  0  0
  161.2440  202.1930  147.8130 C   0  0  0  0  0  2  0  0  0  0  0  0
  161.1230  201.4630  146.4790 C   0  0  0  0  0  2  0  0  0  0  0  0
  160.8600  202.4370  145.3450 C   0  0  0  0  0  2  0  0  0  0  0  0
  161.5860  203.7200  145.6060 C   0  0  0  0  0  3  0  0  0  0  0  0
  161.0080  204.8890  145.3270 C   0  0  0  0  0  2  0  0  0  0  0  0
  161.6790  207.2300  154.0890 O   0  0  0  0  0  1  0  0  0  0  0  0
  163.3100  205.9270  153.1340 O   0  0  0  0  0  0  0  0  0  0  0  0
  162.0380  206.4890  153.1280 C   0  0  0  0  0  0  0  0  0  0  0  0
  2  1  1  1  0  0  0
  2  3  1  0  0  0  0
  4  3  2  0  0  0  0
  4  6  1  0  0  0  0
  6  5  1  6  0  0  0
  6  7  1  0  0  0  0
  7 14  1  0  0  0  0
  8 17  1  1  0  0  0
  8  9  1  0  0  0  0
  9 13  1  6  0  0  0
 10 13  1  0  0  0  0
 12 10  2  0  0  0  0
 14 11  2  0  0  0  0
 14  8  1  0  0  0  0
 15 11  1  6  0  0  0
 15 12  1  0  0  0  0
 15  9  1  0  0  0  0
 16 17  2  0  0  0  0
 18  2  1  0  0  0  0
 19 18  1  0  0  0  0
 20 19  1  0  0  0  0
 21 20  1  0  0  0  0
 23 26  1  0  0  0  0
 25 21  1  0  0  0  0
 26 24  2  0  0  0  0
 26 25  1  0  0  0  0
 27 22  1  6  0  0  0
 27 25  1  0  0  0  0
 28 29  1  1  0  0  0
 28 23  1  0  0  0  0
 28 27  1  0  0  0  0
 30 29  1  0  0  0  0
 31 30  1  0  0  0  0
 32 31  1  0  0  0  0
 32 33  1  0  0  0  0
 34 35  1  0  0  0  0
 34 33  1  0  0  0  0
 36  2  1  0  0  0  0
 36 37  1  0  0  0  0
 38 42  1  6  0  0  0
 38 41  1  0  0  0  0
 39 57  1  1  0  0  0
 40 44  1  0  0  0  0
 40 42  1  0  0  0  0
 41 39  1  0  0  0  0
 42 41  2  0  0  0  0
 43 37  1  1  0  0  0
 43 39  1  0  0  0  0
 44 43  1  0  0  0  0
 46 45  1  6  0  0  0
 46 49  1  0  0  0  0
 46 38  1  0  0  0  0
 47 50  1  6  0  0  0
 47 45  1  0  0  0  0
 47 48  1  0  0  0  0
 48 49  1  0  0  0  0
 51 50  1  0  0  0  0
 52 53  1  0  0  0  0
 52 51  1  0  0  0  0
 54 53  2  0  0  0  0
 57 56  2  0  0  0  0
 57 55  1  0  0  0  0
M  END
>  <MODEL>
4

>  <REMARK>
 VINA RESULT:      -3.0      2.532      9.188
  Name = 
  25 active torsions:
  status: ('A' for Active; 'I' for Inactive)
    1  A    between atoms: C_1  and  N_15
    2  A    between atoms: C_1  and  C_54
    3  A    between atoms: C_2  and  N_34
    4  A    between atoms: C_3  and  C_14
    5  A    between atoms: C_3  and  C_50
    6  A    between atoms: C_4  and  C_56
    7  A    between atoms: C_8  and  C_26
    8  A    between atoms: C_8  and  C_46
    9  A    between atoms: C_12  and  C_14
   10  A    between atoms: N_15  and  C_49
   11  A    between atoms: C_16  and  C_55
   12  A    between atoms: N_21  and  C_32
   13  A    between atoms: C_24  and  C_33
   14  A    between atoms: C_24  and  C_50
   15  A    between atoms: C_30  and  C_36
   16  A    between atoms: C_30  and  C_46
   17  A    between atoms: C_31  and  O_44
   18  A    between atoms: C_31  and  C_52
   19  A    between atoms: C_32  and  C_54
   20  A    between atoms: C_33  and  C_41
   21  A    between atoms: C_38  and  N_43
   22  A    between atoms: C_38  and  C_49
   23  A    between atoms: C_39  and  O_44
   24  A    between atoms: C_42  and  N_43
   25  A    between atoms: C_47  and  C_49
                            x       y       z     vdW  Elec       q    Type
                         _______ _______ _______ _____ _____    ______ ____

>  <TORSDO>
F 25

$$$$
=
 OpenBabel11052410183D

 57 62  0  0  1  0  0  0  0  0999 V2000
  163.1080  210.9960  151.2330 S   0  0  0  0  0  1  0  0  0  0  0  0
  161.4630  211.1470  150.4450 C   0  0  1  0  0  0  0  0  0  0  0  0
  160.5940  212.0650  151.2760 C   0  0  0  0  0  3  0  0  0  0  0  0
  160.0710  213.1840  150.7710 C   0  0  0  0  0  3  0  0  0  0  0  0
  157.7550  213.9050  151.0260 C   0  0  0  0  0  1  0  0  0  0  0  0
  159.1630  214.0440  151.5810 C   0  0  1  0  0  3  0  0  0  0  0  0
  159.2290  213.6270  152.9460 O   0  0  0  0  0  0  0  0  0  0  0  0
  158.1560  211.5660  153.9840 C   0  0  1  0  0  3  0  0  0  0  0  0
  156.9530  211.5690  154.8780 C   0  0  1  0  0  3  0  0  0  0  0  0
  156.1100  212.4490  156.7530 C   0  0  0  0  0  3  0  0  0  0  0  0
  157.0830  213.6600  153.9580 N   0  0  0  0  0  0  0  0  0  0  0  0
  155.6220  213.1930  155.8200 N   0  0  0  0  0  0  0  0  0  0  0  0
  157.0040  211.4400  156.2010 C   0  0  0  0  0  2  0  0  0  0  0  0
  158.1640  213.0210  153.6250 C   0  0  0  0  0  0  0  0  0  0  0  0
  156.1120  212.7350  154.5290 C   0  0  2  0  0  3  0  0  0  0  0  0
  159.9140  211.9350  155.6810 C   0  0  0  0  0  2  0  0  0  0  0  0
  159.4260  211.1800  154.6950 C   0  0  0  0  0  3  0  0  0  0  0  0
  161.5930  211.6390  149.0650 N   0  0  0  0  0  2  0  0  0  0  0  0
  161.2140  213.0430  148.9360 C   0  0  0  0  0  2  0  0  0  0  0  0
  160.4670  213.2560  147.6350 C   0  0  0  0  0  2  0  0  0  0  0  0
  161.0250  212.3490  146.5540 C   0  0  0  0  0  2  0  0  0  0  0  0
  158.9950  213.2480  144.0860 C   0  0  0  0  0  1  0  0  0  0  0  0
  162.2230  214.1140  143.5080 N   0  0  0  0  0  2  0  0  0  0  0  0
  162.9680  214.4470  145.7090 O   0  0  0  0  0  0  0  0  0  0  0  0
  161.1050  213.0690  145.2930 N   0  0  0  0  0  0  0  0  0  0  0  0
  162.1590  213.9200  144.9020 C   0  0  0  0  0  0  0  0  0  0  0  0
  160.3980  212.6590  144.0880 C   0  0  2  0  0  3  0  0  0  0  0  0
  161.1930  213.2700  142.9140 C   0  0  2  0  0  3  0  0  0  0  0  0
  161.8510  212.1550  142.1280 C   0  0  0  0  0  2  0  0  0  0  0  0
  160.8050  211.3500  141.3830 C   0  0  0  0  0  2  0  0  0  0  0  0
  160.3770  212.0900  140.1270 C   0  0  0  0  0  2  0  0  0  0  0  0
  159.4950  211.2090  139.2520 C   0  0  0  0  0  2  0  0  0  0  0  0
  160.0740  211.0650  137.8520 C   0  0  0  0  0  2  0  0  0  0  0  0
  160.3260  209.6030  137.5290 C   0  0  0  0  0  2  0  0  0  0  0  0
  161.8150  209.3500  137.4270 C   0  0  0  0  0  1  0  0  0  0  0  0
  160.8070  209.7620  150.3730 C   0  0  0  0  0  2  0  0  0  0  0  0
  160.8050  209.1020  151.6740 N   0  0  0  0  0  2  0  0  0  0  0  0
  161.5210  204.1700  151.3920 C   0  0  2  0  0  3  0  0  0  0  0  0
  160.8140  206.7450  152.4160 C   0  0  2  0  0  3  0  0  0  0  0  0
  162.4000  206.1790  149.5610 C   0  0  0  0  0  2  0  0  0  0  0  0
  161.2390  205.4860  151.7970 C   0  0  0  0  0  0  0  0  0  0  0  0
  161.9110  205.2420  150.5700 C   0  0  0  0  0  0  0  0  0  0  0  0
  161.5130  207.8440  151.5240 C   0  0  1  0  0  3  0  0  0  0  0  0
  161.7000  207.5270  149.9700 C   0  0  0  0  0  2  0  0  0  0  0  0
  160.2530  204.0290  149.4240 C   0  0  0  0  0  2  0  0  0  0  0  0
  160.3720  203.4960  150.7760 N   0  0  1  0  0  0  0  0  0  0  0  0
  160.7670  203.0050  148.4390 C   0  0  2  0  0  3  0  0  0  0  0  0
  160.7910  201.7020  149.1910 C   0  0  0  0  0  2  0  0  0  0  0  0
  160.5890  202.0530  150.6480 C   0  0  0  0  0  2  0  0  0  0  0  0
  162.1690  203.3950  147.9740 C   0  0  0  0  0  2  0  0  0  0  0  0
  162.2080  203.6800  146.4750 C   0  0  0  0  0  2  0  0  0  0  0  0
  162.2990  205.1720  146.2050 C   0  0  0  0  0  2  0  0  0  0  0  0
  160.9530  205.6940  145.8100 C   0  0  0  0  0  3  0  0  0  0  0  0
  160.6220  205.7950  144.5230 C   0  0  0  0  0  2  0  0  0  0  0  0
  161.4830  205.7510  154.5030 O   0  0  0  0  0  1  0  0  0  0  0  0
  161.5680  208.0440  154.4170 O   0  0  0  0  0  0  0  0  0  0  0  0
  161.3200  206.8090  153.8280 C   0  0  0  0  0  0  0  0  0  0  0  0
  2  1  1  1  0  0  0
  2  3  1  0  0  0  0
  4  3  2  0  0  0  0
  4  6  1  0  0  0  0
  6  5  1  6  0  0  0
  6  7  1  0  0  0  0
  7 14  1  0  0  0  0
  8 17  1  1  0  0  0
  8  9  1  0  0  0  0
  9 13  1  1  0  0  0
 12 10  2  0  0  0  0
 13 10  1  0  0  0  0
 14 11  2  0  0  0  0
 14  8  1  0  0  0  0
 15 11  1  1  0  0  0
 15  9  1  0  0  0  0
 15 12  1  0  0  0  0
 17 16  2  0  0  0  0
 18  2  1  0  0  0  0
 19 18  1  0  0  0  0
 20 19  1  0  0  0  0
 21 20  1  0  0  0  0
 23 26  1  0  0  0  0
 25 21  1  0  0  0  0
 26 25  1  0  0  0  0
 26 24  2  0  0  0  0
 27 22  1  1  0  0  0
 27 25  1  0  0  0  0
 28 29  1  1  0  0  0
 28 23  1  0  0  0  0
 28 27  1  0  0  0  0
 30 29  1  0  0  0  0
 31 30  1  0  0  0  0
 32 31  1  0  0  0  0
 33 32  1  0  0  0  0
 34 33  1  0  0  0  0
 35 34  1  0  0  0  0
 36  2  1  0  0  0  0
 36 37  1  0  0  0  0
 38 42  1  6  0  0  0
 38 41  1  0  0  0  0
 39 57  1  1  0  0  0
 40 44  1  0  0  0  0
 40 42  1  0  0  0  0
 41 39  1  0  0  0  0
 42 41  2  0  0  0  0
 43 37  1  6  0  0  0
 43 39  1  0  0  0  0
 44 43  1  0  0  0  0
 46 45  1  6  0  0  0
 46 38  1  0  0  0  0
 47 50  1  1  0  0  0
 47 48  1  0  0  0  0
 47 45  1  0  0  0  0
 48 49  1  0  0  0  0
 49 46  1  0  0  0  0
 51 50  1  0  0  0  0
 52 51  1  0  0  0  0
 53 52  1  0  0  0  0
 54 53  2  0  0  0  0
 57 56  2  0  0  0  0
 57 55  1  0  0  0  0
M  END
>  <MODEL>
5

>  <REMARK>
 VINA RESULT:      -3.0      2.610      9.008
  Name = 
  25 active torsions:
  status: ('A' for Active; 'I' for Inactive)
    1  A    between atoms: C_1  and  N_15
    2  A    between atoms: C_1  and  C_54
    3  A    between atoms: C_2  and  N_34
    4  A    between atoms: C_3  and  C_14
    5  A    between atoms: C_3  and  C_50
    6  A    between atoms: C_4  and  C_56
    7  A    between atoms: C_8  and  C_26
    8  A    between atoms: C_8  and  C_46
    9  A    between atoms: C_12  and  C_14
   10  A    between atoms: N_15  and  C_49
   11  A    between atoms: C_16  and  C_55
   12  A    between atoms: N_21  and  C_32
   13  A    between atoms: C_24  and  C_33
   14  A    between atoms: C_24  and  C_50
   15  A    between atoms: C_30  and  C_36
   16  A    between atoms: C_30  and  C_46
   17  A    between atoms: C_31  and  O_44
   18  A    between atoms: C_31  and  C_52
   19  A    between atoms: C_32  and  C_54
   20  A    between atoms: C_33  and  C_41
   21  A    between atoms: C_38  and  N_43
   22  A    between atoms: C_38  and  C_49
   23  A    between atoms: C_39  and  O_44
   24  A    between atoms: C_42  and  N_43
   25  A    between atoms: C_47  and  C_49
                            x       y       z     vdW  Elec       q    Type
                         _______ _______ _______ _____ _____    ______ ____

>  <TORSDO>
F 25

$$$$
=
 OpenBabel11052410183D

 57 62  0  0  1  0  0  0  0  0999 V2000
  163.3610  208.4810  148.5930 S   0  0  0  0  0  1  0  0  0  0  0  0
  161.8360  209.1680  149.3370 C   0  0  1  0  0  0  0  0  0  0  0  0
  162.0490  209.3600  150.8230 C   0  0  0  0  0  3  0  0  0  0  0  0
  161.0340  209.3200  151.6880 C   0  0  0  0  0  3  0  0  0  0  0  0
  162.3620  210.4720  153.3790 C   0  0  0  0  0  1  0  0  0  0  0  0
  161.2660  209.4440  153.1550 C   0  0  1  0  0  3  0  0  0  0  0  0
  160.0440  209.8370  153.7820 O   0  0  0  0  0  0  0  0  0  0  0  0
  159.6450  212.3350  153.5060 C   0  0  1  0  0  3  0  0  0  0  0  0
  159.2170  213.2730  154.5950 C   0  0  1  0  0  3  0  0  0  0  0  0
  157.6610  213.6130  156.1630 C   0  0  0  0  0  3  0  0  0  0  0  0
  159.8230  211.3200  155.6210 N   0  0  0  0  0  0  0  0  0  0  0  0
  158.6240  213.0460  156.8060 N   0  0  0  0  0  0  0  0  0  0  0  0
  157.9750  213.7260  154.7450 C   0  0  0  0  0  2  0  0  0  0  0  0
  159.8310  211.1040  154.3400 C   0  0  0  0  0  0  0  0  0  0  0  0
  159.7110  212.7490  155.8860 C   0  0  2  0  0  3  0  0  0  0  0  0
  158.5190  212.9070  151.3820 C   0  0  0  0  0  2  0  0  0  0  0  0
  158.5880  212.1190  152.4560 C   0  0  0  0  0  3  0  0  0  0  0  0
  161.4650  210.4320  148.6830 N   0  0  0  0  0  2  0  0  0  0  0  0
  162.5240  211.4340  148.7650 C   0  0  0  0  0  2  0  0  0  0  0  0
  162.0940  212.6940  148.0420 C   0  0  0  0  0  2  0  0  0  0  0  0
  160.8520  212.4270  147.2130 C   0  0  0  0  0  2  0  0  0  0  0  0
  158.8240  213.3650  144.7570 C   0  0  0  0  0  1  0  0  0  0  0  0
  162.0710  214.1210  144.1340 N   0  0  0  0  0  2  0  0  0  0  0  0
  162.8520  214.4530  146.3220 O   0  0  0  0  0  0  0  0  0  0  0  0
  160.9410  213.1320  145.9430 N   0  0  0  0  0  0  0  0  0  0  0  0
  162.0160  213.9440  145.5310 C   0  0  0  0  0  0  0  0  0  0  0  0
  160.2070  212.7310  144.7500 C   0  0  2  0  0  3  0  0  0  0  0  0
  161.0080  213.3040  143.5610 C   0  0  2  0  0  3  0  0  0  0  0  0
  161.6210  212.1610  142.7800 C   0  0  0  0  0  2  0  0  0  0  0  0
  160.5690  211.4910  141.9190 C   0  0  0  0  0  2  0  0  0  0  0  0
  161.2290  210.7990  140.7380 C   0  0  0  0  0  2  0  0  0  0  0  0
  162.4730  211.5570  140.2900 C   0  0  0  0  0  2  0  0  0  0  0  0
  162.2120  212.3420  139.0130 C   0  0  0  0  0  2  0  0  0  0  0  0
  161.0480  211.7390  138.2480 C   0  0  0  0  0  2  0  0  0  0  0  0
  160.5550  212.7210  137.2070 C   0  0  0  0  0  1  0  0  0  0  0  0
  160.6790  208.1860  149.1170 C   0  0  0  0  0  2  0  0  0  0  0  0
  160.4640  207.3410  150.2870 N   0  0  0  0  0  2  0  0  0  0  0  0
  161.7290  202.5130  150.3130 C   0  0  2  0  0  3  0  0  0  0  0  0
  160.8830  205.0900  151.2170 C   0  0  2  0  0  3  0  0  0  0  0  0
  162.0450  204.3990  148.1910 C   0  0  0  0  0  2  0  0  0  0  0  0
  161.3560  203.8260  150.6440 C   0  0  0  0  0  0  0  0  0  0  0  0
  161.8450  203.5270  149.3460 C   0  0  0  0  0  0  0  0  0  0  0  0
  161.2880  206.1570  150.1270 C   0  0  1  0  0  3  0  0  0  0  0  0
  161.2590  205.7000  148.5960 C   0  0  0  0  0  2  0  0  0  0  0  0
  159.9220  202.2920  148.8330 C   0  0  0  0  0  2  0  0  0  0  0  0
  160.5880  201.6570  149.9650 N   0  0  1  0  0  0  0  0  0  0  0  0
  160.2570  201.5330  147.5700 C   0  0  2  0  0  3  0  0  0  0  0  0
  160.7770  200.1980  148.0310 C   0  0  0  0  0  2  0  0  0  0  0  0
  161.0170  200.3300  149.5190 C   0  0  0  0  0  2  0  0  0  0  0  0
  161.3200  202.2910  146.7780 C   0  0  0  0  0  2  0  0  0  0  0  0
  160.8800  202.5420  145.3390 C   0  0  0  0  0  2  0  0  0  0  0  0
  161.3430  203.9040  144.8550 C   0  0  0  0  0  2  0  0  0  0  0  0
  160.2020  204.8720  144.9140 C   0  0  0  0  0  3  0  0  0  0  0  0
  160.4330  206.1750  145.0700 C   0  0  0  0  0  2  0  0  0  0  0  0
  161.1170  204.9550  153.6080 O   0  0  0  0  0  1  0  0  0  0  0  0
  162.7800  206.0930  152.5060 O   0  0  0  0  0  0  0  0  0  0  0  0
  161.5990  205.3580  152.5100 C   0  0  0  0  0  0  0  0  0  0  0  0
  2  1  1  6  0  0  0
  2  3  1  0  0  0  0
  3  4  2  0  0  0  0
  4  6  1  0  0  0  0
  6  5  1  6  0  0  0
  6  7  1  0  0  0  0
  7 14  1  0  0  0  0
  8 17  1  6  0  0  0
  8 14  1  0  0  0  0
  8  9  1  0  0  0  0
  9 13  1  1  0  0  0
  9 15  1  0  0  0  0
 10 12  2  0  0  0  0
 13 10  1  0  0  0  0
 14 11  2  0  0  0  0
 15 11  1  6  0  0  0
 15 12  1  0  0  0  0
 16 17  2  0  0  0  0
 18 19  1  0  0  0  0
 18  2  1  0  0  0  0
 20 19  1  0  0  0  0
 21 20  1  0  0  0  0
 23 26  1  0  0  0  0
 25 21  1  0  0  0  0
 26 25  1  0  0  0  0
 26 24  2  0  0  0  0
 27 22  1  1  0  0  0
 27 25  1  0  0  0  0
 28 29  1  1  0  0  0
 28 23  1  0  0  0  0
 28 27  1  0  0  0  0
 30 29  1  0  0  0  0
 31 30  1  0  0  0  0
 32 31  1  0  0  0  0
 33 32  1  0  0  0  0
 34 33  1  0  0  0  0
 35 34  1  0  0  0  0
 36  2  1  0  0  0  0
 36 37  1  0  0  0  0
 38 42  1  6  0  0  0
 38 41  1  0  0  0  0
 39 57  1  1  0  0  0
 40 44  1  0  0  0  0
 40 42  1  0  0  0  0
 41 39  1  0  0  0  0
 42 41  2  0  0  0  0
 43 37  1  6  0  0  0
 43 39  1  0  0  0  0
 44 43  1  0  0  0  0
 46 45  1  6  0  0  0
 46 38  1  0  0  0  0
 47 50  1  1  0  0  0
 47 48  1  0  0  0  0
 47 45  1  0  0  0  0
 48 49  1  0  0  0  0
 49 46  1  0  0  0  0
 51 50  1  0  0  0  0
 52 53  1  0  0  0  0
 52 51  1  0  0  0  0
 53 54  2  0  0  0  0
 56 57  2  0  0  0  0
 57 55  1  0  0  0  0
M  END
>  <MODEL>
6

>  <REMARK>
 VINA RESULT:      -2.9      2.190      9.011
  Name = 
  25 active torsions:
  status: ('A' for Active; 'I' for Inactive)
    1  A    between atoms: C_1  and  N_15
    2  A    between atoms: C_1  and  C_54
    3  A    between atoms: C_2  and  N_34
    4  A    between atoms: C_3  and  C_14
    5  A    between atoms: C_3  and  C_50
    6  A    between atoms: C_4  and  C_56
    7  A    between atoms: C_8  and  C_26
    8  A    between atoms: C_8  and  C_46
    9  A    between atoms: C_12  and  C_14
   10  A    between atoms: N_15  and  C_49
   11  A    between atoms: C_16  and  C_55
   12  A    between atoms: N_21  and  C_32
   13  A    between atoms: C_24  and  C_33
   14  A    between atoms: C_24  and  C_50
   15  A    between atoms: C_30  and  C_36
   16  A    between atoms: C_30  and  C_46
   17  A    between atoms: C_31  and  O_44
   18  A    between atoms: C_31  and  C_52
   19  A    between atoms: C_32  and  C_54
   20  A    between atoms: C_33  and  C_41
   21  A    between atoms: C_38  and  N_43
   22  A    between atoms: C_38  and  C_49
   23  A    between atoms: C_39  and  O_44
   24  A    between atoms: C_42  and  N_43
   25  A    between atoms: C_47  and  C_49
                            x       y       z     vdW  Elec       q    Type
                         _______ _______ _______ _____ _____    ______ ____

>  <TORSDO>
F 25

$$$$
=
 OpenBabel11052410183D

 57 62  0  0  1  0  0  0  0  0999 V2000
  162.5770  209.9300  151.3840 S   0  0  0  0  0  1  0  0  0  0  0  0
  160.9040  210.0290  152.1190 C   0  0  1  0  0  0  0  0  0  0  0  0
  160.9630  209.5600  153.5560 C   0  0  0  0  0  3  0  0  0  0  0  0
  160.5580  210.3350  154.5640 C   0  0  0  0  0  3  0  0  0  0  0  0
  161.9360  210.0830  156.5620 C   0  0  0  0  0  1  0  0  0  0  0  0
  160.5590  209.8360  155.9680 C   0  0  1  0  0  3  0  0  0  0  0  0
  159.5440  210.5240  156.7010 O   0  0  0  0  0  0  0  0  0  0  0  0
  158.6560  212.8920  156.4170 C   0  0  1  0  0  3  0  0  0  0  0  0
  157.6930  213.3380  155.3590 C   0  0  1  0  0  3  0  0  0  0  0  0
  157.3440  213.3810  153.1510 C   0  0  0  0  0  3  0  0  0  0  0  0
  157.6930  211.0510  155.3130 N   0  0  0  0  0  0  0  0  0  0  0  0
  156.6840  212.3450  153.5440 N   0  0  0  0  0  0  0  0  0  0  0  0
  158.0440  214.0080  154.2640 C   0  0  0  0  0  2  0  0  0  0  0  0
  158.6400  211.4230  156.1190 C   0  0  0  0  0  0  0  0  0  0  0  0
  156.8430  212.1880  154.9820 C   0  0  2  0  0  3  0  0  0  0  0  0
  160.6430  214.1050  157.2440 C   0  0  0  0  0  2  0  0  0  0  0  0
  160.0390  213.4610  156.2440 C   0  0  0  0  0  3  0  0  0  0  0  0
  160.3780  211.3990  152.0250 N   0  0  0  0  0  2  0  0  0  0  0  0
  161.2070  212.2590  151.1850 C   0  0  0  0  0  2  0  0  0  0  0  0
  160.4230  213.4900  150.7800 C   0  0  0  0  0  2  0  0  0  0  0  0
  159.0730  213.0910  150.2130 C   0  0  0  0  0  2  0  0  0  0  0  0
  156.6740  214.4500  148.3640 C   0  0  0  0  0  1  0  0  0  0  0  0
  159.5860  214.0830  146.6650 N   0  0  0  0  0  2  0  0  0  0  0  0
  161.1270  214.3030  148.4220 O   0  0  0  0  0  0  0  0  0  0  0  0
  158.9150  213.6380  148.8740 N   0  0  0  0  0  0  0  0  0  0  0  0
  159.9650  214.0330  148.0220 C   0  0  0  0  0  0  0  0  0  0  0  0
  157.7370  213.4090  148.0480 C   0  0  2  0  0  3  0  0  0  0  0  0
  158.2090  213.6100  146.5920 C   0  0  2  0  0  3  0  0  0  0  0  0
  158.1750  212.2790  145.8720 C   0  0  0  0  0  2  0  0  0  0  0  0
  159.2260  212.2460  144.7800 C   0  0  0  0  0  2  0  0  0  0  0  0
  159.2520  213.5740  144.0450 C   0  0  0  0  0  2  0  0  0  0  0  0
  160.0090  213.4510  142.7280 C   0  0  0  0  0  2  0  0  0  0  0  0
  160.8450  212.1800  142.6880 C   0  0  0  0  0  2  0  0  0  0  0  0
  161.7030  212.1470  141.4360 C   0  0  0  0  0  2  0  0  0  0  0  0
  160.9650  211.4250  140.3290 C   0  0  0  0  0  1  0  0  0  0  0  0
  159.9510  209.1210  151.3330 C   0  0  0  0  0  2  0  0  0  0  0  0
  159.7250  207.8560  152.0230 N   0  0  0  0  0  2  0  0  0  0  0  0
  161.7610  203.4230  150.9610 C   0  0  2  0  0  3  0  0  0  0  0  0
  160.7340  205.6400  152.4470 C   0  0  2  0  0  3  0  0  0  0  0  0
  161.2260  205.5830  149.1710 C   0  0  0  0  0  2  0  0  0  0  0  0
  161.2610  204.5810  151.5820 C   0  0  0  0  0  0  0  0  0  0  0  0
  161.4640  204.5520  150.1780 C   0  0  0  0  0  0  0  0  0  0  0  0
  160.6740  206.8940  151.4910 C   0  0  1  0  0  3  0  0  0  0  0  0
  160.3530  206.6350  149.9480 C   0  0  0  0  0  2  0  0  0  0  0  0
  160.0110  202.8070  149.5260 C   0  0  0  0  0  2  0  0  0  0  0  0
  160.7320  202.4030  150.7270 N   0  0  1  0  0  0  0  0  0  0  0  0
  160.4480  201.9390  148.3690 C   0  0  2  0  0  3  0  0  0  0  0  0
  161.1150  200.7440  148.9940 C   0  0  0  0  0  2  0  0  0  0  0  0
  161.3180  201.0890  150.4530 C   0  0  0  0  0  2  0  0  0  0  0  0
  161.4250  202.7110  147.4850 C   0  0  0  0  0  2  0  0  0  0  0  0
  161.2430  202.3680  146.0090 C   0  0  0  0  0  2  0  0  0  0  0  0
  160.9210  203.6080  145.1960 C   0  0  0  0  0  2  0  0  0  0  0  0
  161.2460  204.8320  145.9950 C   0  0  0  0  0  3  0  0  0  0  0  0
  161.8210  205.8830  145.4110 C   0  0  0  0  0  2  0  0  0  0  0  0
  162.8550  206.3160  153.3620 O   0  0  0  0  0  0  0  0  0  0  0  0
  161.2970  205.5950  154.8860 O   0  0  0  0  0  1  0  0  0  0  0  0
  161.6860  205.8850  153.5820 C   0  0  0  0  0  0  0  0  0  0  0  0
  2  1  1  6  0  0  0
  2  3  1  0  0  0  0
  3  4  2  0  0  0  0
  4  6  1  0  0  0  0
  6  5  1  1  0  0  0
  6  7  1  0  0  0  0
  8 17  1  6  0  0  0
  9 13  1  6  0  0  0
  9  8  1  0  0  0  0
 10 12  2  0  0  0  0
 10 13  1  0  0  0  0
 11 14  2  0  0  0  0
 14  8  1  0  0  0  0
 14  7  1  0  0  0  0
 15 12  1  6  0  0  0
 15 11  1  0  0  0  0
 15  9  1  0  0  0  0
 17 16  2  0  0  0  0
 18  2  1  0  0  0  0
 19 18  1  0  0  0  0
 20 19  1  0  0  0  0
 21 20  1  0  0  0  0
 23 26  1  0  0  0  0
 25 21  1  0  0  0  0
 26 24  2  0  0  0  0
 26 25  1  0  0  0  0
 27 22  1  1  0  0  0
 27 25  1  0  0  0  0
 28 29  1  6  0  0  0
 28 23  1  0  0  0  0
 28 27  1  0  0  0  0
 30 29  1  0  0  0  0
 31 30  1  0  0  0  0
 32 31  1  0  0  0  0
 33 32  1  0  0  0  0
 34 33  1  0  0  0  0
 35 34  1  0  0  0  0
 36 37  1  0  0  0  0
 36  2  1  0  0  0  0
 38 42  1  6  0  0  0
 38 41  1  0  0  0  0
 39 57  1  1  0  0  0
 40 44  1  0  0  0  0
 40 42  1  0  0  0  0
 41 39  1  0  0  0  0
 42 41  2  0  0  0  0
 43 37  1  1  0  0  0
 43 39  1  0  0  0  0
 44 43  1  0  0  0  0
 46 45  1  6  0  0  0
 46 38  1  0  0  0  0
 47 50  1  6  0  0  0
 47 48  1  0  0  0  0
 47 45  1  0  0  0  0
 48 49  1  0  0  0  0
 49 46  1  0  0  0  0
 51 50  1  0  0  0  0
 52 53  1  0  0  0  0
 52 51  1  0  0  0  0
 54 53  2  0  0  0  0
 55 57  2  0  0  0  0
 57 56  1  0  0  0  0
M  END
>  <MODEL>
7

>  <REMARK>
 VINA RESULT:      -2.2      2.340      8.977
  Name = 
  25 active torsions:
  status: ('A' for Active; 'I' for Inactive)
    1  A    between atoms: C_1  and  N_15
    2  A    between atoms: C_1  and  C_54
    3  A    between atoms: C_2  and  N_34
    4  A    between atoms: C_3  and  C_14
    5  A    between atoms: C_3  and  C_50
    6  A    between atoms: C_4  and  C_56
    7  A    between atoms: C_8  and  C_26
    8  A    between atoms: C_8  and  C_46
    9  A    between atoms: C_12  and  C_14
   10  A    between atoms: N_15  and  C_49
   11  A    between atoms: C_16  and  C_55
   12  A    between atoms: N_21  and  C_32
   13  A    between atoms: C_24  and  C_33
   14  A    between atoms: C_24  and  C_50
   15  A    between atoms: C_30  and  C_36
   16  A    between atoms: C_30  and  C_46
   17  A    between atoms: C_31  and  O_44
   18  A    between atoms: C_31  and  C_52
   19  A    between atoms: C_32  and  C_54
   20  A    between atoms: C_33  and  C_41
   21  A    between atoms: C_38  and  N_43
   22  A    between atoms: C_38  and  C_49
   23  A    between atoms: C_39  and  O_44
   24  A    between atoms: C_42  and  N_43
   25  A    between atoms: C_47  and  C_49
                            x       y       z     vdW  Elec       q    Type
                         _______ _______ _______ _____ _____    ______ ____

>  <TORSDO>
F 25

$$$$
=
 OpenBabel11052410183D

 57 62  0  0  1  0  0  0  0  0999 V2000
  159.7220  207.4950  151.3510 S   0  0  0  0  0  1  0  0  0  0  0  0
  161.1060  208.3320  152.2080 C   0  0  1  0  0  0  0  0  0  0  0  0
  161.0060  208.0670  153.6940 C   0  0  0  0  0  3  0  0  0  0  0  0
  160.6100  209.0110  154.5500 C   0  0  0  0  0  3  0  0  0  0  0  0
  161.8110  208.3300  156.5620 C   0  0  0  0  0  1  0  0  0  0  0  0
  160.4520  208.7170  156.0020 C   0  0  1  0  0  3  0  0  0  0  0  0
  159.9320  209.8780  156.6520 O   0  0  0  0  0  0  0  0  0  0  0  0
  158.3510  211.0240  155.0210 C   0  0  1  0  0  3  0  0  0  0  0  0
  158.2270  212.5050  154.8240 C   0  0  1  0  0  3  0  0  0  0  0  0
  157.8650  214.4350  155.8940 C   0  0  0  0  0  3  0  0  0  0  0  0
  160.1170  212.1710  156.0700 N   0  0  0  0  0  0  0  0  0  0  0  0
  159.1500  214.3670  155.8130 N   0  0  0  0  0  0  0  0  0  0  0  0
  157.2430  213.2460  155.3270 C   0  0  0  0  0  2  0  0  0  0  0  0
  159.5110  211.0270  155.9700 C   0  0  0  0  0  0  0  0  0  0  0  0
  159.5280  213.1310  155.1450 C   0  0  2  0  0  3  0  0  0  0  0  0
  155.9100  210.7000  155.2240 C   0  0  0  0  0  2  0  0  0  0  0  0
  157.1360  210.4040  155.6570 C   0  0  0  0  0  3  0  0  0  0  0  0
  162.3980  207.8790  151.6710 N   0  0  0  0  0  2  0  0  0  0  0  0
  162.2420  206.9360  150.5670 C   0  0  0  0  0  2  0  0  0  0  0  0
  162.5550  207.6250  149.2540 C   0  0  0  0  0  2  0  0  0  0  0  0
  163.1640  206.6390  148.2750 C   0  0  0  0  0  2  0  0  0  0  0  0
  160.1710  205.4620  149.0990 C   0  0  0  0  0  1  0  0  0  0  0  0
  161.2090  204.3860  146.0540 N   0  0  0  0  0  2  0  0  0  0  0  0
  162.5300  206.2100  145.3930 O   0  0  0  0  0  0  0  0  0  0  0  0
  162.1190  205.8220  147.6780 N   0  0  0  0  0  0  0  0  0  0  0  0
  161.9920  205.5300  146.3050 C   0  0  0  0  0  0  0  0  0  0  0  0
  161.3670  204.8160  148.4150 C   0  0  2  0  0  3  0  0  0  0  0  0
  160.8530  203.8230  147.3510 C   0  0  2  0  0  3  0  0  0  0  0  0
  161.5580  202.4950  147.5310 C   0  0  0  0  0  2  0  0  0  0  0  0
  160.6060  201.4710  148.1160 C   0  0  0  0  0  2  0  0  0  0  0  0
  159.9570  202.0240  149.3730 C   0  0  0  0  0  2  0  0  0  0  0  0
  160.4650  201.2970  150.6120 C   0  0  0  0  0  2  0  0  0  0  0  0
  161.7050  201.9720  151.1780 C   0  0  0  0  0  2  0  0  0  0  0  0
  161.3690  203.3640  151.6830 C   0  0  0  0  0  2  0  0  0  0  0  0
  160.3440  203.2710  152.7930 C   0  0  0  0  0  1  0  0  0  0  0  0
  161.0150  209.8420  151.9590 C   0  0  0  0  0  2  0  0  0  0  0  0
  161.2630  210.1710  150.5590 N   0  0  0  0  0  2  0  0  0  0  0  0
  159.4180  214.4530  148.7770 C   0  0  2  0  0  3  0  0  0  0  0  0
  160.7490  211.9250  148.8960 C   0  0  2  0  0  3  0  0  0  0  0  0
  159.6200  213.6290  151.5040 C   0  0  0  0  0  2  0  0  0  0  0  0
  160.0700  213.2220  148.9640 C   0  0  0  0  0  0  0  0  0  0  0  0
  159.5780  213.9490  150.0790 C   0  0  0  0  0  0  0  0  0  0  0  0
  161.0670  211.6010  150.4070 C   0  0  1  0  0  3  0  0  0  0  0  0
  160.0280  212.1100  151.5090 C   0  0  0  0  0  2  0  0  0  0  0  0
  157.9680  214.4390  146.9330 C   0  0  0  0  0  2  0  0  0  0  0  0
  158.0110  214.3080  148.3840 N   0  0  1  0  0  0  0  0  0  0  0  0
  157.7780  213.0730  146.3150 C   0  0  2  0  0  3  0  0  0  0  0  0
  157.2820  212.1950  147.4320 C   0  0  0  0  0  2  0  0  0  0  0  0
  157.4870  212.9800  148.7090 C   0  0  0  0  0  2  0  0  0  0  0  0
  159.1100  212.5630  145.7700 C   0  0  0  0  0  2  0  0  0  0  0  0
  159.9710  213.7020  145.2290 C   0  0  0  0  0  2  0  0  0  0  0  0
  160.3620  213.4520  143.7830 C   0  0  0  0  0  2  0  0  0  0  0  0
  161.4470  214.4030  143.3850 C   0  0  0  0  0  3  0  0  0  0  0  0
  162.1910  214.1610  142.3060 C   0  0  0  0  0  2  0  0  0  0  0  0
  163.0470  212.5810  148.6230 O   0  0  0  0  0  1  0  0  0  0  0  0
  162.0510  211.6500  146.7760 O   0  0  0  0  0  0  0  0  0  0  0  0
  162.0180  212.0600  148.1050 C   0  0  0  0  0  0  0  0  0  0  0  0
  2  1  1  6  0  0  0
  2  3  1  0  0  0  0
  3  4  2  0  0  0  0
  4  6  1  0  0  0  0
  6  5  1  1  0  0  0
  6  7  1  0  0  0  0
  8 17  1  1  0  0  0
  8 14  1  0  0  0  0
  9  8  1  0  0  0  0
  9 15  1  0  0  0  0
  9 13  1  1  0  0  0
 12 10  2  0  0  0  0
 13 10  1  0  0  0  0
 14 11  2  0  0  0  0
 14  7  1  0  0  0  0
 15 12  1  1  0  0  0
 15 11  1  0  0  0  0
 16 17  2  0  0  0  0
 18  2  1  0  0  0  0
 19 18  1  0  0  0  0
 20 19  1  0  0  0  0
 21 20  1  0  0  0  0
 23 26  1  0  0  0  0
 23 28  1  0  0  0  0
 24 26  2  0  0  0  0
 25 21  1  0  0  0  0
 25 27  1  0  0  0  0
 26 25  1  0  0  0  0
 27 22  1  6  0  0  0
 28 29  1  1  0  0  0
 28 27  1  0  0  0  0
 29 30  1  0  0  0  0
 30 31  1  0  0  0  0
 31 32  1  0  0  0  0
 32 33  1  0  0  0  0
 33 34  1  0  0  0  0
 34 35  1  0  0  0  0
 36  2  1  0  0  0  0
 37 36  1  0  0  0  0
 38 41  1  6  0  0  0
 38 42  1  0  0  0  0
 39 57  1  6  0  0  0
 39 41  1  0  0  0  0
 39 43  1  0  0  0  0
 40 44  1  0  0  0  0
 41 42  2  0  0  0  0
 42 40  1  0  0  0  0
 43 37  1  6  0  0  0
 43 44  1  0  0  0  0
 46 45  1  6  0  0  0
 46 49  1  0  0  0  0
 46 38  1  0  0  0  0
 47 50  1  1  0  0  0
 47 45  1  0  0  0  0
 47 48  1  0  0  0  0
 48 49  1  0  0  0  0
 51 50  1  0  0  0  0
 52 51  1  0  0  0  0
 53 52  1  0  0  0  0
 54 53  2  0  0  0  0
 56 57  2  0  0  0  0
 57 55  1  0  0  0  0
M  END
>  <MODEL>
8

>  <REMARK>
 VINA RESULT:      -1.8      1.973      9.529
  Name = 
  25 active torsions:
  status: ('A' for Active; 'I' for Inactive)
    1  A    between atoms: C_1  and  N_15
    2  A    between atoms: C_1  and  C_54
    3  A    between atoms: C_2  and  N_34
    4  A    between atoms: C_3  and  C_14
    5  A    between atoms: C_3  and  C_50
    6  A    between atoms: C_4  and  C_56
    7  A    between atoms: C_8  and  C_26
    8  A    between atoms: C_8  and  C_46
    9  A    between atoms: C_12  and  C_14
   10  A    between atoms: N_15  and  C_49
   11  A    between atoms: C_16  and  C_55
   12  A    between atoms: N_21  and  C_32
   13  A    between atoms: C_24  and  C_33
   14  A    between atoms: C_24  and  C_50
   15  A    between atoms: C_30  and  C_36
   16  A    between atoms: C_30  and  C_46
   17  A    between atoms: C_31  and  O_44
   18  A    between atoms: C_31  and  C_52
   19  A    between atoms: C_32  and  C_54
   20  A    between atoms: C_33  and  C_41
   21  A    between atoms: C_38  and  N_43
   22  A    between atoms: C_38  and  C_49
   23  A    between atoms: C_39  and  O_44
   24  A    between atoms: C_42  and  N_43
   25  A    between atoms: C_47  and  C_49
                            x       y       z     vdW  Elec       q    Type
                         _______ _______ _______ _____ _____    ______ ____

>  <TORSDO>
F 25

$$$$
=
 OpenBabel11052410183D

 57 62  0  0  1  0  0  0  0  0999 V2000
  160.0510  206.2240  146.4570 S   0  0  0  0  0  1  0  0  0  0  0  0
  161.8520  206.0700  146.7460 C   0  0  1  0  0  0  0  0  0  0  0  0
  162.1250  204.8050  147.5300 C   0  0  0  0  0  3  0  0  0  0  0  0
  161.1480  204.1350  148.1430 C   0  0  0  0  0  3  0  0  0  0  0  0
  160.0920  202.2550  149.2840 C   0  0  0  0  0  1  0  0  0  0  0  0
  161.4210  202.8550  148.8560 C   0  0  1  0  0  3  0  0  0  0  0  0
  162.1300  201.9800  147.9760 O   0  0  0  0  0  0  0  0  0  0  0  0
  160.4280  201.2140  146.2460 C   0  0  1  0  0  3  0  0  0  0  0  0
  160.3700  199.8490  145.6290 C   0  0  1  0  0  3  0  0  0  0  0  0
  161.5730  198.3270  144.5180 C   0  0  0  0  0  3  0  0  0  0  0  0
  161.8160  199.7010  147.3960 N   0  0  0  0  0  0  0  0  0  0  0  0
  161.6580  197.9460  145.7470 N   0  0  0  0  0  0  0  0  0  0  0  0
  160.8100  199.5630  144.4070 C   0  0  0  0  0  2  0  0  0  0  0  0
  161.5180  200.9560  147.2420 C   0  0  0  0  0  0  0  0  0  0  0  0
  160.9230  198.8740  146.5930 C   0  0  2  0  0  3  0  0  0  0  0  0
  159.9100  202.9750  144.5930 C   0  0  0  0  0  2  0  0  0  0  0  0
  160.8300  202.2910  145.2750 C   0  0  0  0  0  3  0  0  0  0  0  0
  162.5830  206.0750  145.4700 N   0  0  0  0  0  2  0  0  0  0  0  0
  161.7100  205.8280  144.3260 C   0  0  0  0  0  2  0  0  0  0  0  0
  162.3700  206.3320  143.0580 C   0  0  0  0  0  2  0  0  0  0  0  0
  161.4160  206.2090  141.8850 C   0  0  0  0  0  2  0  0  0  0  0  0
  162.0050  209.3530  140.9940 C   0  0  0  0  0  1  0  0  0  0  0  0
  162.6910  207.1400  138.5170 N   0  0  0  0  0  2  0  0  0  0  0  0
  163.3170  205.2690  139.7880 O   0  0  0  0  0  0  0  0  0  0  0  0
  161.9450  206.9300  140.7370 N   0  0  0  0  0  0  0  0  0  0  0  0
  162.7020  206.3620  139.6920 C   0  0  0  0  0  0  0  0  0  0  0  0
  161.3840  208.1820  140.2470 C   0  0  2  0  0  3  0  0  0  0  0  0
  161.7980  208.2670  138.7620 C   0  0  2  0  0  3  0  0  0  0  0  0
  160.5650  208.1260  137.8950 C   0  0  0  0  0  2  0  0  0  0  0  0
  160.4030  209.3450  137.0110 C   0  0  0  0  0  2  0  0  0  0  0  0
  161.3980  210.4180  137.4190 C   0  0  0  0  0  2  0  0  0  0  0  0
  160.6910  211.7410  137.6880 C   0  0  0  0  0  2  0  0  0  0  0  0
  161.6880  212.8830  137.8240 C   0  0  0  0  0  2  0  0  0  0  0  0
  162.5680  212.6770  139.0440 C   0  0  0  0  0  2  0  0  0  0  0  0
  162.2430  213.7200  140.0910 C   0  0  0  0  0  1  0  0  0  0  0  0
  162.3400  207.2780  147.5540 C   0  0  0  0  0  2  0  0  0  0  0  0
  162.7250  206.8970  148.9080 N   0  0  0  0  0  2  0  0  0  0  0  0
  160.8020  208.5100  153.2230 C   0  0  2  0  0  3  0  0  0  0  0  0
  161.8030  206.7580  151.1970 C   0  0  2  0  0  3  0  0  0  0  0  0
  161.2060  209.9960  150.8170 C   0  0  0  0  0  2  0  0  0  0  0  0
  161.2830  207.7480  152.1450 C   0  0  0  0  0  0  0  0  0  0  0  0
  161.0350  209.1360  151.9860 C   0  0  0  0  0  0  0  0  0  0  0  0
  161.7910  207.5300  149.8210 C   0  0  1  0  0  3  0  0  0  0  0  0
  162.0690  209.1030  149.8520 C   0  0  0  0  0  2  0  0  0  0  0  0
  161.8510  210.3710  154.1910 C   0  0  0  0  0  2  0  0  0  0  0  0
  161.8550  208.9130  154.1620 N   0  0  1  0  0  0  0  0  0  0  0  0
  161.2000  210.8410  155.4720 C   0  0  2  0  0  3  0  0  0  0  0  0
  161.2090  209.6460  156.3870 C   0  0  0  0  0  2  0  0  0  0  0  0
  161.5750  208.4580  155.5260 C   0  0  0  0  0  2  0  0  0  0  0  0
  159.7720  211.3010  155.1870 C   0  0  0  0  0  2  0  0  0  0  0  0
  159.7050  212.2080  153.9620 C   0  0  0  0  0  2  0  0  0  0  0  0
  158.4280  211.9720  153.1760 C   0  0  0  0  0  2  0  0  0  0  0  0
  157.2780  212.6200  153.8820 C   0  0  0  0  0  3  0  0  0  0  0  0
  156.5150  211.9130  154.7160 C   0  0  0  0  0  2  0  0  0  0  0  0
  159.8910  205.5610  150.3610 O   0  0  0  0  0  0  0  0  0  0  0  0
  161.0920  204.4980  152.0040 O   0  0  0  0  0  1  0  0  0  0  0  0
  160.8820  205.5740  151.1470 C   0  0  0  0  0  0  0  0  0  0  0  0
  2  1  1  6  0  0  0
  2  3  1  0  0  0  0
  2 36  1  0  0  0  0
  3  4  2  0  0  0  0
  4  6  1  0  0  0  0
  6  5  1  6  0  0  0
  7  6  1  0  0  0  0
  8 17  1  6  0  0  0
  8 14  1  0  0  0  0
  9 13  1  6  0  0  0
  9  8  1  0  0  0  0
  9 15  1  0  0  0  0
 10 12  2  0  0  0  0
 13 10  1  0  0  0  0
 14 11  2  0  0  0  0
 14  7  1  0  0  0  0
 15 12  1  6  0  0  0
 15 11  1  0  0  0  0
 16 17  2  0  0  0  0
 18  2  1  0  0  0  0
 19 18  1  0  0  0  0
 20 19  1  0  0  0  0
 21 20  1  0  0  0  0
 23 28  1  0  0  0  0
 23 26  1  0  0  0  0
 25 21  1  0  0  0  0
 26 24  2  0  0  0  0
 26 25  1  0  0  0  0
 27 25  1  0  0  0  0
 27 22  1  1  0  0  0
 28 29  1  6  0  0  0
 28 27  1  0  0  0  0
 30 31  1  0  0  0  0
 30 29  1  0  0  0  0
 31 32  1  0  0  0  0
 32 33  1  0  0  0  0
 33 34  1  0  0  0  0
 34 35  1  0  0  0  0
 36 37  1  0  0  0  0
 38 42  1  6  0  0  0
 38 46  1  0  0  0  0
 39 57  1  6  0  0  0
 39 41  1  0  0  0  0
 40 42  1  0  0  0  0
 41 38  1  0  0  0  0
 42 41  2  0  0  0  0
 43 37  1  6  0  0  0
 43 44  1  0  0  0  0
 43 39  1  0  0  0  0
 44 40  1  0  0  0  0
 45 47  1  0  0  0  0
 46 45  1  1  0  0  0
 46 49  1  0  0  0  0
 47 50  1  6  0  0  0
 47 48  1  0  0  0  0
 49 48  1  0  0  0  0
 51 50  1  0  0  0  0
 52 53  1  0  0  0  0
 52 51  1  0  0  0  0
 53 54  2  0  0  0  0
 55 57  2  0  0  0  0
 57 56  1  0  0  0  0
M  END
>  <MODEL>
9

>  <REMARK>
 VINA RESULT:      -1.5      3.462      5.944
  Name = 
  25 active torsions:
  status: ('A' for Active; 'I' for Inactive)
    1  A    between atoms: C_1  and  N_15
    2  A    between atoms: C_1  and  C_54
    3  A    between atoms: C_2  and  N_34
    4  A    between atoms: C_3  and  C_14
    5  A    between atoms: C_3  and  C_50
    6  A    between atoms: C_4  and  C_56
    7  A    between atoms: C_8  and  C_26
    8  A    between atoms: C_8  and  C_46
    9  A    between atoms: C_12  and  C_14
   10  A    between atoms: N_15  and  C_49
   11  A    between atoms: C_16  and  C_55
   12  A    between atoms: N_21  and  C_32
   13  A    between atoms: C_24  and  C_33
   14  A    between atoms: C_24  and  C_50
   15  A    between atoms: C_30  and  C_36
   16  A    between atoms: C_30  and  C_46
   17  A    between atoms: C_31  and  O_44
   18  A    between atoms: C_31  and  C_52
   19  A    between atoms: C_32  and  C_54
   20  A    between atoms: C_33  and  C_41
   21  A    between atoms: C_38  and  N_43
   22  A    between atoms: C_38  and  C_49
   23  A    between atoms: C_39  and  O_44
   24  A    between atoms: C_42  and  N_43
   25  A    between atoms: C_47  and  C_49
                            x       y       z     vdW  Elec       q    Type
                         _______ _______ _______ _____ _____    ______ ____

>  <TORSDO>
F 25

$$$$
