=
 OpenBabel11052409553D

 29 32  0  0  1  0  0  0  0  0999 V2000
  159.3180  213.5860  153.4220 C   0  0  0  0  0  2  0  0  0  0  0  0
  160.8530  208.8930  155.8470 N   0  0  2  0  0  0  0  0  0  0  0  0
  162.1960  209.5080  155.8310 C   0  0  2  0  0  3  0  0  0  0  0  0
  161.5270  213.2210  149.1970 N   0  0  0  0  0  2  0  0  0  0  0  0
  158.4030  213.9950  154.5630 C   0  0  0  0  0  2  0  0  0  0  0  0
  160.0340  212.3200  150.9280 C   0  0  0  0  0  0  0  0  0  0  0  0
  160.5750  208.0160  154.6920 C   0  0  1  0  0  3  0  0  0  0  0  0
  158.7650  214.0040  152.1440 N   0  0  0  0  0  0  0  0  0  0  0  0
  161.1020  212.2260  150.1390 C   0  0  0  0  0  0  0  0  0  0  0  0
  162.7620  209.5460  157.2380 C   0  0  0  0  0  1  0  0  0  0  0  0
  160.0260  211.2100  156.0990 N   0  0  2  0  0  0  0  0  0  0  0  0
  158.7530  211.8860  155.8610 C   0  0  0  0  0  2  0  0  0  0  0  0
  159.3720  214.1160  148.5300 C   0  0  0  0  0  2  0  0  0  0  0  0
  162.0270  210.7090  150.3390 S   0  0  0  0  0  0  0  0  0  0  0  0
  160.6730  210.0490  151.3730 C   0  0  2  0  0  3  0  0  0  0  0  0
  157.2020  213.3060  149.4350 C   0  0  0  0  0  1  0  0  0  0  0  0
  159.8060  211.1660  151.7230 N   0  0  0  0  0  2  0  0  0  0  0  0
  161.2350  209.3850  152.6200 C   0  0  0  0  0  2  0  0  0  0  0  0
  160.1150  208.7080  153.3970 C   0  0  0  0  0  2  0  0  0  0  0  0
  160.8070  214.4510  148.8950 C   0  0  0  0  0  2  0  0  0  0  0  0
  162.2600  210.9030  155.2090 C   0  0  0  0  0  2  0  0  0  0  0  0
  158.1080  213.9800  157.0240 C   0  0  0  0  0  1  0  0  0  0  0  0
  159.1180  213.4920  151.0010 C   0  0  0  0  0  0  0  0  0  0  0  0
  160.8800  211.4600  154.9470 C   0  0  0  0  0  2  0  0  0  0  0  0
  158.9070  213.4060  155.8740 C   0  0  2  0  0  3  0  0  0  0  0  0
  159.7030  209.7790  156.1290 C   0  0  0  0  0  2  0  0  0  0  0  0
  158.4750  214.0600  149.7630 C   0  0  1  0  0  3  0  0  0  0  0  0
  160.9860  205.7690  153.9270 F   0  0  0  0  0  0  0  0  0  0  0  0
  161.5780  206.8750  154.5100 C   0  0  0  0  0  2  0  0  0  0  0  0
  1  5  1  0  0  0  0
  2 26  1  6  0  0  0
  3  2  1  0  0  0  0
  3 10  1  1  0  0  0
  4  9  1  0  0  0  0
  5 25  1  0  0  0  0
  6 23  1  0  0  0  0
  6 17  1  0  0  0  0
  7 29  1  6  0  0  0
  7  2  1  0  0  0  0
  8  1  1  0  0  0  0
  9 14  1  0  0  0  0
  9  6  2  0  0  0  0
 11 24  1  6  0  0  0
 11 26  1  0  0  0  0
 12 25  1  0  0  0  0
 12 11  1  0  0  0  0
 13 20  1  0  0  0  0
 13 27  1  0  0  0  0
 14 15  1  0  0  0  0
 15 17  1  0  0  0  0
 15 18  1  1  0  0  0
 18 19  1  0  0  0  0
 19  7  1  0  0  0  0
 20  4  1  0  0  0  0
 21  3  1  0  0  0  0
 23  8  2  0  0  0  0
 24 21  1  0  0  0  0
 25 22  1  1  0  0  0
 27 16  1  6  0  0  0
 27 23  1  0  0  0  0
 28 29  1  0  0  0  0
M  END
>  <MODEL>
1

>  <REMARK>
 VINA RESULT:      -2.7      0.000      0.000
  Name = 
  1 active torsions:
  status: ('A' for Active; 'I' for Inactive)
    1  A    between atoms: C_7  and  C_24
                            x       y       z     vdW  Elec       q    Type
                         _______ _______ _______ _____ _____    ______ ____

>  <TORSDO>
F 1

$$$$
=
 OpenBabel11052409553D

 29 32  0  0  1  0  0  0  0  0999 V2000
  161.1770  210.2320  150.5950 C   0  0  0  0  0  2  0  0  0  0  0  0
  158.7150  212.0730  155.1570 N   0  0  2  0  0  0  0  0  0  0  0  0
  157.4830  211.6020  154.4930 C   0  0  2  0  0  3  0  0  0  0  0  0
  159.4920  213.2870  147.3250 N   0  0  0  0  0  2  0  0  0  0  0  0
  161.9880  209.1820  151.3340 C   0  0  0  0  0  2  0  0  0  0  0  0
  160.6160  212.8270  149.4620 C   0  0  0  0  0  0  0  0  0  0  0  0
  159.0140  213.5020  154.9360 C   0  0  1  0  0  3  0  0  0  0  0  0
  161.9400  210.7850  149.4880 N   0  0  0  0  0  0  0  0  0  0  0  0
  159.6540  213.4050  148.7460 C   0  0  0  0  0  0  0  0  0  0  0  0
  156.7540  210.6230  155.3930 C   0  0  0  0  0  1  0  0  0  0  0  0
  159.8150  210.1960  153.9800 N   0  0  2  0  0  0  0  0  0  0  0  0
  161.1890  209.8760  153.6000 C   0  0  0  0  0  2  0  0  0  0  0  0
  161.8170  213.1070  146.6530 C   0  0  0  0  0  2  0  0  0  0  0  0
  158.5110  214.3830  149.7130 S   0  0  0  0  0  0  0  0  0  0  0  0
  159.6190  214.2070  151.1550 C   0  0  2  0  0  3  0  0  0  0  0  0
  163.7230  213.1430  148.2510 C   0  0  0  0  0  1  0  0  0  0  0  0
  160.5790  213.1580  150.8420 N   0  0  0  0  0  2  0  0  0  0  0  0
  158.8170  213.8570  152.3990 C   0  0  0  0  0  2  0  0  0  0  0  0
  159.7250  213.8610  153.6200 C   0  0  0  0  0  2  0  0  0  0  0  0
  160.4070  212.5880  146.4340 C   0  0  0  0  0  2  0  0  0  0  0  0
  157.6910  210.9790  153.1130 C   0  0  0  0  0  2  0  0  0  0  0  0
  161.9630  207.5530  153.2030 C   0  0  0  0  0  1  0  0  0  0  0  0
  161.6670  211.9230  148.9200 C   0  0  0  0  0  0  0  0  0  0  0  0
  159.1570  210.7650  152.8130 C   0  0  0  0  0  2  0  0  0  0  0  0
  161.2450  208.7340  152.5870 C   0  0  2  0  0  3  0  0  0  0  0  0
  159.9310  211.2460  154.9980 C   0  0  0  0  0  2  0  0  0  0  0  0
  162.5340  212.3400  147.7600 C   0  0  1  0  0  3  0  0  0  0  0  0
  157.4050  214.1300  156.6160 F   0  0  0  0  0  0  0  0  0  0  0  0
  157.8950  214.4530  155.3630 C   0  0  0  0  0  2  0  0  0  0  0  0
  1  5  1  0  0  0  0
  2 26  1  6  0  0  0
  3  2  1  0  0  0  0
  3 10  1  1  0  0  0
  4  9  1  0  0  0  0
  5 25  1  0  0  0  0
  6 17  1  0  0  0  0
  7  2  1  0  0  0  0
  7 29  1  6  0  0  0
  8  1  1  0  0  0  0
  9  6  2  0  0  0  0
  9 14  1  0  0  0  0
 11 24  1  6  0  0  0
 11 26  1  0  0  0  0
 12 11  1  0  0  0  0
 13 27  1  0  0  0  0
 14 15  1  0  0  0  0
 15 18  1  1  0  0  0
 17 15  1  0  0  0  0
 18 19  1  0  0  0  0
 19  7  1  0  0  0  0
 20 13  1  0  0  0  0
 20  4  1  0  0  0  0
 21  3  1  0  0  0  0
 23  6  1  0  0  0  0
 23  8  2  0  0  0  0
 24 21  1  0  0  0  0
 25 22  1  1  0  0  0
 25 12  1  0  0  0  0
 27 16  1  1  0  0  0
 27 23  1  0  0  0  0
 29 28  1  0  0  0  0
M  END
>  <MODEL>
2

>  <REMARK>
 VINA RESULT:      -2.3      2.731      5.122
  Name = 
  1 active torsions:
  status: ('A' for Active; 'I' for Inactive)
    1  A    between atoms: C_7  and  C_24
                            x       y       z     vdW  Elec       q    Type
                         _______ _______ _______ _____ _____    ______ ____

>  <TORSDO>
F 1

$$$$
=
 OpenBabel11052409553D

 29 32  0  0  1  0  0  0  0  0999 V2000
  158.9830  211.3580  151.8400 C   0  0  0  0  0  2  0  0  0  0  0  0
  160.4960  213.8930  147.1980 N   0  0  2  0  0  0  0  0  0  0  0  0
  159.7050  212.8300  146.5460 C   0  0  2  0  0  3  0  0  0  0  0  0
  161.3280  207.2100  151.4470 N   0  0  0  0  0  0  0  0  0  0  0  0
  158.2050  212.5550  152.3600 C   0  0  0  0  0  2  0  0  0  0  0  0
  161.2900  209.6670  151.4550 C   0  0  2  0  0  3  0  0  0  0  0  0
  161.9370  213.5910  147.3130 C   0  0  1  0  0  3  0  0  0  0  0  0
  159.6230  210.6470  152.9340 N   0  0  0  0  0  0  0  0  0  0  0  0
  161.5760  208.5030  150.8770 C   0  0  0  0  0  0  0  0  0  0  0  0
  158.6450  213.4500  145.6550 C   0  0  0  0  0  1  0  0  0  0  0  0
  158.8560  213.6930  149.0380 N   0  0  2  0  0  0  0  0  0  0  0  0
  158.8420  214.0460  150.4560 C   0  0  0  0  0  2  0  0  0  0  0  0
  161.6540  207.7190  153.7970 C   0  0  0  0  0  2  0  0  0  0  0  0
  162.3210  208.6550  149.2580 S   0  0  0  0  0  0  0  0  0  0  0  0
  162.5070  210.4500  149.5400 C   0  0  2  0  0  3  0  0  0  0  0  0
  162.2460  209.9790  154.6510 C   0  0  0  0  0  1  0  0  0  0  0  0
  161.6950  210.7970  150.6980 N   0  0  0  0  0  2  0  0  0  0  0  0
  162.0640  211.2280  148.3110 C   0  0  0  0  0  2  0  0  0  0  0  0
  162.3640  212.7080  148.4970 C   0  0  0  0  0  2  0  0  0  0  0  0
  160.8040  206.9720  152.7860 C   0  0  0  0  0  2  0  0  0  0  0  0
  159.0570  211.8290  147.5010 C   0  0  0  0  0  2  0  0  0  0  0  0
  156.7460  214.4530  151.7170 C   0  0  0  0  0  1  0  0  0  0  0  0
  160.6250  209.8310  152.7770 C   0  0  0  0  0  0  0  0  0  0  0  0
  159.1740  212.2750  148.9410 C   0  0  0  0  0  2  0  0  0  0  0  0
  157.6810  213.3840  151.1940 C   0  0  2  0  0  3  0  0  0  0  0  0
  159.9700  214.4530  148.4620 C   0  0  0  0  0  2  0  0  0  0  0  0
  161.1540  209.1450  154.0090 C   0  0  1  0  0  3  0  0  0  0  0  0
  162.3290  214.2460  145.0270 F   0  0  0  0  0  0  0  0  0  0  0  0
  162.6250  213.2880  145.9810 C   0  0  0  0  0  2  0  0  0  0  0  0
  1  5  1  0  0  0  0
  1  8  1  0  0  0  0
  2  7  1  0  0  0  0
  2 26  1  1  0  0  0
  3 10  1  1  0  0  0
  3  2  1  0  0  0  0
  3 21  1  0  0  0  0
  4 20  1  0  0  0  0
  6 17  1  1  0  0  0
  6 23  1  0  0  0  0
  7 29  1  6  0  0  0
  7 19  1  0  0  0  0
  9  4  2  0  0  0  0
  9  6  1  0  0  0  0
 11 26  1  6  0  0  0
 11 12  1  0  0  0  0
 12 25  1  0  0  0  0
 13 27  1  0  0  0  0
 14 15  1  0  0  0  0
 14  9  1  0  0  0  0
 15 18  1  6  0  0  0
 15 17  1  0  0  0  0
 18 19  1  0  0  0  0
 20 13  1  0  0  0  0
 21 24  1  0  0  0  0
 23  8  2  0  0  0  0
 23 27  1  0  0  0  0
 24 11  1  0  0  0  0
 25 22  1  1  0  0  0
 25  5  1  0  0  0  0
 27 16  1  6  0  0  0
 28 29  1  0  0  0  0
M  END
>  <MODEL>
3

>  <REMARK>
 VINA RESULT:      -1.3      3.218      7.226
  Name = 
  1 active torsions:
  status: ('A' for Active; 'I' for Inactive)
    1  A    between atoms: C_7  and  C_24
                            x       y       z     vdW  Elec       q    Type
                         _______ _______ _______ _____ _____    ______ ____

>  <TORSDO>
F 1

$$$$
=
 OpenBabel11052409553D

 29 32  0  0  1  0  0  0  0  0999 V2000
  158.6740  211.3100  154.4480 C   0  0  0  0  0  2  0  0  0  0  0  0
  159.3190  213.9080  149.6420 N   0  0  2  0  0  0  0  0  0  0  0  0
  158.3920  212.8740  149.1390 C   0  0  2  0  0  3  0  0  0  0  0  0
  160.8030  207.1250  153.5430 N   0  0  0  0  0  2  0  0  0  0  0  0
  158.0390  212.5110  155.1290 C   0  0  0  0  0  2  0  0  0  0  0  0
  160.8240  209.5820  153.5970 C   0  0  0  0  0  0  0  0  0  0  0  0
  160.7470  213.5760  149.4710 C   0  0  1  0  0  3  0  0  0  0  0  0
  159.4980  210.5650  155.3870 N   0  0  0  0  0  0  0  0  0  0  0  0
  160.9650  208.4250  152.9560 C   0  0  0  0  0  0  0  0  0  0  0  0
  157.1940  213.5320  148.4810 C   0  0  0  0  0  1  0  0  0  0  0  0
  158.0610  213.7030  151.7620 N   0  0  2  0  0  0  0  0  0  0  0  0
  158.3300  214.0270  153.1610 C   0  0  0  0  0  2  0  0  0  0  0  0
  161.5890  207.5810  155.7930 C   0  0  0  0  0  2  0  0  0  0  0  0
  161.3860  208.5950  151.2260 S   0  0  0  0  0  0  0  0  0  0  0  0
  161.6650  210.3800  151.4950 C   0  0  2  0  0  3  0  0  0  0  0  0
  162.3860  209.8120  156.5510 C   0  0  0  0  0  1  0  0  0  0  0  0
  161.1010  210.7190  152.7940 N   0  0  0  0  0  2  0  0  0  0  0  0
  161.0100  211.1910  150.3880 C   0  0  0  0  0  2  0  0  0  0  0  0
  161.3750  212.6610  150.5360 C   0  0  0  0  0  2  0  0  0  0  0  0
  160.5430  206.8710  154.9530 C   0  0  0  0  0  2  0  0  0  0  0  0
  157.9180  211.8660  150.1860 C   0  0  0  0  0  2  0  0  0  0  0  0
  156.5270  214.4500  154.8110 C   0  0  0  0  0  1  0  0  0  0  0  0
  160.4300  209.7330  155.0250 C   0  0  0  0  0  0  0  0  0  0  0  0
  158.3220  212.2810  151.5820 C   0  0  0  0  0  2  0  0  0  0  0  0
  157.3180  213.3730  154.1000 C   0  0  2  0  0  3  0  0  0  0  0  0
  159.0600  214.4530  150.9930 C   0  0  0  0  0  2  0  0  0  0  0  0
  161.1720  209.0120  156.1200 C   0  0  1  0  0  3  0  0  0  0  0  0
  162.5320  213.3330  147.8700 F   0  0  0  0  0  0  0  0  0  0  0  0
  161.1570  213.2860  148.0260 C   0  0  0  0  0  2  0  0  0  0  0  0
  1  5  1  0  0  0  0
  1  8  1  0  0  0  0
  2 26  1  1  0  0  0
  3 10  1  1  0  0  0
  3  2  1  0  0  0  0
  3 21  1  0  0  0  0
  4 20  1  0  0  0  0
  6 23  1  0  0  0  0
  7 29  1  6  0  0  0
  7  2  1  0  0  0  0
  7 19  1  0  0  0  0
  9  4  1  0  0  0  0
  9  6  2  0  0  0  0
 11 26  1  6  0  0  0
 11 12  1  0  0  0  0
 12 25  1  0  0  0  0
 13 27  1  0  0  0  0
 14 15  1  0  0  0  0
 14  9  1  0  0  0  0
 15 18  1  6  0  0  0
 15 17  1  0  0  0  0
 17  6  1  0  0  0  0
 18 19  1  0  0  0  0
 20 13  1  0  0  0  0
 21 24  1  0  0  0  0
 23  8  2  0  0  0  0
 23 27  1  0  0  0  0
 24 11  1  0  0  0  0
 25 22  1  1  0  0  0
 25  5  1  0  0  0  0
 27 16  1  6  0  0  0
 28 29  1  0  0  0  0
M  END
>  <MODEL>
4

>  <REMARK>
 VINA RESULT:      -0.2      2.319      6.496
  Name = 
  1 active torsions:
  status: ('A' for Active; 'I' for Inactive)
    1  A    between atoms: C_7  and  C_24
                            x       y       z     vdW  Elec       q    Type
                         _______ _______ _______ _____ _____    ______ ____

>  <TORSDO>
F 1

$$$$
=
 OpenBabel11052409553D

 29 32  0  0  1  0  0  0  0  0999 V2000
  159.5290  210.8680  152.1220 C   0  0  0  0  0  2  0  0  0  0  0  0
  161.1190  214.1290  147.9870 N   0  0  2  0  0  0  0  0  0  0  0  0
  160.0650  213.4210  147.2320 C   0  0  2  0  0  3  0  0  0  0  0  0
  160.8980  206.5790  150.5100 N   0  0  0  0  0  0  0  0  0  0  0  0
  159.0710  212.0250  152.9940 C   0  0  0  0  0  2  0  0  0  0  0  0
  161.3820  208.9250  151.0620 C   0  0  2  0  0  3  0  0  0  0  0  0
  162.4670  213.5480  147.8340 C   0  0  1  0  0  3  0  0  0  0  0  0
  160.1010  209.8070  152.9350 N   0  0  0  0  0  0  0  0  0  0  0  0
  161.3620  207.9040  150.2090 C   0  0  0  0  0  0  0  0  0  0  0  0
  159.0840  214.4230  146.6530 C   0  0  0  0  0  1  0  0  0  0  0  0
  159.6460  213.7950  149.9460 N   0  0  2  0  0  0  0  0  0  0  0  0
  159.8360  213.7890  151.3940 C   0  0  0  0  0  2  0  0  0  0  0  0
  161.5350  206.4340  152.8470 C   0  0  0  0  0  2  0  0  0  0  0  0
  161.9720  208.3040  148.5770 S   0  0  0  0  0  0  0  0  0  0  0  0
  162.5590  209.9100  149.2170 C   0  0  2  0  0  3  0  0  0  0  0  0
  162.6660  208.2710  154.0860 C   0  0  0  0  0  1  0  0  0  0  0  0
  161.9470  210.1100  150.5230 N   0  0  0  0  0  2  0  0  0  0  0  0
  162.1810  211.0320  148.2620 C   0  0  0  0  0  2  0  0  0  0  0  0
  162.8030  212.3410  148.7250 C   0  0  0  0  0  2  0  0  0  0  0  0
  160.4590  206.1250  151.8220 C   0  0  0  0  0  2  0  0  0  0  0  0
  159.3090  212.3550  148.0240 C   0  0  0  0  0  2  0  0  0  0  0  0
  157.9950  214.2580  152.9900 C   0  0  0  0  0  1  0  0  0  0  0  0
  160.8880  208.8830  152.4670 C   0  0  0  0  0  0  0  0  0  0  0  0
  159.6470  212.4090  149.4970 C   0  0  0  0  0  2  0  0  0  0  0  0
  158.6320  213.1940  152.1220 C   0  0  2  0  0  3  0  0  0  0  0  0
  160.8390  214.4530  149.4030 C   0  0  0  0  0  2  0  0  0  0  0  0
  161.3700  207.8330  153.4330 C   0  0  1  0  0  3  0  0  0  0  0  0
  162.0390  212.7900  145.5870 F   0  0  0  0  0  0  0  0  0  0  0  0
  162.9530  213.4550  146.3860 C   0  0  0  0  0  2  0  0  0  0  0  0
  1  8  1  0  0  0  0
  1  5  1  0  0  0  0
  2 26  1  1  0  0  0
  3 10  1  1  0  0  0
  3  2  1  0  0  0  0
  3 21  1  0  0  0  0
  4 20  1  0  0  0  0
  6  9  1  1  0  0  0
  6 23  1  0  0  0  0
  7 29  1  6  0  0  0
  7  2  1  0  0  0  0
  7 19  1  0  0  0  0
  9  4  2  0  0  0  0
 11 26  1  6  0  0  0
 11 12  1  0  0  0  0
 12 25  1  0  0  0  0
 13 27  1  0  0  0  0
 14 15  1  0  0  0  0
 14  9  1  0  0  0  0
 15 18  1  6  0  0  0
 15 17  1  0  0  0  0
 17  6  1  0  0  0  0
 18 19  1  0  0  0  0
 20 13  1  0  0  0  0
 21 24  1  0  0  0  0
 23  8  2  0  0  0  0
 23 27  1  0  0  0  0
 24 11  1  0  0  0  0
 25 22  1  1  0  0  0
 25  5  1  0  0  0  0
 27 16  1  6  0  0  0
 28 29  1  0  0  0  0
M  END
>  <MODEL>
5

>  <REMARK>
 VINA RESULT:      -0.0      3.081      7.036
  Name = 
  1 active torsions:
  status: ('A' for Active; 'I' for Inactive)
    1  A    between atoms: C_7  and  C_24
                            x       y       z     vdW  Elec       q    Type
                         _______ _______ _______ _____ _____    ______ ____

>  <TORSDO>
F 1

$$$$
=
 OpenBabel11052409553D

 29 32  0  0  1  0  0  0  0  0999 V2000
  160.9140  210.6560  152.3510 C   0  0  0  0  0  2  0  0  0  0  0  0
  162.1460  205.6490  150.4330 N   0  0  2  0  0  0  0  0  0  0  0  0
  160.6890  205.5490  150.2110 C   0  0  2  0  0  3  0  0  0  0  0  0
  158.4600  209.5650  156.3060 N   0  0  0  0  0  2  0  0  0  0  0  0
  161.7110  211.3750  151.2760 C   0  0  0  0  0  2  0  0  0  0  0  0
  160.4640  209.3720  154.8960 C   0  0  0  0  0  0  0  0  0  0  0  0
  162.6020  205.0910  151.7210 C   0  0  1  0  0  3  0  0  0  0  0  0
  160.9920  211.3730  153.6140 N   0  0  0  0  0  0  0  0  0  0  0  0
  159.4460  208.8330  155.5640 C   0  0  0  0  0  0  0  0  0  0  0  0
  160.4100  205.2180  148.7580 C   0  0  0  0  0  1  0  0  0  0  0  0
  161.8380  208.0570  149.9610 N   0  0  2  0  0  0  0  0  0  0  0  0
  162.5950  209.2730  150.2480 C   0  0  0  0  0  2  0  0  0  0  0  0
  159.8140  211.4220  157.0850 C   0  0  0  0  0  2  0  0  0  0  0  0
  159.3740  207.0490  155.4700 S   0  0  0  0  0  0  0  0  0  0  0  0
  161.0290  207.0480  154.6970 C   0  0  2  0  0  3  0  0  0  0  0  0
  162.2290  211.6880  156.5520 C   0  0  0  0  0  1  0  0  0  0  0  0
  161.3260  208.4170  154.2980 N   0  0  0  0  0  2  0  0  0  0  0  0
  161.0530  206.1140  153.4970 C   0  0  0  0  0  2  0  0  0  0  0  0
  162.4690  206.0030  152.9530 C   0  0  0  0  0  2  0  0  0  0  0  0
  158.4690  211.0060  156.5160 C   0  0  0  0  0  2  0  0  0  0  0  0
  159.8860  206.7820  150.6250 C   0  0  0  0  0  2  0  0  0  0  0  0
  162.3810  211.3380  148.8890 C   0  0  0  0  0  1  0  0  0  0  0  0
  160.7320  210.8310  154.7680 C   0  0  0  0  0  0  0  0  0  0  0  0
  160.7880  207.9460  150.9640 C   0  0  0  0  0  2  0  0  0  0  0  0
  161.7610  210.5310  150.0090 C   0  0  2  0  0  3  0  0  0  0  0  0
  162.7840  206.9560  150.1650 C   0  0  0  0  0  2  0  0  0  0  0  0
  160.8250  211.7190  155.9810 C   0  0  1  0  0  3  0  0  0  0  0  0
  160.9530  203.5030  152.4720 F   0  0  0  0  0  0  0  0  0  0  0  0
  162.2260  203.6250  151.9420 C   0  0  0  0  0  2  0  0  0  0  0  0
  1  8  1  0  0  0  0
  2 26  1  1  0  0  0
  2  7  1  0  0  0  0
  3 10  1  6  0  0  0
  3  2  1  0  0  0  0
  3 21  1  0  0  0  0
  4 20  1  0  0  0  0
  5  1  1  0  0  0  0
  6  9  2  0  0  0  0
  7 29  1  1  0  0  0
  7 19  1  0  0  0  0
  8 23  2  0  0  0  0
  9  4  1  0  0  0  0
 11 26  1  1  0  0  0
 11 12  1  0  0  0  0
 11 24  1  0  0  0  0
 14  9  1  0  0  0  0
 15 18  1  6  0  0  0
 15 14  1  0  0  0  0
 17 15  1  0  0  0  0
 17  6  1  0  0  0  0
 19 18  1  0  0  0  0
 20 13  1  0  0  0  0
 21 24  1  0  0  0  0
 23  6  1  0  0  0  0
 23 27  1  0  0  0  0
 25 22  1  6  0  0  0
 25 12  1  0  0  0  0
 25  5  1  0  0  0  0
 27 16  1  1  0  0  0
 27 13  1  0  0  0  0
 29 28  1  0  0  0  0
M  END
>  <MODEL>
6

>  <REMARK>
 VINA RESULT:       0.0      3.031      6.479
  Name = 
  1 active torsions:
  status: ('A' for Active; 'I' for Inactive)
    1  A    between atoms: C_7  and  C_24
                            x       y       z     vdW  Elec       q    Type
                         _______ _______ _______ _____ _____    ______ ____

>  <TORSDO>
F 1

$$$$
