=
 OpenBabel11052409463D

 31 34  0  0  1  0  0  0  0  0999 V2000
  161.0630  203.9610  148.1380 C   0  0  0  0  0  0  0  0  0  0  0  0
  161.3360  205.9380  151.2770 C   0  0  0  0  0  0  0  0  0  0  0  0
  160.7270  201.6130  147.3810 C   0  0  0  0  0  0  0  0  0  0  0  0
  161.4340  204.3660  146.9090 N   0  0  0  0  0  0  0  0  0  0  0  0
  160.3520  201.6750  146.1810 O   0  0  0  0  0  0  0  0  0  0  0  0
  160.4050  202.6320  148.4200 C   0  0  1  0  0  3  0  0  0  0  0  0
  161.6630  206.9440  152.0450 C   0  0  0  0  0  0  0  0  0  0  0  0
  161.6220  200.8150  149.2790 C   0  0  0  0  0  3  0  0  0  0  0  0
  161.0410  201.9640  149.6060 C   0  0  2  0  0  3  0  0  0  0  0  0
  161.9250  205.6140  147.0500 C   0  0  0  0  0  3  0  0  0  0  0  0
  161.0050  204.9320  150.5120 C   0  0  0  0  0  0  0  0  0  0  0  0
  160.2560  203.7930  151.1290 C   0  0  0  0  0  2  0  0  0  0  0  0
  161.4740  200.5230  147.8950 N   0  0  0  0  0  0  0  0  0  0  0  0
  161.0330  202.4880  151.0090 C   0  0  0  0  0  2  0  0  0  0  0  0
  161.2930  204.9670  149.0600 C   0  0  1  0  0  3  0  0  0  0  0  0
  161.8590  206.0230  148.3700 C   0  0  0  0  0  3  0  0  0  0  0  0
  162.2740  208.8220  150.6920 N   0  0  0  0  0  0  0  0  0  0  0  0
  161.4550  208.3290  151.5780 C   0  0  0  0  0  0  0  0  0  0  0  0
  162.1820  210.0980  150.1870 O   0  0  0  0  0  1  0  0  0  0  0  0
  160.3770  209.0570  152.1130 O   0  0  0  0  0  0  0  0  0  0  0  0
  160.4050  210.4370  152.4510 C   0  0  0  0  0  2  0  0  0  0  0  0
  159.3380  212.0130  154.0280 C   0  0  0  0  0  1  0  0  0  0  0  0
  159.1090  210.8100  153.1380 C   0  0  0  0  0  2  0  0  0  0  0  0
  162.1730  206.6620  153.4240 C   0  0  0  0  0  2  0  0  0  0  0  0
  159.7430  208.6570  156.3440 C   0  0  0  0  0  3  0  0  0  0  0  0
  160.9560  209.2230  155.9400 C   0  0  0  0  0  0  0  0  0  0  0  0
  161.3690  210.4350  156.4760 O   0  0  0  0  0  1  0  0  0  0  0  0
  161.3370  207.3480  154.4530 C   0  0  0  0  0  0  0  0  0  0  0  0
  160.1210  206.7840  154.8560 C   0  0  0  0  0  3  0  0  0  0  0  0
  159.3250  207.4380  155.8020 C   0  0  0  0  0  3  0  0  0  0  0  0
  161.7510  208.5710  154.9930 C   0  0  0  0  0  3  0  0  0  0  0  0
  1  6  1  0  0  0  0
  1 15  1  0  0  0  0
  2  7  2  0  0  0  0
  3 13  1  0  0  0  0
  4 10  1  0  0  0  0
  4  1  2  0  0  0  0
  5  3  2  0  0  0  0
  6  3  1  6  0  0  0
  6  9  1  0  0  0  0
  7 24  1  0  0  0  0
  9  8  1  1  0  0  0
  9 14  1  0  0  0  0
 10 16  2  0  0  0  0
 11 12  1  0  0  0  0
 11  2  2  0  0  0  0
 13  8  2  0  0  0  0
 14 12  1  0  0  0  0
 15 16  1  1  0  0  0
 15 11  1  0  0  0  0
 17 18  2  0  0  0  0
 18  7  1  0  0  0  0
 18 20  1  0  0  0  0
 19 17  1  0  0  0  0
 20 21  1  0  0  0  0
 21 23  1  0  0  0  0
 23 22  1  0  0  0  0
 24 28  1  0  0  0  0
 26 25  1  0  0  0  0
 26 27  1  0  0  0  0
 28 29  2  0  0  0  0
 28 31  1  0  0  0  0
 29 30  1  0  0  0  0
 30 25  2  0  0  0  0
 31 26  2  0  0  0  0
M  END
>  <MODEL>
1

>  <REMARK>
 VINA RESULT:      -8.7      0.000      0.000
  Name = 
  6 active torsions:
  status: ('A' for Active; 'I' for Inactive)
    1  A    between atoms: C_5  and  O_22
    2  A    between atoms: C_5  and  C_28
    3  A    between atoms: C_13  and  C_14
    4  A    between atoms: C_13  and  C_25
    5  A    between atoms: C_14  and  C_15
    6  A    between atoms: O_22  and  C_25
                            x       y       z     vdW  Elec       q    Type
                         _______ _______ _______ _____ _____    ______ ____

>  <TORSDO>
F 6

$$$$
=
 OpenBabel11052409463D

 31 34  0  0  1  0  0  0  0  0999 V2000
  161.5860  208.9890  154.1880 C   0  0  0  0  0  0  0  0  0  0  0  0
  161.1590  206.8740  151.1570 C   0  0  0  0  0  0  0  0  0  0  0  0
  161.2710  208.8780  156.6550 C   0  0  0  0  0  0  0  0  0  0  0  0
  161.7410  210.3250  154.2080 N   0  0  0  0  0  2  0  0  0  0  0  0
  161.9650  209.8090  157.1450 O   0  0  0  0  0  0  0  0  0  0  0  0
  161.6270  208.1200  155.4220 C   0  0  1  0  0  3  0  0  0  0  0  0
  161.0060  206.6010  149.8880 C   0  0  0  0  0  0  0  0  0  0  0  0
  159.6600  207.3310  156.4360 C   0  0  0  0  0  3  0  0  0  0  0  0
  160.4910  207.1360  155.4190 C   0  0  0  0  0  0  0  0  0  0  0  0
  161.7030  210.7350  152.9230 C   0  0  0  0  0  3  0  0  0  0  0  0
  161.3140  207.1430  152.4260 C   0  0  0  0  0  0  0  0  0  0  0  0
  161.4100  205.9970  153.3840 C   0  0  0  0  0  2  0  0  0  0  0  0
  160.0770  208.4130  157.2590 N   0  0  0  0  0  2  0  0  0  0  0  0
  160.2900  206.0420  154.4160 C   0  0  0  0  0  2  0  0  0  0  0  0
  161.4760  208.5420  152.8830 C   0  0  0  0  0  0  0  0  0  0  0  0
  161.5360  209.6590  152.0690 C   0  0  0  0  0  3  0  0  0  0  0  0
  161.8550  208.6160  148.9150 N   0  0  0  0  0  0  0  0  0  0  0  0
  161.8100  207.3130  148.8760 C   0  0  0  0  0  0  0  0  0  0  0  0
  162.5670  209.3860  148.0240 O   0  0  0  0  0  1  0  0  0  0  0  0
  162.4940  206.5520  147.9120 O   0  0  0  0  0  0  0  0  0  0  0  0
  161.9900  206.2060  146.6290 C   0  0  0  0  0  2  0  0  0  0  0  0
  161.6090  203.9770  145.6310 C   0  0  0  0  0  1  0  0  0  0  0  0
  162.6590  204.9330  146.1550 C   0  0  0  0  0  2  0  0  0  0  0  0
  160.0650  205.5050  149.4950 C   0  0  0  0  0  2  0  0  0  0  0  0
  161.5830  201.7030  150.7820 C   0  0  0  0  0  3  0  0  0  0  0  0
  161.3310  201.9330  149.4260 C   0  0  0  0  0  0  0  0  0  0  0  0
  161.5810  200.9340  148.4950 O   0  0  0  0  0  1  0  0  0  0  0  0
  160.5760  204.1760  149.9430 C   0  0  0  0  0  0  0  0  0  0  0  0
  160.8320  203.9460  151.3000 C   0  0  0  0  0  3  0  0  0  0  0  0
  161.3330  202.7100  151.7200 C   0  0  0  0  0  3  0  0  0  0  0  0
  160.8310  203.1690  149.0060 C   0  0  0  0  0  3  0  0  0  0  0  0
  1  4  1  0  0  0  0
  2 11  2  0  0  0  0
  3  5  2  0  0  0  0
  3 13  1  0  0  0  0
  6  1  1  6  0  0  0
  6  3  1  0  0  0  0
  7  2  2  0  0  0  0
  8 13  1  0  0  0  0
  9  6  1  0  0  0  0
  9  8  2  0  0  0  0
 10  4  1  0  0  0  0
 11 15  1  0  0  0  0
 11 12  1  0  0  0  0
 12 14  1  0  0  0  0
 14  9  1  0  0  0  0
 15  1  2  0  0  0  0
 16 15  1  0  0  0  0
 16 10  2  0  0  0  0
 18 17  2  0  0  0  0
 18  7  1  0  0  0  0
 19 17  1  0  0  0  0
 20 18  1  0  0  0  0
 21 20  1  0  0  0  0
 22 23  1  0  0  0  0
 23 21  1  0  0  0  0
 24  7  1  0  0  0  0
 24 28  1  0  0  0  0
 25 30  1  0  0  0  0
 26 25  2  0  0  0  0
 27 26  1  0  0  0  0
 28 29  1  0  0  0  0
 29 30  2  0  0  0  0
 31 26  1  0  0  0  0
 31 28  2  0  0  0  0
M  END
>  <MODEL>
2

>  <REMARK>
 VINA RESULT:      -8.3      2.339      7.802
  Name = 
  6 active torsions:
  status: ('A' for Active; 'I' for Inactive)
    1  A    between atoms: C_5  and  O_22
    2  A    between atoms: C_5  and  C_28
    3  A    between atoms: C_13  and  C_14
    4  A    between atoms: C_13  and  C_25
    5  A    between atoms: C_14  and  C_15
    6  A    between atoms: O_22  and  C_25
                            x       y       z     vdW  Elec       q    Type
                         _______ _______ _______ _____ _____    ______ ____

>  <TORSDO>
F 6

$$$$
=
 OpenBabel11052409463D

 31 34  0  0  1  0  0  0  0  0999 V2000
  160.9650  206.8710  152.1170 C   0  0  0  0  0  0  0  0  0  0  0  0
  161.4310  204.5990  149.2080 C   0  0  0  0  0  0  0  0  0  0  0  0
  161.0560  209.2940  152.6830 C   0  0  0  0  0  0  0  0  0  0  0  0
  160.9460  206.5080  153.4130 N   0  0  0  0  0  2  0  0  0  0  0  0
  160.4220  209.4310  153.7630 O   0  0  0  0  0  0  0  0  0  0  0  0
  160.7310  208.2830  151.6370 C   0  0  1  0  0  3  0  0  0  0  0  0
  161.6620  203.4780  148.5780 C   0  0  0  0  0  0  0  0  0  0  0  0
  162.5140  209.6840  151.0220 C   0  0  0  0  0  3  0  0  0  0  0  0
  161.7570  208.6740  150.6110 C   0  0  0  0  0  0  0  0  0  0  0  0
  161.1350  205.1730  153.4390 C   0  0  0  0  0  3  0  0  0  0  0  0
  161.1960  205.7210  149.8350 C   0  0  0  0  0  0  0  0  0  0  0  0
  160.9030  206.9390  149.0150 C   0  0  0  0  0  2  0  0  0  0  0  0
  162.1410  210.1300  152.3200 N   0  0  0  0  0  2  0  0  0  0  0  0
  161.9300  208.0360  149.2660 C   0  0  0  0  0  2  0  0  0  0  0  0
  161.1400  205.7570  151.3140 C   0  0  0  0  0  0  0  0  0  0  0  0
  161.2630  204.6680  152.1570 C   0  0  0  0  0  3  0  0  0  0  0  0
  160.8670  202.0340  150.3140 N   0  0  0  0  0  0  0  0  0  0  0  0
  161.0250  202.2270  149.0340 C   0  0  0  0  0  0  0  0  0  0  0  0
  160.2910  200.9080  150.8550 O   0  0  0  0  0  1  0  0  0  0  0  0
  160.6130  201.2970  148.0630 O   0  0  0  0  0  0  0  0  0  0  0  0
  161.4060  200.2340  147.5540 C   0  0  0  0  0  2  0  0  0  0  0  0
  161.4420  198.6280  145.6760 C   0  0  0  0  0  1  0  0  0  0  0  0
  161.1080  200.0470  146.0820 C   0  0  0  0  0  2  0  0  0  0  0  0
  162.5170  203.5050  147.3490 C   0  0  0  0  0  2  0  0  0  0  0  0
  160.3840  205.3130  144.0930 C   0  0  0  0  0  3  0  0  0  0  0  0
  160.0880  204.0030  144.4820 C   0  0  0  0  0  0  0  0  0  0  0  0
  159.0970  203.2910  143.8200 O   0  0  0  0  0  1  0  0  0  0  0  0
  161.7870  204.1260  146.2050 C   0  0  0  0  0  0  0  0  0  0  0  0
  162.0800  205.4390  145.8170 C   0  0  0  0  0  3  0  0  0  0  0  0
  161.3810  206.0310  144.7610 C   0  0  0  0  0  3  0  0  0  0  0  0
  160.7860  203.4110  145.5380 C   0  0  0  0  0  3  0  0  0  0  0  0
  1  4  1  0  0  0  0
  2 11  2  0  0  0  0
  3  5  2  0  0  0  0
  4 10  1  0  0  0  0
  6  9  1  6  0  0  0
  6  1  1  0  0  0  0
  6  3  1  0  0  0  0
  7 18  1  0  0  0  0
  7  2  2  0  0  0  0
  8 13  1  0  0  0  0
  9  8  2  0  0  0  0
 11 15  1  0  0  0  0
 12 14  1  0  0  0  0
 12 11  1  0  0  0  0
 13  3  1  0  0  0  0
 14  9  1  0  0  0  0
 15  1  2  0  0  0  0
 15 16  1  0  0  0  0
 16 10  2  0  0  0  0
 17 19  1  0  0  0  0
 18 17  2  0  0  0  0
 20 18  1  0  0  0  0
 21 20  1  0  0  0  0
 22 23  1  0  0  0  0
 23 21  1  0  0  0  0
 24  7  1  0  0  0  0
 25 26  2  0  0  0  0
 25 30  1  0  0  0  0
 26 31  1  0  0  0  0
 27 26  1  0  0  0  0
 28 24  1  0  0  0  0
 29 28  1  0  0  0  0
 30 29  2  0  0  0  0
 31 28  2  0  0  0  0
M  END
>  <MODEL>
3

>  <REMARK>
 VINA RESULT:      -8.3      2.298      8.997
  Name = 
  6 active torsions:
  status: ('A' for Active; 'I' for Inactive)
    1  A    between atoms: C_5  and  O_22
    2  A    between atoms: C_5  and  C_28
    3  A    between atoms: C_13  and  C_14
    4  A    between atoms: C_13  and  C_25
    5  A    between atoms: C_14  and  C_15
    6  A    between atoms: O_22  and  C_25
                            x       y       z     vdW  Elec       q    Type
                         _______ _______ _______ _____ _____    ______ ____

>  <TORSDO>
F 6

$$$$
=
 OpenBabel11052409463D

 31 34  0  0  1  0  0  0  0  0999 V2000
  160.9210  205.3700  149.8000 C   0  0  0  0  0  0  0  0  0  0  0  0
  161.4410  208.3590  151.9520 C   0  0  0  0  0  0  0  0  0  0  0  0
  160.6600  202.9010  149.9890 C   0  0  0  0  0  0  0  0  0  0  0  0
  161.1090  205.3070  148.4690 N   0  0  0  0  0  0  0  0  0  0  0  0
  160.1360  202.5140  148.9110 O   0  0  0  0  0  0  0  0  0  0  0  0
  160.3980  204.2220  150.6290 C   0  0  1  0  0  3  0  0  0  0  0  0
  161.7890  209.5820  152.2550 C   0  0  0  0  0  0  0  0  0  0  0  0
  161.8350  202.8670  151.9010 C   0  0  0  0  0  3  0  0  0  0  0  0
  161.2210  204.0440  151.8730 C   0  0  2  0  0  3  0  0  0  0  0  0
  161.5250  206.5310  148.0830 C   0  0  0  0  0  3  0  0  0  0  0  0
  161.0890  207.1370  151.6520 C   0  0  0  0  0  0  0  0  0  0  0  0
  160.5030  206.2860  152.7350 C   0  0  0  0  0  2  0  0  0  0  0  0
  161.5390  202.0890  150.7490 N   0  0  0  0  0  0  0  0  0  0  0  0
  161.3490  205.0430  152.9820 C   0  0  0  0  0  2  0  0  0  0  0  0
  161.1930  206.6470  150.2590 C   0  0  1  0  0  3  0  0  0  0  0  0
  161.5940  207.3910  149.1650 C   0  0  0  0  0  3  0  0  0  0  0  0
  161.9650  210.7450  150.1700 N   0  0  0  0  0  0  0  0  0  0  0  0
  161.4290  210.6980  151.3580 C   0  0  0  0  0  0  0  0  0  0  0  0
  161.7090  211.7370  149.2510 O   0  0  0  0  0  1  0  0  0  0  0  0
  160.5190  211.6620  151.8260 O   0  0  0  0  0  0  0  0  0  0  0  0
  159.2220  211.3880  152.3380 C   0  0  0  0  0  2  0  0  0  0  0  0
  157.6150  212.0970  154.0760 C   0  0  0  0  0  1  0  0  0  0  0  0
  158.7730  212.5410  153.2090 C   0  0  0  0  0  2  0  0  0  0  0  0
  162.4840  209.8320  153.5570 C   0  0  0  0  0  2  0  0  0  0  0  0
  159.6110  210.4070  156.6920 C   0  0  0  0  0  3  0  0  0  0  0  0
  160.5070  211.4300  156.3690 C   0  0  0  0  0  0  0  0  0  0  0  0
  160.4600  212.6350  157.0560 O   0  0  0  0  0  1  0  0  0  0  0  0
  161.4970  210.0270  154.6600 C   0  0  0  0  0  0  0  0  0  0  0  0
  160.5970  209.0040  154.9820 C   0  0  0  0  0  3  0  0  0  0  0  0
  159.6560  209.1930  155.9990 C   0  0  0  0  0  3  0  0  0  0  0  0
  161.4470  211.2420  155.3520 C   0  0  0  0  0  3  0  0  0  0  0  0
  1 15  1  0  0  0  0
  2  7  2  0  0  0  0
  3  6  1  0  0  0  0
  3 13  1  0  0  0  0
  4  1  2  0  0  0  0
  5  3  2  0  0  0  0
  6  1  1  6  0  0  0
  6  9  1  0  0  0  0
  7 24  1  0  0  0  0
  9  8  1  1  0  0  0
  9 14  1  0  0  0  0
 10  4  1  0  0  0  0
 10 16  2  0  0  0  0
 11  2  2  0  0  0  0
 11 12  1  0  0  0  0
 12 14  1  0  0  0  0
 13  8  2  0  0  0  0
 15 16  1  1  0  0  0
 15 11  1  0  0  0  0
 17 18  2  0  0  0  0
 18 20  1  0  0  0  0
 18  7  1  0  0  0  0
 19 17  1  0  0  0  0
 20 21  1  0  0  0  0
 21 23  1  0  0  0  0
 23 22  1  0  0  0  0
 24 28  1  0  0  0  0
 26 25  1  0  0  0  0
 26 27  1  0  0  0  0
 28 29  2  0  0  0  0
 28 31  1  0  0  0  0
 29 30  1  0  0  0  0
 30 25  2  0  0  0  0
 31 26  2  0  0  0  0
M  END
>  <MODEL>
4

>  <REMARK>
 VINA RESULT:      -7.8      1.764      2.461
  Name = 
  6 active torsions:
  status: ('A' for Active; 'I' for Inactive)
    1  A    between atoms: C_5  and  O_22
    2  A    between atoms: C_5  and  C_28
    3  A    between atoms: C_13  and  C_14
    4  A    between atoms: C_13  and  C_25
    5  A    between atoms: C_14  and  C_15
    6  A    between atoms: O_22  and  C_25
                            x       y       z     vdW  Elec       q    Type
                         _______ _______ _______ _____ _____    ______ ____

>  <TORSDO>
F 6

$$$$
=
 OpenBabel11052409463D

 31 34  0  0  1  0  0  0  0  0999 V2000
  161.1700  205.4350  149.3920 C   0  0  0  0  0  0  0  0  0  0  0  0
  161.5220  208.4650  151.5220 C   0  0  0  0  0  0  0  0  0  0  0  0
  160.8320  202.9780  149.6070 C   0  0  0  0  0  0  0  0  0  0  0  0
  161.5000  205.3360  148.0910 N   0  0  0  0  0  0  0  0  0  0  0  0
  160.4200  202.5760  148.4860 O   0  0  0  0  0  0  0  0  0  0  0  0
  160.5330  204.3190  150.1840 C   0  0  1  0  0  3  0  0  0  0  0  0
  161.8630  209.6880  151.8340 C   0  0  0  0  0  0  0  0  0  0  0  0
  161.7910  202.9660  151.6360 C   0  0  0  0  0  3  0  0  0  0  0  0
  161.2110  204.1550  151.5150 C   0  0  2  0  0  3  0  0  0  0  0  0
  161.9850  206.5410  147.7270 C   0  0  0  0  0  3  0  0  0  0  0  0
  161.1760  207.2440  151.2130 C   0  0  0  0  0  0  0  0  0  0  0  0
  160.4560  206.4320  152.2430 C   0  0  0  0  0  2  0  0  0  0  0  0
  161.6040  202.1660  150.4750 N   0  0  0  0  0  0  0  0  0  0  0  0
  161.2400  205.1780  152.6090 C   0  0  0  0  0  2  0  0  0  0  0  0
  161.4200  206.7170  149.8500 C   0  0  1  0  0  3  0  0  0  0  0  0
  161.9550  207.4260  148.7900 C   0  0  0  0  0  3  0  0  0  0  0  0
  160.7530  211.7060  151.1810 N   0  0  0  0  0  0  0  0  0  0  0  0
  161.6290  210.7880  150.8780 C   0  0  0  0  0  0  0  0  0  0  0  0
  160.4490  212.7740  150.3690 O   0  0  0  0  0  1  0  0  0  0  0  0
  162.3650  210.7980  149.6800 O   0  0  0  0  0  0  0  0  0  0  0  0
  161.9460  211.3970  148.4630 C   0  0  0  0  0  2  0  0  0  0  0  0
  162.6840  213.6690  147.8300 C   0  0  0  0  0  1  0  0  0  0  0  0
  163.0840  212.2110  147.8860 C   0  0  0  0  0  2  0  0  0  0  0  0
  162.4170  209.9550  153.1990 C   0  0  0  0  0  2  0  0  0  0  0  0
  159.3850  209.6650  156.2220 C   0  0  0  0  0  3  0  0  0  0  0  0
  160.2220  208.5750  155.9640 C   0  0  0  0  0  0  0  0  0  0  0  0
  160.0770  207.4020  156.6920 O   0  0  0  0  0  1  0  0  0  0  0  0
  161.3510  209.8460  154.2380 C   0  0  0  0  0  0  0  0  0  0  0  0
  160.5160  210.9390  154.5000 C   0  0  0  0  0  3  0  0  0  0  0  0
  159.5320  210.8470  155.4900 C   0  0  0  0  0  3  0  0  0  0  0  0
  161.2060  208.6660  154.9750 C   0  0  0  0  0  3  0  0  0  0  0  0
  1 15  1  0  0  0  0
  2  7  2  0  0  0  0
  3  6  1  0  0  0  0
  3 13  1  0  0  0  0
  4  1  2  0  0  0  0
  5  3  2  0  0  0  0
  6  1  1  6  0  0  0
  6  9  1  0  0  0  0
  7 24  1  0  0  0  0
  9  8  1  1  0  0  0
  9 14  1  0  0  0  0
 10  4  1  0  0  0  0
 10 16  2  0  0  0  0
 11  2  2  0  0  0  0
 11 12  1  0  0  0  0
 12 14  1  0  0  0  0
 13  8  2  0  0  0  0
 15 16  1  1  0  0  0
 15 11  1  0  0  0  0
 18 17  2  0  0  0  0
 18  7  1  0  0  0  0
 19 17  1  0  0  0  0
 20 18  1  0  0  0  0
 21 20  1  0  0  0  0
 22 23  1  0  0  0  0
 23 21  1  0  0  0  0
 24 28  1  0  0  0  0
 26 25  1  0  0  0  0
 26 27  1  0  0  0  0
 28 29  2  0  0  0  0
 28 31  1  0  0  0  0
 29 30  1  0  0  0  0
 30 25  2  0  0  0  0
 31 26  2  0  0  0  0
M  END
>  <MODEL>
5

>  <REMARK>
 VINA RESULT:      -7.4      2.374      3.191
  Name = 
  6 active torsions:
  status: ('A' for Active; 'I' for Inactive)
    1  A    between atoms: C_5  and  O_22
    2  A    between atoms: C_5  and  C_28
    3  A    between atoms: C_13  and  C_14
    4  A    between atoms: C_13  and  C_25
    5  A    between atoms: C_14  and  C_15
    6  A    between atoms: O_22  and  C_25
                            x       y       z     vdW  Elec       q    Type
                         _______ _______ _______ _____ _____    ______ ____

>  <TORSDO>
F 6

$$$$
=
 OpenBabel11052409463D

 31 34  0  0  1  0  0  0  0  0999 V2000
  160.8310  207.7950  154.1520 C   0  0  0  0  0  0  0  0  0  0  0  0
  161.5370  209.0570  150.7250 C   0  0  0  0  0  0  0  0  0  0  0  0
  160.4260  208.6470  156.4560 C   0  0  0  0  0  0  0  0  0  0  0  0
  161.0080  206.5330  154.5850 N   0  0  0  0  0  2  0  0  0  0  0  0
  159.8750  207.7090  157.0910 O   0  0  0  0  0  0  0  0  0  0  0  0
  160.2450  208.8990  154.9980 C   0  0  1  0  0  3  0  0  0  0  0  0
  161.9570  209.0200  149.4880 C   0  0  0  0  0  0  0  0  0  0  0  0
  161.6070  210.5080  156.0360 C   0  0  0  0  0  3  0  0  0  0  0  0
  161.0630  210.1540  154.8770 C   0  0  0  0  0  0  0  0  0  0  0  0
  161.4930  205.8340  153.5400 C   0  0  0  0  0  3  0  0  0  0  0  0
  161.1120  209.0980  151.9590 C   0  0  0  0  0  0  0  0  0  0  0  0
  160.4830  210.3650  152.4480 C   0  0  0  0  0  2  0  0  0  0  0  0
  161.2590  209.6080  157.0800 N   0  0  0  0  0  2  0  0  0  0  0  0
  161.2550  210.9510  153.6230 C   0  0  0  0  0  2  0  0  0  0  0  0
  161.1800  207.8920  152.8160 C   0  0  0  0  0  0  0  0  0  0  0  0
  161.6180  206.6410  152.4230 C   0  0  0  0  0  3  0  0  0  0  0  0
  162.3980  207.6320  147.5870 N   0  0  0  0  0  0  0  0  0  0  0  0
  161.6590  207.8490  148.6400 C   0  0  0  0  0  0  0  0  0  0  0  0
  162.2130  206.5780  146.7230 O   0  0  0  0  0  1  0  0  0  0  0  0
  160.5880  207.0150  149.0080 O   0  0  0  0  0  0  0  0  0  0  0  0
  160.4560  205.6450  148.6590 C   0  0  0  0  0  2  0  0  0  0  0  0
  160.8310  203.3430  149.4770 C   0  0  0  0  0  1  0  0  0  0  0  0
  161.2060  204.7970  149.6640 C   0  0  0  0  0  2  0  0  0  0  0  0
  162.6730  210.2120  148.9330 C   0  0  0  0  0  2  0  0  0  0  0  0
  159.8870  213.3780  148.1390 C   0  0  0  0  0  3  0  0  0  0  0  0
  160.1800  212.4400  147.1450 C   0  0  0  0  0  0  0  0  0  0  0  0
  159.5630  212.5270  145.9050 O   0  0  0  0  0  1  0  0  0  0  0  0
  161.7170  211.3240  148.6490 C   0  0  0  0  0  0  0  0  0  0  0  0
  161.4200  212.2620  149.6450 C   0  0  0  0  0  3  0  0  0  0  0  0
  160.5070  213.2900  149.3890 C   0  0  0  0  0  3  0  0  0  0  0  0
  161.0920  211.4110  147.4010 C   0  0  0  0  0  3  0  0  0  0  0  0
  1  4  1  0  0  0  0
  2 11  2  0  0  0  0
  3 13  1  0  0  0  0
  3  5  2  0  0  0  0
  6  1  1  6  0  0  0
  6  3  1  0  0  0  0
  7  2  2  0  0  0  0
  8 13  1  0  0  0  0
  9  6  1  0  0  0  0
  9  8  2  0  0  0  0
 10  4  1  0  0  0  0
 11 12  1  0  0  0  0
 11 15  1  0  0  0  0
 12 14  1  0  0  0  0
 14  9  1  0  0  0  0
 15  1  2  0  0  0  0
 16 15  1  0  0  0  0
 16 10  2  0  0  0  0
 17 18  2  0  0  0  0
 18 20  1  0  0  0  0
 18  7  1  0  0  0  0
 19 17  1  0  0  0  0
 21 20  1  0  0  0  0
 21 23  1  0  0  0  0
 22 23  1  0  0  0  0
 24  7  1  0  0  0  0
 25 30  1  0  0  0  0
 26 31  1  0  0  0  0
 26 25  2  0  0  0  0
 27 26  1  0  0  0  0
 28 24  1  0  0  0  0
 28 29  1  0  0  0  0
 30 29  2  0  0  0  0
 31 28  2  0  0  0  0
M  END
>  <MODEL>
6

>  <REMARK>
 VINA RESULT:      -7.2      3.244      7.952
  Name = 
  6 active torsions:
  status: ('A' for Active; 'I' for Inactive)
    1  A    between atoms: C_5  and  O_22
    2  A    between atoms: C_5  and  C_28
    3  A    between atoms: C_13  and  C_14
    4  A    between atoms: C_13  and  C_25
    5  A    between atoms: C_14  and  C_15
    6  A    between atoms: O_22  and  C_25
                            x       y       z     vdW  Elec       q    Type
                         _______ _______ _______ _____ _____    ______ ____

>  <TORSDO>
F 6

$$$$
=
 OpenBabel11052409463D

 31 34  0  0  1  0  0  0  0  0999 V2000
  161.5360  205.8370  150.7340 C   0  0  0  0  0  0  0  0  0  0  0  0
  161.5090  209.2140  152.2940 C   0  0  0  0  0  0  0  0  0  0  0  0
  161.5670  204.7720  148.4830 C   0  0  0  0  0  0  0  0  0  0  0  0
  161.2250  204.6780  151.3430 N   0  0  0  0  0  0  0  0  0  0  0  0
  161.9520  203.5850  148.6560 O   0  0  0  0  0  0  0  0  0  0  0  0
  162.0150  205.9320  149.3050 C   0  0  1  0  0  3  0  0  0  0  0  0
  161.3130  210.1120  153.2220 C   0  0  0  0  0  0  0  0  0  0  0  0
  160.5700  206.5590  147.5620 C   0  0  0  0  0  3  0  0  0  0  0  0
  161.2930  207.0270  148.5730 C   0  0  2  0  0  3  0  0  0  0  0  0
  160.9000  204.9900  152.6140 C   0  0  0  0  0  3  0  0  0  0  0  0
  161.7100  208.3180  151.3650 C   0  0  0  0  0  0  0  0  0  0  0  0
  162.3030  208.7690  150.0660 C   0  0  0  0  0  2  0  0  0  0  0  0
  160.6830  205.1470  147.4410 N   0  0  0  0  0  0  0  0  0  0  0  0
  161.3640  208.4880  148.9000 C   0  0  0  0  0  2  0  0  0  0  0  0
  161.4340  206.8870  151.6290 C   0  0  1  0  0  3  0  0  0  0  0  0
  161.0140  206.3510  152.8320 C   0  0  0  0  0  3  0  0  0  0  0  0
  162.5890  210.5960  155.1890 N   0  0  0  0  0  0  0  0  0  0  0  0
  161.7000  209.8310  154.6190 C   0  0  0  0  0  0  0  0  0  0  0  0
  163.0300  210.4280  156.4810 O   0  0  0  0  0  1  0  0  0  0  0  0
  161.0900  208.7470  155.2740 O   0  0  0  0  0  0  0  0  0  0  0  0
  159.7450  208.7150  155.7300 C   0  0  0  0  0  2  0  0  0  0  0  0
  160.4590  206.9100  157.2610 C   0  0  0  0  0  1  0  0  0  0  0  0
  159.4210  207.3270  156.2400 C   0  0  0  0  0  2  0  0  0  0  0  0
  160.7650  211.4490  152.8270 C   0  0  0  0  0  2  0  0  0  0  0  0
  157.3650  212.5300  155.2120 C   0  0  0  0  0  3  0  0  0  0  0  0
  158.5960  213.1580  155.4240 C   0  0  0  0  0  0  0  0  0  0  0  0
  158.7140  214.1390  156.3990 O   0  0  0  0  0  1  0  0  0  0  0  0
  159.5880  211.8130  153.6700 C   0  0  0  0  0  0  0  0  0  0  0  0
  158.3540  211.1870  153.4560 C   0  0  0  0  0  3  0  0  0  0  0  0
  157.2440  211.5430  154.2270 C   0  0  0  0  0  3  0  0  0  0  0  0
  159.7060  212.8030  154.6520 C   0  0  0  0  0  3  0  0  0  0  0  0
  1  4  2  0  0  0  0
  1 15  1  0  0  0  0
  2  7  2  0  0  0  0
  3  5  2  0  0  0  0
  4 10  1  0  0  0  0
  6  3  1  6  0  0  0
  6  1  1  0  0  0  0
  7 18  1  0  0  0  0
  9  8  1  6  0  0  0
  9 14  1  0  0  0  0
  9  6  1  0  0  0  0
 10 16  2  0  0  0  0
 11 15  1  0  0  0  0
 11  2  2  0  0  0  0
 12 11  1  0  0  0  0
 13  8  2  0  0  0  0
 13  3  1  0  0  0  0
 14 12  1  0  0  0  0
 15 16  1  6  0  0  0
 17 19  1  0  0  0  0
 18 17  2  0  0  0  0
 18 20  1  0  0  0  0
 20 21  1  0  0  0  0
 21 23  1  0  0  0  0
 23 22  1  0  0  0  0
 24  7  1  0  0  0  0
 24 28  1  0  0  0  0
 25 26  1  0  0  0  0
 26 27  1  0  0  0  0
 28 31  1  0  0  0  0
 29 28  2  0  0  0  0
 29 30  1  0  0  0  0
 30 25  2  0  0  0  0
 31 26  2  0  0  0  0
M  END
>  <MODEL>
7

>  <REMARK>
 VINA RESULT:      -7.0      2.377      4.642
  Name = 
  6 active torsions:
  status: ('A' for Active; 'I' for Inactive)
    1  A    between atoms: C_5  and  O_22
    2  A    between atoms: C_5  and  C_28
    3  A    between atoms: C_13  and  C_14
    4  A    between atoms: C_13  and  C_25
    5  A    between atoms: C_14  and  C_15
    6  A    between atoms: O_22  and  C_25
                            x       y       z     vdW  Elec       q    Type
                         _______ _______ _______ _____ _____    ______ ____

>  <TORSDO>
F 6

$$$$
=
 OpenBabel11052409463D

 31 34  0  0  1  0  0  0  0  0999 V2000
  161.6680  209.0870  154.0050 C   0  0  0  0  0  0  0  0  0  0  0  0
  161.0820  206.6510  151.2550 C   0  0  0  0  0  0  0  0  0  0  0  0
  161.3940  209.2870  156.4720 C   0  0  0  0  0  0  0  0  0  0  0  0
  161.8870  210.4080  153.8630 N   0  0  0  0  0  2  0  0  0  0  0  0
  162.1400  210.2340  156.8370 O   0  0  0  0  0  0  0  0  0  0  0  0
  161.6900  208.3710  155.3330 C   0  0  1  0  0  3  0  0  0  0  0  0
  160.8930  206.2370  150.0300 C   0  0  0  0  0  0  0  0  0  0  0  0
  159.7070  207.8080  156.4600 C   0  0  0  0  0  3  0  0  0  0  0  0
  160.5080  207.4520  155.4630 C   0  0  0  0  0  0  0  0  0  0  0  0
  161.8440  210.6620  152.5390 C   0  0  0  0  0  3  0  0  0  0  0  0
  161.2750  207.0610  152.4810 C   0  0  0  0  0  0  0  0  0  0  0  0
  161.3330  206.0340  153.5670 C   0  0  0  0  0  2  0  0  0  0  0  0
  160.1900  208.9570  157.1430 N   0  0  0  0  0  2  0  0  0  0  0  0
  160.2360  206.2570  154.6010 C   0  0  0  0  0  2  0  0  0  0  0  0
  161.5120  208.4950  152.7640 C   0  0  0  0  0  0  0  0  0  0  0  0
  161.6100  209.5020  151.8220 C   0  0  0  0  0  3  0  0  0  0  0  0
  161.9570  206.0260  147.8960 N   0  0  0  0  0  0  0  0  0  0  0  0
  161.7110  206.7830  148.9290 C   0  0  0  0  0  0  0  0  0  0  0  0
  162.7080  206.4250  146.8150 O   0  0  0  0  0  1  0  0  0  0  0  0
  162.1890  208.1010  149.0450 O   0  0  0  0  0  0  0  0  0  0  0  0
  161.5620  209.2520  148.4980 C   0  0  0  0  0  2  0  0  0  0  0  0
  161.7110  211.7080  148.2660 C   0  0  0  0  0  1  0  0  0  0  0  0
  162.3830  210.4780  148.8380 C   0  0  0  0  0  2  0  0  0  0  0  0
  159.8930  205.1500  149.7840 C   0  0  0  0  0  2  0  0  0  0  0  0
  161.6320  201.3140  150.6030 C   0  0  0  0  0  3  0  0  0  0  0  0
  161.2800  201.6560  149.2940 C   0  0  0  0  0  0  0  0  0  0  0  0
  161.5010  200.7580  148.2590 O   0  0  0  0  0  1  0  0  0  0  0  0
  160.4810  203.8080  150.0700 C   0  0  0  0  0  0  0  0  0  0  0  0
  160.8370  203.4660  151.3800 C   0  0  0  0  0  3  0  0  0  0  0  0
  161.4110  202.2180  151.6460 C   0  0  0  0  0  3  0  0  0  0  0  0
  160.7080  202.9030  149.0270 C   0  0  0  0  0  3  0  0  0  0  0  0
  2 11  2  0  0  0  0
  3  5  2  0  0  0  0
  3 13  1  0  0  0  0
  4  1  1  0  0  0  0
  6  1  1  6  0  0  0
  6  9  1  0  0  0  0
  6  3  1  0  0  0  0
  7  2  2  0  0  0  0
  8 13  1  0  0  0  0
  9  8  2  0  0  0  0
 10  4  1  0  0  0  0
 11 15  1  0  0  0  0
 11 12  1  0  0  0  0
 12 14  1  0  0  0  0
 14  9  1  0  0  0  0
 15  1  2  0  0  0  0
 16 10  2  0  0  0  0
 16 15  1  0  0  0  0
 17 18  2  0  0  0  0
 18 20  1  0  0  0  0
 18  7  1  0  0  0  0
 19 17  1  0  0  0  0
 21 23  1  0  0  0  0
 21 20  1  0  0  0  0
 22 23  1  0  0  0  0
 24  7  1  0  0  0  0
 24 28  1  0  0  0  0
 25 30  1  0  0  0  0
 26 25  2  0  0  0  0
 27 26  1  0  0  0  0
 28 29  1  0  0  0  0
 29 30  2  0  0  0  0
 31 26  1  0  0  0  0
 31 28  2  0  0  0  0
M  END
>  <MODEL>
8

>  <REMARK>
 VINA RESULT:      -7.0      2.307      7.504
  Name = 
  6 active torsions:
  status: ('A' for Active; 'I' for Inactive)
    1  A    between atoms: C_5  and  O_22
    2  A    between atoms: C_5  and  C_28
    3  A    between atoms: C_13  and  C_14
    4  A    between atoms: C_13  and  C_25
    5  A    between atoms: C_14  and  C_15
    6  A    between atoms: O_22  and  C_25
                            x       y       z     vdW  Elec       q    Type
                         _______ _______ _______ _____ _____    ______ ____

>  <TORSDO>
F 6

$$$$
=
 OpenBabel11052409463D

 31 34  0  0  1  0  0  0  0  0999 V2000
  161.0450  203.4390  146.7580 C   0  0  0  0  0  0  0  0  0  0  0  0
  161.7040  205.4040  149.8470 C   0  0  0  0  0  0  0  0  0  0  0  0
  160.5390  201.1060  146.0490 C   0  0  0  0  0  0  0  0  0  0  0  0
  161.3120  203.8270  145.4980 N   0  0  0  0  0  0  0  0  0  0  0  0
  160.0530  201.1840  144.8900 O   0  0  0  0  0  0  0  0  0  0  0  0
  160.3620  202.1390  147.1090 C   0  0  1  0  0  3  0  0  0  0  0  0
  162.1450  206.3960  150.5750 C   0  0  0  0  0  0  0  0  0  0  0  0
  161.5790  200.2720  147.8540 C   0  0  0  0  0  3  0  0  0  0  0  0
  161.0820  201.4450  148.2310 C   0  0  2  0  0  3  0  0  0  0  0  0
  161.8660  205.0540  145.5850 C   0  0  0  0  0  3  0  0  0  0  0  0
  161.2580  204.4120  149.1230 C   0  0  0  0  0  0  0  0  0  0  0  0
  160.5250  203.3060  149.8150 C   0  0  0  0  0  2  0  0  0  0  0  0
  161.2860  199.9860  146.4930 N   0  0  0  0  0  0  0  0  0  0  0  0
  161.2320  201.9690  149.6260 C   0  0  0  0  0  2  0  0  0  0  0  0
  161.4060  204.4340  147.6490 C   0  0  1  0  0  3  0  0  0  0  0  0
  161.9450  205.4660  146.9030 C   0  0  0  0  0  3  0  0  0  0  0  0
  162.3440  208.1200  148.9270 N   0  0  0  0  0  0  0  0  0  0  0  0
  161.9520  207.7880  150.1250 C   0  0  0  0  0  0  0  0  0  0  0  0
  162.2190  209.3850  148.4000 O   0  0  0  0  0  1  0  0  0  0  0  0
  161.3480  208.6970  151.0120 O   0  0  0  0  0  0  0  0  0  0  0  0
  161.4680  210.1110  150.9470 C   0  0  0  0  0  2  0  0  0  0  0  0
  159.7070  210.6860  152.5820 C   0  0  0  0  0  1  0  0  0  0  0  0
  161.1960  210.7010  152.3140 C   0  0  0  0  0  2  0  0  0  0  0  0
  162.7750  206.0930  151.9000 C   0  0  0  0  0  2  0  0  0  0  0  0
  160.0770  207.0820  155.0870 C   0  0  0  0  0  3  0  0  0  0  0  0
  161.0710  207.9890  154.7060 C   0  0  0  0  0  0  0  0  0  0  0  0
  161.1790  209.2120  155.3520 O   0  0  0  0  0  1  0  0  0  0  0  0
  161.8480  206.4310  153.0200 C   0  0  0  0  0  0  0  0  0  0  0  0
  160.8510  205.5260  153.4010 C   0  0  0  0  0  3  0  0  0  0  0  0
  159.9670  205.8500  154.4340 C   0  0  0  0  0  3  0  0  0  0  0  0
  161.9540  207.6650  153.6710 C   0  0  0  0  0  3  0  0  0  0  0  0
  1  6  1  0  0  0  0
  1 15  1  0  0  0  0
  2  7  2  0  0  0  0
  3 13  1  0  0  0  0
  4 10  1  0  0  0  0
  4  1  2  0  0  0  0
  5  3  2  0  0  0  0
  6  3  1  6  0  0  0
  6  9  1  0  0  0  0
  7 24  1  0  0  0  0
  9  8  1  1  0  0  0
  9 14  1  0  0  0  0
 10 16  2  0  0  0  0
 11 12  1  0  0  0  0
 11  2  2  0  0  0  0
 13  8  2  0  0  0  0
 14 12  1  0  0  0  0
 15 16  1  1  0  0  0
 15 11  1  0  0  0  0
 17 18  2  0  0  0  0
 18  7  1  0  0  0  0
 18 20  1  0  0  0  0
 19 17  1  0  0  0  0
 21 20  1  0  0  0  0
 21 23  1  0  0  0  0
 23 22  1  0  0  0  0
 24 28  1  0  0  0  0
 26 25  1  0  0  0  0
 26 27  1  0  0  0  0
 28 29  2  0  0  0  0
 28 31  1  0  0  0  0
 29 30  1  0  0  0  0
 30 25  2  0  0  0  0
 31 26  2  0  0  0  0
M  END
>  <MODEL>
9

>  <REMARK>
 VINA RESULT:      -6.9      1.299      1.693
  Name = 
  6 active torsions:
  status: ('A' for Active; 'I' for Inactive)
    1  A    between atoms: C_5  and  O_22
    2  A    between atoms: C_5  and  C_28
    3  A    between atoms: C_13  and  C_14
    4  A    between atoms: C_13  and  C_25
    5  A    between atoms: C_14  and  C_15
    6  A    between atoms: O_22  and  C_25
                            x       y       z     vdW  Elec       q    Type
                         _______ _______ _______ _____ _____    ______ ____

>  <TORSDO>
F 6

$$$$
