=
 OpenBabel11042421093D

 28 28  0  0  1  0  0  0  0  0999 V2000
  161.5040  206.1900  150.6990 C   0  0  1  0  0  3  0  0  0  0  0  0
  161.2470  209.0050  153.9220 C   0  0  0  0  0  3  0  0  0  0  0  0
  160.0280  207.2560  155.6330 Cl  0  0  0  0  0  0  0  0  0  0  0  0
  161.4120  207.1700  151.8380 C   0  0  2  0  0  3  0  0  0  0  0  0
  160.7490  207.7150  154.1060 C   0  0  0  0  0  0  0  0  0  0  0  0
  161.8040  209.3580  152.7320 N   0  0  0  0  0  0  0  0  0  0  0  0
  162.4220  208.8560  150.6140 O   0  0  0  0  0  0  0  0  0  0  0  0
  160.8280  206.7980  153.0580 C   0  0  0  0  0  3  0  0  0  0  0  0
  161.8990  208.4810  151.6960 C   0  0  0  0  0  0  0  0  0  0  0  0
  161.6840  204.7450  151.2020 C   0  0  1  0  0  3  0  0  0  0  0  0
  161.0630  204.5210  152.5780 C   0  0  0  0  0  1  0  0  0  0  0  0
  161.1370  203.7510  150.1850 C   0  0  0  0  0  2  0  0  0  0  0  0
  161.0750  202.3410  150.7590 C   0  0  0  0  0  2  0  0  0  0  0  0
  160.7110  201.3240  149.6890 C   0  0  1  0  0  3  0  0  0  0  0  0
  159.2820  201.3710  149.4270 N   0  0  0  0  0  1  0  0  0  0  0  0
  161.4100  201.6160  148.5160 O   0  0  0  0  0  0  0  0  0  0  0  0
  160.9860  200.7230  146.3470 C   0  0  0  0  0  1  0  0  0  0  0  0
  161.3900  200.4290  147.7800 C   0  0  0  0  0  2  0  0  0  0  0  0
  160.3470  206.3860  149.7170 C   0  0  0  0  0  2  0  0  0  0  0  0
  160.8410  206.9530  148.3960 C   0  0  0  0  0  2  0  0  0  0  0  0
  162.2120  206.5340  148.1380 N   0  0  0  0  0  2  0  0  0  0  0  0
  162.3130  206.2700  146.8110 O   0  0  0  0  0  0  0  0  0  0  0  0
  162.4340  204.8820  146.7290 C   0  0  2  0  0  3  0  0  0  0  0  0
  163.7390  204.5490  146.1810 N   0  0  0  0  0  1  0  0  0  0  0  0
  161.3380  204.3280  145.8280 C   0  0  0  0  0  2  0  0  0  0  0  0
  159.8030  206.1710  145.1420 O   0  0  0  0  0  1  0  0  0  0  0  0
  160.8860  205.3540  144.8460 C   0  0  0  0  0  0  0  0  0  0  0  0
  161.4760  205.4710  143.7380 O   0  0  0  0  0  0  0  0  0  0  0  0
  1 19  1  1  0  0  0
  1 10  1  0  0  0  0
  2  5  1  0  0  0  0
  4  1  1  6  0  0  0
  4  8  1  0  0  0  0
  5  3  1  0  0  0  0
  6  2  2  0  0  0  0
  7  9  2  0  0  0  0
  8  5  2  0  0  0  0
  9  4  1  0  0  0  0
  9  6  1  0  0  0  0
 10 11  1  1  0  0  0
 12 13  1  0  0  0  0
 12 10  1  0  0  0  0
 14 15  1  6  0  0  0
 14 13  1  0  0  0  0
 16 14  1  0  0  0  0
 17 18  1  0  0  0  0
 18 16  1  0  0  0  0
 20 19  1  0  0  0  0
 21 20  1  0  0  0  0
 22 21  1  0  0  0  0
 23 24  1  6  0  0  0
 23 22  1  0  0  0  0
 25 23  1  0  0  0  0
 27 26  1  0  0  0  0
 27 25  1  0  0  0  0
 28 27  2  0  0  0  0
M  END
>  <MODEL>
1

>  <REMARK>
 VINA RESULT:      -7.1      0.000      0.000
  Name = 
  14 active torsions:
  status: ('A' for Active; 'I' for Inactive)
    1  A    between atoms: C_4  and  C_20
    2  A    between atoms: C_4  and  C_21
    3  A    between atoms: C_6  and  C_14
    4  A    between atoms: C_6  and  C_24
    5  A    between atoms: C_7  and  C_21
    6  A    between atoms: C_9  and  C_16
    7  A    between atoms: C_9  and  C_20
    8  A    between atoms: N_10  and  O_13
    9  A    between atoms: N_10  and  C_27
   10  A    between atoms: C_11  and  O_19
   11  A    between atoms: O_13  and  C_24
   12  A    between atoms: C_16  and  O_19
   13  A    between atoms: C_21  and  C_23
   14  A    between atoms: C_23  and  C_27
                            x       y       z     vdW  Elec       q    Type
                         _______ _______ _______ _____ _____    ______ ____

>  <TORSDO>
F 14

$$$$
=
 OpenBabel11042421093D

 28 28  0  0  1  0  0  0  0  0999 V2000
  161.6970  206.0900  149.1500 C   0  0  1  0  0  3  0  0  0  0  0  0
  160.9480  202.6020  151.5260 C   0  0  0  0  0  3  0  0  0  0  0  0
  159.8050  201.1950  149.4790 Cl  0  0  0  0  0  0  0  0  0  0  0  0
  161.4330  204.8590  149.9740 C   0  0  2  0  0  3  0  0  0  0  0  0
  160.5730  202.6020  150.1820 C   0  0  0  0  0  0  0  0  0  0  0  0
  161.5410  203.6990  152.0680 N   0  0  0  0  0  0  0  0  0  0  0  0
  162.3430  205.8080  151.8810 O   0  0  0  0  0  0  0  0  0  0  0  0
  160.8130  203.7370  149.4070 C   0  0  0  0  0  3  0  0  0  0  0  0
  161.7920  204.8160  151.3320 C   0  0  0  0  0  0  0  0  0  0  0  0
  161.3610  205.8650  147.6630 C   0  0  1  0  0  3  0  0  0  0  0  0
  160.4590  206.9560  147.0940 C   0  0  0  0  0  1  0  0  0  0  0  0
  162.6360  205.7240  146.8400 C   0  0  0  0  0  2  0  0  0  0  0  0
  162.5290  204.5840  145.8350 C   0  0  0  0  0  2  0  0  0  0  0  0
  161.2040  204.6260  145.0910 C   0  0  1  0  0  3  0  0  0  0  0  0
  161.3400  205.4240  143.8830 N   0  0  0  0  0  1  0  0  0  0  0  0
  160.8220  203.3270  144.7510 O   0  0  0  0  0  0  0  0  0  0  0  0
  160.3970  201.2070  145.7540 C   0  0  0  0  0  1  0  0  0  0  0  0
  161.0340  202.5760  145.9090 C   0  0  0  0  0  2  0  0  0  0  0  0
  161.0330  207.3190  149.7760 C   0  0  0  0  0  2  0  0  0  0  0  0
  161.9900  208.5010  149.8080 C   0  0  0  0  0  2  0  0  0  0  0  0
  161.9600  209.1510  151.1120 N   0  0  0  0  0  2  0  0  0  0  0  0
  160.8910  208.6580  151.7860 O   0  0  0  0  0  0  0  0  0  0  0  0
  161.1440  208.9550  153.1260 C   0  0  2  0  0  3  0  0  0  0  0  0
  160.6970  207.8460  153.9530 N   0  0  0  0  0  1  0  0  0  0  0  0
  160.3970  210.2240  153.5150 C   0  0  0  0  0  2  0  0  0  0  0  0
  160.4600  211.9260  155.3370 O   0  0  0  0  0  1  0  0  0  0  0  0
  161.1200  210.9590  154.5920 C   0  0  0  0  0  0  0  0  0  0  0  0
  162.3360  210.7160  154.8150 O   0  0  0  0  0  0  0  0  0  0  0  0
  1 19  1  1  0  0  0
  2  6  2  0  0  0  0
  3  5  1  0  0  0  0
  4  1  1  1  0  0  0
  4  9  1  0  0  0  0
  5  2  1  0  0  0  0
  8  4  1  0  0  0  0
  8  5  2  0  0  0  0
  9  7  2  0  0  0  0
  9  6  1  0  0  0  0
 10 11  1  6  0  0  0
 10  1  1  0  0  0  0
 12 10  1  0  0  0  0
 13 12  1  0  0  0  0
 14 15  1  6  0  0  0
 14 13  1  0  0  0  0
 16 14  1  0  0  0  0
 16 18  1  0  0  0  0
 17 18  1  0  0  0  0
 19 20  1  0  0  0  0
 20 21  1  0  0  0  0
 21 22  1  0  0  0  0
 22 23  1  0  0  0  0
 23 25  1  0  0  0  0
 23 24  1  1  0  0  0
 25 27  1  0  0  0  0
 27 28  2  0  0  0  0
 27 26  1  0  0  0  0
M  END
>  <MODEL>
2

>  <REMARK>
 VINA RESULT:      -7.1      2.784      6.458
  Name = 
  14 active torsions:
  status: ('A' for Active; 'I' for Inactive)
    1  A    between atoms: C_4  and  C_20
    2  A    between atoms: C_4  and  C_21
    3  A    between atoms: C_6  and  C_14
    4  A    between atoms: C_6  and  C_24
    5  A    between atoms: C_7  and  C_21
    6  A    between atoms: C_9  and  C_16
    7  A    between atoms: C_9  and  C_20
    8  A    between atoms: N_10  and  O_13
    9  A    between atoms: N_10  and  C_27
   10  A    between atoms: C_11  and  O_19
   11  A    between atoms: O_13  and  C_24
   12  A    between atoms: C_16  and  O_19
   13  A    between atoms: C_21  and  C_23
   14  A    between atoms: C_23  and  C_27
                            x       y       z     vdW  Elec       q    Type
                         _______ _______ _______ _____ _____    ______ ____

>  <TORSDO>
F 14

$$$$
=
 OpenBabel11042421093D

 28 28  0  0  1  0  0  0  0  0999 V2000
  161.9740  207.4970  151.1420 C   0  0  1  0  0  3  0  0  0  0  0  0
  161.0520  209.8040  154.6350 C   0  0  0  0  0  3  0  0  0  0  0  0
  159.7420  207.7630  155.8960 Cl  0  0  0  0  0  0  0  0  0  0  0  0
  161.6480  208.2970  152.3750 C   0  0  2  0  0  3  0  0  0  0  0  0
  160.6340  208.4760  154.5690 C   0  0  0  0  0  0  0  0  0  0  0  0
  161.7410  210.3550  153.5990 N   0  0  0  0  0  0  0  0  0  0  0  0
  162.6880  210.1960  151.5500 O   0  0  0  0  0  0  0  0  0  0  0  0
  160.9290  207.7230  153.4330 C   0  0  0  0  0  3  0  0  0  0  0  0
  162.0480  209.6400  152.4820 C   0  0  0  0  0  0  0  0  0  0  0  0
  162.1280  205.9970  151.4600 C   0  0  1  0  0  3  0  0  0  0  0  0
  162.5360  205.7430  152.9090 C   0  0  0  0  0  1  0  0  0  0  0  0
  160.8520  205.2410  151.1090 C   0  0  0  0  0  2  0  0  0  0  0  0
  161.1330  204.0790  150.1650 C   0  0  0  0  0  2  0  0  0  0  0  0
  161.1570  202.7540  150.9120 C   0  0  1  0  0  3  0  0  0  0  0  0
  160.5910  202.9240  152.2400 N   0  0  0  0  0  1  0  0  0  0  0  0
  160.4100  201.8100  150.2040 O   0  0  0  0  0  0  0  0  0  0  0  0
  161.3090  200.7700  148.2560 C   0  0  0  0  0  1  0  0  0  0  0  0
  160.7270  202.0340  148.8620 C   0  0  0  0  0  2  0  0  0  0  0  0
  160.9940  207.8140  150.0110 C   0  0  0  0  0  2  0  0  0  0  0  0
  161.7330  208.1490  148.7250 C   0  0  0  0  0  2  0  0  0  0  0  0
  161.4390  207.1640  147.6920 N   0  0  0  0  0  2  0  0  0  0  0  0
  162.4910  206.3090  147.6370 O   0  0  0  0  0  0  0  0  0  0  0  0
  162.0850  205.2950  146.7680 C   0  0  2  0  0  3  0  0  0  0  0  0
  163.2350  204.8230  146.0140 N   0  0  0  0  0  1  0  0  0  0  0  0
  161.0270  205.8340  145.8160 C   0  0  0  0  0  2  0  0  0  0  0  0
  161.4430  205.5670  143.3710 O   0  0  0  0  0  0  0  0  0  0  0  0
  160.9760  205.0280  144.5620 C   0  0  0  0  0  0  0  0  0  0  0  0
  160.4950  203.8640  144.5800 O   0  0  0  0  0  1  0  0  0  0  0  0
  1 19  1  6  0  0  0
  1 10  1  0  0  0  0
  4  1  1  6  0  0  0
  4  9  1  0  0  0  0
  4  8  1  0  0  0  0
  5  2  1  0  0  0  0
  5  3  1  0  0  0  0
  6  2  2  0  0  0  0
  7  9  2  0  0  0  0
  8  5  2  0  0  0  0
  9  6  1  0  0  0  0
 10 11  1  1  0  0  0
 12 10  1  0  0  0  0
 13 14  1  0  0  0  0
 13 12  1  0  0  0  0
 14 15  1  1  0  0  0
 16 14  1  0  0  0  0
 17 18  1  0  0  0  0
 18 16  1  0  0  0  0
 20 19  1  0  0  0  0
 21 20  1  0  0  0  0
 22 21  1  0  0  0  0
 23 24  1  6  0  0  0
 23 22  1  0  0  0  0
 25 23  1  0  0  0  0
 26 27  2  0  0  0  0
 27 28  1  0  0  0  0
 27 25  1  0  0  0  0
M  END
>  <MODEL>
3

>  <REMARK>
 VINA RESULT:      -7.0      1.353      1.623
  Name = 
  14 active torsions:
  status: ('A' for Active; 'I' for Inactive)
    1  A    between atoms: C_4  and  C_20
    2  A    between atoms: C_4  and  C_21
    3  A    between atoms: C_6  and  C_14
    4  A    between atoms: C_6  and  C_24
    5  A    between atoms: C_7  and  C_21
    6  A    between atoms: C_9  and  C_16
    7  A    between atoms: C_9  and  C_20
    8  A    between atoms: N_10  and  O_13
    9  A    between atoms: N_10  and  C_27
   10  A    between atoms: C_11  and  O_19
   11  A    between atoms: O_13  and  C_24
   12  A    between atoms: C_16  and  O_19
   13  A    between atoms: C_21  and  C_23
   14  A    between atoms: C_23  and  C_27
                            x       y       z     vdW  Elec       q    Type
                         _______ _______ _______ _____ _____    ______ ____

>  <TORSDO>
F 14

$$$$
=
 OpenBabel11042421093D

 28 28  0  0  1  0  0  0  0  0999 V2000
  161.0510  206.5840  151.2250 C   0  0  1  0  0  3  0  0  0  0  0  0
  160.6220  209.4090  154.4200 C   0  0  0  0  0  3  0  0  0  0  0  0
  160.5040  211.5830  152.7650 Cl  0  0  0  0  0  0  0  0  0  0  0  0
  160.8970  207.5840  152.3390 C   0  0  2  0  0  3  0  0  0  0  0  0
  160.6460  209.8710  153.1040 C   0  0  0  0  0  0  0  0  0  0  0  0
  160.7370  208.0790  154.6780 N   0  0  0  0  0  0  0  0  0  0  0  0
  160.9740  205.9420  153.9710 O   0  0  0  0  0  0  0  0  0  0  0  0
  160.7890  208.9540  152.0620 C   0  0  0  0  0  3  0  0  0  0  0  0
  160.8710  207.1640  153.6800 C   0  0  0  0  0  0  0  0  0  0  0  0
  161.1370  207.2710  149.8490 C   0  0  1  0  0  3  0  0  0  0  0  0
  162.5760  207.5420  149.4170 C   0  0  0  0  0  1  0  0  0  0  0  0
  160.3930  206.4590  148.7960 C   0  0  0  0  0  2  0  0  0  0  0  0
  160.8490  206.8180  147.3880 C   0  0  0  0  0  2  0  0  0  0  0  0
  160.3610  205.7960  146.3720 C   0  0  1  0  0  3  0  0  0  0  0  0
  160.4490  206.3510  145.0310 N   0  0  0  0  0  1  0  0  0  0  0  0
  161.1510  204.6480  146.4540 O   0  0  0  0  0  0  0  0  0  0  0  0
  163.5010  204.6600  146.0550 C   0  0  0  0  0  1  0  0  0  0  0  0
  162.1140  204.8020  145.4550 C   0  0  0  0  0  2  0  0  0  0  0  0
  162.1910  205.6070  151.5240 C   0  0  0  0  0  2  0  0  0  0  0  0
  161.6810  204.1760  151.5880 C   0  0  0  0  0  2  0  0  0  0  0  0
  161.4670  203.6460  150.2480 N   0  0  0  0  0  2  0  0  0  0  0  0
  160.1760  203.2370  150.1750 O   0  0  0  0  0  0  0  0  0  0  0  0
  160.2080  202.0810  149.3920 C   0  0  2  0  0  3  0  0  0  0  0  0
  160.5540  200.9460  150.2310 N   0  0  0  0  0  1  0  0  0  0  0  0
  161.2440  202.2440  148.2880 C   0  0  0  0  0  2  0  0  0  0  0  0
  161.5780  199.9650  147.3300 O   0  0  0  0  0  1  0  0  0  0  0  0
  161.0360  201.2370  147.2080 C   0  0  0  0  0  0  0  0  0  0  0  0
  160.3810  201.5450  146.1770 O   0  0  0  0  0  0  0  0  0  0  0  0
  1 19  1  1  0  0  0
  2  6  2  0  0  0  0
  3  5  1  0  0  0  0
  4  1  1  1  0  0  0
  4  9  1  0  0  0  0
  5  2  1  0  0  0  0
  8  4  1  0  0  0  0
  8  5  2  0  0  0  0
  9  7  2  0  0  0  0
  9  6  1  0  0  0  0
 10 11  1  6  0  0  0
 10  1  1  0  0  0  0
 12 10  1  0  0  0  0
 13 12  1  0  0  0  0
 14 15  1  6  0  0  0
 14 16  1  0  0  0  0
 14 13  1  0  0  0  0
 18 17  1  0  0  0  0
 18 16  1  0  0  0  0
 19 20  1  0  0  0  0
 21 20  1  0  0  0  0
 22 21  1  0  0  0  0
 23 22  1  0  0  0  0
 23 24  1  1  0  0  0
 25 23  1  0  0  0  0
 27 26  1  0  0  0  0
 27 25  1  0  0  0  0
 28 27  2  0  0  0  0
M  END
>  <MODEL>
4

>  <REMARK>
 VINA RESULT:      -7.0      2.152      4.267
  Name = 
  14 active torsions:
  status: ('A' for Active; 'I' for Inactive)
    1  A    between atoms: C_4  and  C_20
    2  A    between atoms: C_4  and  C_21
    3  A    between atoms: C_6  and  C_14
    4  A    between atoms: C_6  and  C_24
    5  A    between atoms: C_7  and  C_21
    6  A    between atoms: C_9  and  C_16
    7  A    between atoms: C_9  and  C_20
    8  A    between atoms: N_10  and  O_13
    9  A    between atoms: N_10  and  C_27
   10  A    between atoms: C_11  and  O_19
   11  A    between atoms: O_13  and  C_24
   12  A    between atoms: C_16  and  O_19
   13  A    between atoms: C_21  and  C_23
   14  A    between atoms: C_23  and  C_27
                            x       y       z     vdW  Elec       q    Type
                         _______ _______ _______ _____ _____    ______ ____

>  <TORSDO>
F 14

$$$$
=
 OpenBabel11042421093D

 28 28  0  0  1  0  0  0  0  0999 V2000
  160.8820  206.4760  151.9360 C   0  0  1  0  0  3  0  0  0  0  0  0
  160.5530  209.0790  155.3260 C   0  0  0  0  0  3  0  0  0  0  0  0
  160.5290  207.0440  157.1520 Cl  0  0  0  0  0  0  0  0  0  0  0  0
  160.7690  207.3810  153.1330 C   0  0  2  0  0  3  0  0  0  0  0  0
  160.6020  207.7000  155.5300 C   0  0  0  0  0  0  0  0  0  0  0  0
  160.6060  209.5830  154.0630 N   0  0  0  0  0  0  0  0  0  0  0  0
  160.7590  209.2920  151.8240 O   0  0  0  0  0  0  0  0  0  0  0  0
  160.7060  206.8500  154.4290 C   0  0  0  0  0  3  0  0  0  0  0  0
  160.7140  208.7760  152.9730 C   0  0  0  0  0  0  0  0  0  0  0  0
  161.4490  207.2180  150.7100 C   0  0  1  0  0  3  0  0  0  0  0  0
  162.9610  207.0560  150.5760 C   0  0  0  0  0  1  0  0  0  0  0  0
  160.7360  206.7770  149.4380 C   0  0  0  0  0  2  0  0  0  0  0  0
  161.4870  207.2260  148.1910 C   0  0  0  0  0  2  0  0  0  0  0  0
  161.5090  206.1330  147.1350 C   0  0  1  0  0  3  0  0  0  0  0  0
  161.9280  204.8750  147.7320 N   0  0  0  0  0  1  0  0  0  0  0  0
  160.2310  205.9880  146.5910 O   0  0  0  0  0  0  0  0  0  0  0  0
  161.0040  205.0400  144.5460 C   0  0  0  0  0  1  0  0  0  0  0  0
  160.3890  206.2480  145.2280 C   0  0  0  0  0  2  0  0  0  0  0  0
  161.6160  205.1820  152.2970 C   0  0  0  0  0  2  0  0  0  0  0  0
  160.7690  203.9630  151.9660 C   0  0  0  0  0  2  0  0  0  0  0  0
  161.1570  203.4030  150.6790 N   0  0  0  0  0  2  0  0  0  0  0  0
  160.7530  202.1080  150.6620 O   0  0  0  0  0  0  0  0  0  0  0  0
  160.3860  201.8630  149.3380 C   0  0  2  0  0  3  0  0  0  0  0  0
  159.0500  201.2900  149.3110 N   0  0  0  0  0  1  0  0  0  0  0  0
  161.3770  200.8940  148.7070 C   0  0  0  0  0  2  0  0  0  0  0  0
  161.4180  199.6520  146.5440 O   0  0  0  0  0  0  0  0  0  0  0  0
  161.2030  200.8410  147.2270 C   0  0  0  0  0  0  0  0  0  0  0  0
  160.8770  201.8800  146.5930 O   0  0  0  0  0  1  0  0  0  0  0  0
  1 19  1  1  0  0  0
  2  5  1  0  0  0  0
  4  1  1  6  0  0  0
  4  8  1  0  0  0  0
  5  3  1  0  0  0  0
  6  2  2  0  0  0  0
  7  9  2  0  0  0  0
  8  5  2  0  0  0  0
  9  4  1  0  0  0  0
  9  6  1  0  0  0  0
 10 11  1  6  0  0  0
 10  1  1  0  0  0  0
 12 10  1  0  0  0  0
 13 12  1  0  0  0  0
 14 15  1  1  0  0  0
 14 13  1  0  0  0  0
 16 14  1  0  0  0  0
 17 18  1  0  0  0  0
 18 16  1  0  0  0  0
 20 19  1  0  0  0  0
 21 20  1  0  0  0  0
 22 21  1  0  0  0  0
 23 24  1  1  0  0  0
 23 22  1  0  0  0  0
 25 23  1  0  0  0  0
 26 27  2  0  0  0  0
 27 25  1  0  0  0  0
 28 27  1  0  0  0  0
M  END
>  <MODEL>
5

>  <REMARK>
 VINA RESULT:      -6.9      1.501      4.163
  Name = 
  14 active torsions:
  status: ('A' for Active; 'I' for Inactive)
    1  A    between atoms: C_4  and  C_20
    2  A    between atoms: C_4  and  C_21
    3  A    between atoms: C_6  and  C_14
    4  A    between atoms: C_6  and  C_24
    5  A    between atoms: C_7  and  C_21
    6  A    between atoms: C_9  and  C_16
    7  A    between atoms: C_9  and  C_20
    8  A    between atoms: N_10  and  O_13
    9  A    between atoms: N_10  and  C_27
   10  A    between atoms: C_11  and  O_19
   11  A    between atoms: O_13  and  C_24
   12  A    between atoms: C_16  and  O_19
   13  A    between atoms: C_21  and  C_23
   14  A    between atoms: C_23  and  C_27
                            x       y       z     vdW  Elec       q    Type
                         _______ _______ _______ _____ _____    ______ ____

>  <TORSDO>
F 14

$$$$
=
 OpenBabel11042421093D

 28 28  0  0  1  0  0  0  0  0999 V2000
  161.0670  204.8370  150.7990 C   0  0  1  0  0  3  0  0  0  0  0  0
  161.7920  207.3760  147.4220 C   0  0  0  0  0  3  0  0  0  0  0  0
  162.5070  205.3230  145.7650 Cl  0  0  0  0  0  0  0  0  0  0  0  0
  161.3210  205.7200  149.6070 C   0  0  2  0  0  3  0  0  0  0  0  0
  161.9800  206.0000  147.2910 C   0  0  0  0  0  0  0  0  0  0  0  0
  161.3860  207.8980  148.6110 N   0  0  0  0  0  0  0  0  0  0  0  0
  160.7730  207.6430  150.7750 O   0  0  0  0  0  0  0  0  0  0  0  0
  161.7480  205.1720  148.3880 C   0  0  0  0  0  3  0  0  0  0  0  0
  161.1470  207.1110  149.6960 C   0  0  0  0  0  0  0  0  0  0  0  0
  161.1290  203.3430  150.4280 C   0  0  1  0  0  3  0  0  0  0  0  0
  161.5510  202.4640  151.6020 C   0  0  0  0  0  1  0  0  0  0  0  0
  159.7980  202.8790  149.8470 C   0  0  0  0  0  2  0  0  0  0  0  0
  159.9480  201.5700  149.0840 C   0  0  0  0  0  2  0  0  0  0  0  0
  161.1960  201.5770  148.2150 C   0  0  1  0  0  3  0  0  0  0  0  0
  161.6370  200.2130  147.9710 N   0  0  0  0  0  1  0  0  0  0  0  0
  160.9100  202.1990  146.9980 O   0  0  0  0  0  0  0  0  0  0  0  0
  159.8940  201.6730  144.9070 C   0  0  0  0  0  1  0  0  0  0  0  0
  160.6610  201.1520  146.1090 C   0  0  0  0  0  2  0  0  0  0  0  0
  161.9590  205.2410  151.9760 C   0  0  0  0  0  2  0  0  0  0  0  0
  161.1330  205.4860  153.2290 C   0  0  0  0  0  2  0  0  0  0  0  0
  161.6940  206.5820  154.0080 N   0  0  0  0  0  2  0  0  0  0  0  0
  160.6580  207.2420  154.5830 O   0  0  0  0  0  0  0  0  0  0  0  0
  161.1960  208.4580  155.0060 C   0  0  2  0  0  3  0  0  0  0  0  0
  161.5230  208.3700  156.4190 N   0  0  0  0  0  1  0  0  0  0  0  0
  160.1810  209.5700  154.7770 C   0  0  0  0  0  2  0  0  0  0  0  0
  159.4780  210.7620  152.7020 O   0  0  0  0  0  0  0  0  0  0  0  0
  160.5000  210.3380  153.5400 C   0  0  0  0  0  0  0  0  0  0  0  0
  161.6990  210.5890  153.2450 O   0  0  0  0  0  1  0  0  0  0  0  0
  1 19  1  1  0  0  0
  2  6  2  0  0  0  0
  3  5  1  0  0  0  0
  4  9  1  0  0  0  0
  4  1  1  1  0  0  0
  5  2  1  0  0  0  0
  5  8  2  0  0  0  0
  6  9  1  0  0  0  0
  8  4  1  0  0  0  0
  9  7  2  0  0  0  0
 10  1  1  0  0  0  0
 10 11  1  1  0  0  0
 12 10  1  0  0  0  0
 13 12  1  0  0  0  0
 14 15  1  6  0  0  0
 14 13  1  0  0  0  0
 16 14  1  0  0  0  0
 17 18  1  0  0  0  0
 18 16  1  0  0  0  0
 19 20  1  0  0  0  0
 20 21  1  0  0  0  0
 21 22  1  0  0  0  0
 22 23  1  0  0  0  0
 23 24  1  1  0  0  0
 25 23  1  0  0  0  0
 26 27  2  0  0  0  0
 27 25  1  0  0  0  0
 28 27  1  0  0  0  0
M  END
>  <MODEL>
6

>  <REMARK>
 VINA RESULT:      -6.9      3.043      6.126
  Name = 
  14 active torsions:
  status: ('A' for Active; 'I' for Inactive)
    1  A    between atoms: C_4  and  C_20
    2  A    between atoms: C_4  and  C_21
    3  A    between atoms: C_6  and  C_14
    4  A    between atoms: C_6  and  C_24
    5  A    between atoms: C_7  and  C_21
    6  A    between atoms: C_9  and  C_16
    7  A    between atoms: C_9  and  C_20
    8  A    between atoms: N_10  and  O_13
    9  A    between atoms: N_10  and  C_27
   10  A    between atoms: C_11  and  O_19
   11  A    between atoms: O_13  and  C_24
   12  A    between atoms: C_16  and  O_19
   13  A    between atoms: C_21  and  C_23
   14  A    between atoms: C_23  and  C_27
                            x       y       z     vdW  Elec       q    Type
                         _______ _______ _______ _____ _____    ______ ____

>  <TORSDO>
F 14

$$$$
=
 OpenBabel11042421093D

 28 28  0  0  1  0  0  0  0  0999 V2000
  161.7680  206.0610  149.0360 C   0  0  1  0  0  3  0  0  0  0  0  0
  160.8960  203.0400  151.9490 C   0  0  0  0  0  3  0  0  0  0  0  0
  160.3260  201.1160  150.0930 Cl  0  0  0  0  0  0  0  0  0  0  0  0
  161.4630  204.9930  150.0510 C   0  0  2  0  0  3  0  0  0  0  0  0
  160.8000  202.7250  150.5940 C   0  0  0  0  0  0  0  0  0  0  0  0
  161.2610  204.2940  152.3340 N   0  0  0  0  0  0  0  0  0  0  0  0
  161.8770  206.4130  151.8330 O   0  0  0  0  0  0  0  0  0  0  0  0
  161.0790  203.7070  149.6440 C   0  0  0  0  0  3  0  0  0  0  0  0
  161.5450  205.2670  151.4260 C   0  0  0  0  0  0  0  0  0  0  0  0
  161.3960  205.6170  147.6090 C   0  0  1  0  0  3  0  0  0  0  0  0
  160.4490  206.5950  146.9180 C   0  0  0  0  0  1  0  0  0  0  0  0
  162.6500  205.3860  146.7740 C   0  0  0  0  0  2  0  0  0  0  0  0
  162.3950  204.3970  145.6440 C   0  0  0  0  0  2  0  0  0  0  0  0
  161.1590  204.7790  144.8430 C   0  0  1  0  0  3  0  0  0  0  0  0
  161.5530  205.4630  143.6230 N   0  0  0  0  0  1  0  0  0  0  0  0
  160.4410  203.6260  144.5210 O   0  0  0  0  0  0  0  0  0  0  0  0
  160.0820  201.3820  145.2430 C   0  0  0  0  0  1  0  0  0  0  0  0
  160.8440  202.6770  145.4630 C   0  0  0  0  0  2  0  0  0  0  0  0
  161.1710  207.4050  149.4630 C   0  0  0  0  0  2  0  0  0  0  0  0
  162.1900  208.5250  149.3200 C   0  0  0  0  0  2  0  0  0  0  0  0
  161.5950  209.6790  148.6590 N   0  0  0  0  0  2  0  0  0  0  0  0
  162.1220  210.7900  149.2320 O   0  0  0  0  0  0  0  0  0  0  0  0
  162.0760  211.7650  148.2330 C   0  0  2  0  0  3  0  0  0  0  0  0
  163.3750  212.4110  148.1370 N   0  0  0  0  0  1  0  0  0  0  0  0
  161.0100  212.7950  148.5780 C   0  0  0  0  0  2  0  0  0  0  0  0
  158.7230  213.1400  147.6440 O   0  0  0  0  0  1  0  0  0  0  0  0
  160.0880  213.0150  147.4270 C   0  0  0  0  0  0  0  0  0  0  0  0
  160.5450  213.0690  146.2540 O   0  0  0  0  0  0  0  0  0  0  0  0
  1 19  1  1  0  0  0
  2  6  2  0  0  0  0
  3  5  1  0  0  0  0
  4  1  1  1  0  0  0
  4  9  1  0  0  0  0
  5  2  1  0  0  0  0
  8  4  1  0  0  0  0
  8  5  2  0  0  0  0
  9  7  2  0  0  0  0
  9  6  1  0  0  0  0
 10 11  1  6  0  0  0
 10  1  1  0  0  0  0
 12 10  1  0  0  0  0
 13 12  1  0  0  0  0
 14 15  1  6  0  0  0
 14 13  1  0  0  0  0
 16 14  1  0  0  0  0
 16 18  1  0  0  0  0
 17 18  1  0  0  0  0
 20 19  1  0  0  0  0
 21 22  1  0  0  0  0
 21 20  1  0  0  0  0
 23 24  1  1  0  0  0
 23 25  1  0  0  0  0
 23 22  1  0  0  0  0
 27 26  1  0  0  0  0
 27 25  1  0  0  0  0
 28 27  2  0  0  0  0
M  END
>  <MODEL>
7

>  <REMARK>
 VINA RESULT:      -6.7      3.586      5.580
  Name = 
  14 active torsions:
  status: ('A' for Active; 'I' for Inactive)
    1  A    between atoms: C_4  and  C_20
    2  A    between atoms: C_4  and  C_21
    3  A    between atoms: C_6  and  C_14
    4  A    between atoms: C_6  and  C_24
    5  A    between atoms: C_7  and  C_21
    6  A    between atoms: C_9  and  C_16
    7  A    between atoms: C_9  and  C_20
    8  A    between atoms: N_10  and  O_13
    9  A    between atoms: N_10  and  C_27
   10  A    between atoms: C_11  and  O_19
   11  A    between atoms: O_13  and  C_24
   12  A    between atoms: C_16  and  O_19
   13  A    between atoms: C_21  and  C_23
   14  A    between atoms: C_23  and  C_27
                            x       y       z     vdW  Elec       q    Type
                         _______ _______ _______ _____ _____    ______ ____

>  <TORSDO>
F 14

$$$$
=
 OpenBabel11042421093D

 28 28  0  0  1  0  0  0  0  0999 V2000
  161.2150  206.5940  150.3270 C   0  0  1  0  0  3  0  0  0  0  0  0
  161.2190  203.2040  147.7040 C   0  0  0  0  0  3  0  0  0  0  0  0
  160.4620  201.4340  149.6450 Cl  0  0  0  0  0  0  0  0  0  0  0  0
  161.2100  205.3980  149.4130 C   0  0  2  0  0  3  0  0  0  0  0  0
  160.8790  203.0250  149.0450 C   0  0  0  0  0  0  0  0  0  0  0  0
  161.5470  204.4410  147.2430 N   0  0  0  0  0  0  0  0  0  0  0  0
  161.8610  206.6570  147.5810 O   0  0  0  0  0  0  0  0  0  0  0  0
  160.8800  204.1260  149.9010 C   0  0  0  0  0  3  0  0  0  0  0  0
  161.5490  205.5320  148.0560 C   0  0  0  0  0  0  0  0  0  0  0  0
  161.1860  206.1800  151.8100 C   0  0  1  0  0  3  0  0  0  0  0  0
  162.4880  205.5230  152.2610 C   0  0  0  0  0  1  0  0  0  0  0  0
  160.8390  207.3730  152.6940 C   0  0  0  0  0  2  0  0  0  0  0  0
  160.8830  207.0050  154.1710 C   0  0  0  0  0  2  0  0  0  0  0  0
  160.7560  208.2390  155.0520 C   0  0  1  0  0  3  0  0  0  0  0  0
  161.5420  208.0650  156.2630 N   0  0  0  0  0  1  0  0  0  0  0  0
  161.2180  209.3560  154.3530 O   0  0  0  0  0  0  0  0  0  0  0  0
  159.7110  210.8110  153.2160 C   0  0  0  0  0  1  0  0  0  0  0  0
  160.2430  210.3350  154.5550 C   0  0  0  0  0  2  0  0  0  0  0  0
  162.3420  207.5600  149.9540 C   0  0  0  0  0  2  0  0  0  0  0  0
  161.9420  209.0010  150.2330 C   0  0  0  0  0  2  0  0  0  0  0  0
  162.0240  209.8010  149.0190 N   0  0  0  0  0  2  0  0  0  0  0  0
  162.1310  211.1000  149.3950 O   0  0  0  0  0  0  0  0  0  0  0  0
  161.9720  211.8300  148.2160 C   0  0  2  0  0  3  0  0  0  0  0  0
  163.2290  212.4810  147.8850 N   0  0  0  0  0  1  0  0  0  0  0  0
  160.8830  212.8760  148.4090 C   0  0  0  0  0  2  0  0  0  0  0  0
  158.5180  213.0350  147.6320 O   0  0  0  0  0  1  0  0  0  0  0  0
  159.8500  212.7750  147.3390 C   0  0  0  0  0  0  0  0  0  0  0  0
  160.1820  212.4360  146.1720 O   0  0  0  0  0  0  0  0  0  0  0  0
  1 19  1  1  0  0  0
  1 10  1  0  0  0  0
  2  5  1  0  0  0  0
  4  8  1  0  0  0  0
  4  1  1  1  0  0  0
  5  3  1  0  0  0  0
  5  8  2  0  0  0  0
  6  2  2  0  0  0  0
  6  9  1  0  0  0  0
  7  9  2  0  0  0  0
  9  4  1  0  0  0  0
 10 11  1  1  0  0  0
 10 12  1  0  0  0  0
 12 13  1  0  0  0  0
 13 14  1  0  0  0  0
 14 15  1  1  0  0  0
 16 18  1  0  0  0  0
 16 14  1  0  0  0  0
 17 18  1  0  0  0  0
 19 20  1  0  0  0  0
 21 22  1  0  0  0  0
 21 20  1  0  0  0  0
 23 24  1  1  0  0  0
 23 25  1  0  0  0  0
 23 22  1  0  0  0  0
 27 26  1  0  0  0  0
 27 25  1  0  0  0  0
 28 27  2  0  0  0  0
M  END
>  <MODEL>
8

>  <REMARK>
 VINA RESULT:      -6.6      3.594      6.956
  Name = 
  14 active torsions:
  status: ('A' for Active; 'I' for Inactive)
    1  A    between atoms: C_4  and  C_20
    2  A    between atoms: C_4  and  C_21
    3  A    between atoms: C_6  and  C_14
    4  A    between atoms: C_6  and  C_24
    5  A    between atoms: C_7  and  C_21
    6  A    between atoms: C_9  and  C_16
    7  A    between atoms: C_9  and  C_20
    8  A    between atoms: N_10  and  O_13
    9  A    between atoms: N_10  and  C_27
   10  A    between atoms: C_11  and  O_19
   11  A    between atoms: O_13  and  C_24
   12  A    between atoms: C_16  and  O_19
   13  A    between atoms: C_21  and  C_23
   14  A    between atoms: C_23  and  C_27
                            x       y       z     vdW  Elec       q    Type
                         _______ _______ _______ _____ _____    ______ ____

>  <TORSDO>
F 14

$$$$
=
 OpenBabel11042421093D

 28 28  0  0  1  0  0  0  0  0999 V2000
  161.8230  206.7710  150.1980 C   0  0  1  0  0  3  0  0  0  0  0  0
  160.7880  202.8580  151.6110 C   0  0  0  0  0  3  0  0  0  0  0  0
  160.0840  201.9220  149.1400 Cl  0  0  0  0  0  0  0  0  0  0  0  0
  161.4600  205.3930  150.6830 C   0  0  2  0  0  3  0  0  0  0  0  0
  160.6610  203.1450  150.2520 C   0  0  0  0  0  0  0  0  0  0  0  0
  161.2320  203.8130  152.4710 N   0  0  0  0  0  0  0  0  0  0  0  0
  161.9760  205.9110  152.8810 O   0  0  0  0  0  0  0  0  0  0  0  0
  160.9940  204.4180  149.7890 C   0  0  0  0  0  3  0  0  0  0  0  0
  161.5700  205.0610  152.0440 C   0  0  0  0  0  0  0  0  0  0  0  0
  161.5540  206.9340  148.6900 C   0  0  1  0  0  3  0  0  0  0  0  0
  161.5840  208.3940  148.2440 C   0  0  0  0  0  1  0  0  0  0  0  0
  162.5300  206.0930  147.8760 C   0  0  0  0  0  2  0  0  0  0  0  0
  162.2540  206.2050  146.3830 C   0  0  0  0  0  2  0  0  0  0  0  0
  161.0580  205.3580  145.9770 C   0  0  1  0  0  3  0  0  0  0  0  0
  160.0820  206.1800  145.2800 N   0  0  0  0  0  1  0  0  0  0  0  0
  161.4850  204.3270  145.1360 O   0  0  0  0  0  0  0  0  0  0  0  0
  160.4540  202.1820  145.2630 C   0  0  0  0  0  1  0  0  0  0  0  0
  161.4030  203.1710  145.9150 C   0  0  0  0  0  2  0  0  0  0  0  0
  161.1850  207.8450  151.0820 C   0  0  0  0  0  2  0  0  0  0  0  0
  162.1570  208.9850  151.3440 C   0  0  0  0  0  2  0  0  0  0  0  0
  161.9670  209.5250  152.6840 N   0  0  0  0  0  2  0  0  0  0  0  0
  160.7950  209.0320  153.1570 O   0  0  0  0  0  0  0  0  0  0  0  0
  160.3370  209.9950  154.0580 C   0  0  2  0  0  3  0  0  0  0  0  0
  161.4290  210.8970  154.3870 N   0  0  0  0  0  1  0  0  0  0  0  0
  159.8340  209.3100  155.3210 C   0  0  0  0  0  2  0  0  0  0  0  0
  161.9070  208.2120  156.1690 O   0  0  0  0  0  1  0  0  0  0  0  0
  160.6360  208.0900  155.6230 C   0  0  0  0  0  0  0  0  0  0  0  0
  160.1690  206.9480  155.3660 O   0  0  0  0  0  0  0  0  0  0  0  0
  1 19  1  1  0  0  0
  2  6  2  0  0  0  0
  3  5  1  0  0  0  0
  4  1  1  1  0  0  0
  4  9  1  0  0  0  0
  5  2  1  0  0  0  0
  8  5  2  0  0  0  0
  8  4  1  0  0  0  0
  9  6  1  0  0  0  0
  9  7  2  0  0  0  0
 10 11  1  6  0  0  0
 10  1  1  0  0  0  0
 12 10  1  0  0  0  0
 13 12  1  0  0  0  0
 14 15  1  6  0  0  0
 14 13  1  0  0  0  0
 16 18  1  0  0  0  0
 16 14  1  0  0  0  0
 17 18  1  0  0  0  0
 19 20  1  0  0  0  0
 20 21  1  0  0  0  0
 21 22  1  0  0  0  0
 22 23  1  0  0  0  0
 23 24  1  1  0  0  0
 23 25  1  0  0  0  0
 25 27  1  0  0  0  0
 27 26  1  0  0  0  0
 28 27  2  0  0  0  0
M  END
>  <MODEL>
9

>  <REMARK>
 VINA RESULT:      -6.6      2.837      6.635
  Name = 
  14 active torsions:
  status: ('A' for Active; 'I' for Inactive)
    1  A    between atoms: C_4  and  C_20
    2  A    between atoms: C_4  and  C_21
    3  A    between atoms: C_6  and  C_14
    4  A    between atoms: C_6  and  C_24
    5  A    between atoms: C_7  and  C_21
    6  A    between atoms: C_9  and  C_16
    7  A    between atoms: C_9  and  C_20
    8  A    between atoms: N_10  and  O_13
    9  A    between atoms: N_10  and  C_27
   10  A    between atoms: C_11  and  O_19
   11  A    between atoms: O_13  and  C_24
   12  A    between atoms: C_16  and  O_19
   13  A    between atoms: C_21  and  C_23
   14  A    between atoms: C_23  and  C_27
                            x       y       z     vdW  Elec       q    Type
                         _______ _______ _______ _____ _____    ______ ____

>  <TORSDO>
F 14

$$$$
