=
 OpenBabel11052409273D

 35 39  0  0  1  0  0  0  0  0999 V2000
  161.7110  206.8240  152.7850 C   0  0  2  0  0  0  0  0  0  0  0  0
  161.5400  203.4790  145.6020 C   0  0  0  0  0  3  0  0  0  0  0  0
  160.5500  205.5800  145.4880 C   0  0  0  0  0  0  0  0  0  0  0  0
  163.1330  207.8490  148.1100 N   0  0  0  0  0  0  0  0  0  0  0  0
  161.9110  209.2330  149.7910 C   0  0  0  0  0  2  0  0  0  0  0  0
  160.6300  204.5090  152.5670 C   0  0  0  0  0  2  0  0  0  0  0  0
  161.3520  208.7110  151.1060 C   0  0  0  0  0  2  0  0  0  0  0  0
  160.9670  207.3260  148.4800 N   0  0  0  0  0  0  0  0  0  0  0  0
  162.0010  208.1330  148.7850 C   0  0  0  0  0  0  0  0  0  0  0  0
  160.7640  203.0720  147.9450 C   0  0  0  0  0  2  0  0  0  0  0  0
  161.4900  206.4870  147.5710 C   0  0  0  0  0  0  0  0  0  0  0  0
  160.6200  204.3260  150.0980 C   0  0  0  0  0  2  0  0  0  0  0  0
  160.7300  205.9120  151.9950 C   0  0  2  0  0  3  0  0  0  0  0  0
  161.4750  204.0520  147.0240 C   0  0  2  0  0  3  0  0  0  0  0  0
  161.4360  204.7550  151.3040 C   0  0  1  0  0  3  0  0  0  0  0  0
  162.3630  207.7940  151.7900 C   0  0  0  0  0  2  0  0  0  0  0  0
  161.0390  204.5090  144.7130 N   0  0  0  0  0  0  0  0  0  0  0  0
  162.8140  206.7980  147.3320 C   0  0  0  0  0  2  0  0  0  0  0  0
  160.7070  205.3750  146.9430 C   0  0  2  0  0  3  0  0  0  0  0  0
  162.7370  206.0750  153.3770 O   0  0  0  0  0  1  0  0  0  0  0  0
  160.0100  206.5940  144.9750 O   0  0  0  0  0  0  0  0  0  0  0  0
  161.2980  203.1730  149.3660 C   0  0  1  0  0  3  0  0  0  0  0  0
  161.0000  207.5910  153.8890 C   0  0  0  0  0  0  0  0  0  0  0  0
  159.8900  207.6710  156.0560 C   0  0  0  0  0  3  0  0  0  0  0  0
  160.2900  209.7210  154.8380 C   0  0  0  0  0  3  0  0  0  0  0  0
  159.7760  209.0670  155.9600 C   0  0  0  0  0  0  0  0  0  0  0  0
  160.5020  206.9430  155.0330 C   0  0  0  0  0  3  0  0  0  0  0  0
  160.9030  208.9930  153.8150 C   0  0  0  0  0  3  0  0  0  0  0  0
  159.1650  209.8240  156.9640 O   0  0  0  0  0  0  0  0  0  0  0  0
  159.0410  211.2380  156.8900 C   0  0  0  0  0  1  0  0  0  0  0  0
  161.0210  201.8590  150.0780 C   0  0  0  0  0  2  0  0  0  0  0  0
  160.5500  200.8640  149.1280 N   0  0  0  0  0  2  0  0  0  0  0  0
  161.7270  200.2370  148.5560 C   0  0  0  0  0  2  0  0  0  0  0  0
  161.4780  199.9140  147.1490 C   0  0  0  0  0  0  0  0  0  0  0  0
  161.2840  199.6620  146.0380 N   0  0  0  0  0  0  0  0  0  0  0  0
  1 20  1  1  0  0  0
  1 23  1  0  0  0  0
  4  9  2  0  0  0  0
  5  7  1  0  0  0  0
  7 16  1  0  0  0  0
  8  9  1  0  0  0  0
  9  5  1  0  0  0  0
 10 22  1  0  0  0  0
 11  8  2  0  0  0  0
 13  6  1  1  0  0  0
 13  1  1  0  0  0  0
 14  2  1  6  0  0  0
 14 10  1  0  0  0  0
 15 12  1  6  0  0  0
 15 13  1  0  0  0  0
 15  6  1  0  0  0  0
 16  1  1  0  0  0  0
 17  3  1  0  0  0  0
 17  2  2  0  0  0  0
 18 11  1  0  0  0  0
 18  4  1  0  0  0  0
 19  3  1  6  0  0  0
 19 14  1  0  0  0  0
 19 11  1  0  0  0  0
 21  3  2  0  0  0  0
 22 31  1  1  0  0  0
 22 12  1  0  0  0  0
 23 27  1  0  0  0  0
 25 26  2  0  0  0  0
 26 24  1  0  0  0  0
 26 29  1  0  0  0  0
 27 24  2  0  0  0  0
 28 23  2  0  0  0  0
 28 25  1  0  0  0  0
 30 29  1  0  0  0  0
 32 31  1  0  0  0  0
 33 32  1  0  0  0  0
 34 33  1  0  0  0  0
 35 34  3  0  0  0  0
M  END
>  <MODEL>
1

>  <REMARK>
 VINA RESULT:      -8.2      0.000      0.000
  Name = 
  6 active torsions:
  status: ('A' for Active; 'I' for Inactive)
    1  A    between atoms: C_1  and  C_10
    2  A    between atoms: O_9  and  C_21
    3  A    between atoms: C_22  and  N_25
    4  A    between atoms: C_22  and  C_34
    5  A    between atoms: N_25  and  C_26
    6  A    between atoms: C_26  and  C_27
                            x       y       z     vdW  Elec       q    Type
                         _______ _______ _______ _____ _____    ______ ____

>  <TORSDO>
F 6

$$$$
=
 OpenBabel11052409273D

 35 39  0  0  1  0  0  0  0  0999 V2000
  161.6620  206.9850  152.3060 C   0  0  2  0  0  0  0  0  0  0  0  0
  159.2930  213.8430  155.4950 C   0  0  0  0  0  3  0  0  0  0  0  0
  158.0880  212.1010  156.4540 C   0  0  0  0  0  0  0  0  0  0  0  0
  161.1580  209.0770  156.8110 N   0  0  0  0  0  0  0  0  0  0  0  0
  160.4750  206.8300  155.9620 C   0  0  0  0  0  2  0  0  0  0  0  0
  160.8580  208.8310  150.7170 C   0  0  0  0  0  2  0  0  0  0  0  0
  160.4980  206.4090  154.5010 C   0  0  0  0  0  2  0  0  0  0  0  0
  159.3530  209.0050  155.4570 N   0  0  0  0  0  0  0  0  0  0  0  0
  160.3240  208.3110  156.0810 C   0  0  0  0  0  0  0  0  0  0  0  0
  159.4750  212.7010  153.2770 C   0  0  0  0  0  2  0  0  0  0  0  0
  159.6050  210.2760  155.8120 C   0  0  0  0  0  0  0  0  0  0  0  0
  159.9740  210.4200  152.3980 C   0  0  0  0  0  2  0  0  0  0  0  0
  160.5770  208.0540  151.9910 C   0  0  2  0  0  3  0  0  0  0  0  0
  159.6810  212.5440  154.7760 C   0  0  2  0  0  3  0  0  0  0  0  0
  161.1150  209.4750  152.0690 C   0  0  1  0  0  3  0  0  0  0  0  0
  161.7890  206.8720  153.8310 C   0  0  0  0  0  2  0  0  0  0  0  0
  158.3850  213.4740  156.5650 N   0  0  0  0  0  0  0  0  0  0  0  0
  160.7060  210.3330  156.6450 C   0  0  0  0  0  2  0  0  0  0  0  0
  158.7850  211.4340  155.3340 C   0  0  2  0  0  3  0  0  0  0  0  0
  162.9140  207.3710  151.8060 O   0  0  0  0  0  1  0  0  0  0  0  0
  157.2820  211.5190  157.2260 O   0  0  0  0  0  0  0  0  0  0  0  0
  160.4710  211.8580  152.4980 C   0  0  1  0  0  3  0  0  0  0  0  0
  161.3150  205.6350  151.6980 C   0  0  0  0  0  0  0  0  0  0  0  0
  160.8450  204.2210  149.7700 C   0  0  0  0  0  3  0  0  0  0  0  0
  160.9860  203.2350  151.9740 C   0  0  0  0  0  3  0  0  0  0  0  0
  160.7710  203.0920  150.6010 C   0  0  0  0  0  0  0  0  0  0  0  0
  161.1210  205.4780  150.3150 C   0  0  0  0  0  3  0  0  0  0  0  0
  161.2630  204.4930  152.5170 C   0  0  0  0  0  3  0  0  0  0  0  0
  160.4910  201.8220  150.0890 O   0  0  0  0  0  0  0  0  0  0  0  0
  160.9310  201.3980  148.8060 C   0  0  0  0  0  1  0  0  0  0  0  0
  160.6300  212.4600  151.1110 C   0  0  0  0  0  2  0  0  0  0  0  0
  159.7900  213.6380  150.9770 N   0  0  0  0  0  2  0  0  0  0  0  0
  159.3960  213.7190  149.5820 C   0  0  0  0  0  2  0  0  0  0  0  0
  157.9520  213.5040  149.4650 C   0  0  0  0  0  0  0  0  0  0  0  0
  156.8120  213.3360  149.3750 N   0  0  0  0  0  0  0  0  0  0  0  0
  1 20  1  6  0  0  0
  1 16  1  0  0  0  0
  2 17  2  0  0  0  0
  3 17  1  0  0  0  0
  3 21  2  0  0  0  0
  5  9  1  0  0  0  0
  7  5  1  0  0  0  0
  8 11  2  0  0  0  0
  8  9  1  0  0  0  0
  9  4  2  0  0  0  0
 11 18  1  0  0  0  0
 12 22  1  0  0  0  0
 13  6  1  6  0  0  0
 13 15  1  0  0  0  0
 13  1  1  0  0  0  0
 14 10  1  6  0  0  0
 14 19  1  0  0  0  0
 14  2  1  0  0  0  0
 15  6  1  6  0  0  0
 15 12  1  0  0  0  0
 16  7  1  0  0  0  0
 18  4  1  0  0  0  0
 19 11  1  1  0  0  0
 19  3  1  0  0  0  0
 22 31  1  6  0  0  0
 22 10  1  0  0  0  0
 23  1  1  0  0  0  0
 23 28  1  0  0  0  0
 24 27  1  0  0  0  0
 24 26  2  0  0  0  0
 25 28  2  0  0  0  0
 26 25  1  0  0  0  0
 27 23  2  0  0  0  0
 29 26  1  0  0  0  0
 30 29  1  0  0  0  0
 32 31  1  0  0  0  0
 33 32  1  0  0  0  0
 34 33  1  0  0  0  0
 35 34  3  0  0  0  0
M  END
>  <MODEL>
2

>  <REMARK>
 VINA RESULT:      -7.4      4.395      9.536
  Name = 
  6 active torsions:
  status: ('A' for Active; 'I' for Inactive)
    1  A    between atoms: C_1  and  C_10
    2  A    between atoms: O_9  and  C_21
    3  A    between atoms: C_22  and  N_25
    4  A    between atoms: C_22  and  C_34
    5  A    between atoms: N_25  and  C_26
    6  A    between atoms: C_26  and  C_27
                            x       y       z     vdW  Elec       q    Type
                         _______ _______ _______ _____ _____    ______ ____

>  <TORSDO>
F 6

$$$$
=
 OpenBabel11052409273D

 35 39  0  0  1  0  0  0  0  0999 V2000
  161.7750  206.7710  152.0940 C   0  0  2  0  0  0  0  0  0  0  0  0
  159.4570  213.6220  155.3370 C   0  0  0  0  0  3  0  0  0  0  0  0
  158.2570  211.8790  156.3000 C   0  0  0  0  0  0  0  0  0  0  0  0
  161.3230  208.8460  156.6130 N   0  0  0  0  0  0  0  0  0  0  0  0
  160.6250  206.6040  155.7620 C   0  0  0  0  0  2  0  0  0  0  0  0
  160.9580  208.6250  150.5220 C   0  0  0  0  0  2  0  0  0  0  0  0
  160.6320  206.1890  154.2990 C   0  0  0  0  0  2  0  0  0  0  0  0
  159.5040  208.7840  155.2770 N   0  0  0  0  0  0  0  0  0  0  0  0
  160.4790  208.0850  155.8880 C   0  0  0  0  0  0  0  0  0  0  0  0
  159.6130  212.4890  153.1120 C   0  0  0  0  0  2  0  0  0  0  0  0
  159.7630  210.0520  155.6350 C   0  0  0  0  0  0  0  0  0  0  0  0
  160.0970  210.2100  152.2190 C   0  0  0  0  0  2  0  0  0  0  0  0
  160.6890  207.8440  151.7950 C   0  0  2  0  0  3  0  0  0  0  0  0
  159.8350  212.3250  154.6080 C   0  0  2  0  0  3  0  0  0  0  0  0
  161.2320  209.2630  151.8730 C   0  0  1  0  0  3  0  0  0  0  0  0
  161.9170  206.6510  153.6180 C   0  0  0  0  0  2  0  0  0  0  0  0
  158.5600  213.2510  156.4140 N   0  0  0  0  0  0  0  0  0  0  0  0
  160.8730  210.1030  156.4570 C   0  0  0  0  0  2  0  0  0  0  0  0
  158.9420  211.2150  155.1710 C   0  0  2  0  0  3  0  0  0  0  0  0
  163.0220  207.1550  151.5830 O   0  0  0  0  0  1  0  0  0  0  0  0
  157.4580  211.2960  157.0790 O   0  0  0  0  0  0  0  0  0  0  0  0
  160.5990  211.6460  152.3190 C   0  0  1  0  0  3  0  0  0  0  0  0
  161.4170  205.4250  151.4850 C   0  0  0  0  0  0  0  0  0  0  0  0
  160.9170  203.0500  151.7040 C   0  0  0  0  0  3  0  0  0  0  0  0
  160.7580  204.1140  149.5380 C   0  0  0  0  0  3  0  0  0  0  0  0
  160.6550  202.9660  150.3270 C   0  0  0  0  0  0  0  0  0  0  0  0
  161.2880  204.2690  152.2760 C   0  0  0  0  0  3  0  0  0  0  0  0
  161.1280  205.3340  150.1110 C   0  0  0  0  0  3  0  0  0  0  0  0
  160.2870  201.7600  149.7230 O   0  0  0  0  0  0  0  0  0  0  0  0
  161.1400  201.0590  148.8290 C   0  0  0  0  0  1  0  0  0  0  0  0
  160.7450  212.2530  150.9330 C   0  0  0  0  0  2  0  0  0  0  0  0
  159.9590  213.4730  150.8350 N   0  0  0  0  0  2  0  0  0  0  0  0
  159.8180  213.7710  149.4210 C   0  0  0  0  0  2  0  0  0  0  0  0
  161.1210  214.1350  148.8620 C   0  0  0  0  0  0  0  0  0  0  0  0
  162.1500  214.4200  148.4180 N   0  0  0  0  0  0  0  0  0  0  0  0
  1 20  1  6  0  0  0
  1 16  1  0  0  0  0
  2 17  2  0  0  0  0
  3 17  1  0  0  0  0
  3 21  2  0  0  0  0
  5  9  1  0  0  0  0
  7  5  1  0  0  0  0
  8 11  2  0  0  0  0
  8  9  1  0  0  0  0
  9  4  2  0  0  0  0
 11 18  1  0  0  0  0
 12 22  1  0  0  0  0
 13  6  1  6  0  0  0
 13 15  1  0  0  0  0
 13  1  1  0  0  0  0
 14 10  1  6  0  0  0
 14 19  1  0  0  0  0
 14  2  1  0  0  0  0
 15  6  1  6  0  0  0
 15 12  1  0  0  0  0
 16  7  1  0  0  0  0
 18  4  1  0  0  0  0
 19 11  1  1  0  0  0
 19  3  1  0  0  0  0
 22 31  1  6  0  0  0
 22 10  1  0  0  0  0
 23  1  1  0  0  0  0
 23 27  1  0  0  0  0
 24 27  2  0  0  0  0
 25 28  1  0  0  0  0
 25 26  2  0  0  0  0
 26 24  1  0  0  0  0
 28 23  2  0  0  0  0
 29 26  1  0  0  0  0
 30 29  1  0  0  0  0
 32 31  1  0  0  0  0
 33 32  1  0  0  0  0
 34 33  1  0  0  0  0
 35 34  3  0  0  0  0
M  END
>  <MODEL>
3

>  <REMARK>
 VINA RESULT:      -7.3      4.258      9.424
  Name = 
  6 active torsions:
  status: ('A' for Active; 'I' for Inactive)
    1  A    between atoms: C_1  and  C_10
    2  A    between atoms: O_9  and  C_21
    3  A    between atoms: C_22  and  N_25
    4  A    between atoms: C_22  and  C_34
    5  A    between atoms: N_25  and  C_26
    6  A    between atoms: C_26  and  C_27
                            x       y       z     vdW  Elec       q    Type
                         _______ _______ _______ _____ _____    ______ ____

>  <TORSDO>
F 6

$$$$
=
 OpenBabel11052409273D

 35 39  0  0  1  0  0  0  0  0999 V2000
  161.5550  209.1280  152.9410 C   0  0  2  0  0  0  0  0  0  0  0  0
  161.7480  203.7930  147.0840 C   0  0  0  0  0  3  0  0  0  0  0  0
  160.7950  205.7600  146.2910 C   0  0  0  0  0  0  0  0  0  0  0  0
  163.2550  208.7180  148.2640 N   0  0  0  0  0  0  0  0  0  0  0  0
  161.9580  210.5350  149.3830 C   0  0  0  0  0  2  0  0  0  0  0  0
  160.4560  206.8490  153.3600 C   0  0  0  0  0  2  0  0  0  0  0  0
  161.3180  210.4270  150.7580 C   0  0  0  0  0  2  0  0  0  0  0  0
  161.0650  208.3200  148.6460 N   0  0  0  0  0  0  0  0  0  0  0  0
  162.0910  209.1860  148.7560 C   0  0  0  0  0  0  0  0  0  0  0  0
  160.8350  204.1000  149.3920 C   0  0  0  0  0  2  0  0  0  0  0  0
  161.6270  207.2500  148.0600 C   0  0  0  0  0  0  0  0  0  0  0  0
  160.5850  205.9380  151.0610 C   0  0  0  0  0  2  0  0  0  0  0  0
  160.6080  208.0180  152.4030 C   0  0  2  0  0  3  0  0  0  0  0  0
  161.6100  204.7630  148.2640 C   0  0  2  0  0  3  0  0  0  0  0  0
  161.3370  206.7100  152.1300 C   0  0  1  0  0  3  0  0  0  0  0  0
  162.2760  209.7600  151.7420 C   0  0  0  0  0  2  0  0  0  0  0  0
  161.3130  204.5090  145.9000 N   0  0  0  0  0  0  0  0  0  0  0  0
  162.9670  207.4820  147.8180 C   0  0  0  0  0  2  0  0  0  0  0  0
  160.8660  205.9990  147.7480 C   0  0  2  0  0  3  0  0  0  0  0  0
  162.5350  208.5930  153.7880 O   0  0  0  0  0  1  0  0  0  0  0  0
  160.2990  206.5730  145.4680 O   0  0  0  0  0  0  0  0  0  0  0  0
  161.2870  204.6220  150.7460 C   0  0  1  0  0  3  0  0  0  0  0  0
  160.7920  210.1870  153.7230 C   0  0  0  0  0  0  0  0  0  0  0  0
  158.7770  211.4900  154.1410 C   0  0  0  0  0  3  0  0  0  0  0  0
  160.6770  211.7140  155.6190 C   0  0  0  0  0  3  0  0  0  0  0  0
  159.3790  212.0840  155.2610 C   0  0  0  0  0  0  0  0  0  0  0  0
  159.4760  210.5470  153.3840 C   0  0  0  0  0  3  0  0  0  0  0  0
  161.3760  210.7700  154.8620 C   0  0  0  0  0  3  0  0  0  0  0  0
  158.7090  213.0350  156.0360 O   0  0  0  0  0  0  0  0  0  0  0  0
  157.3260  213.3210  155.8740 C   0  0  0  0  0  1  0  0  0  0  0  0
  160.9530  203.5790  151.8000 C   0  0  0  0  0  2  0  0  0  0  0  0
  161.6890  202.3520  151.5420 N   0  0  0  0  0  2  0  0  0  0  0  0
  160.7360  201.3910  151.0170 C   0  0  0  0  0  2  0  0  0  0  0  0
  161.1600  200.9530  149.6860 C   0  0  0  0  0  0  0  0  0  0  0  0
  161.4920  200.6060  148.6340 N   0  0  0  0  0  0  0  0  0  0  0  0
  1 23  1  0  0  0  0
  1 20  1  1  0  0  0
  4  9  2  0  0  0  0
  5  7  1  0  0  0  0
  7 16  1  0  0  0  0
  8  9  1  0  0  0  0
  9  5  1  0  0  0  0
 10 22  1  0  0  0  0
 11  8  2  0  0  0  0
 13  1  1  0  0  0  0
 13  6  1  1  0  0  0
 14  2  1  6  0  0  0
 14 10  1  0  0  0  0
 15 12  1  6  0  0  0
 15 13  1  0  0  0  0
 15  6  1  0  0  0  0
 16  1  1  0  0  0  0
 17  3  1  0  0  0  0
 17  2  2  0  0  0  0
 18 11  1  0  0  0  0
 18  4  1  0  0  0  0
 19  3  1  6  0  0  0
 19 11  1  0  0  0  0
 19 14  1  0  0  0  0
 21  3  2  0  0  0  0
 22 12  1  0  0  0  0
 22 31  1  1  0  0  0
 23 28  1  0  0  0  0
 24 26  2  0  0  0  0
 26 25  1  0  0  0  0
 26 29  1  0  0  0  0
 27 23  2  0  0  0  0
 27 24  1  0  0  0  0
 28 25  2  0  0  0  0
 30 29  1  0  0  0  0
 32 31  1  0  0  0  0
 33 32  1  0  0  0  0
 34 33  1  0  0  0  0
 35 34  3  0  0  0  0
M  END
>  <MODEL>
4

>  <REMARK>
 VINA RESULT:      -6.3      1.566      2.267
  Name = 
  6 active torsions:
  status: ('A' for Active; 'I' for Inactive)
    1  A    between atoms: C_1  and  C_10
    2  A    between atoms: O_9  and  C_21
    3  A    between atoms: C_22  and  N_25
    4  A    between atoms: C_22  and  C_34
    5  A    between atoms: N_25  and  C_26
    6  A    between atoms: C_26  and  C_27
                            x       y       z     vdW  Elec       q    Type
                         _______ _______ _______ _____ _____    ______ ____

>  <TORSDO>
F 6

$$$$
