=
 OpenBabel11052411233D

 41 45  0  0  1  0  0  0  0  0999 V2000
  161.1200  212.5540  150.4500 N   0  0  0  0  0  1  0  0  0  0  0  0
  161.6690  208.4700  151.2320 C   0  0  0  0  0  3  0  0  0  0  0  0
  161.3190  211.1640  150.6910 C   0  0  0  0  0  0  0  0  0  0  0  0
  160.3580  209.7620  154.5490 C   0  0  0  0  0  1  0  0  0  0  0  0
  161.0370  210.6600  151.9200 N   0  0  0  0  0  0  0  0  0  0  0  0
  161.9840  208.9450  149.9590 C   0  0  0  0  0  0  0  0  0  0  0  0
  161.0420  207.4580  153.8920 C   0  0  0  0  0  1  0  0  0  0  0  0
  160.8700  208.8570  153.5320 N   0  0  0  0  0  0  0  0  0  0  0  0
  161.1930  209.3410  152.2180 C   0  0  0  0  0  0  0  0  0  0  0  0
  161.7920  210.3190  149.6690 C   0  0  0  0  0  0  0  0  0  0  0  0
  162.4710  207.9890  149.0050 N   0  0  0  0  0  2  0  0  0  0  0  0
  161.6740  207.3080  147.9960 C   0  0  0  0  0  2  0  0  0  0  0  0
  161.4030  205.9080  148.4330 C   0  0  0  0  0  0  0  0  0  0  0  0
  161.4400  202.7070  145.6120 C   0  0  0  0  0  2  0  0  0  0  0  0
  160.8170  203.3010  149.2920 C   0  0  0  0  0  3  0  0  0  0  0  0
  161.0160  203.5610  147.9350 C   0  0  0  0  0  0  0  0  0  0  0  0
  161.0400  204.0970  145.1160 C   0  0  0  0  0  2  0  0  0  0  0  0
  161.2030  205.6410  149.7930 C   0  0  0  0  0  3  0  0  0  0  0  0
  161.4330  205.1100  146.0920 N   0  0  0  0  0  2  0  0  0  0  0  0
  161.2870  204.8670  147.4970 C   0  0  0  0  0  0  0  0  0  0  0  0
  160.9090  204.3420  150.2210 C   0  0  0  0  0  3  0  0  0  0  0  0
  160.9530  202.5020  146.9740 N   0  0  0  0  0  2  0  0  0  0  0  0
  162.0070  210.8900  148.2970 C   0  0  0  0  0  2  0  0  0  0  0  0
  161.6450  213.6350  146.1140 C   0  0  1  0  0  3  0  0  0  0  0  0
  159.3390  213.2120  145.5170 O   0  0  0  0  0  0  0  0  0  0  0  0
  160.3040  213.0420  146.3080 C   0  0  0  0  0  0  0  0  0  0  0  0
  160.1850  212.2760  147.4850 N   0  0  0  0  0  2  0  0  0  0  0  0
  162.3900  213.2110  147.3790 C   0  0  1  0  0  3  0  0  0  0  0  0
  162.7360  214.4380  148.1990 C   0  0  0  0  0  1  0  0  0  0  0  0
  161.4500  212.3060  148.1930 C   0  0  2  0  0  3  0  0  0  0  0  0
  162.3340  213.0190  144.9060 C   0  0  0  0  0  2  0  0  0  0  0  0
  162.2130  213.9350  143.7030 C   0  0  0  0  0  2  0  0  0  0  0  0
  162.6800  213.2710  142.5680 O   0  0  0  0  0  0  0  0  0  0  0  0
  161.3610  210.6390  140.6110 C   0  0  0  0  0  2  0  0  0  0  0  0
  161.8290  213.6820  141.5330 C   0  0  1  0  0  3  0  0  0  0  0  0
  162.5790  212.4090  139.3720 C   0  0  0  0  0  2  0  0  0  0  0  0
  163.8530  214.2130  140.3190 O   0  0  0  0  0  1  0  0  0  0  0  0
  162.5570  213.7130  140.1750 C   0  0  2  0  0  3  0  0  0  0  0  0
  160.7750  211.3820  141.8050 C   0  0  0  0  0  2  0  0  0  0  0  0
  160.5330  212.8630  141.5160 C   0  0  0  0  0  2  0  0  0  0  0  0
  162.7370  211.1630  140.2300 C   0  0  0  0  0  2  0  0  0  0  0  0
  1  3  1  0  0  0  0
  2  9  1  0  0  0  0
  3  5  1  0  0  0  0
  5  9  2  0  0  0  0
  6  2  2  0  0  0  0
  8  7  1  0  0  0  0
  8  4  1  0  0  0  0
  9  8  1  0  0  0  0
 10  6  1  0  0  0  0
 10  3  2  0  0  0  0
 11  6  1  0  0  0  0
 12 13  1  0  0  0  0
 12 11  1  0  0  0  0
 13 18  1  0  0  0  0
 14 22  1  0  0  0  0
 15 21  1  0  0  0  0
 16 15  2  0  0  0  0
 17 14  1  0  0  0  0
 17 19  1  0  0  0  0
 18 21  2  0  0  0  0
 19 20  1  0  0  0  0
 20 16  1  0  0  0  0
 20 13  2  0  0  0  0
 22 16  1  0  0  0  0
 23 10  1  0  0  0  0
 24 31  1  6  0  0  0
 24 26  1  0  0  0  0
 24 28  1  0  0  0  0
 25 26  2  0  0  0  0
 26 27  1  0  0  0  0
 27 30  1  0  0  0  0
 28 30  1  0  0  0  0
 28 29  1  1  0  0  0
 30 23  1  6  0  0  0
 32 31  1  0  0  0  0
 33 32  1  0  0  0  0
 34 39  1  0  0  0  0
 35 33  1  1  0  0  0
 36 38  1  0  0  0  0
 36 41  1  0  0  0  0
 38 37  1  1  0  0  0
 38 35  1  0  0  0  0
 40 35  1  0  0  0  0
 40 39  1  0  0  0  0
 41 34  1  0  0  0  0
M  END
>  <MODEL>
1

>  <REMARK>
 VINA RESULT:      -7.9      0.000      0.000
  Name = 
  9 active torsions:
  status: ('A' for Active; 'I' for Inactive)
    1  A    between atoms: C_1  and  C_34
    2  A    between atoms: C_4  and  C_11
    3  A    between atoms: C_9  and  O_25
    4  A    between atoms: C_9  and  C_34
    5  A    between atoms: C_10  and  O_25
    6  A    between atoms: C_11  and  N_23
    7  A    between atoms: N_23  and  C_24
    8  A    between atoms: C_31  and  C_38
    9  A    between atoms: C_31  and  C_41
                            x       y       z     vdW  Elec       q    Type
                         _______ _______ _______ _____ _____    ______ ____

>  <TORSDO>
F 9

$$$$
=
 OpenBabel11052411233D

 41 45  0  0  1  0  0  0  0  0999 V2000
  161.5300  212.3150  150.5980 N   0  0  0  0  0  1  0  0  0  0  0  0
  161.6020  208.1290  150.8600 C   0  0  0  0  0  3  0  0  0  0  0  0
  161.5660  210.8920  150.6610 C   0  0  0  0  0  0  0  0  0  0  0  0
  160.6380  209.1470  154.3860 C   0  0  0  0  0  1  0  0  0  0  0  0
  161.2870  210.2760  151.8390 N   0  0  0  0  0  0  0  0  0  0  0  0
  161.9070  208.7170  149.6330 C   0  0  0  0  0  0  0  0  0  0  0  0
  160.9910  206.8770  153.4190 C   0  0  0  0  0  1  0  0  0  0  0  0
  160.9780  208.3200  153.2380 N   0  0  0  0  0  0  0  0  0  0  0  0
  161.2910  208.9220  151.9710 C   0  0  0  0  0  0  0  0  0  0  0  0
  161.8750  210.1300  149.5180 C   0  0  0  0  0  0  0  0  0  0  0  0
  162.2190  207.8360  148.5430 N   0  0  0  0  0  2  0  0  0  0  0  0
  161.3100  207.4370  147.4810 C   0  0  0  0  0  2  0  0  0  0  0  0
  161.5910  206.0270  147.0840 C   0  0  0  0  0  0  0  0  0  0  0  0
  160.4450  202.7910  149.6190 C   0  0  0  0  0  2  0  0  0  0  0  0
  162.2050  203.3950  146.3290 C   0  0  0  0  0  3  0  0  0  0  0  0
  161.6220  203.6460  147.5730 C   0  0  0  0  0  0  0  0  0  0  0  0
  160.7820  204.1310  150.2730 C   0  0  0  0  0  2  0  0  0  0  0  0
  162.1740  205.7680  145.8380 C   0  0  0  0  0  3  0  0  0  0  0  0
  160.7850  205.1920  149.2700 N   0  0  0  0  0  2  0  0  0  0  0  0
  161.3340  204.9630  147.9660 C   0  0  0  0  0  0  0  0  0  0  0  0
  162.4820  204.4570  145.4620 C   0  0  0  0  0  3  0  0  0  0  0  0
  161.3070  202.5680  148.4600 N   0  0  0  0  0  2  0  0  0  0  0  0
  162.0880  210.8370  148.2110 C   0  0  0  0  0  2  0  0  0  0  0  0
  161.3720  213.6220  146.1710 C   0  0  1  0  0  3  0  0  0  0  0  0
  159.1510  212.9230  145.5170 O   0  0  0  0  0  0  0  0  0  0  0  0
  160.1230  212.8420  146.3120 C   0  0  0  0  0  0  0  0  0  0  0  0
  160.1010  212.0040  147.4460 N   0  0  0  0  0  2  0  0  0  0  0  0
  162.1590  213.2350  147.4230 C   0  0  1  0  0  3  0  0  0  0  0  0
  162.3280  214.4510  148.3120 C   0  0  0  0  0  1  0  0  0  0  0  0
  161.3440  212.1670  148.1730 C   0  0  2  0  0  3  0  0  0  0  0  0
  162.1490  213.1720  144.9420 C   0  0  0  0  0  2  0  0  0  0  0  0
  162.1210  214.2480  143.8740 C   0  0  0  0  0  2  0  0  0  0  0  0
  161.3040  213.8340  142.8220 O   0  0  0  0  0  0  0  0  0  0  0  0
  161.0010  213.8390  139.3000 C   0  0  0  0  0  2  0  0  0  0  0  0
  162.0320  212.8300  142.1710 C   0  0  1  0  0  3  0  0  0  0  0  0
  160.4210  211.7130  140.4370 C   0  0  0  0  0  2  0  0  0  0  0  0
  160.2240  211.3540  142.8050 O   0  0  0  0  0  1  0  0  0  0  0  0
  161.1380  211.6350  141.7880 C   0  0  2  0  0  3  0  0  0  0  0  0
  162.0610  214.4490  140.2090 C   0  0  0  0  0  2  0  0  0  0  0  0
  162.8390  213.3950  140.9960 C   0  0  0  0  0  2  0  0  0  0  0  0
  159.9250  213.1070  140.0870 C   0  0  0  0  0  2  0  0  0  0  0  0
  1  3  1  0  0  0  0
  2  9  1  0  0  0  0
  3  5  1  0  0  0  0
  5  9  2  0  0  0  0
  6  2  2  0  0  0  0
  8  7  1  0  0  0  0
  8  4  1  0  0  0  0
  9  8  1  0  0  0  0
 10  6  1  0  0  0  0
 10  3  2  0  0  0  0
 11  6  1  0  0  0  0
 12 11  1  0  0  0  0
 13 12  1  0  0  0  0
 13 20  1  0  0  0  0
 14 17  1  0  0  0  0
 15 16  1  0  0  0  0
 16 20  2  0  0  0  0
 16 22  1  0  0  0  0
 18 13  2  0  0  0  0
 19 17  1  0  0  0  0
 20 19  1  0  0  0  0
 21 18  1  0  0  0  0
 21 15  2  0  0  0  0
 22 14  1  0  0  0  0
 23 10  1  0  0  0  0
 24 31  1  6  0  0  0
 24 26  1  0  0  0  0
 24 28  1  0  0  0  0
 25 26  2  0  0  0  0
 26 27  1  0  0  0  0
 27 30  1  0  0  0  0
 28 30  1  0  0  0  0
 28 29  1  1  0  0  0
 30 23  1  6  0  0  0
 32 31  1  0  0  0  0
 33 32  1  0  0  0  0
 34 41  1  0  0  0  0
 34 39  1  0  0  0  0
 35 33  1  6  0  0  0
 36 38  1  0  0  0  0
 38 35  1  0  0  0  0
 38 37  1  1  0  0  0
 39 40  1  0  0  0  0
 40 35  1  0  0  0  0
 41 36  1  0  0  0  0
M  END
>  <MODEL>
2

>  <REMARK>
 VINA RESULT:      -7.7      1.173      2.238
  Name = 
  9 active torsions:
  status: ('A' for Active; 'I' for Inactive)
    1  A    between atoms: C_1  and  C_34
    2  A    between atoms: C_4  and  C_11
    3  A    between atoms: C_9  and  O_25
    4  A    between atoms: C_9  and  C_34
    5  A    between atoms: C_10  and  O_25
    6  A    between atoms: C_11  and  N_23
    7  A    between atoms: N_23  and  C_24
    8  A    between atoms: C_31  and  C_38
    9  A    between atoms: C_31  and  C_41
                            x       y       z     vdW  Elec       q    Type
                         _______ _______ _______ _____ _____    ______ ____

>  <TORSDO>
F 9

$$$$
=
 OpenBabel11052411233D

 41 45  0  0  1  0  0  0  0  0999 V2000
  160.2690  204.7970  150.8380 N   0  0  0  0  0  1  0  0  0  0  0  0
  161.9070  207.1350  147.7640 C   0  0  0  0  0  3  0  0  0  0  0  0
  160.8260  205.6140  149.8110 C   0  0  0  0  0  0  0  0  0  0  0  0
  161.9220  203.6620  146.2370 C   0  0  0  0  0  1  0  0  0  0  0  0
  161.2090  205.0360  148.6420 N   0  0  0  0  0  0  0  0  0  0  0  0
  161.5410  207.7700  148.9510 C   0  0  0  0  0  0  0  0  0  0  0  0
  162.7030  205.8280  145.2840 C   0  0  0  0  0  1  0  0  0  0  0  0
  162.1160  205.0950  146.3950 N   0  0  0  0  0  0  0  0  0  0  0  0
  161.7380  205.7540  147.6150 C   0  0  0  0  0  0  0  0  0  0  0  0
  160.9720  207.0010  149.9970 C   0  0  0  0  0  0  0  0  0  0  0  0
  161.7510  209.1890  149.0260 N   0  0  0  0  0  2  0  0  0  0  0  0
  161.9210  210.0880  147.8960 C   0  0  0  0  0  2  0  0  0  0  0  0
  161.3500  211.4250  148.2290 C   0  0  0  0  0  0  0  0  0  0  0  0
  158.9070  213.5050  145.4170 C   0  0  0  0  0  2  0  0  0  0  0  0
  160.3590  213.9690  148.8750 C   0  0  0  0  0  3  0  0  0  0  0  0
  160.1390  213.4370  147.6040 C   0  0  0  0  0  0  0  0  0  0  0  0
  159.9820  212.5630  144.8760 C   0  0  0  0  0  2  0  0  0  0  0  0
  161.5670  211.9640  149.5030 C   0  0  0  0  0  3  0  0  0  0  0  0
  160.4550  211.6780  145.9370 N   0  0  0  0  0  2  0  0  0  0  0  0
  160.6520  212.1740  147.2670 C   0  0  0  0  0  0  0  0  0  0  0  0
  161.0750  213.2330  149.8250 C   0  0  0  0  0  3  0  0  0  0  0  0
  159.3840  214.1660  146.6300 N   0  0  0  0  0  2  0  0  0  0  0  0
  160.4560  207.6210  151.2640 C   0  0  0  0  0  2  0  0  0  0  0  0
  161.2310  209.3190  154.2540 C   0  0  1  0  0  3  0  0  0  0  0  0
  161.2650  207.3660  155.6810 O   0  0  0  0  0  0  0  0  0  0  0  0
  161.3280  207.8690  154.5290 C   0  0  0  0  0  0  0  0  0  0  0  0
  161.5280  207.0840  153.3750 N   0  0  0  0  0  2  0  0  0  0  0  0
  161.4670  209.3970  152.7470 C   0  0  1  0  0  3  0  0  0  0  0  0
  162.7580  210.1450  152.4730 C   0  0  0  0  0  1  0  0  0  0  0  0
  161.5950  207.9570  152.2200 C   0  0  2  0  0  3  0  0  0  0  0  0
  159.8300  209.8290  154.5600 C   0  0  0  0  0  2  0  0  0  0  0  0
  159.8870  210.9580  155.5720 C   0  0  0  0  0  2  0  0  0  0  0  0
  159.1390  212.0380  155.1020 O   0  0  0  0  0  0  0  0  0  0  0  0
  157.6260  214.3760  152.9260 C   0  0  0  0  0  2  0  0  0  0  0  0
  158.2410  211.4830  154.1820 C   0  0  1  0  0  3  0  0  0  0  0  0
  156.0770  212.9540  154.2390 C   0  0  0  0  0  2  0  0  0  0  0  0
  156.6630  211.4440  156.0150 O   0  0  0  0  0  1  0  0  0  0  0  0
  156.7790  211.6530  154.6390 C   0  0  2  0  0  3  0  0  0  0  0  0
  158.8490  213.4880  152.7370 C   0  0  0  0  0  2  0  0  0  0  0  0
  158.5040  211.9990  152.7620 C   0  0  0  0  0  2  0  0  0  0  0  0
  156.9790  214.1770  154.2870 C   0  0  0  0  0  2  0  0  0  0  0  0
  2  6  1  0  0  0  0
  3 10  1  0  0  0  0
  3  1  1  0  0  0  0
  4  8  1  0  0  0  0
  5  3  2  0  0  0  0
  6 11  1  0  0  0  0
  6 10  2  0  0  0  0
  7  8  1  0  0  0  0
  8  9  1  0  0  0  0
  9  2  2  0  0  0  0
  9  5  1  0  0  0  0
 10 23  1  0  0  0  0
 12 13  1  0  0  0  0
 12 11  1  0  0  0  0
 13 18  1  0  0  0  0
 14 22  1  0  0  0  0
 15 21  1  0  0  0  0
 16 15  2  0  0  0  0
 17 14  1  0  0  0  0
 17 19  1  0  0  0  0
 18 21  2  0  0  0  0
 19 20  1  0  0  0  0
 20 16  1  0  0  0  0
 20 13  2  0  0  0  0
 22 16  1  0  0  0  0
 24 26  1  0  0  0  0
 24 31  1  6  0  0  0
 26 25  2  0  0  0  0
 27 26  1  0  0  0  0
 28 29  1  1  0  0  0
 28 24  1  0  0  0  0
 30 23  1  6  0  0  0
 30 28  1  0  0  0  0
 30 27  1  0  0  0  0
 31 32  1  0  0  0  0
 33 32  1  0  0  0  0
 34 41  1  0  0  0  0
 35 38  1  0  0  0  0
 35 33  1  1  0  0  0
 36 41  1  0  0  0  0
 36 38  1  0  0  0  0
 38 37  1  1  0  0  0
 39 40  1  0  0  0  0
 39 34  1  0  0  0  0
 40 35  1  0  0  0  0
M  END
>  <MODEL>
3

>  <REMARK>
 VINA RESULT:      -7.5      4.340      9.739
  Name = 
  9 active torsions:
  status: ('A' for Active; 'I' for Inactive)
    1  A    between atoms: C_1  and  C_34
    2  A    between atoms: C_4  and  C_11
    3  A    between atoms: C_9  and  O_25
    4  A    between atoms: C_9  and  C_34
    5  A    between atoms: C_10  and  O_25
    6  A    between atoms: C_11  and  N_23
    7  A    between atoms: N_23  and  C_24
    8  A    between atoms: C_31  and  C_38
    9  A    between atoms: C_31  and  C_41
                            x       y       z     vdW  Elec       q    Type
                         _______ _______ _______ _____ _____    ______ ____

>  <TORSDO>
F 9

$$$$
=
 OpenBabel11052411233D

 41 45  0  0  1  0  0  0  0  0999 V2000
  161.1190  204.2430  152.7110 N   0  0  0  0  0  1  0  0  0  0  0  0
  160.9440  208.3790  153.3900 C   0  0  0  0  0  3  0  0  0  0  0  0
  161.0600  205.6530  152.9140 C   0  0  0  0  0  0  0  0  0  0  0  0
  160.3800  206.9630  156.8630 C   0  0  0  0  0  1  0  0  0  0  0  0
  160.8310  206.1310  154.1650 N   0  0  0  0  0  0  0  0  0  0  0  0
  161.1680  207.9340  152.0860 C   0  0  0  0  0  0  0  0  0  0  0  0
  160.4520  209.3340  156.0980 C   0  0  0  0  0  1  0  0  0  0  0  0
  160.5390  207.9170  155.7770 N   0  0  0  0  0  0  0  0  0  0  0  0
  160.7730  207.4630  154.4340 C   0  0  0  0  0  0  0  0  0  0  0  0
  161.2450  206.5410  151.8380 C   0  0  0  0  0  0  0  0  0  0  0  0
  161.3290  208.9360  151.0700 N   0  0  0  0  0  2  0  0  0  0  0  0
  162.1000  210.1630  151.1960 C   0  0  0  0  0  2  0  0  0  0  0  0
  161.2070  211.3390  150.9920 C   0  0  0  0  0  0  0  0  0  0  0  0
  161.1740  213.4190  147.2660 C   0  0  0  0  0  2  0  0  0  0  0  0
  159.5600  213.5900  150.6800 C   0  0  0  0  0  3  0  0  0  0  0  0
  160.4370  213.2190  149.6580 C   0  0  0  0  0  0  0  0  0  0  0  0
  162.4720  212.7340  147.6950 C   0  0  0  0  0  2  0  0  0  0  0  0
  160.3240  211.7160  152.0120 C   0  0  0  0  0  3  0  0  0  0  0  0
  162.2050  211.7850  148.7730 N   0  0  0  0  0  2  0  0  0  0  0  0
  161.2790  212.1080  149.8180 C   0  0  0  0  0  0  0  0  0  0  0  0
  159.5050  212.8380  151.8580 C   0  0  0  0  0  3  0  0  0  0  0  0
  160.4850  213.9620  148.4350 N   0  0  0  0  0  2  0  0  0  0  0  0
  161.5860  205.9810  150.4860 C   0  0  0  0  0  2  0  0  0  0  0  0
  161.9550  206.5780  147.0320 C   0  0  1  0  0  3  0  0  0  0  0  0
  159.7060  205.9460  146.4000 O   0  0  0  0  0  0  0  0  0  0  0  0
  160.5220  206.3130  147.2860 C   0  0  0  0  0  0  0  0  0  0  0  0
  160.1310  206.5340  148.6230 N   0  0  0  0  0  2  0  0  0  0  0  0
  162.4540  207.0800  148.3850 C   0  0  1  0  0  3  0  0  0  0  0  0
  162.8850  208.5280  148.2610 C   0  0  0  0  0  1  0  0  0  0  0  0
  161.2830  206.9840  149.3790 C   0  0  2  0  0  3  0  0  0  0  0  0
  162.6840  205.2880  146.6850 C   0  0  0  0  0  2  0  0  0  0  0  0
  162.3160  204.1910  147.6650 C   0  0  0  0  0  2  0  0  0  0  0  0
  162.0910  203.0040  146.9660 O   0  0  0  0  0  0  0  0  0  0  0  0
  161.3170  199.5600  147.1530 C   0  0  0  0  0  2  0  0  0  0  0  0
  160.7330  202.7200  147.1630 C   0  0  1  0  0  3  0  0  0  0  0  0
  160.0810  200.8600  145.4410 C   0  0  0  0  0  2  0  0  0  0  0  0
  160.4850  203.1390  144.7930 O   0  0  0  0  0  1  0  0  0  0  0  0
  160.0350  202.3370  145.8440 C   0  0  2  0  0  3  0  0  0  0  0  0
  161.5810  200.5820  148.2520 C   0  0  0  0  0  2  0  0  0  0  0  0
  160.5320  201.6950  148.2850 C   0  0  0  0  0  2  0  0  0  0  0  0
  161.4000  200.1770  145.7660 C   0  0  0  0  0  2  0  0  0  0  0  0
  1  3  1  0  0  0  0
  2  9  1  0  0  0  0
  3  5  1  0  0  0  0
  5  9  2  0  0  0  0
  6  2  2  0  0  0  0
  8  7  1  0  0  0  0
  8  4  1  0  0  0  0
  9  8  1  0  0  0  0
 10  6  1  0  0  0  0
 10  3  2  0  0  0  0
 11 12  1  0  0  0  0
 11  6  1  0  0  0  0
 13 12  1  0  0  0  0
 13 18  1  0  0  0  0
 14 17  1  0  0  0  0
 14 22  1  0  0  0  0
 15 21  1  0  0  0  0
 16 20  1  0  0  0  0
 16 15  2  0  0  0  0
 17 19  1  0  0  0  0
 19 20  1  0  0  0  0
 20 13  2  0  0  0  0
 21 18  2  0  0  0  0
 22 16  1  0  0  0  0
 23 10  1  0  0  0  0
 24 31  1  1  0  0  0
 24 26  1  0  0  0  0
 24 28  1  0  0  0  0
 25 26  2  0  0  0  0
 26 27  1  0  0  0  0
 27 30  1  0  0  0  0
 28 29  1  6  0  0  0
 28 30  1  0  0  0  0
 30 23  1  1  0  0  0
 31 32  1  0  0  0  0
 33 32  1  0  0  0  0
 34 39  1  0  0  0  0
 35 33  1  6  0  0  0
 35 40  1  0  0  0  0
 36 41  1  0  0  0  0
 36 38  1  0  0  0  0
 38 37  1  6  0  0  0
 38 35  1  0  0  0  0
 39 40  1  0  0  0  0
 41 34  1  0  0  0  0
M  END
>  <MODEL>
4

>  <REMARK>
 VINA RESULT:      -7.4      4.136      8.481
  Name = 
  9 active torsions:
  status: ('A' for Active; 'I' for Inactive)
    1  A    between atoms: C_1  and  C_34
    2  A    between atoms: C_4  and  C_11
    3  A    between atoms: C_9  and  O_25
    4  A    between atoms: C_9  and  C_34
    5  A    between atoms: C_10  and  O_25
    6  A    between atoms: C_11  and  N_23
    7  A    between atoms: N_23  and  C_24
    8  A    between atoms: C_31  and  C_38
    9  A    between atoms: C_31  and  C_41
                            x       y       z     vdW  Elec       q    Type
                         _______ _______ _______ _____ _____    ______ ____

>  <TORSDO>
F 9

$$$$
=
 OpenBabel11052411233D

 41 45  0  0  1  0  0  0  0  0999 V2000
  161.1380  204.2740  152.7210 N   0  0  0  0  0  1  0  0  0  0  0  0
  160.9760  208.4040  153.4410 C   0  0  0  0  0  3  0  0  0  0  0  0
  161.0850  205.6820  152.9380 C   0  0  0  0  0  0  0  0  0  0  0  0
  160.3180  206.9540  156.8840 C   0  0  0  0  0  1  0  0  0  0  0  0
  160.8290  206.1480  154.1880 N   0  0  0  0  0  0  0  0  0  0  0  0
  161.2280  207.9710  152.1380 C   0  0  0  0  0  0  0  0  0  0  0  0
  160.4250  209.3320  156.1470 C   0  0  0  0  0  1  0  0  0  0  0  0
  160.5100  207.9190  155.8130 N   0  0  0  0  0  0  0  0  0  0  0  0
  160.7730  207.4780  154.4700 C   0  0  0  0  0  0  0  0  0  0  0  0
  161.3020  206.5800  151.8760 C   0  0  0  0  0  0  0  0  0  0  0  0
  161.4210  208.9830  151.1380 N   0  0  0  0  0  2  0  0  0  0  0  0
  162.2220  210.1880  151.2860 C   0  0  0  0  0  2  0  0  0  0  0  0
  161.5700  211.3140  150.5560 C   0  0  0  0  0  0  0  0  0  0  0  0
  158.7140  213.8070  152.5150 C   0  0  0  0  0  2  0  0  0  0  0  0
  160.3190  213.3750  149.1200 C   0  0  0  0  0  3  0  0  0  0  0  0
  159.9320  213.1050  150.4340 C   0  0  0  0  0  0  0  0  0  0  0  0
  158.8380  212.3550  152.9790 C   0  0  0  0  0  2  0  0  0  0  0  0
  161.9550  211.5910  149.2390 C   0  0  0  0  0  3  0  0  0  0  0  0
  160.0800  211.7730  152.4770 N   0  0  0  0  0  2  0  0  0  0  0  0
  160.5380  212.0600  151.1490 C   0  0  0  0  0  0  0  0  0  0  0  0
  161.3310  212.6170  148.5230 C   0  0  0  0  0  3  0  0  0  0  0  0
  158.9170  213.8900  151.0700 N   0  0  0  0  0  2  0  0  0  0  0  0
  161.6720  206.0330  150.5280 C   0  0  0  0  0  2  0  0  0  0  0  0
  161.9710  206.5990  147.0610 C   0  0  1  0  0  3  0  0  0  0  0  0
  159.7070  205.9740  146.4820 O   0  0  0  0  0  0  0  0  0  0  0  0
  160.5420  206.3440  147.3480 C   0  0  0  0  0  0  0  0  0  0  0  0
  160.1810  206.5780  148.6910 N   0  0  0  0  0  2  0  0  0  0  0  0
  162.5010  207.1100  148.4000 C   0  0  1  0  0  3  0  0  0  0  0  0
  162.9370  208.5550  148.2550 C   0  0  0  0  0  1  0  0  0  0  0  0
  161.3510  207.0280  149.4190 C   0  0  2  0  0  3  0  0  0  0  0  0
  162.6870  205.3040  146.7100 C   0  0  0  0  0  2  0  0  0  0  0  0
  162.3270  204.2140  147.7010 C   0  0  0  0  0  2  0  0  0  0  0  0
  162.1020  203.0200  147.0140 O   0  0  0  0  0  0  0  0  0  0  0  0
  161.3040  199.5800  147.1560 C   0  0  0  0  0  2  0  0  0  0  0  0
  160.7430  202.7430  147.2040 C   0  0  1  0  0  3  0  0  0  0  0  0
  160.0810  200.9090  145.4580 C   0  0  0  0  0  2  0  0  0  0  0  0
  160.5030  203.1930  144.8390 O   0  0  0  0  0  1  0  0  0  0  0  0
  160.0440  202.3810  145.8790 C   0  0  2  0  0  3  0  0  0  0  0  0
  161.5720  200.5860  148.2680 C   0  0  0  0  0  2  0  0  0  0  0  0
  160.5320  201.7050  148.3130 C   0  0  0  0  0  2  0  0  0  0  0  0
  161.3950  200.2130  145.7770 C   0  0  0  0  0  2  0  0  0  0  0  0
  1  3  1  0  0  0  0
  2  9  1  0  0  0  0
  3  5  1  0  0  0  0
  5  9  2  0  0  0  0
  6  2  2  0  0  0  0
  8  7  1  0  0  0  0
  8  4  1  0  0  0  0
  9  8  1  0  0  0  0
 10  6  1  0  0  0  0
 10  3  2  0  0  0  0
 11 12  1  0  0  0  0
 11  6  1  0  0  0  0
 13 20  1  0  0  0  0
 13 12  1  0  0  0  0
 14 17  1  0  0  0  0
 15 16  1  0  0  0  0
 16 22  1  0  0  0  0
 16 20  2  0  0  0  0
 18 13  2  0  0  0  0
 19 17  1  0  0  0  0
 20 19  1  0  0  0  0
 21 15  2  0  0  0  0
 21 18  1  0  0  0  0
 22 14  1  0  0  0  0
 23 10  1  0  0  0  0
 24 31  1  1  0  0  0
 24 26  1  0  0  0  0
 24 28  1  0  0  0  0
 25 26  2  0  0  0  0
 26 27  1  0  0  0  0
 27 30  1  0  0  0  0
 28 29  1  6  0  0  0
 28 30  1  0  0  0  0
 30 23  1  1  0  0  0
 31 32  1  0  0  0  0
 33 32  1  0  0  0  0
 34 39  1  0  0  0  0
 35 33  1  6  0  0  0
 35 40  1  0  0  0  0
 36 41  1  0  0  0  0
 36 38  1  0  0  0  0
 38 37  1  6  0  0  0
 38 35  1  0  0  0  0
 39 40  1  0  0  0  0
 41 34  1  0  0  0  0
M  END
>  <MODEL>
5

>  <REMARK>
 VINA RESULT:      -7.2      4.549      8.690
  Name = 
  9 active torsions:
  status: ('A' for Active; 'I' for Inactive)
    1  A    between atoms: C_1  and  C_34
    2  A    between atoms: C_4  and  C_11
    3  A    between atoms: C_9  and  O_25
    4  A    between atoms: C_9  and  C_34
    5  A    between atoms: C_10  and  O_25
    6  A    between atoms: C_11  and  N_23
    7  A    between atoms: N_23  and  C_24
    8  A    between atoms: C_31  and  C_38
    9  A    between atoms: C_31  and  C_41
                            x       y       z     vdW  Elec       q    Type
                         _______ _______ _______ _____ _____    ______ ____

>  <TORSDO>
F 9

$$$$
=
 OpenBabel11052411233D

 41 45  0  0  1  0  0  0  0  0999 V2000
  162.7210  210.3180  152.3030 N   0  0  0  0  0  1  0  0  0  0  0  0
  161.7770  209.8620  148.2420 C   0  0  0  0  0  3  0  0  0  0  0  0
  162.3980  210.1360  150.9270 C   0  0  0  0  0  0  0  0  0  0  0  0
  161.8220  213.6340  148.6450 C   0  0  0  0  0  1  0  0  0  0  0  0
  162.1900  211.2280  150.1470 N   0  0  0  0  0  0  0  0  0  0  0  0
  161.9700  208.7110  149.0070 C   0  0  0  0  0  0  0  0  0  0  0  0
  161.3460  212.2490  146.6280 C   0  0  0  0  0  1  0  0  0  0  0  0
  161.6880  212.3180  148.0410 N   0  0  0  0  0  0  0  0  0  0  0  0
  161.8880  211.1290  148.8240 C   0  0  0  0  0  0  0  0  0  0  0  0
  162.3040  208.8430  150.3780 C   0  0  0  0  0  0  0  0  0  0  0  0
  161.8340  207.4490  148.3360 N   0  0  0  0  0  2  0  0  0  0  0  0
  160.7010  206.5430  148.4430 C   0  0  0  0  0  2  0  0  0  0  0  0
  160.9820  205.2980  147.6710 C   0  0  0  0  0  0  0  0  0  0  0  0
  160.5190  201.4650  149.4880 C   0  0  0  0  0  2  0  0  0  0  0  0
  161.5900  202.9870  146.1990 C   0  0  0  0  0  3  0  0  0  0  0  0
  161.2390  202.8850  147.5460 C   0  0  0  0  0  0  0  0  0  0  0  0
  160.8970  202.6450  150.3850 C   0  0  0  0  0  2  0  0  0  0  0  0
  161.3330  205.3940  146.3180 C   0  0  0  0  0  3  0  0  0  0  0  0
  160.6510  203.9040  149.6880 N   0  0  0  0  0  2  0  0  0  0  0  0
  160.9560  204.0390  148.2940 C   0  0  0  0  0  0  0  0  0  0  0  0
  161.6380  204.2430  145.5860 C   0  0  0  0  0  3  0  0  0  0  0  0
  161.1580  201.6040  148.1810 N   0  0  0  0  0  2  0  0  0  0  0  0
  162.6300  207.6610  151.2450 C   0  0  0  0  0  2  0  0  0  0  0  0
  160.8770  207.4080  154.2930 C   0  0  1  0  0  3  0  0  0  0  0  0
  159.2460  209.1310  153.8200 O   0  0  0  0  0  0  0  0  0  0  0  0
  160.1010  208.3030  153.4080 C   0  0  0  0  0  0  0  0  0  0  0  0
  160.3840  208.1320  152.0370 N   0  0  0  0  0  2  0  0  0  0  0  0
  161.6730  206.5570  153.3040 C   0  0  1  0  0  3  0  0  0  0  0  0
  161.2250  205.1120  153.4030 C   0  0  0  0  0  1  0  0  0  0  0  0
  161.3750  207.0850  151.8900 C   0  0  2  0  0  3  0  0  0  0  0  0
  161.8480  208.2090  155.1470 C   0  0  0  0  0  2  0  0  0  0  0  0
  161.1140  208.8960  156.2820 C   0  0  0  0  0  2  0  0  0  0  0  0
  160.7590  210.1870  155.8890 O   0  0  0  0  0  0  0  0  0  0  0  0
  158.2060  212.5730  155.3550 C   0  0  0  0  0  2  0  0  0  0  0  0
  160.2810  210.8010  157.0540 C   0  0  1  0  0  3  0  0  0  0  0  0
  160.2030  213.3760  156.5870 C   0  0  0  0  0  2  0  0  0  0  0  0
  162.2620  212.1840  156.9250 O   0  0  0  0  0  1  0  0  0  0  0  0
  160.9070  212.1950  157.2610 C   0  0  2  0  0  3  0  0  0  0  0  0
  158.1280  211.0980  155.7300 C   0  0  0  0  0  2  0  0  0  0  0  0
  158.7480  210.8040  157.0960 C   0  0  0  0  0  2  0  0  0  0  0  0
  159.6420  213.0510  155.2110 C   0  0  0  0  0  2  0  0  0  0  0  0
  2  9  2  0  0  0  0
  2  6  1  0  0  0  0
  3  1  1  0  0  0  0
  5  3  2  0  0  0  0
  6 10  2  0  0  0  0
  7  8  1  0  0  0  0
  8  4  1  0  0  0  0
  8  9  1  0  0  0  0
  9  5  1  0  0  0  0
 10  3  1  0  0  0  0
 10 23  1  0  0  0  0
 11 12  1  0  0  0  0
 11  6  1  0  0  0  0
 13 20  1  0  0  0  0
 13 12  1  0  0  0  0
 14 17  1  0  0  0  0
 15 16  1  0  0  0  0
 16 22  1  0  0  0  0
 16 20  2  0  0  0  0
 18 13  2  0  0  0  0
 19 17  1  0  0  0  0
 20 19  1  0  0  0  0
 21 15  2  0  0  0  0
 21 18  1  0  0  0  0
 22 14  1  0  0  0  0
 24 31  1  1  0  0  0
 26 25  2  0  0  0  0
 26 24  1  0  0  0  0
 27 26  1  0  0  0  0
 28 29  1  6  0  0  0
 28 24  1  0  0  0  0
 30 23  1  1  0  0  0
 30 27  1  0  0  0  0
 30 28  1  0  0  0  0
 31 32  1  0  0  0  0
 33 32  1  0  0  0  0
 34 39  1  0  0  0  0
 35 33  1  6  0  0  0
 35 40  1  0  0  0  0
 35 38  1  0  0  0  0
 36 38  1  0  0  0  0
 38 37  1  6  0  0  0
 39 40  1  0  0  0  0
 41 34  1  0  0  0  0
 41 36  1  0  0  0  0
M  END
>  <MODEL>
6

>  <REMARK>
 VINA RESULT:      -7.0      4.443      9.174
  Name = 
  9 active torsions:
  status: ('A' for Active; 'I' for Inactive)
    1  A    between atoms: C_1  and  C_34
    2  A    between atoms: C_4  and  C_11
    3  A    between atoms: C_9  and  O_25
    4  A    between atoms: C_9  and  C_34
    5  A    between atoms: C_10  and  O_25
    6  A    between atoms: C_11  and  N_23
    7  A    between atoms: N_23  and  C_24
    8  A    between atoms: C_31  and  C_38
    9  A    between atoms: C_31  and  C_41
                            x       y       z     vdW  Elec       q    Type
                         _______ _______ _______ _____ _____    ______ ____

>  <TORSDO>
F 9

$$$$
=
 OpenBabel11052411233D

 41 45  0  0  1  0  0  0  0  0999 V2000
  161.2390  205.4910  153.4670 N   0  0  0  0  0  1  0  0  0  0  0  0
  160.8670  209.6650  153.2840 C   0  0  0  0  0  3  0  0  0  0  0  0
  161.1140  206.9080  153.3770 C   0  0  0  0  0  0  0  0  0  0  0  0
  160.2500  208.9560  156.9590 C   0  0  0  0  0  1  0  0  0  0  0  0
  160.8240  207.6180  154.4980 N   0  0  0  0  0  0  0  0  0  0  0  0
  161.1530  208.9770  152.1040 C   0  0  0  0  0  0  0  0  0  0  0  0
  160.2470  211.1230  155.7290 C   0  0  0  0  0  1  0  0  0  0  0  0
  160.4040  209.6770  155.7060 N   0  0  0  0  0  0  0  0  0  0  0  0
  160.7010  208.9730  154.4890 C   0  0  0  0  0  0  0  0  0  0  0  0
  161.2970  207.5680  152.1470 C   0  0  0  0  0  0  0  0  0  0  0  0
  161.3050  209.7590  150.9100 N   0  0  0  0  0  2  0  0  0  0  0  0
  162.0080  211.0280  150.8050 C   0  0  0  0  0  2  0  0  0  0  0  0
  161.0710  212.0800  150.3170 C   0  0  0  0  0  0  0  0  0  0  0  0
  161.2590  213.4550  146.2820 C   0  0  0  0  0  2  0  0  0  0  0  0
  159.3330  214.1140  149.4670 C   0  0  0  0  0  3  0  0  0  0  0  0
  160.3190  213.6310  148.6040 C   0  0  0  0  0  0  0  0  0  0  0  0
  162.5490  212.9530  146.9310 C   0  0  0  0  0  2  0  0  0  0  0  0
  160.0790  212.5670  151.1780 C   0  0  0  0  0  3  0  0  0  0  0  0
  162.2410  212.1950  148.1400 N   0  0  0  0  0  2  0  0  0  0  0  0
  161.2060  212.6310  149.0320 C   0  0  0  0  0  0  0  0  0  0  0  0
  159.2150  213.5820  150.7550 C   0  0  0  0  0  3  0  0  0  0  0  0
  160.4360  214.1450  147.2730 N   0  0  0  0  0  2  0  0  0  0  0  0
  161.7060  206.7630  150.9460 C   0  0  0  0  0  2  0  0  0  0  0  0
  162.1160  206.6270  147.4480 C   0  0  1  0  0  3  0  0  0  0  0  0
  159.8590  205.9250  146.9310 O   0  0  0  0  0  0  0  0  0  0  0  0
  160.6750  206.4500  147.7330 C   0  0  0  0  0  0  0  0  0  0  0  0
  160.2790  206.9500  148.9910 N   0  0  0  0  0  2  0  0  0  0  0  0
  162.6150  207.3870  148.6750 C   0  0  1  0  0  3  0  0  0  0  0  0
  163.0810  208.7690  148.2610 C   0  0  0  0  0  1  0  0  0  0  0  0
  161.4350  207.5220  149.6520 C   0  0  2  0  0  3  0  0  0  0  0  0
  162.8190  205.2790  147.3830 C   0  0  0  0  0  2  0  0  0  0  0  0
  161.8100  204.1650  147.1770 C   0  0  0  0  0  2  0  0  0  0  0  0
  161.9410  203.2270  148.2030 O   0  0  0  0  0  0  0  0  0  0  0  0
  161.4210  202.4530  151.6120 C   0  0  0  0  0  2  0  0  0  0  0  0
  160.6290  202.8580  148.5240 C   0  0  1  0  0  3  0  0  0  0  0  0
  160.7770  200.6930  149.9880 C   0  0  0  0  0  2  0  0  0  0  0  0
  161.2070  200.6890  147.6230 O   0  0  0  0  0  1  0  0  0  0  0  0
  160.4760  201.3280  148.6270 C   0  0  2  0  0  3  0  0  0  0  0  0
  161.1970  203.7470  150.8400 C   0  0  0  0  0  2  0  0  0  0  0  0
  160.1220  203.6100  149.7610 C   0  0  0  0  0  2  0  0  0  0  0  0
  161.9440  201.3380  150.7200 C   0  0  0  0  0  2  0  0  0  0  0  0
  2  9  1  0  0  0  0
  3  1  1  0  0  0  0
  3  5  1  0  0  0  0
  6 10  1  0  0  0  0
  6  2  2  0  0  0  0
  8  7  1  0  0  0  0
  8  4  1  0  0  0  0
  9  5  2  0  0  0  0
  9  8  1  0  0  0  0
 10  3  2  0  0  0  0
 11  6  1  0  0  0  0
 12 11  1  0  0  0  0
 13 12  1  0  0  0  0
 13 18  1  0  0  0  0
 14 17  1  0  0  0  0
 14 22  1  0  0  0  0
 15 21  1  0  0  0  0
 16 20  1  0  0  0  0
 16 15  2  0  0  0  0
 17 19  1  0  0  0  0
 19 20  1  0  0  0  0
 20 13  2  0  0  0  0
 21 18  2  0  0  0  0
 22 16  1  0  0  0  0
 23 10  1  0  0  0  0
 24 31  1  1  0  0  0
 24 26  1  0  0  0  0
 24 28  1  0  0  0  0
 25 26  2  0  0  0  0
 26 27  1  0  0  0  0
 27 30  1  0  0  0  0
 28 29  1  6  0  0  0
 28 30  1  0  0  0  0
 30 23  1  1  0  0  0
 32 31  1  0  0  0  0
 32 33  1  0  0  0  0
 35 33  1  1  0  0  0
 35 38  1  0  0  0  0
 35 40  1  0  0  0  0
 36 41  1  0  0  0  0
 38 37  1  6  0  0  0
 38 36  1  0  0  0  0
 39 34  1  0  0  0  0
 40 39  1  0  0  0  0
 41 34  1  0  0  0  0
M  END
>  <MODEL>
7

>  <REMARK>
 VINA RESULT:      -6.9      3.872      8.885
  Name = 
  9 active torsions:
  status: ('A' for Active; 'I' for Inactive)
    1  A    between atoms: C_1  and  C_34
    2  A    between atoms: C_4  and  C_11
    3  A    between atoms: C_9  and  O_25
    4  A    between atoms: C_9  and  C_34
    5  A    between atoms: C_10  and  O_25
    6  A    between atoms: C_11  and  N_23
    7  A    between atoms: N_23  and  C_24
    8  A    between atoms: C_31  and  C_38
    9  A    between atoms: C_31  and  C_41
                            x       y       z     vdW  Elec       q    Type
                         _______ _______ _______ _____ _____    ______ ____

>  <TORSDO>
F 9

$$$$
=
 OpenBabel11052411233D

 41 45  0  0  1  0  0  0  0  0999 V2000
  162.0790  205.7070  151.7200 N   0  0  0  0  0  1  0  0  0  0  0  0
  162.0030  207.5100  147.9330 C   0  0  0  0  0  3  0  0  0  0  0  0
  162.0600  206.3440  150.4460 C   0  0  0  0  0  0  0  0  0  0  0  0
  161.5920  203.8340  147.0900 C   0  0  0  0  0  1  0  0  0  0  0  0
  161.9240  205.5830  149.3290 N   0  0  0  0  0  0  0  0  0  0  0  0
  162.1570  208.3310  149.0510 C   0  0  0  0  0  0  0  0  0  0  0  0
  161.7060  205.8150  145.5820 C   0  0  0  0  0  1  0  0  0  0  0  0
  161.7300  205.2730  146.9320 N   0  0  0  0  0  0  0  0  0  0  0  0
  161.8870  206.1230  148.0810 C   0  0  0  0  0  0  0  0  0  0  0  0
  162.1710  207.7440  150.3410 C   0  0  0  0  0  0  0  0  0  0  0  0
  162.2730  209.7430  148.8160 N   0  0  0  0  0  2  0  0  0  0  0  0
  161.1690  210.6810  148.6940 C   0  0  0  0  0  2  0  0  0  0  0  0
  161.6380  211.9200  148.0100 C   0  0  0  0  0  0  0  0  0  0  0  0
  158.9950  214.1550  145.5140 C   0  0  0  0  0  2  0  0  0  0  0  0
  162.5880  214.2050  146.6860 C   0  0  0  0  0  3  0  0  0  0  0  0
  161.2910  213.7480  146.4460 C   0  0  0  0  0  0  0  0  0  0  0  0
  158.7700  212.6470  145.6310 C   0  0  0  0  0  2  0  0  0  0  0  0
  162.9380  212.3850  148.2480 C   0  0  0  0  0  3  0  0  0  0  0  0
  159.5010  212.1180  146.7790 N   0  0  0  0  0  2  0  0  0  0  0  0
  160.8180  212.5920  147.0880 C   0  0  0  0  0  0  0  0  0  0  0  0
  163.4120  213.5220  147.5870 C   0  0  0  0  0  3  0  0  0  0  0  0
  160.4260  214.4520  145.5490 N   0  0  0  0  0  2  0  0  0  0  0  0
  162.2280  208.5630  151.5980 C   0  0  0  0  0  2  0  0  0  0  0  0
  160.3990  209.9400  154.2780 C   0  0  1  0  0  3  0  0  0  0  0  0
  158.7780  211.1250  152.9280 O   0  0  0  0  0  0  0  0  0  0  0  0
  159.6440  210.2170  153.0370 C   0  0  0  0  0  0  0  0  0  0  0  0
  159.9620  209.3490  151.9720 N   0  0  0  0  0  2  0  0  0  0  0  0
  161.2210  208.7060  153.9090 C   0  0  1  0  0  3  0  0  0  0  0  0
  160.7730  207.5270  154.7510 C   0  0  0  0  0  1  0  0  0  0  0  0
  160.9580  208.3980  152.4250 C   0  0  2  0  0  3  0  0  0  0  0  0
  161.3470  211.0870  154.5970 C   0  0  0  0  0  2  0  0  0  0  0  0
  160.8140  211.9080  155.7550 C   0  0  0  0  0  2  0  0  0  0  0  0
  159.4510  212.1390  155.5700 O   0  0  0  0  0  0  0  0  0  0  0  0
  156.1060  212.9590  156.3670 C   0  0  0  0  0  2  0  0  0  0  0  0
  159.2530  213.4700  155.9610 C   0  0  1  0  0  3  0  0  0  0  0  0
  157.1840  214.3620  154.6280 C   0  0  0  0  0  2  0  0  0  0  0  0
  159.3230  213.9880  153.5990 O   0  0  0  0  0  1  0  0  0  0  0  0
  158.7050  214.3280  154.8040 C   0  0  2  0  0  3  0  0  0  0  0  0
  157.2700  212.5450  157.2600 C   0  0  0  0  0  2  0  0  0  0  0  0
  158.4150  213.5580  157.2420 C   0  0  0  0  0  2  0  0  0  0  0  0
  156.5060  213.0280  154.9020 C   0  0  0  0  0  2  0  0  0  0  0  0
  2  9  2  0  0  0  0
  2  6  1  0  0  0  0
  3  1  1  0  0  0  0
  5  3  2  0  0  0  0
  6 10  2  0  0  0  0
  7  8  1  0  0  0  0
  8  4  1  0  0  0  0
  8  9  1  0  0  0  0
  9  5  1  0  0  0  0
 10  3  1  0  0  0  0
 10 23  1  0  0  0  0
 11  6  1  0  0  0  0
 12 11  1  0  0  0  0
 13 18  1  0  0  0  0
 13 12  1  0  0  0  0
 14 22  1  0  0  0  0
 14 17  1  0  0  0  0
 15 21  1  0  0  0  0
 16 15  2  0  0  0  0
 16 20  1  0  0  0  0
 17 19  1  0  0  0  0
 19 20  1  0  0  0  0
 20 13  2  0  0  0  0
 21 18  2  0  0  0  0
 22 16  1  0  0  0  0
 24 31  1  6  0  0  0
 25 26  2  0  0  0  0
 26 24  1  0  0  0  0
 27 30  1  0  0  0  0
 27 26  1  0  0  0  0
 28 24  1  0  0  0  0
 28 29  1  1  0  0  0
 30 23  1  6  0  0  0
 30 28  1  0  0  0  0
 31 32  1  0  0  0  0
 33 32  1  0  0  0  0
 34 39  1  0  0  0  0
 35 33  1  6  0  0  0
 35 40  1  0  0  0  0
 36 38  1  0  0  0  0
 36 41  1  0  0  0  0
 38 37  1  6  0  0  0
 38 35  1  0  0  0  0
 40 39  1  0  0  0  0
 41 34  1  0  0  0  0
M  END
>  <MODEL>
8

>  <REMARK>
 VINA RESULT:      -6.9      4.145      9.999
  Name = 
  9 active torsions:
  status: ('A' for Active; 'I' for Inactive)
    1  A    between atoms: C_1  and  C_34
    2  A    between atoms: C_4  and  C_11
    3  A    between atoms: C_9  and  O_25
    4  A    between atoms: C_9  and  C_34
    5  A    between atoms: C_10  and  O_25
    6  A    between atoms: C_11  and  N_23
    7  A    between atoms: N_23  and  C_24
    8  A    between atoms: C_31  and  C_38
    9  A    between atoms: C_31  and  C_41
                            x       y       z     vdW  Elec       q    Type
                         _______ _______ _______ _____ _____    ______ ____

>  <TORSDO>
F 9

$$$$
=
 OpenBabel11052411233D

 41 45  0  0  1  0  0  0  0  0999 V2000
  161.2790  207.9900  153.9790 N   0  0  0  0  0  1  0  0  0  0  0  0
  159.9410  211.9540  153.6740 C   0  0  0  0  0  3  0  0  0  0  0  0
  160.8130  209.3310  153.8500 C   0  0  0  0  0  0  0  0  0  0  0  0
  161.2510  211.8110  157.2320 C   0  0  0  0  0  1  0  0  0  0  0  0
  160.9180  210.1710  154.9120 N   0  0  0  0  0  0  0  0  0  0  0  0
  159.8000  211.1240  152.5610 C   0  0  0  0  0  0  0  0  0  0  0  0
  160.1990  213.7000  155.9920 C   0  0  0  0  0  1  0  0  0  0  0  0
  160.6480  212.3160  156.0080 N   0  0  0  0  0  0  0  0  0  0  0  0
  160.5040  211.4660  154.8590 C   0  0  0  0  0  0  0  0  0  0  0  0
  160.2590  209.7850  152.6380 C   0  0  0  0  0  0  0  0  0  0  0  0
  159.2090  211.6990  151.3860 N   0  0  0  0  0  2  0  0  0  0  0  0
  159.4290  213.0490  150.8930 C   0  0  0  0  0  2  0  0  0  0  0  0
  158.7540  213.2170  149.5740 C   0  0  0  0  0  0  0  0  0  0  0  0
  161.0040  213.0880  145.9500 C   0  0  0  0  0  2  0  0  0  0  0  0
  157.4480  213.6080  147.1210 C   0  0  0  0  0  3  0  0  0  0  0  0
  158.8370  213.4760  147.1590 C   0  0  0  0  0  0  0  0  0  0  0  0
  161.7030  213.5920  147.2130 C   0  0  0  0  0  2  0  0  0  0  0  0
  157.3600  213.3480  149.5290 C   0  0  0  0  0  3  0  0  0  0  0  0
  160.9290  213.2250  148.3960 N   0  0  0  0  0  2  0  0  0  0  0  0
  159.4980  213.3030  148.3860 C   0  0  0  0  0  0  0  0  0  0  0  0
  156.7100  213.5450  148.3070 C   0  0  0  0  0  3  0  0  0  0  0  0
  159.6040  213.5100  145.9510 N   0  0  0  0  0  2  0  0  0  0  0  0
  160.2420  208.8590  151.4570 C   0  0  0  0  0  2  0  0  0  0  0  0
  162.0460  206.7200  149.3120 C   0  0  1  0  0  3  0  0  0  0  0  0
  162.8720  208.4450  147.8310 O   0  0  0  0  0  0  0  0  0  0  0  0
  162.3910  208.1110  148.9450 C   0  0  0  0  0  0  0  0  0  0  0  0
  162.1560  209.0450  149.9750 N   0  0  0  0  0  2  0  0  0  0  0  0
  161.6100  206.8510  150.7710 C   0  0  1  0  0  3  0  0  0  0  0  0
  162.5830  206.1010  151.6600 C   0  0  0  0  0  1  0  0  0  0  0  0
  161.6400  208.3450  151.1340 C   0  0  2  0  0  3  0  0  0  0  0  0
  160.8670  206.2250  148.4880 C   0  0  0  0  0  2  0  0  0  0  0  0
  161.3050  205.1200  147.5460 C   0  0  0  0  0  2  0  0  0  0  0  0
  161.6320  203.9840  148.2880 O   0  0  0  0  0  0  0  0  0  0  0  0
  161.7140  201.2680  150.5490 C   0  0  0  0  0  2  0  0  0  0  0  0
  160.4460  203.2400  148.3510 C   0  0  1  0  0  3  0  0  0  0  0  0
  161.1170  200.7140  148.2070 C   0  0  0  0  0  2  0  0  0  0  0  0
  161.2070  202.1870  146.3100 O   0  0  0  0  0  1  0  0  0  0  0  0
  160.5380  201.9500  147.5130 C   0  0  2  0  0  3  0  0  0  0  0  0
  161.1950  202.6910  150.7200 C   0  0  0  0  0  2  0  0  0  0  0  0
  160.0130  203.0000  149.8020 C   0  0  0  0  0  2  0  0  0  0  0  0
  162.2660  201.0250  149.1540 C   0  0  0  0  0  2  0  0  0  0  0  0
  2  9  1  0  0  0  0
  3  1  1  0  0  0  0
  3  5  1  0  0  0  0
  6 10  1  0  0  0  0
  6  2  2  0  0  0  0
  7  8  1  0  0  0  0
  8  4  1  0  0  0  0
  9  5  2  0  0  0  0
  9  8  1  0  0  0  0
 10  3  2  0  0  0  0
 11  6  1  0  0  0  0
 12 11  1  0  0  0  0
 13 12  1  0  0  0  0
 14 22  1  0  0  0  0
 14 17  1  0  0  0  0
 15 16  2  0  0  0  0
 15 21  1  0  0  0  0
 16 20  1  0  0  0  0
 17 19  1  0  0  0  0
 18 13  1  0  0  0  0
 20 19  1  0  0  0  0
 20 13  2  0  0  0  0
 21 18  2  0  0  0  0
 22 16  1  0  0  0  0
 23 10  1  0  0  0  0
 24 31  1  6  0  0  0
 24 28  1  0  0  0  0
 25 26  2  0  0  0  0
 26 24  1  0  0  0  0
 26 27  1  0  0  0  0
 27 30  1  0  0  0  0
 28 30  1  0  0  0  0
 28 29  1  1  0  0  0
 30 23  1  6  0  0  0
 32 33  1  0  0  0  0
 32 31  1  0  0  0  0
 34 39  1  0  0  0  0
 35 33  1  1  0  0  0
 35 40  1  0  0  0  0
 36 41  1  0  0  0  0
 38 37  1  6  0  0  0
 38 36  1  0  0  0  0
 38 35  1  0  0  0  0
 40 39  1  0  0  0  0
 41 34  1  0  0  0  0
M  END
>  <MODEL>
9

>  <REMARK>
 VINA RESULT:      -6.1      3.711      8.922
  Name = 
  9 active torsions:
  status: ('A' for Active; 'I' for Inactive)
    1  A    between atoms: C_1  and  C_34
    2  A    between atoms: C_4  and  C_11
    3  A    between atoms: C_9  and  O_25
    4  A    between atoms: C_9  and  C_34
    5  A    between atoms: C_10  and  O_25
    6  A    between atoms: C_11  and  N_23
    7  A    between atoms: N_23  and  C_24
    8  A    between atoms: C_31  and  C_38
    9  A    between atoms: C_31  and  C_41
                            x       y       z     vdW  Elec       q    Type
                         _______ _______ _______ _____ _____    ______ ____

>  <TORSDO>
F 9

$$$$
