=
 OpenBabel11052410013D

 39 42  0  0  1  0  0  0  0  0999 V2000
  161.5280  209.3920  150.3450 C   0  0  2  0  0  3  0  0  0  0  0  0
  162.3350  207.9960  148.4330 C   0  0  0  0  0  3  0  0  0  0  0  0
  160.6670  207.0530  149.9130 C   0  0  0  0  0  3  0  0  0  0  0  0
  161.5050  208.1170  149.5520 C   0  0  0  0  0  0  0  0  0  0  0  0
  161.4840  205.7560  148.0320 C   0  0  0  0  0  0  0  0  0  0  0  0
  162.3240  206.8200  147.6750 C   0  0  0  0  0  3  0  0  0  0  0  0
  160.6580  205.8790  149.1550 C   0  0  0  0  0  3  0  0  0  0  0  0
  161.4540  202.4190  146.8020 C   0  0  0  0  0  0  0  0  0  0  0  0
  161.5420  200.3660  147.9840 O   0  0  0  0  0  0  0  0  0  0  0  0
  160.1450  200.8820  144.7290 C   0  0  0  0  0  3  0  0  0  0  0  0
  160.7270  200.2370  145.7500 C   0  0  0  0  0  0  0  0  0  0  0  0
  161.2600  200.9710  146.9150 C   0  0  0  0  0  0  0  0  0  0  0  0
  161.4590  204.5200  147.2310 C   0  0  0  0  0  0  0  0  0  0  0  0
  159.7230  202.6430  144.7780 S   0  0  0  0  0  0  0  0  0  0  0  0
  160.9620  198.5040  145.6260 Cl  0  0  0  0  0  0  0  0  0  0  0  0
  161.3150  203.1330  145.5080 C   0  0  1  0  0  3  0  0  0  0  0  0
  161.2920  204.5200  145.9460 N   0  0  0  0  0  0  0  0  0  0  0  0
  161.5430  203.2210  147.8060 N   0  0  0  0  0  0  0  0  0  0  0  0
  161.4030  212.1530  148.1720 C   0  0  1  0  0  3  0  0  0  0  0  0
  161.3040  212.6560  149.5350 N   0  0  0  0  0  2  0  0  0  0  0  0
  162.3360  210.4850  149.6360 C   0  0  2  0  0  3  0  0  0  0  0  0
  162.2130  211.8360  150.3210 C   0  0  0  0  0  2  0  0  0  0  0  0
  161.8150  210.6970  148.2350 C   0  0  0  0  0  2  0  0  0  0  0  0
  159.9060  211.7250  146.3580 O   0  0  0  0  0  0  0  0  0  0  0  0
  160.0970  212.2990  147.4660 C   0  0  0  0  0  0  0  0  0  0  0  0
  159.0720  213.1030  148.0520 N   0  0  0  0  0  2  0  0  0  0  0  0
  157.7820  213.3180  147.4160 C   0  0  0  0  0  3  0  0  0  0  0  0
  157.8860  214.4320  146.3930 C   0  0  0  0  0  1  0  0  0  0  0  0
  156.7610  213.7010  148.4670 C   0  0  0  0  0  1  0  0  0  0  0  0
  161.9880  209.1740  151.6540 O   0  0  0  0  0  0  0  0  0  0  0  0
  160.8410  208.9520  152.4230 C   0  0  1  0  0  3  0  0  0  0  0  0
  161.2520  208.5160  153.8210 C   0  0  0  0  0  2  0  0  0  0  0  0
  160.0540  206.8660  155.0540 O   0  0  0  0  0  0  0  0  0  0  0  0
  161.2230  206.0670  153.2130 N   0  0  0  0  0  1  0  0  0  0  0  0
  160.8100  207.1160  154.0800 C   0  0  0  0  0  0  0  0  0  0  0  0
  160.0580  210.1780  152.5010 N   0  0  0  0  0  2  0  0  0  0  0  0
  161.0390  211.4250  154.4520 C   0  0  0  0  0  1  0  0  0  0  0  0
  158.3660  211.1090  154.3590 S   0  0  0  0  0  0  0  0  0  0  0  0
  159.8580  210.9120  153.7110 C   0  0  0  0  0  0  0  0  0  0  0  0
  1 30  1  1  0  0  0
  2  4  1  0  0  0  0
  4  3  2  0  0  0  0
  4  1  1  0  0  0  0
  5  7  2  0  0  0  0
  6  5  1  0  0  0  0
  6  2  2  0  0  0  0
  7  3  1  0  0  0  0
  8 12  1  0  0  0  0
  8 18  2  0  0  0  0
 10 14  1  0  0  0  0
 10 11  2  0  0  0  0
 11 12  1  0  0  0  0
 12  9  2  0  0  0  0
 13 18  1  0  0  0  0
 13  5  1  0  0  0  0
 15 11  1  0  0  0  0
 16 14  1  1  0  0  0
 16 17  1  0  0  0  0
 16  8  1  0  0  0  0
 17 13  2  0  0  0  0
 19 25  1  1  0  0  0
 19 23  1  0  0  0  0
 19 20  1  0  0  0  0
 20 22  1  0  0  0  0
 21 22  1  0  0  0  0
 21  1  1  1  0  0  0
 23 21  1  0  0  0  0
 24 25  2  0  0  0  0
 25 26  1  0  0  0  0
 27 26  1  0  0  0  0
 27 29  1  0  0  0  0
 28 27  1  0  0  0  0
 30 31  1  0  0  0  0
 31 36  1  0  0  0  0
 31 32  1  1  0  0  0
 32 35  1  0  0  0  0
 34 35  1  0  0  0  0
 35 33  2  0  0  0  0
 36 39  1  0  0  0  0
 39 38  2  0  0  0  0
 39 37  1  0  0  0  0
M  END
>  <MODEL>
1

>  <REMARK>
 VINA RESULT:      -5.8      0.000      0.000
  Name = 
  11 active torsions:
  status: ('A' for Active; 'I' for Inactive)
    1  A    between atoms: C_2  and  C_7
    2  A    between atoms: C_3  and  N_13
    3  A    between atoms: C_10  and  C_24
    4  A    between atoms: C_10  and  C_32
    5  A    between atoms: C_14  and  C_33
    6  A    between atoms: N_19  and  C_24
    7  A    between atoms: N_19  and  C_28
    8  A    between atoms: O_21  and  C_24
    9  A    between atoms: O_21  and  C_33
   10  A    between atoms: C_23  and  C_27
   11  A    between atoms: C_26  and  C_33
                            x       y       z     vdW  Elec       q    Type
                         _______ _______ _______ _____ _____    ______ ____

>  <TORSDO>
F 11

$$$$
=
 OpenBabel11052410013D

 39 42  0  0  1  0  0  0  0  0999 V2000
  161.9600  206.0910  149.2190 C   0  0  2  0  0  3  0  0  0  0  0  0
  161.0750  206.7310  151.4690 C   0  0  0  0  0  3  0  0  0  0  0  0
  162.2360  208.4170  150.1750 C   0  0  0  0  0  3  0  0  0  0  0  0
  161.7570  207.1050  150.3070 C   0  0  0  0  0  0  0  0  0  0  0  0
  161.3410  208.9750  152.3610 C   0  0  0  0  0  0  0  0  0  0  0  0
  160.8670  207.6620  152.4920 C   0  0  0  0  0  3  0  0  0  0  0  0
  162.0280  209.3460  151.1980 C   0  0  0  0  0  3  0  0  0  0  0  0
  160.2350  211.6310  154.4530 C   0  0  0  0  0  0  0  0  0  0  0  0
  158.5480  213.2530  154.0790 O   0  0  0  0  0  0  0  0  0  0  0  0
  159.7290  212.1150  157.2600 C   0  0  0  0  0  3  0  0  0  0  0  0
  159.1950  212.9400  156.3490 C   0  0  0  0  0  0  0  0  0  0  0  0
  159.2800  212.6460  154.9050 C   0  0  0  0  0  0  0  0  0  0  0  0
  161.1150  209.9630  153.4290 C   0  0  0  0  0  0  0  0  0  0  0  0
  160.3660  210.4670  156.8560 S   0  0  0  0  0  0  0  0  0  0  0  0
  158.4960  214.4530  156.8930 Cl  0  0  0  0  0  0  0  0  0  0  0  0
  161.2410  211.0340  155.3660 C   0  0  1  0  0  3  0  0  0  0  0  0
  161.7190  209.9120  154.5740 N   0  0  0  0  0  0  0  0  0  0  0  0
  160.1600  211.0150  153.3230 N   0  0  0  0  0  0  0  0  0  0  0  0
  161.9040  205.8580  145.7120 C   0  0  1  0  0  3  0  0  0  0  0  0
  160.7490  206.6440  146.1230 N   0  0  0  0  0  2  0  0  0  0  0  0
  162.3690  206.7530  147.8980 C   0  0  2  0  0  3  0  0  0  0  0  0
  161.2120  207.4720  147.2250 C   0  0  0  0  0  2  0  0  0  0  0  0
  162.8210  205.7070  146.9070 C   0  0  0  0  0  2  0  0  0  0  0  0
  162.2780  203.5490  145.2200 O   0  0  0  0  0  0  0  0  0  0  0  0
  161.4730  204.5210  145.2090 C   0  0  0  0  0  0  0  0  0  0  0  0
  160.1460  204.3580  144.7060 N   0  0  0  0  0  2  0  0  0  0  0  0
  159.6570  203.0960  144.1740 C   0  0  0  0  0  3  0  0  0  0  0  0
  158.1960  203.2270  143.7880 C   0  0  0  0  0  1  0  0  0  0  0  0
  159.7990  202.0170  145.2270 C   0  0  0  0  0  1  0  0  0  0  0  0
  160.8280  205.2740  149.0620 O   0  0  0  0  0  0  0  0  0  0  0  0
  161.2130  204.0070  149.5130 C   0  0  1  0  0  3  0  0  0  0  0  0
  160.3180  203.5940  150.6700 C   0  0  0  0  0  2  0  0  0  0  0  0
  160.8860  203.7030  152.9820 O   0  0  0  0  0  0  0  0  0  0  0  0
  162.2000  202.2720  151.7100 N   0  0  0  0  0  1  0  0  0  0  0  0
  161.1410  203.2120  151.8520 C   0  0  0  0  0  0  0  0  0  0  0  0
  161.0890  203.0430  148.4270 N   0  0  0  0  0  2  0  0  0  0  0  0
  161.5490  200.5860  148.1560 C   0  0  0  0  0  1  0  0  0  0  0  0
  159.1930  201.3270  149.2310 S   0  0  0  0  0  0  0  0  0  0  0  0
  160.6680  201.6890  148.6170 C   0  0  0  0  0  0  0  0  0  0  0  0
  1 30  1  6  0  0  0
  1  4  1  0  0  0  0
  2  6  1  0  0  0  0
  3  4  1  0  0  0  0
  3  7  2  0  0  0  0
  4  2  2  0  0  0  0
  5  6  2  0  0  0  0
  5 13  1  0  0  0  0
  7  5  1  0  0  0  0
  8 12  1  0  0  0  0
  9 12  2  0  0  0  0
 11 15  1  0  0  0  0
 11 10  2  0  0  0  0
 12 11  1  0  0  0  0
 13 17  2  0  0  0  0
 14 10  1  0  0  0  0
 16  8  1  6  0  0  0
 16 14  1  0  0  0  0
 17 16  1  0  0  0  0
 18 13  1  0  0  0  0
 18  8  2  0  0  0  0
 19 25  1  1  0  0  0
 19 20  1  0  0  0  0
 19 23  1  0  0  0  0
 20 22  1  0  0  0  0
 21  1  1  1  0  0  0
 22 21  1  0  0  0  0
 23 21  1  0  0  0  0
 25 24  2  0  0  0  0
 26 25  1  0  0  0  0
 27 26  1  0  0  0  0
 27 29  1  0  0  0  0
 28 27  1  0  0  0  0
 30 31  1  0  0  0  0
 31 32  1  1  0  0  0
 32 35  1  0  0  0  0
 34 35  1  0  0  0  0
 35 33  2  0  0  0  0
 36 39  1  0  0  0  0
 36 31  1  0  0  0  0
 37 39  1  0  0  0  0
 39 38  2  0  0  0  0
M  END
>  <MODEL>
2

>  <REMARK>
 VINA RESULT:      -5.6      4.669      9.680
  Name = 
  11 active torsions:
  status: ('A' for Active; 'I' for Inactive)
    1  A    between atoms: C_2  and  C_7
    2  A    between atoms: C_3  and  N_13
    3  A    between atoms: C_10  and  C_24
    4  A    between atoms: C_10  and  C_32
    5  A    between atoms: C_14  and  C_33
    6  A    between atoms: N_19  and  C_24
    7  A    between atoms: N_19  and  C_28
    8  A    between atoms: O_21  and  C_24
    9  A    between atoms: O_21  and  C_33
   10  A    between atoms: C_23  and  C_27
   11  A    between atoms: C_26  and  C_33
                            x       y       z     vdW  Elec       q    Type
                         _______ _______ _______ _____ _____    ______ ____

>  <TORSDO>
F 11

$$$$
=
 OpenBabel11052410013D

 39 42  0  0  1  0  0  0  0  0999 V2000
  161.6390  209.5280  150.3990 C   0  0  2  0  0  3  0  0  0  0  0  0
  162.3730  208.1500  148.4460 C   0  0  0  0  0  3  0  0  0  0  0  0
  160.7940  207.1770  150.0020 C   0  0  0  0  0  3  0  0  0  0  0  0
  161.5970  208.2550  149.6040 C   0  0  0  0  0  0  0  0  0  0  0  0
  161.5380  205.8980  148.0780 C   0  0  0  0  0  0  0  0  0  0  0  0
  162.3430  206.9760  147.6850 C   0  0  0  0  0  3  0  0  0  0  0  0
  160.7660  206.0050  149.2420 C   0  0  0  0  0  3  0  0  0  0  0  0
  161.4530  202.5640  146.8430 C   0  0  0  0  0  0  0  0  0  0  0  0
  161.5050  200.5080  148.0210 O   0  0  0  0  0  0  0  0  0  0  0  0
  160.1200  201.0530  144.7660 C   0  0  0  0  0  3  0  0  0  0  0  0
  160.6900  200.3970  145.7870 C   0  0  0  0  0  0  0  0  0  0  0  0
  161.2340  201.1190  146.9530 C   0  0  0  0  0  0  0  0  0  0  0  0
  161.4930  204.6650  147.2750 C   0  0  0  0  0  0  0  0  0  0  0  0
  159.7280  202.8210  144.8170 S   0  0  0  0  0  0  0  0  0  0  0  0
  160.8960  198.6600  145.6600 Cl  0  0  0  0  0  0  0  0  0  0  0  0
  161.3270  203.2830  145.5500 C   0  0  1  0  0  3  0  0  0  0  0  0
  161.3270  204.6690  145.9900 N   0  0  0  0  0  0  0  0  0  0  0  0
  161.5550  203.3630  147.8490 N   0  0  0  0  0  0  0  0  0  0  0  0
  161.4150  212.2360  148.1690 C   0  0  1  0  0  3  0  0  0  0  0  0
  161.3070  212.7650  149.5220 N   0  0  0  0  0  2  0  0  0  0  0  0
  162.4080  210.6310  149.6630 C   0  0  2  0  0  3  0  0  0  0  0  0
  162.2450  211.9920  150.3200 C   0  0  0  0  0  2  0  0  0  0  0  0
  161.8730  210.7950  148.2610 C   0  0  0  0  0  2  0  0  0  0  0  0
  159.9500  211.7940  146.3330 O   0  0  0  0  0  0  0  0  0  0  0  0
  160.1020  212.3260  147.4670 C   0  0  0  0  0  0  0  0  0  0  0  0
  159.0240  213.0270  148.0900 N   0  0  0  0  0  2  0  0  0  0  0  0
  157.7210  213.1830  147.4620 C   0  0  0  0  0  3  0  0  0  0  0  0
  157.7530  214.3370  146.4790 C   0  0  0  0  0  1  0  0  0  0  0  0
  156.6800  213.4640  148.5260 C   0  0  0  0  0  1  0  0  0  0  0  0
  162.1520  209.3100  151.6890 O   0  0  0  0  0  0  0  0  0  0  0  0
  161.4720  210.2070  152.5200 C   0  0  1  0  0  3  0  0  0  0  0  0
  159.9770  210.0820  152.2750 C   0  0  0  0  0  2  0  0  0  0  0  0
  158.1740  211.1790  153.3820 O   0  0  0  0  0  0  0  0  0  0  0  0
  159.8350  212.5850  152.5710 N   0  0  0  0  0  1  0  0  0  0  0  0
  159.2670  211.2960  152.7690 C   0  0  0  0  0  0  0  0  0  0  0  0
  161.7690  209.9030  153.9140 N   0  0  0  0  0  2  0  0  0  0  0  0
  161.1030  207.5040  154.2670 C   0  0  0  0  0  1  0  0  0  0  0  0
  160.0960  209.3620  155.9360 S   0  0  0  0  0  0  0  0  0  0  0  0
  161.0540  208.9300  154.6800 C   0  0  0  0  0  0  0  0  0  0  0  0
  1 30  1  1  0  0  0
  2  4  1  0  0  0  0
  4  3  2  0  0  0  0
  4  1  1  0  0  0  0
  5  7  2  0  0  0  0
  6  5  1  0  0  0  0
  6  2  2  0  0  0  0
  7  3  1  0  0  0  0
  8 12  1  0  0  0  0
  8 18  2  0  0  0  0
 10 14  1  0  0  0  0
 10 11  2  0  0  0  0
 11 12  1  0  0  0  0
 12  9  2  0  0  0  0
 13 18  1  0  0  0  0
 13  5  1  0  0  0  0
 15 11  1  0  0  0  0
 16 14  1  1  0  0  0
 16 17  1  0  0  0  0
 16  8  1  0  0  0  0
 17 13  2  0  0  0  0
 19 25  1  1  0  0  0
 19 23  1  0  0  0  0
 19 20  1  0  0  0  0
 20 22  1  0  0  0  0
 21 22  1  0  0  0  0
 21  1  1  1  0  0  0
 23 21  1  0  0  0  0
 24 25  2  0  0  0  0
 25 26  1  0  0  0  0
 27 26  1  0  0  0  0
 27 29  1  0  0  0  0
 28 27  1  0  0  0  0
 30 31  1  0  0  0  0
 31 32  1  1  0  0  0
 31 36  1  0  0  0  0
 32 35  1  0  0  0  0
 34 35  1  0  0  0  0
 35 33  2  0  0  0  0
 36 39  1  0  0  0  0
 37 39  1  0  0  0  0
 39 38  2  0  0  0  0
M  END
>  <MODEL>
3

>  <REMARK>
 VINA RESULT:      -5.6      1.256      1.866
  Name = 
  11 active torsions:
  status: ('A' for Active; 'I' for Inactive)
    1  A    between atoms: C_2  and  C_7
    2  A    between atoms: C_3  and  N_13
    3  A    between atoms: C_10  and  C_24
    4  A    between atoms: C_10  and  C_32
    5  A    between atoms: C_14  and  C_33
    6  A    between atoms: N_19  and  C_24
    7  A    between atoms: N_19  and  C_28
    8  A    between atoms: O_21  and  C_24
    9  A    between atoms: O_21  and  C_33
   10  A    between atoms: C_23  and  C_27
   11  A    between atoms: C_26  and  C_33
                            x       y       z     vdW  Elec       q    Type
                         _______ _______ _______ _____ _____    ______ ____

>  <TORSDO>
F 11

$$$$
=
 OpenBabel11052410013D

 39 42  0  0  1  0  0  0  0  0999 V2000
  160.7050  204.5650  149.9500 C   0  0  2  0  0  3  0  0  0  0  0  0
  160.4600  206.9880  150.5230 C   0  0  0  0  0  3  0  0  0  0  0  0
  161.1680  205.4660  152.2680 C   0  0  0  0  0  3  0  0  0  0  0  0
  160.7800  205.6920  150.9400 C   0  0  0  0  0  0  0  0  0  0  0  0
  160.9230  207.8310  152.7540 C   0  0  0  0  0  0  0  0  0  0  0  0
  160.5320  208.0530  151.4260 C   0  0  0  0  0  3  0  0  0  0  0  0
  161.2380  206.5320  153.1690 C   0  0  0  0  0  3  0  0  0  0  0  0
  160.6740  210.9030  154.5300 C   0  0  0  0  0  0  0  0  0  0  0  0
  159.5300  212.8970  153.9570 O   0  0  0  0  0  0  0  0  0  0  0  0
  160.3770  211.8120  157.2610 C   0  0  0  0  0  3  0  0  0  0  0  0
  160.0930  212.6550  156.2580 C   0  0  0  0  0  0  0  0  0  0  0  0
  160.0650  212.1950  154.8550 C   0  0  0  0  0  0  0  0  0  0  0  0
  161.0120  208.9510  153.7060 C   0  0  0  0  0  0  0  0  0  0  0  0
  160.4970  210.0170  157.0460 S   0  0  0  0  0  0  0  0  0  0  0  0
  159.8750  214.3550  156.6240 Cl  0  0  0  0  0  0  0  0  0  0  0  0
  161.4760  210.1390  155.5180 C   0  0  1  0  0  3  0  0  0  0  0  0
  161.5930  208.8480  154.8600 N   0  0  0  0  0  0  0  0  0  0  0  0
  160.4050  210.2180  153.4720 N   0  0  0  0  0  0  0  0  0  0  0  0
  160.8100  201.0640  149.6510 C   0  0  1  0  0  3  0  0  0  0  0  0
  162.0530  201.4940  150.2750 N   0  0  0  0  0  2  0  0  0  0  0  0
  160.4230  203.2250  150.6390 C   0  0  2  0  0  3  0  0  0  0  0  0
  161.6840  202.5720  151.1790 C   0  0  0  0  0  2  0  0  0  0  0  0
  159.8520  202.2380  149.6500 C   0  0  0  0  0  2  0  0  0  0  0  0
  161.6710  199.5040  148.0570 O   0  0  0  0  0  0  0  0  0  0  0  0
  161.0610  200.5910  148.2590 C   0  0  0  0  0  0  0  0  0  0  0  0
  160.6130  201.3860  147.1590 N   0  0  0  0  0  2  0  0  0  0  0  0
  160.8420  201.0090  145.7730 C   0  0  0  0  0  3  0  0  0  0  0  0
  159.8410  201.7080  144.8740 C   0  0  0  0  0  1  0  0  0  0  0  0
  160.6810  199.5100  145.6260 C   0  0  0  0  0  1  0  0  0  0  0  0
  161.8590  204.5060  149.1520 O   0  0  0  0  0  0  0  0  0  0  0  0
  161.5560  205.2350  147.9970 C   0  0  1  0  0  3  0  0  0  0  0  0
  162.6160  206.3040  147.7870 C   0  0  0  0  0  2  0  0  0  0  0  0
  160.9130  207.7310  146.9260 O   0  0  0  0  0  0  0  0  0  0  0  0
  162.5570  208.7980  148.1700 N   0  0  0  0  0  1  0  0  0  0  0  0
  161.9770  207.6360  147.5890 C   0  0  0  0  0  0  0  0  0  0  0  0
  161.5260  204.3400  146.8470 N   0  0  0  0  0  2  0  0  0  0  0  0
  163.5710  204.5390  145.3970 C   0  0  0  0  0  1  0  0  0  0  0  0
  161.1970  205.2730  144.3560 S   0  0  0  0  0  0  0  0  0  0  0  0
  162.1020  204.6640  145.5790 C   0  0  0  0  0  0  0  0  0  0  0  0
  1 30  1  1  0  0  0
  1  4  1  0  0  0  0
  2  4  2  0  0  0  0
  2  6  1  0  0  0  0
  3  7  2  0  0  0  0
  4  3  1  0  0  0  0
  5  7  1  0  0  0  0
  5 13  1  0  0  0  0
  6  5  2  0  0  0  0
  8 12  1  0  0  0  0
  9 12  2  0  0  0  0
 11 15  1  0  0  0  0
 11 10  2  0  0  0  0
 12 11  1  0  0  0  0
 13 17  2  0  0  0  0
 14 10  1  0  0  0  0
 16  8  1  6  0  0  0
 16 14  1  0  0  0  0
 17 16  1  0  0  0  0
 18 13  1  0  0  0  0
 18  8  2  0  0  0  0
 19 25  1  6  0  0  0
 19 20  1  0  0  0  0
 20 22  1  0  0  0  0
 21  1  1  6  0  0  0
 21 22  1  0  0  0  0
 23 19  1  0  0  0  0
 23 21  1  0  0  0  0
 24 25  2  0  0  0  0
 26 25  1  0  0  0  0
 27 26  1  0  0  0  0
 28 27  1  0  0  0  0
 29 27  1  0  0  0  0
 31 32  1  6  0  0  0
 31 30  1  0  0  0  0
 33 35  2  0  0  0  0
 35 32  1  0  0  0  0
 35 34  1  0  0  0  0
 36 31  1  0  0  0  0
 37 39  1  0  0  0  0
 38 39  2  0  0  0  0
 39 36  1  0  0  0  0
M  END
>  <MODEL>
4

>  <REMARK>
 VINA RESULT:      -5.5      4.592     10.519
  Name = 
  11 active torsions:
  status: ('A' for Active; 'I' for Inactive)
    1  A    between atoms: C_2  and  C_7
    2  A    between atoms: C_3  and  N_13
    3  A    between atoms: C_10  and  C_24
    4  A    between atoms: C_10  and  C_32
    5  A    between atoms: C_14  and  C_33
    6  A    between atoms: N_19  and  C_24
    7  A    between atoms: N_19  and  C_28
    8  A    between atoms: O_21  and  C_24
    9  A    between atoms: O_21  and  C_33
   10  A    between atoms: C_23  and  C_27
   11  A    between atoms: C_26  and  C_33
                            x       y       z     vdW  Elec       q    Type
                         _______ _______ _______ _____ _____    ______ ____

>  <TORSDO>
F 11

$$$$
=
 OpenBabel11052410013D

 39 42  0  0  1  0  0  0  0  0999 V2000
  160.4790  213.2120  141.6910 C   0  0  2  0  0  3  0  0  0  0  0  0
  160.9310  214.3030  143.8960 C   0  0  0  0  0  3  0  0  0  0  0  0
  159.2420  212.5720  143.8020 C   0  0  0  0  0  3  0  0  0  0  0  0
  160.2060  213.3610  143.1600 C   0  0  0  0  0  0  0  0  0  0  0  0
  159.7380  213.6630  145.9130 C   0  0  0  0  0  0  0  0  0  0  0  0
  160.6990  214.4530  145.2670 C   0  0  0  0  0  3  0  0  0  0  0  0
  159.0100  212.7230  145.1720 C   0  0  0  0  0  3  0  0  0  0  0  0
  158.4040  213.8930  149.2020 C   0  0  0  0  0  0  0  0  0  0  0  0
  156.1590  213.7280  149.9430 O   0  0  0  0  0  0  0  0  0  0  0  0
  159.0890  213.0510  151.8840 C   0  0  0  0  0  3  0  0  0  0  0  0
  157.8240  213.4030  151.6140 C   0  0  0  0  0  0  0  0  0  0  0  0
  157.3840  213.6780  150.2320 C   0  0  0  0  0  0  0  0  0  0  0  0
  159.4980  213.8080  147.3580 C   0  0  0  0  0  0  0  0  0  0  0  0
  160.2980  212.6290  150.6030 S   0  0  0  0  0  0  0  0  0  0  0  0
  156.7180  213.6590  152.9500 Cl  0  0  0  0  0  0  0  0  0  0  0  0
  159.8440  214.0300  149.5360 C   0  0  1  0  0  3  0  0  0  0  0  0
  160.4570  213.9160  148.2230 N   0  0  0  0  0  0  0  0  0  0  0  0
  158.1970  213.7670  147.9360 N   0  0  0  0  0  0  0  0  0  0  0  0
  163.0380  211.7400  139.7820 C   0  0  1  0  0  3  0  0  0  0  0  0
  162.5940  212.9370  139.0810 N   0  0  0  0  0  2  0  0  0  0  0  0
  161.9840  213.1820  141.3950 C   0  0  2  0  0  3  0  0  0  0  0  0
  162.3400  213.9250  140.1180 C   0  0  0  0  0  2  0  0  0  0  0  0
  162.4460  211.7620  141.1750 C   0  0  0  0  0  2  0  0  0  0  0  0
  162.4260  210.5540  137.7990 O   0  0  0  0  0  0  0  0  0  0  0  0
  162.6060  210.5160  139.0470 C   0  0  0  0  0  0  0  0  0  0  0  0
  162.3910  209.3050  139.7750 N   0  0  0  0  0  2  0  0  0  0  0  0
  161.9450  208.0750  139.1380 C   0  0  0  0  0  3  0  0  0  0  0  0
  160.5250  208.2400  138.6300 C   0  0  0  0  0  1  0  0  0  0  0  0
  161.9850  206.9450  140.1450 C   0  0  0  0  0  1  0  0  0  0  0  0
  159.8240  214.2050  140.9440 O   0  0  0  0  0  0  0  0  0  0  0  0
  158.7860  213.5470  140.2740 C   0  0  1  0  0  3  0  0  0  0  0  0
  158.9720  212.0450  140.4140 C   0  0  0  0  0  2  0  0  0  0  0  0
  158.0410  210.3010  139.0830 O   0  0  0  0  0  0  0  0  0  0  0  0
  159.1970  211.9330  137.9030 N   0  0  0  0  0  1  0  0  0  0  0  0
  158.7110  211.3660  139.1130 C   0  0  0  0  0  0  0  0  0  0  0  0
  157.5060  213.9410  140.8480 N   0  0  0  0  0  2  0  0  0  0  0  0
  155.0410  214.4230  140.7270 C   0  0  0  0  0  1  0  0  0  0  0  0
  156.4560  214.4530  138.4360 S   0  0  0  0  0  0  0  0  0  0  0  0
  156.3640  214.2940  140.0640 C   0  0  0  0  0  0  0  0  0  0  0  0
  1 30  1  6  0  0  0
  1  4  1  0  0  0  0
  2  6  1  0  0  0  0
  3  7  2  0  0  0  0
  4  3  1  0  0  0  0
  4  2  2  0  0  0  0
  5 13  1  0  0  0  0
  6  5  2  0  0  0  0
  7  5  1  0  0  0  0
  8 16  1  0  0  0  0
  8 12  1  0  0  0  0
  9 12  2  0  0  0  0
 11 10  2  0  0  0  0
 11 15  1  0  0  0  0
 12 11  1  0  0  0  0
 13 18  1  0  0  0  0
 13 17  2  0  0  0  0
 14 10  1  0  0  0  0
 16 17  1  6  0  0  0
 16 14  1  0  0  0  0
 18  8  2  0  0  0  0
 19 25  1  6  0  0  0
 19 23  1  0  0  0  0
 20 19  1  0  0  0  0
 20 22  1  0  0  0  0
 21  1  1  6  0  0  0
 22 21  1  0  0  0  0
 23 21  1  0  0  0  0
 24 25  2  0  0  0  0
 25 26  1  0  0  0  0
 27 26  1  0  0  0  0
 27 29  1  0  0  0  0
 28 27  1  0  0  0  0
 31 32  1  1  0  0  0
 31 36  1  0  0  0  0
 31 30  1  0  0  0  0
 33 35  2  0  0  0  0
 34 35  1  0  0  0  0
 35 32  1  0  0  0  0
 38 39  2  0  0  0  0
 39 37  1  0  0  0  0
 39 36  1  0  0  0  0
M  END
>  <MODEL>
5

>  <REMARK>
 VINA RESULT:      -5.1      7.155     11.924
  Name = 
  11 active torsions:
  status: ('A' for Active; 'I' for Inactive)
    1  A    between atoms: C_2  and  C_7
    2  A    between atoms: C_3  and  N_13
    3  A    between atoms: C_10  and  C_24
    4  A    between atoms: C_10  and  C_32
    5  A    between atoms: C_14  and  C_33
    6  A    between atoms: N_19  and  C_24
    7  A    between atoms: N_19  and  C_28
    8  A    between atoms: O_21  and  C_24
    9  A    between atoms: O_21  and  C_33
   10  A    between atoms: C_23  and  C_27
   11  A    between atoms: C_26  and  C_33
                            x       y       z     vdW  Elec       q    Type
                         _______ _______ _______ _____ _____    ______ ____

>  <TORSDO>
F 11

$$$$
=
 OpenBabel11052410013D

 39 42  0  0  1  0  0  0  0  0999 V2000
  161.6960  210.2900  149.9980 C   0  0  2  0  0  3  0  0  0  0  0  0
  161.5290  208.4200  148.3470 C   0  0  0  0  0  3  0  0  0  0  0  0
  161.3210  207.8890  150.7000 C   0  0  0  0  0  3  0  0  0  0  0  0
  161.5120  208.8340  149.6820 C   0  0  0  0  0  0  0  0  0  0  0  0
  161.1560  206.1220  149.0440 C   0  0  0  0  0  0  0  0  0  0  0  0
  161.3510  207.0700  148.0280 C   0  0  0  0  0  3  0  0  0  0  0  0
  161.1440  206.5400  150.3800 C   0  0  0  0  0  3  0  0  0  0  0  0
  160.8590  202.9240  147.5170 C   0  0  0  0  0  0  0  0  0  0  0  0
  161.1540  202.2920  145.2520 O   0  0  0  0  0  0  0  0  0  0  0  0
  161.5090  200.1670  148.1110 C   0  0  0  0  0  3  0  0  0  0  0  0
  161.2660  200.5220  146.8410 C   0  0  0  0  0  0  0  0  0  0  0  0
  161.0960  201.9380  146.4600 C   0  0  0  0  0  0  0  0  0  0  0  0
  160.9560  204.7010  148.7140 C   0  0  0  0  0  0  0  0  0  0  0  0
  161.9040  201.3600  149.4170 S   0  0  0  0  0  0  0  0  0  0  0  0
  161.0260  199.2600  145.6470 Cl  0  0  0  0  0  0  0  0  0  0  0  0
  160.5970  202.5240  148.9220 C   0  0  1  0  0  3  0  0  0  0  0  0
  160.7320  203.7960  149.6140 N   0  0  0  0  0  0  0  0  0  0  0  0
  161.0640  204.1900  147.3900 N   0  0  0  0  0  0  0  0  0  0  0  0
  161.5000  212.7250  147.4700 C   0  0  1  0  0  3  0  0  0  0  0  0
  161.9970  213.3760  148.6750 N   0  0  0  0  0  2  0  0  0  0  0  0
  162.4500  211.0220  148.8810 C   0  0  2  0  0  3  0  0  0  0  0  0
  162.8950  212.4150  149.2950 C   0  0  0  0  0  2  0  0  0  0  0  0
  161.5470  211.2270  147.6890 C   0  0  0  0  0  2  0  0  0  0  0  0
  159.8570  213.8210  146.1230 O   0  0  0  0  0  0  0  0  0  0  0  0
  160.1070  213.1690  147.1740 C   0  0  0  0  0  0  0  0  0  0  0  0
  159.0630  212.8550  148.0980 N   0  0  0  0  0  2  0  0  0  0  0  0
  157.6840  213.2730  147.8970 C   0  0  0  0  0  3  0  0  0  0  0  0
  156.8660  212.9750  149.1390 C   0  0  0  0  0  1  0  0  0  0  0  0
  157.0970  212.5200  146.7220 C   0  0  0  0  0  1  0  0  0  0  0  0
  162.3160  210.4690  151.2460 O   0  0  0  0  0  0  0  0  0  0  0  0
  161.2740  210.6180  152.1670 C   0  0  1  0  0  3  0  0  0  0  0  0
  161.7540  210.1810  153.5410 C   0  0  0  0  0  2  0  0  0  0  0  0
  159.8050  209.9260  154.8890 O   0  0  0  0  0  0  0  0  0  0  0  0
  160.7210  207.9460  154.0930 N   0  0  0  0  0  1  0  0  0  0  0  0
  160.7100  209.3620  154.2200 C   0  0  0  0  0  0  0  0  0  0  0  0
  160.8570  212.0140  152.2120 N   0  0  0  0  0  2  0  0  0  0  0  0
  158.4200  211.4560  152.4830 C   0  0  0  0  0  1  0  0  0  0  0  0
  159.0710  213.9260  151.6310 S   0  0  0  0  0  0  0  0  0  0  0  0
  159.4900  212.4320  152.1540 C   0  0  0  0  0  0  0  0  0  0  0  0
  1 30  1  1  0  0  0
  2  4  1  0  0  0  0
  4  1  1  0  0  0  0
  4  3  2  0  0  0  0
  5  7  2  0  0  0  0
  6  2  2  0  0  0  0
  6  5  1  0  0  0  0
  7  3  1  0  0  0  0
  9 12  2  0  0  0  0
 10 14  1  0  0  0  0
 11 10  2  0  0  0  0
 12 11  1  0  0  0  0
 12  8  1  0  0  0  0
 13  5  1  0  0  0  0
 13 17  2  0  0  0  0
 15 11  1  0  0  0  0
 16  8  1  6  0  0  0
 16 14  1  0  0  0  0
 16 17  1  0  0  0  0
 18  8  2  0  0  0  0
 18 13  1  0  0  0  0
 19 25  1  1  0  0  0
 19 23  1  0  0  0  0
 19 20  1  0  0  0  0
 20 22  1  0  0  0  0
 21 22  1  0  0  0  0
 21  1  1  1  0  0  0
 23 21  1  0  0  0  0
 24 25  2  0  0  0  0
 25 26  1  0  0  0  0
 27 26  1  0  0  0  0
 27 28  1  0  0  0  0
 29 27  1  0  0  0  0
 30 31  1  0  0  0  0
 31 36  1  0  0  0  0
 31 32  1  1  0  0  0
 32 35  1  0  0  0  0
 34 35  1  0  0  0  0
 35 33  2  0  0  0  0
 38 39  2  0  0  0  0
 39 36  1  0  0  0  0
 39 37  1  0  0  0  0
M  END
>  <MODEL>
6

>  <REMARK>
 VINA RESULT:      -4.9      1.815      2.186
  Name = 
  11 active torsions:
  status: ('A' for Active; 'I' for Inactive)
    1  A    between atoms: C_2  and  C_7
    2  A    between atoms: C_3  and  N_13
    3  A    between atoms: C_10  and  C_24
    4  A    between atoms: C_10  and  C_32
    5  A    between atoms: C_14  and  C_33
    6  A    between atoms: N_19  and  C_24
    7  A    between atoms: N_19  and  C_28
    8  A    between atoms: O_21  and  C_24
    9  A    between atoms: O_21  and  C_33
   10  A    between atoms: C_23  and  C_27
   11  A    between atoms: C_26  and  C_33
                            x       y       z     vdW  Elec       q    Type
                         _______ _______ _______ _____ _____    ______ ____

>  <TORSDO>
F 11

$$$$
=
 OpenBabel11052410013D

 39 42  0  0  1  0  0  0  0  0999 V2000
  161.6630  205.5920  148.8500 C   0  0  2  0  0  3  0  0  0  0  0  0
  162.4080  207.7740  149.8190 C   0  0  0  0  0  3  0  0  0  0  0  0
  160.5620  206.6220  150.8800 C   0  0  0  0  0  3  0  0  0  0  0  0
  161.5360  206.6830  149.8740 C   0  0  0  0  0  0  0  0  0  0  0  0
  161.3420  208.7380  151.7780 C   0  0  0  0  0  0  0  0  0  0  0  0
  162.3130  208.7970  150.7680 C   0  0  0  0  0  3  0  0  0  0  0  0
  160.4670  207.6460  151.8270 C   0  0  0  0  0  3  0  0  0  0  0  0
  160.4510  211.5100  153.8200 C   0  0  0  0  0  0  0  0  0  0  0  0
  158.6120  212.9950  153.6430 O   0  0  0  0  0  0  0  0  0  0  0  0
  160.4350  212.2220  156.6250 C   0  0  0  0  0  3  0  0  0  0  0  0
  159.6850  212.9290  155.7680 C   0  0  0  0  0  0  0  0  0  0  0  0
  159.5250  212.5080  154.3620 C   0  0  0  0  0  0  0  0  0  0  0  0
  161.2450  209.8060  152.7870 C   0  0  0  0  0  0  0  0  0  0  0  0
  161.1020  210.5810  156.2410 S   0  0  0  0  0  0  0  0  0  0  0  0
  158.9910  214.4450  156.3100 Cl  0  0  0  0  0  0  0  0  0  0  0  0
  161.6470  211.0560  154.5720 C   0  0  1  0  0  3  0  0  0  0  0  0
  162.0510  209.8930  153.7970 N   0  0  0  0  0  0  0  0  0  0  0  0
  160.2150  210.7890  152.7790 N   0  0  0  0  0  0  0  0  0  0  0  0
  161.3750  205.4300  145.3500 C   0  0  1  0  0  3  0  0  0  0  0  0
  160.5050  206.5000  145.8170 N   0  0  0  0  0  2  0  0  0  0  0  0
  162.1760  206.1310  147.5090 C   0  0  2  0  0  3  0  0  0  0  0  0
  161.2330  207.1520  146.8940 C   0  0  0  0  0  2  0  0  0  0  0  0
  162.2710  205.0140  146.4980 C   0  0  0  0  0  2  0  0  0  0  0  0
  159.5870  204.4580  144.0960 O   0  0  0  0  0  0  0  0  0  0  0  0
  160.5660  204.2720  144.8700 C   0  0  0  0  0  0  0  0  0  0  0  0
  160.9080  202.9540  145.3040 N   0  0  0  0  0  2  0  0  0  0  0  0
  160.1550  201.7750  144.9030 C   0  0  0  0  0  3  0  0  0  0  0  0
  158.7910  201.7810  145.5660 C   0  0  0  0  0  1  0  0  0  0  0  0
  160.9080  200.5310  145.3240 C   0  0  0  0  0  1  0  0  0  0  0  0
  160.4570  204.8870  148.6990 O   0  0  0  0  0  0  0  0  0  0  0  0
  160.6520  203.6650  149.3500 C   0  0  1  0  0  3  0  0  0  0  0  0
  161.1580  202.6380  148.3500 C   0  0  0  0  0  2  0  0  0  0  0  0
  159.6580  201.0920  149.3680 O   0  0  0  0  0  0  0  0  0  0  0  0
  161.5650  200.1490  148.4370 N   0  0  0  0  0  1  0  0  0  0  0  0
  160.7440  201.2660  148.7580 C   0  0  0  0  0  0  0  0  0  0  0  0
  161.6260  203.8300  150.4210 N   0  0  0  0  0  2  0  0  0  0  0  0
  160.7950  203.8560  152.7940 C   0  0  0  0  0  1  0  0  0  0  0  0
  162.2790  201.7570  151.9890 S   0  0  0  0  0  0  0  0  0  0  0  0
  161.5230  203.1790  151.6900 C   0  0  0  0  0  0  0  0  0  0  0  0
  1 30  1  6  0  0  0
  1  4  1  0  0  0  0
  2  4  2  0  0  0  0
  2  6  1  0  0  0  0
  3  7  2  0  0  0  0
  4  3  1  0  0  0  0
  5  7  1  0  0  0  0
  5 13  1  0  0  0  0
  6  5  2  0  0  0  0
  8 12  1  0  0  0  0
  8 16  1  0  0  0  0
  9 12  2  0  0  0  0
 11 15  1  0  0  0  0
 11 10  2  0  0  0  0
 12 11  1  0  0  0  0
 13 17  2  0  0  0  0
 14 10  1  0  0  0  0
 16 17  1  6  0  0  0
 16 14  1  0  0  0  0
 18 13  1  0  0  0  0
 18  8  2  0  0  0  0
 19 25  1  1  0  0  0
 19 20  1  0  0  0  0
 19 23  1  0  0  0  0
 20 22  1  0  0  0  0
 21  1  1  1  0  0  0
 22 21  1  0  0  0  0
 23 21  1  0  0  0  0
 24 25  2  0  0  0  0
 25 26  1  0  0  0  0
 27 26  1  0  0  0  0
 27 29  1  0  0  0  0
 27 28  1  0  0  0  0
 30 31  1  0  0  0  0
 31 32  1  6  0  0  0
 31 36  1  0  0  0  0
 32 35  1  0  0  0  0
 34 35  1  0  0  0  0
 35 33  2  0  0  0  0
 36 39  1  0  0  0  0
 39 38  2  0  0  0  0
 39 37  1  0  0  0  0
M  END
>  <MODEL>
7

>  <REMARK>
 VINA RESULT:      -4.8      4.795      9.638
  Name = 
  11 active torsions:
  status: ('A' for Active; 'I' for Inactive)
    1  A    between atoms: C_2  and  C_7
    2  A    between atoms: C_3  and  N_13
    3  A    between atoms: C_10  and  C_24
    4  A    between atoms: C_10  and  C_32
    5  A    between atoms: C_14  and  C_33
    6  A    between atoms: N_19  and  C_24
    7  A    between atoms: N_19  and  C_28
    8  A    between atoms: O_21  and  C_24
    9  A    between atoms: O_21  and  C_33
   10  A    between atoms: C_23  and  C_27
   11  A    between atoms: C_26  and  C_33
                            x       y       z     vdW  Elec       q    Type
                         _______ _______ _______ _____ _____    ______ ____

>  <TORSDO>
F 11

$$$$
=
 OpenBabel11052410013D

 39 42  0  0  1  0  0  0  0  0999 V2000
  161.8190  210.2380  149.8900 C   0  0  2  0  0  3  0  0  0  0  0  0
  161.2470  207.9050  150.5850 C   0  0  0  0  0  3  0  0  0  0  0  0
  161.6880  208.3240  148.2410 C   0  0  0  0  0  3  0  0  0  0  0  0
  161.5800  208.7940  149.5580 C   0  0  0  0  0  0  0  0  0  0  0  0
  161.1390  206.0800  148.9840 C   0  0  0  0  0  0  0  0  0  0  0  0
  161.0280  206.5530  150.3000 C   0  0  0  0  0  3  0  0  0  0  0  0
  161.4680  206.9740  147.9580 C   0  0  0  0  0  3  0  0  0  0  0  0
  160.8340  202.8530  147.5210 C   0  0  0  0  0  0  0  0  0  0  0  0
  161.2070  202.1600  145.2860 O   0  0  0  0  0  0  0  0  0  0  0  0
  161.4000  200.0980  148.2050 C   0  0  0  0  0  3  0  0  0  0  0  0
  161.2170  200.4270  146.9180 C   0  0  0  0  0  0  0  0  0  0  0  0
  161.0920  201.8360  146.4980 C   0  0  0  0  0  0  0  0  0  0  0  0
  160.9210  204.6560  148.6800 C   0  0  0  0  0  0  0  0  0  0  0  0
  161.7680  201.3140  149.4980 S   0  0  0  0  0  0  0  0  0  0  0  0
  160.9980  199.1430  145.7450 Cl  0  0  0  0  0  0  0  0  0  0  0  0
  160.5070  202.4920  148.9240 C   0  0  1  0  0  3  0  0  0  0  0  0
  160.6420  203.7780  149.5910 N   0  0  0  0  0  0  0  0  0  0  0  0
  161.0710  204.1110  147.3730 N   0  0  0  0  0  0  0  0  0  0  0  0
  161.5860  212.7380  147.4290 C   0  0  1  0  0  3  0  0  0  0  0  0
  162.1670  213.3410  148.6200 N   0  0  0  0  0  2  0  0  0  0  0  0
  162.5420  210.9690  148.7520 C   0  0  2  0  0  3  0  0  0  0  0  0
  163.0590  212.3340  149.1730 C   0  0  0  0  0  2  0  0  0  0  0  0
  161.5880  211.2350  147.6120 C   0  0  0  0  0  2  0  0  0  0  0  0
  159.9120  213.9010  146.1800 O   0  0  0  0  0  0  0  0  0  0  0  0
  160.1970  213.2380  147.2150 C   0  0  0  0  0  0  0  0  0  0  0  0
  159.1980  212.9670  148.2000 N   0  0  0  0  0  2  0  0  0  0  0  0
  157.8270  213.4410  148.0800 C   0  0  0  0  0  3  0  0  0  0  0  0
  157.1240  213.3380  149.4200 C   0  0  0  0  0  1  0  0  0  0  0  0
  157.0900  212.5940  147.0640 C   0  0  0  0  0  1  0  0  0  0  0  0
  162.5000  210.3780  151.1100 O   0  0  0  0  0  0  0  0  0  0  0  0
  161.5240  210.7340  152.0480 C   0  0  1  0  0  3  0  0  0  0  0  0
  160.3280  211.3300  151.3230 C   0  0  0  0  0  2  0  0  0  0  0  0
  160.1000  213.6970  151.4760 O   0  0  0  0  0  0  0  0  0  0  0  0
  159.1740  212.5020  153.2380 N   0  0  0  0  0  1  0  0  0  0  0  0
  159.8770  212.5770  152.0040 C   0  0  0  0  0  0  0  0  0  0  0  0
  161.1090  209.5530  152.7930 N   0  0  0  0  0  2  0  0  0  0  0  0
  160.6340  208.2490  154.8910 C   0  0  0  0  0  1  0  0  0  0  0  0
  161.8270  210.6520  155.1300 S   0  0  0  0  0  0  0  0  0  0  0  0
  161.2040  209.4440  154.2160 C   0  0  0  0  0  0  0  0  0  0  0  0
  1 30  1  1  0  0  0
  3  4  1  0  0  0  0
  4  1  1  0  0  0  0
  4  2  2  0  0  0  0
  5  6  2  0  0  0  0
  6  2  1  0  0  0  0
  7  3  2  0  0  0  0
  7  5  1  0  0  0  0
  9 12  2  0  0  0  0
 10 14  1  0  0  0  0
 11 10  2  0  0  0  0
 12 11  1  0  0  0  0
 12  8  1  0  0  0  0
 13  5  1  0  0  0  0
 13 17  2  0  0  0  0
 15 11  1  0  0  0  0
 16  8  1  6  0  0  0
 16 14  1  0  0  0  0
 16 17  1  0  0  0  0
 18  8  2  0  0  0  0
 18 13  1  0  0  0  0
 19 25  1  1  0  0  0
 19 23  1  0  0  0  0
 19 20  1  0  0  0  0
 20 22  1  0  0  0  0
 21 22  1  0  0  0  0
 21  1  1  1  0  0  0
 23 21  1  0  0  0  0
 24 25  2  0  0  0  0
 25 26  1  0  0  0  0
 27 26  1  0  0  0  0
 27 28  1  0  0  0  0
 29 27  1  0  0  0  0
 30 31  1  0  0  0  0
 31 32  1  6  0  0  0
 31 36  1  0  0  0  0
 32 35  1  0  0  0  0
 33 35  2  0  0  0  0
 35 34  1  0  0  0  0
 36 39  1  0  0  0  0
 39 37  1  0  0  0  0
 39 38  2  0  0  0  0
M  END
>  <MODEL>
8

>  <REMARK>
 VINA RESULT:      -4.7      1.994      2.914
  Name = 
  11 active torsions:
  status: ('A' for Active; 'I' for Inactive)
    1  A    between atoms: C_2  and  C_7
    2  A    between atoms: C_3  and  N_13
    3  A    between atoms: C_10  and  C_24
    4  A    between atoms: C_10  and  C_32
    5  A    between atoms: C_14  and  C_33
    6  A    between atoms: N_19  and  C_24
    7  A    between atoms: N_19  and  C_28
    8  A    between atoms: O_21  and  C_24
    9  A    between atoms: O_21  and  C_33
   10  A    between atoms: C_23  and  C_27
   11  A    between atoms: C_26  and  C_33
                            x       y       z     vdW  Elec       q    Type
                         _______ _______ _______ _____ _____    ______ ____

>  <TORSDO>
F 11

$$$$
=
 OpenBabel11052410013D

 39 42  0  0  1  0  0  0  0  0999 V2000
  161.4250  210.8710  151.5340 C   0  0  2  0  0  3  0  0  0  0  0  0
  161.5590  209.0200  149.8580 C   0  0  0  0  0  3  0  0  0  0  0  0
  160.8310  208.4780  152.1020 C   0  0  0  0  0  3  0  0  0  0  0  0
  161.2670  209.4240  151.1630 C   0  0  0  0  0  0  0  0  0  0  0  0
  160.9720  206.7310  150.4230 C   0  0  0  0  0  0  0  0  0  0  0  0
  161.4110  207.6790  149.4880 C   0  0  0  0  0  3  0  0  0  0  0  0
  160.6850  207.1380  151.7320 C   0  0  0  0  0  3  0  0  0  0  0  0
  160.8460  203.5720  148.7950 C   0  0  0  0  0  0  0  0  0  0  0  0
  161.4260  202.9860  146.5730 O   0  0  0  0  0  0  0  0  0  0  0  0
  161.3870  200.7950  149.4020 C   0  0  0  0  0  3  0  0  0  0  0  0
  161.3150  201.1800  148.1200 C   0  0  0  0  0  0  0  0  0  0  0  0
  161.2090  202.6060  147.7540 C   0  0  0  0  0  0  0  0  0  0  0  0
  160.8030  205.3200  150.0360 C   0  0  0  0  0  0  0  0  0  0  0  0
  161.6200  201.9530  150.7760 S   0  0  0  0  0  0  0  0  0  0  0  0
  161.2200  199.9490  146.8760 Cl  0  0  0  0  0  0  0  0  0  0  0  0
  160.4000  203.1440  150.1440 C   0  0  1  0  0  3  0  0  0  0  0  0
  160.4560  204.3980  150.8780 N   0  0  0  0  0  0  0  0  0  0  0  0
  161.0770  204.8370  148.7260 N   0  0  0  0  0  0  0  0  0  0  0  0
  159.1080  211.3140  154.1410 C   0  0  1  0  0  3  0  0  0  0  0  0
  160.0180  212.4510  154.1580 N   0  0  0  0  0  2  0  0  0  0  0  0
  160.0880  211.4970  151.9510 C   0  0  2  0  0  3  0  0  0  0  0  0
  160.2700  212.7690  152.7610 C   0  0  0  0  0  2  0  0  0  0  0  0
  159.3260  210.5540  152.8490 C   0  0  0  0  0  2  0  0  0  0  0  0
  158.8310  210.6960  156.4340 O   0  0  0  0  0  0  0  0  0  0  0  0
  159.3560  210.4310  155.3180 C   0  0  0  0  0  0  0  0  0  0  0  0
  160.2020  209.2890  155.1680 N   0  0  0  0  0  2  0  0  0  0  0  0
  160.5160  208.3930  156.2700 C   0  0  0  0  0  3  0  0  0  0  0  0
  161.9200  208.6630  156.7750 C   0  0  0  0  0  1  0  0  0  0  0  0
  160.4250  206.9580  155.7930 C   0  0  0  0  0  1  0  0  0  0  0  0
  162.0410  211.6000  150.5040 O   0  0  0  0  0  0  0  0  0  0  0  0
  161.0150  211.9320  149.6130 C   0  0  1  0  0  3  0  0  0  0  0  0
  160.7680  213.4310  149.6700 C   0  0  0  0  0  2  0  0  0  0  0  0
  158.6170  214.3070  150.2050 O   0  0  0  0  0  0  0  0  0  0  0  0
  158.8120  213.4030  148.0750 N   0  0  0  0  0  1  0  0  0  0  0  0
  159.3440  213.7350  149.3520 C   0  0  0  0  0  0  0  0  0  0  0  0
  161.3990  211.5480  148.2600 N   0  0  0  0  0  2  0  0  0  0  0  0
  163.7970  212.2040  147.8870 C   0  0  0  0  0  1  0  0  0  0  0  0
  161.9310  213.2070  146.2240 S   0  0  0  0  0  0  0  0  0  0  0  0
  162.3690  212.2550  147.4830 C   0  0  0  0  0  0  0  0  0  0  0  0
  1 30  1  6  0  0  0
  2  4  1  0  0  0  0
  4  1  1  0  0  0  0
  4  3  2  0  0  0  0
  5  7  2  0  0  0  0
  6  2  2  0  0  0  0
  6  5  1  0  0  0  0
  7  3  1  0  0  0  0
  9 12  2  0  0  0  0
 10 14  1  0  0  0  0
 11 10  2  0  0  0  0
 12 11  1  0  0  0  0
 12  8  1  0  0  0  0
 13  5  1  0  0  0  0
 13 17  2  0  0  0  0
 15 11  1  0  0  0  0
 16  8  1  6  0  0  0
 16 14  1  0  0  0  0
 16 17  1  0  0  0  0
 18  8  2  0  0  0  0
 18 13  1  0  0  0  0
 19 20  1  0  0  0  0
 19 25  1  1  0  0  0
 21  1  1  1  0  0  0
 21 22  1  0  0  0  0
 21 23  1  0  0  0  0
 22 20  1  0  0  0  0
 23 19  1  0  0  0  0
 25 24  2  0  0  0  0
 26 25  1  0  0  0  0
 26 27  1  0  0  0  0
 27 28  1  0  0  0  0
 29 27  1  0  0  0  0
 31 32  1  6  0  0  0
 31 30  1  0  0  0  0
 34 35  1  0  0  0  0
 35 32  1  0  0  0  0
 35 33  2  0  0  0  0
 36 31  1  0  0  0  0
 38 39  2  0  0  0  0
 39 37  1  0  0  0  0
 39 36  1  0  0  0  0
M  END
>  <MODEL>
9

>  <REMARK>
 VINA RESULT:      -4.7      2.822      6.044
  Name = 
  11 active torsions:
  status: ('A' for Active; 'I' for Inactive)
    1  A    between atoms: C_2  and  C_7
    2  A    between atoms: C_3  and  N_13
    3  A    between atoms: C_10  and  C_24
    4  A    between atoms: C_10  and  C_32
    5  A    between atoms: C_14  and  C_33
    6  A    between atoms: N_19  and  C_24
    7  A    between atoms: N_19  and  C_28
    8  A    between atoms: O_21  and  C_24
    9  A    between atoms: O_21  and  C_33
   10  A    between atoms: C_23  and  C_27
   11  A    between atoms: C_26  and  C_33
                            x       y       z     vdW  Elec       q    Type
                         _______ _______ _______ _____ _____    ______ ____

>  <TORSDO>
F 11

$$$$
