=
 OpenBabel11042422043D

 59 66  0  0  1  0  0  0  0  0999 V2000
  161.1640  205.5580  151.6900 C   0  0  1  0  0  3  0  0  0  0  0  0
  161.4670  204.5240  150.6100 C   0  0  0  0  0  2  0  0  0  0  0  0
  160.7590  202.7640  145.1430 O   0  0  0  0  0  0  0  0  0  0  0  0
  160.0430  203.7180  145.9170 C   0  0  0  0  0  2  0  0  0  0  0  0
  160.4450  206.8570  151.4630 C   0  0  1  0  0  3  0  0  0  0  0  0
  160.7780  204.1690  147.1330 C   0  0  0  0  0  0  0  0  0  0  0  0
  161.7090  212.4740  149.4410 C   0  0  2  0  0  3  0  0  0  0  0  0
  160.1110  207.2920  154.2480 C   0  0  0  0  0  2  0  0  0  0  0  0
  161.4740  208.0360  151.5660 C   0  0  1  0  0  3  0  0  0  0  0  0
  161.9310  200.9590  147.2780 C   0  0  0  0  0  2  0  0  0  0  0  0
  160.4580  210.4840  152.2760 N   0  0  0  0  0  2  0  0  0  0  0  0
  161.1020  207.2130  149.0220 C   0  0  0  0  0  0  0  0  0  0  0  0
  162.2170  210.9600  150.2960 S   0  0  0  0  0  0  0  0  0  0  0  0
  161.0770  200.3660  146.0690 C   0  0  1  0  0  3  0  0  0  0  0  0
  161.3670  205.3220  152.9930 C   0  0  0  0  0  2  0  0  0  0  0  0
  161.1810  202.7180  151.0150 S   0  0  0  0  0  0  0  0  0  0  0  0
  160.2970  201.4280  145.2650 C   0  0  0  0  0  0  0  0  0  0  0  0
  160.4300  208.6910  153.8000 N   0  0  0  0  0  0  0  0  0  0  0  0
  161.6070  203.3650  147.7610 N   0  0  0  0  0  0  0  0  0  0  0  0
  160.9670  205.5510  147.2090 N   0  0  0  0  0  2  0  0  0  0  0  0
  159.0760  201.2430  145.0870 O   0  0  0  0  0  0  0  0  0  0  0  0
  161.8200  208.1000  148.3580 C   0  0  0  0  0  2  0  0  0  0  0  0
  161.9240  201.8620  149.5630 C   0  0  0  0  0  2  0  0  0  0  0  0
  161.2980  202.0070  148.1970 C   0  0  2  0  0  3  0  0  0  0  0  0
  160.5820  207.8380  150.3330 C   0  0  1  0  0  3  0  0  0  0  0  0
  160.7710  209.0770  152.6300 C   0  0  0  0  0  0  0  0  0  0  0  0
  160.6870  212.6900  151.5380 N   0  0  0  0  0  0  0  0  0  0  0  0
  161.1450  213.5030  150.4160 C   0  0  0  0  0  2  0  0  0  0  0  0
  160.3110  206.1770  148.3090 C   0  0  0  0  0  2  0  0  0  0  0  0
  161.0980  211.4340  151.5080 C   0  0  0  0  0  0  0  0  0  0  0  0
  161.2620  206.2490  154.0960 C   0  0  0  0  0  2  0  0  0  0  0  0
  163.1600  212.6360  147.1870 C   0  0  0  0  0  2  0  0  0  0  0  0
  160.6930  211.9600  147.2170 N   0  0  0  0  0  0  0  0  0  0  0  0
  161.4300  213.3990  145.3810 C   0  0  0  0  0  2  0  0  0  0  0  0
  160.4650  212.4450  146.0700 C   0  0  0  0  0  0  0  0  0  0  0  0
  162.9300  212.9200  145.6300 C   0  0  0  0  0  2  0  0  0  0  0  0
  161.7290  212.6660  147.8970 C   0  0  1  0  0  3  0  0  0  0  0  0
  159.2200  212.1620  145.5750 O   0  0  0  0  0  0  0  0  0  0  0  0
  158.5420  212.9500  144.6550 C   0  0  0  0  0  2  0  0  0  0  0  0
  159.1560  212.5210  143.3500 C   0  0  0  0  0  2  0  0  0  0  0  0
  159.0260  213.5170  142.2390 C   0  0  1  0  0  3  0  0  0  0  0  0
  160.1650  214.3340  142.2960 O   0  0  0  0  0  1  0  0  0  0  0  0
  161.9470  210.3390  140.0800 O   0  0  0  0  0  0  0  0  0  0  0  0
  157.9870  213.4810  140.0010 O   0  0  0  0  0  0  0  0  0  0  0  0
  158.6400  210.1820  138.8330 N   0  0  0  0  0  0  0  0  0  0  0  0
  157.3140  210.3900  138.1860 C   0  0  0  0  0  0  0  0  0  0  0  0
  159.7510  211.1820  139.0760 C   0  0  1  0  0  3  0  0  0  0  0  0
  159.6160  211.9050  140.3860 N   0  0  0  0  0  0  0  0  0  0  0  0
  161.6150  208.1940  137.8730 O   0  0  0  0  0  1  0  0  0  0  0  0
  158.7680  212.9210  140.8410 C   0  0  0  0  0  0  0  0  0  0  0  0
  160.9660  212.1070  140.9850 C   0  0  0  0  0  2  0  0  0  0  0  0
  161.5290  210.8980  141.1760 O   0  0  0  0  0  0  0  0  0  0  0  0
  160.9470  210.1670  139.1190 C   0  0  2  0  0  3  0  0  0  0  0  0
  160.6690  208.6580  138.8630 C   0  0  1  0  0  3  0  0  0  0  0  0
  156.8850  211.4990  137.8870 O   0  0  0  0  0  0  0  0  0  0  0  0
  156.5110  209.1810  137.9100 C   0  0  0  0  0  1  0  0  0  0  0  0
  159.3170  209.0220  138.1580 C   0  0  0  0  0  2  0  0  0  0  0  0
  161.5650  198.0030  146.0720 C   0  0  0  0  0  1  0  0  0  0  0  0
  161.4420  199.1930  145.1600 C   0  0  0  0  0  2  0  0  0  0  0  0
  1  2  1  1  0  0  0
  1 15  1  0  0  0  0
  2 16  1  0  0  0  0
  3 17  1  0  0  0  0
  3  4  1  0  0  0  0
  4  6  1  0  0  0  0
  5  9  1  0  0  0  0
  5  1  1  0  0  0  0
  6 20  1  0  0  0  0
  6 19  2  0  0  0  0
  7 13  1  0  0  0  0
  7 28  1  0  0  0  0
  9 26  1  0  0  0  0
 10 24  1  0  0  0  0
 11 26  1  0  0  0  0
 12 25  1  0  0  0  0
 13 30  1  0  0  0  0
 14 10  1  0  0  0  0
 15 31  1  0  0  0  0
 17 14  1  0  0  0  0
 18  8  1  0  0  0  0
 19 24  1  0  0  0  0
 20 29  1  0  0  0  0
 21 17  2  0  0  0  0
 22 12  2  0  0  0  0
 23 16  1  0  0  0  0
 24 23  1  0  0  0  0
 25  5  1  0  0  0  0
 25  9  1  0  0  0  0
 26 18  2  0  0  0  0
 28 27  1  0  0  0  0
 29 12  1  0  0  0  0
 30 27  2  0  0  0  0
 30 11  1  0  0  0  0
 31  8  1  0  0  0  0
 32 37  1  0  0  0  0
 33 37  1  0  0  0  0
 34 36  1  0  0  0  0
 34 35  1  0  0  0  0
 35 33  2  0  0  0  0
 36 32  1  0  0  0  0
 37  7  1  0  0  0  0
 38 35  1  0  0  0  0
 39 38  1  0  0  0  0
 40 39  1  0  0  0  0
 41 42  1  0  0  0  0
 41 40  1  0  0  0  0
 43 52  1  0  0  0  0
 44 50  2  0  0  0  0
 45 47  1  0  0  0  0
 46 45  1  0  0  0  0
 47 53  1  0  0  0  0
 47 48  1  0  0  0  0
 48 50  1  0  0  0  0
 48 51  1  0  0  0  0
 49 54  1  0  0  0  0
 50 41  1  0  0  0  0
 51 52  1  0  0  0  0
 53 43  1  0  0  0  0
 54 53  1  0  0  0  0
 55 46  2  0  0  0  0
 56 46  1  0  0  0  0
 57 45  1  0  0  0  0
 57 54  1  0  0  0  0
 59 14  1  0  0  0  0
 59 58  1  0  0  0  0
M  END
>  <MODEL>
1

>  <REMARK>
 VINA RESULT:      -4.6      0.000      0.000
  Name = 
  7 active torsions:
  status: ('A' for Active; 'I' for Inactive)
    1  A    between atoms: C_11  and  C_28
    2  A    between atoms: C_11  and  C_33
    3  A    between atoms: C_12  and  C_57
    4  A    between atoms: C_21  and  O_26
    5  A    between atoms: O_26  and  C_32
    6  A    between atoms: C_28  and  C_32
    7  A    between atoms: C_30  and  C_44
                            x       y       z     vdW  Elec       q    Type
                         _______ _______ _______ _____ _____    ______ ____

>  <TORSDO>
F 7

$$$$
=
 OpenBabel11042422043D

 59 66  0  0  1  0  0  0  0  0999 V2000
  156.8200  213.1460  149.1530 C   0  0  1  0  0  3  0  0  0  0  0  0
  157.7420  212.7660  147.9980 C   0  0  0  0  0  2  0  0  0  0  0  0
  163.0960  212.6520  145.8050 O   0  0  0  0  0  0  0  0  0  0  0  0
  162.5470  213.3880  146.8910 C   0  0  0  0  0  2  0  0  0  0  0  0
  157.2770  213.6660  150.4860 C   0  0  1  0  0  3  0  0  0  0  0  0
  161.2500  212.8430  147.3840 C   0  0  0  0  0  0  0  0  0  0  0  0
  159.4340  211.4470  155.7460 C   0  0  2  0  0  3  0  0  0  0  0  0
  154.6490  214.4530  151.2100 C   0  0  0  0  0  2  0  0  0  0  0  0
  157.0680  212.5500  151.5690 C   0  0  1  0  0  3  0  0  0  0  0  0
  160.6480  212.0940  144.1080 C   0  0  0  0  0  2  0  0  0  0  0  0
  156.7500  213.4050  154.1560 N   0  0  0  0  0  2  0  0  0  0  0  0
  159.5670  212.5390  150.5480 C   0  0  0  0  0  0  0  0  0  0  0  0
  158.3870  211.2720  154.2780 S   0  0  0  0  0  0  0  0  0  0  0  0
  161.9510  212.7730  143.4860 C   0  0  1  0  0  3  0  0  0  0  0  0
  155.4890  213.2120  149.0220 C   0  0  0  0  0  2  0  0  0  0  0  0
  157.2650  213.3180  146.2720 S   0  0  0  0  0  0  0  0  0  0  0  0
  162.9650  213.2720  144.5360 C   0  0  0  0  0  0  0  0  0  0  0  0
  155.1300  213.9060  152.5240 N   0  0  0  0  0  0  0  0  0  0  0  0
  160.4170  212.2360  146.5680 N   0  0  0  0  0  0  0  0  0  0  0  0
  161.2430  212.5210  148.7430 N   0  0  0  0  0  2  0  0  0  0  0  0
  163.3600  214.4530  144.4500 O   0  0  0  0  0  0  0  0  0  0  0  0
  160.1460  211.6190  151.2980 C   0  0  0  0  0  2  0  0  0  0  0  0
  158.4810  212.4200  145.2180 C   0  0  0  0  0  2  0  0  0  0  0  0
  159.9480  212.7650  145.2930 C   0  0  2  0  0  3  0  0  0  0  0  0
  158.4300  213.2180  151.3390 C   0  0  1  0  0  3  0  0  0  0  0  0
  156.2390  213.3170  152.7660 C   0  0  0  0  0  0  0  0  0  0  0  0
  157.5940  212.8060  156.2520 N   0  0  0  0  0  0  0  0  0  0  0  0
  158.6660  212.0640  156.9090 C   0  0  0  0  0  2  0  0  0  0  0  0
  160.3390  213.2950  149.5290 C   0  0  0  0  0  2  0  0  0  0  0  0
  157.4510  212.5350  154.9660 C   0  0  0  0  0  0  0  0  0  0  0  0
  154.4990  213.4140  150.0550 C   0  0  0  0  0  2  0  0  0  0  0  0
  161.6130  210.9460  157.2340 C   0  0  0  0  0  2  0  0  0  0  0  0
  161.3710  210.1800  154.8060 N   0  0  0  0  0  0  0  0  0  0  0  0
  163.5740  210.9810  155.5060 C   0  0  0  0  0  2  0  0  0  0  0  0
  162.6150  210.2500  154.5770 C   0  0  0  0  0  0  0  0  0  0  0  0
  163.1780  210.6940  157.0240 C   0  0  0  0  0  2  0  0  0  0  0  0
  160.9560  211.1250  155.7880 C   0  0  1  0  0  3  0  0  0  0  0  0
  162.9940  209.7520  153.3600 O   0  0  0  0  0  0  0  0  0  0  0  0
  162.1780  209.7140  152.2370 C   0  0  0  0  0  2  0  0  0  0  0  0
  162.3960  208.3130  151.7300 C   0  0  0  0  0  2  0  0  0  0  0  0
  161.3580  207.8280  150.7650 C   0  0  1  0  0  3  0  0  0  0  0  0
  160.7270  208.9690  150.2470 O   0  0  0  0  0  1  0  0  0  0  0  0
  160.7470  203.0430  150.9210 O   0  0  0  0  0  0  0  0  0  0  0  0
  162.7880  207.1840  148.8600 O   0  0  0  0  0  0  0  0  0  0  0  0
  161.2440  204.2240  147.6230 N   0  0  0  0  0  0  0  0  0  0  0  0
  161.7410  204.7740  146.3310 C   0  0  0  0  0  0  0  0  0  0  0  0
  161.8850  204.2830  148.9940 C   0  0  1  0  0  3  0  0  0  0  0  0
  161.5010  205.5110  149.7710 N   0  0  0  0  0  0  0  0  0  0  0  0
  160.6800  200.7660  148.8250 O   0  0  0  0  0  1  0  0  0  0  0  0
  161.8640  206.8590  149.6790 C   0  0  0  0  0  0  0  0  0  0  0  0
  161.3370  205.1590  151.2110 C   0  0  0  0  0  2  0  0  0  0  0  0
  160.3710  204.2240  151.3080 O   0  0  0  0  0  0  0  0  0  0  0  0
  161.2080  203.0040  149.6010 C   0  0  2  0  0  3  0  0  0  0  0  0
  160.2690  202.1470  148.7060 C   0  0  1  0  0  3  0  0  0  0  0  0
  162.7180  205.5110  146.2510 O   0  0  0  0  0  0  0  0  0  0  0  0
  160.9950  204.3930  145.1140 C   0  0  0  0  0  1  0  0  0  0  0  0
  160.9160  202.7710  147.4210 C   0  0  0  0  0  2  0  0  0  0  0  0
  162.2370  213.3730  141.1670 C   0  0  0  0  0  1  0  0  0  0  0  0
  162.6820  212.3780  142.2050 C   0  0  0  0  0  2  0  0  0  0  0  0
  1  2  1  6  0  0  0
  1  5  1  0  0  0  0
  3  4  1  0  0  0  0
  4  6  1  0  0  0  0
  5 25  1  0  0  0  0
  5  9  1  0  0  0  0
  6 20  1  0  0  0  0
  7 37  1  0  0  0  0
  7 28  1  0  0  0  0
  8 18  1  0  0  0  0
  9 26  1  0  0  0  0
 10 24  1  0  0  0  0
 11 30  1  0  0  0  0
 12 22  2  0  0  0  0
 12 25  1  0  0  0  0
 13 30  1  0  0  0  0
 13  7  1  0  0  0  0
 14 10  1  0  0  0  0
 14 17  1  0  0  0  0
 15  1  1  0  0  0  0
 15 31  1  0  0  0  0
 16  2  1  0  0  0  0
 17  3  1  0  0  0  0
 18 26  2  0  0  0  0
 19  6  2  0  0  0  0
 20 29  1  0  0  0  0
 21 17  2  0  0  0  0
 23 24  1  0  0  0  0
 23 16  1  0  0  0  0
 24 19  1  0  0  0  0
 25  9  1  0  0  0  0
 26 11  1  0  0  0  0
 27 28  1  0  0  0  0
 29 12  1  0  0  0  0
 30 27  2  0  0  0  0
 31  8  1  0  0  0  0
 33 37  1  0  0  0  0
 34 36  1  0  0  0  0
 35 33  2  0  0  0  0
 35 34  1  0  0  0  0
 36 32  1  0  0  0  0
 37 32  1  0  0  0  0
 38 35  1  0  0  0  0
 39 38  1  0  0  0  0
 40 39  1  0  0  0  0
 41 40  1  0  0  0  0
 42 41  1  0  0  0  0
 43 52  1  0  0  0  0
 44 50  2  0  0  0  0
 45 47  1  0  0  0  0
 46 45  1  0  0  0  0
 47 53  1  0  0  0  0
 47 48  1  0  0  0  0
 48 51  1  0  0  0  0
 50 48  1  0  0  0  0
 50 41  1  0  0  0  0
 51 52  1  0  0  0  0
 53 43  1  0  0  0  0
 54 49  1  0  0  0  0
 54 53  1  0  0  0  0
 55 46  2  0  0  0  0
 56 46  1  0  0  0  0
 57 45  1  0  0  0  0
 57 54  1  0  0  0  0
 58 59  1  0  0  0  0
 59 14  1  0  0  0  0
M  END
>  <MODEL>
2

>  <REMARK>
 VINA RESULT:      -4.1      4.008     10.145
  Name = 
  7 active torsions:
  status: ('A' for Active; 'I' for Inactive)
    1  A    between atoms: C_11  and  C_28
    2  A    between atoms: C_11  and  C_33
    3  A    between atoms: C_12  and  C_57
    4  A    between atoms: C_21  and  O_26
    5  A    between atoms: O_26  and  C_32
    6  A    between atoms: C_28  and  C_32
    7  A    between atoms: C_30  and  C_44
                            x       y       z     vdW  Elec       q    Type
                         _______ _______ _______ _____ _____    ______ ____

>  <TORSDO>
F 7

$$$$
=
 OpenBabel11042422043D

 59 66  0  0  1  0  0  0  0  0999 V2000
  156.8180  213.1490  149.1260 C   0  0  1  0  0  3  0  0  0  0  0  0
  157.7220  212.7730  147.9550 C   0  0  0  0  0  2  0  0  0  0  0  0
  163.0440  212.6440  145.6870 O   0  0  0  0  0  0  0  0  0  0  0  0
  162.5140  213.3750  146.7860 C   0  0  0  0  0  2  0  0  0  0  0  0
  157.2960  213.6560  150.4560 C   0  0  1  0  0  3  0  0  0  0  0  0
  161.2210  212.8340  147.2930 C   0  0  0  0  0  0  0  0  0  0  0  0
  159.5130  211.3840  155.6680 C   0  0  2  0  0  3  0  0  0  0  0  0
  154.6830  214.4530  151.2230 C   0  0  0  0  0  2  0  0  0  0  0  0
  157.0960  212.5330  151.5330 C   0  0  1  0  0  3  0  0  0  0  0  0
  160.5690  212.1140  144.0190 C   0  0  0  0  0  2  0  0  0  0  0  0
  156.8190  213.3710  154.1310 N   0  0  0  0  0  2  0  0  0  0  0  0
  159.5800  212.5150  150.4770 C   0  0  0  0  0  0  0  0  0  0  0  0
  158.4450  211.2270  154.2140 S   0  0  0  0  0  0  0  0  0  0  0  0
  161.8670  212.7890  143.3850 C   0  0  1  0  0  3  0  0  0  0  0  0
  155.4850  213.2240  149.0140 C   0  0  0  0  0  2  0  0  0  0  0  0
  157.2240  213.3400  146.2410 S   0  0  0  0  0  0  0  0  0  0  0  0
  162.8990  213.2740  144.4240 C   0  0  0  0  0  0  0  0  0  0  0  0
  155.1790  213.8940  152.5260 N   0  0  0  0  0  0  0  0  0  0  0  0
  160.3730  212.2380  146.4840 N   0  0  0  0  0  0  0  0  0  0  0  0
  161.2310  212.5020  148.6500 N   0  0  0  0  0  2  0  0  0  0  0  0
  163.2990  214.4530  144.3420 O   0  0  0  0  0  0  0  0  0  0  0  0
  160.1640  211.5860  151.2120 C   0  0  0  0  0  2  0  0  0  0  0  0
  158.4190  212.4430  145.1630 C   0  0  0  0  0  2  0  0  0  0  0  0
  159.8890  212.7800  145.2190 C   0  0  2  0  0  3  0  0  0  0  0  0
  158.4590  213.1950  151.2900 C   0  0  1  0  0  3  0  0  0  0  0  0
  156.2880  213.2960  152.7470 C   0  0  0  0  0  0  0  0  0  0  0  0
  157.6890  212.7500  156.2100 N   0  0  0  0  0  0  0  0  0  0  0  0
  158.7650  211.9970  156.8470 C   0  0  0  0  0  2  0  0  0  0  0  0
  160.3420  213.2750  149.4530 C   0  0  0  0  0  2  0  0  0  0  0  0
  157.5260  212.4900  154.9250 C   0  0  0  0  0  0  0  0  0  0  0  0
  154.5110  213.4240  150.0620 C   0  0  0  0  0  2  0  0  0  0  0  0
  161.7190  210.9050  157.1230 C   0  0  0  0  0  2  0  0  0  0  0  0
  161.4220  210.0810  154.7200 N   0  0  0  0  0  0  0  0  0  0  0  0
  163.6440  210.8840  155.3540 C   0  0  0  0  0  2  0  0  0  0  0  0
  162.6610  210.1380  154.4640 C   0  0  0  0  0  0  0  0  0  0  0  0
  163.2780  210.6370  156.8860 C   0  0  0  0  0  2  0  0  0  0  0  0
  161.0340  211.0530  155.6870 C   0  0  1  0  0  3  0  0  0  0  0  0
  163.0120  209.6070  153.2510 O   0  0  0  0  0  0  0  0  0  0  0  0
  162.1440  209.4570  152.1780 C   0  0  0  0  0  2  0  0  0  0  0  0
  162.4620  208.0650  151.7010 C   0  0  0  0  0  2  0  0  0  0  0  0
  161.6450  206.9830  152.3390 C   0  0  1  0  0  3  0  0  0  0  0  0
  160.6820  207.6220  153.1340 O   0  0  0  0  0  1  0  0  0  0  0  0
  161.8730  207.3370  147.5310 O   0  0  0  0  0  0  0  0  0  0  0  0
  160.1430  205.1210  151.7330 O   0  0  0  0  0  0  0  0  0  0  0  0
  161.4290  203.9970  148.6090 N   0  0  0  0  0  0  0  0  0  0  0  0
  160.9610  202.6870  149.1430 C   0  0  0  0  0  0  0  0  0  0  0  0
  160.8130  205.3710  148.7760 C   0  0  1  0  0  3  0  0  0  0  0  0
  161.3040  206.0900  150.0010 N   0  0  0  0  0  0  0  0  0  0  0  0
  161.7300  205.3410  145.1700 O   0  0  0  0  0  1  0  0  0  0  0  0
  161.0490  205.9440  151.3700 C   0  0  0  0  0  0  0  0  0  0  0  0
  161.4580  207.5420  149.6980 C   0  0  0  0  0  2  0  0  0  0  0  0
  162.3480  207.6700  148.6940 O   0  0  0  0  0  0  0  0  0  0  0  0
  161.3940  206.0260  147.4740 C   0  0  2  0  0  3  0  0  0  0  0  0
  162.2490  205.1580  146.5070 C   0  0  1  0  0  3  0  0  0  0  0  0
  160.0450  202.5850  149.9510 O   0  0  0  0  0  0  0  0  0  0  0  0
  161.6590  201.4810  148.6520 C   0  0  0  0  0  1  0  0  0  0  0  0
  161.6380  203.8550  147.1270 C   0  0  0  0  0  2  0  0  0  0  0  0
  161.5050  211.8360  141.1980 C   0  0  0  0  0  1  0  0  0  0  0  0
  162.5780  212.4000  142.0900 C   0  0  0  0  0  2  0  0  0  0  0  0
  1  2  1  6  0  0  0
  1  5  1  0  0  0  0
  3  4  1  0  0  0  0
  4  6  1  0  0  0  0
  5 25  1  0  0  0  0
  5  9  1  0  0  0  0
  6 20  1  0  0  0  0
  7 37  1  0  0  0  0
  7 28  1  0  0  0  0
  8 18  1  0  0  0  0
  9 26  1  0  0  0  0
 10 24  1  0  0  0  0
 11 30  1  0  0  0  0
 12 22  2  0  0  0  0
 12 25  1  0  0  0  0
 13 30  1  0  0  0  0
 13  7  1  0  0  0  0
 14 10  1  0  0  0  0
 14 17  1  0  0  0  0
 15  1  1  0  0  0  0
 15 31  1  0  0  0  0
 16  2  1  0  0  0  0
 17  3  1  0  0  0  0
 18 26  2  0  0  0  0
 19  6  2  0  0  0  0
 20 29  1  0  0  0  0
 21 17  2  0  0  0  0
 23 24  1  0  0  0  0
 23 16  1  0  0  0  0
 24 19  1  0  0  0  0
 25  9  1  0  0  0  0
 26 11  1  0  0  0  0
 27 28  1  0  0  0  0
 29 12  1  0  0  0  0
 30 27  2  0  0  0  0
 31  8  1  0  0  0  0
 33 37  1  0  0  0  0
 34 36  1  0  0  0  0
 35 33  2  0  0  0  0
 35 34  1  0  0  0  0
 36 32  1  0  0  0  0
 37 32  1  0  0  0  0
 38 35  1  0  0  0  0
 39 38  1  0  0  0  0
 40 39  1  0  0  0  0
 40 41  1  0  0  0  0
 41 42  1  0  0  0  0
 43 52  1  0  0  0  0
 45 47  1  0  0  0  0
 45 46  1  0  0  0  0
 46 55  2  0  0  0  0
 47 48  1  0  0  0  0
 48 50  1  0  0  0  0
 49 54  1  0  0  0  0
 50 44  2  0  0  0  0
 50 41  1  0  0  0  0
 51 48  1  0  0  0  0
 52 51  1  0  0  0  0
 53 43  1  0  0  0  0
 53 47  1  0  0  0  0
 54 57  1  0  0  0  0
 54 53  1  0  0  0  0
 56 46  1  0  0  0  0
 57 45  1  0  0  0  0
 58 59  1  0  0  0  0
 59 14  1  0  0  0  0
M  END
>  <MODEL>
3

>  <REMARK>
 VINA RESULT:      -3.8      3.969     10.080
  Name = 
  7 active torsions:
  status: ('A' for Active; 'I' for Inactive)
    1  A    between atoms: C_11  and  C_28
    2  A    between atoms: C_11  and  C_33
    3  A    between atoms: C_12  and  C_57
    4  A    between atoms: C_21  and  O_26
    5  A    between atoms: O_26  and  C_32
    6  A    between atoms: C_28  and  C_32
    7  A    between atoms: C_30  and  C_44
                            x       y       z     vdW  Elec       q    Type
                         _______ _______ _______ _____ _____    ______ ____

>  <TORSDO>
F 7

$$$$
=
 OpenBabel11042422043D

 59 66  0  0  1  0  0  0  0  0999 V2000
  161.1920  205.4090  151.6160 C   0  0  1  0  0  3  0  0  0  0  0  0
  161.5130  204.3560  150.5590 C   0  0  0  0  0  2  0  0  0  0  0  0
  160.9250  202.5180  145.1040 O   0  0  0  0  0  0  0  0  0  0  0  0
  160.1980  203.4890  145.8460 C   0  0  0  0  0  2  0  0  0  0  0  0
  160.4870  206.7090  151.3520 C   0  0  1  0  0  3  0  0  0  0  0  0
  160.9060  203.9540  147.0730 C   0  0  0  0  0  0  0  0  0  0  0  0
  161.8400  212.2860  149.2780 C   0  0  2  0  0  3  0  0  0  0  0  0
  160.0890  207.1880  154.1210 C   0  0  0  0  0  2  0  0  0  0  0  0
  161.5220  207.8830  151.4620 C   0  0  1  0  0  3  0  0  0  0  0  0
  162.0320  200.7380  147.2930 C   0  0  0  0  0  2  0  0  0  0  0  0
  160.5060  210.3470  152.1110 N   0  0  0  0  0  2  0  0  0  0  0  0
  161.2060  207.0230  148.9230 C   0  0  0  0  0  0  0  0  0  0  0  0
  162.3160  210.7820  150.1670 S   0  0  0  0  0  0  0  0  0  0  0  0
  161.2040  200.1330  146.0730 C   0  0  1  0  0  3  0  0  0  0  0  0
  161.3600  205.1910  152.9270 C   0  0  0  0  0  2  0  0  0  0  0  0
  161.2040  202.5580  150.9840 S   0  0  0  0  0  0  0  0  0  0  0  0
  160.4510  201.1870  145.2350 C   0  0  0  0  0  0  0  0  0  0  0  0
  160.4290  208.5780  153.6600 N   0  0  0  0  0  0  0  0  0  0  0  0
  161.7140  203.1530  147.7320 N   0  0  0  0  0  0  0  0  0  0  0  0
  161.1030  205.3350  147.1320 N   0  0  0  0  0  2  0  0  0  0  0  0
  159.2330  201.0080  145.0290 O   0  0  0  0  0  0  0  0  0  0  0  0
  161.9460  207.8950  148.2630 C   0  0  0  0  0  2  0  0  0  0  0  0
  161.9760  201.6760  149.5630 C   0  0  0  0  0  2  0  0  0  0  0  0
  161.3850  201.8050  148.1810 C   0  0  2  0  0  3  0  0  0  0  0  0
  160.6590  207.6720  150.2110 C   0  0  1  0  0  3  0  0  0  0  0  0
  160.8000  208.9440  152.4930 C   0  0  0  0  0  0  0  0  0  0  0  0
  160.7680  212.5400  151.3450 N   0  0  0  0  0  0  0  0  0  0  0  0
  161.2590  213.3330  150.2220 C   0  0  0  0  0  2  0  0  0  0  0  0
  160.4250  205.9820  148.2060 C   0  0  0  0  0  2  0  0  0  0  0  0
  161.1720  211.2820  151.3440 C   0  0  0  0  0  0  0  0  0  0  0  0
  161.2360  206.1350  154.0130 C   0  0  0  0  0  2  0  0  0  0  0  0
  163.3500  212.4580  147.0630 C   0  0  0  0  0  2  0  0  0  0  0  0
  160.9060  211.7050  147.0340 N   0  0  0  0  0  0  0  0  0  0  0  0
  161.6500  213.1380  145.1970 C   0  0  0  0  0  2  0  0  0  0  0  0
  160.6950  212.1650  145.8730 C   0  0  0  0  0  0  0  0  0  0  0  0
  163.1560  212.7110  145.4960 C   0  0  0  0  0  2  0  0  0  0  0  0
  161.8980  212.4540  147.7310 C   0  0  1  0  0  3  0  0  0  0  0  0
  159.4750  211.8350  145.3480 O   0  0  0  0  0  0  0  0  0  0  0  0
  158.6140  212.7350  144.7350 C   0  0  0  0  0  2  0  0  0  0  0  0
  159.5540  213.5600  143.8980 C   0  0  0  0  0  2  0  0  0  0  0  0
  159.3660  213.4150  142.4180 C   0  0  1  0  0  3  0  0  0  0  0  0
  158.5110  214.4530  142.0190 O   0  0  0  0  0  1  0  0  0  0  0  0
  160.5080  209.7120  139.5420 O   0  0  0  0  0  0  0  0  0  0  0  0
  161.6900  214.0400  141.8720 O   0  0  0  0  0  0  0  0  0  0  0  0
  162.1690  212.6930  138.6120 N   0  0  0  0  0  0  0  0  0  0  0  0
  163.0250  213.9060  138.4810 C   0  0  0  0  0  0  0  0  0  0  0  0
  161.9450  211.8090  139.8200 C   0  0  1  0  0  3  0  0  0  0  0  0
  160.8110  212.2760  140.6880 N   0  0  0  0  0  0  0  0  0  0  0  0
  162.3400  209.3270  137.0760 O   0  0  0  0  0  1  0  0  0  0  0  0
  160.6630  213.3360  141.5900 C   0  0  0  0  0  0  0  0  0  0  0  0
  160.0680  211.0950  141.2160 C   0  0  0  0  0  2  0  0  0  0  0  0
  159.5950  210.3920  140.1680 O   0  0  0  0  0  0  0  0  0  0  0  0
  161.5580  210.4950  139.0550 C   0  0  2  0  0  3  0  0  0  0  0  0
  161.5890  210.4870  137.5000 C   0  0  1  0  0  3  0  0  0  0  0  0
  163.5680  214.4450  139.4390 O   0  0  0  0  0  0  0  0  0  0  0  0
  163.2020  214.4530  137.1200 C   0  0  0  0  0  1  0  0  0  0  0  0
  162.5320  211.7400  137.5080 C   0  0  0  0  0  2  0  0  0  0  0  0
  160.4380  197.9740  145.3130 C   0  0  0  0  0  1  0  0  0  0  0  0
  161.5820  198.9440  145.1910 C   0  0  0  0  0  2  0  0  0  0  0  0
  1  2  1  1  0  0  0
  1 15  1  0  0  0  0
  2 16  1  0  0  0  0
  3 17  1  0  0  0  0
  3  4  1  0  0  0  0
  4  6  1  0  0  0  0
  5  9  1  0  0  0  0
  5  1  1  0  0  0  0
  6 20  1  0  0  0  0
  6 19  2  0  0  0  0
  7 13  1  0  0  0  0
  7 28  1  0  0  0  0
  9 26  1  0  0  0  0
 10 24  1  0  0  0  0
 11 26  1  0  0  0  0
 12 25  1  0  0  0  0
 13 30  1  0  0  0  0
 14 10  1  0  0  0  0
 15 31  1  0  0  0  0
 17 14  1  0  0  0  0
 18  8  1  0  0  0  0
 19 24  1  0  0  0  0
 20 29  1  0  0  0  0
 21 17  2  0  0  0  0
 22 12  2  0  0  0  0
 23 16  1  0  0  0  0
 24 23  1  0  0  0  0
 25  5  1  0  0  0  0
 25  9  1  0  0  0  0
 26 18  2  0  0  0  0
 28 27  1  0  0  0  0
 29 12  1  0  0  0  0
 30 27  2  0  0  0  0
 30 11  1  0  0  0  0
 31  8  1  0  0  0  0
 32 37  1  0  0  0  0
 33 37  1  0  0  0  0
 34 36  1  0  0  0  0
 34 35  1  0  0  0  0
 35 33  2  0  0  0  0
 36 32  1  0  0  0  0
 37  7  1  0  0  0  0
 38 35  1  0  0  0  0
 39 38  1  0  0  0  0
 40 39  1  0  0  0  0
 41 40  1  0  0  0  0
 42 41  1  0  0  0  0
 43 52  1  0  0  0  0
 45 47  1  0  0  0  0
 46 45  1  0  0  0  0
 46 55  2  0  0  0  0
 47 48  1  0  0  0  0
 48 51  1  0  0  0  0
 48 50  1  0  0  0  0
 49 54  1  0  0  0  0
 50 44  2  0  0  0  0
 50 41  1  0  0  0  0
 52 51  1  0  0  0  0
 53 43  1  0  0  0  0
 53 47  1  0  0  0  0
 54 57  1  0  0  0  0
 54 53  1  0  0  0  0
 56 46  1  0  0  0  0
 57 45  1  0  0  0  0
 59 58  1  0  0  0  0
 59 14  1  0  0  0  0
M  END
>  <MODEL>
4

>  <REMARK>
 VINA RESULT:      -3.8      1.413      2.131
  Name = 
  7 active torsions:
  status: ('A' for Active; 'I' for Inactive)
    1  A    between atoms: C_11  and  C_28
    2  A    between atoms: C_11  and  C_33
    3  A    between atoms: C_12  and  C_57
    4  A    between atoms: C_21  and  O_26
    5  A    between atoms: O_26  and  C_32
    6  A    between atoms: C_28  and  C_32
    7  A    between atoms: C_30  and  C_44
                            x       y       z     vdW  Elec       q    Type
                         _______ _______ _______ _____ _____    ______ ____

>  <TORSDO>
F 7

$$$$
=
 OpenBabel11042422043D

 59 66  0  0  1  0  0  0  0  0999 V2000
  161.1780  205.7660  152.0070 C   0  0  1  0  0  3  0  0  0  0  0  0
  161.5290  204.6750  150.9990 C   0  0  0  0  0  2  0  0  0  0  0  0
  161.0270  202.5930  145.6240 O   0  0  0  0  0  0  0  0  0  0  0  0
  160.2750  203.5800  146.3170 C   0  0  0  0  0  2  0  0  0  0  0  0
  160.4510  207.0400  151.6820 C   0  0  1  0  0  3  0  0  0  0  0  0
  160.9630  204.1110  147.5290 C   0  0  0  0  0  0  0  0  0  0  0  0
  161.7150  212.5480  149.3790 C   0  0  2  0  0  3  0  0  0  0  0  0
  160.0180  207.6300  154.4230 C   0  0  0  0  0  2  0  0  0  0  0  0
  161.4620  208.2370  151.7490 C   0  0  1  0  0  3  0  0  0  0  0  0
  162.1480  200.9300  147.8970 C   0  0  0  0  0  2  0  0  0  0  0  0
  160.3930  210.7070  152.2820 N   0  0  0  0  0  2  0  0  0  0  0  0
  161.1860  207.2630  149.2470 C   0  0  0  0  0  0  0  0  0  0  0  0
  162.2120  211.0930  150.3370 S   0  0  0  0  0  0  0  0  0  0  0  0
  161.3430  200.2570  146.6970 C   0  0  1  0  0  3  0  0  0  0  0  0
  161.3390  205.6080  153.3270 C   0  0  0  0  0  2  0  0  0  0  0  0
  161.2510  202.8920  151.4990 S   0  0  0  0  0  0  0  0  0  0  0  0
  160.5780  201.2600  145.8080 C   0  0  0  0  0  0  0  0  0  0  0  0
  160.3350  209.0040  153.9060 N   0  0  0  0  0  0  0  0  0  0  0  0
  161.7790  203.3560  148.2290 N   0  0  0  0  0  0  0  0  0  0  0  0
  161.1320  205.4980  147.5300 N   0  0  0  0  0  2  0  0  0  0  0  0
  159.3660  201.0480  145.6010 O   0  0  0  0  0  0  0  0  0  0  0  0
  161.9150  208.1200  148.5570 C   0  0  0  0  0  2  0  0  0  0  0  0
  162.0530  201.9640  150.1250 C   0  0  0  0  0  2  0  0  0  0  0  0
  161.4720  202.0220  148.7330 C   0  0  2  0  0  3  0  0  0  0  0  0
  160.6150  207.9550  150.5010 C   0  0  1  0  0  3  0  0  0  0  0  0
  160.7110  209.3270  152.7270 C   0  0  0  0  0  0  0  0  0  0  0  0
  160.6200  212.8690  151.4240 N   0  0  0  0  0  0  0  0  0  0  0  0
  161.1060  213.6220  150.2730 C   0  0  0  0  0  2  0  0  0  0  0  0
  160.4320  206.1770  148.5690 C   0  0  0  0  0  2  0  0  0  0  0  0
  161.0480  211.6200  151.4810 C   0  0  0  0  0  0  0  0  0  0  0  0
  161.1860  206.5960  154.3710 C   0  0  0  0  0  2  0  0  0  0  0  0
  163.2330  212.5300  147.1630 C   0  0  0  0  0  2  0  0  0  0  0  0
  160.7440  211.9430  147.1580 N   0  0  0  0  0  0  0  0  0  0  0  0
  161.5830  213.2480  145.2670 C   0  0  0  0  0  2  0  0  0  0  0  0
  160.5650  212.3690  145.9790 C   0  0  0  0  0  0  0  0  0  0  0  0
  163.0570  212.7320  145.5870 C   0  0  0  0  0  2  0  0  0  0  0  0
  161.7850  212.6500  147.8270 C   0  0  1  0  0  3  0  0  0  0  0  0
  159.3250  212.1020  145.4640 O   0  0  0  0  0  0  0  0  0  0  0  0
  158.6370  212.9400  144.5970 C   0  0  0  0  0  2  0  0  0  0  0  0
  159.2540  212.6020  143.2660 C   0  0  0  0  0  2  0  0  0  0  0  0
  158.4610  213.0490  142.0770 C   0  0  1  0  0  3  0  0  0  0  0  0
  158.2600  214.4290  142.2230 O   0  0  0  0  0  1  0  0  0  0  0  0
  162.8320  214.3820  140.5240 O   0  0  0  0  0  0  0  0  0  0  0  0
  158.3040  212.2760  139.7380 O   0  0  0  0  0  0  0  0  0  0  0  0
  161.6670  211.4620  138.9030 N   0  0  0  0  0  0  0  0  0  0  0  0
  160.9760  210.4230  138.0870 C   0  0  0  0  0  0  0  0  0  0  0  0
  161.2360  212.8820  139.2040 C   0  0  1  0  0  3  0  0  0  0  0  0
  160.3770  212.9880  140.4320 N   0  0  0  0  0  0  0  0  0  0  0  0
  164.8590  213.2870  138.4560 O   0  0  0  0  0  1  0  0  0  0  0  0
  159.0450  212.6560  140.7060 C   0  0  0  0  0  0  0  0  0  0  0  0
  160.7190  214.2360  141.1730 C   0  0  0  0  0  2  0  0  0  0  0  0
  162.0200  214.1780  141.5170 O   0  0  0  0  0  0  0  0  0  0  0  0
  162.6600  213.4860  139.4640 C   0  0  2  0  0  3  0  0  0  0  0  0
  163.9120  212.5800  139.2880 C   0  0  1  0  0  3  0  0  0  0  0  0
  159.8360  210.5620  137.6580 O   0  0  0  0  0  0  0  0  0  0  0  0
  161.7320  209.1850  137.8060 C   0  0  0  0  0  1  0  0  0  0  0  0
  163.0780  211.5930  138.4010 C   0  0  0  0  0  2  0  0  0  0  0  0
  160.5690  198.7350  144.9920 C   0  0  0  0  0  1  0  0  0  0  0  0
  161.7520  199.0390  145.8710 C   0  0  0  0  0  2  0  0  0  0  0  0
  1  2  1  1  0  0  0
  1 15  1  0  0  0  0
  2 16  1  0  0  0  0
  3 17  1  0  0  0  0
  3  4  1  0  0  0  0
  4  6  1  0  0  0  0
  5  9  1  0  0  0  0
  5  1  1  0  0  0  0
  6 20  1  0  0  0  0
  6 19  2  0  0  0  0
  7 28  1  0  0  0  0
  7 13  1  0  0  0  0
  9 26  1  0  0  0  0
 10 24  1  0  0  0  0
 11 26  1  0  0  0  0
 12 25  1  0  0  0  0
 13 30  1  0  0  0  0
 14 10  1  0  0  0  0
 15 31  1  0  0  0  0
 17 14  1  0  0  0  0
 18  8  1  0  0  0  0
 19 24  1  0  0  0  0
 20 29  1  0  0  0  0
 21 17  2  0  0  0  0
 22 12  2  0  0  0  0
 23 16  1  0  0  0  0
 24 23  1  0  0  0  0
 25  5  1  0  0  0  0
 25  9  1  0  0  0  0
 26 18  2  0  0  0  0
 27 30  2  0  0  0  0
 28 27  1  0  0  0  0
 29 12  1  0  0  0  0
 30 11  1  0  0  0  0
 31  8  1  0  0  0  0
 32 37  1  0  0  0  0
 33 37  1  0  0  0  0
 34 36  1  0  0  0  0
 34 35  1  0  0  0  0
 35 33  2  0  0  0  0
 36 32  1  0  0  0  0
 37  7  1  0  0  0  0
 38 35  1  0  0  0  0
 39 38  1  0  0  0  0
 40 39  1  0  0  0  0
 41 42  1  0  0  0  0
 41 40  1  0  0  0  0
 43 52  1  0  0  0  0
 44 50  2  0  0  0  0
 45 47  1  0  0  0  0
 46 45  1  0  0  0  0
 47 53  1  0  0  0  0
 47 48  1  0  0  0  0
 48 50  1  0  0  0  0
 48 51  1  0  0  0  0
 49 54  1  0  0  0  0
 50 41  1  0  0  0  0
 51 52  1  0  0  0  0
 53 43  1  0  0  0  0
 54 53  1  0  0  0  0
 55 46  2  0  0  0  0
 56 46  1  0  0  0  0
 57 45  1  0  0  0  0
 57 54  1  0  0  0  0
 58 59  1  0  0  0  0
 59 14  1  0  0  0  0
M  END
>  <MODEL>
5

>  <REMARK>
 VINA RESULT:      -3.8      1.381      1.904
  Name = 
  7 active torsions:
  status: ('A' for Active; 'I' for Inactive)
    1  A    between atoms: C_11  and  C_28
    2  A    between atoms: C_11  and  C_33
    3  A    between atoms: C_12  and  C_57
    4  A    between atoms: C_21  and  O_26
    5  A    between atoms: O_26  and  C_32
    6  A    between atoms: C_28  and  C_32
    7  A    between atoms: C_30  and  C_44
                            x       y       z     vdW  Elec       q    Type
                         _______ _______ _______ _____ _____    ______ ____

>  <TORSDO>
F 7

$$$$
=
 OpenBabel11042422043D

 59 66  0  0  1  0  0  0  0  0999 V2000
  161.5410  205.7930  151.6740 C   0  0  1  0  0  3  0  0  0  0  0  0
  161.8090  204.6650  150.6830 C   0  0  0  0  0  2  0  0  0  0  0  0
  160.7080  202.2730  145.5300 O   0  0  0  0  0  0  0  0  0  0  0  0
  160.0060  203.2640  146.2690 C   0  0  0  0  0  2  0  0  0  0  0  0
  160.7150  207.0150  151.3880 C   0  0  1  0  0  3  0  0  0  0  0  0
  160.8200  203.8890  147.3500 C   0  0  0  0  0  0  0  0  0  0  0  0
  161.3940  212.4380  148.6730 C   0  0  2  0  0  3  0  0  0  0  0  0
  160.6180  207.7350  154.1310 C   0  0  0  0  0  2  0  0  0  0  0  0
  161.6670  208.2560  151.2610 C   0  0  1  0  0  3  0  0  0  0  0  0
  162.1990  200.7860  147.7110 C   0  0  0  0  0  2  0  0  0  0  0  0
  160.5560  210.7040  151.8120 N   0  0  0  0  0  2  0  0  0  0  0  0
  161.1120  207.1360  148.8690 C   0  0  0  0  0  0  0  0  0  0  0  0
  162.0830  211.0600  149.6250 S   0  0  0  0  0  0  0  0  0  0  0  0
  161.2760  200.0150  146.6630 C   0  0  1  0  0  3  0  0  0  0  0  0
  161.8810  205.7150  152.9670 C   0  0  0  0  0  2  0  0  0  0  0  0
  161.6870  202.9010  151.3010 S   0  0  0  0  0  0  0  0  0  0  0  0
  160.3530  200.9340  145.8370 C   0  0  0  0  0  0  0  0  0  0  0  0
  160.7970  209.0920  153.5100 N   0  0  0  0  0  0  0  0  0  0  0  0
  161.7580  203.2080  147.9710 N   0  0  0  0  0  0  0  0  0  0  0  0
  160.9200  205.2790  147.2620 N   0  0  0  0  0  2  0  0  0  0  0  0
  159.1360  200.6600  145.8040 O   0  0  0  0  0  0  0  0  0  0  0  0
  161.7010  207.9850  148.0460 C   0  0  0  0  0  2  0  0  0  0  0  0
  162.3460  201.9350  149.8780 C   0  0  0  0  0  2  0  0  0  0  0  0
  161.5860  201.8920  148.5750 C   0  0  2  0  0  3  0  0  0  0  0  0
  160.6780  207.8710  150.1530 C   0  0  1  0  0  3  0  0  0  0  0  0
  160.9980  209.3660  152.2770 C   0  0  0  0  0  0  0  0  0  0  0  0
  160.5630  212.8240  150.8280 N   0  0  0  0  0  0  0  0  0  0  0  0
  160.8550  213.5330  149.5860 C   0  0  0  0  0  2  0  0  0  0  0  0
  160.3300  205.9840  148.3520 C   0  0  0  0  0  2  0  0  0  0  0  0
  161.0550  211.5990  150.8880 C   0  0  0  0  0  0  0  0  0  0  0  0
  161.8190  206.7500  153.9730 C   0  0  0  0  0  2  0  0  0  0  0  0
  159.7700  212.3810  146.5340 C   0  0  0  0  0  2  0  0  0  0  0  0
  162.1200  213.3890  146.4790 N   0  0  0  0  0  0  0  0  0  0  0  0
  161.4060  212.1240  144.5110 C   0  0  0  0  0  2  0  0  0  0  0  0
  162.3000  213.1020  145.2590 C   0  0  0  0  0  0  0  0  0  0  0  0
  159.8860  212.3470  144.9400 C   0  0  0  0  0  2  0  0  0  0  0  0
  161.2540  212.4580  147.1230 C   0  0  1  0  0  3  0  0  0  0  0  0
  163.4450  213.6230  144.7190 O   0  0  0  0  0  0  0  0  0  0  0  0
  163.8420  213.4510  143.4000 C   0  0  0  0  0  2  0  0  0  0  0  0
  162.9850  214.4530  142.6740 C   0  0  0  0  0  2  0  0  0  0  0  0
  162.5760  214.0430  141.2920 C   0  0  1  0  0  3  0  0  0  0  0  0
  163.6590  214.3320  140.4500 O   0  0  0  0  0  1  0  0  0  0  0  0
  158.0340  212.8900  140.1390 O   0  0  0  0  0  0  0  0  0  0  0  0
  162.6720  211.6090  141.6880 O   0  0  0  0  0  0  0  0  0  0  0  0
  160.3110  210.2940  139.3710 N   0  0  0  0  0  0  0  0  0  0  0  0
  161.2910  209.1720  139.3530 C   0  0  0  0  0  0  0  0  0  0  0  0
  159.8940  211.1780  140.5280 C   0  0  1  0  0  3  0  0  0  0  0  0
  160.7620  212.3960  140.6800 N   0  0  0  0  0  0  0  0  0  0  0  0
  156.6410  210.4270  138.8830 O   0  0  0  0  0  1  0  0  0  0  0  0
  162.0620  212.5960  141.1560 C   0  0  0  0  0  0  0  0  0  0  0  0
  159.9220  213.5590  141.0860 C   0  0  0  0  0  2  0  0  0  0  0  0
  158.9950  213.7640  140.1290 O   0  0  0  0  0  0  0  0  0  0  0  0
  158.4710  211.5710  139.9950 C   0  0  2  0  0  3  0  0  0  0  0  0
  157.9670  210.9570  138.6570 C   0  0  1  0  0  3  0  0  0  0  0  0
  162.0260  208.9130  140.2990 O   0  0  0  0  0  0  0  0  0  0  0  0
  161.3500  208.3590  138.1200 C   0  0  0  0  0  1  0  0  0  0  0  0
  159.0170  209.7990  138.7880 C   0  0  0  0  0  2  0  0  0  0  0  0
  160.4360  198.5060  144.9780 C   0  0  0  0  0  1  0  0  0  0  0  0
  161.6330  198.7720  145.8500 C   0  0  0  0  0  2  0  0  0  0  0  0
  1  2  1  1  0  0  0
  1 15  1  0  0  0  0
  2 16  1  0  0  0  0
  3 17  1  0  0  0  0
  3  4  1  0  0  0  0
  4  6  1  0  0  0  0
  5  1  1  0  0  0  0
  6 19  2  0  0  0  0
  7 28  1  0  0  0  0
  7 13  1  0  0  0  0
  9  5  1  0  0  0  0
  9 26  1  0  0  0  0
 10 24  1  0  0  0  0
 11 26  1  0  0  0  0
 12 25  1  0  0  0  0
 13 30  1  0  0  0  0
 14 10  1  0  0  0  0
 15 31  1  0  0  0  0
 17 14  1  0  0  0  0
 18  8  1  0  0  0  0
 19 24  1  0  0  0  0
 20  6  1  0  0  0  0
 20 29  1  0  0  0  0
 21 17  2  0  0  0  0
 22 12  2  0  0  0  0
 23 16  1  0  0  0  0
 24 23  1  0  0  0  0
 25  9  1  0  0  0  0
 25  5  1  0  0  0  0
 26 18  2  0  0  0  0
 27 30  2  0  0  0  0
 28 27  1  0  0  0  0
 29 12  1  0  0  0  0
 30 11  1  0  0  0  0
 31  8  1  0  0  0  0
 32 37  1  0  0  0  0
 33 37  1  0  0  0  0
 34 36  1  0  0  0  0
 34 35  1  0  0  0  0
 35 33  2  0  0  0  0
 36 32  1  0  0  0  0
 37  7  1  0  0  0  0
 38 35  1  0  0  0  0
 39 38  1  0  0  0  0
 40 39  1  0  0  0  0
 41 40  1  0  0  0  0
 42 41  1  0  0  0  0
 45 47  1  0  0  0  0
 46 45  1  0  0  0  0
 46 55  2  0  0  0  0
 47 48  1  0  0  0  0
 48 51  1  0  0  0  0
 48 50  1  0  0  0  0
 50 41  1  0  0  0  0
 50 44  2  0  0  0  0
 52 43  1  0  0  0  0
 52 51  1  0  0  0  0
 53 43  1  0  0  0  0
 53 47  1  0  0  0  0
 54 57  1  0  0  0  0
 54 49  1  0  0  0  0
 54 53  1  0  0  0  0
 56 46  1  0  0  0  0
 57 45  1  0  0  0  0
 58 59  1  0  0  0  0
 59 14  1  0  0  0  0
M  END
>  <MODEL>
6

>  <REMARK>
 VINA RESULT:      -2.9      1.328      2.501
  Name = 
  7 active torsions:
  status: ('A' for Active; 'I' for Inactive)
    1  A    between atoms: C_11  and  C_28
    2  A    between atoms: C_11  and  C_33
    3  A    between atoms: C_12  and  C_57
    4  A    between atoms: C_21  and  O_26
    5  A    between atoms: O_26  and  C_32
    6  A    between atoms: C_28  and  C_32
    7  A    between atoms: C_30  and  C_44
                            x       y       z     vdW  Elec       q    Type
                         _______ _______ _______ _____ _____    ______ ____

>  <TORSDO>
F 7

$$$$
