=
 OpenBabel11052410033D

 68 75  0  0  1  0  0  0  0  0999 V2000
  160.9220  208.2820  150.9180 O   0  0  0  0  0  0  0  0  0  0  0  0
  161.7180  210.0660  149.6430 N   0  0  0  0  0  0  0  0  0  0  0  0
  161.3220  208.6840  149.7920 C   0  0  0  0  0  0  0  0  0  0  0  0
  161.5660  214.0460  147.3710 C   0  0  0  0  0  3  0  0  0  0  0  0
  162.2240  210.5940  148.3730 C   0  0  2  0  0  3  0  0  0  0  0  0
  163.4160  212.6740  149.3250 O   0  0  0  0  0  1  0  0  0  0  0  0
  160.6170  214.4260  146.4090 C   0  0  0  0  0  3  0  0  0  0  0  0
  162.4970  212.0650  148.4770 C   0  0  0  0  0  0  0  0  0  0  0  0
  160.9480  211.7580  146.9750 C   0  0  0  0  0  0  0  0  0  0  0  0
  159.8590  213.4420  145.7430 C   0  0  0  0  0  0  0  0  0  0  0  0
  161.1820  210.5390  147.3390 N   0  0  0  0  0  0  0  0  0  0  0  0
  160.0290  212.1180  146.0450 N   0  0  0  0  0  0  0  0  0  0  0  0
  161.7080  212.6870  147.6290 C   0  0  0  0  0  0  0  0  0  0  0  0
  158.8290  213.8650  144.7500 C   0  0  0  0  0  2  0  0  0  0  0  0
  160.9120  213.9810  143.3900 C   0  0  0  0  0  1  0  0  0  0  0  0
  159.4720  214.4530  143.4970 C   0  0  1  0  0  3  0  0  0  0  0  0
  157.4360  214.4260  142.0400 N   0  0  0  0  0  0  0  0  0  0  0  0
  157.1760  213.9220  140.8200 C   0  0  0  0  0  0  0  0  0  0  0  0
  159.2310  213.3900  141.1610 C   0  0  0  0  0  3  0  0  0  0  0  0
  158.2260  213.2770  140.2750 N   0  0  0  0  0  0  0  0  0  0  0  0
  155.9330  214.1230  140.1510 N   0  0  0  0  0  1  0  0  0  0  0  0
  158.7230  214.0790  142.2520 C   0  0  0  0  0  0  0  0  0  0  0  0
  159.3910  210.8260  140.2130 O   0  0  0  0  0  1  0  0  0  0  0  0
  157.5130  211.4180  138.8060 C   0  0  0  0  0  2  0  0  0  0  0  0
  158.3380  212.7050  138.9320 C   0  0  2  0  0  3  0  0  0  0  0  0
  159.0070  211.3360  138.9700 C   0  0  1  0  0  0  0  0  0  0  0  0
  159.7580  210.8710  137.7370 C   0  0  0  0  0  2  0  0  0  0  0  0
  160.0790  209.5100  137.8650 O   0  0  0  0  0  0  0  0  0  0  0  0
  162.0910  210.5250  137.3980 F   0  0  0  0  0  0  0  0  0  0  0  0
  161.9210  208.2630  137.2690 F   0  0  0  0  0  0  0  0  0  0  0  0
  161.8500  209.2950  139.2610 F   0  0  0  0  0  0  0  0  0  0  0  0
  161.4820  209.3990  137.9340 C   0  0  0  0  0  0  0  0  0  0  0  0
  160.2540  205.9220  145.9490 C   0  0  0  0  0  3  0  0  0  0  0  0
  162.2590  206.1630  147.2840 C   0  0  0  0  0  0  0  0  0  0  0  0
  163.0140  205.1730  146.5190 C   0  0  0  0  0  3  0  0  0  0  0  0
  162.3960  204.5800  145.4850 C   0  0  0  0  0  3  0  0  0  0  0  0
  160.4040  207.4570  147.8700 N   0  0  0  0  0  0  0  0  0  0  0  0
  160.9600  204.8970  145.0750 C   0  0  0  0  0  3  0  0  0  0  0  0
  162.5880  206.8940  148.3330 C   0  0  1  0  0  3  0  0  0  0  0  0
  161.3940  207.7020  148.6800 C   0  0  0  0  0  0  0  0  0  0  0  0
  160.9040  206.4870  146.9620 C   0  0  0  0  0  0  0  0  0  0  0  0
  163.9000  206.8550  149.0450 C   0  0  0  0  0  2  0  0  0  0  0  0
  163.6940  206.5330  150.3890 O   0  0  0  0  0  1  0  0  0  0  0  0
  161.8010  210.9160  150.8310 C   0  0  0  0  0  2  0  0  0  0  0  0
  160.4910  211.6530  151.0540 C   0  0  0  0  0  2  0  0  0  0  0  0
  159.9040  211.2340  152.3890 C   0  0  0  0  0  2  0  0  0  0  0  0
  160.1450  212.3280  153.4170 C   0  0  0  0  0  2  0  0  0  0  0  0
  159.5390  211.3270  155.6030 C   0  0  1  0  0  3  0  0  0  0  0  0
  158.4400  209.2300  155.2610 O   0  0  0  0  0  1  0  0  0  0  0  0
  161.3950  210.4600  154.4410 C   0  0  0  0  0  0  0  0  0  0  0  0
  159.6660  211.9500  156.8440 O   0  0  0  0  0  1  0  0  0  0  0  0
  160.7030  211.7400  154.7010 C   0  0  1  0  0  3  0  0  0  0  0  0
  162.4790  210.3690  153.8040 O   0  0  0  0  0  0  0  0  0  0  0  0
  160.7560  209.3470  155.0320 N   0  0  0  0  0  0  0  0  0  0  0  0
  159.6000  209.8050  155.7850 C   0  0  1  0  0  3  0  0  0  0  0  0
  161.4640  208.1130  155.3430 C   0  0  0  0  0  2  0  0  0  0  0  0
  160.7210  206.9150  154.7840 C   0  0  0  0  0  2  0  0  0  0  0  0
  161.6110  206.1530  153.9280 N   0  0  0  0  0  2  0  0  0  0  0  0
  160.8010  205.1250  153.2960 C   0  0  0  0  0  2  0  0  0  0  0  0
  162.8180  204.2850  152.1630 C   0  0  0  0  0  1  0  0  0  0  0  0
  161.3930  204.7620  151.9430 C   0  0  1  0  0  3  0  0  0  0  0  0
  160.5670  203.6810  151.2370 C   0  0  1  0  0  3  0  0  0  0  0  0
  159.3560  204.2140  150.7830 O   0  0  0  0  0  1  0  0  0  0  0  0
  161.3300  203.1180  150.0430 C   0  0  2  0  0  3  0  0  0  0  0  0
  160.3780  202.3250  149.1660 C   0  0  2  0  0  3  0  0  0  0  0  0
  161.3310  201.6020  150.0930 C   0  0  0  0  0  2  0  0  0  0  0  0
  161.1270  200.9150  147.3470 N   0  0  0  0  0  1  0  0  0  0  0  0
  160.9270  202.2930  147.7560 C   0  0  0  0  0  2  0  0  0  0  0  0
  2  3  1  0  0  0  0
  2 44  1  0  0  0  0
  3  1  2  0  0  0  0
  4 13  1  0  0  0  0
  5  8  1  0  0  0  0
  5  2  1  1  0  0  0
  7  4  2  0  0  0  0
  8  6  1  0  0  0  0
  9 11  2  0  0  0  0
  9 13  1  0  0  0  0
 10 12  2  0  0  0  0
 10  7  1  0  0  0  0
 11  5  1  0  0  0  0
 12  9  1  0  0  0  0
 13  8  2  0  0  0  0
 14 10  1  0  0  0  0
 16 15  1  6  0  0  0
 16 14  1  0  0  0  0
 17 22  1  0  0  0  0
 18 17  2  0  0  0  0
 19 22  2  0  0  0  0
 20 18  1  0  0  0  0
 20 19  1  0  0  0  0
 21 18  1  0  0  0  0
 22 16  1  0  0  0  0
 24 26  1  0  0  0  0
 25 24  1  1  0  0  0
 25 26  1  0  0  0  0
 25 20  1  0  0  0  0
 26 23  1  1  0  0  0
 27 28  1  0  0  0  0
 27 26  1  0  0  0  0
 28 32  1  0  0  0  0
 29 32  1  0  0  0  0
 30 32  1  0  0  0  0
 32 31  1  0  0  0  0
 33 41  1  0  0  0  0
 34 39  1  0  0  0  0
 35 34  1  0  0  0  0
 36 35  2  0  0  0  0
 37 40  2  0  0  0  0
 38 36  1  0  0  0  0
 38 33  2  0  0  0  0
 39 40  1  0  0  0  0
 39 42  1  1  0  0  0
 40  3  1  0  0  0  0
 41 34  2  0  0  0  0
 41 37  1  0  0  0  0
 42 43  1  0  0  0  0
 44 45  1  0  0  0  0
 45 46  1  0  0  0  0
 46 47  1  0  0  0  0
 48 55  1  0  0  0  0
 48 51  1  1  0  0  0
 50 52  1  0  0  0  0
 50 54  1  0  0  0  0
 52 47  1  6  0  0  0
 52 48  1  0  0  0  0
 53 50  2  0  0  0  0
 54 56  1  0  0  0  0
 54 55  1  0  0  0  0
 55 49  1  6  0  0  0
 57 56  1  0  0  0  0
 58 57  1  0  0  0  0
 59 58  1  0  0  0  0
 61 60  1  1  0  0  0
 61 59  1  0  0  0  0
 62 63  1  6  0  0  0
 62 61  1  0  0  0  0
 64 66  1  0  0  0  0
 64 62  1  1  0  0  0
 65 68  1  6  0  0  0
 65 64  1  0  0  0  0
 65 66  1  0  0  0  0
 67 68  1  0  0  0  0
M  END
>  <MODEL>
1

>  <REMARK>
 VINA RESULT:      -1.7      0.000      0.000
  Name = 
  23 active torsions:
  status: ('A' for Active; 'I' for Inactive)
    1  A    between atoms: N_3  and  C_9
    2  A    between atoms: N_3  and  C_58
    3  A    between atoms: C_8  and  C_10
    4  A    between atoms: C_8  and  C_57
    5  A    between atoms: C_9  and  C_57
    6  A    between atoms: C_11  and  C_54
    7  A    between atoms: C_13  and  N_38
    8  A    between atoms: C_14  and  C_30
    9  A    between atoms: C_14  and  C_43
   10  A    between atoms: C_15  and  C_52
   11  A    between atoms: C_15  and  C_56
   12  A    between atoms: C_18  and  C_47
   13  A    between atoms: C_22  and  C_24
   14  A    between atoms: C_22  and  C_30
   15  A    between atoms: C_24  and  N_38
   16  A    between atoms: O_26  and  C_31
   17  A    between atoms: O_26  and  C_62
   18  A    between atoms: C_31  and  C_61
   19  A    between atoms: N_32  and  C_60
   20  A    between atoms: C_35  and  C_58
   21  A    between atoms: C_35  and  N_65
   22  A    between atoms: C_40  and  C_64
   23  A    between atoms: C_53  and  C_56
                            x       y       z     vdW  Elec       q    Type
                         _______ _______ _______ _____ _____    ______ ____

>  <TORSDO>
F 23

$$$$
