=
 OpenBabel11042422153D

 52 56  0  0  1  0  0  0  0  0999 V2000
  161.8400  211.5750  148.9640 C   0  0  0  0  0  3  0  0  0  0  0  0
  162.5370  210.4530  149.0540 C   0  0  0  0  0  3  0  0  0  0  0  0
  160.7380  211.6820  153.9550 C   0  0  0  0  0  1  0  0  0  0  0  0
  161.1990  207.2350  151.9950 C   0  0  0  0  0  3  0  0  0  0  0  0
  161.5320  209.6050  151.1680 C   0  0  0  0  0  0  0  0  0  0  0  0
  162.0510  209.3830  149.8580 N   0  0  0  0  0  2  0  0  0  0  0  0
  160.5020  208.6270  154.3800 C   0  0  0  0  0  3  0  0  0  0  0  0
  161.3960  210.8220  151.7490 N   0  0  0  0  0  0  0  0  0  0  0  0
  160.8680  209.2950  153.2120 C   0  0  0  0  0  0  0  0  0  0  0  0
  160.8380  206.5230  153.1580 C   0  0  0  0  0  0  0  0  0  0  0  0
  160.9810  210.6180  152.9940 N   0  0  0  0  0  0  0  0  0  0  0  0
  160.4870  207.2180  154.3400 C   0  0  0  0  0  3  0  0  0  0  0  0
  161.2020  208.6230  152.0720 C   0  0  0  0  0  0  0  0  0  0  0  0
  160.7880  205.0310  153.1450 C   0  0  0  0  0  2  0  0  0  0  0  0
  161.7670  204.4880  152.2090 N   0  0  0  0  0  2  0  0  0  0  0  0
  160.7160  202.5870  146.4810 C   0  0  0  0  0  0  0  0  0  0  0  0
  159.9810  200.9800  144.8640 N   0  0  0  0  0  1  0  0  0  0  0  0
  160.4990  202.2600  145.2140 C   0  0  0  0  0  3  0  0  0  0  0  0
  161.2190  203.6070  148.6430 C   0  0  0  0  0  0  0  0  0  0  0  0
  160.7600  202.3060  148.7470 C   0  0  0  0  0  0  0  0  0  0  0  0
  160.6200  201.6850  149.9880 C   0  0  0  0  0  3  0  0  0  0  0  0
  161.4210  203.7370  151.0430 C   0  0  0  0  0  0  0  0  0  0  0  0
  160.4650  201.7130  147.5360 O   0  0  0  0  0  0  0  0  0  0  0  0
  161.5510  204.3400  149.7820 C   0  0  0  0  0  3  0  0  0  0  0  0
  161.3540  204.2020  146.9610 S   0  0  0  0  0  0  0  0  0  0  0  0
  160.9540  202.4090  151.1410 C   0  0  0  0  0  3  0  0  0  0  0  0
  162.4030  212.9180  147.9260 S   0  0  0  0  0  0  0  0  0  0  0  0
  160.6920  213.3840  147.4730 C   0  0  1  0  0  3  0  0  0  0  0  0
  160.6680  214.4530  149.8240 C   0  0  0  0  0  1  0  0  0  0  0  0
  159.8650  214.0590  148.5920 C   0  0  2  0  0  3  0  0  0  0  0  0
  158.4620  213.1730  150.5310 C   0  0  0  0  0  1  0  0  0  0  0  0
  158.6430  213.2300  149.0230 C   0  0  1  0  0  3  0  0  0  0  0  0
  157.3420  213.5520  148.2760 C   0  0  0  0  0  2  0  0  0  0  0  0
  157.1480  212.7100  147.0250 C   0  0  0  0  0  2  0  0  0  0  0  0
  156.7000  213.5210  145.9820 O   0  0  0  0  0  1  0  0  0  0  0  0
  160.7040  214.2400  146.2090 C   0  0  0  0  0  2  0  0  0  0  0  0
  160.2780  213.4580  145.0570 N   0  0  0  0  0  2  0  0  0  0  0  0
  162.1820  213.9510  143.7940 O   0  0  0  0  0  0  0  0  0  0  0  0
  161.0920  213.3250  143.8880 C   0  0  0  0  0  0  0  0  0  0  0  0
  160.6630  212.4350  142.7730 C   0  0  2  0  0  3  0  0  0  0  0  0
  160.1670  211.2350  143.2870 O   0  0  0  0  0  1  0  0  0  0  0  0
  161.8390  212.1590  141.8490 C   0  0  0  0  0  2  0  0  0  0  0  0
  162.4240  214.1050  138.8160 O   0  0  0  0  0  0  0  0  0  0  0  0
  162.5410  213.6870  139.9980 C   0  0  0  0  0  0  0  0  0  0  0  0
  161.6060  212.7320  140.5280 N   0  0  0  0  0  0  0  0  0  0  0  0
  163.5880  214.1560  140.7860 O   0  0  0  0  0  1  0  0  0  0  0  0
  160.5950  212.1180  139.6680 C   0  0  0  0  0  0  0  0  0  0  0  0
  161.1170  211.5930  138.3450 C   0  0  0  0  0  2  0  0  0  0  0  0
  160.7330  210.6260  139.4560 C   0  0  0  0  0  2  0  0  0  0  0  0
  159.2190  212.7060  139.6510 C   0  0  0  0  0  0  0  0  0  0  0  0
  159.0570  213.8790  139.3620 O   0  0  0  0  0  0  0  0  0  0  0  0
  158.0440  211.8820  140.0460 C   0  0  0  0  0  1  0  0  0  0  0  0
  1  2  2  0  0  0  0
  2  6  1  0  0  0  0
  4 13  2  0  0  0  0
  4 10  1  0  0  0  0
  5  8  2  0  0  0  0
  5 13  1  0  0  0  0
  6  5  1  0  0  0  0
  8 11  1  0  0  0  0
  9  7  2  0  0  0  0
 10 12  2  0  0  0  0
 11  9  1  0  0  0  0
 11  3  1  0  0  0  0
 12  7  1  0  0  0  0
 13  9  1  0  0  0  0
 14 10  1  0  0  0  0
 15 14  1  0  0  0  0
 16 25  1  0  0  0  0
 16 23  1  0  0  0  0
 17 18  1  0  0  0  0
 18 16  2  0  0  0  0
 19 20  2  0  0  0  0
 19 24  1  0  0  0  0
 20 21  1  0  0  0  0
 21 26  2  0  0  0  0
 22 26  1  0  0  0  0
 22 15  1  0  0  0  0
 23 20  1  0  0  0  0
 24 22  2  0  0  0  0
 25 19  1  0  0  0  0
 27  1  1  0  0  0  0
 28 36  1  6  0  0  0
 28 27  1  0  0  0  0
 28 30  1  0  0  0  0
 30 32  1  0  0  0  0
 30 29  1  1  0  0  0
 32 31  1  1  0  0  0
 33 32  1  0  0  0  0
 34 33  1  0  0  0  0
 35 34  1  0  0  0  0
 37 36  1  0  0  0  0
 38 39  2  0  0  0  0
 39 37  1  0  0  0  0
 40 41  1  1  0  0  0
 40 39  1  0  0  0  0
 42 40  1  0  0  0  0
 43 44  2  0  0  0  0
 44 45  1  0  0  0  0
 44 46  1  0  0  0  0
 45 42  1  0  0  0  0
 47 45  1  0  0  0  0
 48 49  1  0  0  0  0
 48 47  1  0  0  0  0
 49 47  1  0  0  0  0
 50 47  1  0  0  0  0
 50 52  1  0  0  0  0
 51 50  2  0  0  0  0
M  END
>  <MODEL>
1

>  <REMARK>
 VINA RESULT:      -7.0      0.000      0.000
  Name = 
  17 active torsions:
  status: ('A' for Active; 'I' for Inactive)
    1  A    between atoms: C_1  and  C_3
    2  A    between atoms: C_1  and  C_12
    3  A    between atoms: C_1  and  S_40
    4  A    between atoms: C_2  and  C_10
    5  A    between atoms: C_2  and  N_37
    6  A    between atoms: C_3  and  N_4
    7  A    between atoms: C_5  and  S_40
    8  A    between atoms: C_7  and  C_16
    9  A    between atoms: C_9  and  N_20
   10  A    between atoms: C_9  and  C_34
   11  A    between atoms: C_12  and  C_49
   12  A    between atoms: C_13  and  C_27
   13  A    between atoms: C_13  and  C_36
   14  A    between atoms: C_16  and  C_49
   15  A    between atoms: N_18  and  C_19
   16  A    between atoms: N_20  and  C_39
   17  A    between atoms: C_27  and  N_37
                            x       y       z     vdW  Elec       q    Type
                         _______ _______ _______ _____ _____    ______ ____

>  <TORSDO>
F 17

$$$$
=
 OpenBabel11042422153D

 52 56  0  0  1  0  0  0  0  0999 V2000
  161.0020  207.9100  153.0220 C   0  0  0  0  0  3  0  0  0  0  0  0
  160.6300  209.0060  153.6650 C   0  0  0  0  0  3  0  0  0  0  0  0
  156.8080  212.2300  155.6070 C   0  0  0  0  0  1  0  0  0  0  0  0
  159.2430  212.7160  151.4040 C   0  0  0  0  0  3  0  0  0  0  0  0
  159.3560  211.1260  153.3710 C   0  0  0  0  0  0  0  0  0  0  0  0
  160.3390  210.1910  152.9300 N   0  0  0  0  0  2  0  0  0  0  0  0
  157.1480  213.8280  152.9810 C   0  0  0  0  0  3  0  0  0  0  0  0
  158.6530  211.0210  154.5260 N   0  0  0  0  0  0  0  0  0  0  0  0
  157.8920  212.7280  153.4060 C   0  0  0  0  0  0  0  0  0  0  0  0
  158.5110  213.8270  150.9370 C   0  0  0  0  0  0  0  0  0  0  0  0
  157.7690  212.0110  154.5380 N   0  0  0  0  0  0  0  0  0  0  0  0
  157.4740  214.3810  151.7260 C   0  0  0  0  0  3  0  0  0  0  0  0
  158.8940  212.1990  152.6460 C   0  0  0  0  0  0  0  0  0  0  0  0
  158.8440  214.4530  149.6230 C   0  0  0  0  0  2  0  0  0  0  0  0
  159.9900  213.7920  149.0100 N   0  0  0  0  0  2  0  0  0  0  0  0
  161.6920  212.5770  143.2510 C   0  0  0  0  0  0  0  0  0  0  0  0
  161.2760  211.8370  141.0110 N   0  0  0  0  0  1  0  0  0  0  0  0
  162.1340  212.3600  142.0200 C   0  0  0  0  0  3  0  0  0  0  0  0
  161.2940  213.1600  145.5900 C   0  0  0  0  0  0  0  0  0  0  0  0
  160.1780  212.6360  144.9620 C   0  0  0  0  0  0  0  0  0  0  0  0
  158.9720  212.4750  145.6430 C   0  0  0  0  0  3  0  0  0  0  0  0
  160.0400  213.3970  147.6370 C   0  0  0  0  0  0  0  0  0  0  0  0
  160.3810  212.3040  143.6370 O   0  0  0  0  0  0  0  0  0  0  0  0
  161.2420  213.5500  146.9280 C   0  0  0  0  0  3  0  0  0  0  0  0
  162.7440  213.2540  144.5470 S   0  0  0  0  0  0  0  0  0  0  0  0
  158.9070  212.8590  146.9900 C   0  0  0  0  0  3  0  0  0  0  0  0
  161.3300  206.3960  153.9150 S   0  0  0  0  0  0  0  0  0  0  0  0
  162.0290  205.5840  152.4310 C   0  0  1  0  0  3  0  0  0  0  0  0
  159.9080  204.1120  152.4870 C   0  0  0  0  0  1  0  0  0  0  0  0
  161.0610  204.6590  151.6570 C   0  0  2  0  0  3  0  0  0  0  0  0
  162.0060  202.2970  151.8480 C   0  0  0  0  0  1  0  0  0  0  0  0
  161.7740  203.4970  150.9460 C   0  0  1  0  0  3  0  0  0  0  0  0
  161.1920  203.1150  149.5780 C   0  0  0  0  0  2  0  0  0  0  0  0
  160.1150  202.0470  149.6660 C   0  0  0  0  0  2  0  0  0  0  0  0
  160.6080  200.8440  149.1600 O   0  0  0  0  0  1  0  0  0  0  0  0
  162.6430  206.6310  151.5060 C   0  0  0  0  0  2  0  0  0  0  0  0
  162.2970  206.3550  150.1180 N   0  0  0  0  0  2  0  0  0  0  0  0
  162.3320  208.6020  149.4750 O   0  0  0  0  0  0  0  0  0  0  0  0
  162.1950  207.3940  149.1410 C   0  0  0  0  0  0  0  0  0  0  0  0
  161.9360  207.0570  147.7130 C   0  0  2  0  0  3  0  0  0  0  0  0
  160.8570  207.8060  147.2370 O   0  0  0  0  0  1  0  0  0  0  0  0
  161.6380  205.5710  147.5770 C   0  0  0  0  0  2  0  0  0  0  0  0
  163.6790  204.0790  144.9430 O   0  0  0  0  0  0  0  0  0  0  0  0
  163.3610  204.6110  146.0390 C   0  0  0  0  0  0  0  0  0  0  0  0
  162.0210  205.0850  146.2560 N   0  0  0  0  0  0  0  0  0  0  0  0
  164.3190  204.7300  147.0420 O   0  0  0  0  0  1  0  0  0  0  0  0
  160.9690  204.8300  145.2730 C   0  0  0  0  0  0  0  0  0  0  0  0
  159.9200  205.9200  145.1630 C   0  0  0  0  0  2  0  0  0  0  0  0
  160.9630  205.7470  144.0670 C   0  0  0  0  0  2  0  0  0  0  0  0
  160.4870  203.4260  145.0890 C   0  0  0  0  0  0  0  0  0  0  0  0
  159.7160  203.1560  144.1840 O   0  0  0  0  0  0  0  0  0  0  0  0
  160.8950  202.3600  146.0440 C   0  0  0  0  0  1  0  0  0  0  0  0
  1  2  2  0  0  0  0
  1 27  1  0  0  0  0
  4 13  1  0  0  0  0
  5  8  2  0  0  0  0
  6  5  1  0  0  0  0
  6  2  1  0  0  0  0
  7  9  1  0  0  0  0
  8 11  1  0  0  0  0
  9 11  1  0  0  0  0
 10  4  2  0  0  0  0
 10 12  1  0  0  0  0
 11  3  1  0  0  0  0
 12  7  2  0  0  0  0
 13  5  1  0  0  0  0
 13  9  2  0  0  0  0
 14 10  1  0  0  0  0
 15 14  1  0  0  0  0
 16 23  1  0  0  0  0
 16 25  1  0  0  0  0
 17 18  1  0  0  0  0
 18 16  2  0  0  0  0
 19 24  1  0  0  0  0
 20 19  2  0  0  0  0
 20 21  1  0  0  0  0
 21 26  2  0  0  0  0
 22 15  1  0  0  0  0
 23 20  1  0  0  0  0
 24 22  2  0  0  0  0
 25 19  1  0  0  0  0
 26 22  1  0  0  0  0
 28 36  1  6  0  0  0
 28 27  1  0  0  0  0
 30 28  1  0  0  0  0
 30 29  1  1  0  0  0
 32 30  1  0  0  0  0
 32 31  1  1  0  0  0
 33 34  1  0  0  0  0
 33 32  1  0  0  0  0
 35 34  1  0  0  0  0
 37 36  1  0  0  0  0
 39 38  2  0  0  0  0
 39 37  1  0  0  0  0
 40 41  1  1  0  0  0
 40 39  1  0  0  0  0
 42 40  1  0  0  0  0
 43 44  2  0  0  0  0
 44 45  1  0  0  0  0
 44 46  1  0  0  0  0
 45 42  1  0  0  0  0
 47 45  1  0  0  0  0
 48 47  1  0  0  0  0
 49 48  1  0  0  0  0
 49 47  1  0  0  0  0
 50 47  1  0  0  0  0
 50 52  1  0  0  0  0
 51 50  2  0  0  0  0
M  END
>  <MODEL>
2

>  <REMARK>
 VINA RESULT:      -6.0      2.883      9.245
  Name = 
  17 active torsions:
  status: ('A' for Active; 'I' for Inactive)
    1  A    between atoms: C_1  and  C_3
    2  A    between atoms: C_1  and  C_12
    3  A    between atoms: C_1  and  S_40
    4  A    between atoms: C_2  and  C_10
    5  A    between atoms: C_2  and  N_37
    6  A    between atoms: C_3  and  N_4
    7  A    between atoms: C_5  and  S_40
    8  A    between atoms: C_7  and  C_16
    9  A    between atoms: C_9  and  N_20
   10  A    between atoms: C_9  and  C_34
   11  A    between atoms: C_12  and  C_49
   12  A    between atoms: C_13  and  C_27
   13  A    between atoms: C_13  and  C_36
   14  A    between atoms: C_16  and  C_49
   15  A    between atoms: N_18  and  C_19
   16  A    between atoms: N_20  and  C_39
   17  A    between atoms: C_27  and  N_37
                            x       y       z     vdW  Elec       q    Type
                         _______ _______ _______ _____ _____    ______ ____

>  <TORSDO>
F 17

$$$$
=
 OpenBabel11042422153D

 52 56  0  0  1  0  0  0  0  0999 V2000
  161.5570  211.6830  150.1690 C   0  0  0  0  0  3  0  0  0  0  0  0
  161.9130  210.4920  149.7110 C   0  0  0  0  0  3  0  0  0  0  0  0
  161.3080  210.9550  155.0200 C   0  0  0  0  0  1  0  0  0  0  0  0
  161.0350  206.8780  152.3500 C   0  0  0  0  0  3  0  0  0  0  0  0
  161.3370  209.3400  151.8420 C   0  0  0  0  0  0  0  0  0  0  0  0
  161.5440  209.3200  150.4300 N   0  0  0  0  0  2  0  0  0  0  0  0
  160.9670  207.8810  155.0140 C   0  0  0  0  0  3  0  0  0  0  0  0
  161.4130  210.4490  152.6180 N   0  0  0  0  0  0  0  0  0  0  0  0
  161.1140  208.7190  153.9100 C   0  0  0  0  0  0  0  0  0  0  0  0
  160.8890  205.9960  153.4410 C   0  0  0  0  0  0  0  0  0  0  0  0
  161.2650  210.0560  153.8780 N   0  0  0  0  0  0  0  0  0  0  0  0
  160.8500  206.4980  154.7640 C   0  0  0  0  0  3  0  0  0  0  0  0
  161.1470  208.2330  152.6360 C   0  0  0  0  0  0  0  0  0  0  0  0
  160.7380  204.5290  153.2110 C   0  0  0  0  0  2  0  0  0  0  0  0
  161.7190  204.0530  152.2420 N   0  0  0  0  0  2  0  0  0  0  0  0
  161.3490  205.2300  146.2410 C   0  0  0  0  0  0  0  0  0  0  0  0
  160.7210  204.6920  143.9930 N   0  0  0  0  0  1  0  0  0  0  0  0
  161.2900  205.5690  144.9600 C   0  0  0  0  0  3  0  0  0  0  0  0
  161.6200  205.0340  148.6610 C   0  0  0  0  0  0  0  0  0  0  0  0
  161.0400  203.9170  148.0850 C   0  0  0  0  0  0  0  0  0  0  0  0
  160.6690  202.8150  148.8540 C   0  0  0  0  0  3  0  0  0  0  0  0
  161.4820  203.9940  150.8330 C   0  0  0  0  0  0  0  0  0  0  0  0
  160.8740  204.0100  146.7170 O   0  0  0  0  0  0  0  0  0  0  0  0
  161.8440  205.0910  150.0360 C   0  0  0  0  0  3  0  0  0  0  0  0
  162.0470  206.3200  147.4930 S   0  0  0  0  0  0  0  0  0  0  0  0
  160.8940  202.8580  150.2380 C   0  0  0  0  0  3  0  0  0  0  0  0
  161.9690  213.1690  149.2630 S   0  0  0  0  0  0  0  0  0  0  0  0
  160.2260  213.4420  148.7730 C   0  0  1  0  0  3  0  0  0  0  0  0
  159.9370  214.1370  151.2440 C   0  0  0  0  0  1  0  0  0  0  0  0
  159.3230  214.0840  149.8520 C   0  0  2  0  0  3  0  0  0  0  0  0
  156.9750  214.1940  150.8450 C   0  0  0  0  0  1  0  0  0  0  0  0
  157.9280  213.4400  149.9340 C   0  0  1  0  0  3  0  0  0  0  0  0
  157.3000  213.0750  148.5820 C   0  0  0  0  0  2  0  0  0  0  0  0
  156.3330  214.1290  148.0690 C   0  0  0  0  0  2  0  0  0  0  0  0
  156.2720  214.0670  146.6760 O   0  0  0  0  0  1  0  0  0  0  0  0
  160.1700  214.2350  147.4700 C   0  0  0  0  0  2  0  0  0  0  0  0
  159.5030  213.4640  146.4300 N   0  0  0  0  0  2  0  0  0  0  0  0
  160.7180  214.4330  144.6840 O   0  0  0  0  0  0  0  0  0  0  0  0
  159.8570  213.5870  145.0500 C   0  0  0  0  0  0  0  0  0  0  0  0
  159.2180  212.7090  144.0310 C   0  0  2  0  0  3  0  0  0  0  0  0
  158.2040  211.9530  144.6240 O   0  0  0  0  0  1  0  0  0  0  0  0
  160.2600  211.7870  143.4150 C   0  0  0  0  0  2  0  0  0  0  0  0
  162.9970  213.2900  141.5240 O   0  0  0  0  0  0  0  0  0  0  0  0
  162.3410  212.8210  142.4910 C   0  0  0  0  0  0  0  0  0  0  0  0
  160.9610  212.4530  142.3240 N   0  0  0  0  0  0  0  0  0  0  0  0
  162.9670  212.6580  143.7230 O   0  0  0  0  0  1  0  0  0  0  0  0
  160.3360  212.4770  141.0010 C   0  0  0  0  0  0  0  0  0  0  0  0
  158.8720  212.8710  140.9950 C   0  0  0  0  0  2  0  0  0  0  0  0
  159.9300  213.8450  140.4940 C   0  0  0  0  0  2  0  0  0  0  0  0
  160.7500  211.4490  139.9960 C   0  0  0  0  0  0  0  0  0  0  0  0
  161.1840  210.3710  140.3660 O   0  0  0  0  0  0  0  0  0  0  0  0
  160.6930  211.7540  138.5410 C   0  0  0  0  0  1  0  0  0  0  0  0
  2  1  2  0  0  0  0
  2  6  1  0  0  0  0
  4 13  2  0  0  0  0
  4 10  1  0  0  0  0
  5  8  2  0  0  0  0
  5 13  1  0  0  0  0
  6  5  1  0  0  0  0
  8 11  1  0  0  0  0
  9  7  2  0  0  0  0
 10 12  2  0  0  0  0
 11  9  1  0  0  0  0
 11  3  1  0  0  0  0
 12  7  1  0  0  0  0
 13  9  1  0  0  0  0
 14 10  1  0  0  0  0
 15 14  1  0  0  0  0
 16 23  1  0  0  0  0
 16 25  1  0  0  0  0
 17 18  1  0  0  0  0
 18 16  2  0  0  0  0
 19 24  1  0  0  0  0
 20 19  2  0  0  0  0
 20 21  1  0  0  0  0
 21 26  2  0  0  0  0
 22 15  1  0  0  0  0
 23 20  1  0  0  0  0
 24 22  2  0  0  0  0
 25 19  1  0  0  0  0
 26 22  1  0  0  0  0
 27  1  1  0  0  0  0
 28 36  1  6  0  0  0
 28 27  1  0  0  0  0
 28 30  1  0  0  0  0
 30 32  1  0  0  0  0
 30 29  1  1  0  0  0
 32 31  1  6  0  0  0
 33 32  1  0  0  0  0
 34 33  1  0  0  0  0
 35 34  1  0  0  0  0
 37 36  1  0  0  0  0
 38 39  2  0  0  0  0
 39 37  1  0  0  0  0
 40 41  1  1  0  0  0
 40 39  1  0  0  0  0
 42 40  1  0  0  0  0
 43 44  2  0  0  0  0
 44 46  1  0  0  0  0
 45 44  1  0  0  0  0
 45 42  1  0  0  0  0
 47 45  1  0  0  0  0
 48 47  1  0  0  0  0
 49 48  1  0  0  0  0
 49 47  1  0  0  0  0
 50 51  2  0  0  0  0
 50 47  1  0  0  0  0
 52 50  1  0  0  0  0
M  END
>  <MODEL>
3

>  <REMARK>
 VINA RESULT:      -4.7      1.583      1.962
  Name = 
  17 active torsions:
  status: ('A' for Active; 'I' for Inactive)
    1  A    between atoms: C_1  and  C_3
    2  A    between atoms: C_1  and  C_12
    3  A    between atoms: C_1  and  S_40
    4  A    between atoms: C_2  and  C_10
    5  A    between atoms: C_2  and  N_37
    6  A    between atoms: C_3  and  N_4
    7  A    between atoms: C_5  and  S_40
    8  A    between atoms: C_7  and  C_16
    9  A    between atoms: C_9  and  N_20
   10  A    between atoms: C_9  and  C_34
   11  A    between atoms: C_12  and  C_49
   12  A    between atoms: C_13  and  C_27
   13  A    between atoms: C_13  and  C_36
   14  A    between atoms: C_16  and  C_49
   15  A    between atoms: N_18  and  C_19
   16  A    between atoms: N_20  and  C_39
   17  A    between atoms: C_27  and  N_37
                            x       y       z     vdW  Elec       q    Type
                         _______ _______ _______ _____ _____    ______ ____

>  <TORSDO>
F 17

$$$$
=
 OpenBabel11042422153D

 52 56  0  0  1  0  0  0  0  0999 V2000
  160.8180  206.9030  146.2740 C   0  0  0  0  0  3  0  0  0  0  0  0
  160.2520  206.5730  147.4250 C   0  0  0  0  0  3  0  0  0  0  0  0
  160.7710  203.4230  151.7340 C   0  0  0  0  0  1  0  0  0  0  0  0
  161.3640  208.2620  151.5130 C   0  0  0  0  0  3  0  0  0  0  0  0
  160.8890  206.4320  149.8280 C   0  0  0  0  0  0  0  0  0  0  0  0
  160.6990  207.1850  148.6310 N   0  0  0  0  0  2  0  0  0  0  0  0
  161.3340  206.0370  153.2890 C   0  0  0  0  0  3  0  0  0  0  0  0
  160.7270  205.0900  149.9310 N   0  0  0  0  0  0  0  0  0  0  0  0
  161.1370  205.8920  151.9160 C   0  0  0  0  0  0  0  0  0  0  0  0
  161.5620  208.4500  152.8960 C   0  0  0  0  0  0  0  0  0  0  0  0
  160.8900  204.7730  151.2100 N   0  0  0  0  0  0  0  0  0  0  0  0
  161.5520  207.3410  153.7760 C   0  0  0  0  0  3  0  0  0  0  0  0
  161.1510  206.9620  151.0700 C   0  0  0  0  0  0  0  0  0  0  0  0
  161.8210  209.8150  153.4440 C   0  0  0  0  0  2  0  0  0  0  0  0
  161.3860  209.9070  154.8330 N   0  0  0  0  0  2  0  0  0  0  0  0
  156.3370  213.3640  155.1300 C   0  0  0  0  0  0  0  0  0  0  0  0
  154.5590  214.4530  156.3090 N   0  0  0  0  0  1  0  0  0  0  0  0
  155.2600  214.1380  155.1100 C   0  0  0  0  0  3  0  0  0  0  0  0
  158.3490  212.0410  154.7150 C   0  0  0  0  0  0  0  0  0  0  0  0
  157.9750  212.0630  156.0480 C   0  0  0  0  0  0  0  0  0  0  0  0
  158.7070  211.3780  157.0170 C   0  0  0  0  0  3  0  0  0  0  0  0
  160.2320  210.6360  155.2580 C   0  0  0  0  0  0  0  0  0  0  0  0
  156.8420  212.8100  156.3040 O   0  0  0  0  0  0  0  0  0  0  0  0
  159.4780  211.3360  154.3030 C   0  0  0  0  0  3  0  0  0  0  0  0
  157.2570  212.9590  153.6350 S   0  0  0  0  0  0  0  0  0  0  0  0
  159.8430  210.6600  156.6150 C   0  0  0  0  0  3  0  0  0  0  0  0
  160.2470  206.1850  144.7390 S   0  0  0  0  0  0  0  0  0  0  0  0
  161.8360  205.3170  144.4680 C   0  0  1  0  0  3  0  0  0  0  0  0
  160.5940  203.1110  144.9780 C   0  0  0  0  0  1  0  0  0  0  0  0
  161.9100  203.8740  145.0190 C   0  0  2  0  0  3  0  0  0  0  0  0
  163.4530  204.9390  146.7500 C   0  0  0  0  0  1  0  0  0  0  0  0
  162.5000  203.7980  146.4380 C   0  0  1  0  0  3  0  0  0  0  0  0
  161.4780  203.5500  147.5550 C   0  0  0  0  0  2  0  0  0  0  0  0
  161.5540  202.1460  148.1330 C   0  0  0  0  0  2  0  0  0  0  0  0
  160.2930  201.5520  148.0820 O   0  0  0  0  0  1  0  0  0  0  0  0
  162.2060  205.3580  142.9890 C   0  0  0  0  0  2  0  0  0  0  0  0
  161.5910  206.5060  142.3380 N   0  0  0  0  0  2  0  0  0  0  0  0
  162.9710  206.4060  140.4550 O   0  0  0  0  0  0  0  0  0  0  0  0
  162.0010  206.9550  141.0440 C   0  0  0  0  0  0  0  0  0  0  0  0
  161.2780  208.0720  140.3730 C   0  0  2  0  0  3  0  0  0  0  0  0
  160.9060  207.6890  139.0820 O   0  0  0  0  0  1  0  0  0  0  0  0
  162.1690  209.3040  140.3130 C   0  0  0  0  0  2  0  0  0  0  0  0
  160.4430  212.5200  140.3760 O   0  0  0  0  0  0  0  0  0  0  0  0
  160.9860  211.4580  140.7780 C   0  0  0  0  0  0  0  0  0  0  0  0
  161.4200  210.4610  139.8370 N   0  0  0  0  0  0  0  0  0  0  0  0
  161.1670  211.2590  142.1440 O   0  0  0  0  0  1  0  0  0  0  0  0
  161.3750  210.7210  138.3980 C   0  0  0  0  0  0  0  0  0  0  0  0
  162.5910  211.4340  137.8400 C   0  0  0  0  0  2  0  0  0  0  0  0
  162.3760  209.9520  137.5620 C   0  0  0  0  0  2  0  0  0  0  0  0
  160.0600  211.0690  137.7760 C   0  0  0  0  0  0  0  0  0  0  0  0
  159.1230  210.2920  137.8500 O   0  0  0  0  0  0  0  0  0  0  0  0
  159.9000  212.3350  137.0110 C   0  0  0  0  0  1  0  0  0  0  0  0
  1  2  2  0  0  0  0
  2  6  1  0  0  0  0
  4 10  1  0  0  0  0
  5  8  2  0  0  0  0
  5 13  1  0  0  0  0
  6  5  1  0  0  0  0
  7 12  1  0  0  0  0
  8 11  1  0  0  0  0
  9  7  2  0  0  0  0
 10 14  1  0  0  0  0
 10 12  2  0  0  0  0
 11  3  1  0  0  0  0
 11  9  1  0  0  0  0
 13  4  2  0  0  0  0
 13  9  1  0  0  0  0
 14 15  1  0  0  0  0
 15 22  1  0  0  0  0
 16 23  1  0  0  0  0
 18 16  2  0  0  0  0
 18 17  1  0  0  0  0
 19 20  1  0  0  0  0
 20 23  1  0  0  0  0
 20 21  2  0  0  0  0
 22 26  2  0  0  0  0
 24 19  2  0  0  0  0
 24 22  1  0  0  0  0
 25 19  1  0  0  0  0
 25 16  1  0  0  0  0
 26 21  1  0  0  0  0
 27  1  1  0  0  0  0
 28 36  1  6  0  0  0
 28 27  1  0  0  0  0
 28 30  1  0  0  0  0
 30 29  1  1  0  0  0
 30 32  1  0  0  0  0
 32 31  1  1  0  0  0
 32 33  1  0  0  0  0
 33 34  1  0  0  0  0
 35 34  1  0  0  0  0
 37 36  1  0  0  0  0
 38 39  2  0  0  0  0
 39 37  1  0  0  0  0
 40 41  1  6  0  0  0
 40 39  1  0  0  0  0
 42 40  1  0  0  0  0
 43 44  2  0  0  0  0
 44 46  1  0  0  0  0
 45 42  1  0  0  0  0
 45 44  1  0  0  0  0
 47 45  1  0  0  0  0
 48 47  1  0  0  0  0
 49 48  1  0  0  0  0
 49 47  1  0  0  0  0
 50 51  2  0  0  0  0
 50 47  1  0  0  0  0
 52 50  1  0  0  0  0
M  END
>  <MODEL>
4

>  <REMARK>
 VINA RESULT:      -4.6      3.560      8.320
  Name = 
  17 active torsions:
  status: ('A' for Active; 'I' for Inactive)
    1  A    between atoms: C_1  and  C_3
    2  A    between atoms: C_1  and  C_12
    3  A    between atoms: C_1  and  S_40
    4  A    between atoms: C_2  and  C_10
    5  A    between atoms: C_2  and  N_37
    6  A    between atoms: C_3  and  N_4
    7  A    between atoms: C_5  and  S_40
    8  A    between atoms: C_7  and  C_16
    9  A    between atoms: C_9  and  N_20
   10  A    between atoms: C_9  and  C_34
   11  A    between atoms: C_12  and  C_49
   12  A    between atoms: C_13  and  C_27
   13  A    between atoms: C_13  and  C_36
   14  A    between atoms: C_16  and  C_49
   15  A    between atoms: N_18  and  C_19
   16  A    between atoms: N_20  and  C_39
   17  A    between atoms: C_27  and  N_37
                            x       y       z     vdW  Elec       q    Type
                         _______ _______ _______ _____ _____    ______ ____

>  <TORSDO>
F 17

$$$$
