=
 OpenBabel11042420363D

 49 55  0  0  1  0  0  0  0  0999 V2000
  162.1190  209.4790  148.9840 N   0  0  0  0  0  2  0  0  0  0  0  0
  160.6540  212.2020  146.9300 C   0  0  0  0  0  0  0  0  0  0  0  0
  161.0960  214.4380  146.5870 N   0  0  0  0  0  2  0  0  0  0  0  0
  162.5420  213.1040  148.1230 C   0  0  0  0  0  3  0  0  0  0  0  0
  160.8430  210.9390  147.4910 C   0  0  0  0  0  3  0  0  0  0  0  0
  161.4750  213.2460  147.2410 C   0  0  0  0  0  0  0  0  0  0  0  0
  159.9130  214.1420  145.7760 C   0  0  2  0  0  3  0  0  0  0  0  0
  159.6050  212.6420  145.9750 C   0  0  0  0  0  2  0  0  0  0  0  0
  162.7570  211.8430  148.7010 C   0  0  0  0  0  3  0  0  0  0  0  0
  161.9080  210.7590  148.3910 C   0  0  0  0  0  0  0  0  0  0  0  0
  160.2760  214.4530  144.0230 S   0  0  0  0  0  0  0  0  0  0  0  0
  162.2040  212.7970  143.0050 C   0  0  0  0  0  2  0  0  0  0  0  0
  160.8200  212.7530  143.6790 C   0  0  2  0  0  3  0  0  0  0  0  0
  162.0470  211.8750  141.9020 N   0  0  1  0  0  0  0  0  0  0  0  0
  160.6080  211.1490  140.2740 C   0  0  2  0  0  3  0  0  0  0  0  0
  160.7310  212.1560  141.3990 C   0  0  1  0  0  0  0  0  0  0  0  0
  159.8870  212.0890  142.6420 C   0  0  0  0  0  2  0  0  0  0  0  0
  162.8870  211.9260  140.7250 C   0  0  0  0  0  2  0  0  0  0  0  0
  160.6480  213.4650  140.8760 O   0  0  0  0  0  1  0  0  0  0  0  0
  162.0220  211.2220  139.6560 C   0  0  0  0  0  2  0  0  0  0  0  0
  159.5440  211.5130  139.2420 C   0  0  0  0  0  2  0  0  0  0  0  0
  157.6220  210.3570  138.0400 N   0  0  0  0  0  2  0  0  0  0  0  0
  159.4300  209.1640  138.8660 O   0  0  0  0  0  0  0  0  0  0  0  0
  156.9100  211.6090  137.8500 C   0  0  0  0  0  1  0  0  0  0  0  0
  158.8700  210.2820  138.7270 C   0  0  0  0  0  0  0  0  0  0  0  0
  162.4690  209.3520  150.3360 N   0  0  0  0  0  2  0  0  0  0  0  0
  161.2380  209.2120  151.0930 C   0  0  0  0  0  2  0  0  0  0  0  0
  161.5100  208.4920  152.4110 C   0  0  1  0  0  3  0  0  0  0  0  0
  161.1730  209.4110  153.5890 C   0  0  1  0  0  3  0  0  0  0  0  0
  159.2600  210.4740  155.4600 C   0  0  0  0  0  2  0  0  0  0  0  0
  160.0480  210.3800  153.2240 C   0  0  0  0  0  2  0  0  0  0  0  0
  158.7050  212.1590  153.9380 C   0  0  0  0  0  1  0  0  0  0  0  0
  159.7760  211.2730  154.3520 N   0  0  0  0  0  0  0  0  0  0  0  0
  160.3300  209.5040  155.9510 C   0  0  0  0  0  2  0  0  0  0  0  0
  160.7410  208.5850  154.8040 C   0  0  0  0  0  2  0  0  0  0  0  0
  160.7280  207.3290  152.4690 O   0  0  0  0  0  0  0  0  0  0  0  0
  160.7430  205.1380  151.6390 C   0  0  1  0  0  3  0  0  0  0  0  0
  161.4090  205.1880  152.8760 O   0  0  0  0  0  0  0  0  0  0  0  0
  161.5670  206.3020  152.0340 C   0  0  2  0  0  3  0  0  0  0  0  0
  161.4910  204.2890  150.7290 N   0  0  0  0  0  2  0  0  0  0  0  0
  160.9430  205.7740  148.4830 S   0  0  0  0  0  0  0  0  0  0  0  0
  161.2960  203.7110  147.1010 C   0  0  0  0  0  0  0  0  0  0  0  0
  160.9910  205.0680  146.9610 C   0  0  0  0  0  0  0  0  0  0  0  0
  161.3120  204.3630  149.3160 C   0  0  0  0  0  0  0  0  0  0  0  0
  161.4860  203.3090  148.4270 C   0  0  0  0  0  3  0  0  0  0  0  0
  160.6820  206.3800  144.7430 N   0  0  0  0  0  0  0  0  0  0  0  0
  160.8200  205.7960  145.7320 C   0  0  0  0  0  0  0  0  0  0  0  0
  161.4090  202.7850  146.0230 N   0  0  0  0  0  2  0  0  0  0  0  0
  160.3770  202.0030  145.6170 O   0  0  0  0  0  1  0  0  0  0  0  0
  1 26  1  0  0  0  0
  2  6  2  0  0  0  0
  2  5  1  0  0  0  0
  3  6  1  0  0  0  0
  4  9  2  0  0  0  0
  5 10  2  0  0  0  0
  6  4  1  0  0  0  0
  7 11  1  6  0  0  0
  7  8  1  0  0  0  0
  7  3  1  0  0  0  0
  8  2  1  0  0  0  0
 10  9  1  0  0  0  0
 10  1  1  0  0  0  0
 12 13  1  0  0  0  0
 13 11  1  6  0  0  0
 14 18  1  6  0  0  0
 14 12  1  0  0  0  0
 15 21  1  6  0  0  0
 15 16  1  0  0  0  0
 16 19  1  6  0  0  0
 16 14  1  0  0  0  0
 16 17  1  0  0  0  0
 17 13  1  0  0  0  0
 20 15  1  0  0  0  0
 20 18  1  0  0  0  0
 22 25  1  0  0  0  0
 24 22  1  0  0  0  0
 25 23  2  0  0  0  0
 25 21  1  0  0  0  0
 26 27  1  0  0  0  0
 28 27  1  6  0  0  0
 28 36  1  0  0  0  0
 29 28  1  6  0  0  0
 29 35  1  0  0  0  0
 30 34  1  0  0  0  0
 31 29  1  0  0  0  0
 31 33  1  0  0  0  0
 32 33  1  0  0  0  0
 33 30  1  0  0  0  0
 35 34  1  0  0  0  0
 37 40  1  6  0  0  0
 37 39  1  0  0  0  0
 37 38  1  0  0  0  0
 39 36  1  1  0  0  0
 39 38  1  0  0  0  0
 41 44  1  0  0  0  0
 42 45  1  0  0  0  0
 43 42  2  0  0  0  0
 43 41  1  0  0  0  0
 44 40  1  0  0  0  0
 45 44  2  0  0  0  0
 46 47  3  0  0  0  0
 47 43  1  0  0  0  0
 48 42  1  0  0  0  0
 49 48  1  0  0  0  0
M  END
>  <MODEL>
1

>  <REMARK>
 VINA RESULT:      -6.9      0.000      0.000
  Name = 
  15 active torsions:
  status: ('A' for Active; 'I' for Inactive)
    1  A    between atoms: C_1  and  C_10
    2  A    between atoms: N_4  and  C_39
    3  A    between atoms: N_4  and  N_48
    4  A    between atoms: C_8  and  C_29
    5  A    between atoms: C_8  and  C_37
    6  A    between atoms: C_10  and  O_17
    7  A    between atoms: C_10  and  C_39
    8  A    between atoms: N_12  and  C_31
    9  A    between atoms: C_14  and  C_34
   10  A    between atoms: O_17  and  C_40
   11  A    between atoms: C_18  and  S_24
   12  A    between atoms: C_19  and  N_32
   13  A    between atoms: S_24  and  C_35
   14  A    between atoms: N_32  and  C_38
   15  A    between atoms: C_46  and  N_48
                            x       y       z     vdW  Elec       q    Type
                         _______ _______ _______ _____ _____    ______ ____

>  <TORSDO>
F 15

$$$$
=
 OpenBabel11042420363D

 49 55  0  0  1  0  0  0  0  0999 V2000
  161.4830  211.7810  150.0080 N   0  0  0  0  0  2  0  0  0  0  0  0
  160.6270  213.0700  146.6330 C   0  0  0  0  0  0  0  0  0  0  0  0
  161.8000  213.6500  144.7370 N   0  0  0  0  0  2  0  0  0  0  0  0
  163.0150  212.7720  146.7320 C   0  0  0  0  0  3  0  0  0  0  0  0
  160.4690  212.6200  147.9440 C   0  0  0  0  0  3  0  0  0  0  0  0
  161.8590  213.1460  146.0530 C   0  0  0  0  0  0  0  0  0  0  0  0
  160.3950  213.9330  144.4320 C   0  0  2  0  0  3  0  0  0  0  0  0
  159.5840  213.5370  145.6850 C   0  0  0  0  0  2  0  0  0  0  0  0
  162.8860  212.3130  148.0520 C   0  0  0  0  0  3  0  0  0  0  0  0
  161.6160  212.2390  148.6630 C   0  0  0  0  0  0  0  0  0  0  0  0
  159.8560  212.9220  143.0220 S   0  0  0  0  0  0  0  0  0  0  0  0
  161.9440  213.9340  141.5710 C   0  0  0  0  0  2  0  0  0  0  0  0
  161.5310  212.6790  142.3610 C   0  0  2  0  0  3  0  0  0  0  0  0
  162.4950  213.3740  140.3560 N   0  0  1  0  0  0  0  0  0  0  0  0
  162.2390  211.7280  138.7830 C   0  0  2  0  0  3  0  0  0  0  0  0
  161.6020  212.2950  140.0360 C   0  0  1  0  0  0  0  0  0  0  0  0
  161.5410  211.5300  141.3280 C   0  0  0  0  0  2  0  0  0  0  0  0
  162.5830  214.1300  139.1250 C   0  0  0  0  0  2  0  0  0  0  0  0
  160.3060  212.7690  139.7380 O   0  0  0  0  0  1  0  0  0  0  0  0
  162.6490  213.0240  138.0480 C   0  0  0  0  0  2  0  0  0  0  0  0
  161.2800  210.9020  137.9310 C   0  0  0  0  0  2  0  0  0  0  0  0
  159.7530  209.0360  138.7470 N   0  0  0  0  0  2  0  0  0  0  0  0
  162.0610  208.8440  138.8400 O   0  0  0  0  0  0  0  0  0  0  0  0
  158.5560  209.7990  138.4360 C   0  0  0  0  0  1  0  0  0  0  0  0
  161.0660  209.5530  138.5400 C   0  0  0  0  0  0  0  0  0  0  0  0
  161.6290  210.4250  150.3320 N   0  0  0  0  0  2  0  0  0  0  0  0
  162.6090  210.3350  151.4000 C   0  0  0  0  0  2  0  0  0  0  0  0
  161.9960  209.6540  152.6210 C   0  0  1  0  0  3  0  0  0  0  0  0
  161.3060  210.6940  153.5080 C   0  0  1  0  0  3  0  0  0  0  0  0
  159.3560  211.3640  155.5190 C   0  0  0  0  0  2  0  0  0  0  0  0
  159.7930  210.6870  153.2870 C   0  0  0  0  0  2  0  0  0  0  0  0
  157.7390  211.6540  153.8570 C   0  0  0  0  0  1  0  0  0  0  0  0
  159.1650  211.7180  154.1160 N   0  0  0  0  0  0  0  0  0  0  0  0
  160.8400  211.4010  155.8710 C   0  0  0  0  0  2  0  0  0  0  0  0
  161.5930  210.4110  154.9860 C   0  0  0  0  0  2  0  0  0  0  0  0
  161.0670  208.6940  152.1930 O   0  0  0  0  0  0  0  0  0  0  0  0
  160.6950  206.4050  152.5210 C   0  0  1  0  0  3  0  0  0  0  0  0
  161.3970  206.9390  153.6150 O   0  0  0  0  0  0  0  0  0  0  0  0
  161.7120  207.4660  152.3510 C   0  0  2  0  0  3  0  0  0  0  0  0
  161.2650  205.1140  152.1720 N   0  0  0  0  0  2  0  0  0  0  0  0
  161.0950  203.0070  150.4170 S   0  0  0  0  0  0  0  0  0  0  0  0
  161.2140  204.6470  148.5240 C   0  0  0  0  0  0  0  0  0  0  0  0
  161.0870  203.2760  148.7600 C   0  0  0  0  0  0  0  0  0  0  0  0
  161.2540  204.6270  150.8320 C   0  0  0  0  0  0  0  0  0  0  0  0
  161.3000  205.4160  149.6890 C   0  0  0  0  0  3  0  0  0  0  0  0
  160.7440  201.4090  146.9890 N   0  0  0  0  0  0  0  0  0  0  0  0
  160.8960  202.2410  147.7800 C   0  0  0  0  0  0  0  0  0  0  0  0
  161.2580  205.2520  147.2330 N   0  0  0  0  0  2  0  0  0  0  0  0
  160.4060  206.2390  146.8560 O   0  0  0  0  0  1  0  0  0  0  0  0
  1 26  1  0  0  0  0
  2  5  1  0  0  0  0
  3  6  1  0  0  0  0
  4  9  2  0  0  0  0
  5 10  2  0  0  0  0
  6  2  2  0  0  0  0
  6  4  1  0  0  0  0
  7 11  1  6  0  0  0
  7  3  1  0  0  0  0
  7  8  1  0  0  0  0
  8  2  1  0  0  0  0
  9 10  1  0  0  0  0
 10  1  1  0  0  0  0
 12 13  1  0  0  0  0
 13 11  1  6  0  0  0
 14 18  1  6  0  0  0
 14 12  1  0  0  0  0
 15 21  1  6  0  0  0
 15 16  1  0  0  0  0
 16 19  1  6  0  0  0
 16 14  1  0  0  0  0
 16 17  1  0  0  0  0
 17 13  1  0  0  0  0
 20 15  1  0  0  0  0
 20 18  1  0  0  0  0
 21 25  1  0  0  0  0
 24 22  1  0  0  0  0
 25 22  1  0  0  0  0
 25 23  2  0  0  0  0
 26 27  1  0  0  0  0
 28 27  1  6  0  0  0
 29 28  1  6  0  0  0
 29 35  1  0  0  0  0
 30 34  1  0  0  0  0
 31 29  1  0  0  0  0
 31 33  1  0  0  0  0
 32 33  1  0  0  0  0
 33 30  1  0  0  0  0
 35 34  1  0  0  0  0
 36 28  1  0  0  0  0
 37 40  1  6  0  0  0
 37 38  1  0  0  0  0
 39 36  1  1  0  0  0
 39 37  1  0  0  0  0
 39 38  1  0  0  0  0
 41 44  1  0  0  0  0
 42 43  2  0  0  0  0
 42 45  1  0  0  0  0
 43 41  1  0  0  0  0
 44 40  1  0  0  0  0
 45 44  2  0  0  0  0
 46 47  3  0  0  0  0
 47 43  1  0  0  0  0
 48 42  1  0  0  0  0
 49 48  1  0  0  0  0
M  END
>  <MODEL>
2

>  <REMARK>
 VINA RESULT:      -6.7      1.761      2.178
  Name = 
  15 active torsions:
  status: ('A' for Active; 'I' for Inactive)
    1  A    between atoms: C_1  and  C_10
    2  A    between atoms: N_4  and  C_39
    3  A    between atoms: N_4  and  N_48
    4  A    between atoms: C_8  and  C_29
    5  A    between atoms: C_8  and  C_37
    6  A    between atoms: C_10  and  O_17
    7  A    between atoms: C_10  and  C_39
    8  A    between atoms: N_12  and  C_31
    9  A    between atoms: C_14  and  C_34
   10  A    between atoms: O_17  and  C_40
   11  A    between atoms: C_18  and  S_24
   12  A    between atoms: C_19  and  N_32
   13  A    between atoms: S_24  and  C_35
   14  A    between atoms: N_32  and  C_38
   15  A    between atoms: C_46  and  N_48
                            x       y       z     vdW  Elec       q    Type
                         _______ _______ _______ _____ _____    ______ ____

>  <TORSDO>
F 15

$$$$
=
 OpenBabel11042420363D

 49 55  0  0  1  0  0  0  0  0999 V2000
  162.6730  211.0710  149.6530 N   0  0  0  0  0  2  0  0  0  0  0  0
  161.4140  207.7350  150.6880 C   0  0  0  0  0  0  0  0  0  0  0  0
  160.5970  205.8680  149.6120 N   0  0  0  0  0  2  0  0  0  0  0  0
  161.3480  207.8420  148.2820 C   0  0  0  0  0  3  0  0  0  0  0  0
  161.9280  209.0290  150.7780 C   0  0  0  0  0  3  0  0  0  0  0  0
  161.1310  207.1680  149.4800 C   0  0  0  0  0  0  0  0  0  0  0  0
  160.5210  205.5630  151.0430 C   0  0  2  0  0  3  0  0  0  0  0  0
  161.0800  206.7960  151.7870 C   0  0  0  0  0  2  0  0  0  0  0  0
  161.8670  209.1450  148.3430 C   0  0  0  0  0  3  0  0  0  0  0  0
  162.1550  209.7440  149.5880 C   0  0  0  0  0  0  0  0  0  0  0  0
  161.5540  204.1160  151.4180 S   0  0  0  0  0  0  0  0  0  0  0  0
  161.1350  201.5530  150.5510 C   0  0  0  0  0  2  0  0  0  0  0  0
  160.4350  202.9230  150.6250 C   0  0  2  0  0  3  0  0  0  0  0  0
  160.8760  201.1410  149.1890 N   0  0  1  0  0  0  0  0  0  0  0  0
  160.7380  201.8640  147.0200 C   0  0  2  0  0  3  0  0  0  0  0  0
  161.0490  202.3440  148.4230 C   0  0  1  0  0  0  0  0  0  0  0  0
  160.1750  203.3230  149.1560 C   0  0  0  0  0  2  0  0  0  0  0  0
  161.7030  200.1700  148.5040 C   0  0  0  0  0  2  0  0  0  0  0  0
  162.3820  202.8060  148.4830 O   0  0  0  0  0  1  0  0  0  0  0  0
  161.4420  200.4890  147.0140 C   0  0  0  0  0  2  0  0  0  0  0  0
  161.3030  202.7680  145.9270 C   0  0  0  0  0  2  0  0  0  0  0  0
  160.1580  204.3250  144.2710 N   0  0  0  0  0  2  0  0  0  0  0  0
  159.5010  202.1150  144.5130 O   0  0  0  0  0  0  0  0  0  0  0  0
  160.9980  205.4470  144.6540 C   0  0  0  0  0  1  0  0  0  0  0  0
  160.2660  203.0420  144.8850 C   0  0  0  0  0  0  0  0  0  0  0  0
  162.5860  211.9400  148.5560 N   0  0  0  0  0  2  0  0  0  0  0  0
  161.1790  212.2250  148.3370 C   0  0  0  0  0  2  0  0  0  0  0  0
  161.0050  213.6490  147.8150 C   0  0  1  0  0  3  0  0  0  0  0  0
  160.5390  213.6180  146.3570 C   0  0  1  0  0  3  0  0  0  0  0  0
  160.1410  212.1850  143.8900 C   0  0  0  0  0  2  0  0  0  0  0  0
  161.6640  213.1560  145.4300 C   0  0  0  0  0  2  0  0  0  0  0  0
  162.3140  212.7300  143.2230 C   0  0  0  0  0  1  0  0  0  0  0  0
  161.2020  213.1770  144.0400 N   0  0  0  0  0  0  0  0  0  0  0  0
  158.9310  212.5810  144.7310 C   0  0  0  0  0  2  0  0  0  0  0  0
  159.3450  212.6710  146.1980 C   0  0  0  0  0  2  0  0  0  0  0  0
  160.0610  214.3160  148.6080 O   0  0  0  0  0  0  0  0  0  0  0  0
  158.8690  214.1130  150.6150 C   0  0  1  0  0  3  0  0  0  0  0  0
  160.2430  214.2370  150.8830 O   0  0  0  0  0  0  0  0  0  0  0  0
  159.8920  213.5080  149.7340 C   0  0  2  0  0  3  0  0  0  0  0  0
  158.3030  213.0970  151.4860 N   0  0  0  0  0  2  0  0  0  0  0  0
  160.0140  211.5110  152.9380 S   0  0  0  0  0  0  0  0  0  0  0  0
  159.4950  212.9000  154.9600 C   0  0  0  0  0  0  0  0  0  0  0  0
  160.2820  211.8150  154.5660 C   0  0  0  0  0  0  0  0  0  0  0  0
  158.9050  212.7570  152.7320 C   0  0  0  0  0  0  0  0  0  0  0  0
  158.7220  213.4410  153.9270 C   0  0  0  0  0  3  0  0  0  0  0  0
  162.0070  210.5240  156.0150 N   0  0  0  0  0  0  0  0  0  0  0  0
  161.2380  211.1000  155.3690 C   0  0  0  0  0  0  0  0  0  0  0  0
  159.4490  213.4380  156.2800 N   0  0  0  0  0  2  0  0  0  0  0  0
  158.2870  213.7840  156.8900 O   0  0  0  0  0  1  0  0  0  0  0  0
  2  5  1  0  0  0  0
  2  8  1  0  0  0  0
  3  7  1  0  0  0  0
  4  9  2  0  0  0  0
  4  6  1  0  0  0  0
  6  3  1  0  0  0  0
  6  2  2  0  0  0  0
  7 11  1  6  0  0  0
  7  8  1  0  0  0  0
  9 10  1  0  0  0  0
 10  1  1  0  0  0  0
 10  5  2  0  0  0  0
 12 13  1  0  0  0  0
 13 11  1  6  0  0  0
 14 18  1  6  0  0  0
 14 12  1  0  0  0  0
 15 21  1  6  0  0  0
 15 16  1  0  0  0  0
 16 19  1  1  0  0  0
 16 17  1  0  0  0  0
 16 14  1  0  0  0  0
 17 13  1  0  0  0  0
 20 15  1  0  0  0  0
 20 18  1  0  0  0  0
 22 24  1  0  0  0  0
 22 25  1  0  0  0  0
 23 25  2  0  0  0  0
 25 21  1  0  0  0  0
 26  1  1  0  0  0  0
 27 26  1  0  0  0  0
 28 27  1  1  0  0  0
 28 36  1  0  0  0  0
 29 28  1  1  0  0  0
 30 33  1  0  0  0  0
 30 34  1  0  0  0  0
 31 29  1  0  0  0  0
 32 33  1  0  0  0  0
 33 31  1  0  0  0  0
 34 35  1  0  0  0  0
 35 29  1  0  0  0  0
 37 38  1  0  0  0  0
 37 40  1  1  0  0  0
 39 36  1  6  0  0  0
 39 37  1  0  0  0  0
 39 38  1  0  0  0  0
 40 44  1  0  0  0  0
 41 43  1  0  0  0  0
 42 48  1  0  0  0  0
 43 42  2  0  0  0  0
 43 47  1  0  0  0  0
 44 41  1  0  0  0  0
 44 45  2  0  0  0  0
 45 42  1  0  0  0  0
 47 46  3  0  0  0  0
 48 49  1  0  0  0  0
M  END
>  <MODEL>
3

>  <REMARK>
 VINA RESULT:      -6.2      3.548     10.080
  Name = 
  15 active torsions:
  status: ('A' for Active; 'I' for Inactive)
    1  A    between atoms: C_1  and  C_10
    2  A    between atoms: N_4  and  C_39
    3  A    between atoms: N_4  and  N_48
    4  A    between atoms: C_8  and  C_29
    5  A    between atoms: C_8  and  C_37
    6  A    between atoms: C_10  and  O_17
    7  A    between atoms: C_10  and  C_39
    8  A    between atoms: N_12  and  C_31
    9  A    between atoms: C_14  and  C_34
   10  A    between atoms: O_17  and  C_40
   11  A    between atoms: C_18  and  S_24
   12  A    between atoms: C_19  and  N_32
   13  A    between atoms: S_24  and  C_35
   14  A    between atoms: N_32  and  C_38
   15  A    between atoms: C_46  and  N_48
                            x       y       z     vdW  Elec       q    Type
                         _______ _______ _______ _____ _____    ______ ____

>  <TORSDO>
F 15

$$$$
=
 OpenBabel11042420363D

 49 55  0  0  1  0  0  0  0  0999 V2000
  162.3170  209.3040  148.6730 N   0  0  0  0  0  2  0  0  0  0  0  0
  160.4530  212.0080  146.9420 C   0  0  0  0  0  0  0  0  0  0  0  0
  160.6150  214.3020  146.8010 N   0  0  0  0  0  2  0  0  0  0  0  0
  162.2760  213.0160  148.1510 C   0  0  0  0  0  3  0  0  0  0  0  0
  160.8120  210.7300  147.3720 C   0  0  0  0  0  3  0  0  0  0  0  0
  161.1600  213.1100  147.3240 C   0  0  0  0  0  0  0  0  0  0  0  0
  159.4390  213.9420  146.0070 C   0  0  2  0  0  3  0  0  0  0  0  0
  159.3170  212.4030  146.0710 C   0  0  0  0  0  2  0  0  0  0  0  0
  162.6620  211.7430  148.5970 C   0  0  0  0  0  3  0  0  0  0  0  0
  161.9320  210.5980  148.2130 C   0  0  0  0  0  0  0  0  0  0  0  0
  159.6830  214.4530  144.2800 S   0  0  0  0  0  0  0  0  0  0  0  0
  161.9950  213.5020  143.1660 C   0  0  0  0  0  2  0  0  0  0  0  0
  160.7000  213.0130  143.8400 C   0  0  2  0  0  3  0  0  0  0  0  0
  162.0980  212.6340  142.0130 N   0  0  1  0  0  0  0  0  0  0  0  0
  160.9080  211.6010  140.3510 C   0  0  2  0  0  3  0  0  0  0  0  0
  160.7480  212.5380  141.5300 C   0  0  1  0  0  0  0  0  0  0  0  0
  159.9870  212.1570  142.7690 C   0  0  0  0  0  2  0  0  0  0  0  0
  162.8630  212.9950  140.8380 C   0  0  0  0  0  2  0  0  0  0  0  0
  160.2710  213.7890  141.0820 O   0  0  0  0  0  1  0  0  0  0  0  0
  162.2250  212.1240  139.7340 C   0  0  0  0  0  2  0  0  0  0  0  0
  159.7650  211.6870  139.3430 C   0  0  0  0  0  2  0  0  0  0  0  0
  160.3700  209.9400  137.5940 N   0  0  0  0  0  2  0  0  0  0  0  0
  160.4920  212.2090  137.1360 O   0  0  0  0  0  0  0  0  0  0  0  0
  160.1080  208.8440  138.5120 C   0  0  0  0  0  1  0  0  0  0  0  0
  160.2400  211.3080  137.9770 C   0  0  0  0  0  0  0  0  0  0  0  0
  161.6540  208.6840  149.7410 N   0  0  0  0  0  2  0  0  0  0  0  0
  162.2580  207.3760  149.9290 C   0  0  0  0  0  2  0  0  0  0  0  0
  161.1920  206.3540  150.3130 C   0  0  1  0  0  3  0  0  0  0  0  0
  160.8310  205.4930  149.0990 C   0  0  1  0  0  3  0  0  0  0  0  0
  161.5530  204.3000  146.5790 C   0  0  0  0  0  2  0  0  0  0  0  0
  161.0310  206.2690  147.7970 C   0  0  0  0  0  2  0  0  0  0  0  0
  160.8550  206.2320  145.4640 C   0  0  0  0  0  1  0  0  0  0  0  0
  160.6400  205.4370  146.6580 N   0  0  0  0  0  0  0  0  0  0  0  0
  161.3930  203.4140  147.8110 C   0  0  0  0  0  2  0  0  0  0  0  0
  161.6980  204.2310  149.0630 C   0  0  0  0  0  2  0  0  0  0  0  0
  161.6840  205.5450  151.3480 O   0  0  0  0  0  0  0  0  0  0  0  0
  161.5870  206.2900  153.5670 C   0  0  1  0  0  3  0  0  0  0  0  0
  161.2050  204.9390  153.4970 O   0  0  0  0  0  0  0  0  0  0  0  0
  160.8170  205.7570  152.4220 C   0  0  2  0  0  3  0  0  0  0  0  0
  160.6990  206.9910  154.4770 N   0  0  0  0  0  2  0  0  0  0  0  0
  160.2530  209.3920  155.7380 S   0  0  0  0  0  0  0  0  0  0  0  0
  160.4180  210.5290  153.5090 C   0  0  0  0  0  0  0  0  0  0  0  0
  160.2260  210.8230  154.8620 C   0  0  0  0  0  0  0  0  0  0  0  0
  160.5120  208.4020  154.4050 C   0  0  0  0  0  0  0  0  0  0  0  0
  160.5880  209.1650  153.2460 C   0  0  0  0  0  3  0  0  0  0  0  0
  160.0050  213.1750  155.9360 N   0  0  0  0  0  0  0  0  0  0  0  0
  160.1040  212.1270  155.4560 C   0  0  0  0  0  0  0  0  0  0  0  0
  160.4430  211.4940  152.4600 N   0  0  0  0  0  2  0  0  0  0  0  0
  159.8600  212.7140  152.5730 O   0  0  0  0  0  1  0  0  0  0  0  0
  1 26  1  0  0  0  0
  2  6  2  0  0  0  0
  2  5  1  0  0  0  0
  3  6  1  0  0  0  0
  4  9  2  0  0  0  0
  5 10  2  0  0  0  0
  6  4  1  0  0  0  0
  7 11  1  6  0  0  0
  7  8  1  0  0  0  0
  7  3  1  0  0  0  0
  8  2  1  0  0  0  0
 10  9  1  0  0  0  0
 10  1  1  0  0  0  0
 12 13  1  0  0  0  0
 13 11  1  6  0  0  0
 14 18  1  6  0  0  0
 14 12  1  0  0  0  0
 15 21  1  6  0  0  0
 15 16  1  0  0  0  0
 16 19  1  6  0  0  0
 16 14  1  0  0  0  0
 16 17  1  0  0  0  0
 17 13  1  0  0  0  0
 20 15  1  0  0  0  0
 20 18  1  0  0  0  0
 22 25  1  0  0  0  0
 22 24  1  0  0  0  0
 23 25  2  0  0  0  0
 25 21  1  0  0  0  0
 26 27  1  0  0  0  0
 28 27  1  6  0  0  0
 28 36  1  0  0  0  0
 29 28  1  1  0  0  0
 30 33  1  0  0  0  0
 30 34  1  0  0  0  0
 31 29  1  0  0  0  0
 32 33  1  0  0  0  0
 33 31  1  0  0  0  0
 34 35  1  0  0  0  0
 35 29  1  0  0  0  0
 37 40  1  1  0  0  0
 38 37  1  0  0  0  0
 39 36  1  6  0  0  0
 39 38  1  0  0  0  0
 39 37  1  0  0  0  0
 42 43  2  0  0  0  0
 43 47  1  0  0  0  0
 43 41  1  0  0  0  0
 44 40  1  0  0  0  0
 44 41  1  0  0  0  0
 45 42  1  0  0  0  0
 45 44  2  0  0  0  0
 47 46  3  0  0  0  0
 48 49  1  0  0  0  0
 48 42  1  0  0  0  0
M  END
>  <MODEL>
4

>  <REMARK>
 VINA RESULT:      -5.8      2.109      5.729
  Name = 
  15 active torsions:
  status: ('A' for Active; 'I' for Inactive)
    1  A    between atoms: C_1  and  C_10
    2  A    between atoms: N_4  and  C_39
    3  A    between atoms: N_4  and  N_48
    4  A    between atoms: C_8  and  C_29
    5  A    between atoms: C_8  and  C_37
    6  A    between atoms: C_10  and  O_17
    7  A    between atoms: C_10  and  C_39
    8  A    between atoms: N_12  and  C_31
    9  A    between atoms: C_14  and  C_34
   10  A    between atoms: O_17  and  C_40
   11  A    between atoms: C_18  and  S_24
   12  A    between atoms: C_19  and  N_32
   13  A    between atoms: S_24  and  C_35
   14  A    between atoms: N_32  and  C_38
   15  A    between atoms: C_46  and  N_48
                            x       y       z     vdW  Elec       q    Type
                         _______ _______ _______ _____ _____    ______ ____

>  <TORSDO>
F 15

$$$$
=
 OpenBabel11042420363D

 49 55  0  0  1  0  0  0  0  0999 V2000
  161.2530  210.5650  152.8630 N   0  0  0  0  0  2  0  0  0  0  0  0
  162.1130  208.4420  149.9420 C   0  0  0  0  0  0  0  0  0  0  0  0
  161.9110  206.2110  149.4010 N   0  0  0  0  0  2  0  0  0  0  0  0
  161.0590  207.0420  151.5950 C   0  0  0  0  0  3  0  0  0  0  0  0
  161.9890  209.5720  150.7510 C   0  0  0  0  0  3  0  0  0  0  0  0
  161.6660  207.2210  150.3550 C   0  0  0  0  0  0  0  0  0  0  0  0
  162.5850  206.8330  148.2590 C   0  0  2  0  0  3  0  0  0  0  0  0
  162.7180  208.3360  148.5900 C   0  0  0  0  0  2  0  0  0  0  0  0
  160.9190  208.1620  152.4290 C   0  0  0  0  0  3  0  0  0  0  0  0
  161.3860  209.4280  152.0130 C   0  0  0  0  0  0  0  0  0  0  0  0
  161.5720  206.6350  146.7640 S   0  0  0  0  0  0  0  0  0  0  0  0
  161.5780  204.4890  145.0640 C   0  0  0  0  0  2  0  0  0  0  0  0
  162.3580  205.0790  146.2530 C   0  0  2  0  0  3  0  0  0  0  0  0
  161.4360  203.0990  145.4380 N   0  0  1  0  0  0  0  0  0  0  0  0
  161.0360  201.6740  147.1870 C   0  0  2  0  0  3  0  0  0  0  0  0
  161.1430  203.1460  146.8440 C   0  0  1  0  0  0  0  0  0  0  0  0
  162.2420  204.0230  147.3760 C   0  0  0  0  0  2  0  0  0  0  0  0
  160.3960  202.2530  144.8940 C   0  0  0  0  0  2  0  0  0  0  0  0
  159.9070  203.7830  147.0910 O   0  0  0  0  0  1  0  0  0  0  0  0
  160.2690  201.1390  145.9570 C   0  0  0  0  0  2  0  0  0  0  0  0
  160.2590  201.4020  148.4720 C   0  0  0  0  0  2  0  0  0  0  0  0
  161.2390  202.1810  150.6870 N   0  0  0  0  0  2  0  0  0  0  0  0
  161.9300  200.2100  149.6800 O   0  0  0  0  0  0  0  0  0  0  0  0
  160.4300  203.3880  150.6890 C   0  0  0  0  0  1  0  0  0  0  0  0
  161.1950  201.2300  149.6250 C   0  0  0  0  0  0  0  0  0  0  0  0
  160.1360  211.4090  152.7800 N   0  0  0  0  0  2  0  0  0  0  0  0
  160.0390  212.1280  154.0380 C   0  0  0  0  0  2  0  0  0  0  0  0
  158.9880  211.4780  154.9340 C   0  0  1  0  0  3  0  0  0  0  0  0
  159.6720  210.7190  156.0760 C   0  0  1  0  0  3  0  0  0  0  0  0
  161.6330  208.8200  156.9910 C   0  0  0  0  0  2  0  0  0  0  0  0
  159.5820  209.2080  155.8610 C   0  0  0  0  0  2  0  0  0  0  0  0
  160.0860  207.0890  156.7170 C   0  0  0  0  0  1  0  0  0  0  0  0
  160.2060  208.5090  156.9860 N   0  0  0  0  0  0  0  0  0  0  0  0
  161.8460  210.3060  157.2610 C   0  0  0  0  0  2  0  0  0  0  0  0
  161.1470  211.1200  156.1750 C   0  0  0  0  0  2  0  0  0  0  0  0
  158.1490  212.4740  155.4540 O   0  0  0  0  0  0  0  0  0  0  0  0
  156.8470  213.9700  154.2070 C   0  0  1  0  0  3  0  0  0  0  0  0
  156.0430  213.3020  155.1460 O   0  0  0  0  0  0  0  0  0  0  0  0
  157.0780  212.5530  154.5610 C   0  0  2  0  0  3  0  0  0  0  0  0
  156.1350  214.0540  152.9430 N   0  0  0  0  0  2  0  0  0  0  0  0
  156.0620  214.1400  150.1970 S   0  0  0  0  0  0  0  0  0  0  0  0
  158.5690  214.1280  150.1870 C   0  0  0  0  0  0  0  0  0  0  0  0
  157.4840  214.1820  149.3080 C   0  0  0  0  0  0  0  0  0  0  0  0
  156.8220  214.0570  151.6940 C   0  0  0  0  0  0  0  0  0  0  0  0
  158.2020  214.0650  151.5350 C   0  0  0  0  0  3  0  0  0  0  0  0
  157.5720  214.4530  146.7280 N   0  0  0  0  0  0  0  0  0  0  0  0
  157.5340  214.3330  147.8780 C   0  0  0  0  0  0  0  0  0  0  0  0
  159.9400  214.1300  149.7920 N   0  0  0  0  0  2  0  0  0  0  0  0
  160.6110  212.9960  149.4680 O   0  0  0  0  0  1  0  0  0  0  0  0
  2  6  2  0  0  0  0
  2  5  1  0  0  0  0
  3  6  1  0  0  0  0
  4  9  2  0  0  0  0
  5 10  2  0  0  0  0
  6  4  1  0  0  0  0
  7 11  1  6  0  0  0
  7  8  1  0  0  0  0
  7  3  1  0  0  0  0
  8  2  1  0  0  0  0
 10  9  1  0  0  0  0
 10  1  1  0  0  0  0
 12 14  1  0  0  0  0
 12 13  1  0  0  0  0
 13 11  1  1  0  0  0
 13 17  1  0  0  0  0
 14 18  1  6  0  0  0
 14 16  1  0  0  0  0
 15 21  1  1  0  0  0
 16 19  1  1  0  0  0
 16 15  1  0  0  0  0
 16 17  1  0  0  0  0
 18 20  1  0  0  0  0
 20 15  1  0  0  0  0
 21 25  1  0  0  0  0
 22 24  1  0  0  0  0
 25 23  2  0  0  0  0
 25 22  1  0  0  0  0
 26  1  1  0  0  0  0
 26 27  1  0  0  0  0
 28 27  1  6  0  0  0
 28 36  1  0  0  0  0
 29 28  1  6  0  0  0
 29 35  1  0  0  0  0
 30 34  1  0  0  0  0
 31 29  1  0  0  0  0
 31 33  1  0  0  0  0
 32 33  1  0  0  0  0
 33 30  1  0  0  0  0
 35 34  1  0  0  0  0
 37 40  1  6  0  0  0
 37 39  1  0  0  0  0
 37 38  1  0  0  0  0
 39 38  1  0  0  0  0
 39 36  1  1  0  0  0
 41 44  1  0  0  0  0
 42 45  1  0  0  0  0
 43 42  2  0  0  0  0
 43 41  1  0  0  0  0
 44 40  1  0  0  0  0
 45 44  2  0  0  0  0
 46 47  3  0  0  0  0
 47 43  1  0  0  0  0
 48 42  1  0  0  0  0
 49 48  1  0  0  0  0
M  END
>  <MODEL>
5

>  <REMARK>
 VINA RESULT:      -5.8      5.159      9.157
  Name = 
  15 active torsions:
  status: ('A' for Active; 'I' for Inactive)
    1  A    between atoms: C_1  and  C_10
    2  A    between atoms: N_4  and  C_39
    3  A    between atoms: N_4  and  N_48
    4  A    between atoms: C_8  and  C_29
    5  A    between atoms: C_8  and  C_37
    6  A    between atoms: C_10  and  O_17
    7  A    between atoms: C_10  and  C_39
    8  A    between atoms: N_12  and  C_31
    9  A    between atoms: C_14  and  C_34
   10  A    between atoms: O_17  and  C_40
   11  A    between atoms: C_18  and  S_24
   12  A    between atoms: C_19  and  N_32
   13  A    between atoms: S_24  and  C_35
   14  A    between atoms: N_32  and  C_38
   15  A    between atoms: C_46  and  N_48
                            x       y       z     vdW  Elec       q    Type
                         _______ _______ _______ _____ _____    ______ ____

>  <TORSDO>
F 15

$$$$
=
 OpenBabel11042420363D

 49 55  0  0  1  0  0  0  0  0999 V2000
  161.2680  205.7040  150.6880 N   0  0  0  0  0  2  0  0  0  0  0  0
  160.8030  208.0630  153.5160 C   0  0  0  0  0  0  0  0  0  0  0  0
  161.0380  207.9690  155.8070 N   0  0  0  0  0  2  0  0  0  0  0  0
  161.5760  205.9670  154.4160 C   0  0  0  0  0  3  0  0  0  0  0  0
  160.8290  207.5680  152.2130 C   0  0  0  0  0  3  0  0  0  0  0  0
  161.1600  207.2850  154.5780 C   0  0  0  0  0  0  0  0  0  0  0  0
  160.5510  209.3190  155.5170 C   0  0  2  0  0  3  0  0  0  0  0  0
  160.4000  209.4140  153.9830 C   0  0  0  0  0  2  0  0  0  0  0  0
  161.6150  205.4430  153.1150 C   0  0  0  0  0  3  0  0  0  0  0  0
  161.2390  206.2370  152.0110 C   0  0  0  0  0  0  0  0  0  0  0  0
  161.7680  210.5460  156.0780 S   0  0  0  0  0  0  0  0  0  0  0  0
  159.1530  210.9600  156.7780 C   0  0  0  0  0  2  0  0  0  0  0  0
  160.5380  211.6290  156.8640 C   0  0  2  0  0  3  0  0  0  0  0  0
  158.3070  212.0430  156.3290 N   0  0  1  0  0  0  0  0  0  0  0  0
  158.1870  213.8540  154.9310 C   0  0  2  0  0  3  0  0  0  0  0  0
  159.1030  212.7190  155.3420 C   0  0  1  0  0  0  0  0  0  0  0  0
  160.3980  212.9480  156.0710 C   0  0  0  0  0  2  0  0  0  0  0  0
  157.0450  211.8130  155.6590 C   0  0  0  0  0  2  0  0  0  0  0  0
  159.3600  211.8890  154.2300 O   0  0  0  0  0  1  0  0  0  0  0  0
  156.8230  213.1310  154.8840 C   0  0  0  0  0  2  0  0  0  0  0  0
  158.5310  214.4530  153.5700 C   0  0  0  0  0  2  0  0  0  0  0  0
  158.3210  213.1820  151.3750 N   0  0  0  0  0  2  0  0  0  0  0  0
  156.4540  213.8120  152.5960 O   0  0  0  0  0  0  0  0  0  0  0  0
  159.7610  213.1590  151.1820 C   0  0  0  0  0  1  0  0  0  0  0  0
  157.7080  213.8190  152.4940 C   0  0  0  0  0  0  0  0  0  0  0  0
  160.1990  205.8960  149.8020 N   0  0  0  0  0  2  0  0  0  0  0  0
  160.6810  206.7240  148.7110 C   0  0  0  0  0  2  0  0  0  0  0  0
  162.1720  206.4840  148.4880 C   0  0  1  0  0  3  0  0  0  0  0  0
  162.3790  205.5680  147.2790 C   0  0  1  0  0  3  0  0  0  0  0  0
  161.3200  204.1580  145.0020 C   0  0  0  0  0  2  0  0  0  0  0  0
  161.4780  204.3350  147.3630 C   0  0  0  0  0  2  0  0  0  0  0  0
  160.8440  202.3170  146.3620 C   0  0  0  0  0  1  0  0  0  0  0  0
  161.7280  203.4580  146.2170 N   0  0  0  0  0  0  0  0  0  0  0  0
  162.2010  205.3830  144.7810 C   0  0  0  0  0  2  0  0  0  0  0  0
  162.0710  206.3200  145.9800 C   0  0  0  0  0  2  0  0  0  0  0  0
  162.8070  207.7160  148.2730 O   0  0  0  0  0  0  0  0  0  0  0  0
  162.5490  209.9850  148.7950 C   0  0  1  0  0  3  0  0  0  0  0  0
  162.2020  209.1940  149.9040 O   0  0  0  0  0  0  0  0  0  0  0  0
  161.8680  208.6820  148.6390 C   0  0  2  0  0  3  0  0  0  0  0  0
  161.5880  211.0650  148.6590 N   0  0  0  0  0  2  0  0  0  0  0  0
  162.9220  212.4660  146.7070 S   0  0  0  0  0  0  0  0  0  0  0  0
  160.7050  213.0650  145.7010 C   0  0  0  0  0  0  0  0  0  0  0  0
  162.0740  213.2440  145.4860 C   0  0  0  0  0  0  0  0  0  0  0  0
  161.5550  211.8990  147.5040 C   0  0  0  0  0  0  0  0  0  0  0  0
  160.4060  212.3000  146.8330 C   0  0  0  0  0  3  0  0  0  0  0  0
  163.1990  214.4400  143.4760 N   0  0  0  0  0  0  0  0  0  0  0  0
  162.6970  213.9070  144.3730 C   0  0  0  0  0  0  0  0  0  0  0  0
  159.6720  213.5950  144.8720 N   0  0  0  0  0  2  0  0  0  0  0  0
  159.0730  212.8700  143.8940 O   0  0  0  0  0  1  0  0  0  0  0  0
  1 10  1  0  0  0  0
  2  8  1  0  0  0  0
  2  6  1  0  0  0  0
  4  6  2  0  0  0  0
  5  2  2  0  0  0  0
  6  3  1  0  0  0  0
  7  3  1  0  0  0  0
  7 11  1  6  0  0  0
  8  7  1  0  0  0  0
  9  4  1  0  0  0  0
 10  5  1  0  0  0  0
 10  9  2  0  0  0  0
 12 13  1  0  0  0  0
 13 11  1  6  0  0  0
 14 18  1  6  0  0  0
 14 12  1  0  0  0  0
 15 21  1  6  0  0  0
 15 16  1  0  0  0  0
 16 19  1  6  0  0  0
 16 17  1  0  0  0  0
 16 14  1  0  0  0  0
 17 13  1  0  0  0  0
 20 15  1  0  0  0  0
 20 18  1  0  0  0  0
 22 25  1  0  0  0  0
 24 22  1  0  0  0  0
 25 23  2  0  0  0  0
 25 21  1  0  0  0  0
 26  1  1  0  0  0  0
 27 26  1  0  0  0  0
 28 27  1  6  0  0  0
 29 31  1  0  0  0  0
 29 28  1  1  0  0  0
 30 33  1  0  0  0  0
 33 32  1  0  0  0  0
 33 31  1  0  0  0  0
 34 30  1  0  0  0  0
 34 35  1  0  0  0  0
 35 29  1  0  0  0  0
 36 28  1  0  0  0  0
 37 40  1  1  0  0  0
 37 38  1  0  0  0  0
 39 36  1  6  0  0  0
 39 37  1  0  0  0  0
 39 38  1  0  0  0  0
 41 44  1  0  0  0  0
 42 45  1  0  0  0  0
 43 42  2  0  0  0  0
 43 41  1  0  0  0  0
 44 40  1  0  0  0  0
 45 44  2  0  0  0  0
 46 47  3  0  0  0  0
 47 43  1  0  0  0  0
 48 42  1  0  0  0  0
 49 48  1  0  0  0  0
M  END
>  <MODEL>
6

>  <REMARK>
 VINA RESULT:      -5.6      3.616     10.632
  Name = 
  15 active torsions:
  status: ('A' for Active; 'I' for Inactive)
    1  A    between atoms: C_1  and  C_10
    2  A    between atoms: N_4  and  C_39
    3  A    between atoms: N_4  and  N_48
    4  A    between atoms: C_8  and  C_29
    5  A    between atoms: C_8  and  C_37
    6  A    between atoms: C_10  and  O_17
    7  A    between atoms: C_10  and  C_39
    8  A    between atoms: N_12  and  C_31
    9  A    between atoms: C_14  and  C_34
   10  A    between atoms: O_17  and  C_40
   11  A    between atoms: C_18  and  S_24
   12  A    between atoms: C_19  and  N_32
   13  A    between atoms: S_24  and  C_35
   14  A    between atoms: N_32  and  C_38
   15  A    between atoms: C_46  and  N_48
                            x       y       z     vdW  Elec       q    Type
                         _______ _______ _______ _____ _____    ______ ____

>  <TORSDO>
F 15

$$$$
=
 OpenBabel11042420363D

 49 55  0  0  1  0  0  0  0  0999 V2000
  161.3640  210.8650  152.7110 N   0  0  0  0  0  2  0  0  0  0  0  0
  160.8520  207.4390  151.3750 C   0  0  0  0  0  0  0  0  0  0  0  0
  161.5720  206.2570  149.5320 N   0  0  0  0  0  2  0  0  0  0  0  0
  162.3490  208.6020  149.8880 C   0  0  0  0  0  3  0  0  0  0  0  0
  160.7470  208.5490  152.2130 C   0  0  0  0  0  3  0  0  0  0  0  0
  161.6240  207.4710  150.2500 C   0  0  0  0  0  0  0  0  0  0  0  0
  160.6780  205.3500  150.2560 C   0  0  2  0  0  3  0  0  0  0  0  0
  160.1940  206.1160  151.5080 C   0  0  0  0  0  2  0  0  0  0  0  0
  162.2630  209.7330  150.7140 C   0  0  0  0  0  3  0  0  0  0  0  0
  161.4610  209.7130  151.8740 C   0  0  0  0  0  0  0  0  0  0  0  0
  161.5920  203.8690  150.7750 S   0  0  0  0  0  0  0  0  0  0  0  0
  161.1230  201.3240  149.8810 C   0  0  0  0  0  2  0  0  0  0  0  0
  160.4410  202.7000  149.9930 C   0  0  2  0  0  3  0  0  0  0  0  0
  160.8260  200.9350  148.5190 N   0  0  1  0  0  0  0  0  0  0  0  0
  160.6430  201.6930  146.3660 C   0  0  2  0  0  3  0  0  0  0  0  0
  160.9940  202.1480  147.7670 C   0  0  1  0  0  0  0  0  0  0  0  0
  160.1490  203.1260  148.5360 C   0  0  0  0  0  2  0  0  0  0  0  0
  161.6250  199.9660  147.7990 C   0  0  0  0  0  2  0  0  0  0  0  0
  162.3330  202.5950  147.8020 O   0  0  0  0  0  1  0  0  0  0  0  0
  161.3310  200.3110  146.3220 C   0  0  0  0  0  2  0  0  0  0  0  0
  161.1910  202.6070  145.2730 C   0  0  0  0  0  2  0  0  0  0  0  0
  160.3810  205.0130  145.0970 N   0  0  0  0  0  2  0  0  0  0  0  0
  159.1150  203.2440  144.2960 O   0  0  0  0  0  0  0  0  0  0  0  0
  161.5650  205.5230  145.7680 C   0  0  0  0  0  1  0  0  0  0  0  0
  160.1670  203.6210  144.8730 C   0  0  0  0  0  0  0  0  0  0  0  0
  160.1210  211.4180  153.0480 N   0  0  0  0  0  2  0  0  0  0  0  0
  160.2730  212.0840  154.3290 C   0  0  0  0  0  2  0  0  0  0  0  0
  159.2870  211.5090  155.3420 C   0  0  1  0  0  3  0  0  0  0  0  0
  160.0360  210.6800  156.3880 C   0  0  1  0  0  3  0  0  0  0  0  0
  161.8760  208.5660  157.0520 C   0  0  0  0  0  2  0  0  0  0  0  0
  159.7430  209.1880  156.2200 C   0  0  0  0  0  2  0  0  0  0  0  0
  160.1160  207.0280  157.0390 C   0  0  0  0  0  1  0  0  0  0  0  0
  160.4370  208.4250  157.2590 N   0  0  0  0  0  0  0  0  0  0  0  0
  162.2950  210.0180  157.2590 C   0  0  0  0  0  2  0  0  0  0  0  0
  161.5460  210.9050  156.2680 C   0  0  0  0  0  2  0  0  0  0  0  0
  158.6010  212.5630  155.9630 O   0  0  0  0  0  0  0  0  0  0  0  0
  157.2540  214.2180  154.9960 C   0  0  1  0  0  3  0  0  0  0  0  0
  156.5110  213.4830  155.9350 O   0  0  0  0  0  0  0  0  0  0  0  0
  157.4590  212.7650  155.1860 C   0  0  2  0  0  3  0  0  0  0  0  0
  156.4370  214.4520  153.8180 N   0  0  0  0  0  2  0  0  0  0  0  0
  156.0300  214.1700  151.1150 S   0  0  0  0  0  0  0  0  0  0  0  0
  158.5120  214.3060  150.7850 C   0  0  0  0  0  0  0  0  0  0  0  0
  157.3290  214.1790  150.0520 C   0  0  0  0  0  0  0  0  0  0  0  0
  156.9670  214.3310  152.5010 C   0  0  0  0  0  0  0  0  0  0  0  0
  158.3140  214.4000  152.1660 C   0  0  0  0  0  3  0  0  0  0  0  0
  157.0880  214.1110  147.4690 N   0  0  0  0  0  0  0  0  0  0  0  0
  157.1950  214.1420  148.6210 C   0  0  0  0  0  0  0  0  0  0  0  0
  159.8210  214.3380  150.2200 N   0  0  0  0  0  2  0  0  0  0  0  0
  160.6560  213.2680  150.2440 O   0  0  0  0  0  1  0  0  0  0  0  0
  1 26  1  0  0  0  0
  2  8  1  0  0  0  0
  2  5  1  0  0  0  0
  3  6  1  0  0  0  0
  3  7  1  0  0  0  0
  4  6  1  0  0  0  0
  4  9  2  0  0  0  0
  6  2  2  0  0  0  0
  7 11  1  1  0  0  0
  7  8  1  0  0  0  0
  9 10  1  0  0  0  0
 10  5  2  0  0  0  0
 10  1  1  0  0  0  0
 12 13  1  0  0  0  0
 13 11  1  6  0  0  0
 14 18  1  6  0  0  0
 14 12  1  0  0  0  0
 15 21  1  6  0  0  0
 15 16  1  0  0  0  0
 16 19  1  1  0  0  0
 16 14  1  0  0  0  0
 16 17  1  0  0  0  0
 17 13  1  0  0  0  0
 20 15  1  0  0  0  0
 20 18  1  0  0  0  0
 22 24  1  0  0  0  0
 23 25  2  0  0  0  0
 25 22  1  0  0  0  0
 25 21  1  0  0  0  0
 26 27  1  0  0  0  0
 28 27  1  6  0  0  0
 28 36  1  0  0  0  0
 29 28  1  6  0  0  0
 30 34  1  0  0  0  0
 30 33  1  0  0  0  0
 31 29  1  0  0  0  0
 31 33  1  0  0  0  0
 32 33  1  0  0  0  0
 35 29  1  0  0  0  0
 35 34  1  0  0  0  0
 37 40  1  6  0  0  0
 37 39  1  0  0  0  0
 37 38  1  0  0  0  0
 39 38  1  0  0  0  0
 39 36  1  1  0  0  0
 41 44  1  0  0  0  0
 42 45  1  0  0  0  0
 43 42  2  0  0  0  0
 43 41  1  0  0  0  0
 44 40  1  0  0  0  0
 45 44  2  0  0  0  0
 46 47  3  0  0  0  0
 47 43  1  0  0  0  0
 48 49  1  0  0  0  0
 48 42  1  0  0  0  0
M  END
>  <MODEL>
7

>  <REMARK>
 VINA RESULT:      -5.5      5.240      9.218
  Name = 
  15 active torsions:
  status: ('A' for Active; 'I' for Inactive)
    1  A    between atoms: C_1  and  C_10
    2  A    between atoms: N_4  and  C_39
    3  A    between atoms: N_4  and  N_48
    4  A    between atoms: C_8  and  C_29
    5  A    between atoms: C_8  and  C_37
    6  A    between atoms: C_10  and  O_17
    7  A    between atoms: C_10  and  C_39
    8  A    between atoms: N_12  and  C_31
    9  A    between atoms: C_14  and  C_34
   10  A    between atoms: O_17  and  C_40
   11  A    between atoms: C_18  and  S_24
   12  A    between atoms: C_19  and  N_32
   13  A    between atoms: S_24  and  C_35
   14  A    between atoms: N_32  and  C_38
   15  A    between atoms: C_46  and  N_48
                            x       y       z     vdW  Elec       q    Type
                         _______ _______ _______ _____ _____    ______ ____

>  <TORSDO>
F 15

$$$$
=
 OpenBabel11042420363D

 49 55  0  0  1  0  0  0  0  0999 V2000
  161.6640  212.3510  149.7460 N   0  0  0  0  0  2  0  0  0  0  0  0
  161.7210  209.4260  152.0320 C   0  0  0  0  0  0  0  0  0  0  0  0
  160.4300  208.6700  153.7850 N   0  0  0  0  0  2  0  0  0  0  0  0
  159.8010  210.7700  152.5900 C   0  0  0  0  0  3  0  0  0  0  0  0
  162.0950  210.3000  151.0110 C   0  0  0  0  0  3  0  0  0  0  0  0
  160.6150  209.6590  152.7950 C   0  0  0  0  0  0  0  0  0  0  0  0
  161.5230  207.7040  153.6570 C   0  0  2  0  0  3  0  0  0  0  0  0
  162.3960  208.1800  152.4740 C   0  0  0  0  0  2  0  0  0  0  0  0
  160.1530  211.6650  151.5680 C   0  0  0  0  0  3  0  0  0  0  0  0
  161.3000  211.4370  150.7790 C   0  0  0  0  0  0  0  0  0  0  0  0
  160.8500  206.0590  153.2810 S   0  0  0  0  0  0  0  0  0  0  0  0
  161.7320  206.6310  150.7540 C   0  0  0  0  0  2  0  0  0  0  0  0
  162.0370  205.7110  151.9500 C   0  0  2  0  0  3  0  0  0  0  0  0
  161.7770  205.7160  149.6340 N   0  0  1  0  0  0  0  0  0  0  0  0
  161.2200  203.6090  148.9290 C   0  0  2  0  0  3  0  0  0  0  0  0
  161.1180  204.5370  150.1230 C   0  0  1  0  0  0  0  0  0  0  0  0
  161.8400  204.2740  151.4150 C   0  0  0  0  0  2  0  0  0  0  0  0
  161.1070  205.9940  148.3810 C   0  0  0  0  0  2  0  0  0  0  0  0
  159.7600  204.7880  150.4160 O   0  0  0  0  0  1  0  0  0  0  0  0
  160.9290  204.5860  147.7690 C   0  0  0  0  0  2  0  0  0  0  0  0
  160.2010  202.4730  148.9510 C   0  0  0  0  0  2  0  0  0  0  0  0
  161.4380  200.3120  148.4220 N   0  0  0  0  0  2  0  0  0  0  0  0
  160.9130  200.9090  150.6000 O   0  0  0  0  0  0  0  0  0  0  0  0
  161.3950  200.5670  146.9930 C   0  0  0  0  0  1  0  0  0  0  0  0
  160.8500  201.1940  149.3760 C   0  0  0  0  0  0  0  0  0  0  0  0
  160.8120  213.3970  149.3660 N   0  0  0  0  0  2  0  0  0  0  0  0
  161.1700  213.7800  148.0120 C   0  0  0  0  0  2  0  0  0  0  0  0
  159.9150  214.1350  147.2170 C   0  0  1  0  0  3  0  0  0  0  0  0
  160.1930  214.0050  145.7170 C   0  0  1  0  0  3  0  0  0  0  0  0
  161.4210  212.6150  143.5130 C   0  0  0  0  0  2  0  0  0  0  0  0
  161.6960  213.9780  145.4360 C   0  0  0  0  0  2  0  0  0  0  0  0
  163.3690  213.8740  143.8030 C   0  0  0  0  0  1  0  0  0  0  0  0
  161.9310  213.8960  143.9940 N   0  0  0  0  0  0  0  0  0  0  0  0
  159.9070  212.5550  143.6880 C   0  0  0  0  0  2  0  0  0  0  0  0
  159.5630  212.7230  145.1660 C   0  0  0  0  0  2  0  0  0  0  0  0
  158.8760  213.2700  147.5900 O   0  0  0  0  0  0  0  0  0  0  0  0
  157.1580  213.4080  149.1770 C   0  0  1  0  0  3  0  0  0  0  0  0
  156.6210  213.4820  147.8800 O   0  0  0  0  0  0  0  0  0  0  0  0
  157.8660  214.1010  148.0790 C   0  0  2  0  0  3  0  0  0  0  0  0
  156.4900  214.3800  150.0250 N   0  0  0  0  0  2  0  0  0  0  0  0
  155.2700  214.2460  152.4840 S   0  0  0  0  0  0  0  0  0  0  0  0
  157.5410  214.1650  153.5440 C   0  0  0  0  0  0  0  0  0  0  0  0
  156.1870  214.1340  153.8850 C   0  0  0  0  0  0  0  0  0  0  0  0
  156.5890  214.3280  151.4460 C   0  0  0  0  0  0  0  0  0  0  0  0
  157.7740  214.2660  152.1680 C   0  0  0  0  0  3  0  0  0  0  0  0
  155.1780  213.8130  156.2550 N   0  0  0  0  0  0  0  0  0  0  0  0
  155.6280  213.9550  155.1980 C   0  0  0  0  0  0  0  0  0  0  0  0
  158.6190  214.1040  154.4750 N   0  0  0  0  0  2  0  0  0  0  0  0
  158.7940  213.0620  155.3270 O   0  0  0  0  0  1  0  0  0  0  0  0
  1 10  1  0  0  0  0
  2  8  1  0  0  0  0
  2  6  1  0  0  0  0
  4  6  2  0  0  0  0
  5  2  2  0  0  0  0
  6  3  1  0  0  0  0
  7 11  1  6  0  0  0
  7  3  1  0  0  0  0
  8  7  1  0  0  0  0
  9  4  1  0  0  0  0
 10  5  1  0  0  0  0
 10  9  2  0  0  0  0
 12 13  1  0  0  0  0
 13 11  1  1  0  0  0
 14 18  1  6  0  0  0
 14 16  1  0  0  0  0
 14 12  1  0  0  0  0
 15 21  1  1  0  0  0
 15 16  1  0  0  0  0
 16 19  1  1  0  0  0
 16 17  1  0  0  0  0
 17 13  1  0  0  0  0
 20 18  1  0  0  0  0
 20 15  1  0  0  0  0
 21 25  1  0  0  0  0
 22 25  1  0  0  0  0
 24 22  1  0  0  0  0
 25 23  2  0  0  0  0
 26  1  1  0  0  0  0
 27 26  1  0  0  0  0
 28 36  1  0  0  0  0
 28 27  1  1  0  0  0
 29 28  1  1  0  0  0
 30 34  1  0  0  0  0
 30 33  1  0  0  0  0
 31 29  1  0  0  0  0
 32 33  1  0  0  0  0
 33 31  1  0  0  0  0
 34 35  1  0  0  0  0
 35 29  1  0  0  0  0
 37 40  1  1  0  0  0
 38 39  1  0  0  0  0
 38 37  1  0  0  0  0
 39 36  1  6  0  0  0
 39 37  1  0  0  0  0
 40 44  1  0  0  0  0
 41 43  1  0  0  0  0
 42 43  2  0  0  0  0
 42 48  1  0  0  0  0
 43 47  1  0  0  0  0
 44 45  2  0  0  0  0
 44 41  1  0  0  0  0
 45 42  1  0  0  0  0
 47 46  3  0  0  0  0
 48 49  1  0  0  0  0
M  END
>  <MODEL>
8

>  <REMARK>
 VINA RESULT:      -5.0      3.708     10.760
  Name = 
  15 active torsions:
  status: ('A' for Active; 'I' for Inactive)
    1  A    between atoms: C_1  and  C_10
    2  A    between atoms: N_4  and  C_39
    3  A    between atoms: N_4  and  N_48
    4  A    between atoms: C_8  and  C_29
    5  A    between atoms: C_8  and  C_37
    6  A    between atoms: C_10  and  O_17
    7  A    between atoms: C_10  and  C_39
    8  A    between atoms: N_12  and  C_31
    9  A    between atoms: C_14  and  C_34
   10  A    between atoms: O_17  and  C_40
   11  A    between atoms: C_18  and  S_24
   12  A    between atoms: C_19  and  N_32
   13  A    between atoms: S_24  and  C_35
   14  A    between atoms: N_32  and  C_38
   15  A    between atoms: C_46  and  N_48
                            x       y       z     vdW  Elec       q    Type
                         _______ _______ _______ _____ _____    ______ ____

>  <TORSDO>
F 15

$$$$
=
 OpenBabel11042420363D

 49 55  0  0  1  0  0  0  0  0999 V2000
  161.9660  205.7540  142.0310 N   0  0  0  0  0  2  0  0  0  0  0  0
  161.5600  208.8510  140.0250 C   0  0  0  0  0  0  0  0  0  0  0  0
  161.8930  209.4540  137.8260 N   0  0  0  0  0  2  0  0  0  0  0  0
  162.3290  207.1060  138.5520 C   0  0  0  0  0  3  0  0  0  0  0  0
  161.5570  207.9890  141.1220 C   0  0  0  0  0  3  0  0  0  0  0  0
  161.9370  208.4210  138.7870 C   0  0  0  0  0  0  0  0  0  0  0  0
  161.4490  210.6730  138.5050 C   0  0  2  0  0  3  0  0  0  0  0  0
  161.2020  210.2910  139.9810 C   0  0  0  0  0  2  0  0  0  0  0  0
  162.3330  206.2160  139.6380 C   0  0  0  0  0  3  0  0  0  0  0  0
  161.9530  206.6540  140.9240 C   0  0  0  0  0  0  0  0  0  0  0  0
  159.8940  211.2560  137.7680 S   0  0  0  0  0  0  0  0  0  0  0  0
  158.0810  209.3410  138.5030 C   0  0  0  0  0  2  0  0  0  0  0  0
  158.8380  210.5560  139.0710 C   0  0  2  0  0  3  0  0  0  0  0  0
  156.7280  209.5720  138.9590 N   0  0  1  0  0  0  0  0  0  0  0  0
  155.1260  211.1740  139.2980 C   0  0  2  0  0  3  0  0  0  0  0  0
  156.5370  210.9840  138.7800 C   0  0  1  0  0  0  0  0  0  0  0  0
  157.7380  211.5650  139.4730 C   0  0  0  0  0  2  0  0  0  0  0  0
  155.5800  208.9800  138.3070 C   0  0  0  0  0  2  0  0  0  0  0  0
  156.5950  211.3430  137.4150 O   0  0  0  0  0  1  0  0  0  0  0  0
  154.4280  209.9240  138.7190 C   0  0  0  0  0  2  0  0  0  0  0  0
  154.4580  212.4510  138.7960 C   0  0  0  0  0  2  0  0  0  0  0  0
  154.1940  213.8490  140.9060 N   0  0  0  0  0  2  0  0  0  0  0  0
  155.7670  214.3790  139.2880 O   0  0  0  0  0  0  0  0  0  0  0  0
  153.1060  213.0180  141.3930 C   0  0  0  0  0  1  0  0  0  0  0  0
  154.8380  213.6150  139.6550 C   0  0  0  0  0  0  0  0  0  0  0  0
  161.6590  206.1900  143.3270 N   0  0  0  0  0  2  0  0  0  0  0  0
  160.7930  205.1910  143.9300 C   0  0  0  0  0  2  0  0  0  0  0  0
  161.1660  204.9870  145.3960 C   0  0  1  0  0  3  0  0  0  0  0  0
  161.3480  203.4950  145.6870 C   0  0  1  0  0  3  0  0  0  0  0  0
  160.3460  201.0190  146.7630 C   0  0  0  0  0  2  0  0  0  0  0  0
  161.1800  203.2010  147.1780 C   0  0  0  0  0  2  0  0  0  0  0  0
  161.2260  201.5720  148.8570 C   0  0  0  0  0  1  0  0  0  0  0  0
  161.4000  201.7760  147.4320 N   0  0  0  0  0  0  0  0  0  0  0  0
  160.4550  201.1890  145.2510 C   0  0  0  0  0  2  0  0  0  0  0  0
  160.3250  202.6690  144.9010 C   0  0  0  0  0  2  0  0  0  0  0  0
  162.3560  205.6790  145.6670 O   0  0  0  0  0  0  0  0  0  0  0  0
  162.3080  206.6320  147.8060 C   0  0  1  0  0  3  0  0  0  0  0  0
  160.9980  206.4520  147.3310 O   0  0  0  0  0  0  0  0  0  0  0  0
  161.9660  206.8140  146.3790 C   0  0  2  0  0  3  0  0  0  0  0  0
  162.4050  207.9250  148.4610 N   0  0  0  0  0  2  0  0  0  0  0  0
  161.6160  206.8650  150.8700 S   0  0  0  0  0  0  0  0  0  0  0  0
  161.5330  209.1910  151.8020 C   0  0  0  0  0  0  0  0  0  0  0  0
  161.3350  207.8630  152.1890 C   0  0  0  0  0  0  0  0  0  0  0  0
  161.9930  208.1150  149.8120 C   0  0  0  0  0  0  0  0  0  0  0  0
  161.9120  209.3390  150.4640 C   0  0  0  0  0  3  0  0  0  0  0  0
  160.7690  206.9930  154.5690 N   0  0  0  0  0  0  0  0  0  0  0  0
  161.0220  207.3820  153.5080 C   0  0  0  0  0  0  0  0  0  0  0  0
  161.3730  210.3220  152.6560 N   0  0  0  0  0  2  0  0  0  0  0  0
  160.4810  211.3120  152.4010 O   0  0  0  0  0  1  0  0  0  0  0  0
  1 26  1  0  0  0  0
  2  5  1  0  0  0  0
  3  7  1  0  0  0  0
  3  6  1  0  0  0  0
  4  6  1  0  0  0  0
  4  9  2  0  0  0  0
  6  2  2  0  0  0  0
  7 11  1  6  0  0  0
  7  8  1  0  0  0  0
  8  2  1  0  0  0  0
  9 10  1  0  0  0  0
 10  5  2  0  0  0  0
 10  1  1  0  0  0  0
 12 14  1  0  0  0  0
 12 13  1  0  0  0  0
 13 11  1  6  0  0  0
 13 17  1  0  0  0  0
 14 18  1  6  0  0  0
 15 21  1  6  0  0  0
 16 19  1  6  0  0  0
 16 14  1  0  0  0  0
 16 15  1  0  0  0  0
 16 17  1  0  0  0  0
 18 20  1  0  0  0  0
 20 15  1  0  0  0  0
 21 25  1  0  0  0  0
 22 24  1  0  0  0  0
 23 25  2  0  0  0  0
 25 22  1  0  0  0  0
 26 27  1  0  0  0  0
 28 27  1  6  0  0  0
 28 36  1  0  0  0  0
 29 28  1  1  0  0  0
 29 31  1  0  0  0  0
 30 33  1  0  0  0  0
 31 33  1  0  0  0  0
 33 32  1  0  0  0  0
 34 30  1  0  0  0  0
 35 34  1  0  0  0  0
 35 29  1  0  0  0  0
 37 40  1  1  0  0  0
 38 37  1  0  0  0  0
 39 36  1  6  0  0  0
 39 38  1  0  0  0  0
 39 37  1  0  0  0  0
 40 44  1  0  0  0  0
 41 43  1  0  0  0  0
 42 43  2  0  0  0  0
 42 48  1  0  0  0  0
 43 47  1  0  0  0  0
 44 45  2  0  0  0  0
 44 41  1  0  0  0  0
 45 42  1  0  0  0  0
 47 46  3  0  0  0  0
 49 48  1  0  0  0  0
M  END
>  <MODEL>
9

>  <REMARK>
 VINA RESULT:      -4.9      3.521      8.079
  Name = 
  15 active torsions:
  status: ('A' for Active; 'I' for Inactive)
    1  A    between atoms: C_1  and  C_10
    2  A    between atoms: N_4  and  C_39
    3  A    between atoms: N_4  and  N_48
    4  A    between atoms: C_8  and  C_29
    5  A    between atoms: C_8  and  C_37
    6  A    between atoms: C_10  and  O_17
    7  A    between atoms: C_10  and  C_39
    8  A    between atoms: N_12  and  C_31
    9  A    between atoms: C_14  and  C_34
   10  A    between atoms: O_17  and  C_40
   11  A    between atoms: C_18  and  S_24
   12  A    between atoms: C_19  and  N_32
   13  A    between atoms: S_24  and  C_35
   14  A    between atoms: N_32  and  C_38
   15  A    between atoms: C_46  and  N_48
                            x       y       z     vdW  Elec       q    Type
                         _______ _______ _______ _____ _____    ______ ____

>  <TORSDO>
F 15

$$$$
