=
 OpenBabel11042422463D

 38 40  0  0  1  0  0  0  0  0999 V2000
  160.6870  205.3840  151.9960 C   0  0  0  0  0  3  0  0  0  0  0  0
  161.3680  206.2530  152.7480 C   0  0  0  0  0  0  0  0  0  0  0  0
  160.9860  205.1910  149.3710 C   0  0  0  0  0  0  0  0  0  0  0  0
  160.8580  205.2750  150.5680 C   0  0  0  0  0  0  0  0  0  0  0  0
  161.1220  205.0970  147.9460 C   0  0  0  0  0  0  0  0  0  0  0  0
  161.9650  203.9840  147.3720 C   0  0  0  0  0  2  0  0  0  0  0  0
  160.7210  206.0890  145.6960 C   0  0  0  0  0  2  0  0  0  0  0  0
  160.6260  206.0830  147.1930 C   0  0  0  0  0  3  0  0  0  0  0  0
  161.9450  205.3170  145.2190 C   0  0  0  0  0  2  0  0  0  0  0  0
  161.9670  203.9190  145.8380 C   0  0  2  0  0  3  0  0  0  0  0  0
  160.6890  201.9040  145.7970 O   0  0  0  0  0  1  0  0  0  0  0  0
  160.8620  203.0540  145.3160 C   0  0  0  0  0  0  0  0  0  0  0  0
  160.0440  203.4930  144.2820 O   0  0  0  0  0  0  0  0  0  0  0  0
  161.1110  206.2770  154.1550 N   0  0  0  0  0  2  0  0  0  0  0  0
  160.2590  207.2670  154.8000 C   0  0  0  0  0  2  0  0  0  0  0  0
  160.2610  207.0250  156.6020 S   0  0  0  0  0  0  0  0  0  0  0  0
  161.6720  208.1430  156.8370 C   0  0  0  0  0  2  0  0  0  0  0  0
  161.3160  209.5420  156.3750 C   0  0  0  0  0  2  0  0  0  0  0  0
  162.9040  210.7820  155.1660 O   0  0  0  0  0  0  0  0  0  0  0  0
  162.5460  210.3740  156.2580 C   0  0  0  0  0  3  0  0  0  0  0  0
  162.3870  207.1750  152.1460 C   0  0  0  0  0  2  0  0  0  0  0  0
  162.1010  208.5440  152.5420 N   0  0  0  0  0  2  0  0  0  0  0  0
  160.1480  210.9010  153.1110 N   0  0  0  0  0  1  0  0  0  0  0  0
  162.2400  208.4290  149.4930 O   0  0  0  0  0  0  0  0  0  0  0  0
  160.8350  210.5100  151.9290 C   0  0  0  0  0  0  0  0  0  0  0  0
  161.2370  211.3740  151.0510 N   0  0  0  0  0  0  0  0  0  0  0  0
  161.8850  210.7080  150.0120 N   0  0  0  0  0  0  0  0  0  0  0  0
  161.8260  209.3190  150.2800 C   0  0  0  0  0  0  0  0  0  0  0  0
  161.1500  209.0790  151.5830 C   0  0  1  0  0  3  0  0  0  0  0  0
  162.2500  211.3290  148.7480 C   0  0  0  0  0  2  0  0  0  0  0  0
  162.5720  213.3220  146.3590 C   0  0  0  0  0  2  0  0  0  0  0  0
  161.1540  213.2550  145.7780 C   0  0  2  0  0  3  0  0  0  0  0  0
  162.5180  213.6830  147.8420 C   0  0  0  0  0  2  0  0  0  0  0  0
  161.6280  212.7160  148.6330 C   0  0  1  0  0  3  0  0  0  0  0  0
  160.2230  212.6440  148.0300 C   0  0  0  0  0  2  0  0  0  0  0  0
  160.2590  212.2750  146.5480 C   0  0  0  0  0  2  0  0  0  0  0  0
  161.1380  213.0430  144.3810 O   0  0  0  0  0  0  0  0  0  0  0  0
  159.9830  212.3170  144.0390 C   0  0  0  0  0  1  0  0  0  0  0  0
  1  2  2  0  0  0  0
  2 14  1  0  0  0  0
  3  4  3  0  0  0  0
  4  1  1  0  0  0  0
  5  3  1  0  0  0  0
  6  5  1  0  0  0  0
  7  8  1  0  0  0  0
  8  5  2  0  0  0  0
  9  7  1  0  0  0  0
  9 10  1  0  0  0  0
 10 12  1  6  0  0  0
 10  6  1  0  0  0  0
 12 11  1  0  0  0  0
 13 12  2  0  0  0  0
 14 15  1  0  0  0  0
 15 16  1  0  0  0  0
 16 17  1  0  0  0  0
 18 17  1  0  0  0  0
 19 20  2  0  0  0  0
 20 18  1  0  0  0  0
 21 22  1  0  0  0  0
 21  2  1  0  0  0  0
 24 28  2  0  0  0  0
 25 23  1  0  0  0  0
 26 25  2  0  0  0  0
 27 28  1  0  0  0  0
 27 26  1  0  0  0  0
 28 29  1  0  0  0  0
 29 25  1  0  0  0  0
 29 22  1  1  0  0  0
 30 27  1  0  0  0  0
 31 33  1  0  0  0  0
 32 37  1  6  0  0  0
 32 31  1  0  0  0  0
 32 36  1  0  0  0  0
 33 34  1  0  0  0  0
 34 30  1  6  0  0  0
 35 34  1  0  0  0  0
 36 35  1  0  0  0  0
 38 37  1  0  0  0  0
M  END
>  <MODEL>
1

>  <REMARK>
 VINA RESULT:      -7.1      0.000      0.000
  Name = 
  15 active torsions:
  status: ('A' for Active; 'I' for Inactive)
    1  A    between atoms: N_1  and  C_22
    2  A    between atoms: N_1  and  C_28
    3  A    between atoms: C_3  and  C_4
    4  A    between atoms: C_3  and  C_19
    5  A    between atoms: S_7  and  C_19
    6  A    between atoms: S_7  and  C_22
    7  A    between atoms: C_9  and  C_30
    8  A    between atoms: C_11  and  O_18
    9  A    between atoms: C_14  and  C_31
   10  A    between atoms: N_20  and  C_29
   11  A    between atoms: C_23  and  C_29
   12  A    between atoms: C_28  and  C_36
   13  A    between atoms: C_32  and  C_37
   14  A    between atoms: C_33  and  N_35
   15  A    between atoms: N_35  and  C_36
                            x       y       z     vdW  Elec       q    Type
                         _______ _______ _______ _____ _____    ______ ____

>  <TORSDO>
F 15

$$$$
=
 OpenBabel11042422463D

 38 40  0  0  1  0  0  0  0  0999 V2000
  159.6030  212.6680  153.5720 C   0  0  0  0  0  3  0  0  0  0  0  0
  160.4550  211.7200  153.9700 C   0  0  0  0  0  0  0  0  0  0  0  0
  158.9660  213.0870  151.0350 C   0  0  0  0  0  0  0  0  0  0  0  0
  159.2600  212.8880  152.1880 C   0  0  0  0  0  0  0  0  0  0  0  0
  158.6080  213.3380  149.6680 C   0  0  0  0  0  0  0  0  0  0  0  0
  159.6320  213.9680  148.7560 C   0  0  0  0  0  2  0  0  0  0  0  0
  156.8550  213.3860  147.8990 C   0  0  0  0  0  2  0  0  0  0  0  0
  157.3380  213.1460  149.2980 C   0  0  0  0  0  3  0  0  0  0  0  0
  157.6920  214.4520  147.2020 C   0  0  0  0  0  2  0  0  0  0  0  0
  159.1790  214.1060  147.2960 C   0  0  2  0  0  3  0  0  0  0  0  0
  158.7700  212.5280  145.5540 O   0  0  0  0  0  0  0  0  0  0  0  0
  159.5280  212.8940  146.4880 C   0  0  0  0  0  0  0  0  0  0  0  0
  160.6640  212.1480  146.7810 O   0  0  0  0  0  1  0  0  0  0  0  0
  160.7250  211.5970  155.3700 N   0  0  0  0  0  2  0  0  0  0  0  0
  159.6840  211.5180  156.3840 C   0  0  0  0  0  2  0  0  0  0  0  0
  159.4810  213.1260  157.2100 S   0  0  0  0  0  0  0  0  0  0  0  0
  157.7030  213.1830  156.8510 C   0  0  0  0  0  2  0  0  0  0  0  0
  157.1310  211.7790  156.8050 C   0  0  0  0  0  2  0  0  0  0  0  0
  156.3980  211.9950  154.5820 O   0  0  0  0  0  0  0  0  0  0  0  0
  156.1110  211.6750  155.7240 C   0  0  0  0  0  3  0  0  0  0  0  0
  161.1070  210.7930  152.9870 C   0  0  0  0  0  2  0  0  0  0  0  0
  160.4810  209.4840  153.0620 N   0  0  0  0  0  2  0  0  0  0  0  0
  160.6600  207.4140  155.3800 N   0  0  0  0  0  1  0  0  0  0  0  0
  162.2900  208.3150  150.8960 O   0  0  0  0  0  0  0  0  0  0  0  0
  161.0400  207.3320  154.0120 C   0  0  0  0  0  0  0  0  0  0  0  0
  160.9830  206.2210  153.3480 N   0  0  0  0  0  0  0  0  0  0  0  0
  161.4020  206.4450  152.0370 N   0  0  0  0  0  0  0  0  0  0  0  0
  161.7790  207.8050  151.9270 C   0  0  0  0  0  0  0  0  0  0  0  0
  161.5450  208.5070  153.2170 C   0  0  1  0  0  3  0  0  0  0  0  0
  161.6950  205.3870  151.0840 C   0  0  0  0  0  2  0  0  0  0  0  0
  161.4660  206.0470  148.0340 C   0  0  0  0  0  2  0  0  0  0  0  0
  161.4910  204.6240  147.4630 C   0  0  2  0  0  3  0  0  0  0  0  0
  160.3580  206.1780  149.0780 C   0  0  0  0  0  2  0  0  0  0  0  0
  160.4910  205.1260  150.1850 C   0  0  1  0  0  3  0  0  0  0  0  0
  160.5350  203.7130  149.5990 C   0  0  0  0  0  2  0  0  0  0  0  0
  161.6440  203.5630  148.5600 C   0  0  0  0  0  2  0  0  0  0  0  0
  162.4150  204.4680  146.4060 O   0  0  0  0  0  0  0  0  0  0  0  0
  161.7130  204.3570  145.1930 C   0  0  0  0  0  1  0  0  0  0  0  0
  1  2  2  0  0  0  0
  2 14  1  0  0  0  0
  3  4  3  0  0  0  0
  4  1  1  0  0  0  0
  5  3  1  0  0  0  0
  6  5  1  0  0  0  0
  7  8  1  0  0  0  0
  8  5  2  0  0  0  0
  9 10  1  0  0  0  0
  9  7  1  0  0  0  0
 10 12  1  6  0  0  0
 10  6  1  0  0  0  0
 11 12  2  0  0  0  0
 12 13  1  0  0  0  0
 14 15  1  0  0  0  0
 15 16  1  0  0  0  0
 17 16  1  0  0  0  0
 18 17  1  0  0  0  0
 19 20  2  0  0  0  0
 20 18  1  0  0  0  0
 21 22  1  0  0  0  0
 21  2  1  0  0  0  0
 24 28  2  0  0  0  0
 25 23  1  0  0  0  0
 26 25  2  0  0  0  0
 27 26  1  0  0  0  0
 28 27  1  0  0  0  0
 28 29  1  0  0  0  0
 29 22  1  6  0  0  0
 29 25  1  0  0  0  0
 30 27  1  0  0  0  0
 31 33  1  0  0  0  0
 32 37  1  6  0  0  0
 32 31  1  0  0  0  0
 32 36  1  0  0  0  0
 33 34  1  0  0  0  0
 34 30  1  6  0  0  0
 35 34  1  0  0  0  0
 36 35  1  0  0  0  0
 38 37  1  0  0  0  0
M  END
>  <MODEL>
2

>  <REMARK>
 VINA RESULT:      -6.4      2.844      7.305
  Name = 
  15 active torsions:
  status: ('A' for Active; 'I' for Inactive)
    1  A    between atoms: N_1  and  C_22
    2  A    between atoms: N_1  and  C_28
    3  A    between atoms: C_3  and  C_4
    4  A    between atoms: C_3  and  C_19
    5  A    between atoms: S_7  and  C_19
    6  A    between atoms: S_7  and  C_22
    7  A    between atoms: C_9  and  C_30
    8  A    between atoms: C_11  and  O_18
    9  A    between atoms: C_14  and  C_31
   10  A    between atoms: N_20  and  C_29
   11  A    between atoms: C_23  and  C_29
   12  A    between atoms: C_28  and  C_36
   13  A    between atoms: C_32  and  C_37
   14  A    between atoms: C_33  and  N_35
   15  A    between atoms: N_35  and  C_36
                            x       y       z     vdW  Elec       q    Type
                         _______ _______ _______ _____ _____    ______ ____

>  <TORSDO>
F 15

$$$$
=
 OpenBabel11042422463D

 38 40  0  0  1  0  0  0  0  0999 V2000
  160.7470  212.1200  150.7790 C   0  0  0  0  0  3  0  0  0  0  0  0
  161.6870  211.2570  150.3850 C   0  0  0  0  0  0  0  0  0  0  0  0
  159.5630  212.0060  153.1460 C   0  0  0  0  0  0  0  0  0  0  0  0
  160.1110  212.0570  152.0710 C   0  0  0  0  0  0  0  0  0  0  0  0
  158.8970  211.9520  154.4160 C   0  0  0  0  0  0  0  0  0  0  0  0
  157.6620  212.7940  154.6220 C   0  0  0  0  0  2  0  0  0  0  0  0
  158.8760  211.1650  156.7790 C   0  0  0  0  0  2  0  0  0  0  0  0
  159.4810  211.2780  155.4120 C   0  0  0  0  0  3  0  0  0  0  0  0
  157.9980  212.3700  157.0950 C   0  0  0  0  0  2  0  0  0  0  0  0
  156.9760  212.5910  155.9800 C   0  0  2  0  0  3  0  0  0  0  0  0
  155.3790  211.1300  156.9850 O   0  0  0  0  0  1  0  0  0  0  0  0
  155.9530  211.4980  155.9280 C   0  0  0  0  0  0  0  0  0  0  0  0
  155.6550  210.8600  154.7290 O   0  0  0  0  0  0  0  0  0  0  0  0
  162.2450  211.4140  149.0770 N   0  0  0  0  0  2  0  0  0  0  0  0
  161.5390  212.0500  147.9740 C   0  0  0  0  0  2  0  0  0  0  0  0
  162.5810  213.3310  147.2120 S   0  0  0  0  0  0  0  0  0  0  0  0
  161.6850  213.2430  145.6360 C   0  0  0  0  0  2  0  0  0  0  0  0
  162.6560  213.3260  144.4740 C   0  0  0  0  0  2  0  0  0  0  0  0
  162.5140  212.8780  142.1710 O   0  0  0  0  0  0  0  0  0  0  0  0
  162.1020  212.6140  143.2890 C   0  0  0  0  0  3  0  0  0  0  0  0
  162.1640  210.1580  151.2880 C   0  0  0  0  0  2  0  0  0  0  0  0
  161.2300  209.0450  151.2370 N   0  0  0  0  0  2  0  0  0  0  0  0
  161.2460  206.1990  152.4990 N   0  0  0  0  0  1  0  0  0  0  0  0
  162.0940  208.5690  148.3460 O   0  0  0  0  0  0  0  0  0  0  0  0
  161.2860  206.6300  151.1440 C   0  0  0  0  0  0  0  0  0  0  0  0
  160.7510  205.9390  150.1870 N   0  0  0  0  0  0  0  0  0  0  0  0
  160.9340  206.6080  148.9780 N   0  0  0  0  0  0  0  0  0  0  0  0
  161.6790  207.7830  149.2380 C   0  0  0  0  0  0  0  0  0  0  0  0
  161.9490  207.9050  150.6950 C   0  0  1  0  0  3  0  0  0  0  0  0
  160.6790  206.0170  147.6740 C   0  0  0  0  0  2  0  0  0  0  0  0
  161.0420  202.9870  146.9880 C   0  0  0  0  0  2  0  0  0  0  0  0
  161.1070  203.0770  145.4580 C   0  0  2  0  0  3  0  0  0  0  0  0
  162.0870  203.9080  147.6160 C   0  0  0  0  0  2  0  0  0  0  0  0
  161.9390  205.3540  147.1290 C   0  0  1  0  0  3  0  0  0  0  0  0
  161.9840  205.4260  145.6000 C   0  0  0  0  0  2  0  0  0  0  0  0
  160.9390  204.5170  144.9570 C   0  0  0  0  0  2  0  0  0  0  0  0
  160.2470  202.1600  144.8130 O   0  0  0  0  0  0  0  0  0  0  0  0
  160.3260  200.9170  145.4650 C   0  0  0  0  0  1  0  0  0  0  0  0
  1  4  1  0  0  0  0
  2  1  2  0  0  0  0
  2 21  1  0  0  0  0
  3  5  1  0  0  0  0
  4  3  3  0  0  0  0
  5  6  1  0  0  0  0
  5  8  2  0  0  0  0
  6 10  1  0  0  0  0
  7  9  1  0  0  0  0
  8  7  1  0  0  0  0
 10 12  1  6  0  0  0
 10  9  1  0  0  0  0
 12 11  1  0  0  0  0
 13 12  2  0  0  0  0
 14  2  1  0  0  0  0
 15 14  1  0  0  0  0
 16 15  1  0  0  0  0
 17 16  1  0  0  0  0
 18 17  1  0  0  0  0
 19 20  2  0  0  0  0
 20 18  1  0  0  0  0
 22 21  1  0  0  0  0
 24 28  2  0  0  0  0
 25 23  1  0  0  0  0
 26 25  2  0  0  0  0
 27 28  1  0  0  0  0
 27 26  1  0  0  0  0
 28 29  1  0  0  0  0
 29 25  1  0  0  0  0
 29 22  1  1  0  0  0
 30 27  1  0  0  0  0
 31 33  1  0  0  0  0
 32 37  1  6  0  0  0
 32 31  1  0  0  0  0
 34 33  1  0  0  0  0
 34 30  1  6  0  0  0
 35 34  1  0  0  0  0
 36 32  1  0  0  0  0
 36 35  1  0  0  0  0
 37 38  1  0  0  0  0
M  END
>  <MODEL>
3

>  <REMARK>
 VINA RESULT:      -6.3      3.521      9.616
  Name = 
  15 active torsions:
  status: ('A' for Active; 'I' for Inactive)
    1  A    between atoms: N_1  and  C_22
    2  A    between atoms: N_1  and  C_28
    3  A    between atoms: C_3  and  C_4
    4  A    between atoms: C_3  and  C_19
    5  A    between atoms: S_7  and  C_19
    6  A    between atoms: S_7  and  C_22
    7  A    between atoms: C_9  and  C_30
    8  A    between atoms: C_11  and  O_18
    9  A    between atoms: C_14  and  C_31
   10  A    between atoms: N_20  and  C_29
   11  A    between atoms: C_23  and  C_29
   12  A    between atoms: C_28  and  C_36
   13  A    between atoms: C_32  and  C_37
   14  A    between atoms: C_33  and  N_35
   15  A    between atoms: N_35  and  C_36
                            x       y       z     vdW  Elec       q    Type
                         _______ _______ _______ _____ _____    ______ ____

>  <TORSDO>
F 15

$$$$
=
 OpenBabel11042422463D

 38 40  0  0  1  0  0  0  0  0999 V2000
  160.9900  213.5160  148.6010 C   0  0  0  0  0  3  0  0  0  0  0  0
  161.9160  212.6840  148.1170 C   0  0  0  0  0  0  0  0  0  0  0  0
  159.8280  213.1590  150.9550 C   0  0  0  0  0  0  0  0  0  0  0  0
  160.3580  213.3310  149.8840 C   0  0  0  0  0  0  0  0  0  0  0  0
  159.1940  212.9390  152.2230 C   0  0  0  0  0  0  0  0  0  0  0  0
  158.9540  211.5200  152.6750 C   0  0  0  0  0  2  0  0  0  0  0  0
  158.0150  213.8760  154.2080 C   0  0  0  0  0  2  0  0  0  0  0  0
  158.7040  213.9950  152.8810 C   0  0  0  0  0  3  0  0  0  0  0  0
  157.3510  212.5130  154.3640 C   0  0  0  0  0  2  0  0  0  0  0  0
  158.3570  211.3960  154.0840 C   0  0  2  0  0  3  0  0  0  0  0  0
  160.6310  211.4000  154.8040 O   0  0  0  0  0  0  0  0  0  0  0  0
  159.4210  211.3180  155.1350 C   0  0  0  0  0  0  0  0  0  0  0  0
  159.0870  211.1230  156.4700 O   0  0  0  0  0  1  0  0  0  0  0  0
  162.4710  212.9630  146.8280 N   0  0  0  0  0  2  0  0  0  0  0  0
  161.6930  212.9400  145.5980 C   0  0  0  0  0  2  0  0  0  0  0  0
  162.7620  213.2880  144.1680 S   0  0  0  0  0  0  0  0  0  0  0  0
  161.6240  212.4750  143.0110 C   0  0  0  0  0  2  0  0  0  0  0  0
  162.2240  212.4450  141.6180 C   0  0  0  0  0  2  0  0  0  0  0  0
  162.3470  210.4370  140.4030 O   0  0  0  0  0  0  0  0  0  0  0  0
  161.6320  211.3300  140.8270 C   0  0  0  0  0  3  0  0  0  0  0  0
  162.3810  211.4920  148.9020 C   0  0  0  0  0  2  0  0  0  0  0  0
  161.5500  210.3430  148.5830 N   0  0  0  0  0  2  0  0  0  0  0  0
  162.0010  209.7770  151.6100 N   0  0  0  0  0  1  0  0  0  0  0  0
  161.8530  207.6010  147.2720 O   0  0  0  0  0  0  0  0  0  0  0  0
  161.7430  208.9050  150.5160 C   0  0  0  0  0  0  0  0  0  0  0  0
  161.0760  207.8040  150.6570 N   0  0  0  0  0  0  0  0  0  0  0  0
  160.9710  207.1670  149.4220 N   0  0  0  0  0  0  0  0  0  0  0  0
  161.6750  207.9420  148.4700 C   0  0  0  0  0  0  0  0  0  0  0  0
  162.2200  209.1680  149.1120 C   0  0  1  0  0  3  0  0  0  0  0  0
  160.5020  205.8020  149.2470 C   0  0  0  0  0  2  0  0  0  0  0  0
  160.2750  202.6820  149.2950 C   0  0  0  0  0  2  0  0  0  0  0  0
  160.9750  202.3550  147.9700 C   0  0  2  0  0  3  0  0  0  0  0  0
  161.1830  203.5410  150.1730 C   0  0  0  0  0  2  0  0  0  0  0  0
  161.6430  204.8110  149.4480 C   0  0  1  0  0  3  0  0  0  0  0  0
  162.3210  204.4700  148.1190 C   0  0  0  0  0  2  0  0  0  0  0  0
  161.4220  203.6190  147.2250 C   0  0  0  0  0  2  0  0  0  0  0  0
  160.2360  201.4630  147.1600 O   0  0  0  0  0  0  0  0  0  0  0  0
  160.6100  201.6440  145.8170 C   0  0  0  0  0  1  0  0  0  0  0  0
  1  4  1  0  0  0  0
  2  1  2  0  0  0  0
  2 21  1  0  0  0  0
  3  5  1  0  0  0  0
  4  3  3  0  0  0  0
  5  6  1  0  0  0  0
  5  8  2  0  0  0  0
  6 10  1  0  0  0  0
  7  9  1  0  0  0  0
  8  7  1  0  0  0  0
 10  9  1  0  0  0  0
 10 12  1  1  0  0  0
 11 12  2  0  0  0  0
 12 13  1  0  0  0  0
 14  2  1  0  0  0  0
 15 14  1  0  0  0  0
 16 15  1  0  0  0  0
 17 16  1  0  0  0  0
 18 17  1  0  0  0  0
 19 20  2  0  0  0  0
 20 18  1  0  0  0  0
 22 21  1  0  0  0  0
 24 28  2  0  0  0  0
 25 26  2  0  0  0  0
 25 23  1  0  0  0  0
 27 26  1  0  0  0  0
 28 29  1  0  0  0  0
 28 27  1  0  0  0  0
 29 22  1  6  0  0  0
 29 25  1  0  0  0  0
 30 27  1  0  0  0  0
 31 33  1  0  0  0  0
 32 37  1  6  0  0  0
 32 31  1  0  0  0  0
 34 30  1  6  0  0  0
 34 33  1  0  0  0  0
 35 34  1  0  0  0  0
 36 32  1  0  0  0  0
 36 35  1  0  0  0  0
 38 37  1  0  0  0  0
M  END
>  <MODEL>
4

>  <REMARK>
 VINA RESULT:      -6.2      3.476     10.020
  Name = 
  15 active torsions:
  status: ('A' for Active; 'I' for Inactive)
    1  A    between atoms: N_1  and  C_22
    2  A    between atoms: N_1  and  C_28
    3  A    between atoms: C_3  and  C_4
    4  A    between atoms: C_3  and  C_19
    5  A    between atoms: S_7  and  C_19
    6  A    between atoms: S_7  and  C_22
    7  A    between atoms: C_9  and  C_30
    8  A    between atoms: C_11  and  O_18
    9  A    between atoms: C_14  and  C_31
   10  A    between atoms: N_20  and  C_29
   11  A    between atoms: C_23  and  C_29
   12  A    between atoms: C_28  and  C_36
   13  A    between atoms: C_32  and  C_37
   14  A    between atoms: C_33  and  N_35
   15  A    between atoms: N_35  and  C_36
                            x       y       z     vdW  Elec       q    Type
                         _______ _______ _______ _____ _____    ______ ____

>  <TORSDO>
F 15

$$$$
=
 OpenBabel11042422463D

 38 40  0  0  1  0  0  0  0  0999 V2000
  162.5630  211.8090  147.9870 C   0  0  0  0  0  3  0  0  0  0  0  0
  161.6480  212.7810  147.9610 C   0  0  0  0  0  0  0  0  0  0  0  0
  162.0890  209.4170  149.0220 C   0  0  0  0  0  0  0  0  0  0  0  0
  162.3140  210.5070  148.5550 C   0  0  0  0  0  0  0  0  0  0  0  0
  161.8060  208.1220  149.5720 C   0  0  0  0  0  0  0  0  0  0  0  0
  160.6490  207.3340  149.0090 C   0  0  0  0  0  2  0  0  0  0  0  0
  162.2550  206.4030  151.3180 C   0  0  0  0  0  2  0  0  0  0  0  0
  162.4790  207.7310  150.6590 C   0  0  0  0  0  3  0  0  0  0  0  0
  160.8310  205.9090  151.0930 C   0  0  0  0  0  2  0  0  0  0  0  0
  160.4910  205.9270  149.6020 C   0  0  2  0  0  3  0  0  0  0  0  0
  161.9460  205.2640  147.8310 O   0  0  0  0  0  0  0  0  0  0  0  0
  161.2730  204.9080  148.8330 C   0  0  0  0  0  0  0  0  0  0  0  0
  161.2380  203.5660  149.1930 O   0  0  0  0  0  1  0  0  0  0  0  0
  162.0100  214.0360  147.3760 N   0  0  0  0  0  2  0  0  0  0  0  0
  162.3300  214.2020  145.9660 C   0  0  0  0  0  2  0  0  0  0  0  0
  160.8090  214.2040  144.9680 S   0  0  0  0  0  0  0  0  0  0  0  0
  161.7260  214.0130  143.4140 C   0  0  0  0  0  2  0  0  0  0  0  0
  162.1840  212.5780  143.2470 C   0  0  0  0  0  2  0  0  0  0  0  0
  161.4060  211.7060  141.2080 O   0  0  0  0  0  0  0  0  0  0  0  0
  162.3240  212.2470  141.8010 C   0  0  0  0  0  3  0  0  0  0  0  0
  160.2690  212.5700  148.5130 C   0  0  0  0  0  2  0  0  0  0  0  0
  159.4100  213.6730  148.1170 N   0  0  0  0  0  2  0  0  0  0  0  0
  156.4480  213.3030  148.9980 N   0  0  0  0  0  1  0  0  0  0  0  0
  160.8490  214.4530  150.6960 O   0  0  0  0  0  0  0  0  0  0  0  0
  157.6510  213.3970  149.7510 C   0  0  0  0  0  0  0  0  0  0  0  0
  157.8100  212.7690  150.8730 N   0  0  0  0  0  0  0  0  0  0  0  0
  159.0820  213.0370  151.3750 N   0  0  0  0  0  0  0  0  0  0  0  0
  159.7190  213.9380  150.4890 C   0  0  0  0  0  0  0  0  0  0  0  0
  158.8340  214.2270  149.3290 C   0  0  1  0  0  3  0  0  0  0  0  0
  159.5140  212.6990  152.7210 C   0  0  0  0  0  2  0  0  0  0  0  0
  161.5770  210.4100  153.2590 C   0  0  0  0  0  2  0  0  0  0  0  0
  161.3420  210.2010  154.7600 C   0  0  2  0  0  3  0  0  0  0  0  0
  160.2600  210.2850  152.4960 C   0  0  0  0  0  2  0  0  0  0  0  0
  159.1930  211.2420  153.0390 C   0  0  1  0  0  3  0  0  0  0  0  0
  158.9830  211.0370  154.5410 C   0  0  0  0  0  2  0  0  0  0  0  0
  160.2900  211.1680  155.3200 C   0  0  0  0  0  2  0  0  0  0  0  0
  162.5380  210.1850  155.5110 O   0  0  0  0  0  0  0  0  0  0  0  0
  162.2230  210.0780  156.8770 C   0  0  0  0  0  1  0  0  0  0  0  0
  1  4  1  0  0  0  0
  2  1  2  0  0  0  0
  2 21  1  0  0  0  0
  3  5  1  0  0  0  0
  4  3  3  0  0  0  0
  5  8  2  0  0  0  0
  6  5  1  0  0  0  0
  6 10  1  0  0  0  0
  8  7  1  0  0  0  0
  9  7  1  0  0  0  0
 10 12  1  6  0  0  0
 10  9  1  0  0  0  0
 11 12  2  0  0  0  0
 12 13  1  0  0  0  0
 14  2  1  0  0  0  0
 15 14  1  0  0  0  0
 16 15  1  0  0  0  0
 17 16  1  0  0  0  0
 18 17  1  0  0  0  0
 19 20  2  0  0  0  0
 20 18  1  0  0  0  0
 22 21  1  0  0  0  0
 23 25  1  0  0  0  0
 25 26  2  0  0  0  0
 26 27  1  0  0  0  0
 27 30  1  0  0  0  0
 28 24  2  0  0  0  0
 28 27  1  0  0  0  0
 29 22  1  6  0  0  0
 29 25  1  0  0  0  0
 29 28  1  0  0  0  0
 31 32  1  0  0  0  0
 32 36  1  0  0  0  0
 32 37  1  1  0  0  0
 33 34  1  0  0  0  0
 33 31  1  0  0  0  0
 34 30  1  1  0  0  0
 34 35  1  0  0  0  0
 35 36  1  0  0  0  0
 37 38  1  0  0  0  0
M  END
>  <MODEL>
5

>  <REMARK>
 VINA RESULT:      -5.9      3.517      8.222
  Name = 
  15 active torsions:
  status: ('A' for Active; 'I' for Inactive)
    1  A    between atoms: N_1  and  C_22
    2  A    between atoms: N_1  and  C_28
    3  A    between atoms: C_3  and  C_4
    4  A    between atoms: C_3  and  C_19
    5  A    between atoms: S_7  and  C_19
    6  A    between atoms: S_7  and  C_22
    7  A    between atoms: C_9  and  C_30
    8  A    between atoms: C_11  and  O_18
    9  A    between atoms: C_14  and  C_31
   10  A    between atoms: N_20  and  C_29
   11  A    between atoms: C_23  and  C_29
   12  A    between atoms: C_28  and  C_36
   13  A    between atoms: C_32  and  C_37
   14  A    between atoms: C_33  and  N_35
   15  A    between atoms: N_35  and  C_36
                            x       y       z     vdW  Elec       q    Type
                         _______ _______ _______ _____ _____    ______ ____

>  <TORSDO>
F 15

$$$$
=
 OpenBabel11042422463D

 38 40  0  0  1  0  0  0  0  0999 V2000
  161.0260  213.0770  149.0230 C   0  0  0  0  0  2  0  0  0  0  0  0
  161.8450  212.2150  148.4140 C   0  0  0  0  0  0  0  0  0  0  0  0
  160.0430  212.6570  151.4460 C   0  0  0  0  0  0  0  0  0  0  0  0
  160.4930  212.8570  150.3440 C   0  0  0  0  0  0  0  0  0  0  0  0
  159.5030  212.4040  152.7510 C   0  0  0  0  0  0  0  0  0  0  0  0
  159.0450  213.5750  153.5840 C   0  0  0  0  0  2  0  0  0  0  0  0
  159.0430  210.7880  154.5910 C   0  0  0  0  0  2  0  0  0  0  0  0
  159.5690  211.1600  153.2360 C   0  0  0  0  0  3  0  0  0  0  0  0
  159.0910  211.9750  155.5460 C   0  0  0  0  0  2  0  0  0  0  0  0
  158.3990  213.1870  154.9220 C   0  0  2  0  0  3  0  0  0  0  0  0
  156.3800  213.0670  153.6560 O   0  0  0  0  0  0  0  0  0  0  0  0
  156.9210  212.9860  154.7890 C   0  0  0  0  0  0  0  0  0  0  0  0
  156.1330  212.7440  155.9080 O   0  0  0  0  0  1  0  0  0  0  0  0
  162.3090  212.5340  147.0990 N   0  0  0  0  0  0  0  0  0  0  0  0
  161.8050  213.6570  146.3210 C   0  0  0  0  0  2  0  0  0  0  0  0
  160.6660  213.0730  145.0290 S   0  0  0  0  0  0  0  0  0  0  0  0
  159.2310  213.8500  145.8230 C   0  0  0  0  0  2  0  0  0  0  0  0
  158.2280  212.7940  146.2440 C   0  0  0  0  0  2  0  0  0  0  0  0
  157.1540  212.5780  148.3230 O   0  0  0  0  0  0  0  0  0  0  0  0
  157.3910  213.2990  147.3680 C   0  0  0  0  0  3  0  0  0  0  0  0
  162.2860  210.9490  149.0880 C   0  0  0  0  0  2  0  0  0  0  0  0
  161.4680  209.8400  148.6270 N   0  0  0  0  0  2  0  0  0  0  0  0
  161.9550  208.9150  151.5600 N   0  0  0  0  0  1  0  0  0  0  0  0
  161.7770  207.2790  146.9910 O   0  0  0  0  0  0  0  0  0  0  0  0
  161.6920  208.1800  150.3700 C   0  0  0  0  0  0  0  0  0  0  0  0
  161.0340  207.0640  150.3830 N   0  0  0  0  0  0  0  0  0  0  0  0
  160.9210  206.5800  149.0810 N   0  0  0  0  0  0  0  0  0  0  0  0
  161.6090  207.4710  148.2240 C   0  0  0  0  0  0  0  0  0  0  0  0
  162.1520  208.6150  149.0040 C   0  0  1  0  0  3  0  0  0  0  0  0
  160.4600  205.2430  148.7470 C   0  0  0  0  0  2  0  0  0  0  0  0
  160.2930  202.1670  148.2020 C   0  0  0  0  0  2  0  0  0  0  0  0
  161.1000  202.0940  146.8990 C   0  0  2  0  0  3  0  0  0  0  0  0
  161.1130  202.8530  149.2930 C   0  0  0  0  0  2  0  0  0  0  0  0
  161.6020  204.2380  148.8530 C   0  0  1  0  0  3  0  0  0  0  0  0
  162.3870  204.1540  147.5420 C   0  0  0  0  0  2  0  0  0  0  0  0
  161.5770  203.4770  146.4370 C   0  0  0  0  0  2  0  0  0  0  0  0
  160.4450  201.3640  145.8820 O   0  0  0  0  0  0  0  0  0  0  0  0
  159.8940  202.2630  144.9520 C   0  0  0  0  0  1  0  0  0  0  0  0
  1  4  1  0  0  0  0
  2  1  1  0  0  0  0
  2 21  1  0  0  0  0
  3  5  1  0  0  0  0
  4  3  3  0  0  0  0
  5  8  2  0  0  0  0
  5  6  1  0  0  0  0
  6 10  1  0  0  0  0
  7  9  1  0  0  0  0
  8  7  1  0  0  0  0
 10 12  1  6  0  0  0
 10  9  1  0  0  0  0
 11 12  2  0  0  0  0
 12 13  1  0  0  0  0
 14  2  2  0  0  0  0
 15 14  1  0  0  0  0
 16 17  1  0  0  0  0
 16 15  1  0  0  0  0
 17 18  1  0  0  0  0
 18 20  1  0  0  0  0
 20 19  2  0  0  0  0
 22 21  1  0  0  0  0
 24 28  2  0  0  0  0
 25 26  2  0  0  0  0
 25 23  1  0  0  0  0
 27 26  1  0  0  0  0
 28 29  1  0  0  0  0
 28 27  1  0  0  0  0
 29 22  1  6  0  0  0
 29 25  1  0  0  0  0
 30 27  1  0  0  0  0
 31 33  1  0  0  0  0
 32 37  1  6  0  0  0
 32 31  1  0  0  0  0
 34 30  1  6  0  0  0
 34 33  1  0  0  0  0
 35 34  1  0  0  0  0
 36 32  1  0  0  0  0
 36 35  1  0  0  0  0
 38 37  1  0  0  0  0
M  END
>  <MODEL>
6

>  <REMARK>
 VINA RESULT:      -5.8      3.654      9.567
  Name = 
  15 active torsions:
  status: ('A' for Active; 'I' for Inactive)
    1  A    between atoms: N_1  and  C_22
    2  A    between atoms: N_1  and  C_28
    3  A    between atoms: C_3  and  C_4
    4  A    between atoms: C_3  and  C_19
    5  A    between atoms: S_7  and  C_19
    6  A    between atoms: S_7  and  C_22
    7  A    between atoms: C_9  and  C_30
    8  A    between atoms: C_11  and  O_18
    9  A    between atoms: C_14  and  C_31
   10  A    between atoms: N_20  and  C_29
   11  A    between atoms: C_23  and  C_29
   12  A    between atoms: C_28  and  C_36
   13  A    between atoms: C_32  and  C_37
   14  A    between atoms: C_33  and  N_35
   15  A    between atoms: N_35  and  C_36
                            x       y       z     vdW  Elec       q    Type
                         _______ _______ _______ _____ _____    ______ ____

>  <TORSDO>
F 15

$$$$
=
 OpenBabel11042422463D

 38 40  0  0  1  0  0  0  0  0999 V2000
  161.1040  207.8500  154.5130 C   0  0  0  0  0  3  0  0  0  0  0  0
  161.2500  207.4650  153.2420 C   0  0  0  0  0  0  0  0  0  0  0  0
  159.9080  210.1090  155.2070 C   0  0  0  0  0  0  0  0  0  0  0  0
  160.4610  209.0830  154.8930 C   0  0  0  0  0  0  0  0  0  0  0  0
  159.2350  211.3220  155.5730 C   0  0  0  0  0  0  0  0  0  0  0  0
  158.0070  211.7310  154.7980 C   0  0  0  0  0  2  0  0  0  0  0  0
  159.1960  213.4110  156.9300 C   0  0  0  0  0  2  0  0  0  0  0  0
  159.8080  212.1180  156.4820 C   0  0  0  0  0  3  0  0  0  0  0  0
  158.3270  214.0180  155.8350 C   0  0  0  0  0  2  0  0  0  0  0  0
  157.3120  212.9920  155.3310 C   0  0  2  0  0  3  0  0  0  0  0  0
  155.8570  211.4850  156.4730 O   0  0  0  0  0  0  0  0  0  0  0  0
  156.2810  212.6640  156.3660 C   0  0  0  0  0  0  0  0  0  0  0  0
  155.7610  213.6560  157.1900 O   0  0  0  0  0  1  0  0  0  0  0  0
  161.9100  206.2220  152.9830 N   0  0  0  0  0  2  0  0  0  0  0  0
  161.2070  204.9560  152.8330 C   0  0  0  0  0  2  0  0  0  0  0  0
  161.9720  203.9600  151.5170 S   0  0  0  0  0  0  0  0  0  0  0  0
  160.4970  202.9180  151.3310 C   0  0  0  0  0  2  0  0  0  0  0  0
  160.8280  201.6780  150.5230 C   0  0  0  0  0  2  0  0  0  0  0  0
  161.1490  201.9120  148.2070 O   0  0  0  0  0  0  0  0  0  0  0  0
  160.3460  201.8330  149.1220 C   0  0  0  0  0  3  0  0  0  0  0  0
  160.7280  208.2980  152.1090 C   0  0  0  0  0  2  0  0  0  0  0  0
  161.7800  208.5030  151.1280 N   0  0  0  0  0  2  0  0  0  0  0  0
  162.7090  210.0440  148.5870 N   0  0  0  0  0  1  0  0  0  0  0  0
  160.2090  206.1330  150.0140 O   0  0  0  0  0  0  0  0  0  0  0  0
  162.1830  208.7330  148.7560 C   0  0  0  0  0  0  0  0  0  0  0  0
  162.5350  207.7480  147.9920 N   0  0  0  0  0  0  0  0  0  0  0  0
  161.8710  206.5910  148.3960 N   0  0  0  0  0  0  0  0  0  0  0  0
  161.0180  206.9310  149.4730 C   0  0  0  0  0  0  0  0  0  0  0  0
  161.1750  208.3700  149.8140 C   0  0  1  0  0  3  0  0  0  0  0  0
  161.8390  205.3580  147.6250 C   0  0  0  0  0  2  0  0  0  0  0  0
  161.6140  203.3250  145.2580 C   0  0  0  0  0  2  0  0  0  0  0  0
  160.3980  203.9140  144.5310 C   0  0  2  0  0  3  0  0  0  0  0  0
  162.6890  204.3950  145.4380 C   0  0  0  0  0  2  0  0  0  0  0  0
  162.1460  205.6350  146.1570 C   0  0  1  0  0  3  0  0  0  0  0  0
  160.9210  206.1990  145.4330 C   0  0  0  0  0  2  0  0  0  0  0  0
  159.8320  205.1440  145.2530 C   0  0  0  0  0  2  0  0  0  0  0  0
  159.4140  202.9460  144.2270 O   0  0  0  0  0  0  0  0  0  0  0  0
  159.7400  201.7390  144.8690 C   0  0  0  0  0  1  0  0  0  0  0  0
  1  4  1  0  0  0  0
  2  1  2  0  0  0  0
  3  5  1  0  0  0  0
  4  3  3  0  0  0  0
  5  8  2  0  0  0  0
  6 10  1  0  0  0  0
  6  5  1  0  0  0  0
  8  7  1  0  0  0  0
  9  7  1  0  0  0  0
 10  9  1  0  0  0  0
 10 12  1  1  0  0  0
 12 11  2  0  0  0  0
 12 13  1  0  0  0  0
 14  2  1  0  0  0  0
 15 14  1  0  0  0  0
 16 15  1  0  0  0  0
 17 16  1  0  0  0  0
 18 17  1  0  0  0  0
 19 20  2  0  0  0  0
 20 18  1  0  0  0  0
 21  2  1  0  0  0  0
 22 21  1  0  0  0  0
 23 25  1  0  0  0  0
 25 29  1  0  0  0  0
 26 27  1  0  0  0  0
 26 25  2  0  0  0  0
 27 28  1  0  0  0  0
 28 29  1  0  0  0  0
 28 24  2  0  0  0  0
 29 22  1  1  0  0  0
 30 27  1  0  0  0  0
 31 33  1  0  0  0  0
 32 37  1  1  0  0  0
 32 36  1  0  0  0  0
 32 31  1  0  0  0  0
 33 34  1  0  0  0  0
 34 30  1  1  0  0  0
 35 34  1  0  0  0  0
 36 35  1  0  0  0  0
 37 38  1  0  0  0  0
M  END
>  <MODEL>
7

>  <REMARK>
 VINA RESULT:      -5.8      3.426      8.983
  Name = 
  15 active torsions:
  status: ('A' for Active; 'I' for Inactive)
    1  A    between atoms: N_1  and  C_22
    2  A    between atoms: N_1  and  C_28
    3  A    between atoms: C_3  and  C_4
    4  A    between atoms: C_3  and  C_19
    5  A    between atoms: S_7  and  C_19
    6  A    between atoms: S_7  and  C_22
    7  A    between atoms: C_9  and  C_30
    8  A    between atoms: C_11  and  O_18
    9  A    between atoms: C_14  and  C_31
   10  A    between atoms: N_20  and  C_29
   11  A    between atoms: C_23  and  C_29
   12  A    between atoms: C_28  and  C_36
   13  A    between atoms: C_32  and  C_37
   14  A    between atoms: C_33  and  N_35
   15  A    between atoms: N_35  and  C_36
                            x       y       z     vdW  Elec       q    Type
                         _______ _______ _______ _____ _____    ______ ____

>  <TORSDO>
F 15

$$$$
=
 OpenBabel11042422463D

 38 40  0  0  1  0  0  0  0  0999 V2000
  161.1750  207.2850  153.8030 C   0  0  0  0  0  3  0  0  0  0  0  0
  161.4470  208.5060  153.3360 C   0  0  0  0  0  0  0  0  0  0  0  0
  161.1060  205.1390  152.2520 C   0  0  0  0  0  0  0  0  0  0  0  0
  161.1410  206.1110  152.9660 C   0  0  0  0  0  0  0  0  0  0  0  0
  161.0550  203.9910  151.3920 C   0  0  0  0  0  0  0  0  0  0  0  0
  160.1040  204.0060  150.2210 C   0  0  0  0  0  2  0  0  0  0  0  0
  161.7460  201.6430  150.9290 C   0  0  0  0  0  2  0  0  0  0  0  0
  161.7380  202.8980  151.7490 C   0  0  0  0  0  3  0  0  0  0  0  0
  160.4600  201.5010  150.1240 C   0  0  0  0  0  2  0  0  0  0  0  0
  160.1960  202.7710  149.3140 C   0  0  2  0  0  3  0  0  0  0  0  0
  161.3840  202.0430  147.3770 O   0  0  0  0  0  0  0  0  0  0  0  0
  161.2000  202.9590  148.2190 C   0  0  0  0  0  0  0  0  0  0  0  0
  161.9570  204.1230  148.1410 O   0  0  0  0  0  1  0  0  0  0  0  0
  161.4470  209.5990  154.2590 N   0  0  0  0  0  2  0  0  0  0  0  0
  161.5400  209.4320  155.7020 C   0  0  0  0  0  2  0  0  0  0  0  0
  161.4290  211.0450  156.5350 S   0  0  0  0  0  0  0  0  0  0  0  0
  160.5070  211.7880  155.1600 C   0  0  0  0  0  2  0  0  0  0  0  0
  159.1050  212.1550  155.6050 C   0  0  0  0  0  2  0  0  0  0  0  0
  157.2820  211.7340  154.1830 O   0  0  0  0  0  0  0  0  0  0  0  0
  158.1070  211.2650  154.9500 C   0  0  0  0  0  3  0  0  0  0  0  0
  161.7600  208.7360  151.8870 C   0  0  0  0  0  2  0  0  0  0  0  0
  161.9900  210.1520  151.6560 N   0  0  0  0  0  2  0  0  0  0  0  0
  159.9700  212.5170  151.7830 N   0  0  0  0  0  1  0  0  0  0  0  0
  162.3970  209.6980  148.6630 O   0  0  0  0  0  0  0  0  0  0  0  0
  160.7620  212.0110  150.7160 C   0  0  0  0  0  0  0  0  0  0  0  0
  161.2310  212.7780  149.7840 N   0  0  0  0  0  0  0  0  0  0  0  0
  161.9740  212.0130  148.8870 N   0  0  0  0  0  0  0  0  0  0  0  0
  161.9060  210.6630  149.3050 C   0  0  0  0  0  0  0  0  0  0  0  0
  161.1220  210.5560  150.5640 C   0  0  1  0  0  3  0  0  0  0  0  0
  162.4410  212.4950  147.5970 C   0  0  0  0  0  2  0  0  0  0  0  0
  162.2320  213.4540  144.6270 C   0  0  0  0  0  2  0  0  0  0  0  0
  160.8610  212.8690  144.2660 C   0  0  2  0  0  3  0  0  0  0  0  0
  162.1210  214.3290  145.8740 C   0  0  0  0  0  2  0  0  0  0  0  0
  161.5040  213.5670  147.0520 C   0  0  1  0  0  3  0  0  0  0  0  0
  160.1460  212.9720  146.6720 C   0  0  0  0  0  2  0  0  0  0  0  0
  160.2410  212.0870  145.4310 C   0  0  0  0  0  2  0  0  0  0  0  0
  160.8690  212.1460  143.0520 O   0  0  0  0  0  0  0  0  0  0  0  0
  162.1130  212.3200  142.4210 C   0  0  0  0  0  1  0  0  0  0  0  0
  2  1  2  0  0  0  0
  2 14  1  0  0  0  0
  3  4  3  0  0  0  0
  4  1  1  0  0  0  0
  5  8  2  0  0  0  0
  5  3  1  0  0  0  0
  6  5  1  0  0  0  0
  7  8  1  0  0  0  0
  9  7  1  0  0  0  0
 10 12  1  6  0  0  0
 10  9  1  0  0  0  0
 10  6  1  0  0  0  0
 11 12  2  0  0  0  0
 13 12  1  0  0  0  0
 14 15  1  0  0  0  0
 15 16  1  0  0  0  0
 17 18  1  0  0  0  0
 17 16  1  0  0  0  0
 19 20  2  0  0  0  0
 20 18  1  0  0  0  0
 21  2  1  0  0  0  0
 22 21  1  0  0  0  0
 24 28  2  0  0  0  0
 25 23  1  0  0  0  0
 26 25  2  0  0  0  0
 27 28  1  0  0  0  0
 27 26  1  0  0  0  0
 28 29  1  0  0  0  0
 29 25  1  0  0  0  0
 29 22  1  1  0  0  0
 30 27  1  0  0  0  0
 31 33  1  0  0  0  0
 32 37  1  6  0  0  0
 32 31  1  0  0  0  0
 32 36  1  0  0  0  0
 33 34  1  0  0  0  0
 34 30  1  6  0  0  0
 35 34  1  0  0  0  0
 36 35  1  0  0  0  0
 38 37  1  0  0  0  0
M  END
>  <MODEL>
8

>  <REMARK>
 VINA RESULT:      -5.8      2.310      3.244
  Name = 
  15 active torsions:
  status: ('A' for Active; 'I' for Inactive)
    1  A    between atoms: N_1  and  C_22
    2  A    between atoms: N_1  and  C_28
    3  A    between atoms: C_3  and  C_4
    4  A    between atoms: C_3  and  C_19
    5  A    between atoms: S_7  and  C_19
    6  A    between atoms: S_7  and  C_22
    7  A    between atoms: C_9  and  C_30
    8  A    between atoms: C_11  and  O_18
    9  A    between atoms: C_14  and  C_31
   10  A    between atoms: N_20  and  C_29
   11  A    between atoms: C_23  and  C_29
   12  A    between atoms: C_28  and  C_36
   13  A    between atoms: C_32  and  C_37
   14  A    between atoms: C_33  and  N_35
   15  A    between atoms: N_35  and  C_36
                            x       y       z     vdW  Elec       q    Type
                         _______ _______ _______ _____ _____    ______ ____

>  <TORSDO>
F 15

$$$$
=
 OpenBabel11042422463D

 38 40  0  0  1  0  0  0  0  0999 V2000
  161.4290  208.1370  150.8300 C   0  0  0  0  0  3  0  0  0  0  0  0
  161.8860  208.7280  149.7220 C   0  0  0  0  0  0  0  0  0  0  0  0
  160.6190  209.4950  152.9550 C   0  0  0  0  0  0  0  0  0  0  0  0
  160.9940  208.8710  151.9920 C   0  0  0  0  0  0  0  0  0  0  0  0
  160.1650  210.2470  154.0890 C   0  0  0  0  0  0  0  0  0  0  0  0
  159.4930  211.5770  153.8540 C   0  0  0  0  0  2  0  0  0  0  0  0
  160.0740  210.5270  156.5630 C   0  0  0  0  0  2  0  0  0  0  0  0
  160.4890  209.8130  155.3120 C   0  0  0  0  0  3  0  0  0  0  0  0
  159.8970  212.0200  156.3140 C   0  0  0  0  0  2  0  0  0  0  0  0
  158.9630  212.2540  155.1250 C   0  0  2  0  0  3  0  0  0  0  0  0
  156.9350  211.1010  154.6240 O   0  0  0  0  0  0  0  0  0  0  0  0
  157.5540  211.8450  155.4270 C   0  0  0  0  0  0  0  0  0  0  0  0
  156.9100  212.3070  156.5690 O   0  0  0  0  0  1  0  0  0  0  0  0
  162.2950  207.8980  148.6320 N   0  0  0  0  0  2  0  0  0  0  0  0
  161.3890  207.0170  147.9080 C   0  0  0  0  0  2  0  0  0  0  0  0
  162.3280  205.7520  146.9990 S   0  0  0  0  0  0  0  0  0  0  0  0
  161.6050  204.3970  147.9650 C   0  0  0  0  0  2  0  0  0  0  0  0
  161.2720  203.2260  147.0610 C   0  0  0  0  0  2  0  0  0  0  0  0
  160.6410  203.6460  144.8370 O   0  0  0  0  0  0  0  0  0  0  0  0
  161.5560  203.5760  145.6410 C   0  0  0  0  0  3  0  0  0  0  0  0
  161.9580  210.2220  149.6080 C   0  0  0  0  0  2  0  0  0  0  0  0
  161.5790  210.6280  148.2650 N   0  0  0  0  0  2  0  0  0  0  0  0
  164.1060  212.4080  147.8910 N   0  0  0  0  0  1  0  0  0  0  0  0
  159.2630  212.4820  147.5360 O   0  0  0  0  0  0  0  0  0  0  0  0
  162.7590  212.5790  147.4640 C   0  0  0  0  0  0  0  0  0  0  0  0
  162.4610  213.1940  146.3640 N   0  0  0  0  0  0  0  0  0  0  0  0
  161.0770  213.2000  146.2000 N   0  0  0  0  0  0  0  0  0  0  0  0
  160.5020  212.5650  147.3270 C   0  0  0  0  0  0  0  0  0  0  0  0
  161.5700  212.0800  148.2410 C   0  0  1  0  0  3  0  0  0  0  0  0
  160.3770  214.0030  145.2100 C   0  0  0  0  0  2  0  0  0  0  0  0
  159.9220  214.4250  142.1440 C   0  0  0  0  0  2  0  0  0  0  0  0
  160.7530  213.2570  141.6000 C   0  0  2  0  0  3  0  0  0  0  0  0
  158.8940  213.9160  143.1540 C   0  0  0  0  0  2  0  0  0  0  0  0
  159.5530  213.1160  144.2840 C   0  0  1  0  0  3  0  0  0  0  0  0
  160.3950  211.9660  143.7250 C   0  0  0  0  0  2  0  0  0  0  0  0
  161.4340  212.4600  142.7200 C   0  0  0  0  0  2  0  0  0  0  0  0
  161.6420  213.6420  140.5720 O   0  0  0  0  0  0  0  0  0  0  0  0
  161.3660  212.8890  139.4170 C   0  0  0  0  0  1  0  0  0  0  0  0
  1  4  1  0  0  0  0
  2  1  2  0  0  0  0
  3  5  1  0  0  0  0
  4  3  3  0  0  0  0
  5  8  2  0  0  0  0
  6  5  1  0  0  0  0
  6 10  1  0  0  0  0
  8  7  1  0  0  0  0
  9  7  1  0  0  0  0
 10 12  1  1  0  0  0
 10  9  1  0  0  0  0
 11 12  2  0  0  0  0
 12 13  1  0  0  0  0
 14  2  1  0  0  0  0
 15 14  1  0  0  0  0
 16 15  1  0  0  0  0
 16 17  1  0  0  0  0
 18 17  1  0  0  0  0
 19 20  2  0  0  0  0
 20 18  1  0  0  0  0
 21  2  1  0  0  0  0
 22 21  1  0  0  0  0
 25 23  1  0  0  0  0
 25 29  1  0  0  0  0
 26 25  2  0  0  0  0
 27 26  1  0  0  0  0
 27 28  1  0  0  0  0
 28 24  2  0  0  0  0
 28 29  1  0  0  0  0
 29 22  1  6  0  0  0
 30 27  1  0  0  0  0
 31 33  1  0  0  0  0
 32 37  1  6  0  0  0
 32 31  1  0  0  0  0
 32 36  1  0  0  0  0
 33 34  1  0  0  0  0
 34 30  1  6  0  0  0
 35 34  1  0  0  0  0
 36 35  1  0  0  0  0
 38 37  1  0  0  0  0
M  END
>  <MODEL>
9

>  <REMARK>
 VINA RESULT:      -5.7      3.214      8.202
  Name = 
  15 active torsions:
  status: ('A' for Active; 'I' for Inactive)
    1  A    between atoms: N_1  and  C_22
    2  A    between atoms: N_1  and  C_28
    3  A    between atoms: C_3  and  C_4
    4  A    between atoms: C_3  and  C_19
    5  A    between atoms: S_7  and  C_19
    6  A    between atoms: S_7  and  C_22
    7  A    between atoms: C_9  and  C_30
    8  A    between atoms: C_11  and  O_18
    9  A    between atoms: C_14  and  C_31
   10  A    between atoms: N_20  and  C_29
   11  A    between atoms: C_23  and  C_29
   12  A    between atoms: C_28  and  C_36
   13  A    between atoms: C_32  and  C_37
   14  A    between atoms: C_33  and  N_35
   15  A    between atoms: N_35  and  C_36
                            x       y       z     vdW  Elec       q    Type
                         _______ _______ _______ _____ _____    ______ ____

>  <TORSDO>
F 15

$$$$
