=
 OpenBabel11052411433D

 42 46  0  0  1  0  0  0  0  0999 V2000
  161.6040  209.0110  152.9500 C   0  0  0  0  0  0  0  0  0  0  0  0
  159.5450  209.7900  156.1200 C   0  0  0  0  0  3  0  0  0  0  0  0
  160.0940  212.1520  152.7910 N   0  0  0  0  0  0  0  0  0  0  0  0
  160.8310  210.6780  154.3120 C   0  0  0  0  0  0  0  0  0  0  0  0
  160.0290  211.7580  154.1680 C   0  0  0  0  0  0  0  0  0  0  0  0
  158.9730  211.9580  155.0720 C   0  0  0  0  0  0  0  0  0  0  0  0
  160.8610  211.3340  152.1660 N   0  0  0  0  0  0  0  0  0  0  0  0
  161.3560  210.3760  153.1050 C   0  0  0  0  0  0  0  0  0  0  0  0
  160.5740  209.6530  155.1800 C   0  0  0  0  0  0  0  0  0  0  0  0
  161.1130  208.2470  154.4070 S   0  0  0  0  0  0  0  0  0  0  0  0
  158.7710  210.9810  156.0900 C   0  0  0  0  0  3  0  0  0  0  0  0
  161.9440  208.3370  151.7260 N   0  0  0  0  0  0  0  0  0  0  0  0
  162.0510  209.0430  150.5180 C   0  0  0  0  0  0  0  0  0  0  0  0
  162.1390  209.6270  149.5230 N   0  0  0  0  0  0  0  0  0  0  0  0
  162.1400  206.8940  151.6910 C   0  0  0  0  0  2  0  0  0  0  0  0
  160.8250  206.1620  151.9220 C   0  0  0  0  0  2  0  0  0  0  0  0
  161.0830  204.7230  152.3310 C   0  0  0  0  0  2  0  0  0  0  0  0
  161.0880  202.0790  149.9230 C   0  0  0  0  0  0  0  0  0  0  0  0
  161.1400  203.1610  149.0560 C   0  0  0  0  0  0  0  0  0  0  0  0
  161.0730  203.8450  151.1280 C   0  0  0  0  0  0  0  0  0  0  0  0
  161.0540  202.5000  151.1990 N   0  0  0  0  0  2  0  0  0  0  0  0
  161.0650  200.6350  149.5580 C   0  0  0  0  0  1  0  0  0  0  0  0
  161.1300  204.3090  149.8260 C   0  0  0  0  0  3  0  0  0  0  0  0
  161.1850  203.1350  147.6170 N   0  0  0  0  0  0  0  0  0  0  0  0
  161.8170  205.4700  144.7230 C   0  0  0  0  0  1  0  0  0  0  0  0
  161.1150  204.3910  145.5220 C   0  0  1  0  0  3  0  0  0  0  0  0
  161.2010  203.1650  144.8390 O   0  0  0  0  0  0  0  0  0  0  0  0
  160.8890  201.9140  146.8660 C   0  0  0  0  0  2  0  0  0  0  0  0
  160.3230  202.2830  145.4950 C   0  0  0  0  0  2  0  0  0  0  0  0
  161.7710  204.2670  146.8960 C   0  0  0  0  0  2  0  0  0  0  0  0
  158.0450  213.1220  154.8990 C   0  0  2  0  0  3  0  0  0  0  0  0
  155.8170  212.8310  154.0680 O   0  0  0  0  0  1  0  0  0  0  0  0
  157.1470  212.9670  153.6660 C   0  0  1  0  0  3  0  0  0  0  0  0
  157.2890  214.1330  152.6920 C   0  0  0  0  0  2  0  0  0  0  0  0
  156.6010  213.8380  151.4420 N   0  0  0  0  0  2  0  0  0  0  0  0
  157.2100  213.9940  150.1590 C   0  0  0  0  0  0  0  0  0  0  0  0
  156.4450  213.8780  149.0710 C   0  0  0  0  0  3  0  0  0  0  0  0
  158.6820  214.2490  150.0460 C   0  0  0  0  0  1  0  0  0  0  0  0
  156.9590  214.0150  147.6740 C   0  0  0  0  0  2  0  0  0  0  0  0
  157.3930  212.6630  147.1360 C   0  0  0  0  0  1  0  0  0  0  0  0
  159.4710  214.4500  156.0480 O   0  0  0  0  0  1  0  0  0  0  0  0
  158.7820  214.3800  154.8830 N   0  0  0  0  0  2  0  0  0  0  0  0
  1  8  2  0  0  0  0
  1 10  1  0  0  0  0
  3  5  1  0  0  0  0
  4  9  1  0  0  0  0
  5  4  2  0  0  0  0
  5  6  1  0  0  0  0
  6 11  2  0  0  0  0
  7  3  2  0  0  0  0
  7  8  1  0  0  0  0
  8  4  1  0  0  0  0
  9  2  2  0  0  0  0
 10  9  1  0  0  0  0
 11  2  1  0  0  0  0
 12  1  1  0  0  0  0
 13 12  1  0  0  0  0
 14 13  3  0  0  0  0
 15 12  1  0  0  0  0
 15 16  1  0  0  0  0
 16 17  1  0  0  0  0
 18 21  1  0  0  0  0
 19 23  1  0  0  0  0
 19 18  2  0  0  0  0
 20 21  1  0  0  0  0
 20 17  1  0  0  0  0
 22 18  1  0  0  0  0
 23 20  2  0  0  0  0
 24 19  1  0  0  0  0
 26 25  1  6  0  0  0
 26 30  1  0  0  0  0
 27 29  1  0  0  0  0
 27 26  1  0  0  0  0
 28 24  1  0  0  0  0
 29 28  1  0  0  0  0
 30 24  1  0  0  0  0
 31 42  1  6  0  0  0
 31  6  1  0  0  0  0
 33 32  1  1  0  0  0
 33 31  1  0  0  0  0
 34 33  1  0  0  0  0
 35 34  1  0  0  0  0
 36 35  1  0  0  0  0
 37 36  2  0  0  0  0
 38 36  1  0  0  0  0
 39 37  1  0  0  0  0
 40 39  1  0  0  0  0
 42 41  1  0  0  0  0
M  END
>  <MODEL>
1

>  <REMARK>
 VINA RESULT:      -7.4      0.000      0.000
  Name = 
  14 active torsions:
  status: ('A' for Active; 'I' for Inactive)
    1  A    between atoms: N_1  and  C_10
    2  A    between atoms: N_3  and  C_4
    3  A    between atoms: N_3  and  C_6
    4  A    between atoms: N_3  and  C_9
    5  A    between atoms: C_9  and  C_29
    6  A    between atoms: C_13  and  C_32
    7  A    between atoms: C_19  and  C_23
    8  A    between atoms: C_19  and  N_33
    9  A    between atoms: C_20  and  C_36
   10  A    between atoms: C_22  and  C_31
   11  A    between atoms: C_23  and  C_31
   12  A    between atoms: C_29  and  C_32
   13  A    between atoms: C_30  and  N_33
   14  A    between atoms: C_31  and  N_39
                            x       y       z     vdW  Elec       q    Type
                         _______ _______ _______ _____ _____    ______ ____

>  <TORSDO>
F 14

$$$$
=
 OpenBabel11052411433D

 42 46  0  0  1  0  0  0  0  0999 V2000
  161.2240  207.9700  153.1250 C   0  0  0  0  0  0  0  0  0  0  0  0
  159.8020  209.2580  156.4740 C   0  0  0  0  0  3  0  0  0  0  0  0
  160.2520  211.3140  152.9340 N   0  0  0  0  0  0  0  0  0  0  0  0
  160.9440  209.8130  154.4500 C   0  0  0  0  0  0  0  0  0  0  0  0
  160.3220  211.0090  154.3330 C   0  0  0  0  0  0  0  0  0  0  0  0
  159.4560  211.4370  155.3520 C   0  0  0  0  0  0  0  0  0  0  0  0
  160.7730  210.3440  152.2750 N   0  0  0  0  0  0  0  0  0  0  0  0
  161.2330  209.3630  153.2090 C   0  0  0  0  0  0  0  0  0  0  0  0
  160.6480  208.8950  155.4180 C   0  0  0  0  0  0  0  0  0  0  0  0
  160.8280  207.3780  154.6870 S   0  0  0  0  0  0  0  0  0  0  0  0
  159.2420  210.5630  156.4580 C   0  0  0  0  0  3  0  0  0  0  0  0
  161.2670  207.1850  151.9210 N   0  0  0  0  0  0  0  0  0  0  0  0
  161.4900  205.8010  151.9680 C   0  0  0  0  0  0  0  0  0  0  0  0
  161.6730  204.6590  152.0070 N   0  0  0  0  0  0  0  0  0  0  0  0
  161.1310  207.8100  150.6110 C   0  0  0  0  0  2  0  0  0  0  0  0
  162.4380  207.7300  149.8340 C   0  0  0  0  0  2  0  0  0  0  0  0
  162.1900  207.9600  148.3530 C   0  0  0  0  0  2  0  0  0  0  0  0
  161.4230  205.2530  146.1470 C   0  0  0  0  0  0  0  0  0  0  0  0
  161.3970  204.5650  147.3500 C   0  0  2  0  0  3  0  0  0  0  0  0
  161.8840  206.6670  147.6840 C   0  0  0  0  0  0  0  0  0  0  0  0
  161.7160  206.5490  146.3520 N   0  0  0  0  0  0  0  0  0  0  0  0
  161.1770  204.6970  144.7870 C   0  0  0  0  0  1  0  0  0  0  0  0
  161.6940  205.4700  148.3530 C   0  0  0  0  0  3  0  0  0  0  0  0
  161.1260  203.1660  147.5600 N   0  0  2  0  0  0  0  0  0  0  0  0
  160.7100  200.7150  150.3970 C   0  0  0  0  0  1  0  0  0  0  0  0
  161.2090  201.2450  149.0680 C   0  0  1  0  0  3  0  0  0  0  0  0
  160.6910  200.4610  148.0210 O   0  0  0  0  0  0  0  0  0  0  0  0
  160.9620  202.2440  146.4340 C   0  0  0  0  0  2  0  0  0  0  0  0
  161.3890  200.8390  146.8600 C   0  0  0  0  0  2  0  0  0  0  0  0
  160.7630  202.6970  148.8990 C   0  0  0  0  0  2  0  0  0  0  0  0
  158.7190  212.7360  155.2180 C   0  0  2  0  0  3  0  0  0  0  0  0
  156.4310  212.6620  154.5140 O   0  0  0  0  0  1  0  0  0  0  0  0
  157.7410  212.7260  154.0370 C   0  0  1  0  0  3  0  0  0  0  0  0
  157.9150  213.9390  153.1270 C   0  0  0  0  0  2  0  0  0  0  0  0
  157.2510  213.7150  151.8500 N   0  0  0  0  0  2  0  0  0  0  0  0
  157.9420  213.7130  150.5990 C   0  0  0  0  0  0  0  0  0  0  0  0
  159.2420  214.0170  150.5880 C   0  0  0  0  0  3  0  0  0  0  0  0
  157.2080  213.4070  149.3290 C   0  0  0  0  0  1  0  0  0  0  0  0
  160.0780  214.0540  149.3490 C   0  0  0  0  0  2  0  0  0  0  0  0
  160.9150  212.7920  149.2410 C   0  0  0  0  0  1  0  0  0  0  0  0
  160.0180  214.1430  156.4210 O   0  0  0  0  0  1  0  0  0  0  0  0
  159.6470  213.8580  155.1490 N   0  0  0  0  0  2  0  0  0  0  0  0
  1  8  2  0  0  0  0
  1 10  1  0  0  0  0
  3  5  1  0  0  0  0
  4  9  1  0  0  0  0
  5  4  2  0  0  0  0
  5  6  1  0  0  0  0
  6 11  2  0  0  0  0
  7  3  2  0  0  0  0
  7  8  1  0  0  0  0
  8  4  1  0  0  0  0
  9  2  2  0  0  0  0
 10  9  1  0  0  0  0
 11  2  1  0  0  0  0
 12 13  1  0  0  0  0
 12  1  1  0  0  0  0
 13 14  3  0  0  0  0
 15 12  1  0  0  0  0
 16 15  1  0  0  0  0
 17 16  1  0  0  0  0
 18 21  2  0  0  0  0
 18 19  1  0  0  0  0
 19 24  1  0  0  0  0
 19 23  1  6  0  0  0
 20 17  1  0  0  0  0
 20 23  2  0  0  0  0
 21 20  1  0  0  0  0
 22 18  1  0  0  0  0
 24 28  1  6  0  0  0
 24 30  1  0  0  0  0
 26 25  1  1  0  0  0
 27 26  1  0  0  0  0
 28 29  1  0  0  0  0
 29 27  1  0  0  0  0
 30 26  1  0  0  0  0
 31 42  1  6  0  0  0
 31  6  1  0  0  0  0
 33 32  1  1  0  0  0
 33 31  1  0  0  0  0
 34 33  1  0  0  0  0
 35 34  1  0  0  0  0
 36 35  1  0  0  0  0
 37 36  2  0  0  0  0
 38 36  1  0  0  0  0
 39 37  1  0  0  0  0
 40 39  1  0  0  0  0
 42 41  1  0  0  0  0
M  END
>  <MODEL>
2

>  <REMARK>
 VINA RESULT:      -7.1      1.468      3.029
  Name = 
  14 active torsions:
  status: ('A' for Active; 'I' for Inactive)
    1  A    between atoms: N_1  and  C_10
    2  A    between atoms: N_3  and  C_4
    3  A    between atoms: N_3  and  C_6
    4  A    between atoms: N_3  and  C_9
    5  A    between atoms: C_9  and  C_29
    6  A    between atoms: C_13  and  C_32
    7  A    between atoms: C_19  and  C_23
    8  A    between atoms: C_19  and  N_33
    9  A    between atoms: C_20  and  C_36
   10  A    between atoms: C_22  and  C_31
   11  A    between atoms: C_23  and  C_31
   12  A    between atoms: C_29  and  C_32
   13  A    between atoms: C_30  and  N_33
   14  A    between atoms: C_31  and  N_39
                            x       y       z     vdW  Elec       q    Type
                         _______ _______ _______ _____ _____    ______ ____

>  <TORSDO>
F 14

$$$$
=
 OpenBabel11052411433D

 42 46  0  0  1  0  0  0  0  0999 V2000
  160.3500  210.2680  153.7390 C   0  0  0  0  0  0  0  0  0  0  0  0
  162.1790  208.9530  150.6050 C   0  0  0  0  0  3  0  0  0  0  0  0
  160.6380  206.7910  153.7550 N   0  0  0  0  0  0  0  0  0  0  0  0
  161.6730  208.5940  152.9130 C   0  0  0  0  0  0  0  0  0  0  0  0
  161.5650  207.2540  152.7630 C   0  0  0  0  0  0  0  0  0  0  0  0
  161.8540  206.6740  151.5180 C   0  0  0  0  0  0  0  0  0  0  0  0
  160.2090  207.8020  154.4200 N   0  0  0  0  0  0  0  0  0  0  0  0
  160.8510  208.9760  153.9150 C   0  0  0  0  0  0  0  0  0  0  0  0
  161.8710  209.4600  151.8740 C   0  0  0  0  0  0  0  0  0  0  0  0
  161.0020  210.8590  152.2660 S   0  0  0  0  0  0  0  0  0  0  0  0
  162.2160  207.5420  150.4450 C   0  0  0  0  0  3  0  0  0  0  0  0
  159.2910  210.8840  154.4920 N   0  0  0  0  0  0  0  0  0  0  0  0
  159.3180  210.9020  155.8950 C   0  0  0  0  0  0  0  0  0  0  0  0
  159.3400  210.9160  157.0520 N   0  0  0  0  0  0  0  0  0  0  0  0
  158.1330  211.4630  153.8250 C   0  0  0  0  0  2  0  0  0  0  0  0
  157.7640  212.8030  154.4450 C   0  0  0  0  0  2  0  0  0  0  0  0
  158.5820  213.9210  153.8210 C   0  0  0  0  0  2  0  0  0  0  0  0
  157.5740  213.8300  150.3910 C   0  0  0  0  0  0  0  0  0  0  0  0
  158.9420  213.6760  150.2190 C   0  0  0  0  0  0  0  0  0  0  0  0
  158.4570  213.8720  152.3380 C   0  0  0  0  0  0  0  0  0  0  0  0
  157.2740  213.9430  151.6960 N   0  0  0  0  0  2  0  0  0  0  0  0
  156.5330  213.8760  149.3260 C   0  0  0  0  0  1  0  0  0  0  0  0
  159.5230  213.7020  151.4730 C   0  0  0  0  0  3  0  0  0  0  0  0
  159.6620  213.5250  148.9810 N   0  0  0  0  0  0  0  0  0  0  0  0
  163.1350  212.6980  147.7630 C   0  0  0  0  0  1  0  0  0  0  0  0
  161.8220  213.4490  147.8400 C   0  0  1  0  0  3  0  0  0  0  0  0
  161.1220  213.3050  146.6270 O   0  0  0  0  0  0  0  0  0  0  0  0
  159.0150  213.7560  147.6880 C   0  0  0  0  0  2  0  0  0  0  0  0
  160.0570  214.2220  146.6720 C   0  0  0  0  0  2  0  0  0  0  0  0
  160.9840  212.8950  148.9910 C   0  0  0  0  0  2  0  0  0  0  0  0
  161.6930  205.1980  151.3180 C   0  0  2  0  0  3  0  0  0  0  0  0
  160.0360  206.0470  149.8110 O   0  0  0  0  0  1  0  0  0  0  0  0
  160.6430  204.8700  150.2490 C   0  0  1  0  0  3  0  0  0  0  0  0
  161.2350  204.1060  149.0680 C   0  0  0  0  0  2  0  0  0  0  0  0
  161.0520  202.6720  149.2470 N   0  0  0  0  0  2  0  0  0  0  0  0
  161.0530  201.7420  148.1610 C   0  0  0  0  0  0  0  0  0  0  0  0
  160.5550  202.1330  146.9860 C   0  0  0  0  0  3  0  0  0  0  0  0
  161.5740  200.3510  148.3570 C   0  0  0  0  0  1  0  0  0  0  0  0
  160.4950  201.2590  145.7750 C   0  0  0  0  0  2  0  0  0  0  0  0
  159.8490  202.0030  144.6190 C   0  0  0  0  0  1  0  0  0  0  0  0
  160.7140  203.4040  152.2880 O   0  0  0  0  0  1  0  0  0  0  0  0
  161.4120  204.5270  152.5830 N   0  0  0  0  0  2  0  0  0  0  0  0
  1  8  2  0  0  0  0
  1 12  1  0  0  0  0
  2  9  1  0  0  0  0
  3  7  2  0  0  0  0
  4  8  1  0  0  0  0
  5  4  1  0  0  0  0
  5  3  1  0  0  0  0
  6  5  2  0  0  0  0
  8  7  1  0  0  0  0
  9 10  1  0  0  0  0
  9  4  2  0  0  0  0
 10  1  1  0  0  0  0
 11  2  2  0  0  0  0
 11  6  1  0  0  0  0
 12 13  1  0  0  0  0
 13 14  3  0  0  0  0
 15 16  1  0  0  0  0
 15 12  1  0  0  0  0
 17 16  1  0  0  0  0
 18 21  1  0  0  0  0
 19 18  2  0  0  0  0
 19 23  1  0  0  0  0
 20 17  1  0  0  0  0
 21 20  1  0  0  0  0
 22 18  1  0  0  0  0
 23 20  2  0  0  0  0
 24 30  1  0  0  0  0
 24 19  1  0  0  0  0
 26 25  1  6  0  0  0
 26 30  1  0  0  0  0
 27 29  1  0  0  0  0
 27 26  1  0  0  0  0
 28 24  1  0  0  0  0
 29 28  1  0  0  0  0
 31  6  1  0  0  0  0
 31 42  1  1  0  0  0
 33 32  1  6  0  0  0
 33 31  1  0  0  0  0
 34 35  1  0  0  0  0
 34 33  1  0  0  0  0
 36 38  1  0  0  0  0
 36 35  1  0  0  0  0
 37 36  2  0  0  0  0
 39 37  1  0  0  0  0
 40 39  1  0  0  0  0
 41 42  1  0  0  0  0
M  END
>  <MODEL>
3

>  <REMARK>
 VINA RESULT:      -7.1      2.872      9.444
  Name = 
  14 active torsions:
  status: ('A' for Active; 'I' for Inactive)
    1  A    between atoms: N_1  and  C_10
    2  A    between atoms: N_3  and  C_4
    3  A    between atoms: N_3  and  C_6
    4  A    between atoms: N_3  and  C_9
    5  A    between atoms: C_9  and  C_29
    6  A    between atoms: C_13  and  C_32
    7  A    between atoms: C_19  and  C_23
    8  A    between atoms: C_19  and  N_33
    9  A    between atoms: C_20  and  C_36
   10  A    between atoms: C_22  and  C_31
   11  A    between atoms: C_23  and  C_31
   12  A    between atoms: C_29  and  C_32
   13  A    between atoms: C_30  and  N_33
   14  A    between atoms: C_31  and  N_39
                            x       y       z     vdW  Elec       q    Type
                         _______ _______ _______ _____ _____    ______ ____

>  <TORSDO>
F 14

$$$$
=
 OpenBabel11052411433D

 42 46  0  0  1  0  0  0  0  0999 V2000
  159.5540  212.9850  151.1150 C   0  0  0  0  0  0  0  0  0  0  0  0
  162.0060  211.3630  148.6150 C   0  0  0  0  0  3  0  0  0  0  0  0
  160.4440  209.7500  152.0680 N   0  0  0  0  0  0  0  0  0  0  0  0
  161.2530  211.4720  150.8800 C   0  0  0  0  0  0  0  0  0  0  0  0
  161.4050  210.1420  151.0780 C   0  0  0  0  0  0  0  0  0  0  0  0
  161.9620  209.3530  150.0600 C   0  0  0  0  0  0  0  0  0  0  0  0
  159.7550  210.7800  152.4030 N   0  0  0  0  0  0  0  0  0  0  0  0
  160.2440  211.9050  151.6680 C   0  0  0  0  0  0  0  0  0  0  0  0
  161.4390  212.0840  149.6730 C   0  0  0  0  0  0  0  0  0  0  0  0
  160.2920  213.3270  149.6030 S   0  0  0  0  0  0  0  0  0  0  0  0
  162.3120  209.9930  148.8350 C   0  0  0  0  0  3  0  0  0  0  0  0
  158.3080  213.5320  151.5800 N   0  0  0  0  0  0  0  0  0  0  0  0
  157.2400  213.7490  150.6980 C   0  0  0  0  0  0  0  0  0  0  0  0
  156.3590  213.9270  149.9690 N   0  0  0  0  0  0  0  0  0  0  0  0
  158.1330  213.9270  152.9720 C   0  0  0  0  0  2  0  0  0  0  0  0
  156.6570  214.0760  153.3120 C   0  0  0  0  0  2  0  0  0  0  0  0
  156.3420  213.3850  154.6280 C   0  0  0  0  0  2  0  0  0  0  0  0
  159.4240  213.0140  156.4020 C   0  0  0  0  0  0  0  0  0  0  0  0
  159.3140  211.7300  155.8890 C   0  0  0  0  0  0  0  0  0  0  0  0
  157.6040  212.9440  155.2820 C   0  0  0  0  0  0  0  0  0  0  0  0
  158.3760  213.7640  156.0220 N   0  0  0  0  0  2  0  0  0  0  0  0
  160.5190  213.5480  157.2600 C   0  0  0  0  0  1  0  0  0  0  0  0
  158.1390  211.6730  155.1630 C   0  0  0  0  0  3  0  0  0  0  0  0
  160.2260  210.6290  156.0660 N   0  0  0  0  0  0  0  0  0  0  0  0
  160.1620  206.9610  156.9460 C   0  0  0  0  0  1  0  0  0  0  0  0
  160.6270  208.4030  156.9910 C   0  0  1  0  0  3  0  0  0  0  0  0
  161.9440  208.4900  156.5040 O   0  0  0  0  0  0  0  0  0  0  0  0
  161.6720  210.8080  155.9330 C   0  0  0  0  0  2  0  0  0  0  0  0
  162.3960  209.7860  156.8110 C   0  0  0  0  0  2  0  0  0  0  0  0
  159.6990  209.2640  156.1350 C   0  0  0  0  0  2  0  0  0  0  0  0
  162.0930  207.8710  150.2410 C   0  0  2  0  0  3  0  0  0  0  0  0
  161.1620  206.9060  148.2560 O   0  0  0  0  0  1  0  0  0  0  0  0
  160.9200  207.1060  149.6160 C   0  0  1  0  0  3  0  0  0  0  0  0
  160.6580  205.7720  150.3100 C   0  0  0  0  0  2  0  0  0  0  0  0
  160.5600  204.6990  149.3290 N   0  0  0  0  0  2  0  0  0  0  0  0
  160.7850  203.3250  149.6500 C   0  0  0  0  0  0  0  0  0  0  0  0
  160.7120  202.4210  148.6710 C   0  0  0  0  0  3  0  0  0  0  0  0
  161.0630  202.9140  151.0640 C   0  0  0  0  0  1  0  0  0  0  0  0
  160.9220  200.9550  148.8740 C   0  0  0  0  0  2  0  0  0  0  0  0
  161.5770  200.3420  147.6480 C   0  0  0  0  0  1  0  0  0  0  0  0
  163.1470  206.4920  151.6920 O   0  0  0  0  0  1  0  0  0  0  0  0
  162.2780  207.5310  151.6470 N   0  0  0  0  0  2  0  0  0  0  0  0
  1 12  1  0  0  0  0
  1  8  2  0  0  0  0
  2 11  2  0  0  0  0
  2  9  1  0  0  0  0
  3  7  2  0  0  0  0
  4  5  1  0  0  0  0
  4  8  1  0  0  0  0
  5  3  1  0  0  0  0
  6 31  1  0  0  0  0
  6  5  2  0  0  0  0
  8  7  1  0  0  0  0
  9  4  2  0  0  0  0
 10  9  1  0  0  0  0
 10  1  1  0  0  0  0
 11  6  1  0  0  0  0
 12 15  1  0  0  0  0
 13 12  1  0  0  0  0
 14 13  3  0  0  0  0
 15 16  1  0  0  0  0
 16 17  1  0  0  0  0
 17 20  1  0  0  0  0
 18 22  1  0  0  0  0
 19 24  1  0  0  0  0
 19 18  2  0  0  0  0
 20 21  1  0  0  0  0
 21 18  1  0  0  0  0
 23 20  2  0  0  0  0
 23 19  1  0  0  0  0
 24 30  1  0  0  0  0
 26 25  1  6  0  0  0
 27 29  1  0  0  0  0
 27 26  1  0  0  0  0
 28 24  1  0  0  0  0
 28 29  1  0  0  0  0
 30 26  1  0  0  0  0
 31 42  1  1  0  0  0
 33 32  1  6  0  0  0
 33 31  1  0  0  0  0
 33 34  1  0  0  0  0
 35 36  1  0  0  0  0
 35 34  1  0  0  0  0
 36 38  1  0  0  0  0
 37 39  1  0  0  0  0
 37 36  2  0  0  0  0
 40 39  1  0  0  0  0
 42 41  1  0  0  0  0
M  END
>  <MODEL>
4

>  <REMARK>
 VINA RESULT:      -6.5      2.847      9.760
  Name = 
  14 active torsions:
  status: ('A' for Active; 'I' for Inactive)
    1  A    between atoms: N_1  and  C_10
    2  A    between atoms: N_3  and  C_4
    3  A    between atoms: N_3  and  C_6
    4  A    between atoms: N_3  and  C_9
    5  A    between atoms: C_9  and  C_29
    6  A    between atoms: C_13  and  C_32
    7  A    between atoms: C_19  and  C_23
    8  A    between atoms: C_19  and  N_33
    9  A    between atoms: C_20  and  C_36
   10  A    between atoms: C_22  and  C_31
   11  A    between atoms: C_23  and  C_31
   12  A    between atoms: C_29  and  C_32
   13  A    between atoms: C_30  and  N_33
   14  A    between atoms: C_31  and  N_39
                            x       y       z     vdW  Elec       q    Type
                         _______ _______ _______ _____ _____    ______ ____

>  <TORSDO>
F 14

$$$$
=
 OpenBabel11052411433D

 42 46  0  0  1  0  0  0  0  0999 V2000
  161.1700  207.4960  151.7180 C   0  0  0  0  0  0  0  0  0  0  0  0
  160.7040  211.1860  152.7480 C   0  0  0  0  0  3  0  0  0  0  0  0
  161.3560  207.9230  155.1750 N   0  0  0  0  0  0  0  0  0  0  0  0
  160.4400  208.8950  153.3730 C   0  0  0  0  0  0  0  0  0  0  0  0
  160.7680  209.1270  154.6650 C   0  0  0  0  0  0  0  0  0  0  0  0
  160.9990  210.4450  155.0920 C   0  0  0  0  0  0  0  0  0  0  0  0
  161.3960  207.0540  154.2310 N   0  0  0  0  0  0  0  0  0  0  0  0
  160.8150  207.6350  153.0610 C   0  0  0  0  0  0  0  0  0  0  0  0
  160.4940  209.8470  152.3950 C   0  0  0  0  0  0  0  0  0  0  0  0
  160.9850  209.0390  150.9900 S   0  0  0  0  0  0  0  0  0  0  0  0
  160.9110  211.4860  154.1210 C   0  0  0  0  0  3  0  0  0  0  0  0
  161.8200  206.3610  151.1190 N   0  0  0  0  0  0  0  0  0  0  0  0
  162.2980  206.4150  149.8000 C   0  0  0  0  0  0  0  0  0  0  0  0
  162.6910  206.4600  148.7130 N   0  0  0  0  0  0  0  0  0  0  0  0
  161.9580  205.1040  151.8430 C   0  0  0  0  0  2  0  0  0  0  0  0
  160.7170  204.2410  151.6720 C   0  0  0  0  0  2  0  0  0  0  0  0
  161.0990  202.7750  151.5710 C   0  0  0  0  0  2  0  0  0  0  0  0
  161.2990  201.1140  148.4100 C   0  0  0  0  0  0  0  0  0  0  0  0
  160.9950  202.3920  147.9640 C   0  0  0  0  0  0  0  0  0  0  0  0
  161.0950  202.3480  150.1450 C   0  0  0  0  0  0  0  0  0  0  0  0
  161.3680  201.0880  149.7520 N   0  0  0  0  0  2  0  0  0  0  0  0
  161.5240  199.9000  147.5760 C   0  0  0  0  0  1  0  0  0  0  0  0
  160.8600  203.1990  149.0780 C   0  0  0  0  0  3  0  0  0  0  0  0
  160.8310  202.8340  146.6040 N   0  0  0  0  0  0  0  0  0  0  0  0
  161.6080  205.8280  144.4440 C   0  0  0  0  0  1  0  0  0  0  0  0
  160.7800  204.7000  145.0260 C   0  0  1  0  0  3  0  0  0  0  0  0
  160.4650  203.7740  144.0140 O   0  0  0  0  0  0  0  0  0  0  0  0
  160.1420  202.0080  145.6110 C   0  0  0  0  0  2  0  0  0  0  0  0
  159.4980  202.9080  144.5560 C   0  0  0  0  0  2  0  0  0  0  0  0
  161.5710  204.0080  146.1350 C   0  0  0  0  0  2  0  0  0  0  0  0
  161.4110  210.7180  156.5060 C   0  0  2  0  0  3  0  0  0  0  0  0
  160.5460  212.9050  156.9570 O   0  0  0  0  0  1  0  0  0  0  0  0
  160.3710  211.5540  157.2600 C   0  0  1  0  0  3  0  0  0  0  0  0
  158.9410  211.1230  156.9500 C   0  0  0  0  0  2  0  0  0  0  0  0
  158.0380  212.2640  157.0250 N   0  0  0  0  0  2  0  0  0  0  0  0
  157.2260  212.6920  155.9290 C   0  0  0  0  0  0  0  0  0  0  0  0
  157.8260  213.0200  154.7820 C   0  0  0  0  0  3  0  0  0  0  0  0
  155.7400  212.7970  156.0840 C   0  0  0  0  0  1  0  0  0  0  0  0
  157.0940  213.4840  153.5640 C   0  0  0  0  0  2  0  0  0  0  0  0
  158.0750  213.8130  152.4530 C   0  0  0  0  0  1  0  0  0  0  0  0
  163.5340  210.4700  157.2470 O   0  0  0  0  0  1  0  0  0  0  0  0
  162.7380  211.3210  156.5560 N   0  0  0  0  0  2  0  0  0  0  0  0
  1  8  2  0  0  0  0
  2 11  1  0  0  0  0
  4  5  2  0  0  0  0
  5  6  1  0  0  0  0
  5  3  1  0  0  0  0
  6 31  1  0  0  0  0
  7  3  2  0  0  0  0
  8  4  1  0  0  0  0
  8  7  1  0  0  0  0
  9  2  2  0  0  0  0
  9  4  1  0  0  0  0
 10  1  1  0  0  0  0
 10  9  1  0  0  0  0
 11  6  2  0  0  0  0
 12  1  1  0  0  0  0
 12 15  1  0  0  0  0
 13 12  1  0  0  0  0
 14 13  3  0  0  0  0
 16 15  1  0  0  0  0
 17 16  1  0  0  0  0
 18 21  1  0  0  0  0
 19 18  2  0  0  0  0
 19 23  1  0  0  0  0
 20 17  1  0  0  0  0
 21 20  1  0  0  0  0
 22 18  1  0  0  0  0
 23 20  2  0  0  0  0
 24 19  1  0  0  0  0
 26 25  1  6  0  0  0
 26 30  1  0  0  0  0
 27 29  1  0  0  0  0
 27 26  1  0  0  0  0
 28 24  1  0  0  0  0
 29 28  1  0  0  0  0
 30 24  1  0  0  0  0
 31 42  1  6  0  0  0
 31 33  1  0  0  0  0
 33 32  1  6  0  0  0
 34 35  1  0  0  0  0
 34 33  1  0  0  0  0
 36 38  1  0  0  0  0
 36 35  1  0  0  0  0
 37 36  2  0  0  0  0
 39 37  1  0  0  0  0
 40 39  1  0  0  0  0
 42 41  1  0  0  0  0
M  END
>  <MODEL>
5

>  <REMARK>
 VINA RESULT:      -6.3      2.519      3.679
  Name = 
  14 active torsions:
  status: ('A' for Active; 'I' for Inactive)
    1  A    between atoms: N_1  and  C_10
    2  A    between atoms: N_3  and  C_4
    3  A    between atoms: N_3  and  C_6
    4  A    between atoms: N_3  and  C_9
    5  A    between atoms: C_9  and  C_29
    6  A    between atoms: C_13  and  C_32
    7  A    between atoms: C_19  and  C_23
    8  A    between atoms: C_19  and  N_33
    9  A    between atoms: C_20  and  C_36
   10  A    between atoms: C_22  and  C_31
   11  A    between atoms: C_23  and  C_31
   12  A    between atoms: C_29  and  C_32
   13  A    between atoms: C_30  and  N_33
   14  A    between atoms: C_31  and  N_39
                            x       y       z     vdW  Elec       q    Type
                         _______ _______ _______ _____ _____    ______ ____

>  <TORSDO>
F 14

$$$$
=
 OpenBabel11052411433D

 42 46  0  0  1  0  0  0  0  0999 V2000
  159.4310  211.6050  154.4420 C   0  0  0  0  0  0  0  0  0  0  0  0
  160.3290  207.9840  155.4280 C   0  0  0  0  0  3  0  0  0  0  0  0
  160.8340  209.8350  151.7840 N   0  0  0  0  0  0  0  0  0  0  0  0
  159.6790  209.4660  153.6700 C   0  0  0  0  0  0  0  0  0  0  0  0
  160.4580  208.8480  152.7530 C   0  0  0  0  0  0  0  0  0  0  0  0
  161.1580  207.6850  153.1140 C   0  0  0  0  0  0  0  0  0  0  0  0
  160.3330  210.9640  152.1310 N   0  0  0  0  0  0  0  0  0  0  0  0
  159.5820  210.7710  153.3320 C   0  0  0  0  0  0  0  0  0  0  0  0
  159.6650  209.1390  154.9970 C   0  0  0  0  0  0  0  0  0  0  0  0
  159.4400  210.5960  155.8300 S   0  0  0  0  0  0  0  0  0  0  0  0
  161.0420  207.2270  154.4600 C   0  0  0  0  0  3  0  0  0  0  0  0
  159.5230  213.0400  154.4500 N   0  0  0  0  0  0  0  0  0  0  0  0
  159.7100  213.7450  155.6490 C   0  0  0  0  0  0  0  0  0  0  0  0
  159.8650  214.3270  156.6370 N   0  0  0  0  0  0  0  0  0  0  0  0
  159.3750  213.8110  153.2230 C   0  0  0  0  0  2  0  0  0  0  0  0
  157.9960  214.4520  153.1480 C   0  0  0  0  0  2  0  0  0  0  0  0
  157.0440  213.5720  152.3560 C   0  0  0  0  0  2  0  0  0  0  0  0
  157.1170  213.8810  148.7950 C   0  0  0  0  0  0  0  0  0  0  0  0
  158.4460  213.5480  149.0100 C   0  0  0  0  0  0  0  0  0  0  0  0
  157.3680  213.6520  150.9060 C   0  0  0  0  0  0  0  0  0  0  0  0
  156.4510  213.9380  149.9610 N   0  0  0  0  0  2  0  0  0  0  0  0
  156.4580  214.1530  147.4860 C   0  0  0  0  0  1  0  0  0  0  0  0
  158.6210  213.3980  150.3730 C   0  0  0  0  0  3  0  0  0  0  0  0
  159.4850  213.3890  148.0250 N   0  0  0  0  0  0  0  0  0  0  0  0
  159.9090  212.2360  144.4580 C   0  0  0  0  0  1  0  0  0  0  0  0
  160.2160  212.3500  145.9380 C   0  0  1  0  0  3  0  0  0  0  0  0
  161.4610  212.9830  146.1150 O   0  0  0  0  0  0  0  0  0  0  0  0
  160.8830  213.6920  148.3360 C   0  0  0  0  0  2  0  0  0  0  0  0
  161.7970  212.8240  147.4710 C   0  0  0  0  0  2  0  0  0  0  0  0
  159.1200  213.1620  146.6250 C   0  0  0  0  0  2  0  0  0  0  0  0
  162.0640  207.0140  152.1270 C   0  0  2  0  0  3  0  0  0  0  0  0
  162.8570  207.6380  149.9550 O   0  0  0  0  0  1  0  0  0  0  0  0
  161.6980  207.3580  150.6790 C   0  0  1  0  0  3  0  0  0  0  0  0
  160.9040  206.2460  149.9990 C   0  0  0  0  0  2  0  0  0  0  0  0
  161.5390  205.8610  148.7450 N   0  0  0  0  0  2  0  0  0  0  0  0
  161.4080  204.5590  148.1700 C   0  0  0  0  0  0  0  0  0  0  0  0
  160.9490  203.5680  148.9360 C   0  0  0  0  0  3  0  0  0  0  0  0
  161.8120  204.3160  146.7480 C   0  0  0  0  0  1  0  0  0  0  0  0
  160.7680  202.1620  148.4580 C   0  0  0  0  0  2  0  0  0  0  0  0
  161.1750  201.1800  149.5430 C   0  0  0  0  0  1  0  0  0  0  0  0
  160.9850  205.2490  153.0420 O   0  0  0  0  0  1  0  0  0  0  0  0
  162.1050  205.5740  152.3520 N   0  0  0  0  0  2  0  0  0  0  0  0
  1 12  1  0  0  0  0
  1 10  1  0  0  0  0
  3  7  2  0  0  0  0
  3  5  1  0  0  0  0
  4  9  2  0  0  0  0
  5  6  2  0  0  0  0
  5  4  1  0  0  0  0
  6 11  1  0  0  0  0
  7  8  1  0  0  0  0
  8  4  1  0  0  0  0
  8  1  2  0  0  0  0
  9  2  1  0  0  0  0
  9 10  1  0  0  0  0
 11  2  2  0  0  0  0
 12 13  1  0  0  0  0
 13 14  3  0  0  0  0
 15 12  1  0  0  0  0
 16 15  1  0  0  0  0
 17 16  1  0  0  0  0
 18 19  2  0  0  0  0
 18 21  1  0  0  0  0
 19 23  1  0  0  0  0
 20 17  1  0  0  0  0
 21 20  1  0  0  0  0
 22 18  1  0  0  0  0
 23 20  2  0  0  0  0
 24 28  1  0  0  0  0
 24 19  1  0  0  0  0
 26 25  1  6  0  0  0
 26 27  1  0  0  0  0
 26 30  1  0  0  0  0
 27 29  1  0  0  0  0
 29 28  1  0  0  0  0
 30 24  1  0  0  0  0
 31 42  1  6  0  0  0
 31  6  1  0  0  0  0
 33 32  1  6  0  0  0
 33 31  1  0  0  0  0
 34 33  1  0  0  0  0
 35 34  1  0  0  0  0
 36 35  1  0  0  0  0
 36 37  2  0  0  0  0
 38 36  1  0  0  0  0
 39 37  1  0  0  0  0
 39 40  1  0  0  0  0
 42 41  1  0  0  0  0
M  END
>  <MODEL>
6

>  <REMARK>
 VINA RESULT:      -5.8      2.967      8.791
  Name = 
  14 active torsions:
  status: ('A' for Active; 'I' for Inactive)
    1  A    between atoms: N_1  and  C_10
    2  A    between atoms: N_3  and  C_4
    3  A    between atoms: N_3  and  C_6
    4  A    between atoms: N_3  and  C_9
    5  A    between atoms: C_9  and  C_29
    6  A    between atoms: C_13  and  C_32
    7  A    between atoms: C_19  and  C_23
    8  A    between atoms: C_19  and  N_33
    9  A    between atoms: C_20  and  C_36
   10  A    between atoms: C_22  and  C_31
   11  A    between atoms: C_23  and  C_31
   12  A    between atoms: C_29  and  C_32
   13  A    between atoms: C_30  and  N_33
   14  A    between atoms: C_31  and  N_39
                            x       y       z     vdW  Elec       q    Type
                         _______ _______ _______ _____ _____    ______ ____

>  <TORSDO>
F 14

$$$$
=
 OpenBabel11052411433D

 42 46  0  0  1  0  0  0  0  0999 V2000
  161.0440  204.9490  151.7080 C   0  0  0  0  0  0  0  0  0  0  0  0
  161.1980  201.2100  150.7640 C   0  0  0  0  0  3  0  0  0  0  0  0
  161.0440  204.4700  148.2520 N   0  0  0  0  0  0  0  0  0  0  0  0
  160.4640  203.3950  150.1320 C   0  0  0  0  0  0  0  0  0  0  0  0
  160.7310  203.1920  148.8220 C   0  0  0  0  0  0  0  0  0  0  0  0
  161.1710  201.9290  148.3950 C   0  0  0  0  0  0  0  0  0  0  0  0
  160.9930  205.3570  149.1790 N   0  0  0  0  0  0  0  0  0  0  0  0
  160.6210  204.7100  150.3980 C   0  0  0  0  0  0  0  0  0  0  0  0
  160.7680  202.4960  151.1160 C   0  0  0  0  0  0  0  0  0  0  0  0
  161.2050  203.4180  152.4670 S   0  0  0  0  0  0  0  0  0  0  0  0
  161.3530  200.9160  149.3830 C   0  0  0  0  0  3  0  0  0  0  0  0
  161.5140  206.2000  152.2390 N   0  0  0  0  0  0  0  0  0  0  0  0
  161.1590  206.6140  153.5320 C   0  0  0  0  0  0  0  0  0  0  0  0
  160.8660  206.9560  154.5980 N   0  0  0  0  0  0  0  0  0  0  0  0
  162.3320  207.0990  151.4360 C   0  0  0  0  0  2  0  0  0  0  0  0
  161.5310  208.3180  151.0020 C   0  0  0  0  0  2  0  0  0  0  0  0
  162.2330  209.5950  151.4330 C   0  0  0  0  0  2  0  0  0  0  0  0
  161.0030  210.8920  154.5300 C   0  0  0  0  0  0  0  0  0  0  0  0
  159.9160  211.1930  153.7230 C   0  0  0  0  0  0  0  0  0  0  0  0
  161.4880  210.2260  152.5570 C   0  0  0  0  0  0  0  0  0  0  0  0
  161.9680  210.2900  153.8140 N   0  0  0  0  0  2  0  0  0  0  0  0
  161.1460  211.1720  155.9860 C   0  0  0  0  0  1  0  0  0  0  0  0
  160.2190  210.7670  152.4430 C   0  0  0  0  0  3  0  0  0  0  0  0
  158.6870  211.8380  154.1050 N   0  0  0  0  0  0  0  0  0  0  0  0
  155.5840  211.1350  156.1330 C   0  0  0  0  0  1  0  0  0  0  0  0
  156.4050  211.6090  154.9510 C   0  0  1  0  0  3  0  0  0  0  0  0
  156.2610  213.0010  154.8030 O   0  0  0  0  0  0  0  0  0  0  0  0
  158.3480  213.1790  153.6250 C   0  0  0  0  0  2  0  0  0  0  0  0
  156.8280  213.3280  153.5580 C   0  0  0  0  0  2  0  0  0  0  0  0
  157.8750  211.2610  155.1790 C   0  0  0  0  0  2  0  0  0  0  0  0
  161.5200  201.6990  146.9560 C   0  0  2  0  0  3  0  0  0  0  0  0
  162.6220  203.4130  145.6960 O   0  0  0  0  0  1  0  0  0  0  0  0
  161.3660  202.9710  146.1130 C   0  0  1  0  0  3  0  0  0  0  0  0
  160.4500  202.7650  144.9100 C   0  0  0  0  0  2  0  0  0  0  0  0
  159.9050  204.0400  144.4620 N   0  0  0  0  0  2  0  0  0  0  0  0
  160.5530  205.2920  144.6960 C   0  0  0  0  0  0  0  0  0  0  0  0
  160.2310  205.9820  145.7920 C   0  0  0  0  0  3  0  0  0  0  0  0
  161.5470  205.8250  143.7100 C   0  0  0  0  0  1  0  0  0  0  0  0
  160.8320  207.3030  146.1500 C   0  0  0  0  0  2  0  0  0  0  0  0
  161.9710  207.1140  147.1370 C   0  0  0  0  0  1  0  0  0  0  0  0
  161.5820  199.5090  146.3920 O   0  0  0  0  0  1  0  0  0  0  0  0
  160.7570  200.5840  146.4060 N   0  0  0  0  0  2  0  0  0  0  0  0
  1 12  1  0  0  0  0
  1 10  1  0  0  0  0
  2  9  1  0  0  0  0
  3  5  1  0  0  0  0
  3  7  2  0  0  0  0
  4  8  1  0  0  0  0
  4  9  2  0  0  0  0
  5  4  1  0  0  0  0
  6  5  2  0  0  0  0
  6 11  1  0  0  0  0
  7  8  1  0  0  0  0
  8  1  2  0  0  0  0
  9 10  1  0  0  0  0
 11  2  2  0  0  0  0
 12 13  1  0  0  0  0
 13 14  3  0  0  0  0
 15 12  1  0  0  0  0
 16 17  1  0  0  0  0
 16 15  1  0  0  0  0
 17 20  1  0  0  0  0
 18 22  1  0  0  0  0
 19 24  1  0  0  0  0
 19 18  2  0  0  0  0
 20 21  1  0  0  0  0
 21 18  1  0  0  0  0
 23 20  2  0  0  0  0
 23 19  1  0  0  0  0
 24 30  1  0  0  0  0
 26 30  1  0  0  0  0
 26 25  1  1  0  0  0
 27 26  1  0  0  0  0
 28 24  1  0  0  0  0
 29 28  1  0  0  0  0
 29 27  1  0  0  0  0
 31 42  1  6  0  0  0
 31  6  1  0  0  0  0
 33 32  1  6  0  0  0
 33 31  1  0  0  0  0
 34 33  1  0  0  0  0
 35 36  1  0  0  0  0
 35 34  1  0  0  0  0
 36 37  2  0  0  0  0
 37 39  1  0  0  0  0
 38 36  1  0  0  0  0
 39 40  1  0  0  0  0
 41 42  1  0  0  0  0
M  END
>  <MODEL>
7

>  <REMARK>
 VINA RESULT:      -5.6      2.517     10.502
  Name = 
  14 active torsions:
  status: ('A' for Active; 'I' for Inactive)
    1  A    between atoms: N_1  and  C_10
    2  A    between atoms: N_3  and  C_4
    3  A    between atoms: N_3  and  C_6
    4  A    between atoms: N_3  and  C_9
    5  A    between atoms: C_9  and  C_29
    6  A    between atoms: C_13  and  C_32
    7  A    between atoms: C_19  and  C_23
    8  A    between atoms: C_19  and  N_33
    9  A    between atoms: C_20  and  C_36
   10  A    between atoms: C_22  and  C_31
   11  A    between atoms: C_23  and  C_31
   12  A    between atoms: C_29  and  C_32
   13  A    between atoms: C_30  and  N_33
   14  A    between atoms: C_31  and  N_39
                            x       y       z     vdW  Elec       q    Type
                         _______ _______ _______ _____ _____    ______ ____

>  <TORSDO>
F 14

$$$$
=
 OpenBabel11052411433D

 42 46  0  0  1  0  0  0  0  0999 V2000
  161.4310  207.4620  150.5490 C   0  0  0  0  0  0  0  0  0  0  0  0
  161.5400  204.1680  152.5570 C   0  0  0  0  0  3  0  0  0  0  0  0
  160.2670  204.7540  148.6840 N   0  0  0  0  0  0  0  0  0  0  0  0
  160.4640  205.4070  150.8200 C   0  0  0  0  0  0  0  0  0  0  0  0
  160.2730  204.3130  150.0480 C   0  0  0  0  0  0  0  0  0  0  0  0
  160.6350  203.0490  150.5420 C   0  0  0  0  0  0  0  0  0  0  0  0
  160.4720  206.0210  148.6610 N   0  0  0  0  0  0  0  0  0  0  0  0
  160.5990  206.4790  150.0090 C   0  0  0  0  0  0  0  0  0  0  0  0
  161.1600  205.3940  151.9960 C   0  0  0  0  0  0  0  0  0  0  0  0
  161.9660  206.8810  152.0730 S   0  0  0  0  0  0  0  0  0  0  0  0
  161.2270  202.9840  151.8380 C   0  0  0  0  0  3  0  0  0  0  0  0
  161.9570  208.6100  149.8610 N   0  0  0  0  0  0  0  0  0  0  0  0
  162.5350  208.4860  148.5880 C   0  0  0  0  0  0  0  0  0  0  0  0
  163.0120  208.3840  147.5390 N   0  0  0  0  0  0  0  0  0  0  0  0
  161.9520  209.9280  150.4820 C   0  0  0  0  0  2  0  0  0  0  0  0
  162.3870  210.9970  149.4900 C   0  0  0  0  0  2  0  0  0  0  0  0
  161.2540  211.9740  149.2310 C   0  0  0  0  0  2  0  0  0  0  0  0
  162.0110  213.3300  146.0100 C   0  0  0  0  0  0  0  0  0  0  0  0
  160.7060  212.9230  145.7720 C   0  0  0  0  0  0  0  0  0  0  0  0
  161.2970  212.4360  147.8160 C   0  0  0  0  0  0  0  0  0  0  0  0
  162.3720  213.0380  147.2710 N   0  0  0  0  0  2  0  0  0  0  0  0
  162.9340  213.9980  145.0490 C   0  0  0  0  0  1  0  0  0  0  0  0
  160.2340  212.3420  146.9340 C   0  0  0  0  0  3  0  0  0  0  0  0
  159.9520  213.0520  144.5520 N   0  0  0  0  0  0  0  0  0  0  0  0
  160.0260  211.8230  140.9860 C   0  0  0  0  0  1  0  0  0  0  0  0
  159.8940  212.8200  142.1200 C   0  0  1  0  0  3  0  0  0  0  0  0
  158.5840  213.3310  142.1490 O   0  0  0  0  0  0  0  0  0  0  0  0
  158.7710  213.9130  144.4730 C   0  0  0  0  0  2  0  0  0  0  0  0
  158.6040  214.4200  143.0400 C   0  0  0  0  0  2  0  0  0  0  0  0
  160.2120  212.1290  143.4450 C   0  0  0  0  0  2  0  0  0  0  0  0
  160.4780  201.8310  149.6840 C   0  0  2  0  0  3  0  0  0  0  0  0
  162.2190  200.6070  148.5840 O   0  0  0  0  0  1  0  0  0  0  0  0
  161.4930  201.7980  148.5360 C   0  0  1  0  0  3  0  0  0  0  0  0
  160.8330  201.9610  147.1690 C   0  0  0  0  0  2  0  0  0  0  0  0
  161.8010  202.4360  146.1900 N   0  0  0  0  0  2  0  0  0  0  0  0
  161.9120  203.8080  145.8020 C   0  0  0  0  0  0  0  0  0  0  0  0
  161.0280  204.2960  144.9300 C   0  0  0  0  0  3  0  0  0  0  0  0
  163.0190  204.6600  146.3430 C   0  0  0  0  0  1  0  0  0  0  0  0
  161.0350  205.7090  144.4410 C   0  0  0  0  0  2  0  0  0  0  0  0
  160.0850  206.5580  145.2670 C   0  0  0  0  0  1  0  0  0  0  0  0
  158.5960  200.5780  149.7580 O   0  0  0  0  0  1  0  0  0  0  0  0
  159.1060  201.7040  149.2030 N   0  0  0  0  0  2  0  0  0  0  0  0
  1 10  1  0  0  0  0
  3  5  1  0  0  0  0
  4  9  2  0  0  0  0
  5  6  2  0  0  0  0
  5  4  1  0  0  0  0
  6 11  1  0  0  0  0
  7  3  2  0  0  0  0
  7  8  1  0  0  0  0
  8  1  2  0  0  0  0
  8  4  1  0  0  0  0
  9 10  1  0  0  0  0
  9  2  1  0  0  0  0
 11  2  2  0  0  0  0
 12 15  1  0  0  0  0
 12  1  1  0  0  0  0
 13 12  1  0  0  0  0
 14 13  3  0  0  0  0
 16 15  1  0  0  0  0
 17 16  1  0  0  0  0
 18 21  1  0  0  0  0
 19 18  2  0  0  0  0
 19 23  1  0  0  0  0
 20 17  1  0  0  0  0
 21 20  1  0  0  0  0
 22 18  1  0  0  0  0
 23 20  2  0  0  0  0
 24 19  1  0  0  0  0
 26 25  1  6  0  0  0
 26 27  1  0  0  0  0
 26 30  1  0  0  0  0
 27 29  1  0  0  0  0
 28 24  1  0  0  0  0
 29 28  1  0  0  0  0
 30 24  1  0  0  0  0
 31 42  1  6  0  0  0
 31  6  1  0  0  0  0
 33 32  1  6  0  0  0
 33 31  1  0  0  0  0
 34 33  1  0  0  0  0
 35 34  1  0  0  0  0
 36 35  1  0  0  0  0
 36 38  1  0  0  0  0
 37 36  2  0  0  0  0
 39 37  1  0  0  0  0
 39 40  1  0  0  0  0
 42 41  1  0  0  0  0
M  END
>  <MODEL>
8

>  <REMARK>
 VINA RESULT:      -5.6      4.747      9.810
  Name = 
  14 active torsions:
  status: ('A' for Active; 'I' for Inactive)
    1  A    between atoms: N_1  and  C_10
    2  A    between atoms: N_3  and  C_4
    3  A    between atoms: N_3  and  C_6
    4  A    between atoms: N_3  and  C_9
    5  A    between atoms: C_9  and  C_29
    6  A    between atoms: C_13  and  C_32
    7  A    between atoms: C_19  and  C_23
    8  A    between atoms: C_19  and  N_33
    9  A    between atoms: C_20  and  C_36
   10  A    between atoms: C_22  and  C_31
   11  A    between atoms: C_23  and  C_31
   12  A    between atoms: C_29  and  C_32
   13  A    between atoms: C_30  and  N_33
   14  A    between atoms: C_31  and  N_39
                            x       y       z     vdW  Elec       q    Type
                         _______ _______ _______ _____ _____    ______ ____

>  <TORSDO>
F 14

$$$$
=
 OpenBabel11052411433D

 42 46  0  0  1  0  0  0  0  0999 V2000
  161.2520  204.5140  146.1890 C   0  0  0  0  0  0  0  0  0  0  0  0
  161.2050  203.0570  149.7630 C   0  0  0  0  0  3  0  0  0  0  0  0
  161.2370  207.0140  148.6210 N   0  0  0  0  0  0  0  0  0  0  0  0
  161.8650  204.8770  148.3620 C   0  0  0  0  0  0  0  0  0  0  0  0
  161.5940  205.8060  149.3070 C   0  0  0  0  0  0  0  0  0  0  0  0
  161.1900  205.3910  150.5860 C   0  0  0  0  0  0  0  0  0  0  0  0
  161.2690  206.7930  147.3570 N   0  0  0  0  0  0  0  0  0  0  0  0
  161.6710  205.4370  147.1490 C   0  0  0  0  0  0  0  0  0  0  0  0
  161.5980  203.5450  148.5100 C   0  0  0  0  0  0  0  0  0  0  0  0
  161.1440  202.9920  146.9750 S   0  0  0  0  0  0  0  0  0  0  0  0
  161.0480  203.9920  150.8200 C   0  0  0  0  0  3  0  0  0  0  0  0
  160.7480  204.8140  144.8760 N   0  0  0  0  0  0  0  0  0  0  0  0
  159.7950  203.9880  144.2620 C   0  0  0  0  0  0  0  0  0  0  0  0
  159.0080  203.3060  143.7560 N   0  0  0  0  0  0  0  0  0  0  0  0
  161.2480  205.9560  144.1210 C   0  0  0  0  0  2  0  0  0  0  0  0
  161.2090  205.6770  142.6260 C   0  0  0  0  0  2  0  0  0  0  0  0
  162.4890  206.1550  141.9630 C   0  0  0  0  0  2  0  0  0  0  0  0
  162.1240  207.0360  138.5170 C   0  0  0  0  0  0  0  0  0  0  0  0
  161.4970  208.1330  139.0880 C   0  0  0  0  0  0  0  0  0  0  0  0
  162.1790  206.7530  140.6360 C   0  0  0  0  0  0  0  0  0  0  0  0
  162.5520  206.1900  139.4700 N   0  0  0  0  0  2  0  0  0  0  0  0
  162.3260  206.7710  137.0650 C   0  0  0  0  0  1  0  0  0  0  0  0
  161.5260  207.9600  140.4600 C   0  0  0  0  0  3  0  0  0  0  0  0
  160.9020  209.2580  138.4140 N   0  0  0  0  0  0  0  0  0  0  0  0
  161.8120  212.7440  137.2940 C   0  0  0  0  0  1  0  0  0  0  0  0
  160.9730  211.6510  137.9250 C   0  0  1  0  0  3  0  0  0  0  0  0
  159.7810  211.4890  137.1940 O   0  0  0  0  0  0  0  0  0  0  0  0
  159.5050  209.2350  137.9790 C   0  0  0  0  0  2  0  0  0  0  0  0
  158.9500  210.6600  137.9690 C   0  0  0  0  0  2  0  0  0  0  0  0
  161.7600  210.3420  137.9310 C   0  0  0  0  0  2  0  0  0  0  0  0
  160.8360  206.4060  151.6310 C   0  0  2  0  0  3  0  0  0  0  0  0
  163.0890  207.0460  151.1270 O   0  0  0  0  0  1  0  0  0  0  0  0
  161.9520  207.4370  151.8360 C   0  0  1  0  0  3  0  0  0  0  0  0
  161.5290  208.8440  151.4230 C   0  0  0  0  0  2  0  0  0  0  0  0
  161.8770  209.8050  152.4610 N   0  0  0  0  0  2  0  0  0  0  0  0
  160.9540  210.2430  153.4610 C   0  0  0  0  0  0  0  0  0  0  0  0
  160.4480  211.4750  153.3670 C   0  0  0  0  0  3  0  0  0  0  0  0
  160.5940  209.3440  154.6040 C   0  0  0  0  0  1  0  0  0  0  0  0
  159.4790  212.0540  154.3460 C   0  0  0  0  0  2  0  0  0  0  0  0
  158.0530  211.8180  153.8800 C   0  0  0  0  0  1  0  0  0  0  0  0
  161.4860  205.9290  153.7440 O   0  0  0  0  0  1  0  0  0  0  0  0
  160.4560  205.7580  152.8800 N   0  0  0  0  0  2  0  0  0  0  0  0
  1 10  1  0  0  0  0
  1  8  2  0  0  0  0
  2 11  1  0  0  0  0
  3  5  1  0  0  0  0
  4  9  1  0  0  0  0
  4  5  2  0  0  0  0
  5  6  1  0  0  0  0
  6 11  2  0  0  0  0
  6 31  1  0  0  0  0
  7  3  2  0  0  0  0
  8  7  1  0  0  0  0
  8  4  1  0  0  0  0
  9  2  2  0  0  0  0
 10  9  1  0  0  0  0
 12  1  1  0  0  0  0
 13 12  1  0  0  0  0
 14 13  3  0  0  0  0
 15 12  1  0  0  0  0
 16 15  1  0  0  0  0
 17 16  1  0  0  0  0
 18 19  2  0  0  0  0
 18 21  1  0  0  0  0
 19 23  1  0  0  0  0
 20 17  1  0  0  0  0
 21 20  1  0  0  0  0
 22 18  1  0  0  0  0
 23 20  2  0  0  0  0
 24 19  1  0  0  0  0
 26 25  1  6  0  0  0
 26 30  1  0  0  0  0
 27 26  1  0  0  0  0
 27 29  1  0  0  0  0
 28 24  1  0  0  0  0
 29 28  1  0  0  0  0
 30 24  1  0  0  0  0
 31 33  1  0  0  0  0
 31 42  1  1  0  0  0
 33 32  1  6  0  0  0
 34 33  1  0  0  0  0
 34 35  1  0  0  0  0
 35 36  1  0  0  0  0
 36 38  1  0  0  0  0
 37 36  2  0  0  0  0
 37 39  1  0  0  0  0
 40 39  1  0  0  0  0
 42 41  1  0  0  0  0
M  END
>  <MODEL>
9

>  <REMARK>
 VINA RESULT:      -5.2      5.437      9.288
  Name = 
  14 active torsions:
  status: ('A' for Active; 'I' for Inactive)
    1  A    between atoms: N_1  and  C_10
    2  A    between atoms: N_3  and  C_4
    3  A    between atoms: N_3  and  C_6
    4  A    between atoms: N_3  and  C_9
    5  A    between atoms: C_9  and  C_29
    6  A    between atoms: C_13  and  C_32
    7  A    between atoms: C_19  and  C_23
    8  A    between atoms: C_19  and  N_33
    9  A    between atoms: C_20  and  C_36
   10  A    between atoms: C_22  and  C_31
   11  A    between atoms: C_23  and  C_31
   12  A    between atoms: C_29  and  C_32
   13  A    between atoms: C_30  and  N_33
   14  A    between atoms: C_31  and  N_39
                            x       y       z     vdW  Elec       q    Type
                         _______ _______ _______ _____ _____    ______ ____

>  <TORSDO>
F 14

$$$$
