=
 OpenBabel11052410073D

 54 59  0  0  1  0  0  0  0  0999 V2000
  161.7490  206.4990  148.8550 C   0  0  1  0  0  3  0  0  0  0  0  0
  161.3190  207.9360  148.6060 C   0  0  1  0  0  3  0  0  0  0  0  0
  161.0790  206.5350  150.2210 C   0  0  2  0  0  3  0  0  0  0  0  0
  160.6400  207.9660  149.9630 C   0  0  0  0  0  2  0  0  0  0  0  0
  162.4030  210.2550  148.5710 N   0  0  0  0  0  0  0  0  0  0  0  0
  162.9880  211.6260  148.5090 C   0  0  0  0  0  2  0  0  0  0  0  0
  161.6190  211.5260  148.6580 C   0  0  1  0  0  3  0  0  0  0  0  0
  162.5210  208.8330  148.5250 C   0  0  0  0  0  0  0  0  0  0  0  0
  163.6630  208.3150  148.4230 O   0  0  0  0  0  0  0  0  0  0  0  0
  159.8590  211.2450  147.0800 O   0  0  0  0  0  0  0  0  0  0  0  0
  160.9130  211.8000  147.3600 C   0  0  0  0  0  0  0  0  0  0  0  0
  161.4830  212.8120  146.4240 C   0  0  0  0  0  2  0  0  0  0  0  0
  160.6850  212.8660  145.2120 N   0  0  0  0  0  2  0  0  0  0  0  0
  161.1710  213.9460  144.4570 N   0  0  0  0  0  2  0  0  0  0  0  0
  158.9030  213.1140  142.4610 O   0  0  0  0  0  1  0  0  0  0  0  0
  160.5120  213.1860  139.8820 O   0  0  0  0  0  1  0  0  0  0  0  0
  160.1170  212.4950  142.7520 C   0  0  1  0  0  3  0  0  0  0  0  0
  160.5000  211.5350  141.6180 C   0  0  0  0  0  2  0  0  0  0  0  0
  162.5830  213.1460  142.5730 C   0  0  2  0  0  3  0  0  0  0  0  0
  161.3060  212.2270  140.5180 C   0  0  2  0  0  3  0  0  0  0  0  0
  163.5320  214.1160  142.9090 O   0  0  0  0  0  1  0  0  0  0  0  0
  162.9730  213.9780  140.3230 O   0  0  0  0  0  1  0  0  0  0  0  0
  162.6130  212.8450  141.0620 C   0  0  1  0  0  3  0  0  0  0  0  0
  161.1850  213.5650  143.0440 C   0  0  2  0  0  3  0  0  0  0  0  0
  162.0640  206.5200  151.2240 O   0  0  0  0  0  0  0  0  0  0  0  0
  161.5550  205.8880  152.3870 C   0  0  1  0  0  3  0  0  0  0  0  0
  160.1610  203.8440  151.9450 C   0  0  0  0  0  1  0  0  0  0  0  0
  162.4920  203.8580  151.4710 F   0  0  0  0  0  0  0  0  0  0  0  0
  161.5330  204.3570  152.3330 C   0  0  1  0  0  3  0  0  0  0  0  0
  162.1300  206.4340  153.6940 C   0  0  0  0  0  2  0  0  0  0  0  0
  159.7140  208.9990  154.9060 C   0  0  0  0  0  0  0  0  0  0  0  0
  159.8390  208.2570  155.9540 N   0  0  0  0  0  0  0  0  0  0  0  0
  161.4540  209.5560  153.3320 N   0  0  0  0  0  0  0  0  0  0  0  0
  160.0050  211.2490  154.2860 C   0  0  0  0  0  0  0  0  0  0  0  0
  161.2060  210.8210  153.5210 C   0  0  0  0  0  3  0  0  0  0  0  0
  160.7150  207.1930  155.6100 C   0  0  0  0  0  3  0  0  0  0  0  0
  159.3410  210.3750  154.9920 N   0  0  0  0  0  0  0  0  0  0  0  0
  161.1540  207.3410  154.3670 C   0  0  0  0  0  0  0  0  0  0  0  0
  160.5020  208.5180  153.7390 C   0  0  1  0  0  3  0  0  0  0  0  0
  159.6730  212.7120  154.3700 C   0  0  1  0  0  3  0  0  0  0  0  0
  158.5650  213.0450  153.4820 N   0  0  0  0  0  2  0  0  0  0  0  0
  158.7430  213.4560  152.1240 C   0  0  0  0  0  0  0  0  0  0  0  0
  157.6060  213.8000  151.3470 N   0  0  0  0  0  1  0  0  0  0  0  0
  159.8910  213.4950  151.6070 O   0  0  0  0  0  0  0  0  0  0  0  0
  157.8990  213.6630  155.8580 C   0  0  0  0  0  1  0  0  0  0  0  0
  159.3080  213.1010  155.7950 C   0  0  0  0  0  2  0  0  0  0  0  0
  161.0010  205.5710  147.8980 C   0  0  2  0  0  3  0  0  0  0  0  0
  161.2190  203.4210  148.9080 O   0  0  0  0  0  0  0  0  0  0  0  0
  160.6930  203.1340  147.6370 C   0  0  0  0  0  2  0  0  0  0  0  0
  161.6840  204.2110  147.8400 C   0  0  1  0  0  3  0  0  0  0  0  0
  160.9840  206.1340  146.6180 O   0  0  0  0  0  0  0  0  0  0  0  0
  162.2810  205.9610  146.1310 C   0  0  0  0  0  2  0  0  0  0  0  0
  161.0540  205.4460  144.0300 C   0  0  0  0  0  1  0  0  0  0  0  0
  162.2540  205.0940  144.8850 C   0  0  0  0  0  2  0  0  0  0  0  0
  1 47  1  6  0  0  0
  1  3  1  0  0  0  0
  2  8  1  1  0  0  0
  2  1  1  0  0  0  0
  2  4  1  0  0  0  0
  3 25  1  1  0  0  0
  4  3  1  0  0  0  0
  5  7  1  0  0  0  0
  6  5  1  0  0  0  0
  6  7  1  0  0  0  0
  7 11  1  6  0  0  0
  8  5  1  0  0  0  0
  9  8  2  0  0  0  0
 10 11  2  0  0  0  0
 12 11  1  0  0  0  0
 13 12  1  0  0  0  0
 14 13  1  0  0  0  0
 17 15  1  6  0  0  0
 17 24  1  0  0  0  0
 18 17  1  0  0  0  0
 19 21  1  6  0  0  0
 19 24  1  0  0  0  0
 20 16  1  1  0  0  0
 20 23  1  0  0  0  0
 20 18  1  0  0  0  0
 23 22  1  6  0  0  0
 23 19  1  0  0  0  0
 24 14  1  1  0  0  0
 25 26  1  0  0  0  0
 26 30  1  1  0  0  0
 28 29  1  0  0  0  0
 29 27  1  6  0  0  0
 29 26  1  0  0  0  0
 30 38  1  0  0  0  0
 31 37  1  0  0  0  0
 31 32  2  0  0  0  0
 33 35  2  0  0  0  0
 34 40  1  0  0  0  0
 34 37  2  0  0  0  0
 35 34  1  0  0  0  0
 36 32  1  0  0  0  0
 38 36  2  0  0  0  0
 39 33  1  1  0  0  0
 39 38  1  0  0  0  0
 39 31  1  0  0  0  0
 40 46  1  1  0  0  0
 41 40  1  0  0  0  0
 42 41  1  0  0  0  0
 43 42  1  0  0  0  0
 44 42  2  0  0  0  0
 46 45  1  0  0  0  0
 47 51  1  6  0  0  0
 49 50  1  0  0  0  0
 49 48  1  0  0  0  0
 50 47  1  1  0  0  0
 50 48  1  0  0  0  0
 52 51  1  0  0  0  0
 53 54  1  0  0  0  0
 54 52  1  0  0  0  0
M  END
>  <MODEL>
1

>  <REMARK>
 VINA RESULT:      -4.6      0.000      0.000
  Name = 
  19 active torsions:
  status: ('A' for Active; 'I' for Inactive)
    1  A    between atoms: C_2  and  C_7
    2  A    between atoms: C_2  and  C_39
    3  A    between atoms: C_3  and  C_24
    4  A    between atoms: C_3  and  O_26
    5  A    between atoms: N_4  and  C_21
    6  A    between atoms: C_5  and  C_15
    7  A    between atoms: C_5  and  O_26
    8  A    between atoms: C_5  and  C_45
    9  A    between atoms: C_7  and  N_16
   10  A    between atoms: N_8  and  N_16
   11  A    between atoms: N_8  and  C_46
   12  A    between atoms: C_21  and  C_25
   13  A    between atoms: C_21  and  C_36
   14  A    between atoms: C_22  and  C_41
   15  A    between atoms: O_23  and  C_42
   16  A    between atoms: O_23  and  C_47
   17  A    between atoms: C_33  and  C_42
   18  A    between atoms: C_33  and  C_51
   19  A    between atoms: C_42  and  C_53
                            x       y       z     vdW  Elec       q    Type
                         _______ _______ _______ _____ _____    ______ ____

>  <TORSDO>
F 19

$$$$
=
 OpenBabel11052410073D

 54 59  0  0  1  0  0  0  0  0999 V2000
  159.3950  212.0720  154.0440 C   0  0  1  0  0  3  0  0  0  0  0  0
  159.6760  210.5960  153.8070 C   0  0  1  0  0  3  0  0  0  0  0  0
  158.5350  212.1090  152.7880 C   0  0  2  0  0  3  0  0  0  0  0  0
  158.8080  210.6320  152.5620 C   0  0  0  0  0  2  0  0  0  0  0  0
  161.5760  209.3590  152.6190 N   0  0  0  0  0  0  0  0  0  0  0  0
  162.6540  208.5820  151.9410 C   0  0  0  0  0  2  0  0  0  0  0  0
  161.3490  208.2040  151.6960 C   0  0  1  0  0  3  0  0  0  0  0  0
  161.1330  210.3850  153.5070 C   0  0  0  0  0  0  0  0  0  0  0  0
  161.9820  211.1390  154.0480 O   0  0  0  0  0  0  0  0  0  0  0  0
  160.2770  207.0310  153.4680 O   0  0  0  0  0  0  0  0  0  0  0  0
  160.9890  206.9700  152.4740 C   0  0  0  0  0  0  0  0  0  0  0  0
  161.4640  205.6420  151.9900 C   0  0  0  0  0  2  0  0  0  0  0  0
  160.7600  205.2810  150.7720 N   0  0  0  0  0  2  0  0  0  0  0  0
  161.5790  204.3650  150.0900 N   0  0  0  0  0  2  0  0  0  0  0  0
  162.4360  207.0520  148.7230 O   0  0  0  0  0  1  0  0  0  0  0  0
  162.6100  206.0690  145.8510 O   0  0  0  0  0  1  0  0  0  0  0  0
  161.3070  206.2600  148.5220 C   0  0  1  0  0  3  0  0  0  0  0  0
  160.6740  206.5880  147.1630 C   0  0  0  0  0  2  0  0  0  0  0  0
  160.8780  203.8570  147.7600 C   0  0  2  0  0  3  0  0  0  0  0  0
  161.2620  205.7440  146.0300 C   0  0  2  0  0  3  0  0  0  0  0  0
  161.2030  202.5170  147.9830 O   0  0  0  0  0  1  0  0  0  0  0  0
  162.1140  203.4990  145.6970 O   0  0  0  0  0  1  0  0  0  0  0  0
  161.0720  204.2320  146.2770 C   0  0  1  0  0  3  0  0  0  0  0  0
  161.6820  204.7760  148.6890 C   0  0  2  0  0  3  0  0  0  0  0  0
  159.1890  212.8640  151.7980 O   0  0  0  0  0  0  0  0  0  0  0  0
  158.2360  213.5890  151.0400 C   0  0  1  0  0  3  0  0  0  0  0  0
  155.8320  214.1050  151.5630 C   0  0  0  0  0  1  0  0  0  0  0  0
  157.5200  214.3420  153.2220 F   0  0  0  0  0  0  0  0  0  0  0  0
  157.2760  214.4530  151.8650 C   0  0  1  0  0  3  0  0  0  0  0  0
  158.8270  214.3300  149.8400 C   0  0  0  0  0  2  0  0  0  0  0  0
  158.6370  212.5160  146.5900 C   0  0  0  0  0  0  0  0  0  0  0  0
  157.3860  212.6860  146.8560 N   0  0  0  0  0  0  0  0  0  0  0  0
  160.4240  214.0640  147.0630 N   0  0  0  0  0  0  0  0  0  0  0  0
  160.1700  213.0310  144.8830 C   0  0  0  0  0  0  0  0  0  0  0  0
  160.7700  214.0310  145.8060 C   0  0  0  0  0  3  0  0  0  0  0  0
  157.3120  213.3390  148.1150 C   0  0  0  0  0  3  0  0  0  0  0  0
  159.1130  212.3610  145.2540 N   0  0  0  0  0  0  0  0  0  0  0  0
  158.5300  213.6060  148.5690 C   0  0  0  0  0  0  0  0  0  0  0  0
  159.5460  213.0440  147.6430 C   0  0  1  0  0  3  0  0  0  0  0  0
  160.6880  212.9300  143.4770 C   0  0  1  0  0  3  0  0  0  0  0  0
  159.5890  212.7910  142.5280 N   0  0  0  0  0  2  0  0  0  0  0  0
  159.7630  212.3310  141.1860 C   0  0  0  0  0  0  0  0  0  0  0  0
  158.6390  212.2660  140.3200 N   0  0  0  0  0  1  0  0  0  0  0  0
  160.8950  211.9640  140.7720 O   0  0  0  0  0  0  0  0  0  0  0  0
  162.9730  213.7940  142.9320 C   0  0  0  0  0  1  0  0  0  0  0  0
  161.5100  214.1570  143.1150 C   0  0  0  0  0  2  0  0  0  0  0  0
  158.5410  212.2320  155.3010 C   0  0  2  0  0  3  0  0  0  0  0  0
  160.6070  213.1260  156.0890 O   0  0  0  0  0  0  0  0  0  0  0  0
  159.6410  213.9320  156.7160 C   0  0  0  0  0  2  0  0  0  0  0  0
  159.4290  212.4830  156.5130 C   0  0  1  0  0  3  0  0  0  0  0  0
  157.7940  211.0680  155.5100 O   0  0  0  0  0  0  0  0  0  0  0  0
  156.5850  211.5070  156.0520 C   0  0  0  0  0  2  0  0  0  0  0  0
  155.0940  210.0550  154.6900 C   0  0  0  0  0  1  0  0  0  0  0  0
  155.5880  210.3630  156.0890 C   0  0  0  0  0  2  0  0  0  0  0  0
  1 47  1  1  0  0  0
  2  8  1  6  0  0  0
  2  1  1  0  0  0  0
  3 25  1  6  0  0  0
  3  1  1  0  0  0  0
  4  3  1  0  0  0  0
  4  2  1  0  0  0  0
  5  8  1  0  0  0  0
  6  5  1  0  0  0  0
  7  6  1  0  0  0  0
  7 11  1  1  0  0  0
  7  5  1  0  0  0  0
  8  9  2  0  0  0  0
 11 10  2  0  0  0  0
 12 11  1  0  0  0  0
 13 12  1  0  0  0  0
 14 13  1  0  0  0  0
 17 24  1  0  0  0  0
 17 15  1  6  0  0  0
 18 17  1  0  0  0  0
 19 21  1  6  0  0  0
 19 24  1  0  0  0  0
 20 16  1  1  0  0  0
 20 23  1  0  0  0  0
 20 18  1  0  0  0  0
 23 22  1  1  0  0  0
 23 19  1  0  0  0  0
 24 14  1  1  0  0  0
 26 30  1  6  0  0  0
 26 25  1  0  0  0  0
 26 29  1  0  0  0  0
 29 27  1  1  0  0  0
 29 28  1  0  0  0  0
 31 32  2  0  0  0  0
 32 36  1  0  0  0  0
 33 39  1  0  0  0  0
 34 37  2  0  0  0  0
 34 35  1  0  0  0  0
 35 33  2  0  0  0  0
 36 38  2  0  0  0  0
 37 31  1  0  0  0  0
 38 30  1  0  0  0  0
 39 31  1  6  0  0  0
 39 38  1  0  0  0  0
 40 46  1  6  0  0  0
 40 34  1  0  0  0  0
 41 40  1  0  0  0  0
 42 41  1  0  0  0  0
 43 42  1  0  0  0  0
 44 42  2  0  0  0  0
 45 46  1  0  0  0  0
 47 51  1  1  0  0  0
 48 50  1  0  0  0  0
 48 49  1  0  0  0  0
 50 47  1  6  0  0  0
 50 49  1  0  0  0  0
 51 52  1  0  0  0  0
 52 54  1  0  0  0  0
 53 54  1  0  0  0  0
M  END
>  <MODEL>
2

>  <REMARK>
 VINA RESULT:      -4.5      3.017      9.878
  Name = 
  19 active torsions:
  status: ('A' for Active; 'I' for Inactive)
    1  A    between atoms: C_2  and  C_7
    2  A    between atoms: C_2  and  C_39
    3  A    between atoms: C_3  and  C_24
    4  A    between atoms: C_3  and  O_26
    5  A    between atoms: N_4  and  C_21
    6  A    between atoms: C_5  and  C_15
    7  A    between atoms: C_5  and  O_26
    8  A    between atoms: C_5  and  C_45
    9  A    between atoms: C_7  and  N_16
   10  A    between atoms: N_8  and  N_16
   11  A    between atoms: N_8  and  C_46
   12  A    between atoms: C_21  and  C_25
   13  A    between atoms: C_21  and  C_36
   14  A    between atoms: C_22  and  C_41
   15  A    between atoms: O_23  and  C_42
   16  A    between atoms: O_23  and  C_47
   17  A    between atoms: C_33  and  C_42
   18  A    between atoms: C_33  and  C_51
   19  A    between atoms: C_42  and  C_53
                            x       y       z     vdW  Elec       q    Type
                         _______ _______ _______ _____ _____    ______ ____

>  <TORSDO>
F 19

$$$$
=
 OpenBabel11052410073D

 54 59  0  0  1  0  0  0  0  0999 V2000
  161.4520  204.1860  148.2120 C   0  0  1  0  0  3  0  0  0  0  0  0
  160.8890  205.3370  147.3930 C   0  0  1  0  0  3  0  0  0  0  0  0
  160.7670  204.7360  149.4550 C   0  0  2  0  0  3  0  0  0  0  0  0
  160.1950  205.8760  148.6310 C   0  0  0  0  0  2  0  0  0  0  0  0
  162.6650  207.1420  147.7690 N   0  0  0  0  0  0  0  0  0  0  0  0
  163.6560  208.2280  148.0220 C   0  0  0  0  0  2  0  0  0  0  0  0
  162.8850  207.8110  149.0890 C   0  0  1  0  0  3  0  0  0  0  0  0
  162.0010  206.2220  146.9040 C   0  0  0  0  0  0  0  0  0  0  0  0
  162.3580  206.1410  145.7010 O   0  0  0  0  0  0  0  0  0  0  0  0
  160.9160  208.5500  150.2050 O   0  0  0  0  0  0  0  0  0  0  0  0
  161.7820  208.7910  149.3730 C   0  0  0  0  0  0  0  0  0  0  0  0
  161.7780  210.1050  148.6670 C   0  0  0  0  0  2  0  0  0  0  0  0
  161.8280  211.1850  149.6360 N   0  0  0  0  0  2  0  0  0  0  0  0
  161.8160  212.3840  148.9040 N   0  0  0  0  0  2  0  0  0  0  0  0
  160.0840  212.0400  146.3140 O   0  0  0  0  0  1  0  0  0  0  0  0
  157.3670  212.7480  147.4830 O   0  0  0  0  0  1  0  0  0  0  0  0
  160.2940  213.1620  147.1140 C   0  0  1  0  0  3  0  0  0  0  0  0
  159.1800  214.1910  146.8750 C   0  0  0  0  0  2  0  0  0  0  0  0
  159.8540  213.7630  149.5610 C   0  0  2  0  0  3  0  0  0  0  0  0
  157.9760  213.9680  147.7910 C   0  0  2  0  0  3  0  0  0  0  0  0
  160.0490  213.3610  150.8850 O   0  0  0  0  0  1  0  0  0  0  0  0
  157.5360  213.2210  150.0560 O   0  0  0  0  0  1  0  0  0  0  0  0
  158.3640  214.0440  149.2840 C   0  0  1  0  0  3  0  0  0  0  0  0
  160.4280  212.7280  148.5860 C   0  0  2  0  0  3  0  0  0  0  0  0
  161.7380  205.2380  150.3410 O   0  0  0  0  0  0  0  0  0  0  0  0
  161.2430  205.1980  151.6680 C   0  0  1  0  0  3  0  0  0  0  0  0
  161.9390  202.8230  152.1020 C   0  0  0  0  0  1  0  0  0  0  0  0
  160.2550  203.8610  153.4220 F   0  0  0  0  0  0  0  0  0  0  0  0
  160.7940  203.8140  152.1490 C   0  0  1  0  0  3  0  0  0  0  0  0
  162.1230  205.9280  152.6830 C   0  0  0  0  0  2  0  0  0  0  0  0
  160.0690  208.3540  154.6280 C   0  0  0  0  0  0  0  0  0  0  0  0
  160.1870  207.3880  155.4760 N   0  0  0  0  0  0  0  0  0  0  0  0
  161.7470  209.0980  153.0640 N   0  0  0  0  0  0  0  0  0  0  0  0
  160.5460  210.6530  154.4850 C   0  0  0  0  0  0  0  0  0  0  0  0
  161.6420  210.3060  153.5430 C   0  0  0  0  0  3  0  0  0  0  0  0
  160.9250  206.3580  154.8350 C   0  0  0  0  0  3  0  0  0  0  0  0
  159.8460  209.7020  155.0420 N   0  0  0  0  0  0  0  0  0  0  0  0
  161.2930  206.7420  153.6190 C   0  0  0  0  0  0  0  0  0  0  0  0
  160.7230  208.0810  153.3200 C   0  0  1  0  0  3  0  0  0  0  0  0
  160.3720  212.0820  154.9130 C   0  0  1  0  0  3  0  0  0  0  0  0
  159.3330  212.7370  154.1250 N   0  0  0  0  0  2  0  0  0  0  0  0
  157.9510  212.7360  154.4930 C   0  0  0  0  0  0  0  0  0  0  0  0
  157.0050  213.3670  153.6420 N   0  0  0  0  0  1  0  0  0  0  0  0
  157.5700  212.2030  155.5680 O   0  0  0  0  0  0  0  0  0  0  0  0
  161.2200  211.8830  157.2600 C   0  0  0  0  0  1  0  0  0  0  0  0
  160.0090  212.1640  156.3870 C   0  0  0  0  0  2  0  0  0  0  0  0
  160.8070  202.8770  147.7610 C   0  0  2  0  0  3  0  0  0  0  0  0
  160.1180  202.0160  149.8760 O   0  0  0  0  0  0  0  0  0  0  0  0
  159.7920  200.9830  148.9800 C   0  0  0  0  0  2  0  0  0  0  0  0
  161.0150  201.7960  148.8140 C   0  0  1  0  0  3  0  0  0  0  0  0
  161.3830  202.4630  146.5560 O   0  0  0  0  0  0  0  0  0  0  0  0
  160.6110  201.3770  146.1400 C   0  0  0  0  0  2  0  0  0  0  0  0
  160.0690  203.1950  144.5320 C   0  0  0  0  0  1  0  0  0  0  0  0
  159.8580  201.7330  144.8710 C   0  0  0  0  0  2  0  0  0  0  0  0
  1 47  1  6  0  0  0
  1  3  1  0  0  0  0
  2  8  1  1  0  0  0
  2  1  1  0  0  0  0
  2  4  1  0  0  0  0
  3 25  1  1  0  0  0
  4  3  1  0  0  0  0
  5  6  1  0  0  0  0
  5  7  1  0  0  0  0
  6  7  1  0  0  0  0
  7 11  1  6  0  0  0
  8  5  1  0  0  0  0
  9  8  2  0  0  0  0
 11 10  2  0  0  0  0
 12 11  1  0  0  0  0
 12 13  1  0  0  0  0
 14 13  1  0  0  0  0
 17 15  1  6  0  0  0
 17 24  1  0  0  0  0
 18 17  1  0  0  0  0
 18 20  1  0  0  0  0
 19 21  1  1  0  0  0
 20 16  1  1  0  0  0
 20 23  1  0  0  0  0
 23 19  1  0  0  0  0
 23 22  1  1  0  0  0
 24 14  1  1  0  0  0
 24 19  1  0  0  0  0
 25 26  1  0  0  0  0
 26 29  1  0  0  0  0
 26 30  1  1  0  0  0
 29 27  1  1  0  0  0
 29 28  1  0  0  0  0
 30 38  1  0  0  0  0
 31 37  1  0  0  0  0
 31 32  2  0  0  0  0
 33 35  2  0  0  0  0
 34 40  1  0  0  0  0
 34 37  2  0  0  0  0
 35 34  1  0  0  0  0
 36 32  1  0  0  0  0
 38 36  2  0  0  0  0
 39 33  1  1  0  0  0
 39 38  1  0  0  0  0
 39 31  1  0  0  0  0
 40 46  1  1  0  0  0
 41 42  1  0  0  0  0
 41 40  1  0  0  0  0
 42 44  2  0  0  0  0
 43 42  1  0  0  0  0
 46 45  1  0  0  0  0
 47 51  1  6  0  0  0
 49 48  1  0  0  0  0
 50 47  1  6  0  0  0
 50 49  1  0  0  0  0
 50 48  1  0  0  0  0
 52 51  1  0  0  0  0
 53 54  1  0  0  0  0
 54 52  1  0  0  0  0
M  END
>  <MODEL>
3

>  <REMARK>
 VINA RESULT:      -3.7      2.899      4.149
  Name = 
  19 active torsions:
  status: ('A' for Active; 'I' for Inactive)
    1  A    between atoms: C_2  and  C_7
    2  A    between atoms: C_2  and  C_39
    3  A    between atoms: C_3  and  C_24
    4  A    between atoms: C_3  and  O_26
    5  A    between atoms: N_4  and  C_21
    6  A    between atoms: C_5  and  C_15
    7  A    between atoms: C_5  and  O_26
    8  A    between atoms: C_5  and  C_45
    9  A    between atoms: C_7  and  N_16
   10  A    between atoms: N_8  and  N_16
   11  A    between atoms: N_8  and  C_46
   12  A    between atoms: C_21  and  C_25
   13  A    between atoms: C_21  and  C_36
   14  A    between atoms: C_22  and  C_41
   15  A    between atoms: O_23  and  C_42
   16  A    between atoms: O_23  and  C_47
   17  A    between atoms: C_33  and  C_42
   18  A    between atoms: C_33  and  C_51
   19  A    between atoms: C_42  and  C_53
                            x       y       z     vdW  Elec       q    Type
                         _______ _______ _______ _____ _____    ______ ____

>  <TORSDO>
F 19

$$$$
=
 OpenBabel11052410073D

 54 59  0  0  1  0  0  0  0  0999 V2000
  161.4710  204.1890  148.4540 C   0  0  1  0  0  3  0  0  0  0  0  0
  160.7600  205.2950  147.6930 C   0  0  1  0  0  3  0  0  0  0  0  0
  160.9120  204.7290  149.7630 C   0  0  2  0  0  3  0  0  0  0  0  0
  160.1920  205.8260  148.9970 C   0  0  0  0  0  2  0  0  0  0  0  0
  162.5520  207.1170  147.8440 N   0  0  0  0  0  0  0  0  0  0  0  0
  163.5590  208.2100  147.9740 C   0  0  0  0  0  2  0  0  0  0  0  0
  162.9870  207.7320  149.1350 C   0  0  1  0  0  3  0  0  0  0  0  0
  161.7610  206.2220  147.0620 C   0  0  0  0  0  0  0  0  0  0  0  0
  161.9080  206.2000  145.8130 O   0  0  0  0  0  0  0  0  0  0  0  0
  160.8620  208.2680  150.0650 O   0  0  0  0  0  0  0  0  0  0  0  0
  161.9370  208.6780  149.6480 C   0  0  0  0  0  0  0  0  0  0  0  0
  162.2380  210.1380  149.7000 C   0  0  0  0  0  2  0  0  0  0  0  0
  161.0300  210.8790  150.0170 N   0  0  0  0  0  2  0  0  0  0  0  0
  161.3760  212.2400  149.9950 N   0  0  0  0  0  2  0  0  0  0  0  0
  163.2800  212.2110  147.5060 O   0  0  0  0  0  1  0  0  0  0  0  0
  161.2930  213.1340  145.3970 O   0  0  0  0  0  1  0  0  0  0  0  0
  162.5720  213.2630  148.0840 C   0  0  1  0  0  3  0  0  0  0  0  0
  162.4260  214.4120  147.0770 C   0  0  0  0  0  2  0  0  0  0  0  0
  160.1040  213.7790  148.5120 C   0  0  2  0  0  3  0  0  0  0  0  0
  161.1770  214.2670  146.2080 C   0  0  2  0  0  3  0  0  0  0  0  0
  158.9190  213.2910  149.0690 O   0  0  0  0  0  1  0  0  0  0  0  0
  158.9020  213.4550  146.4240 O   0  0  0  0  0  1  0  0  0  0  0  0
  159.8850  214.2260  147.0530 C   0  0  1  0  0  3  0  0  0  0  0  0
  161.2280  212.7410  148.6270 C   0  0  2  0  0  3  0  0  0  0  0  0
  161.9560  205.2920  150.5190 O   0  0  0  0  0  0  0  0  0  0  0  0
  161.5860  205.3400  151.8860 C   0  0  1  0  0  3  0  0  0  0  0  0
  160.0960  203.4830  152.6910 C   0  0  0  0  0  1  0  0  0  0  0  0
  162.3130  203.0360  151.9520 F   0  0  0  0  0  0  0  0  0  0  0  0
  161.5250  203.9790  152.5870 C   0  0  1  0  0  3  0  0  0  0  0  0
  162.3350  206.3980  152.6970 C   0  0  0  0  0  2  0  0  0  0  0  0
  160.0150  208.4820  154.7370 C   0  0  0  0  0  0  0  0  0  0  0  0
  160.2710  207.5170  155.5550 N   0  0  0  0  0  0  0  0  0  0  0  0
  161.5560  209.4800  153.1740 N   0  0  0  0  0  0  0  0  0  0  0  0
  160.1860  210.8260  154.6550 C   0  0  0  0  0  0  0  0  0  0  0  0
  161.3030  210.6510  153.6890 C   0  0  0  0  0  3  0  0  0  0  0  0
  161.1260  206.6090  154.8750 C   0  0  0  0  0  3  0  0  0  0  0  0
  159.6240  209.7770  155.1920 N   0  0  0  0  0  0  0  0  0  0  0  0
  161.4210  207.0710  153.6670 C   0  0  0  0  0  0  0  0  0  0  0  0
  160.6780  208.3310  153.4140 C   0  0  1  0  0  3  0  0  0  0  0  0
  159.8350  212.2080  155.1250 C   0  0  1  0  0  3  0  0  0  0  0  0
  158.5180  212.6030  154.6390 N   0  0  0  0  0  2  0  0  0  0  0  0
  158.3170  213.3670  153.4470 C   0  0  0  0  0  0  0  0  0  0  0  0
  156.9990  213.7400  153.0730 N   0  0  0  0  0  1  0  0  0  0  0  0
  159.2910  213.6920  152.7180 O   0  0  0  0  0  0  0  0  0  0  0  0
  160.4630  213.5890  157.1170 C   0  0  0  0  0  1  0  0  0  0  0  0
  159.8510  212.2820  156.6450 C   0  0  0  0  0  2  0  0  0  0  0  0
  160.8420  202.8410  148.1010 C   0  0  2  0  0  3  0  0  0  0  0  0
  160.4290  201.6620  150.1320 O   0  0  0  0  0  0  0  0  0  0  0  0
  160.3540  200.6590  149.1500 C   0  0  0  0  0  2  0  0  0  0  0  0
  161.3320  201.7630  149.0570 C   0  0  1  0  0  3  0  0  0  0  0  0
  161.1910  202.4920  146.7920 O   0  0  0  0  0  0  0  0  0  0  0  0
  159.9790  202.2160  146.1560 C   0  0  0  0  0  2  0  0  0  0  0  0
  160.8300  199.9380  145.6360 C   0  0  0  0  0  1  0  0  0  0  0  0
  160.1920  201.1870  145.0610 C   0  0  0  0  0  2  0  0  0  0  0  0
  1 47  1  6  0  0  0
  1  3  1  0  0  0  0
  2  8  1  1  0  0  0
  2  1  1  0  0  0  0
  2  4  1  0  0  0  0
  3 25  1  1  0  0  0
  4  3  1  0  0  0  0
  5  6  1  0  0  0  0
  5  7  1  0  0  0  0
  6  7  1  0  0  0  0
  7 11  1  6  0  0  0
  8  5  1  0  0  0  0
  9  8  2  0  0  0  0
 11 12  1  0  0  0  0
 11 10  2  0  0  0  0
 12 13  1  0  0  0  0
 14 13  1  0  0  0  0
 17 15  1  6  0  0  0
 17 24  1  0  0  0  0
 18 17  1  0  0  0  0
 19 24  1  0  0  0  0
 19 21  1  6  0  0  0
 20 16  1  1  0  0  0
 20 23  1  0  0  0  0
 20 18  1  0  0  0  0
 23 22  1  6  0  0  0
 23 19  1  0  0  0  0
 24 14  1  1  0  0  0
 25 26  1  0  0  0  0
 26 29  1  0  0  0  0
 26 30  1  1  0  0  0
 28 29  1  0  0  0  0
 29 27  1  6  0  0  0
 30 38  1  0  0  0  0
 31 37  1  0  0  0  0
 31 32  2  0  0  0  0
 33 35  2  0  0  0  0
 34 40  1  0  0  0  0
 34 37  2  0  0  0  0
 35 34  1  0  0  0  0
 36 32  1  0  0  0  0
 38 36  2  0  0  0  0
 39 33  1  1  0  0  0
 39 38  1  0  0  0  0
 39 31  1  0  0  0  0
 40 46  1  1  0  0  0
 41 40  1  0  0  0  0
 42 41  1  0  0  0  0
 43 42  1  0  0  0  0
 44 42  2  0  0  0  0
 46 45  1  0  0  0  0
 47 51  1  6  0  0  0
 49 48  1  0  0  0  0
 50 47  1  6  0  0  0
 50 49  1  0  0  0  0
 50 48  1  0  0  0  0
 52 51  1  0  0  0  0
 54 53  1  0  0  0  0
 54 52  1  0  0  0  0
M  END
>  <MODEL>
4

>  <REMARK>
 VINA RESULT:      -3.2      2.644      3.765
  Name = 
  19 active torsions:
  status: ('A' for Active; 'I' for Inactive)
    1  A    between atoms: C_2  and  C_7
    2  A    between atoms: C_2  and  C_39
    3  A    between atoms: C_3  and  C_24
    4  A    between atoms: C_3  and  O_26
    5  A    between atoms: N_4  and  C_21
    6  A    between atoms: C_5  and  C_15
    7  A    between atoms: C_5  and  O_26
    8  A    between atoms: C_5  and  C_45
    9  A    between atoms: C_7  and  N_16
   10  A    between atoms: N_8  and  N_16
   11  A    between atoms: N_8  and  C_46
   12  A    between atoms: C_21  and  C_25
   13  A    between atoms: C_21  and  C_36
   14  A    between atoms: C_22  and  C_41
   15  A    between atoms: O_23  and  C_42
   16  A    between atoms: O_23  and  C_47
   17  A    between atoms: C_33  and  C_42
   18  A    between atoms: C_33  and  C_51
   19  A    between atoms: C_42  and  C_53
                            x       y       z     vdW  Elec       q    Type
                         _______ _______ _______ _____ _____    ______ ____

>  <TORSDO>
F 19

$$$$
=
 OpenBabel11052410073D

 54 59  0  0  1  0  0  0  0  0999 V2000
  159.9260  210.7760  152.8010 C   0  0  1  0  0  3  0  0  0  0  0  0
  160.4480  212.1040  152.2770 C   0  0  1  0  0  3  0  0  0  0  0  0
  161.0240  210.0450  152.0430 C   0  0  2  0  0  3  0  0  0  0  0  0
  161.5510  211.3750  151.5320 C   0  0  0  0  0  2  0  0  0  0  0  0
  159.5600  212.6720  149.9440 N   0  0  0  0  0  0  0  0  0  0  0  0
  159.1030  213.0190  148.5670 C   0  0  0  0  0  2  0  0  0  0  0  0
  160.2520  212.2630  148.6830 C   0  0  1  0  0  3  0  0  0  0  0  0
  159.4370  212.7390  151.3640 C   0  0  0  0  0  0  0  0  0  0  0  0
  158.4520  213.3370  151.8690 O   0  0  0  0  0  0  0  0  0  0  0  0
  162.5940  212.6890  148.7340 O   0  0  0  0  0  0  0  0  0  0  0  0
  161.4770  213.1050  148.4570 C   0  0  0  0  0  0  0  0  0  0  0  0
  161.3280  214.4510  147.8310 C   0  0  0  0  0  2  0  0  0  0  0  0
  161.6560  214.3760  146.4190 N   0  0  0  0  0  2  0  0  0  0  0  0
  160.8920  213.3260  145.8840 N   0  0  0  0  0  2  0  0  0  0  0  0
  158.7960  213.4000  143.5540 O   0  0  0  0  0  1  0  0  0  0  0  0
  160.7000  213.9170  141.2410 O   0  0  0  0  0  1  0  0  0  0  0  0
  159.8840  212.5530  143.7600 C   0  0  1  0  0  3  0  0  0  0  0  0
  160.2820  211.8840  142.4370 C   0  0  0  0  0  2  0  0  0  0  0  0
  162.4140  212.8560  143.9740 C   0  0  2  0  0  3  0  0  0  0  0  0
  161.2920  212.7170  141.6460 C   0  0  2  0  0  3  0  0  0  0  0  0
  163.4240  213.5500  144.6450 O   0  0  0  0  0  1  0  0  0  0  0  0
  163.1670  214.1900  142.0870 O   0  0  0  0  0  1  0  0  0  0  0  0
  162.5880  212.9680  142.4470 C   0  0  1  0  0  3  0  0  0  0  0  0
  161.0290  213.3380  144.4260 C   0  0  2  0  0  3  0  0  0  0  0  0
  160.4560  209.3240  150.9770 O   0  0  0  0  0  0  0  0  0  0  0  0
  161.3370  208.2900  150.5730 C   0  0  1  0  0  3  0  0  0  0  0  0
  161.9520  207.7450  148.1990 C   0  0  0  0  0  1  0  0  0  0  0  0
  162.1270  209.9680  149.0240 F   0  0  0  0  0  0  0  0  0  0  0  0
  162.2420  208.6390  149.3870 C   0  0  1  0  0  3  0  0  0  0  0  0
  162.0900  207.6280  151.7270 C   0  0  0  0  0  2  0  0  0  0  0  0
  161.4090  203.9700  151.5220 C   0  0  0  0  0  0  0  0  0  0  0  0
  160.8140  204.2740  152.6250 N   0  0  0  0  0  0  0  0  0  0  0  0
  161.5380  205.3370  149.5400 N   0  0  0  0  0  0  0  0  0  0  0  0
  160.8950  203.0010  149.4410 C   0  0  0  0  0  0  0  0  0  0  0  0
  161.0410  204.3550  148.8430 C   0  0  0  0  0  3  0  0  0  0  0  0
  161.0370  205.6590  152.8520 C   0  0  0  0  0  3  0  0  0  0  0  0
  161.0140  202.8480  150.7320 N   0  0  0  0  0  0  0  0  0  0  0  0
  161.7220  206.1860  151.8450 C   0  0  0  0  0  0  0  0  0  0  0  0
  162.0960  205.1220  150.8790 C   0  0  1  0  0  3  0  0  0  0  0  0
  160.4470  201.8610  148.5730 C   0  0  1  0  0  3  0  0  0  0  0  0
  160.6910  202.1540  147.1650 N   0  0  0  0  0  2  0  0  0  0  0  0
  159.7980  201.7690  146.1160 C   0  0  0  0  0  0  0  0  0  0  0  0
  160.1390  202.0630  144.7690 N   0  0  0  0  0  1  0  0  0  0  0  0
  158.7070  201.1960  146.3770 O   0  0  0  0  0  0  0  0  0  0  0  0
  161.9480  200.0260  147.7680 C   0  0  0  0  0  1  0  0  0  0  0  0
  161.1710  200.5780  148.9500 C   0  0  0  0  0  2  0  0  0  0  0  0
  160.1520  210.7000  154.3100 C   0  0  2  0  0  3  0  0  0  0  0  0
  159.1430  212.1220  155.9370 O   0  0  0  0  0  0  0  0  0  0  0  0
  160.4840  212.0500  156.3520 C   0  0  0  0  0  2  0  0  0  0  0  0
  160.1170  212.0940  154.9210 C   0  0  1  0  0  3  0  0  0  0  0  0
  161.3970  210.1160  154.5660 O   0  0  0  0  0  0  0  0  0  0  0  0
  161.1190  208.7740  154.8330 C   0  0  0  0  0  2  0  0  0  0  0  0
  160.1590  207.2860  156.5790 C   0  0  0  0  0  1  0  0  0  0  0  0
  160.1100  208.6690  155.9620 C   0  0  0  0  0  2  0  0  0  0  0  0
  1 47  1  1  0  0  0
  2  8  1  6  0  0  0
  2  1  1  0  0  0  0
  3 25  1  6  0  0  0
  3  1  1  0  0  0  0
  4  3  1  0  0  0  0
  4  2  1  0  0  0  0
  5  8  1  0  0  0  0
  6  7  1  0  0  0  0
  6  5  1  0  0  0  0
  7 11  1  1  0  0  0
  7  5  1  0  0  0  0
  8  9  2  0  0  0  0
 11 10  2  0  0  0  0
 12 11  1  0  0  0  0
 13 12  1  0  0  0  0
 14 13  1  0  0  0  0
 17 15  1  6  0  0  0
 17 24  1  0  0  0  0
 18 17  1  0  0  0  0
 19 24  1  0  0  0  0
 19 21  1  1  0  0  0
 20 16  1  1  0  0  0
 20 18  1  0  0  0  0
 20 23  1  0  0  0  0
 23 22  1  1  0  0  0
 23 19  1  0  0  0  0
 24 14  1  1  0  0  0
 26 25  1  0  0  0  0
 26 30  1  1  0  0  0
 28 29  1  0  0  0  0
 29 27  1  6  0  0  0
 29 26  1  0  0  0  0
 30 38  1  0  0  0  0
 31 32  2  0  0  0  0
 32 36  1  0  0  0  0
 34 37  2  0  0  0  0
 35 34  1  0  0  0  0
 35 33  2  0  0  0  0
 37 31  1  0  0  0  0
 38 36  2  0  0  0  0
 39 33  1  6  0  0  0
 39 31  1  0  0  0  0
 39 38  1  0  0  0  0
 40 46  1  1  0  0  0
 40 34  1  0  0  0  0
 41 40  1  0  0  0  0
 42 44  2  0  0  0  0
 42 41  1  0  0  0  0
 43 42  1  0  0  0  0
 45 46  1  0  0  0  0
 47 51  1  6  0  0  0
 48 49  1  0  0  0  0
 50 47  1  6  0  0  0
 50 48  1  0  0  0  0
 50 49  1  0  0  0  0
 51 52  1  0  0  0  0
 52 54  1  0  0  0  0
 54 53  1  0  0  0  0
M  END
>  <MODEL>
5

>  <REMARK>
 VINA RESULT:      -2.8      3.048      7.510
  Name = 
  19 active torsions:
  status: ('A' for Active; 'I' for Inactive)
    1  A    between atoms: C_2  and  C_7
    2  A    between atoms: C_2  and  C_39
    3  A    between atoms: C_3  and  C_24
    4  A    between atoms: C_3  and  O_26
    5  A    between atoms: N_4  and  C_21
    6  A    between atoms: C_5  and  C_15
    7  A    between atoms: C_5  and  O_26
    8  A    between atoms: C_5  and  C_45
    9  A    between atoms: C_7  and  N_16
   10  A    between atoms: N_8  and  N_16
   11  A    between atoms: N_8  and  C_46
   12  A    between atoms: C_21  and  C_25
   13  A    between atoms: C_21  and  C_36
   14  A    between atoms: C_22  and  C_41
   15  A    between atoms: O_23  and  C_42
   16  A    between atoms: O_23  and  C_47
   17  A    between atoms: C_33  and  C_42
   18  A    between atoms: C_33  and  C_51
   19  A    between atoms: C_42  and  C_53
                            x       y       z     vdW  Elec       q    Type
                         _______ _______ _______ _____ _____    ______ ____

>  <TORSDO>
F 19

$$$$
=
 OpenBabel11052410073D

 54 59  0  0  1  0  0  0  0  0999 V2000
  161.2820  205.5410  147.7700 C   0  0  1  0  0  3  0  0  0  0  0  0
  162.0800  204.7490  148.7930 C   0  0  1  0  0  3  0  0  0  0  0  0
  161.8130  206.8400  148.3600 C   0  0  2  0  0  3  0  0  0  0  0  0
  162.6190  206.0450  149.3720 C   0  0  0  0  0  2  0  0  0  0  0  0
  160.6310  204.6440  150.9010 N   0  0  0  0  0  0  0  0  0  0  0  0
  159.8350  204.6120  152.1620 C   0  0  0  0  0  2  0  0  0  0  0  0
  160.4870  205.7880  151.8530 C   0  0  1  0  0  3  0  0  0  0  0  0
  161.1550  204.0230  149.7270 C   0  0  0  0  0  0  0  0  0  0  0  0
  160.8280  202.8370  149.4610 O   0  0  0  0  0  0  0  0  0  0  0  0
  162.8290  205.6150  152.2460 O   0  0  0  0  0  0  0  0  0  0  0  0
  161.7330  205.9480  152.6780 C   0  0  0  0  0  0  0  0  0  0  0  0
  161.6350  206.5750  154.0280 C   0  0  0  0  0  2  0  0  0  0  0  0
  160.5990  207.5930  154.0230 N   0  0  0  0  0  2  0  0  0  0  0  0
  160.3150  207.8840  155.3680 N   0  0  0  0  0  2  0  0  0  0  0  0
  158.0640  210.0080  154.8750 O   0  0  0  0  0  1  0  0  0  0  0  0
  159.3930  212.4000  156.2020 O   0  0  0  0  0  1  0  0  0  0  0  0
  159.3920  209.9890  154.4520 C   0  0  1  0  0  3  0  0  0  0  0  0
  159.8380  211.4070  154.0680 C   0  0  0  0  0  2  0  0  0  0  0  0
  161.6720  209.9530  155.6090 C   0  0  2  0  0  3  0  0  0  0  0  0
  160.4030  212.1810  155.2600 C   0  0  2  0  0  3  0  0  0  0  0  0
  162.4550  209.2950  156.5610 O   0  0  0  0  0  1  0  0  0  0  0  0
  161.6980  211.7360  157.2610 O   0  0  0  0  0  1  0  0  0  0  0  0
  161.6180  211.4680  155.8900 C   0  0  1  0  0  3  0  0  0  0  0  0
  160.2690  209.3370  155.5370 C   0  0  2  0  0  3  0  0  0  0  0  0
  160.7690  207.5150  149.0170 O   0  0  0  0  0  0  0  0  0  0  0  0
  161.2190  208.7850  149.4550 C   0  0  1  0  0  3  0  0  0  0  0  0
  162.7050  209.7890  151.2160 C   0  0  0  0  0  1  0  0  0  0  0  0
  160.4190  209.3160  151.6730 F   0  0  0  0  0  0  0  0  0  0  0  0
  161.5190  208.8830  150.9550 C   0  0  1  0  0  3  0  0  0  0  0  0
  162.3210  209.3900  148.5840 C   0  0  0  0  0  2  0  0  0  0  0  0
  161.3130  212.9300  148.0040 C   0  0  0  0  0  0  0  0  0  0  0  0
  162.5530  213.0720  148.3290 N   0  0  0  0  0  0  0  0  0  0  0  0
  160.3700  211.1260  146.7100 N   0  0  0  0  0  0  0  0  0  0  0  0
  159.8810  213.4480  146.2110 C   0  0  0  0  0  0  0  0  0  0  0  0
  159.8640  211.9980  145.8840 C   0  0  0  0  0  3  0  0  0  0  0  0
  163.0580  211.7780  148.6250 C   0  0  0  0  0  3  0  0  0  0  0  0
  160.6290  213.8820  147.1890 N   0  0  0  0  0  0  0  0  0  0  0  0
  162.1230  210.8600  148.4200 C   0  0  0  0  0  0  0  0  0  0  0  0
  160.8470  211.5180  148.0400 C   0  0  1  0  0  3  0  0  0  0  0  0
  159.1710  214.4120  145.3040 C   0  0  1  0  0  3  0  0  0  0  0  0
  159.5570  214.1980  143.9140 N   0  0  0  0  0  2  0  0  0  0  0  0
  160.9130  214.2340  143.4610 C   0  0  0  0  0  0  0  0  0  0  0  0
  161.1900  214.0530  142.0800 N   0  0  0  0  0  1  0  0  0  0  0  0
  161.8610  214.4010  144.2740 O   0  0  0  0  0  0  0  0  0  0  0  0
  157.2970  213.5440  146.7200 C   0  0  0  0  0  1  0  0  0  0  0  0
  157.6630  214.2640  145.4340 C   0  0  0  0  0  2  0  0  0  0  0  0
  161.8560  205.2950  146.3750 C   0  0  2  0  0  3  0  0  0  0  0  0
  160.2950  206.5770  145.1080 O   0  0  0  0  0  0  0  0  0  0  0  0
  161.1240  206.0080  144.1260 C   0  0  0  0  0  2  0  0  0  0  0  0
  160.7370  205.2620  145.3420 C   0  0  1  0  0  3  0  0  0  0  0  0
  162.5360  204.0730  146.3590 O   0  0  0  0  0  0  0  0  0  0  0  0
  161.8340  203.2810  145.4470 C   0  0  0  0  0  2  0  0  0  0  0  0
  160.9030  201.0310  145.9520 C   0  0  0  0  0  1  0  0  0  0  0  0
  160.7320  202.5210  146.1630 C   0  0  0  0  0  2  0  0  0  0  0  0
  1 47  1  6  0  0  0
  1  3  1  0  0  0  0
  1  2  1  0  0  0  0
  2  4  1  0  0  0  0
  2  8  1  1  0  0  0
  3 25  1  1  0  0  0
  3  4  1  0  0  0  0
  5  7  1  0  0  0  0
  5  6  1  0  0  0  0
  7  6  1  0  0  0  0
  7 11  1  1  0  0  0
  8  5  1  0  0  0  0
  9  8  2  0  0  0  0
 10 11  2  0  0  0  0
 11 12  1  0  0  0  0
 13 12  1  0  0  0  0
 13 14  1  0  0  0  0
 17 15  1  1  0  0  0
 17 24  1  0  0  0  0
 18 17  1  0  0  0  0
 18 20  1  0  0  0  0
 19 23  1  0  0  0  0
 19 21  1  1  0  0  0
 20 23  1  0  0  0  0
 20 16  1  1  0  0  0
 23 22  1  1  0  0  0
 24 14  1  6  0  0  0
 24 19  1  0  0  0  0
 25 26  1  0  0  0  0
 26 30  1  6  0  0  0
 26 29  1  0  0  0  0
 29 27  1  6  0  0  0
 29 28  1  0  0  0  0
 31 39  1  0  0  0  0
 31 32  2  0  0  0  0
 32 36  1  0  0  0  0
 34 37  2  0  0  0  0
 35 34  1  0  0  0  0
 35 33  2  0  0  0  0
 37 31  1  0  0  0  0
 38 30  1  0  0  0  0
 38 36  2  0  0  0  0
 39 33  1  6  0  0  0
 39 38  1  0  0  0  0
 40 46  1  6  0  0  0
 40 34  1  0  0  0  0
 41 40  1  0  0  0  0
 42 41  1  0  0  0  0
 42 44  2  0  0  0  0
 43 42  1  0  0  0  0
 46 45  1  0  0  0  0
 47 51  1  1  0  0  0
 48 50  1  0  0  0  0
 49 48  1  0  0  0  0
 49 50  1  0  0  0  0
 50 47  1  1  0  0  0
 52 54  1  0  0  0  0
 52 51  1  0  0  0  0
 53 54  1  0  0  0  0
M  END
>  <MODEL>
6

>  <REMARK>
 VINA RESULT:      -1.8      2.549      8.840
  Name = 
  19 active torsions:
  status: ('A' for Active; 'I' for Inactive)
    1  A    between atoms: C_2  and  C_7
    2  A    between atoms: C_2  and  C_39
    3  A    between atoms: C_3  and  C_24
    4  A    between atoms: C_3  and  O_26
    5  A    between atoms: N_4  and  C_21
    6  A    between atoms: C_5  and  C_15
    7  A    between atoms: C_5  and  O_26
    8  A    between atoms: C_5  and  C_45
    9  A    between atoms: C_7  and  N_16
   10  A    between atoms: N_8  and  N_16
   11  A    between atoms: N_8  and  C_46
   12  A    between atoms: C_21  and  C_25
   13  A    between atoms: C_21  and  C_36
   14  A    between atoms: C_22  and  C_41
   15  A    between atoms: O_23  and  C_42
   16  A    between atoms: O_23  and  C_47
   17  A    between atoms: C_33  and  C_42
   18  A    between atoms: C_33  and  C_51
   19  A    between atoms: C_42  and  C_53
                            x       y       z     vdW  Elec       q    Type
                         _______ _______ _______ _____ _____    ______ ____

>  <TORSDO>
F 19

$$$$
