=
 OpenBabel11042422273D

 34 39  0  0  1  0  0  0  0  0999 V2000
  161.2310  209.8670  152.8280 C   0  0  0  0  0  2  0  0  0  0  0  0
  161.0380  209.5740  154.3220 C   0  0  1  0  0  0  0  0  0  0  0  0
  159.5200  208.7230  156.0120 C   0  0  0  0  0  2  0  0  0  0  0  0
  161.5890  208.1310  157.2600 C   0  0  0  0  0  1  0  0  0  0  0  0
  160.8350  208.7020  151.9360 C   0  0  0  0  0  2  0  0  0  0  0  0
  159.5630  209.5350  154.7280 C   0  0  1  0  0  3  0  0  0  0  0  0
  161.5720  208.1990  154.7670 C   0  0  1  0  0  3  0  0  0  0  0  0
  160.7700  207.8490  156.0160 C   0  0  2  0  0  3  0  0  0  0  0  0
  161.8010  210.6500  155.0920 C   0  0  0  0  0  1  0  0  0  0  0  0
  161.6480  207.4800  152.3290 C   0  0  1  0  0  3  0  0  0  0  0  0
  161.3030  207.0770  153.7550 C   0  0  0  0  0  2  0  0  0  0  0  0
  161.0340  204.5650  148.3530 C   0  0  0  0  0  3  0  0  0  0  0  0
  160.8070  203.0730  148.1840 C   0  0  0  0  0  3  0  0  0  0  0  0
  161.4030  206.3480  151.3760 C   0  0  0  0  0  0  0  0  0  0  0  0
  161.0630  204.2880  150.7660 C   0  0  0  0  0  0  0  0  0  0  0  0
  161.2120  205.0000  151.8340 N   0  0  0  0  0  2  0  0  0  0  0  0
  161.3610  206.4310  150.0380 C   0  0  0  0  0  0  0  0  0  0  0  0
  160.8470  202.8460  150.7000 C   0  0  0  0  0  3  0  0  0  0  0  0
  161.1450  205.0780  149.5730 C   0  0  0  0  0  0  0  0  0  0  0  0
  160.7280  202.2830  149.4880 C   0  0  0  0  0  3  0  0  0  0  0  0
  162.7090  207.4250  148.3060 N   0  0  0  0  0  1  0  0  0  0  0  0
  161.5820  207.6440  149.1950 C   0  0  0  0  0  2  0  0  0  0  0  0
  158.3270  211.5930  153.9150 C   0  0  0  0  0  0  0  0  0  0  0  0
  158.1850  211.0930  152.7660 O   0  0  0  0  0  0  0  0  0  0  0  0
  158.9930  210.8610  154.9460 N   0  0  0  0  0  2  0  0  0  0  0  0
  155.4190  214.3210  156.8580 C   0  0  0  0  0  2  0  0  0  0  0  0
  157.8260  212.9840  154.1810 C   0  0  1  0  0  3  0  0  0  0  0  0
  156.1620  214.3180  155.5200 C   0  0  0  0  0  2  0  0  0  0  0  0
  159.5970  214.1320  155.8320 O   0  0  0  0  0  0  0  0  0  0  0  0
  156.9990  211.9780  156.4340 C   0  0  0  0  0  2  0  0  0  0  0  0
  157.1510  213.1500  155.4420 C   0  0  1  0  0  0  0  0  0  0  0  0
  154.8390  212.9610  157.1260 C   0  0  0  0  0  3  0  0  0  0  0  0
  155.5800  211.8630  156.9210 C   0  0  0  0  0  3  0  0  0  0  0  0
  158.5960  213.6300  155.3480 C   0  0  0  0  0  0  0  0  0  0  0  0
  1  2  1  0  0  0  0
  2  6  1  0  0  0  0
  2  7  1  0  0  0  0
  2  9  1  1  0  0  0
  3  8  1  0  0  0  0
  5 10  1  0  0  0  0
  5  1  1  0  0  0  0
  6 25  1  1  0  0  0
  6  3  1  0  0  0  0
  7 11  1  6  0  0  0
  7  8  1  0  0  0  0
  8  4  1  1  0  0  0
 10 14  1  6  0  0  0
 10 11  1  0  0  0  0
 12 19  1  0  0  0  0
 13 12  2  0  0  0  0
 13 20  1  0  0  0  0
 14 16  1  0  0  0  0
 15 16  1  0  0  0  0
 17 14  2  0  0  0  0
 18 15  1  0  0  0  0
 19 17  1  0  0  0  0
 19 15  2  0  0  0  0
 20 18  2  0  0  0  0
 21 22  1  0  0  0  0
 22 17  1  0  0  0  0
 23 25  1  0  0  0  0
 24 23  2  0  0  0  0
 26 32  1  0  0  0  0
 27 23  1  1  0  0  0
 27 34  1  0  0  0  0
 27 31  1  0  0  0  0
 28 26  1  0  0  0  0
 30 33  1  0  0  0  0
 31 28  1  1  0  0  0
 31 30  1  0  0  0  0
 33 32  2  0  0  0  0
 34 31  1  0  0  0  0
 34 29  2  0  0  0  0
M  END
>  <MODEL>
1

>  <REMARK>
 VINA RESULT:      -9.1      0.000      0.000
  Name = 
  4 active torsions:
  status: ('A' for Active; 'I' for Inactive)
    1  A    between atoms: C_3  and  C_14
    2  A    between atoms: C_6  and  C_27
    3  A    between atoms: C_17  and  N_29
    4  A    between atoms: C_24  and  C_28
                            x       y       z     vdW  Elec       q    Type
                         _______ _______ _______ _____ _____    ______ ____

>  <TORSDO>
F 4

$$$$
=
 OpenBabel11042422273D

 34 39  0  0  1  0  0  0  0  0999 V2000
  160.8030  209.4110  152.6230 C   0  0  0  0  0  2  0  0  0  0  0  0
  160.9080  209.2530  154.1460 C   0  0  1  0  0  0  0  0  0  0  0  0
  159.8570  208.3550  156.1380 C   0  0  0  0  0  2  0  0  0  0  0  0
  162.1710  208.2430  157.0440 C   0  0  0  0  0  1  0  0  0  0  0  0
  160.4820  208.1070  151.9090 C   0  0  0  0  0  2  0  0  0  0  0  0
  159.5480  209.0200  154.8080 C   0  0  1  0  0  3  0  0  0  0  0  0
  161.7410  208.0380  154.5950 C   0  0  1  0  0  3  0  0  0  0  0  0
  161.2270  207.7000  155.9900 C   0  0  2  0  0  3  0  0  0  0  0  0
  161.5820  210.5150  154.6810 C   0  0  0  0  0  1  0  0  0  0  0  0
  161.5510  207.0830  152.2470 C   0  0  1  0  0  3  0  0  0  0  0  0
  161.5170  206.7850  153.7380 C   0  0  0  0  0  2  0  0  0  0  0  0
  160.9220  203.6890  148.6730 C   0  0  0  0  0  3  0  0  0  0  0  0
  160.8770  202.1700  148.6800 C   0  0  0  0  0  3  0  0  0  0  0  0
  161.3600  205.8300  151.4440 C   0  0  0  0  0  0  0  0  0  0  0  0
  161.2340  203.6890  151.0820 C   0  0  0  0  0  0  0  0  0  0  0  0
  161.3970  204.5280  152.0510 N   0  0  0  0  0  2  0  0  0  0  0  0
  161.1720  205.7570  150.1190 C   0  0  0  0  0  0  0  0  0  0  0  0
  161.2040  202.2330  151.1830 C   0  0  0  0  0  3  0  0  0  0  0  0
  161.0890  204.3440  149.8170 C   0  0  0  0  0  0  0  0  0  0  0  0
  161.0360  201.5280  150.0550 C   0  0  0  0  0  3  0  0  0  0  0  0
  162.4520  207.0370  148.5280 N   0  0  0  0  0  1  0  0  0  0  0  0
  161.1440  206.8850  149.1400 C   0  0  0  0  0  2  0  0  0  0  0  0
  158.7980  210.9570  156.2610 C   0  0  0  0  0  0  0  0  0  0  0  0
  159.4900  210.5390  157.2300 O   0  0  0  0  0  0  0  0  0  0  0  0
  158.7950  210.2520  155.0180 N   0  0  0  0  0  2  0  0  0  0  0  0
  156.2400  214.4530  153.8540 C   0  0  0  0  0  2  0  0  0  0  0  0
  157.9440  212.1790  156.4390 C   0  0  1  0  0  3  0  0  0  0  0  0
  156.8550  214.0880  155.2070 C   0  0  0  0  0  2  0  0  0  0  0  0
  155.4190  211.3170  156.6890 O   0  0  0  0  0  0  0  0  0  0  0  0
  157.3760  211.8310  153.9230 C   0  0  0  0  0  2  0  0  0  0  0  0
  157.2520  212.6080  155.2500 C   0  0  1  0  0  0  0  0  0  0  0  0
  157.1380  213.9900  152.7410 C   0  0  0  0  0  3  0  0  0  0  0  0
  157.6740  212.7620  152.7780 C   0  0  0  0  0  3  0  0  0  0  0  0
  156.4510  211.8310  156.2890 C   0  0  0  0  0  0  0  0  0  0  0  0
  1  2  1  0  0  0  0
  2  7  1  0  0  0  0
  2  9  1  1  0  0  0
  2  6  1  0  0  0  0
  5 10  1  0  0  0  0
  5  1  1  0  0  0  0
  6 25  1  1  0  0  0
  6  3  1  0  0  0  0
  7 11  1  6  0  0  0
  7  8  1  0  0  0  0
  8  3  1  0  0  0  0
  8  4  1  1  0  0  0
 10 14  1  6  0  0  0
 10 11  1  0  0  0  0
 12 13  2  0  0  0  0
 12 19  1  0  0  0  0
 13 20  1  0  0  0  0
 14 16  1  0  0  0  0
 15 18  1  0  0  0  0
 15 16  1  0  0  0  0
 17 14  2  0  0  0  0
 19 17  1  0  0  0  0
 19 15  2  0  0  0  0
 20 18  2  0  0  0  0
 21 22  1  0  0  0  0
 22 17  1  0  0  0  0
 23 24  2  0  0  0  0
 25 23  1  0  0  0  0
 26 28  1  0  0  0  0
 27 23  1  6  0  0  0
 28 31  1  0  0  0  0
 31 30  1  6  0  0  0
 31 34  1  0  0  0  0
 31 27  1  0  0  0  0
 32 33  2  0  0  0  0
 32 26  1  0  0  0  0
 33 30  1  0  0  0  0
 34 27  1  0  0  0  0
 34 29  2  0  0  0  0
M  END
>  <MODEL>
2

>  <REMARK>
 VINA RESULT:      -7.8      1.367      2.057
  Name = 
  4 active torsions:
  status: ('A' for Active; 'I' for Inactive)
    1  A    between atoms: C_3  and  C_14
    2  A    between atoms: C_6  and  C_27
    3  A    between atoms: C_17  and  N_29
    4  A    between atoms: C_24  and  C_28
                            x       y       z     vdW  Elec       q    Type
                         _______ _______ _______ _____ _____    ______ ____

>  <TORSDO>
F 4

$$$$
=
 OpenBabel11042422273D

 34 39  0  0  1  0  0  0  0  0999 V2000
  161.8550  210.2140  152.4490 C   0  0  0  0  0  2  0  0  0  0  0  0
  161.4500  209.6530  153.8190 C   0  0  1  0  0  0  0  0  0  0  0  0
  159.6650  208.6550  155.1220 C   0  0  0  0  0  2  0  0  0  0  0  0
  161.5020  207.6040  156.4300 C   0  0  0  0  0  1  0  0  0  0  0  0
  161.4760  209.2990  151.2950 C   0  0  0  0  0  2  0  0  0  0  0  0
  159.9390  209.6960  154.0500 C   0  0  1  0  0  3  0  0  0  0  0  0
  161.8050  208.1680  154.0190 C   0  0  1  0  0  3  0  0  0  0  0  0
  160.8260  207.6660  155.0750 C   0  0  2  0  0  3  0  0  0  0  0  0
  162.2000  210.4650  154.8730 C   0  0  0  0  0  1  0  0  0  0  0  0
  162.1250  207.9420  151.5070 C   0  0  1  0  0  3  0  0  0  0  0  0
  161.5710  207.3050  152.7720 C   0  0  0  0  0  2  0  0  0  0  0  0
  160.9790  204.2540  148.3810 C   0  0  0  0  0  3  0  0  0  0  0  0
  161.0060  204.1300  146.8670 C   0  0  0  0  0  3  0  0  0  0  0  0
  161.9060  207.0560  150.3170 C   0  0  0  0  0  0  0  0  0  0  0  0
  161.8270  206.5240  148.2090 C   0  0  0  0  0  0  0  0  0  0  0  0
  162.1440  207.5140  148.9760 N   0  0  0  0  0  0  0  0  0  0  0  0
  161.4540  205.7940  150.3390 C   0  0  2  0  0  3  0  0  0  0  0  0
  161.8860  206.4950  146.7510 C   0  0  0  0  0  3  0  0  0  0  0  0
  161.3720  205.3880  148.9530 C   0  0  0  0  0  0  0  0  0  0  0  0
  161.5010  205.3710  146.1290 C   0  0  0  0  0  3  0  0  0  0  0  0
  161.9440  203.8840  151.7250 N   0  0  0  0  0  1  0  0  0  0  0  0
  161.0340  204.9990  151.5320 C   0  0  0  0  0  2  0  0  0  0  0  0
  158.6210  211.8270  153.6650 C   0  0  0  0  0  0  0  0  0  0  0  0
  158.2370  211.4220  152.5340 O   0  0  0  0  0  0  0  0  0  0  0  0
  159.4610  211.0060  154.4790 N   0  0  0  0  0  2  0  0  0  0  0  0
  155.7220  214.3070  156.8270 C   0  0  0  0  0  2  0  0  0  0  0  0
  158.2230  213.1980  154.1320 C   0  0  1  0  0  3  0  0  0  0  0  0
  156.5730  214.4520  155.5640 C   0  0  0  0  0  2  0  0  0  0  0  0
  159.9400  213.8710  156.0760 O   0  0  0  0  0  0  0  0  0  0  0  0
  157.1220  211.9200  156.1140 C   0  0  0  0  0  2  0  0  0  0  0  0
  157.4600  213.2190  155.3530 C   0  0  1  0  0  0  0  0  0  0  0  0
  155.0050  212.9860  156.8150 C   0  0  0  0  0  3  0  0  0  0  0  0
  155.6620  211.8700  156.4740 C   0  0  0  0  0  3  0  0  0  0  0  0
  158.9430  213.5600  155.4440 C   0  0  0  0  0  0  0  0  0  0  0  0
  1  2  1  0  0  0  0
  2  7  1  0  0  0  0
  2  6  1  0  0  0  0
  2  9  1  1  0  0  0
  5 10  1  0  0  0  0
  5  1  1  0  0  0  0
  6 25  1  1  0  0  0
  6  3  1  0  0  0  0
  7 11  1  6  0  0  0
  7  8  1  0  0  0  0
  8  3  1  0  0  0  0
  8  4  1  1  0  0  0
 10 14  1  6  0  0  0
 10 11  1  0  0  0  0
 12 19  1  0  0  0  0
 13 12  2  0  0  0  0
 14 17  1  0  0  0  0
 15 19  2  0  0  0  0
 15 16  1  0  0  0  0
 16 14  2  0  0  0  0
 17 22  1  6  0  0  0
 18 15  1  0  0  0  0
 19 17  1  0  0  0  0
 20 18  2  0  0  0  0
 20 13  1  0  0  0  0
 22 21  1  0  0  0  0
 23 25  1  0  0  0  0
 24 23  2  0  0  0  0
 27 23  1  1  0  0  0
 27 31  1  0  0  0  0
 27 34  1  0  0  0  0
 28 26  1  0  0  0  0
 30 33  1  0  0  0  0
 31 34  1  0  0  0  0
 31 28  1  1  0  0  0
 31 30  1  0  0  0  0
 32 26  1  0  0  0  0
 33 32  2  0  0  0  0
 34 29  2  0  0  0  0
M  END
>  <MODEL>
3

>  <REMARK>
 VINA RESULT:      -7.5      0.984      1.980
  Name = 
  4 active torsions:
  status: ('A' for Active; 'I' for Inactive)
    1  A    between atoms: C_3  and  C_14
    2  A    between atoms: C_6  and  C_27
    3  A    between atoms: C_17  and  N_29
    4  A    between atoms: C_24  and  C_28
                            x       y       z     vdW  Elec       q    Type
                         _______ _______ _______ _____ _____    ______ ____

>  <TORSDO>
F 4

$$$$
=
 OpenBabel11042422273D

 34 39  0  0  1  0  0  0  0  0999 V2000
  161.9560  206.7950  152.8640 C   0  0  0  0  0  2  0  0  0  0  0  0
  162.0050  206.9300  151.3360 C   0  0  1  0  0  0  0  0  0  0  0  0
  160.6970  207.1610  149.3080 C   0  0  0  0  0  2  0  0  0  0  0  0
  162.7070  208.3130  148.4020 C   0  0  0  0  0  1  0  0  0  0  0  0
  161.0480  207.8200  153.5240 C   0  0  0  0  0  2  0  0  0  0  0  0
  160.7090  206.4760  150.6630 C   0  0  1  0  0  3  0  0  0  0  0  0
  162.1820  208.3770  150.8400 C   0  0  1  0  0  3  0  0  0  0  0  0
  161.5970  208.3870  149.4310 C   0  0  2  0  0  3  0  0  0  0  0  0
  163.2020  206.1140  150.8540 C   0  0  0  0  0  1  0  0  0  0  0  0
  161.5190  209.2140  153.1470 C   0  0  1  0  0  3  0  0  0  0  0  0
  161.3800  209.4090  151.6450 C   0  0  0  0  0  2  0  0  0  0  0  0
  159.9410  212.7050  156.3110 C   0  0  0  0  0  3  0  0  0  0  0  0
  158.6960  213.5740  156.3610 C   0  0  0  0  0  2  0  0  0  0  0  0
  160.7480  210.2580  153.8990 C   0  0  0  0  0  0  0  0  0  0  0  0
  159.1140  211.6380  154.2910 C   0  0  0  0  0  0  0  0  0  0  0  0
  159.4730  210.7350  153.4400 N   0  0  0  0  0  0  0  0  0  0  0  0
  161.1380  210.8780  155.0220 C   0  0  0  0  0  0  0  0  0  0  0  0
  157.8870  212.4290  154.2600 C   0  0  0  0  0  3  0  0  0  0  0  0
  160.0840  211.8210  155.3280 C   0  0  0  0  0  0  0  0  0  0  0  0
  157.6970  213.3330  155.2320 C   0  0  0  0  0  3  0  0  0  0  0  0
  162.3060  209.6100  156.7060 N   0  0  0  0  0  1  0  0  0  0  0  0
  162.4260  210.7030  155.7580 C   0  0  0  0  0  2  0  0  0  0  0  0
  160.4620  204.1360  151.6070 C   0  0  0  0  0  0  0  0  0  0  0  0
  160.3580  204.5860  152.7800 O   0  0  0  0  0  0  0  0  0  0  0  0
  160.6240  205.0280  150.5020 N   0  0  0  0  0  2  0  0  0  0  0  0
  161.2060  200.5780  148.2390 C   0  0  0  0  0  2  0  0  0  0  0  0
  160.4550  202.6510  151.3830 C   0  0  1  0  0  3  0  0  0  0  0  0
  160.5930  200.8660  149.6110 C   0  0  0  0  0  2  0  0  0  0  0  0
  162.9080  201.7720  152.0110 O   0  0  0  0  0  0  0  0  0  0  0  0
  161.6820  203.2390  149.1650 C   0  0  0  0  0  2  0  0  0  0  0  0
  161.0580  202.2260  150.1470 C   0  0  1  0  0  0  0  0  0  0  0  0
  160.9850  201.7470  147.3210 C   0  0  0  0  0  3  0  0  0  0  0  0
  161.2030  202.9950  147.7600 C   0  0  0  0  0  3  0  0  0  0  0  0
  161.8870  202.0850  151.4190 C   0  0  0  0  0  0  0  0  0  0  0  0
  1  5  1  0  0  0  0
  2  9  1  6  0  0  0
  2  1  1  0  0  0  0
  3  8  1  0  0  0  0
  3  6  1  0  0  0  0
  6 25  1  6  0  0  0
  6  2  1  0  0  0  0
  7  2  1  0  0  0  0
  7 11  1  1  0  0  0
  8  4  1  6  0  0  0
  8  7  1  0  0  0  0
 10  5  1  0  0  0  0
 10 14  1  1  0  0  0
 11 10  1  0  0  0  0
 12 13  1  0  0  0  0
 14 17  2  0  0  0  0
 15 19  1  0  0  0  0
 16 14  1  0  0  0  0
 16 15  2  0  0  0  0
 17 19  1  0  0  0  0
 17 22  1  0  0  0  0
 18 15  1  0  0  0  0
 18 20  2  0  0  0  0
 19 12  2  0  0  0  0
 20 13  1  0  0  0  0
 22 21  1  0  0  0  0
 23 24  2  0  0  0  0
 25 23  1  0  0  0  0
 26 28  1  0  0  0  0
 27 34  1  0  0  0  0
 27 23  1  6  0  0  0
 28 31  1  0  0  0  0
 31 30  1  6  0  0  0
 31 27  1  0  0  0  0
 31 34  1  0  0  0  0
 32 33  2  0  0  0  0
 32 26  1  0  0  0  0
 33 30  1  0  0  0  0
 34 29  2  0  0  0  0
M  END
>  <MODEL>
4

>  <REMARK>
 VINA RESULT:      -7.0      2.718      9.705
  Name = 
  4 active torsions:
  status: ('A' for Active; 'I' for Inactive)
    1  A    between atoms: C_3  and  C_14
    2  A    between atoms: C_6  and  C_27
    3  A    between atoms: C_17  and  N_29
    4  A    between atoms: C_24  and  C_28
                            x       y       z     vdW  Elec       q    Type
                         _______ _______ _______ _____ _____    ______ ____

>  <TORSDO>
F 4

$$$$
=
 OpenBabel11042422273D

 34 39  0  0  1  0  0  0  0  0999 V2000
  162.6860  211.9670  148.1140 C   0  0  0  0  0  2  0  0  0  0  0  0
  161.5840  212.9130  148.6100 C   0  0  1  0  0  0  0  0  0  0  0  0
  159.2080  213.4010  148.5850 C   0  0  0  0  0  2  0  0  0  0  0  0
  159.6220  214.4530  150.8010 C   0  0  0  0  0  1  0  0  0  0  0  0
  162.3460  210.4990  148.3150 C   0  0  0  0  0  2  0  0  0  0  0  0
  160.3450  212.8950  147.7130 C   0  0  1  0  0  3  0  0  0  0  0  0
  161.0280  212.5540  150.0010 C   0  0  1  0  0  3  0  0  0  0  0  0
  159.6230  213.1470  150.0310 C   0  0  2  0  0  3  0  0  0  0  0  0
  162.1960  214.3100  148.6910 C   0  0  0  0  0  1  0  0  0  0  0  0
  162.0810  210.2500  149.7890 C   0  0  1  0  0  3  0  0  0  0  0  0
  160.8610  211.0460  150.2290 C   0  0  0  0  0  2  0  0  0  0  0  0
  161.4590  205.7530  151.8070 C   0  0  0  0  0  3  0  0  0  0  0  0
  161.2070  204.3760  151.2170 C   0  0  0  0  0  2  0  0  0  0  0  0
  161.8940  208.7860  150.0560 C   0  0  0  0  0  0  0  0  0  0  0  0
  161.5410  206.6960  149.5700 C   0  0  0  0  0  0  0  0  0  0  0  0
  161.7020  207.8400  148.9920 N   0  0  0  0  0  0  0  0  0  0  0  0
  161.8500  208.1970  151.2600 C   0  0  0  0  0  0  0  0  0  0  0  0
  161.3030  205.4120  148.9160 C   0  0  0  0  0  3  0  0  0  0  0  0
  161.6080  206.7960  150.9970 C   0  0  0  0  0  0  0  0  0  0  0  0
  161.1480  204.3300  149.6920 C   0  0  0  0  0  3  0  0  0  0  0  0
  160.6320  208.8740  153.2270 N   0  0  0  0  0  1  0  0  0  0  0  0
  161.9410  208.8550  152.5980 C   0  0  0  0  0  2  0  0  0  0  0  0
  159.6960  213.5400  145.3490 C   0  0  0  0  0  0  0  0  0  0  0  0
  158.8170  212.6380  145.3100 O   0  0  0  0  0  0  0  0  0  0  0  0
  160.4850  213.7320  146.5260 N   0  0  0  0  0  2  0  0  0  0  0  0
  161.6040  213.5460  140.7750 C   0  0  0  0  0  2  0  0  0  0  0  0
  159.9390  214.3870  144.1320 C   0  0  1  0  0  3  0  0  0  0  0  0
  161.1250  214.4530  141.9110 C   0  0  0  0  0  2  0  0  0  0  0  0
  157.7520  214.1650  142.5990 O   0  0  0  0  0  0  0  0  0  0  0  0
  160.4740  212.1170  142.9770 C   0  0  0  0  0  2  0  0  0  0  0  0
  160.3420  213.6540  142.9600 C   0  0  1  0  0  0  0  0  0  0  0  0
  162.3120  212.3460  141.3390 C   0  0  0  0  0  3  0  0  0  0  0  0
  161.7830  211.6810  142.3750 C   0  0  0  0  0  3  0  0  0  0  0  0
  158.8860  214.0980  143.0450 C   0  0  0  0  0  0  0  0  0  0  0  0
  1  5  1  0  0  0  0
  1  2  1  0  0  0  0
  2  9  1  1  0  0  0
  2  7  1  0  0  0  0
  3  8  1  0  0  0  0
  5 10  1  0  0  0  0
  6 25  1  6  0  0  0
  6  3  1  0  0  0  0
  6  2  1  0  0  0  0
  7  8  1  0  0  0  0
  7 11  1  6  0  0  0
  8  4  1  1  0  0  0
 10 14  1  6  0  0  0
 10 11  1  0  0  0  0
 13 12  1  0  0  0  0
 14 17  2  0  0  0  0
 15 19  1  0  0  0  0
 16 15  2  0  0  0  0
 16 14  1  0  0  0  0
 17 22  1  0  0  0  0
 18 15  1  0  0  0  0
 18 20  2  0  0  0  0
 19 17  1  0  0  0  0
 19 12  2  0  0  0  0
 20 13  1  0  0  0  0
 22 21  1  0  0  0  0
 23 25  1  0  0  0  0
 24 23  2  0  0  0  0
 26 32  1  0  0  0  0
 26 28  1  0  0  0  0
 27 23  1  1  0  0  0
 29 34  2  0  0  0  0
 31 28  1  6  0  0  0
 31 30  1  0  0  0  0
 31 34  1  0  0  0  0
 31 27  1  0  0  0  0
 32 33  2  0  0  0  0
 33 30  1  0  0  0  0
 34 27  1  0  0  0  0
M  END
>  <MODEL>
5

>  <REMARK>
 VINA RESULT:      -6.7      5.860      8.949
  Name = 
  4 active torsions:
  status: ('A' for Active; 'I' for Inactive)
    1  A    between atoms: C_3  and  C_14
    2  A    between atoms: C_6  and  C_27
    3  A    between atoms: C_17  and  N_29
    4  A    between atoms: C_24  and  C_28
                            x       y       z     vdW  Elec       q    Type
                         _______ _______ _______ _____ _____    ______ ____

>  <TORSDO>
F 4

$$$$
