=
 OpenBabel11042420153D

 25 29  0  0  1  0  0  0  0  0999 V2000
  162.4450  207.7690  151.0430 C   0  0  0  0  0  2  0  0  0  0  0  0
  161.5860  206.9890  151.9330 N   0  0  2  0  0  0  0  0  0  0  0  0
  161.7080  207.3310  149.7980 C   0  0  0  0  0  2  0  0  0  0  0  0
  160.8220  206.5710  150.7600 C   0  0  1  0  0  3  0  0  0  0  0  0
  161.6820  209.1820  157.1810 C   0  0  0  0  0  3  0  0  0  0  0  0
  160.4010  207.0290  157.1690 C   0  0  0  0  0  1  0  0  0  0  0  0
  161.6380  209.3050  154.4310 C   0  0  0  0  0  0  0  0  0  0  0  0
  162.2880  210.2480  156.4930 C   0  0  0  0  0  0  0  0  0  0  0  0
  161.5330  209.2300  152.9620 C   0  0  0  0  0  2  0  0  0  0  0  0
  162.2560  210.2930  155.1290 N   0  0  0  0  0  0  0  0  0  0  0  0
  162.9350  211.2830  157.2220 N   0  0  0  0  0  1  0  0  0  0  0  0
  160.7640  207.9170  152.7120 C   0  0  2  0  0  3  0  0  0  0  0  0
  161.0370  208.2520  155.0600 C   0  0  0  0  0  0  0  0  0  0  0  0
  160.4350  207.3090  154.0930 C   0  0  0  0  0  2  0  0  0  0  0  0
  161.0450  208.1660  156.4540 C   0  0  0  0  0  0  0  0  0  0  0  0
  161.0450  202.6600  151.4460 C   0  0  0  0  0  3  0  0  0  0  0  0
  161.0910  202.2750  150.1760 C   0  0  0  0  0  0  0  0  0  0  0  0
  160.9560  204.1420  151.7690 C   0  0  0  0  0  2  0  0  0  0  0  0
  161.1740  200.9580  149.6570 N   0  0  0  0  0  0  0  0  0  0  0  0
  160.9210  205.0870  150.5570 C   0  0  0  0  0  0  0  0  0  0  0  0
  161.0580  203.1910  149.0890 C   0  0  0  0  0  0  0  0  0  0  0  0
  161.1890  201.0570  148.3840 N   0  0  0  0  0  0  0  0  0  0  0  0
  160.9700  204.6330  149.2940 C   0  0  0  0  0  3  0  0  0  0  0  0
  161.1110  202.9270  146.5990 C   0  0  0  0  0  1  0  0  0  0  0  0
  161.1180  202.4400  148.0060 C   0  0  0  0  0  0  0  0  0  0  0  0
  2  1  1  6  0  0  0
  2 12  1  0  0  0  0
  3  4  1  0  0  0  0
  3  1  1  0  0  0  0
  4 20  1  6  0  0  0
  4  2  1  0  0  0  0
  7 13  2  0  0  0  0
  7 10  1  0  0  0  0
  8  5  1  0  0  0  0
  8 11  1  0  0  0  0
  9  7  1  0  0  0  0
 10  8  2  0  0  0  0
 12  9  1  1  0  0  0
 12 14  1  0  0  0  0
 13 15  1  0  0  0  0
 14 13  1  0  0  0  0
 15  6  1  0  0  0  0
 15  5  2  0  0  0  0
 16 18  1  0  0  0  0
 17 16  2  0  0  0  0
 19 17  1  0  0  0  0
 20 18  1  0  0  0  0
 21 23  1  0  0  0  0
 21 17  1  0  0  0  0
 22 19  2  0  0  0  0
 23 20  2  0  0  0  0
 24 25  1  0  0  0  0
 25 22  1  0  0  0  0
 25 21  2  0  0  0  0
M  END
>  <MODEL>
1

>  <REMARK>
 VINA RESULT:      -9.7      0.000      0.000
  Name = 
  2 active torsions:
  status: ('A' for Active; 'I' for Inactive)
    1  A    between atoms: N_11  and  C_17
    2  A    between atoms: C_14  and  C_24
                            x       y       z     vdW  Elec       q    Type
                         _______ _______ _______ _____ _____    ______ ____

>  <TORSDO>
F 2

$$$$
=
 OpenBabel11042420153D

 25 29  0  0  1  0  0  0  0  0999 V2000
  160.3000  204.0890  152.2900 C   0  0  0  0  0  2  0  0  0  0  0  0
  161.0150  204.8830  151.2910 N   0  0  2  0  0  0  0  0  0  0  0  0
  161.0170  202.8100  151.9200 C   0  0  0  0  0  2  0  0  0  0  0  0
  161.7580  203.6780  150.9280 C   0  0  1  0  0  3  0  0  0  0  0  0
  161.0440  210.3830  152.7380 C   0  0  0  0  0  3  0  0  0  0  0  0
  162.0410  210.0860  150.4590 C   0  0  0  0  0  1  0  0  0  0  0  0
  161.1840  207.6780  153.2300 C   0  0  0  0  0  0  0  0  0  0  0  0
  160.5990  209.8440  153.9580 C   0  0  0  0  0  0  0  0  0  0  0  0
  161.3210  206.2150  153.3450 C   0  0  0  0  0  2  0  0  0  0  0  0
  160.6760  208.5010  154.1850 N   0  0  0  0  0  0  0  0  0  0  0  0
  160.0660  210.7030  154.9590 N   0  0  0  0  0  1  0  0  0  0  0  0
  161.9250  205.7930  151.9890 C   0  0  2  0  0  3  0  0  0  0  0  0
  161.6280  208.1610  152.0320 C   0  0  0  0  0  0  0  0  0  0  0  0
  162.1340  207.0790  151.1600 C   0  0  0  0  0  2  0  0  0  0  0  0
  161.5680  209.5290  151.7570 C   0  0  0  0  0  0  0  0  0  0  0  0
  160.6410  201.5890  147.7330 C   0  0  0  0  0  3  0  0  0  0  0  0
  160.9060  202.5240  146.8280 C   0  0  0  0  0  0  0  0  0  0  0  0
  160.9060  201.8810  149.2010 C   0  0  0  0  0  2  0  0  0  0  0  0
  160.7350  202.4630  145.4220 N   0  0  0  0  0  0  0  0  0  0  0  0
  161.4700  203.2780  149.5100 C   0  0  0  0  0  0  0  0  0  0  0  0
  161.4290  203.8030  147.1670 C   0  0  0  0  0  0  0  0  0  0  0  0
  161.1130  203.5870  144.9480 N   0  0  0  0  0  0  0  0  0  0  0  0
  161.7150  204.1810  148.5470 C   0  0  0  0  0  3  0  0  0  0  0  0
  162.0560  205.8270  145.8330 C   0  0  0  0  0  1  0  0  0  0  0  0
  161.5500  204.4390  146.0170 C   0  0  0  0  0  0  0  0  0  0  0  0
  2 12  1  0  0  0  0
  2  1  1  1  0  0  0
  3  1  1  0  0  0  0
  4 20  1  6  0  0  0
  4  2  1  0  0  0  0
  4  3  1  0  0  0  0
  5  8  1  0  0  0  0
  6 15  1  0  0  0  0
  7  9  1  0  0  0  0
  7 10  1  0  0  0  0
  8 10  2  0  0  0  0
  8 11  1  0  0  0  0
 12 14  1  6  0  0  0
 12  9  1  0  0  0  0
 13  7  2  0  0  0  0
 14 13  1  0  0  0  0
 15 13  1  0  0  0  0
 15  5  2  0  0  0  0
 16 18  1  0  0  0  0
 17 21  1  0  0  0  0
 17 16  2  0  0  0  0
 18 20  1  0  0  0  0
 19 17  1  0  0  0  0
 21 23  1  0  0  0  0
 22 19  2  0  0  0  0
 22 25  1  0  0  0  0
 23 20  2  0  0  0  0
 24 25  1  0  0  0  0
 25 21  2  0  0  0  0
M  END
>  <MODEL>
2

>  <REMARK>
 VINA RESULT:      -9.4      2.202      3.678
  Name = 
  2 active torsions:
  status: ('A' for Active; 'I' for Inactive)
    1  A    between atoms: N_11  and  C_17
    2  A    between atoms: C_14  and  C_24
                            x       y       z     vdW  Elec       q    Type
                         _______ _______ _______ _____ _____    ______ ____

>  <TORSDO>
F 2

$$$$
=
 OpenBabel11042420153D

 25 29  0  0  1  0  0  0  0  0999 V2000
  162.6270  208.7220  150.4650 C   0  0  0  0  0  2  0  0  0  0  0  0
  161.6860  207.8290  151.1410 N   0  0  2  0  0  0  0  0  0  0  0  0
  161.9570  208.5570  149.1190 C   0  0  0  0  0  2  0  0  0  0  0  0
  160.9860  207.6720  149.8670 C   0  0  1  0  0  3  0  0  0  0  0  0
  161.6450  209.1740  156.6670 C   0  0  0  0  0  3  0  0  0  0  0  0
  160.3530  207.0620  156.2840 C   0  0  0  0  0  1  0  0  0  0  0  0
  161.6800  209.7250  153.9700 C   0  0  0  0  0  0  0  0  0  0  0  0
  162.2760  210.3280  156.1720 C   0  0  0  0  0  0  0  0  0  0  0  0
  161.6170  209.8820  152.5060 C   0  0  0  0  0  2  0  0  0  0  0  0
  162.2840  210.5860  154.8310 N   0  0  0  0  0  0  0  0  0  0  0  0
  162.9080  211.2300  157.0710 N   0  0  0  0  0  1  0  0  0  0  0  0
  160.8470  208.6320  152.0330 C   0  0  2  0  0  3  0  0  0  0  0  0
  161.0550  208.5930  154.4100 C   0  0  0  0  0  0  0  0  0  0  0  0
  160.4750  207.8180  153.2920 C   0  0  0  0  0  2  0  0  0  0  0  0
  161.0240  208.2900  155.7740 C   0  0  0  0  0  0  0  0  0  0  0  0
  161.3070  204.4650  147.5380 C   0  0  0  0  0  3  0  0  0  0  0  0
  161.1810  203.5550  148.4970 C   0  0  0  0  0  0  0  0  0  0  0  0
  161.2490  205.9390  147.9020 C   0  0  0  0  0  3  0  0  0  0  0  0
  161.2060  202.1420  148.3800 N   0  0  0  0  0  0  0  0  0  0  0  0
  161.0470  206.2490  149.3940 C   0  0  0  0  0  0  0  0  0  0  0  0
  160.9940  203.8950  149.8660 C   0  0  2  0  0  3  0  0  0  0  0  0
  161.0520  201.6660  149.5550 N   0  0  0  0  0  0  0  0  0  0  0  0
  160.9280  205.2810  150.3170 C   0  0  0  0  0  3  0  0  0  0  0  0
  160.7250  202.5530  151.9630 C   0  0  0  0  0  1  0  0  0  0  0  0
  160.9170  202.7390  150.4980 C   0  0  0  0  0  0  0  0  0  0  0  0
  2  1  1  6  0  0  0
  2 12  1  0  0  0  0
  3  4  1  0  0  0  0
  3  1  1  0  0  0  0
  4 20  1  6  0  0  0
  4  2  1  0  0  0  0
  7 13  2  0  0  0  0
  7 10  1  0  0  0  0
  8  5  1  0  0  0  0
  8 11  1  0  0  0  0
  9  7  1  0  0  0  0
 10  8  2  0  0  0  0
 12  9  1  1  0  0  0
 12 14  1  0  0  0  0
 13 15  1  0  0  0  0
 14 13  1  0  0  0  0
 15  6  1  0  0  0  0
 15  5  2  0  0  0  0
 16 18  2  0  0  0  0
 16 17  1  0  0  0  0
 17 21  1  0  0  0  0
 18 20  1  0  0  0  0
 19 17  2  0  0  0  0
 19 22  1  0  0  0  0
 20 23  2  0  0  0  0
 21 23  1  1  0  0  0
 21 25  1  0  0  0  0
 22 25  2  0  0  0  0
 25 24  1  0  0  0  0
M  END
>  <MODEL>
3

>  <REMARK>
 VINA RESULT:      -8.9      0.953      1.988
  Name = 
  2 active torsions:
  status: ('A' for Active; 'I' for Inactive)
    1  A    between atoms: N_11  and  C_17
    2  A    between atoms: C_14  and  C_24
                            x       y       z     vdW  Elec       q    Type
                         _______ _______ _______ _____ _____    ______ ____

>  <TORSDO>
F 2

$$$$
=
 OpenBabel11042420153D

 25 29  0  0  1  0  0  0  0  0999 V2000
  161.2230  207.2360  149.2300 C   0  0  0  0  0  2  0  0  0  0  0  0
  162.1390  206.3270  149.9200 N   0  0  2  0  0  0  0  0  0  0  0  0
  159.9960  206.4450  149.6220 C   0  0  0  0  0  2  0  0  0  0  0  0
  160.9770  205.5540  150.3520 C   0  0  1  0  0  3  0  0  0  0  0  0
  160.0660  209.0040  154.4900 C   0  0  0  0  0  3  0  0  0  0  0  0
  160.3240  210.6160  152.5900 C   0  0  0  0  0  1  0  0  0  0  0  0
  161.5880  207.1150  153.1870 C   0  0  0  0  0  0  0  0  0  0  0  0
  160.3260  207.7520  155.0750 C   0  0  0  0  0  0  0  0  0  0  0  0
  162.4150  206.2110  152.3680 C   0  0  0  0  0  2  0  0  0  0  0  0
  161.0820  206.8280  154.4150 N   0  0  0  0  0  0  0  0  0  0  0  0
  159.7980  207.4490  156.3610 N   0  0  0  0  0  1  0  0  0  0  0  0
  162.6900  207.0220  151.0850 C   0  0  2  0  0  3  0  0  0  0  0  0
  161.3600  208.3190  152.5830 C   0  0  0  0  0  0  0  0  0  0  0  0
  162.0100  208.3980  151.2570 C   0  0  0  0  0  2  0  0  0  0  0  0
  160.5920  209.2950  153.2230 C   0  0  0  0  0  0  0  0  0  0  0  0
  161.0080  201.5920  150.0110 C   0  0  0  0  0  3  0  0  0  0  0  0
  161.0560  201.5440  148.6860 C   0  0  0  0  0  0  0  0  0  0  0  0
  160.9830  202.9440  150.7050 C   0  0  0  0  0  2  0  0  0  0  0  0
  161.0850  200.4020  147.8450 N   0  0  0  0  0  0  0  0  0  0  0  0
  161.0100  204.1690  149.7760 C   0  0  0  0  0  0  0  0  0  0  0  0
  161.0810  202.7090  147.8700 C   0  0  0  0  0  0  0  0  0  0  0  0
  161.1240  200.8230  146.6410 N   0  0  0  0  0  0  0  0  0  0  0  0
  161.0560  204.0520  148.4380 C   0  0  0  0  0  3  0  0  0  0  0  0
  161.1580  203.0900  145.3960 C   0  0  0  0  0  1  0  0  0  0  0  0
  161.1220  202.2580  146.6300 C   0  0  0  0  0  0  0  0  0  0  0  0
  1  3  1  0  0  0  0
  2  1  1  6  0  0  0
  2  4  1  0  0  0  0
  2 12  1  0  0  0  0
  3  4  1  0  0  0  0
  4 20  1  6  0  0  0
  5  8  1  0  0  0  0
  6 15  1  0  0  0  0
  7 10  1  0  0  0  0
  8 11  1  0  0  0  0
  9  7  1  0  0  0  0
 10  8  2  0  0  0  0
 12 14  1  1  0  0  0
 12  9  1  0  0  0  0
 13  7  2  0  0  0  0
 13 15  1  0  0  0  0
 14 13  1  0  0  0  0
 15  5  2  0  0  0  0
 16 18  1  0  0  0  0
 17 16  2  0  0  0  0
 19 17  1  0  0  0  0
 20 18  1  0  0  0  0
 21 23  1  0  0  0  0
 21 17  1  0  0  0  0
 22 19  2  0  0  0  0
 23 20  2  0  0  0  0
 24 25  1  0  0  0  0
 25 22  1  0  0  0  0
 25 21  2  0  0  0  0
M  END
>  <MODEL>
4

>  <REMARK>
 VINA RESULT:      -8.9      1.888      2.730
  Name = 
  2 active torsions:
  status: ('A' for Active; 'I' for Inactive)
    1  A    between atoms: N_11  and  C_17
    2  A    between atoms: C_14  and  C_24
                            x       y       z     vdW  Elec       q    Type
                         _______ _______ _______ _____ _____    ______ ____

>  <TORSDO>
F 2

$$$$
=
 OpenBabel11042420153D

 25 29  0  0  1  0  0  0  0  0999 V2000
  162.7050  206.9950  150.3890 C   0  0  0  0  0  2  0  0  0  0  0  0
  161.3430  207.5130  150.5190 N   0  0  2  0  0  0  0  0  0  0  0  0
  162.6830  206.3390  151.7510 C   0  0  0  0  0  2  0  0  0  0  0  0
  161.2660  206.8620  151.8260 C   0  0  1  0  0  3  0  0  0  0  0  0
  161.8410  202.9780  147.1220 C   0  0  0  0  0  3  0  0  0  0  0  0
  162.5130  205.0550  145.8920 C   0  0  0  0  0  1  0  0  0  0  0  0
  160.7110  204.4590  149.1490 C   0  0  0  0  0  0  0  0  0  0  0  0
  161.2340  202.3530  148.2250 C   0  0  0  0  0  0  0  0  0  0  0  0
  160.1520  205.3840  150.1530 C   0  0  0  0  0  2  0  0  0  0  0  0
  160.6780  203.1030  149.2210 N   0  0  0  0  0  0  0  0  0  0  0  0
  161.1980  200.9330  148.3030 N   0  0  0  0  0  1  0  0  0  0  0  0
  160.4800  206.7830  149.5890 C   0  0  2  0  0  3  0  0  0  0  0  0
  161.2900  205.1070  148.0950 C   0  0  0  0  0  0  0  0  0  0  0  0
  161.2030  206.5760  148.2400 C   0  0  0  0  0  2  0  0  0  0  0  0
  161.8710  204.3790  147.0540 C   0  0  0  0  0  0  0  0  0  0  0  0
  161.0290  210.3110  153.7920 C   0  0  0  0  0  3  0  0  0  0  0  0
  160.7710  209.7980  154.9880 C   0  0  0  0  0  0  0  0  0  0  0  0
  161.2270  209.3760  152.6100 C   0  0  0  0  0  3  0  0  0  0  0  0
  160.5530  210.4800  156.2120 N   0  0  0  0  0  2  0  0  0  0  0  0
  161.1010  207.8750  152.9200 C   0  0  0  0  0  0  0  0  0  0  0  0
  160.6660  208.3990  155.2240 C   0  0  0  0  0  0  0  0  0  0  0  0
  160.3370  209.5920  157.1040 N   0  0  0  0  0  0  0  0  0  0  0  0
  160.8360  207.4190  154.1560 C   0  0  0  0  0  3  0  0  0  0  0  0
  160.1960  207.0150  157.2570 C   0  0  0  0  0  1  0  0  0  0  0  0
  160.4020  208.2870  156.5120 C   0  0  0  0  0  0  0  0  0  0  0  0
  1  3  1  0  0  0  0
  2  1  1  6  0  0  0
  2  4  1  0  0  0  0
  3  4  1  0  0  0  0
  4 20  1  1  0  0  0
  5  8  1  0  0  0  0
  6 15  1  0  0  0  0
  7 10  1  0  0  0  0
  7  9  1  0  0  0  0
  8 11  1  0  0  0  0
  8 10  2  0  0  0  0
 12 14  1  6  0  0  0
 12  9  1  0  0  0  0
 12  2  1  0  0  0  0
 13 14  1  0  0  0  0
 13  7  2  0  0  0  0
 15  5  2  0  0  0  0
 15 13  1  0  0  0  0
 16 17  1  0  0  0  0
 17 21  2  0  0  0  0
 17 19  1  0  0  0  0
 18 20  1  0  0  0  0
 18 16  2  0  0  0  0
 19 22  1  0  0  0  0
 20 23  2  0  0  0  0
 21 25  1  0  0  0  0
 23 21  1  0  0  0  0
 25 22  2  0  0  0  0
 25 24  1  0  0  0  0
M  END
>  <MODEL>
5

>  <REMARK>
 VINA RESULT:      -8.7      1.420      8.450
  Name = 
  2 active torsions:
  status: ('A' for Active; 'I' for Inactive)
    1  A    between atoms: N_11  and  C_17
    2  A    between atoms: C_14  and  C_24
                            x       y       z     vdW  Elec       q    Type
                         _______ _______ _______ _____ _____    ______ ____

>  <TORSDO>
F 2

$$$$
=
 OpenBabel11042420153D

 25 29  0  0  1  0  0  0  0  0999 V2000
  160.8310  207.2660  149.3720 C   0  0  0  0  0  2  0  0  0  0  0  0
  161.1060  206.2860  150.4240 N   0  0  2  0  0  0  0  0  0  0  0  0
  161.6430  208.3500  150.0440 C   0  0  0  0  0  2  0  0  0  0  0  0
  161.9310  207.2940  151.0870 C   0  0  1  0  0  3  0  0  0  0  0  0
  160.4740  201.3520  147.6660 C   0  0  0  0  0  3  0  0  0  0  0  0
  160.4770  200.9620  150.1420 C   0  0  0  0  0  1  0  0  0  0  0  0
  161.4190  203.9170  147.9970 C   0  0  0  0  0  0  0  0  0  0  0  0
  160.7100  202.1860  146.5600 C   0  0  0  0  0  0  0  0  0  0  0  0
  161.9220  205.2610  148.3340 C   0  0  0  0  0  2  0  0  0  0  0  0
  161.1790  203.4540  146.7420 N   0  0  0  0  0  0  0  0  0  0  0  0
  160.4600  201.7050  145.2450 N   0  0  0  0  0  1  0  0  0  0  0  0
  161.9890  205.2550  149.8760 C   0  0  2  0  0  3  0  0  0  0  0  0
  161.2040  203.1390  149.1000 C   0  0  0  0  0  0  0  0  0  0  0  0
  161.5350  203.8570  150.3490 C   0  0  0  0  0  2  0  0  0  0  0  0
  160.7250  201.8340  148.9590 C   0  0  0  0  0  0  0  0  0  0  0  0
  160.5890  207.0640  154.8240 C   0  0  0  0  0  3  0  0  0  0  0  0
  160.2890  208.3500  154.9670 C   0  0  0  0  0  0  0  0  0  0  0  0
  161.1650  206.5800  153.5040 C   0  0  0  0  0  3  0  0  0  0  0  0
  159.7490  209.0070  156.1020 N   0  0  0  0  0  2  0  0  0  0  0  0
  161.3580  207.6590  152.4250 C   0  0  0  0  0  0  0  0  0  0  0  0
  160.4860  209.3100  153.9360 C   0  0  0  0  0  0  0  0  0  0  0  0
  159.6270  210.2420  155.7970 N   0  0  0  0  0  0  0  0  0  0  0  0
  161.0360  208.9460  152.6350 C   0  0  0  0  0  3  0  0  0  0  0  0
  160.0850  211.7760  153.7660 C   0  0  0  0  0  1  0  0  0  0  0  0
  160.0800  210.4540  154.4520 C   0  0  0  0  0  0  0  0  0  0  0  0
  1  3  1  0  0  0  0
  2  1  1  6  0  0  0
  2  4  1  0  0  0  0
  3  4  1  0  0  0  0
  4 20  1  1  0  0  0
  5 15  1  0  0  0  0
  7  9  1  0  0  0  0
  7 13  1  0  0  0  0
  8 10  1  0  0  0  0
  8  5  2  0  0  0  0
 10  7  2  0  0  0  0
 11  8  1  0  0  0  0
 12  9  1  6  0  0  0
 12 14  1  0  0  0  0
 12  2  1  0  0  0  0
 13 14  1  0  0  0  0
 15 13  2  0  0  0  0
 15  6  1  0  0  0  0
 16 17  1  0  0  0  0
 17 19  1  0  0  0  0
 18 16  2  0  0  0  0
 20 23  2  0  0  0  0
 20 18  1  0  0  0  0
 21 25  1  0  0  0  0
 21 17  2  0  0  0  0
 22 19  1  0  0  0  0
 23 21  1  0  0  0  0
 24 25  1  0  0  0  0
 25 22  2  0  0  0  0
M  END
>  <MODEL>
6

>  <REMARK>
 VINA RESULT:      -8.6      1.921      8.428
  Name = 
  2 active torsions:
  status: ('A' for Active; 'I' for Inactive)
    1  A    between atoms: N_11  and  C_17
    2  A    between atoms: C_14  and  C_24
                            x       y       z     vdW  Elec       q    Type
                         _______ _______ _______ _____ _____    ______ ____

>  <TORSDO>
F 2

$$$$
=
 OpenBabel11042420153D

 25 29  0  0  1  0  0  0  0  0999 V2000
  160.3680  204.4810  151.6160 C   0  0  0  0  0  2  0  0  0  0  0  0
  160.9800  205.6910  151.0650 N   0  0  2  0  0  0  0  0  0  0  0  0
  161.1740  203.5600  150.7290 C   0  0  0  0  0  2  0  0  0  0  0  0
  161.8060  204.8340  150.2160 C   0  0  1  0  0  3  0  0  0  0  0  0
  160.4100  209.6000  155.1570 C   0  0  0  0  0  3  0  0  0  0  0  0
  161.1130  210.6910  153.0140 C   0  0  0  0  0  1  0  0  0  0  0  0
  161.0080  207.1030  154.1650 C   0  0  0  0  0  0  0  0  0  0  0  0
  160.2220  208.4460  155.9370 C   0  0  0  0  0  0  0  0  0  0  0  0
  161.3720  205.8400  153.4960 C   0  0  0  0  0  2  0  0  0  0  0  0
  160.5240  207.2160  155.4290 N   0  0  0  0  0  0  0  0  0  0  0  0
  159.7150  208.5610  157.2610 N   0  0  0  0  0  1  0  0  0  0  0  0
  161.8360  206.2850  152.0930 C   0  0  2  0  0  3  0  0  0  0  0  0
  161.2070  208.1990  153.3730 C   0  0  0  0  0  0  0  0  0  0  0  0
  161.7380  207.8260  152.0450 C   0  0  0  0  0  2  0  0  0  0  0  0
  160.9110  209.4770  153.8530 C   0  0  0  0  0  0  0  0  0  0  0  0
  161.0890  206.6120  146.7320 C   0  0  0  0  0  3  0  0  0  0  0  0
  160.9430  205.5060  146.0130 C   0  0  0  0  0  0  0  0  0  0  0  0
  161.3880  206.4970  148.2180 C   0  0  0  0  0  2  0  0  0  0  0  0
  160.6650  205.3850  144.6280 N   0  0  0  0  0  0  0  0  0  0  0  0
  161.5020  205.0650  148.7650 C   0  0  0  0  0  0  0  0  0  0  0  0
  161.0570  204.2010  146.5690 C   0  0  0  0  0  0  0  0  0  0  0  0
  160.6140  204.1370  144.3620 N   0  0  0  0  0  0  0  0  0  0  0  0
  161.3450  203.9850  147.9830 C   0  0  0  0  0  3  0  0  0  0  0  0
  160.8740  201.8910  145.6190 C   0  0  0  0  0  1  0  0  0  0  0  0
  160.8550  203.3790  145.5570 C   0  0  0  0  0  0  0  0  0  0  0  0
  2  1  1  1  0  0  0
  2 12  1  0  0  0  0
  3  1  1  0  0  0  0
  4 20  1  6  0  0  0
  4  3  1  0  0  0  0
  4  2  1  0  0  0  0
  5  8  1  0  0  0  0
  6 15  1  0  0  0  0
  7 10  1  0  0  0  0
  8 11  1  0  0  0  0
  9  7  1  0  0  0  0
 10  8  2  0  0  0  0
 12 14  1  1  0  0  0
 12  9  1  0  0  0  0
 13 15  1  0  0  0  0
 13  7  2  0  0  0  0
 14 13  1  0  0  0  0
 15  5  2  0  0  0  0
 16 18  1  0  0  0  0
 17 21  1  0  0  0  0
 17 16  2  0  0  0  0
 18 20  1  0  0  0  0
 19 17  1  0  0  0  0
 21 23  1  0  0  0  0
 22 19  2  0  0  0  0
 22 25  1  0  0  0  0
 23 20  2  0  0  0  0
 25 24  1  0  0  0  0
 25 21  2  0  0  0  0
M  END
>  <MODEL>
7

>  <REMARK>
 VINA RESULT:      -8.5      2.322      3.630
  Name = 
  2 active torsions:
  status: ('A' for Active; 'I' for Inactive)
    1  A    between atoms: N_11  and  C_17
    2  A    between atoms: C_14  and  C_24
                            x       y       z     vdW  Elec       q    Type
                         _______ _______ _______ _____ _____    ______ ____

>  <TORSDO>
F 2

$$$$
=
 OpenBabel11042420153D

 25 29  0  0  1  0  0  0  0  0999 V2000
  162.7060  206.9440  150.4430 C   0  0  0  0  0  2  0  0  0  0  0  0
  161.3410  207.4570  150.5580 N   0  0  2  0  0  0  0  0  0  0  0  0
  162.6610  206.2610  151.7910 C   0  0  0  0  0  2  0  0  0  0  0  0
  161.2420  206.7800  151.8490 C   0  0  1  0  0  3  0  0  0  0  0  0
  161.8940  202.9570  147.1230 C   0  0  0  0  0  3  0  0  0  0  0  0
  162.6120  205.0430  145.9340 C   0  0  0  0  0  1  0  0  0  0  0  0
  160.7230  204.4240  149.1370 C   0  0  0  0  0  0  0  0  0  0  0  0
  161.2540  202.3250  148.2020 C   0  0  0  0  0  0  0  0  0  0  0  0
  160.1450  205.3420  150.1360 C   0  0  0  0  0  2  0  0  0  0  0  0
  160.6780  203.0670  149.1920 N   0  0  0  0  0  0  0  0  0  0  0  0
  161.2060  200.9040  148.2620 N   0  0  0  0  0  1  0  0  0  0  0  0
  160.4970  206.7440  149.5970 C   0  0  2  0  0  3  0  0  0  0  0  0
  161.3340  205.0790  148.1050 C   0  0  0  0  0  0  0  0  0  0  0  0
  161.2530  206.5470  148.2650 C   0  0  0  0  0  2  0  0  0  0  0  0
  161.9360  204.3580  147.0710 C   0  0  0  0  0  0  0  0  0  0  0  0
  161.0020  208.4170  155.4660 C   0  0  0  0  0  3  0  0  0  0  0  0
  160.7160  209.6500  155.0660 C   0  0  0  0  0  0  0  0  0  0  0  0
  161.2020  207.3280  154.4250 C   0  0  0  0  0  3  0  0  0  0  0  0
  160.4930  210.8050  155.8600 N   0  0  0  0  0  2  0  0  0  0  0  0
  161.0540  207.7710  152.9600 C   0  0  0  0  0  0  0  0  0  0  0  0
  160.5880  210.0100  153.6960 C   0  0  0  0  0  0  0  0  0  0  0  0
  160.2540  211.7700  155.0590 N   0  0  0  0  0  0  0  0  0  0  0  0
  160.7630  209.0380  152.6210 C   0  0  0  0  0  3  0  0  0  0  0  0
  160.0810  212.1550  152.5070 C   0  0  0  0  0  1  0  0  0  0  0  0
  160.3070  211.2990  153.7040 C   0  0  0  0  0  0  0  0  0  0  0  0
  1  3  1  0  0  0  0
  2  1  1  6  0  0  0
  2  4  1  0  0  0  0
  3  4  1  0  0  0  0
  4 20  1  1  0  0  0
  5  8  1  0  0  0  0
  6 15  1  0  0  0  0
  7 10  1  0  0  0  0
  7  9  1  0  0  0  0
  8 11  1  0  0  0  0
  8 10  2  0  0  0  0
 12 14  1  6  0  0  0
 12  9  1  0  0  0  0
 12  2  1  0  0  0  0
 13 14  1  0  0  0  0
 13  7  2  0  0  0  0
 15  5  2  0  0  0  0
 15 13  1  0  0  0  0
 17 16  1  0  0  0  0
 17 19  1  0  0  0  0
 18 16  2  0  0  0  0
 20 18  1  0  0  0  0
 21 25  1  0  0  0  0
 21 17  2  0  0  0  0
 22 19  1  0  0  0  0
 23 20  2  0  0  0  0
 23 21  1  0  0  0  0
 24 25  1  0  0  0  0
 25 22  2  0  0  0  0
M  END
>  <MODEL>
8

>  <REMARK>
 VINA RESULT:      -8.5      1.593      8.415
  Name = 
  2 active torsions:
  status: ('A' for Active; 'I' for Inactive)
    1  A    between atoms: N_11  and  C_17
    2  A    between atoms: C_14  and  C_24
                            x       y       z     vdW  Elec       q    Type
                         _______ _______ _______ _____ _____    ______ ____

>  <TORSDO>
F 2

$$$$
=
 OpenBabel11042420153D

 25 29  0  0  1  0  0  0  0  0999 V2000
  162.3950  208.2220  151.4790 C   0  0  0  0  0  2  0  0  0  0  0  0
  161.4110  207.2240  151.8980 N   0  0  2  0  0  0  0  0  0  0  0  0
  161.8520  208.3000  150.0700 C   0  0  0  0  0  2  0  0  0  0  0  0
  160.8310  207.2970  150.5580 C   0  0  1  0  0  3  0  0  0  0  0  0
  161.7090  209.4570  157.1210 C   0  0  0  0  0  3  0  0  0  0  0  0
  161.2040  207.0060  157.2580 C   0  0  0  0  0  1  0  0  0  0  0  0
  161.1510  209.4930  154.4250 C   0  0  0  0  0  0  0  0  0  0  0  0
  161.8110  210.6440  156.3750 C   0  0  0  0  0  0  0  0  0  0  0  0
  160.8220  209.3530  152.9950 C   0  0  0  0  0  2  0  0  0  0  0  0
  161.5310  210.6440  155.0400 N   0  0  0  0  0  0  0  0  0  0  0  0
  162.2090  211.8500  157.0160 N   0  0  0  0  0  1  0  0  0  0  0  0
  160.4830  207.8560  152.8370 C   0  0  2  0  0  3  0  0  0  0  0  0
  161.0380  208.3180  155.1130 C   0  0  0  0  0  0  0  0  0  0  0  0
  160.6110  207.2080  154.2330 C   0  0  0  0  0  2  0  0  0  0  0  0
  161.3150  208.2730  156.4810 C   0  0  0  0  0  0  0  0  0  0  0  0
  160.8420  203.3960  149.7830 C   0  0  0  0  0  3  0  0  0  0  0  0
  161.1750  203.4870  148.5020 C   0  0  0  0  0  0  0  0  0  0  0  0
  160.6990  204.6670  150.6050 C   0  0  0  0  0  2  0  0  0  0  0  0
  161.3590  202.4400  147.5620 N   0  0  0  0  0  0  0  0  0  0  0  0
  160.9560  205.9810  149.8480 C   0  0  0  0  0  0  0  0  0  0  0  0
  161.4040  204.7290  147.8480 C   0  0  0  0  0  0  0  0  0  0  0  0
  161.6690  202.9850  146.4500 N   0  0  0  0  0  0  0  0  0  0  0  0
  161.2890  206.0050  148.5470 C   0  0  0  0  0  3  0  0  0  0  0  0
  162.0260  205.3670  145.5070 C   0  0  0  0  0  1  0  0  0  0  0  0
  161.7030  204.4110  146.6030 C   0  0  0  0  0  0  0  0  0  0  0  0
  2  1  1  6  0  0  0
  2 12  1  0  0  0  0
  3  4  1  0  0  0  0
  3  1  1  0  0  0  0
  4 20  1  6  0  0  0
  4  2  1  0  0  0  0
  7 10  2  0  0  0  0
  7 13  1  0  0  0  0
  8 11  1  0  0  0  0
  8  5  2  0  0  0  0
  9  7  1  0  0  0  0
 10  8  1  0  0  0  0
 12  9  1  1  0  0  0
 12 14  1  0  0  0  0
 13 15  2  0  0  0  0
 14 13  1  0  0  0  0
 15  5  1  0  0  0  0
 15  6  1  0  0  0  0
 16 18  1  0  0  0  0
 17 16  2  0  0  0  0
 19 17  1  0  0  0  0
 20 18  1  0  0  0  0
 21 17  1  0  0  0  0
 21 23  1  0  0  0  0
 22 25  1  0  0  0  0
 22 19  2  0  0  0  0
 23 20  2  0  0  0  0
 24 25  1  0  0  0  0
 25 21  2  0  0  0  0
M  END
>  <MODEL>
9

>  <REMARK>
 VINA RESULT:      -8.1      1.165      1.435
  Name = 
  2 active torsions:
  status: ('A' for Active; 'I' for Inactive)
    1  A    between atoms: N_11  and  C_17
    2  A    between atoms: C_14  and  C_24
                            x       y       z     vdW  Elec       q    Type
                         _______ _______ _______ _____ _____    ______ ____

>  <TORSDO>
F 2

$$$$
