=
 OpenBabel11052411403D

 43 46  0  0  1  0  0  0  0  0999 V2000
  161.5860  209.7160  150.4550 N   0  0  0  0  0  0  0  0  0  0  0  0
  159.7720  213.3080  148.6890 C   0  0  0  0  0  2  0  0  0  0  0  0
  160.2740  210.2730  156.9370 N   0  0  0  0  0  0  0  0  0  0  0  0
  159.5430  211.1070  156.1950 N   0  0  0  0  0  0  0  0  0  0  0  0
  163.9510  211.7790  148.0980 F   0  0  0  0  0  0  0  0  0  0  0  0
  161.8870  210.9400  148.3540 C   0  0  0  0  0  2  0  0  0  0  0  0
  161.9490  210.0080  153.8590 C   0  0  0  0  0  3  0  0  0  0  0  0
  161.5990  210.6930  152.6780 C   0  0  0  0  0  0  0  0  0  0  0  0
  161.1480  213.8830  148.9710 C   0  0  0  0  0  2  0  0  0  0  0  0
  159.7190  211.7820  153.8280 C   0  0  0  0  0  3  0  0  0  0  0  0
  158.7240  213.2150  151.2160 S   0  0  0  0  0  0  0  0  0  0  0  0
  161.2580  209.7430  156.2200 N   0  0  0  0  0  0  0  0  0  0  0  0
  160.1020  211.0900  154.9710 C   0  0  0  0  0  0  0  0  0  0  0  0
  162.2010  213.2630  148.0640 C   0  0  1  0  0  3  0  0  0  0  0  0
  162.2350  208.7930  156.7240 C   0  0  0  0  0  1  0  0  0  0  0  0
  158.6790  214.3040  152.2510 O   0  0  0  0  0  0  0  0  0  0  0  0
  157.5100  212.3390  151.3520 O   0  0  0  0  0  0  0  0  0  0  0  0
  162.2690  209.7100  149.1660 C   0  0  0  0  0  2  0  0  0  0  0  0
  158.7440  213.9720  149.5950 C   0  0  2  0  0  3  0  0  0  0  0  0
  160.1490  212.2560  151.4420 N   0  0  0  0  0  2  0  0  0  0  0  0
  160.4860  211.5820  152.6580 C   0  0  0  0  0  0  0  0  0  0  0  0
  161.1660  210.2450  154.9830 C   0  0  0  0  0  0  0  0  0  0  0  0
  162.3960  210.4320  151.4400 C   0  0  0  0  0  2  0  0  0  0  0  0
  163.2780  214.3150  147.8390 C   0  0  0  0  0  1  0  0  0  0  0  0
  162.7610  212.0580  148.6850 N   0  0  0  0  0  0  0  0  0  0  0  0
  161.3760  208.4040  150.8690 O   0  0  0  0  0  0  0  0  0  0  0  0
  160.8250  207.3810  150.0730 C   0  0  0  0  0  3  0  0  0  0  0  0
  161.0820  206.0910  150.2600 C   0  0  0  0  0  3  0  0  0  0  0  0
  161.5520  203.1180  148.3860 C   0  0  0  0  0  2  0  0  0  0  0  0
  160.1360  203.8070  150.2030 C   0  0  0  0  0  2  0  0  0  0  0  0
  160.4640  205.0500  149.3900 C   0  0  2  0  0  3  0  0  0  0  0  0
  161.1390  202.7520  149.7920 C   0  0  1  0  0  3  0  0  0  0  0  0
  160.4960  201.3820  149.8100 C   0  0  0  0  0  1  0  0  0  0  0  0
  161.4660  204.6280  148.3240 C   0  0  2  0  0  3  0  0  0  0  0  0
  161.0070  205.0560  146.9380 C   0  0  0  0  0  2  0  0  0  0  0  0
  162.5830  205.8090  145.3030 O   0  0  0  0  0  1  0  0  0  0  0  0
  161.8430  206.2140  146.4140 C   0  0  0  0  0  2  0  0  0  0  0  0
  157.4490  213.8890  149.0100 O   0  0  0  0  0  0  0  0  0  0  0  0
  157.2480  213.4840  147.6880 C   0  0  0  0  0  0  0  0  0  0  0  0
  156.9950  212.2780  147.4170 O   0  0  0  0  0  0  0  0  0  0  0  0
  157.3390  214.4520  146.6430 N   0  0  0  0  0  2  0  0  0  0  0  0
  158.4530  213.6420  144.6510 C   0  0  0  0  0  1  0  0  0  0  0  0
  157.1400  214.1000  145.2480 C   0  0  0  0  0  2  0  0  0  0  0  0
  1 26  1  0  0  0  0
  1 23  1  0  0  0  0
  2  9  1  0  0  0  0
  2 19  1  0  0  0  0
  4  3  2  0  0  0  0
  5 25  1  0  0  0  0
  6 25  1  0  0  0  0
  6 18  1  0  0  0  0
  7 22  1  0  0  0  0
  8  7  2  0  0  0  0
 10 13  1  0  0  0  0
 11 17  2  0  0  0  0
 11 20  1  0  0  0  0
 11 16  2  0  0  0  0
 12 15  1  0  0  0  0
 12  3  1  0  0  0  0
 13 22  2  0  0  0  0
 13  4  1  0  0  0  0
 14 24  1  1  0  0  0
 14 25  1  0  0  0  0
 14  9  1  0  0  0  0
 18  1  1  0  0  0  0
 19 38  1  6  0  0  0
 19 11  1  0  0  0  0
 20 21  1  0  0  0  0
 21  8  1  0  0  0  0
 21 10  2  0  0  0  0
 22 12  1  0  0  0  0
 23  8  1  0  0  0  0
 27 28  2  0  0  0  0
 27 26  1  0  0  0  0
 29 32  1  0  0  0  0
 31 30  1  0  0  0  0
 31 28  1  1  0  0  0
 32 33  1  6  0  0  0
 32 30  1  0  0  0  0
 34 35  1  6  0  0  0
 34 29  1  0  0  0  0
 34 31  1  0  0  0  0
 36 37  1  0  0  0  0
 37 35  1  0  0  0  0
 39 38  1  0  0  0  0
 40 39  2  0  0  0  0
 41 39  1  0  0  0  0
 42 43  1  0  0  0  0
 43 41  1  0  0  0  0
M  END
>  <MODEL>
1

>  <REMARK>
 VINA RESULT:      -7.3      0.000      0.000
  Name = 
  8 active torsions:
  status: ('A' for Active; 'I' for Inactive)
    1  A    between atoms: N_1  and  O_5
    2  A    between atoms: O_5  and  C_38
    3  A    between atoms: C_18  and  O_30
    4  A    between atoms: C_19  and  C_40
    5  A    between atoms: C_29  and  C_33
    6  A    between atoms: C_29  and  C_43
    7  A    between atoms: O_30  and  C_31
    8  A    between atoms: C_32  and  N_42
                            x       y       z     vdW  Elec       q    Type
                         _______ _______ _______ _____ _____    ______ ____

>  <TORSDO>
F 8

$$$$
=
 OpenBabel11052411403D

 43 46  0  0  1  0  0  0  0  0999 V2000
  161.4590  209.7730  150.2780 N   0  0  0  0  0  0  0  0  0  0  0  0
  159.8750  213.5360  148.6520 C   0  0  0  0  0  2  0  0  0  0  0  0
  160.0510  210.1010  156.7550 N   0  0  0  0  0  0  0  0  0  0  0  0
  159.3810  211.0070  156.0410 N   0  0  0  0  0  0  0  0  0  0  0  0
  163.9780  211.8120  148.0610 F   0  0  0  0  0  0  0  0  0  0  0  0
  161.8670  211.0750  148.2420 C   0  0  0  0  0  2  0  0  0  0  0  0
  161.7710  209.8880  153.6980 C   0  0  0  0  0  3  0  0  0  0  0  0
  161.4810  210.6450  152.5440 C   0  0  0  0  0  0  0  0  0  0  0  0
  161.2730  214.0220  148.9840 C   0  0  0  0  0  2  0  0  0  0  0  0
  159.6390  211.7800  153.7120 C   0  0  0  0  0  3  0  0  0  0  0  0
  158.7740  213.3840  151.1540 S   0  0  0  0  0  0  0  0  0  0  0  0
  161.0200  209.5520  156.0310 N   0  0  0  0  0  0  0  0  0  0  0  0
  159.9620  211.0160  154.8270 C   0  0  0  0  0  0  0  0  0  0  0  0
  162.3100  213.3880  148.0670 C   0  0  1  0  0  3  0  0  0  0  0  0
  161.9350  208.5290  156.5060 C   0  0  0  0  0  1  0  0  0  0  0  0
  158.7660  214.4240  152.2380 O   0  0  0  0  0  0  0  0  0  0  0  0
  157.5130  212.5690  151.2270 O   0  0  0  0  0  0  0  0  0  0  0  0
  162.1670  209.7900  149.0020 C   0  0  0  0  0  2  0  0  0  0  0  0
  158.8660  214.2120  149.5700 C   0  0  2  0  0  3  0  0  0  0  0  0
  160.1410  212.3400  151.3590 N   0  0  0  0  0  2  0  0  0  0  0  0
  160.4170  211.5930  152.5470 C   0  0  0  0  0  0  0  0  0  0  0  0
  160.9790  210.1150  154.8180 C   0  0  0  0  0  0  0  0  0  0  0  0
  162.2870  210.3980  151.3090 C   0  0  0  0  0  2  0  0  0  0  0  0
  163.4450  214.3900  147.9100 C   0  0  0  0  0  1  0  0  0  0  0  0
  162.7930  212.1270  148.6400 N   0  0  0  0  0  0  0  0  0  0  0  0
  161.1710  208.4560  150.6260 O   0  0  0  0  0  0  0  0  0  0  0  0
  161.8080  207.3200  150.0940 C   0  0  0  0  0  3  0  0  0  0  0  0
  161.2120  206.4690  149.2640 C   0  0  0  0  0  3  0  0  0  0  0  0
  161.0380  203.4880  147.3530 C   0  0  0  0  0  2  0  0  0  0  0  0
  162.3260  205.5160  147.2720 C   0  0  0  0  0  2  0  0  0  0  0  0
  161.9390  205.2840  148.7250 C   0  0  2  0  0  3  0  0  0  0  0  0
  161.4200  204.6310  146.4450 C   0  0  1  0  0  3  0  0  0  0  0  0
  162.1610  204.1110  145.2320 C   0  0  0  0  0  1  0  0  0  0  0  0
  161.0140  204.0760  148.7490 C   0  0  2  0  0  3  0  0  0  0  0  0
  161.4950  203.0340  149.7480 C   0  0  0  0  0  2  0  0  0  0  0  0
  161.3500  203.8330  151.9990 O   0  0  0  0  0  1  0  0  0  0  0  0
  160.6800  203.0850  151.0310 C   0  0  0  0  0  2  0  0  0  0  0  0
  157.5810  214.2260  148.9600 O   0  0  0  0  0  0  0  0  0  0  0  0
  157.3380  213.6510  147.7110 C   0  0  0  0  0  0  0  0  0  0  0  0
  157.0060  212.4360  147.6170 O   0  0  0  0  0  0  0  0  0  0  0  0
  157.4740  214.4520  146.5370 N   0  0  0  0  0  2  0  0  0  0  0  0
  158.5450  213.4550  144.6070 C   0  0  0  0  0  1  0  0  0  0  0  0
  157.2350  213.9170  145.2080 C   0  0  0  0  0  2  0  0  0  0  0  0
  1 26  1  0  0  0  0
  1 23  1  0  0  0  0
  2  9  1  0  0  0  0
  2 19  1  0  0  0  0
  4  3  2  0  0  0  0
  5 25  1  0  0  0  0
  6 25  1  0  0  0  0
  6 18  1  0  0  0  0
  7 22  1  0  0  0  0
  8 21  1  0  0  0  0
  8  7  2  0  0  0  0
 10 13  1  0  0  0  0
 11 17  2  0  0  0  0
 11 20  1  0  0  0  0
 11 16  2  0  0  0  0
 12 15  1  0  0  0  0
 12  3  1  0  0  0  0
 13  4  1  0  0  0  0
 14 24  1  1  0  0  0
 14 25  1  0  0  0  0
 14  9  1  0  0  0  0
 18  1  1  0  0  0  0
 19 38  1  6  0  0  0
 19 11  1  0  0  0  0
 20 21  1  0  0  0  0
 21 10  2  0  0  0  0
 22 13  2  0  0  0  0
 22 12  1  0  0  0  0
 23  8  1  0  0  0  0
 27 26  1  0  0  0  0
 28 27  2  0  0  0  0
 29 34  1  0  0  0  0
 30 31  1  0  0  0  0
 31 34  1  0  0  0  0
 31 28  1  6  0  0  0
 32 33  1  6  0  0  0
 32 30  1  0  0  0  0
 32 29  1  0  0  0  0
 34 35  1  1  0  0  0
 35 37  1  0  0  0  0
 37 36  1  0  0  0  0
 39 38  1  0  0  0  0
 40 39  2  0  0  0  0
 41 39  1  0  0  0  0
 42 43  1  0  0  0  0
 43 41  1  0  0  0  0
M  END
>  <MODEL>
2

>  <REMARK>
 VINA RESULT:      -7.1      1.104      1.965
  Name = 
  8 active torsions:
  status: ('A' for Active; 'I' for Inactive)
    1  A    between atoms: N_1  and  O_5
    2  A    between atoms: O_5  and  C_38
    3  A    between atoms: C_18  and  O_30
    4  A    between atoms: C_19  and  C_40
    5  A    between atoms: C_29  and  C_33
    6  A    between atoms: C_29  and  C_43
    7  A    between atoms: O_30  and  C_31
    8  A    between atoms: C_32  and  N_42
                            x       y       z     vdW  Elec       q    Type
                         _______ _______ _______ _____ _____    ______ ____

>  <TORSDO>
F 8

$$$$
