=
 OpenBabel11052411173D

 27 29  0  0  1  0  0  0  0  0999 V2000
  162.2370  206.0540  152.3130 C   0  0  0  0  0  2  0  0  0  0  0  0
  160.7740  207.9350  153.0510 C   0  0  0  0  0  1  0  0  0  0  0  0
  162.0740  207.5640  152.3620 C   0  0  2  0  0  3  0  0  0  0  0  0
  162.1330  208.1420  151.0200 N   0  0  0  0  0  2  0  0  0  0  0  0
  161.8840  210.3680  151.6660 O   0  0  0  0  0  0  0  0  0  0  0  0
  161.9960  209.5390  150.7220 C   0  0  0  0  0  0  0  0  0  0  0  0
  161.9680  209.9800  149.3510 N   0  0  0  0  0  0  0  0  0  0  0  0
  161.8890  208.9630  148.3080 C   0  0  0  0  0  1  0  0  0  0  0  0
  163.0930  213.2200  147.8350 C   0  0  0  0  0  3  0  0  0  0  0  0
  162.0110  211.3760  148.9760 C   0  0  0  0  0  0  0  0  0  0  0  0
  163.0580  211.8680  148.1790 C   0  0  0  0  0  3  0  0  0  0  0  0
  162.0900  214.0760  148.2870 C   0  0  0  0  0  3  0  0  0  0  0  0
  161.0470  212.2420  149.4030 N   0  0  0  0  0  0  0  0  0  0  0  0
  161.0630  213.5620  149.0800 C   0  0  0  0  0  3  0  0  0  0  0  0
  161.0150  205.4440  151.8120 N   0  0  0  0  0  2  0  0  0  0  0  0
  161.1860  204.0000  151.8830 C   0  0  0  0  0  2  0  0  0  0  0  0
  161.0850  203.3980  150.5210 C   0  0  0  0  0  0  0  0  0  0  0  0
  161.2340  203.6300  148.1170 C   0  0  0  0  0  0  0  0  0  0  0  0
  161.4500  204.3890  147.0120 N   0  0  0  0  0  2  0  0  0  0  0  0
  161.0570  202.4940  145.6170 C   0  0  0  0  0  3  0  0  0  0  0  0
  161.3690  203.8490  145.7660 C   0  0  0  0  0  0  0  0  0  0  0  0
  161.3130  204.1930  149.3920 C   0  0  0  0  0  3  0  0  0  0  0  0
  160.7800  202.0380  150.3710 C   0  0  0  0  0  3  0  0  0  0  0  0
  160.6990  201.4700  149.0960 C   0  0  0  0  0  3  0  0  0  0  0  0
  160.9230  202.2620  147.9670 C   0  0  0  0  0  0  0  0  0  0  0  0
  160.8430  201.7300  146.7200 N   0  0  0  0  0  0  0  0  0  0  0  0
  161.5730  204.5660  144.7530 O   0  0  0  0  0  0  0  0  0  0  0  0
  1  3  1  0  0  0  0
  3  2  1  6  0  0  0
  4  3  1  0  0  0  0
  6  4  1  0  0  0  0
  6  5  2  0  0  0  0
  7  6  1  0  0  0  0
  8  7  1  0  0  0  0
  9 11  2  0  0  0  0
  9 12  1  0  0  0  0
 10  7  1  0  0  0  0
 10 13  2  0  0  0  0
 11 10  1  0  0  0  0
 12 14  2  0  0  0  0
 14 13  1  0  0  0  0
 15 16  1  0  0  0  0
 15  1  1  0  0  0  0
 17 16  1  0  0  0  0
 18 22  1  0  0  0  0
 19 18  1  0  0  0  0
 20 21  1  0  0  0  0
 20 26  2  0  0  0  0
 21 19  1  0  0  0  0
 22 17  2  0  0  0  0
 23 17  1  0  0  0  0
 24 23  2  0  0  0  0
 25 18  2  0  0  0  0
 25 24  1  0  0  0  0
 26 25  1  0  0  0  0
 27 21  2  0  0  0  0
M  END
>  <MODEL>
1

>  <REMARK>
 VINA RESULT:      -8.3      0.000      0.000
  Name = 
  6 active torsions:
  status: ('A' for Active; 'I' for Inactive)
    1  A    between atoms: C_2  and  C_3
    2  A    between atoms: C_3  and  N_25
    3  A    between atoms: N_6  and  C_24
    4  A    between atoms: C_7  and  N_26
    5  A    between atoms: C_15  and  C_24
    6  A    between atoms: C_15  and  N_25
                            x       y       z     vdW  Elec       q    Type
                         _______ _______ _______ _____ _____    ______ ____

>  <TORSDO>
F 6

$$$$
=
 OpenBabel11052411173D

 27 29  0  0  1  0  0  0  0  0999 V2000
  161.3060  208.6780  151.1130 C   0  0  0  0  0  2  0  0  0  0  0  0
  162.1790  210.2700  152.8240 C   0  0  0  0  0  1  0  0  0  0  0  0
  162.1220  209.9400  151.3430 C   0  0  2  0  0  3  0  0  0  0  0  0
  161.5760  211.0630  150.5830 N   0  0  0  0  0  2  0  0  0  0  0  0
  162.4390  210.4380  148.5090 O   0  0  0  0  0  0  0  0  0  0  0  0
  161.7930  211.2860  149.1820 C   0  0  0  0  0  0  0  0  0  0  0  0
  161.2880  212.4840  148.5610 N   0  0  0  0  0  0  0  0  0  0  0  0
  160.7360  213.5220  149.4260 C   0  0  0  0  0  1  0  0  0  0  0  0
  160.2400  212.5610  144.9620 C   0  0  0  0  0  3  0  0  0  0  0  0
  161.3130  212.6950  147.1300 C   0  0  0  0  0  0  0  0  0  0  0  0
  160.1970  212.3640  146.3430 C   0  0  0  0  0  3  0  0  0  0  0  0
  161.3900  213.0830  144.3710 C   0  0  0  0  0  3  0  0  0  0  0  0
  162.4220  213.2010  146.5200 N   0  0  0  0  0  0  0  0  0  0  0  0
  162.4840  213.4000  145.1760 C   0  0  0  0  0  3  0  0  0  0  0  0
  162.0800  207.7300  150.3250 N   0  0  0  0  0  2  0  0  0  0  0  0
  161.1820  207.1440  149.3410 C   0  0  0  0  0  2  0  0  0  0  0  0
  161.0560  205.6730  149.5670 C   0  0  0  0  0  0  0  0  0  0  0  0
  161.0940  203.4150  148.6970 C   0  0  0  0  0  0  0  0  0  0  0  0
  161.2270  202.5470  147.6610 N   0  0  0  0  0  2  0  0  0  0  0  0
  160.8740  200.7080  149.1390 C   0  0  0  0  0  3  0  0  0  0  0  0
  161.1210  201.2050  147.8570 C   0  0  0  0  0  0  0  0  0  0  0  0
  161.1970  204.7910  148.4890 C   0  0  0  0  0  3  0  0  0  0  0  0
  160.8150  205.1740  150.8540 C   0  0  0  0  0  3  0  0  0  0  0  0
  160.7110  203.7960  151.0680 C   0  0  0  0  0  3  0  0  0  0  0  0
  160.8490  202.9140  149.9930 C   0  0  0  0  0  0  0  0  0  0  0  0
  160.7440  201.5720  150.1800 N   0  0  0  0  0  0  0  0  0  0  0  0
  161.2470  200.4150  146.8860 O   0  0  0  0  0  0  0  0  0  0  0  0
  1  3  1  0  0  0  0
  3  2  1  1  0  0  0
  4  3  1  0  0  0  0
  5  6  2  0  0  0  0
  6  4  1  0  0  0  0
  7  6  1  0  0  0  0
  7  8  1  0  0  0  0
  9 11  1  0  0  0  0
 10  7  1  0  0  0  0
 11 10  2  0  0  0  0
 12  9  2  0  0  0  0
 12 14  1  0  0  0  0
 13 10  1  0  0  0  0
 14 13  2  0  0  0  0
 15  1  1  0  0  0  0
 16 17  1  0  0  0  0
 16 15  1  0  0  0  0
 17 23  1  0  0  0  0
 18 25  2  0  0  0  0
 19 21  1  0  0  0  0
 19 18  1  0  0  0  0
 20 26  2  0  0  0  0
 21 20  1  0  0  0  0
 22 18  1  0  0  0  0
 22 17  2  0  0  0  0
 23 24  2  0  0  0  0
 25 26  1  0  0  0  0
 25 24  1  0  0  0  0
 27 21  2  0  0  0  0
M  END
>  <MODEL>
2

>  <REMARK>
 VINA RESULT:      -8.1      2.241      3.218
  Name = 
  6 active torsions:
  status: ('A' for Active; 'I' for Inactive)
    1  A    between atoms: C_2  and  C_3
    2  A    between atoms: C_3  and  N_25
    3  A    between atoms: N_6  and  C_24
    4  A    between atoms: C_7  and  N_26
    5  A    between atoms: C_15  and  C_24
    6  A    between atoms: C_15  and  N_25
                            x       y       z     vdW  Elec       q    Type
                         _______ _______ _______ _____ _____    ______ ____

>  <TORSDO>
F 6

$$$$
=
 OpenBabel11052411173D

 27 29  0  0  1  0  0  0  0  0999 V2000
  161.1590  208.6140  151.4010 C   0  0  0  0  0  2  0  0  0  0  0  0
  162.2960  210.2090  152.9470 C   0  0  0  0  0  1  0  0  0  0  0  0
  162.0800  209.8200  151.4960 C   0  0  2  0  0  3  0  0  0  0  0  0
  161.5480  210.9470  150.7310 N   0  0  0  0  0  2  0  0  0  0  0  0
  162.3620  210.2780  148.6510 O   0  0  0  0  0  0  0  0  0  0  0  0
  161.7460  211.1490  149.3240 C   0  0  0  0  0  0  0  0  0  0  0  0
  161.2590  212.3520  148.6970 N   0  0  0  0  0  0  0  0  0  0  0  0
  160.7470  213.4120  149.5590 C   0  0  0  0  0  1  0  0  0  0  0  0
  162.3700  213.3030  145.2450 C   0  0  0  0  0  3  0  0  0  0  0  0
  161.2650  212.5460  147.2650 C   0  0  0  0  0  0  0  0  0  0  0  0
  162.3830  213.1100  146.6270 C   0  0  0  0  0  3  0  0  0  0  0  0
  161.2460  212.9370  144.5050 C   0  0  0  0  0  3  0  0  0  0  0  0
  160.1820  212.2010  146.5100 N   0  0  0  0  0  0  0  0  0  0  0  0
  160.1490  212.3810  145.1630 C   0  0  0  0  0  3  0  0  0  0  0  0
  161.8960  207.4740  150.8770 N   0  0  0  0  0  2  0  0  0  0  0  0
  161.1130  206.2800  151.1620 C   0  0  0  0  0  2  0  0  0  0  0  0
  161.1280  205.3580  149.9880 C   0  0  0  0  0  0  0  0  0  0  0  0
  161.2550  205.0250  147.5940 C   0  0  0  0  0  0  0  0  0  0  0  0
  161.3480  205.5200  146.3330 N   0  0  0  0  0  2  0  0  0  0  0  0
  161.2970  203.3060  145.4460 C   0  0  0  0  0  3  0  0  0  0  0  0
  161.3710  204.6880  145.2560 C   0  0  0  0  0  0  0  0  0  0  0  0
  161.2270  205.8840  148.6940 C   0  0  0  0  0  3  0  0  0  0  0  0
  161.0620  203.9710  150.1780 C   0  0  0  0  0  3  0  0  0  0  0  0
  161.0900  203.1070  149.0790 C   0  0  0  0  0  3  0  0  0  0  0  0
  161.1850  203.6290  147.7860 C   0  0  0  0  0  0  0  0  0  0  0  0
  161.2070  202.8050  146.7070 N   0  0  0  0  0  0  0  0  0  0  0  0
  161.4580  205.1630  144.0950 O   0  0  0  0  0  0  0  0  0  0  0  0
  1  3  1  0  0  0  0
  3  2  1  1  0  0  0
  4  3  1  0  0  0  0
  5  6  2  0  0  0  0
  6  4  1  0  0  0  0
  7  6  1  0  0  0  0
  7  8  1  0  0  0  0
  9 11  1  0  0  0  0
 10  7  1  0  0  0  0
 11 10  2  0  0  0  0
 12 14  1  0  0  0  0
 12  9  2  0  0  0  0
 13 10  1  0  0  0  0
 14 13  2  0  0  0  0
 15 16  1  0  0  0  0
 15  1  1  0  0  0  0
 17 23  1  0  0  0  0
 17 16  1  0  0  0  0
 18 25  2  0  0  0  0
 18 22  1  0  0  0  0
 19 18  1  0  0  0  0
 20 26  2  0  0  0  0
 21 20  1  0  0  0  0
 21 19  1  0  0  0  0
 22 17  2  0  0  0  0
 24 23  2  0  0  0  0
 25 24  1  0  0  0  0
 26 25  1  0  0  0  0
 27 21  2  0  0  0  0
M  END
>  <MODEL>
3

>  <REMARK>
 VINA RESULT:      -8.1      1.851      2.496
  Name = 
  6 active torsions:
  status: ('A' for Active; 'I' for Inactive)
    1  A    between atoms: C_2  and  C_3
    2  A    between atoms: C_3  and  N_25
    3  A    between atoms: N_6  and  C_24
    4  A    between atoms: C_7  and  N_26
    5  A    between atoms: C_15  and  C_24
    6  A    between atoms: C_15  and  N_25
                            x       y       z     vdW  Elec       q    Type
                         _______ _______ _______ _____ _____    ______ ____

>  <TORSDO>
F 6

$$$$
=
 OpenBabel11052411173D

 27 29  0  0  1  0  0  0  0  0999 V2000
  161.4710  205.5940  153.1280 C   0  0  0  0  0  2  0  0  0  0  0  0
  162.3240  207.2010  151.4200 C   0  0  0  0  0  1  0  0  0  0  0  0
  161.2720  206.9580  152.4870 C   0  0  2  0  0  3  0  0  0  0  0  0
  161.3000  208.0180  153.4930 N   0  0  0  0  0  2  0  0  0  0  0  0
  160.0110  209.5570  152.3070 O   0  0  0  0  0  0  0  0  0  0  0  0
  160.6880  209.3070  153.3410 C   0  0  0  0  0  0  0  0  0  0  0  0
  160.8690  210.3110  154.3600 N   0  0  0  0  0  0  0  0  0  0  0  0
  161.8290  210.0380  155.4240 C   0  0  0  0  0  1  0  0  0  0  0  0
  158.9160  213.2830  155.5470 C   0  0  0  0  0  3  0  0  0  0  0  0
  160.1450  211.5630  154.3630 C   0  0  0  0  0  0  0  0  0  0  0  0
  159.6220  212.0800  155.5610 C   0  0  0  0  0  3  0  0  0  0  0  0
  158.7290  213.9640  154.3450 C   0  0  0  0  0  3  0  0  0  0  0  0
  159.9420  212.2530  153.2050 N   0  0  0  0  0  0  0  0  0  0  0  0
  159.2560  213.4260  153.1700 C   0  0  0  0  0  3  0  0  0  0  0  0
  161.9630  204.6510  152.1340 N   0  0  0  0  0  2  0  0  0  0  0  0
  160.9340  203.6390  151.9440 C   0  0  0  0  0  2  0  0  0  0  0  0
  160.9240  203.1690  150.5280 C   0  0  0  0  0  0  0  0  0  0  0  0
  161.1950  203.6350  148.1680 C   0  0  0  0  0  0  0  0  0  0  0  0
  161.4490  204.5020  147.1540 N   0  0  0  0  0  2  0  0  0  0  0  0
  161.1880  202.7410  145.5660 C   0  0  0  0  0  3  0  0  0  0  0  0
  161.4500  204.0820  145.8610 C   0  0  0  0  0  0  0  0  0  0  0  0
  161.1890  204.0740  149.4940 C   0  0  0  0  0  3  0  0  0  0  0  0
  160.6680  201.8230  150.2330 C   0  0  0  0  0  3  0  0  0  0  0  0
  160.6720  201.3780  148.9070 C   0  0  0  0  0  3  0  0  0  0  0  0
  160.9340  202.2800  147.8720 C   0  0  0  0  0  0  0  0  0  0  0  0
  160.9360  201.8690  146.5780 N   0  0  0  0  0  0  0  0  0  0  0  0
  161.6870  204.8980  144.9330 O   0  0  0  0  0  0  0  0  0  0  0  0
  3  2  1  6  0  0  0
  3  1  1  0  0  0  0
  3  4  1  0  0  0  0
  5  6  2  0  0  0  0
  6  4  1  0  0  0  0
  6  7  1  0  0  0  0
  7 10  1  0  0  0  0
  7  8  1  0  0  0  0
  9 11  1  0  0  0  0
 10 11  2  0  0  0  0
 12  9  2  0  0  0  0
 13 10  1  0  0  0  0
 14 13  2  0  0  0  0
 14 12  1  0  0  0  0
 15  1  1  0  0  0  0
 16 15  1  0  0  0  0
 17 16  1  0  0  0  0
 18 22  1  0  0  0  0
 19 18  1  0  0  0  0
 20 21  1  0  0  0  0
 20 26  2  0  0  0  0
 21 19  1  0  0  0  0
 22 17  2  0  0  0  0
 23 17  1  0  0  0  0
 24 23  2  0  0  0  0
 25 18  2  0  0  0  0
 25 24  1  0  0  0  0
 26 25  1  0  0  0  0
 27 21  2  0  0  0  0
M  END
>  <MODEL>
4

>  <REMARK>
 VINA RESULT:      -8.1      2.893      3.693
  Name = 
  6 active torsions:
  status: ('A' for Active; 'I' for Inactive)
    1  A    between atoms: C_2  and  C_3
    2  A    between atoms: C_3  and  N_25
    3  A    between atoms: N_6  and  C_24
    4  A    between atoms: C_7  and  N_26
    5  A    between atoms: C_15  and  C_24
    6  A    between atoms: C_15  and  N_25
                            x       y       z     vdW  Elec       q    Type
                         _______ _______ _______ _____ _____    ______ ____

>  <TORSDO>
F 6

$$$$
=
 OpenBabel11052411173D

 27 29  0  0  1  0  0  0  0  0999 V2000
  162.3170  209.2610  151.1250 C   0  0  0  0  0  2  0  0  0  0  0  0
  160.8370  207.9280  152.6280 C   0  0  0  0  0  1  0  0  0  0  0  0
  161.5480  209.2550  152.4360 C   0  0  2  0  0  3  0  0  0  0  0  0
  160.5960  210.3640  152.4910 N   0  0  0  0  0  2  0  0  0  0  0  0
  159.9480  210.0630  154.7100 O   0  0  0  0  0  0  0  0  0  0  0  0
  159.7980  210.7030  153.6340 C   0  0  0  0  0  0  0  0  0  0  0  0
  158.8180  211.7560  153.5370 N   0  0  0  0  0  0  0  0  0  0  0  0
  158.5430  212.3140  152.2170 C   0  0  0  0  0  1  0  0  0  0  0  0
  156.1070  212.3690  156.0520 C   0  0  0  0  0  3  0  0  0  0  0  0
  158.1050  212.2690  154.6850 C   0  0  0  0  0  0  0  0  0  0  0  0
  156.7880  211.8560  154.9480 C   0  0  0  0  0  3  0  0  0  0  0  0
  156.7350  213.2920  156.8870 C   0  0  0  0  0  3  0  0  0  0  0  0
  158.6880  213.1750  155.5200 N   0  0  0  0  0  0  0  0  0  0  0  0
  158.0420  213.6880  156.6010 C   0  0  0  0  0  3  0  0  0  0  0  0
  162.3480  207.9170  150.5680 N   0  0  0  0  0  2  0  0  0  0  0  0
  161.8030  207.9890  149.2210 C   0  0  0  0  0  2  0  0  0  0  0  0
  161.6900  206.6210  148.6330 C   0  0  0  0  0  0  0  0  0  0  0  0
  161.1110  204.2830  148.8760 C   0  0  0  0  0  0  0  0  0  0  0  0
  160.6710  203.2450  149.6320 N   0  0  0  0  0  2  0  0  0  0  0  0
  160.8950  201.7750  147.7670 C   0  0  0  0  0  3  0  0  0  0  0  0
  160.5570  201.9970  149.1050 C   0  0  0  0  0  0  0  0  0  0  0  0
  161.2320  205.5610  149.4260 C   0  0  0  0  0  3  0  0  0  0  0  0
  162.0210  206.4000  147.2900 C   0  0  0  0  0  3  0  0  0  0  0  0
  161.9020  205.1220  146.7350 C   0  0  0  0  0  3  0  0  0  0  0  0
  161.4490  204.0610  147.5240 C   0  0  0  0  0  0  0  0  0  0  0  0
  161.3320  202.8120  147.0050 N   0  0  0  0  0  0  0  0  0  0  0  0
  160.1470  201.0450  149.8190 O   0  0  0  0  0  0  0  0  0  0  0  0
  1  3  1  0  0  0  0
  3  4  1  0  0  0  0
  3  2  1  6  0  0  0
  4  6  1  0  0  0  0
  6  5  2  0  0  0  0
  7  6  1  0  0  0  0
  7 10  1  0  0  0  0
  8  7  1  0  0  0  0
  9 12  1  0  0  0  0
 10 11  1  0  0  0  0
 10 13  2  0  0  0  0
 11  9  2  0  0  0  0
 13 14  1  0  0  0  0
 14 12  2  0  0  0  0
 15  1  1  0  0  0  0
 16 15  1  0  0  0  0
 17 16  1  0  0  0  0
 17 22  1  0  0  0  0
 18 22  2  0  0  0  0
 18 19  1  0  0  0  0
 20 21  1  0  0  0  0
 21 19  1  0  0  0  0
 21 27  2  0  0  0  0
 23 17  2  0  0  0  0
 24 23  1  0  0  0  0
 24 25  2  0  0  0  0
 25 18  1  0  0  0  0
 26 25  1  0  0  0  0
 26 20  2  0  0  0  0
M  END
>  <MODEL>
5

>  <REMARK>
 VINA RESULT:      -7.6      3.931      5.303
  Name = 
  6 active torsions:
  status: ('A' for Active; 'I' for Inactive)
    1  A    between atoms: C_2  and  C_3
    2  A    between atoms: C_3  and  N_25
    3  A    between atoms: N_6  and  C_24
    4  A    between atoms: C_7  and  N_26
    5  A    between atoms: C_15  and  C_24
    6  A    between atoms: C_15  and  N_25
                            x       y       z     vdW  Elec       q    Type
                         _______ _______ _______ _____ _____    ______ ____

>  <TORSDO>
F 6

$$$$
=
 OpenBabel11052411173D

 27 29  0  0  1  0  0  0  0  0999 V2000
  161.2050  205.3170  153.3190 C   0  0  0  0  0  2  0  0  0  0  0  0
  161.5770  203.3110  151.8830 C   0  0  0  0  0  1  0  0  0  0  0  0
  160.8550  204.6400  152.0040 C   0  0  2  0  0  3  0  0  0  0  0  0
  161.1700  205.5060  150.8680 N   0  0  0  0  0  2  0  0  0  0  0  0
  160.8370  203.9080  149.2030 O   0  0  0  0  0  0  0  0  0  0  0  0
  161.1820  205.0850  149.4960 C   0  0  0  0  0  0  0  0  0  0  0  0
  161.6080  206.0020  148.4700 N   0  0  0  0  0  0  0  0  0  0  0  0
  162.1940  207.2720  148.8880 C   0  0  0  0  0  1  0  0  0  0  0  0
  162.3000  204.6370  145.0470 C   0  0  0  0  0  3  0  0  0  0  0  0
  161.4820  205.7120  147.0590 C   0  0  0  0  0  0  0  0  0  0  0  0
  162.4280  204.8990  146.4120 C   0  0  0  0  0  3  0  0  0  0  0  0
  161.2370  205.1870  144.3320 C   0  0  0  0  0  3  0  0  0  0  0  0
  160.4560  206.2360  146.3290 N   0  0  0  0  0  0  0  0  0  0  0  0
  160.3150  205.9940  144.9990 C   0  0  0  0  0  3  0  0  0  0  0  0
  161.2360  206.7600  153.1360 N   0  0  0  0  0  2  0  0  0  0  0  0
  161.2760  207.3680  154.4580 C   0  0  0  0  0  2  0  0  0  0  0  0
  160.6410  208.7180  154.4270 C   0  0  0  0  0  0  0  0  0  0  0  0
  160.1610  210.7770  153.2480 C   0  0  0  0  0  0  0  0  0  0  0  0
  160.2760  211.5660  152.1490 N   0  0  0  0  0  2  0  0  0  0  0  0
  158.9680  213.2550  153.2080 C   0  0  0  0  0  3  0  0  0  0  0  0
  159.6940  212.7950  152.1070 C   0  0  0  0  0  0  0  0  0  0  0  0
  160.7660  209.5190  153.2860 C   0  0  0  0  0  3  0  0  0  0  0  0
  159.9060  209.1780  155.5290 C   0  0  0  0  0  3  0  0  0  0  0  0
  159.2990  210.4370  155.4950 C   0  0  0  0  0  3  0  0  0  0  0  0
  159.4240  211.2400  154.3580 C   0  0  0  0  0  0  0  0  0  0  0  0
  158.8470  212.4680  154.3100 N   0  0  0  0  0  0  0  0  0  0  0  0
  159.8100  213.5130  151.0810 O   0  0  0  0  0  0  0  0  0  0  0  0
  3  2  1  6  0  0  0
  3  1  1  0  0  0  0
  4  3  1  0  0  0  0
  5  6  2  0  0  0  0
  6  4  1  0  0  0  0
  7  8  1  0  0  0  0
  7  6  1  0  0  0  0
  9 11  1  0  0  0  0
 10  7  1  0  0  0  0
 11 10  2  0  0  0  0
 12 14  1  0  0  0  0
 12  9  2  0  0  0  0
 13 10  1  0  0  0  0
 14 13  2  0  0  0  0
 15  1  1  0  0  0  0
 15 16  1  0  0  0  0
 17 16  1  0  0  0  0
 17 23  1  0  0  0  0
 18 22  1  0  0  0  0
 18 25  2  0  0  0  0
 19 18  1  0  0  0  0
 20 26  2  0  0  0  0
 21 19  1  0  0  0  0
 21 20  1  0  0  0  0
 22 17  2  0  0  0  0
 24 23  2  0  0  0  0
 25 24  1  0  0  0  0
 26 25  1  0  0  0  0
 27 21  2  0  0  0  0
M  END
>  <MODEL>
6

>  <REMARK>
 VINA RESULT:      -7.6      3.090      7.968
  Name = 
  6 active torsions:
  status: ('A' for Active; 'I' for Inactive)
    1  A    between atoms: C_2  and  C_3
    2  A    between atoms: C_3  and  N_25
    3  A    between atoms: N_6  and  C_24
    4  A    between atoms: C_7  and  N_26
    5  A    between atoms: C_15  and  C_24
    6  A    between atoms: C_15  and  N_25
                            x       y       z     vdW  Elec       q    Type
                         _______ _______ _______ _____ _____    ______ ____

>  <TORSDO>
F 6

$$$$
=
 OpenBabel11052411173D

 27 29  0  0  1  0  0  0  0  0999 V2000
  162.5640  208.3880  149.8480 C   0  0  0  0  0  2  0  0  0  0  0  0
  162.1090  210.6730  148.9540 C   0  0  0  0  0  1  0  0  0  0  0  0
  161.5740  209.5410  149.8130 C   0  0  2  0  0  3  0  0  0  0  0  0
  161.2720  210.0140  151.1630 N   0  0  0  0  0  2  0  0  0  0  0  0
  161.5230  207.9600  152.2370 O   0  0  0  0  0  0  0  0  0  0  0  0
  161.2240  209.1810  152.3310 C   0  0  0  0  0  0  0  0  0  0  0  0
  160.8140  209.7420  153.5940 N   0  0  0  0  0  0  0  0  0  0  0  0
  160.2800  211.0990  153.5970 C   0  0  0  0  0  1  0  0  0  0  0  0
  160.1140  207.2790  156.3330 C   0  0  0  0  0  3  0  0  0  0  0  0
  160.9080  209.0150  154.8400 C   0  0  0  0  0  0  0  0  0  0  0  0
  160.0190  207.9640  155.1210 C   0  0  0  0  0  3  0  0  0  0  0  0
  161.0880  207.6440  157.2610 C   0  0  0  0  0  3  0  0  0  0  0  0
  161.8480  209.3470  155.7710 N   0  0  0  0  0  0  0  0  0  0  0  0
  161.9560  208.6930  156.9580 C   0  0  0  0  0  3  0  0  0  0  0  0
  162.3490  207.5210  148.6990 N   0  0  0  0  0  2  0  0  0  0  0  0
  160.9640  207.0770  148.7400 C   0  0  0  0  0  2  0  0  0  0  0  0
  160.8890  205.6490  149.1670 C   0  0  0  0  0  0  0  0  0  0  0  0
  161.0740  203.2950  148.6330 C   0  0  0  0  0  0  0  0  0  0  0  0
  161.3010  202.2980  147.7400 N   0  0  0  0  0  2  0  0  0  0  0  0
  160.9480  200.6700  149.4470 C   0  0  0  0  0  3  0  0  0  0  0  0
  161.2430  200.9930  148.1200 C   0  0  0  0  0  0  0  0  0  0  0  0
  161.1280  204.6320  148.2350 C   0  0  0  0  0  3  0  0  0  0  0  0
  160.6000  205.3240  150.5000 C   0  0  0  0  0  3  0  0  0  0  0  0
  160.5440  203.9860  150.9030 C   0  0  0  0  0  3  0  0  0  0  0  0
  160.7790  202.9700  149.9740 C   0  0  0  0  0  0  0  0  0  0  0  0
  160.7230  201.6640  150.3460 N   0  0  0  0  0  0  0  0  0  0  0  0
  161.4560  200.0820  147.2800 O   0  0  0  0  0  0  0  0  0  0  0  0
  3  2  1  6  0  0  0
  3  1  1  0  0  0  0
  3  4  1  0  0  0  0
  4  6  1  0  0  0  0
  5  6  2  0  0  0  0
  6  7  1  0  0  0  0
  7  8  1  0  0  0  0
  7 10  1  0  0  0  0
  9 12  1  0  0  0  0
 10 11  1  0  0  0  0
 10 13  2  0  0  0  0
 11  9  2  0  0  0  0
 13 14  1  0  0  0  0
 14 12  2  0  0  0  0
 15 16  1  0  0  0  0
 15  1  1  0  0  0  0
 16 17  1  0  0  0  0
 17 23  1  0  0  0  0
 18 25  2  0  0  0  0
 19 21  1  0  0  0  0
 19 18  1  0  0  0  0
 20 26  2  0  0  0  0
 21 20  1  0  0  0  0
 22 18  1  0  0  0  0
 22 17  2  0  0  0  0
 23 24  2  0  0  0  0
 25 26  1  0  0  0  0
 25 24  1  0  0  0  0
 27 21  2  0  0  0  0
M  END
>  <MODEL>
7

>  <REMARK>
 VINA RESULT:      -7.5      2.582      5.275
  Name = 
  6 active torsions:
  status: ('A' for Active; 'I' for Inactive)
    1  A    between atoms: C_2  and  C_3
    2  A    between atoms: C_3  and  N_25
    3  A    between atoms: N_6  and  C_24
    4  A    between atoms: C_7  and  N_26
    5  A    between atoms: C_15  and  C_24
    6  A    between atoms: C_15  and  N_25
                            x       y       z     vdW  Elec       q    Type
                         _______ _______ _______ _____ _____    ______ ____

>  <TORSDO>
F 6

$$$$
=
 OpenBabel11052411173D

 27 29  0  0  1  0  0  0  0  0999 V2000
  162.2360  207.9670  151.2480 C   0  0  0  0  0  2  0  0  0  0  0  0
  162.2880  210.3490  150.5060 C   0  0  0  0  0  1  0  0  0  0  0  0
  161.5650  209.3260  151.3630 C   0  0  2  0  0  3  0  0  0  0  0  0
  161.5070  209.7660  152.7560 N   0  0  0  0  0  2  0  0  0  0  0  0
  159.4920  210.9270  152.5960 O   0  0  0  0  0  0  0  0  0  0  0  0
  160.4740  210.5910  153.3130 C   0  0  0  0  0  0  0  0  0  0  0  0
  160.5760  211.0460  154.6760 N   0  0  0  0  0  0  0  0  0  0  0  0
  161.8280  210.8040  155.3850 C   0  0  0  0  0  1  0  0  0  0  0  0
  157.3020  211.7070  156.3780 C   0  0  0  0  0  3  0  0  0  0  0  0
  159.4990  211.7300  155.3570 C   0  0  0  0  0  0  0  0  0  0  0  0
  158.3390  211.0320  155.7330 C   0  0  0  0  0  3  0  0  0  0  0  0
  157.4210  213.0700  156.6440 C   0  0  0  0  0  3  0  0  0  0  0  0
  159.5820  213.0630  155.6300 N   0  0  0  0  0  0  0  0  0  0  0  0
  158.5830  213.7390  156.2570 C   0  0  0  0  0  3  0  0  0  0  0  0
  162.4490  207.6420  149.8450 N   0  0  0  0  0  2  0  0  0  0  0  0
  161.1830  207.1650  149.3100 C   0  0  0  0  0  2  0  0  0  0  0  0
  161.0550  205.6920  149.5160 C   0  0  0  0  0  0  0  0  0  0  0  0
  161.0830  203.4450  148.6150 C   0  0  0  0  0  0  0  0  0  0  0  0
  161.2060  202.5920  147.5670 N   0  0  0  0  0  2  0  0  0  0  0  0
  160.8590  200.7330  149.0220 C   0  0  0  0  0  3  0  0  0  0  0  0
  161.0990  201.2480  147.7440 C   0  0  0  0  0  0  0  0  0  0  0  0
  161.1870  204.8250  148.4250 C   0  0  0  0  0  3  0  0  0  0  0  0
  160.8220  205.1760  150.7980 C   0  0  0  0  0  3  0  0  0  0  0  0
  160.7160  203.7950  150.9930 C   0  0  0  0  0  3  0  0  0  0  0  0
  160.8450  202.9270  149.9060 C   0  0  0  0  0  0  0  0  0  0  0  0
  160.7380  201.5840  150.0750 N   0  0  0  0  0  0  0  0  0  0  0  0
  161.2160  200.4700  146.7620 O   0  0  0  0  0  0  0  0  0  0  0  0
  1  3  1  0  0  0  0
  3  2  1  6  0  0  0
  3  4  1  0  0  0  0
  4  6  1  0  0  0  0
  5  6  2  0  0  0  0
  6  7  1  0  0  0  0
  7 10  1  0  0  0  0
  7  8  1  0  0  0  0
  9 12  1  0  0  0  0
 10 13  2  0  0  0  0
 10 11  1  0  0  0  0
 11  9  2  0  0  0  0
 13 14  1  0  0  0  0
 14 12  2  0  0  0  0
 15  1  1  0  0  0  0
 16 17  1  0  0  0  0
 16 15  1  0  0  0  0
 17 23  1  0  0  0  0
 18 25  2  0  0  0  0
 19 21  1  0  0  0  0
 19 18  1  0  0  0  0
 20 26  2  0  0  0  0
 21 20  1  0  0  0  0
 22 18  1  0  0  0  0
 22 17  2  0  0  0  0
 23 24  2  0  0  0  0
 25 26  1  0  0  0  0
 25 24  1  0  0  0  0
 27 21  2  0  0  0  0
M  END
>  <MODEL>
8

>  <REMARK>
 VINA RESULT:      -7.5      3.518      5.017
  Name = 
  6 active torsions:
  status: ('A' for Active; 'I' for Inactive)
    1  A    between atoms: C_2  and  C_3
    2  A    between atoms: C_3  and  N_25
    3  A    between atoms: N_6  and  C_24
    4  A    between atoms: C_7  and  N_26
    5  A    between atoms: C_15  and  C_24
    6  A    between atoms: C_15  and  N_25
                            x       y       z     vdW  Elec       q    Type
                         _______ _______ _______ _____ _____    ______ ____

>  <TORSDO>
F 6

$$$$
=
 OpenBabel11052411173D

 27 29  0  0  1  0  0  0  0  0999 V2000
  161.1190  207.2840  153.1660 C   0  0  0  0  0  2  0  0  0  0  0  0
  161.7090  204.9630  152.4640 C   0  0  0  0  0  1  0  0  0  0  0  0
  160.9440  206.2210  152.0940 C   0  0  2  0  0  3  0  0  0  0  0  0
  161.3690  206.7190  150.7870 N   0  0  0  0  0  2  0  0  0  0  0  0
  160.7060  204.8560  149.5520 O   0  0  0  0  0  0  0  0  0  0  0  0
  161.2620  205.9880  149.5570 C   0  0  0  0  0  0  0  0  0  0  0  0
  161.8090  206.5420  148.3440 N   0  0  0  0  0  0  0  0  0  0  0  0
  162.6220  207.7490  148.4500 C   0  0  0  0  0  1  0  0  0  0  0  0
  162.1980  204.3600  145.3200 C   0  0  0  0  0  3  0  0  0  0  0  0
  161.5870  205.9500  147.0430 C   0  0  0  0  0  0  0  0  0  0  0  0
  162.4160  204.9130  146.5820 C   0  0  0  0  0  3  0  0  0  0  0  0
  161.1620  204.8420  144.5210 C   0  0  0  0  0  3  0  0  0  0  0  0
  160.5850  206.3990  146.2350 N   0  0  0  0  0  0  0  0  0  0  0  0
  160.3570  205.8740  145.0020 C   0  0  0  0  0  3  0  0  0  0  0  0
  160.5240  208.5340  152.7200 N   0  0  0  0  0  2  0  0  0  0  0  0
  161.5580  209.5560  152.7800 C   0  0  0  0  0  2  0  0  0  0  0  0
  161.2430  210.6700  151.8370 C   0  0  0  0  0  0  0  0  0  0  0  0
  161.5790  211.7590  149.7020 C   0  0  0  0  0  0  0  0  0  0  0  0
  162.1910  211.8300  148.4920 N   0  0  0  0  0  2  0  0  0  0  0  0
  160.9690  213.8120  147.9740 C   0  0  0  0  0  3  0  0  0  0  0  0
  161.9050  212.8350  147.6220 C   0  0  0  0  0  0  0  0  0  0  0  0
  161.8810  210.7270  150.5930 C   0  0  0  0  0  3  0  0  0  0  0  0
  160.2990  211.6450  152.1870 C   0  0  0  0  0  3  0  0  0  0  0  0
  159.9930  212.6800  151.2980 C   0  0  0  0  0  3  0  0  0  0  0  0
  160.6300  212.7420  150.0560 C   0  0  0  0  0  0  0  0  0  0  0  0
  160.3510  213.7440  149.1830 N   0  0  0  0  0  0  0  0  0  0  0  0
  162.4820  212.8860  146.5050 O   0  0  0  0  0  0  0  0  0  0  0  0
  3  2  1  1  0  0  0
  3  1  1  0  0  0  0
  4  3  1  0  0  0  0
  5  6  2  0  0  0  0
  6  4  1  0  0  0  0
  7  8  1  0  0  0  0
  7  6  1  0  0  0  0
  9 11  1  0  0  0  0
 10  7  1  0  0  0  0
 11 10  2  0  0  0  0
 12 14  1  0  0  0  0
 12  9  2  0  0  0  0
 13 10  1  0  0  0  0
 14 13  2  0  0  0  0
 15 16  1  0  0  0  0
 15  1  1  0  0  0  0
 17 23  1  0  0  0  0
 17 16  1  0  0  0  0
 18 25  2  0  0  0  0
 18 22  1  0  0  0  0
 19 18  1  0  0  0  0
 20 26  2  0  0  0  0
 21 20  1  0  0  0  0
 21 19  1  0  0  0  0
 22 17  2  0  0  0  0
 24 23  2  0  0  0  0
 25 24  1  0  0  0  0
 26 25  1  0  0  0  0
 27 21  2  0  0  0  0
M  END
>  <MODEL>
9

>  <REMARK>
 VINA RESULT:      -7.2      2.584      7.522
  Name = 
  6 active torsions:
  status: ('A' for Active; 'I' for Inactive)
    1  A    between atoms: C_2  and  C_3
    2  A    between atoms: C_3  and  N_25
    3  A    between atoms: N_6  and  C_24
    4  A    between atoms: C_7  and  N_26
    5  A    between atoms: C_15  and  C_24
    6  A    between atoms: C_15  and  N_25
                            x       y       z     vdW  Elec       q    Type
                         _______ _______ _______ _____ _____    ______ ____

>  <TORSDO>
F 6

$$$$
