=
 OpenBabel11052410303D

 45 49  0  0  1  0  0  0  0  0999 V2000
  161.2360  208.2050  151.1530 C   0  0  0  0  0  0  0  0  0  0  0  0
  161.9220  209.4320  151.4810 N   0  0  0  0  0  0  0  0  0  0  0  0
  160.4280  207.7150  151.9900 O   0  0  0  0  0  0  0  0  0  0  0  0
  161.4480  207.4960  149.8710 C   0  0  0  0  0  0  0  0  0  0  0  0
  162.7060  207.5200  149.2560 C   0  0  0  0  0  3  0  0  0  0  0  0
  162.9070  206.8850  148.0700 N   0  0  0  0  0  0  0  0  0  0  0  0
  162.1800  205.5600  146.1960 N   0  0  0  0  0  2  0  0  0  0  0  0
  160.6290  206.1810  148.0060 C   0  0  0  0  0  3  0  0  0  0  0  0
  161.9070  206.2180  147.4350 C   0  0  0  0  0  0  0  0  0  0  0  0
  160.4040  206.8260  149.2220 C   0  0  0  0  0  3  0  0  0  0  0  0
  161.1700  204.8260  145.4480 C   0  0  0  0  0  2  0  0  0  0  0  0
  161.3800  203.0840  147.2280 N   0  0  0  0  0  0  0  0  0  0  0  0
  160.6140  202.3510  145.2560 C   0  0  0  0  0  3  0  0  0  0  0  0
  161.0760  203.4350  145.9670 C   0  0  0  0  0  0  0  0  0  0  0  0
  160.6380  201.2850  146.0790 N   0  0  0  0  0  2  0  0  0  0  0  0
  161.2900  200.9190  148.4560 C   0  0  0  0  0  1  0  0  0  0  0  0
  161.1040  201.7660  147.2480 C   0  0  0  0  0  0  0  0  0  0  0  0
  162.5010  210.3050  150.4670 C   0  0  0  0  0  2  0  0  0  0  0  0
  161.4050  211.0370  149.7100 C   0  0  0  0  0  2  0  0  0  0  0  0
  162.0150  211.9390  148.6550 C   0  0  0  0  0  2  0  0  0  0  0  0
  160.5110  213.4630  147.3150 C   0  0  0  0  0  3  0  0  0  0  0  0
  160.5700  212.6820  146.2830 N   0  0  0  0  0  0  0  0  0  0  0  0
  161.2190  213.1490  148.5160 N   0  0  0  0  0  2  0  0  0  0  0  0
  159.8730  212.9700  145.0640 C   0  0  0  0  0  0  0  0  0  0  0  0
  158.6410  212.7100  144.9660 O   0  0  0  0  0  0  0  0  0  0  0  0
  160.5760  213.5570  143.9530 N   0  0  0  0  0  0  0  0  0  0  0  0
  160.7300  213.8060  141.5980 O   0  0  0  0  0  0  0  0  0  0  0  0
  159.8910  212.6910  141.7520 C   0  0  0  0  0  0  0  0  0  0  0  0
  160.7140  211.4410  142.0260 C   0  0  0  0  0  1  0  0  0  0  0  0
  158.8430  212.6490  140.6630 C   0  0  0  0  0  1  0  0  0  0  0  0
  159.8490  213.8380  142.7050 C   0  0  1  0  0  3  0  0  0  0  0  0
  161.9200  214.0250  144.1670 C   0  0  0  0  0  3  0  0  0  0  0  0
  162.9800  213.2260  144.1140 C   0  0  0  0  0  2  0  0  0  0  0  0
  162.0530  209.8360  152.8740 C   0  0  0  0  0  2  0  0  0  0  0  0
  158.0040  213.3020  155.7490 C   0  0  0  0  0  2  0  0  0  0  0  0
  159.1310  211.0180  154.6030 C   0  0  0  0  0  0  0  0  0  0  0  0
  157.1270  212.5680  154.7390 C   0  0  2  0  0  3  0  0  0  0  0  0
  160.2030  211.0470  153.8560 C   0  0  0  0  0  0  0  0  0  0  0  0
  158.0000  212.6350  156.9850 O   0  0  0  0  0  0  0  0  0  0  0  0
  160.4890  212.7370  156.9550 C   0  0  0  0  0  1  0  0  0  0  0  0
  159.2110  211.9170  157.1360 C   0  0  2  0  0  3  0  0  0  0  0  0
  159.2270  210.3160  156.2490 S   0  0  0  0  0  0  0  0  0  0  0  0
  157.7840  211.3680  154.0360 C   0  0  1  0  0  3  0  0  0  0  0  0
  161.2730  211.0810  153.1150 C   0  0  0  0  0  3  0  0  0  0  0  0
  157.7580  212.7370  153.3750 C   0  0  0  0  0  2  0  0  0  0  0  0
  1  2  1  0  0  0  0
  1  3  2  0  0  0  0
  2 34  1  0  0  0  0
  4  1  1  0  0  0  0
  5  4  2  0  0  0  0
  6  5  1  0  0  0  0
  7  9  1  0  0  0  0
  8 10  2  0  0  0  0
  9  8  1  0  0  0  0
  9  6  2  0  0  0  0
 10  4  1  0  0  0  0
 11 14  1  0  0  0  0
 11  7  1  0  0  0  0
 12 17  2  0  0  0  0
 13 14  2  0  0  0  0
 13 15  1  0  0  0  0
 14 12  1  0  0  0  0
 15 17  1  0  0  0  0
 17 16  1  0  0  0  0
 18  2  1  0  0  0  0
 19 18  1  0  0  0  0
 20 19  1  0  0  0  0
 21 23  1  0  0  0  0
 22 21  2  0  0  0  0
 23 20  1  0  0  0  0
 24 22  1  0  0  0  0
 25 24  2  0  0  0  0
 26 32  1  0  0  0  0
 26 24  1  0  0  0  0
 27 28  1  0  0  0  0
 27 31  1  0  0  0  0
 28 29  1  0  0  0  0
 28 31  1  0  0  0  0
 30 28  1  0  0  0  0
 31 26  1  1  0  0  0
 33 32  2  0  0  0  0
 34 44  1  0  0  0  0
 35 39  1  0  0  0  0
 36 42  1  0  0  0  0
 37 45  1  6  0  0  0
 37 35  1  0  0  0  0
 38 36  2  0  0  0  0
 39 41  1  0  0  0  0
 41 40  1  6  0  0  0
 42 41  1  0  0  0  0
 43 45  1  6  0  0  0
 43 36  1  0  0  0  0
 43 37  1  0  0  0  0
 44 38  2  0  0  0  0
M  END
>  <MODEL>
1

>  <REMARK>
 VINA RESULT:      -7.0      0.000      0.000
  Name = 
  12 active torsions:
  status: ('A' for Active; 'I' for Inactive)
    1  A    between atoms: C_3  and  C_20
    2  A    between atoms: C_5  and  C_7
    3  A    between atoms: C_7  and  N_32
    4  A    between atoms: C_9  and  N_45
    5  A    between atoms: N_11  and  C_38
    6  A    between atoms: C_15  and  C_26
    7  A    between atoms: C_15  and  C_29
    8  A    between atoms: N_17  and  C_29
    9  A    between atoms: C_26  and  N_34
   10  A    between atoms: C_27  and  N_34
   11  A    between atoms: C_27  and  C_41
   12  A    between atoms: C_36  and  N_45
                            x       y       z     vdW  Elec       q    Type
                         _______ _______ _______ _____ _____    ______ ____

>  <TORSDO>
F 12

$$$$
=
 OpenBabel11052410303D

 45 49  0  0  1  0  0  0  0  0999 V2000
  161.9360  209.5730  151.1210 C   0  0  0  0  0  0  0  0  0  0  0  0
  161.9890  210.2140  149.8300 N   0  0  0  0  0  0  0  0  0  0  0  0
  162.3300  208.3780  151.2270 O   0  0  0  0  0  0  0  0  0  0  0  0
  161.4330  210.2630  152.3300 C   0  0  0  0  0  0  0  0  0  0  0  0
  161.9030  209.8940  153.5960 C   0  0  0  0  0  3  0  0  0  0  0  0
  161.4350  210.5110  154.7140 N   0  0  0  0  0  0  0  0  0  0  0  0
  160.0490  212.1120  155.8590 N   0  0  0  0  0  2  0  0  0  0  0  0
  159.9850  211.8820  153.4080 C   0  0  0  0  0  3  0  0  0  0  0  0
  160.4950  211.4920  154.6520 C   0  0  0  0  0  0  0  0  0  0  0  0
  160.4540  211.2620  152.2500 C   0  0  0  0  0  3  0  0  0  0  0  0
  159.0460  213.1670  155.8860 C   0  0  0  0  0  2  0  0  0  0  0  0
  157.2770  211.4950  155.3170 N   0  0  0  0  0  0  0  0  0  0  0  0
  156.7190  212.9780  156.8990 C   0  0  0  0  0  3  0  0  0  0  0  0
  157.6910  212.5650  156.0160 C   0  0  0  0  0  0  0  0  0  0  0  0
  155.6590  212.1620  156.7470 N   0  0  0  0  0  2  0  0  0  0  0  0
  155.1540  210.1920  155.3050 C   0  0  0  0  0  1  0  0  0  0  0  0
  156.0330  211.2890  155.7900 C   0  0  0  0  0  0  0  0  0  0  0  0
  161.9980  211.6640  149.6700 C   0  0  0  0  0  2  0  0  0  0  0  0
  162.3580  212.0360  148.2410 C   0  0  0  0  0  2  0  0  0  0  0  0
  161.3170  212.9790  147.6710 C   0  0  0  0  0  2  0  0  0  0  0  0
  162.3380  214.1600  145.6870 C   0  0  0  0  0  3  0  0  0  0  0  0
  162.1270  213.1390  144.9170 N   0  0  0  0  0  0  0  0  0  0  0  0
  161.9670  214.1310  147.0660 N   0  0  0  0  0  2  0  0  0  0  0  0
  162.4880  213.1360  143.5310 C   0  0  0  0  0  0  0  0  0  0  0  0
  163.5880  213.6350  143.1640 O   0  0  0  0  0  0  0  0  0  0  0  0
  161.5970  212.5610  142.5560 N   0  0  0  0  0  0  0  0  0  0  0  0
  160.8640  212.2600  140.3190 O   0  0  0  0  0  0  0  0  0  0  0  0
  161.2390  213.6120  140.3580 C   0  0  0  0  0  0  0  0  0  0  0  0
  160.1330  214.4520  140.9780 C   0  0  0  0  0  1  0  0  0  0  0  0
  161.8300  214.0460  139.0350 C   0  0  0  0  0  1  0  0  0  0  0  0
  161.9770  212.5740  141.1340 C   0  0  1  0  0  3  0  0  0  0  0  0
  160.4540  211.8240  143.0270 C   0  0  0  0  0  3  0  0  0  0  0  0
  159.7370  212.1990  144.0800 C   0  0  0  0  0  2  0  0  0  0  0  0
  162.0360  209.4030  148.6210 C   0  0  0  0  0  2  0  0  0  0  0  0
  161.8880  203.3700  148.1000 C   0  0  0  0  0  2  0  0  0  0  0  0
  160.9510  206.0000  148.2080 C   0  0  0  0  0  0  0  0  0  0  0  0
  160.7520  203.6280  149.0860 C   0  0  2  0  0  3  0  0  0  0  0  0
  161.6910  207.0080  148.5860 C   0  0  0  0  0  0  0  0  0  0  0  0
  161.3950  203.2880  146.7870 O   0  0  0  0  0  0  0  0  0  0  0  0
  163.1430  204.9290  146.1140 C   0  0  0  0  0  1  0  0  0  0  0  0
  161.6780  204.4930  146.1020 C   0  0  2  0  0  3  0  0  0  0  0  0
  160.5000  205.8430  146.4800 S   0  0  0  0  0  0  0  0  0  0  0  0
  160.3030  205.0930  149.2160 C   0  0  1  0  0  3  0  0  0  0  0  0
  162.4330  208.0090  148.9630 C   0  0  0  0  0  3  0  0  0  0  0  0
  161.2970  204.4940  150.1990 C   0  0  0  0  0  2  0  0  0  0  0  0
  1  3  2  0  0  0  0
  1  4  1  0  0  0  0
  2  1  1  0  0  0  0
  4  5  2  0  0  0  0
  5  6  1  0  0  0  0
  7 11  1  0  0  0  0
  8  9  1  0  0  0  0
  9  6  2  0  0  0  0
  9  7  1  0  0  0  0
 10  4  1  0  0  0  0
 10  8  2  0  0  0  0
 11 14  1  0  0  0  0
 12 17  2  0  0  0  0
 12 14  1  0  0  0  0
 14 13  2  0  0  0  0
 15 13  1  0  0  0  0
 16 17  1  0  0  0  0
 17 15  1  0  0  0  0
 18  2  1  0  0  0  0
 19 18  1  0  0  0  0
 20 19  1  0  0  0  0
 21 23  1  0  0  0  0
 22 21  2  0  0  0  0
 23 20  1  0  0  0  0
 24 22  1  0  0  0  0
 25 24  2  0  0  0  0
 26 32  1  0  0  0  0
 26 24  1  0  0  0  0
 27 28  1  0  0  0  0
 27 31  1  0  0  0  0
 28 29  1  0  0  0  0
 28 31  1  0  0  0  0
 30 28  1  0  0  0  0
 31 26  1  1  0  0  0
 32 33  2  0  0  0  0
 34 44  1  0  0  0  0
 34  2  1  0  0  0  0
 36 38  2  0  0  0  0
 36 43  1  0  0  0  0
 37 35  1  6  0  0  0
 37 43  1  0  0  0  0
 37 45  1  0  0  0  0
 38 44  2  0  0  0  0
 39 35  1  0  0  0  0
 41 40  1  1  0  0  0
 41 42  1  0  0  0  0
 41 39  1  0  0  0  0
 42 36  1  0  0  0  0
 43 45  1  1  0  0  0
M  END
>  <MODEL>
2

>  <REMARK>
 VINA RESULT:      -6.5      3.377      8.523
  Name = 
  12 active torsions:
  status: ('A' for Active; 'I' for Inactive)
    1  A    between atoms: C_3  and  C_20
    2  A    between atoms: C_5  and  C_7
    3  A    between atoms: C_7  and  N_32
    4  A    between atoms: C_9  and  N_45
    5  A    between atoms: N_11  and  C_38
    6  A    between atoms: C_15  and  C_26
    7  A    between atoms: C_15  and  C_29
    8  A    between atoms: N_17  and  C_29
    9  A    between atoms: C_26  and  N_34
   10  A    between atoms: C_27  and  N_34
   11  A    between atoms: C_27  and  C_41
   12  A    between atoms: C_36  and  N_45
                            x       y       z     vdW  Elec       q    Type
                         _______ _______ _______ _____ _____    ______ ____

>  <TORSDO>
F 12

$$$$
=
 OpenBabel11052410303D

 45 49  0  0  1  0  0  0  0  0999 V2000
  162.3580  207.9770  151.1810 C   0  0  0  0  0  0  0  0  0  0  0  0
  162.3610  208.7600  149.9690 N   0  0  0  0  0  0  0  0  0  0  0  0
  163.0330  206.9110  151.2220 O   0  0  0  0  0  0  0  0  0  0  0  0
  161.5870  208.3740  152.3800 C   0  0  0  0  0  0  0  0  0  0  0  0
  160.9330  207.4020  153.1490 C   0  0  0  0  0  3  0  0  0  0  0  0
  160.2090  207.7590  154.2430 N   0  0  0  0  0  0  0  0  0  0  0  0
  159.3160  209.3700  155.7930 N   0  0  0  0  0  2  0  0  0  0  0  0
  160.7040  210.0630  153.8800 C   0  0  0  0  0  3  0  0  0  0  0  0
  160.0810  209.0570  154.6270 C   0  0  0  0  0  0  0  0  0  0  0  0
  161.4520  209.7170  152.7540 C   0  0  0  0  0  3  0  0  0  0  0  0
  159.1250  210.7300  156.2740 C   0  0  0  0  0  2  0  0  0  0  0  0
  158.1240  212.4920  154.8110 N   0  0  0  0  0  0  0  0  0  0  0  0
  156.7220  210.8670  155.4480 C   0  0  0  0  0  3  0  0  0  0  0  0
  158.0010  211.3680  155.5360 C   0  0  0  0  0  0  0  0  0  0  0  0
  156.0130  211.7000  154.6620 N   0  0  0  0  0  2  0  0  0  0  0  0
  156.5250  213.7970  153.4170 C   0  0  0  0  0  1  0  0  0  0  0  0
  156.8880  212.6600  154.3020 C   0  0  0  0  0  0  0  0  0  0  0  0
  162.0130  210.1760  149.9460 C   0  0  0  0  0  2  0  0  0  0  0  0
  162.0660  210.7110  148.5240 C   0  0  0  0  0  2  0  0  0  0  0  0
  162.8530  212.0060  148.4850 C   0  0  0  0  0  2  0  0  0  0  0  0
  161.5100  213.6650  147.1350 C   0  0  0  0  0  3  0  0  0  0  0  0
  161.9350  213.1630  146.0180 N   0  0  0  0  0  0  0  0  0  0  0  0
  161.9430  213.1370  148.3900 N   0  0  0  0  0  2  0  0  0  0  0  0
  161.5210  213.6700  144.7430 C   0  0  0  0  0  0  0  0  0  0  0  0
  162.2970  214.4090  144.0750 O   0  0  0  0  0  0  0  0  0  0  0  0
  160.2210  213.3350  144.2220 N   0  0  0  0  0  0  0  0  0  0  0  0
  160.8810  213.8330  141.9980 O   0  0  0  0  0  0  0  0  0  0  0  0
  159.8930  212.8500  141.8310 C   0  0  0  0  0  0  0  0  0  0  0  0
  160.4750  211.4650  142.0660 C   0  0  0  0  0  1  0  0  0  0  0  0
  159.0910  213.1000  140.5730 C   0  0  0  0  0  1  0  0  0  0  0  0
  159.8050  213.8700  142.9170 C   0  0  1  0  0  3  0  0  0  0  0  0
  159.4480  212.3330  144.9100 C   0  0  0  0  0  3  0  0  0  0  0  0
  158.2570  212.5810  145.4440 C   0  0  0  0  0  2  0  0  0  0  0  0
  162.7230  208.1340  148.7050 C   0  0  0  0  0  2  0  0  0  0  0  0
  160.1590  203.5740  145.6550 C   0  0  0  0  0  2  0  0  0  0  0  0
  161.9350  205.6520  146.2270 C   0  0  0  0  0  0  0  0  0  0  0  0
  160.3090  204.6330  144.5670 C   0  0  2  0  0  3  0  0  0  0  0  0
  161.7600  206.4920  147.2110 C   0  0  0  0  0  0  0  0  0  0  0  0
  161.2520  202.6920  145.6420 O   0  0  0  0  0  0  0  0  0  0  0  0
  161.4840  203.0730  148.0920 C   0  0  0  0  0  1  0  0  0  0  0  0
  162.1280  203.0130  146.7060 C   0  0  2  0  0  3  0  0  0  0  0  0
  163.2360  204.4240  146.3420 S   0  0  0  0  0  0  0  0  0  0  0  0
  161.2110  205.8270  144.9210 C   0  0  1  0  0  3  0  0  0  0  0  0
  161.5820  207.3260  148.1960 C   0  0  0  0  0  3  0  0  0  0  0  0
  159.7030  205.9160  145.0890 C   0  0  0  0  0  2  0  0  0  0  0  0
  1  3  2  0  0  0  0
  1  4  1  0  0  0  0
  2  1  1  0  0  0  0
  4 10  1  0  0  0  0
  4  5  2  0  0  0  0
  5  6  1  0  0  0  0
  6  9  2  0  0  0  0
  7 11  1  0  0  0  0
  8  9  1  0  0  0  0
  9  7  1  0  0  0  0
 10  8  2  0  0  0  0
 12 14  1  0  0  0  0
 13 14  2  0  0  0  0
 14 11  1  0  0  0  0
 15 13  1  0  0  0  0
 16 17  1  0  0  0  0
 17 15  1  0  0  0  0
 17 12  2  0  0  0  0
 18  2  1  0  0  0  0
 19 18  1  0  0  0  0
 20 19  1  0  0  0  0
 21 23  1  0  0  0  0
 22 21  2  0  0  0  0
 23 20  1  0  0  0  0
 24 22  1  0  0  0  0
 25 24  2  0  0  0  0
 26 24  1  0  0  0  0
 26 32  1  0  0  0  0
 27 31  1  0  0  0  0
 28 27  1  0  0  0  0
 28 29  1  0  0  0  0
 28 31  1  0  0  0  0
 30 28  1  0  0  0  0
 31 26  1  1  0  0  0
 32 33  2  0  0  0  0
 34  2  1  0  0  0  0
 36 42  1  0  0  0  0
 36 38  2  0  0  0  0
 37 43  1  0  0  0  0
 37 45  1  1  0  0  0
 37 35  1  0  0  0  0
 38 44  2  0  0  0  0
 39 35  1  0  0  0  0
 39 41  1  0  0  0  0
 41 40  1  1  0  0  0
 42 41  1  0  0  0  0
 43 45  1  1  0  0  0
 43 36  1  0  0  0  0
 44 34  1  0  0  0  0
M  END
>  <MODEL>
3

>  <REMARK>
 VINA RESULT:      -5.8      3.222      8.536
  Name = 
  12 active torsions:
  status: ('A' for Active; 'I' for Inactive)
    1  A    between atoms: C_3  and  C_20
    2  A    between atoms: C_5  and  C_7
    3  A    between atoms: C_7  and  N_32
    4  A    between atoms: C_9  and  N_45
    5  A    between atoms: N_11  and  C_38
    6  A    between atoms: C_15  and  C_26
    7  A    between atoms: C_15  and  C_29
    8  A    between atoms: N_17  and  C_29
    9  A    between atoms: C_26  and  N_34
   10  A    between atoms: C_27  and  N_34
   11  A    between atoms: C_27  and  C_41
   12  A    between atoms: C_36  and  N_45
                            x       y       z     vdW  Elec       q    Type
                         _______ _______ _______ _____ _____    ______ ____

>  <TORSDO>
F 12

$$$$
=
 OpenBabel11052410303D

 45 49  0  0  1  0  0  0  0  0999 V2000
  157.6390  213.8330  149.0380 C   0  0  0  0  0  0  0  0  0  0  0  0
  158.4940  214.1130  150.1660 N   0  0  0  0  0  0  0  0  0  0  0  0
  156.3890  213.9450  149.1740 O   0  0  0  0  0  0  0  0  0  0  0  0
  158.1740  213.4130  147.7230 C   0  0  0  0  0  0  0  0  0  0  0  0
  157.4120  212.5860  146.8870 C   0  0  0  0  0  3  0  0  0  0  0  0
  157.9010  212.1820  145.6840 N   0  0  0  0  0  0  0  0  0  0  0  0
  159.5930  212.1010  143.9730 N   0  0  0  0  0  2  0  0  0  0  0  0
  159.9400  213.3610  146.0610 C   0  0  0  0  0  3  0  0  0  0  0  0
  159.1370  212.5480  145.2520 C   0  0  0  0  0  0  0  0  0  0  0  0
  159.4550  213.7870  147.2980 C   0  0  0  0  0  3  0  0  0  0  0  0
  160.9010  212.4430  143.4340 C   0  0  0  0  0  2  0  0  0  0  0  0
  162.1100  211.7690  141.3530 N   0  0  0  0  0  0  0  0  0  0  0  0
  159.8810  211.8730  141.1730 C   0  0  0  0  0  3  0  0  0  0  0  0
  160.9670  212.0530  141.9990 C   0  0  0  0  0  0  0  0  0  0  0  0
  160.3450  211.4800  139.9710 N   0  0  0  0  0  2  0  0  0  0  0  0
  162.6070  211.0350  139.0250 C   0  0  0  0  0  1  0  0  0  0  0  0
  161.6840  211.4320  140.1200 C   0  0  0  0  0  0  0  0  0  0  0  0
  159.9040  214.4530  150.0200 C   0  0  0  0  0  2  0  0  0  0  0  0
  160.7720  213.4210  150.7210 C   0  0  0  0  0  2  0  0  0  0  0  0
  160.7140  212.1010  149.9770 C   0  0  0  0  0  2  0  0  0  0  0  0
  162.4160  210.4860  149.0450 C   0  0  0  0  0  3  0  0  0  0  0  0
  161.6510  209.4700  149.2970 N   0  0  0  0  0  0  0  0  0  0  0  0
  162.0060  211.8140  149.3730 N   0  0  0  0  0  2  0  0  0  0  0  0
  162.0340  208.1250  148.9810 C   0  0  0  0  0  0  0  0  0  0  0  0
  162.8040  207.9010  148.0050 O   0  0  0  0  0  0  0  0  0  0  0  0
  161.5440  207.0310  149.7770 N   0  0  0  0  0  0  0  0  0  0  0  0
  160.8170  204.7920  149.4720 O   0  0  0  0  0  0  0  0  0  0  0  0
  161.2690  205.1640  148.1960 C   0  0  0  0  0  0  0  0  0  0  0  0
  160.2070  205.9770  147.4720 C   0  0  0  0  0  1  0  0  0  0  0  0
  161.8980  203.9870  147.4830 C   0  0  0  0  0  1  0  0  0  0  0  0
  161.9380  205.6550  149.4360 C   0  0  1  0  0  3  0  0  0  0  0  0
  160.8400  207.3350  150.9960 C   0  0  0  0  0  3  0  0  0  0  0  0
  161.1350  206.7700  152.1610 C   0  0  0  0  0  2  0  0  0  0  0  0
  157.9480  214.0620  151.5150 C   0  0  0  0  0  2  0  0  0  0  0  0
  159.2640  209.9400  155.7530 C   0  0  0  0  0  2  0  0  0  0  0  0
  159.5090  212.2480  154.1980 C   0  0  0  0  0  0  0  0  0  0  0  0
  160.6200  210.1460  155.0840 C   0  0  2  0  0  3  0  0  0  0  0  0
  158.7950  212.4680  153.1270 C   0  0  0  0  0  0  0  0  0  0  0  0
  159.1410  210.7600  156.8860 O   0  0  0  0  0  0  0  0  0  0  0  0
  156.9430  211.5220  155.9940 C   0  0  0  0  0  1  0  0  0  0  0  0
  158.3140  211.8670  156.5770 C   0  0  2  0  0  3  0  0  0  0  0  0
  159.1860  213.2030  155.6800 S   0  0  0  0  0  0  0  0  0  0  0  0
  160.7230  211.3640  154.1510 C   0  0  1  0  0  3  0  0  0  0  0  0
  158.0780  212.6830  152.0610 C   0  0  0  0  0  3  0  0  0  0  0  0
  160.4270  209.9810  153.5930 C   0  0  0  0  0  2  0  0  0  0  0  0
  1  3  2  0  0  0  0
  1  2  1  0  0  0  0
  2 34  1  0  0  0  0
  4  1  1  0  0  0  0
  5  4  2  0  0  0  0
  6  5  1  0  0  0  0
  7  9  1  0  0  0  0
  8 10  2  0  0  0  0
  9  6  2  0  0  0  0
  9  8  1  0  0  0  0
 10  4  1  0  0  0  0
 11  7  1  0  0  0  0
 12 14  1  0  0  0  0
 13 14  2  0  0  0  0
 14 11  1  0  0  0  0
 15 17  1  0  0  0  0
 15 13  1  0  0  0  0
 16 17  1  0  0  0  0
 17 12  2  0  0  0  0
 18  2  1  0  0  0  0
 18 19  1  0  0  0  0
 20 19  1  0  0  0  0
 21 22  2  0  0  0  0
 21 23  1  0  0  0  0
 23 20  1  0  0  0  0
 24 22  1  0  0  0  0
 24 26  1  0  0  0  0
 25 24  2  0  0  0  0
 26 32  1  0  0  0  0
 28 31  1  0  0  0  0
 28 27  1  0  0  0  0
 29 28  1  0  0  0  0
 30 28  1  0  0  0  0
 31 27  1  0  0  0  0
 31 26  1  1  0  0  0
 32 33  2  0  0  0  0
 34 44  1  0  0  0  0
 35 39  1  0  0  0  0
 36 42  1  0  0  0  0
 37 45  1  6  0  0  0
 37 35  1  0  0  0  0
 38 36  2  0  0  0  0
 41 40  1  6  0  0  0
 41 39  1  0  0  0  0
 42 41  1  0  0  0  0
 43 45  1  6  0  0  0
 43 36  1  0  0  0  0
 43 37  1  0  0  0  0
 44 38  2  0  0  0  0
M  END
>  <MODEL>
4

>  <REMARK>
 VINA RESULT:      -5.7      2.702      7.483
  Name = 
  12 active torsions:
  status: ('A' for Active; 'I' for Inactive)
    1  A    between atoms: C_3  and  C_20
    2  A    between atoms: C_5  and  C_7
    3  A    between atoms: C_7  and  N_32
    4  A    between atoms: C_9  and  N_45
    5  A    between atoms: N_11  and  C_38
    6  A    between atoms: C_15  and  C_26
    7  A    between atoms: C_15  and  C_29
    8  A    between atoms: N_17  and  C_29
    9  A    between atoms: C_26  and  N_34
   10  A    between atoms: C_27  and  N_34
   11  A    between atoms: C_27  and  C_41
   12  A    between atoms: C_36  and  N_45
                            x       y       z     vdW  Elec       q    Type
                         _______ _______ _______ _____ _____    ______ ____

>  <TORSDO>
F 12

$$$$
=
 OpenBabel11052410303D

 45 49  0  0  1  0  0  0  0  0999 V2000
  161.4710  208.2420  154.8240 C   0  0  0  0  0  0  0  0  0  0  0  0
  161.1950  209.5940  154.4010 N   0  0  0  0  0  0  0  0  0  0  0  0
  161.7010  208.0190  156.0450 O   0  0  0  0  0  0  0  0  0  0  0  0
  161.5000  207.1050  153.8770 C   0  0  0  0  0  0  0  0  0  0  0  0
  162.3140  207.1610  152.7380 C   0  0  0  0  0  3  0  0  0  0  0  0
  162.3350  206.1280  151.8540 N   0  0  0  0  0  0  0  0  0  0  0  0
  161.6420  203.9590  151.0710 N   0  0  0  0  0  2  0  0  0  0  0  0
  160.7290  204.9260  153.1440 C   0  0  0  0  0  3  0  0  0  0  0  0
  161.5700  205.0170  152.0280 C   0  0  0  0  0  0  0  0  0  0  0  0
  160.6940  205.9750  154.0630 C   0  0  0  0  0  3  0  0  0  0  0  0
  160.8570  202.7380  151.1770 C   0  0  0  0  0  2  0  0  0  0  0  0
  160.5700  202.5520  148.7010 N   0  0  0  0  0  0  0  0  0  0  0  0
  161.3250  200.7060  149.7190 C   0  0  0  0  0  3  0  0  0  0  0  0
  160.8970  202.0040  149.8840 C   0  0  0  0  0  0  0  0  0  0  0  0
  161.2550  200.4180  148.4050 N   0  0  0  0  0  2  0  0  0  0  0  0
  160.5710  201.6810  146.3680 C   0  0  0  0  0  1  0  0  0  0  0  0
  160.7970  201.5490  147.8310 C   0  0  0  0  0  0  0  0  0  0  0  0
  160.4930  209.9030  153.1610 C   0  0  0  0  0  2  0  0  0  0  0  0
  161.4760  210.3680  152.0980 C   0  0  0  0  0  2  0  0  0  0  0  0
  160.7260  210.8810  150.8850 C   0  0  0  0  0  2  0  0  0  0  0  0
  162.2480  210.1610  149.0030 C   0  0  0  0  0  3  0  0  0  0  0  0
  161.9810  208.9100  149.2090 N   0  0  0  0  0  0  0  0  0  0  0  0
  161.6620  211.1820  149.8130 N   0  0  0  0  0  2  0  0  0  0  0  0
  162.5530  207.8630  148.4150 C   0  0  0  0  0  0  0  0  0  0  0  0
  163.7900  207.8680  148.1600 O   0  0  0  0  0  0  0  0  0  0  0  0
  161.7180  206.8040  147.9100 N   0  0  0  0  0  0  0  0  0  0  0  0
  161.3620  204.7380  146.7990 O   0  0  0  0  0  0  0  0  0  0  0  0
  161.6670  205.6220  145.7520 C   0  0  0  0  0  0  0  0  0  0  0  0
  160.4420  206.4390  145.3710 C   0  0  0  0  0  1  0  0  0  0  0  0
  162.4410  204.9170  144.6590 C   0  0  0  0  0  1  0  0  0  0  0  0
  162.3170  205.7410  147.0890 C   0  0  1  0  0  3  0  0  0  0  0  0
  160.3620  206.7190  148.3860 C   0  0  0  0  0  3  0  0  0  0  0  0
  160.0150  206.0060  149.4520 C   0  0  0  0  0  2  0  0  0  0  0  0
  161.6240  210.7120  155.2300 C   0  0  0  0  0  2  0  0  0  0  0  0
  156.2180  213.2290  156.2900 C   0  0  0  0  0  2  0  0  0  0  0  0
  158.7350  212.8500  155.1390 C   0  0  0  0  0  0  0  0  0  0  0  0
  157.1380  214.4460  156.2960 C   0  0  2  0  0  3  0  0  0  0  0  0
  159.6190  212.0120  155.6110 C   0  0  0  0  0  0  0  0  0  0  0  0
  155.6500  213.0430  155.0190 O   0  0  0  0  0  0  0  0  0  0  0  0
  156.3790  210.6640  155.1300 C   0  0  0  0  0  1  0  0  0  0  0  0
  156.3130  211.9820  154.3570 C   0  0  2  0  0  3  0  0  0  0  0  0
  157.9030  212.4750  153.5970 S   0  0  0  0  0  0  0  0  0  0  0  0
  158.5560  214.2110  155.7520 C   0  0  1  0  0  3  0  0  0  0  0  0
  160.4940  211.1720  156.0830 C   0  0  0  0  0  3  0  0  0  0  0  0
  158.2780  214.1560  157.2450 C   0  0  0  0  0  2  0  0  0  0  0  0
  1  3  2  0  0  0  0
  2  1  1  0  0  0  0
  2 34  1  0  0  0  0
  4 10  1  0  0  0  0
  4  1  1  0  0  0  0
  5  4  2  0  0  0  0
  6  9  2  0  0  0  0
  6  5  1  0  0  0  0
  7 11  1  0  0  0  0
  7  9  1  0  0  0  0
  8 10  2  0  0  0  0
  9  8  1  0  0  0  0
 12 14  1  0  0  0  0
 13 14  2  0  0  0  0
 14 11  1  0  0  0  0
 15 13  1  0  0  0  0
 16 17  1  0  0  0  0
 17 15  1  0  0  0  0
 17 12  2  0  0  0  0
 18  2  1  0  0  0  0
 19 18  1  0  0  0  0
 20 19  1  0  0  0  0
 21 22  2  0  0  0  0
 21 23  1  0  0  0  0
 23 20  1  0  0  0  0
 24 22  1  0  0  0  0
 25 24  2  0  0  0  0
 26 32  1  0  0  0  0
 26 24  1  0  0  0  0
 27 31  1  0  0  0  0
 28 27  1  0  0  0  0
 28 31  1  0  0  0  0
 29 28  1  0  0  0  0
 30 28  1  0  0  0  0
 31 26  1  1  0  0  0
 32 33  2  0  0  0  0
 34 44  1  0  0  0  0
 36 38  2  0  0  0  0
 36 43  1  0  0  0  0
 37 35  1  6  0  0  0
 37 45  1  0  0  0  0
 38 44  2  0  0  0  0
 39 35  1  0  0  0  0
 41 39  1  0  0  0  0
 41 40  1  1  0  0  0
 42 41  1  0  0  0  0
 42 36  1  0  0  0  0
 43 37  1  0  0  0  0
 43 45  1  1  0  0  0
M  END
>  <MODEL>
5

>  <REMARK>
 VINA RESULT:      -5.4      3.798      5.171
  Name = 
  12 active torsions:
  status: ('A' for Active; 'I' for Inactive)
    1  A    between atoms: C_3  and  C_20
    2  A    between atoms: C_5  and  C_7
    3  A    between atoms: C_7  and  N_32
    4  A    between atoms: C_9  and  N_45
    5  A    between atoms: N_11  and  C_38
    6  A    between atoms: C_15  and  C_26
    7  A    between atoms: C_15  and  C_29
    8  A    between atoms: N_17  and  C_29
    9  A    between atoms: C_26  and  N_34
   10  A    between atoms: C_27  and  N_34
   11  A    between atoms: C_27  and  C_41
   12  A    between atoms: C_36  and  N_45
                            x       y       z     vdW  Elec       q    Type
                         _______ _______ _______ _____ _____    ______ ____

>  <TORSDO>
F 12

$$$$
=
 OpenBabel11052410303D

 45 49  0  0  1  0  0  0  0  0999 V2000
  162.3310  208.5570  149.2530 C   0  0  0  0  0  0  0  0  0  0  0  0
  161.8200  209.8170  149.7360 N   0  0  0  0  0  0  0  0  0  0  0  0
  163.2320  208.5610  148.3690 O   0  0  0  0  0  0  0  0  0  0  0  0
  161.8340  207.2550  149.7530 C   0  0  0  0  0  0  0  0  0  0  0  0
  162.3420  206.7200  150.9440 C   0  0  0  0  0  3  0  0  0  0  0  0
  161.9040  205.5170  151.4020 N   0  0  0  0  0  0  0  0  0  0  0  0
  160.5430  203.5360  151.2670 N   0  0  0  0  0  2  0  0  0  0  0  0
  160.4500  205.2770  149.5270 C   0  0  0  0  0  3  0  0  0  0  0  0
  160.9740  204.7880  150.7300 C   0  0  0  0  0  0  0  0  0  0  0  0
  160.8870  206.5090  149.0410 C   0  0  0  0  0  3  0  0  0  0  0  0
  159.5560  202.6900  150.6130 C   0  0  0  0  0  2  0  0  0  0  0  0
  159.9260  202.0400  148.2280 N   0  0  0  0  0  0  0  0  0  0  0  0
  161.2180  200.9820  149.7200 C   0  0  0  0  0  3  0  0  0  0  0  0
  160.2090  201.9010  149.5340 C   0  0  0  0  0  0  0  0  0  0  0  0
  161.5730  200.5180  148.5060 N   0  0  0  0  0  2  0  0  0  0  0  0
  160.8320  200.9700  146.1700 C   0  0  0  0  0  1  0  0  0  0  0  0
  160.7750  201.1750  147.6410 C   0  0  0  0  0  0  0  0  0  0  0  0
  161.1430  209.9510  151.0210 C   0  0  0  0  0  2  0  0  0  0  0  0
  162.0280  210.6900  152.0110 C   0  0  0  0  0  2  0  0  0  0  0  0
  162.2830  209.8230  153.2280 C   0  0  0  0  0  2  0  0  0  0  0  0
  160.0760  210.1920  154.3980 C   0  0  0  0  0  3  0  0  0  0  0  0
  160.3200  211.4560  154.5500 N   0  0  0  0  0  0  0  0  0  0  0  0
  161.0220  209.3320  153.7600 N   0  0  0  0  0  2  0  0  0  0  0  0
  159.3930  212.3440  155.1860 C   0  0  0  0  0  0  0  0  0  0  0  0
  159.2540  212.3190  156.4410 O   0  0  0  0  0  0  0  0  0  0  0  0
  158.6230  213.2690  154.3950 N   0  0  0  0  0  0  0  0  0  0  0  0
  156.5680  214.4430  154.2140 O   0  0  0  0  0  0  0  0  0  0  0  0
  156.3330  213.5350  155.2590 C   0  0  0  0  0  0  0  0  0  0  0  0
  155.9990  212.1600  154.7020 C   0  0  0  0  0  1  0  0  0  0  0  0
  155.4210  214.1400  156.3030 C   0  0  0  0  0  1  0  0  0  0  0  0
  157.6690  214.1690  155.0610 C   0  0  1  0  0  3  0  0  0  0  0  0
  158.9520  213.4140  153.0010 C   0  0  0  0  0  3  0  0  0  0  0  0
  158.4780  212.6050  152.0600 C   0  0  0  0  0  2  0  0  0  0  0  0
  161.9750  211.0170  148.9270 C   0  0  0  0  0  2  0  0  0  0  0  0
  158.9040  213.4560  144.3100 C   0  0  0  0  0  2  0  0  0  0  0  0
  160.1880  213.2860  146.7860 C   0  0  0  0  0  0  0  0  0  0  0  0
  158.0880  213.9230  145.5120 C   0  0  2  0  0  3  0  0  0  0  0  0
  160.5740  212.1570  147.3160 C   0  0  0  0  0  0  0  0  0  0  0  0
  159.8380  214.4350  143.9350 O   0  0  0  0  0  0  0  0  0  0  0  0
  161.5860  212.6610  143.9600 C   0  0  0  0  0  1  0  0  0  0  0  0
  161.1250  214.0560  144.3850 C   0  0  2  0  0  3  0  0  0  0  0  0
  161.4190  214.4260  146.1540 S   0  0  0  0  0  0  0  0  0  0  0  0
  158.7580  213.7390  146.8840 C   0  0  1  0  0  3  0  0  0  0  0  0
  160.9590  211.0280  147.8380 C   0  0  0  0  0  3  0  0  0  0  0  0
  157.7730  212.7080  146.3550 C   0  0  0  0  0  2  0  0  0  0  0  0
  1  2  1  0  0  0  0
  1  4  1  0  0  0  0
  2 18  1  0  0  0  0
  3  1  2  0  0  0  0
  4  5  2  0  0  0  0
  5  6  1  0  0  0  0
  8  9  1  0  0  0  0
  9  7  1  0  0  0  0
  9  6  2  0  0  0  0
 10  8  2  0  0  0  0
 10  4  1  0  0  0  0
 11  7  1  0  0  0  0
 12 14  1  0  0  0  0
 14 13  2  0  0  0  0
 14 11  1  0  0  0  0
 15 13  1  0  0  0  0
 16 17  1  0  0  0  0
 17 12  2  0  0  0  0
 17 15  1  0  0  0  0
 18 19  1  0  0  0  0
 19 20  1  0  0  0  0
 20 23  1  0  0  0  0
 21 22  2  0  0  0  0
 22 24  1  0  0  0  0
 23 21  1  0  0  0  0
 24 25  2  0  0  0  0
 26 24  1  0  0  0  0
 27 31  1  0  0  0  0
 27 28  1  0  0  0  0
 28 30  1  0  0  0  0
 29 28  1  0  0  0  0
 31 26  1  6  0  0  0
 31 28  1  0  0  0  0
 32 26  1  0  0  0  0
 33 32  2  0  0  0  0
 34  2  1  0  0  0  0
 36 43  1  0  0  0  0
 36 38  2  0  0  0  0
 37 35  1  6  0  0  0
 37 45  1  0  0  0  0
 37 43  1  0  0  0  0
 38 44  2  0  0  0  0
 39 35  1  0  0  0  0
 39 41  1  0  0  0  0
 41 40  1  1  0  0  0
 41 42  1  0  0  0  0
 42 36  1  0  0  0  0
 43 45  1  1  0  0  0
 44 34  1  0  0  0  0
M  END
>  <MODEL>
6

>  <REMARK>
 VINA RESULT:      -5.3      2.940      8.178
  Name = 
  12 active torsions:
  status: ('A' for Active; 'I' for Inactive)
    1  A    between atoms: C_3  and  C_20
    2  A    between atoms: C_5  and  C_7
    3  A    between atoms: C_7  and  N_32
    4  A    between atoms: C_9  and  N_45
    5  A    between atoms: N_11  and  C_38
    6  A    between atoms: C_15  and  C_26
    7  A    between atoms: C_15  and  C_29
    8  A    between atoms: N_17  and  C_29
    9  A    between atoms: C_26  and  N_34
   10  A    between atoms: C_27  and  N_34
   11  A    between atoms: C_27  and  C_41
   12  A    between atoms: C_36  and  N_45
                            x       y       z     vdW  Elec       q    Type
                         _______ _______ _______ _____ _____    ______ ____

>  <TORSDO>
F 12

$$$$
=
 OpenBabel11052410303D

 45 49  0  0  1  0  0  0  0  0999 V2000
  161.1060  213.3070  149.1870 C   0  0  0  0  0  0  0  0  0  0  0  0
  160.8300  212.2010  150.0720 N   0  0  0  0  0  0  0  0  0  0  0  0
  161.2960  214.4530  149.6810 O   0  0  0  0  0  0  0  0  0  0  0  0
  161.1720  213.1480  147.7160 C   0  0  0  0  0  0  0  0  0  0  0  0
  162.3720  213.3930  147.0370 C   0  0  0  0  0  3  0  0  0  0  0  0
  162.4380  213.2660  145.6850 N   0  0  0  0  0  0  0  0  0  0  0  0
  161.4880  212.7820  143.5260 N   0  0  0  0  0  2  0  0  0  0  0  0
  160.1310  212.6720  145.5790 C   0  0  0  0  0  3  0  0  0  0  0  0
  161.3550  212.9110  144.9430 C   0  0  0  0  0  0  0  0  0  0  0  0
  160.0440  212.7960  146.9650 C   0  0  0  0  0  3  0  0  0  0  0  0
  160.3820  212.4100  142.6560 C   0  0  0  0  0  2  0  0  0  0  0  0
  162.1720  212.1190  140.9350 N   0  0  0  0  0  0  0  0  0  0  0  0
  160.2160  211.1370  140.4590 C   0  0  0  0  0  3  0  0  0  0  0  0
  160.9130  211.9130  141.3580 C   0  0  0  0  0  0  0  0  0  0  0  0
  161.0460  210.8560  139.4360 N   0  0  0  0  0  2  0  0  0  0  0  0
  163.4170  211.4070  138.8990 C   0  0  0  0  0  1  0  0  0  0  0  0
  162.2060  211.4630  139.7600 C   0  0  0  0  0  0  0  0  0  0  0  0
  161.0390  210.8110  149.6850 C   0  0  0  0  0  2  0  0  0  0  0  0
  162.4000  210.3290  150.1600 C   0  0  0  0  0  2  0  0  0  0  0  0
  162.5050  208.8250  149.9980 C   0  0  0  0  0  2  0  0  0  0  0  0
  161.1690  207.1110  148.7130 C   0  0  0  0  0  3  0  0  0  0  0  0
  161.2700  206.2490  149.6750 N   0  0  0  0  0  0  0  0  0  0  0  0
  161.7730  208.4020  148.8140 N   0  0  0  0  0  2  0  0  0  0  0  0
  160.6760  204.9470  149.6030 C   0  0  0  0  0  0  0  0  0  0  0  0
  159.6910  204.6610  150.3400 O   0  0  0  0  0  0  0  0  0  0  0  0
  161.2000  203.9650  148.6890 N   0  0  0  0  0  0  0  0  0  0  0  0
  161.5810  201.6230  148.6440 O   0  0  0  0  0  0  0  0  0  0  0  0
  160.8840  201.8160  149.8470 C   0  0  0  0  0  0  0  0  0  0  0  0
  161.8270  202.3020  150.9370 C   0  0  0  0  0  1  0  0  0  0  0  0
  159.9780  200.6400  150.1390 C   0  0  0  0  0  1  0  0  0  0  0  0
  160.5860  202.6300  148.6330 C   0  0  1  0  0  3  0  0  0  0  0  0
  162.1840  204.3870  147.7260 C   0  0  0  0  0  3  0  0  0  0  0  0
  161.9590  204.3860  146.4170 C   0  0  0  0  0  2  0  0  0  0  0  0
  160.3210  212.4590  151.4120 C   0  0  0  0  0  2  0  0  0  0  0  0
  159.7690  208.1950  155.6770 C   0  0  0  0  0  2  0  0  0  0  0  0
  160.9990  210.0720  154.0140 C   0  0  0  0  0  0  0  0  0  0  0  0
  160.9680  207.6880  154.8800 C   0  0  2  0  0  3  0  0  0  0  0  0
  160.3940  210.6380  153.0040 C   0  0  0  0  0  0  0  0  0  0  0  0
  160.1930  208.9510  156.7820 O   0  0  0  0  0  0  0  0  0  0  0  0
  158.6130  210.7370  156.0640 C   0  0  0  0  0  1  0  0  0  0  0  0
  160.0190  210.3270  156.5050 C   0  0  2  0  0  3  0  0  0  0  0  0
  161.3550  211.0420  155.4790 S   0  0  0  0  0  0  0  0  0  0  0  0
  161.5830  208.6930  153.8930 C   0  0  1  0  0  3  0  0  0  0  0  0
  159.7850  211.2010  152.0000 C   0  0  0  0  0  3  0  0  0  0  0  0
  160.5710  207.6610  153.4210 C   0  0  0  0  0  2  0  0  0  0  0  0
  1  3  2  0  0  0  0
  1  2  1  0  0  0  0
  2 34  1  0  0  0  0
  4  1  1  0  0  0  0
  5  4  2  0  0  0  0
  6  5  1  0  0  0  0
  7  9  1  0  0  0  0
  8 10  2  0  0  0  0
  9  8  1  0  0  0  0
  9  6  2  0  0  0  0
 10  4  1  0  0  0  0
 11  7  1  0  0  0  0
 12 14  1  0  0  0  0
 13 14  2  0  0  0  0
 14 11  1  0  0  0  0
 15 17  1  0  0  0  0
 15 13  1  0  0  0  0
 16 17  1  0  0  0  0
 17 12  2  0  0  0  0
 18  2  1  0  0  0  0
 18 19  1  0  0  0  0
 20 19  1  0  0  0  0
 21 23  1  0  0  0  0
 21 22  2  0  0  0  0
 23 20  1  0  0  0  0
 24 22  1  0  0  0  0
 24 25  2  0  0  0  0
 26 24  1  0  0  0  0
 27 28  1  0  0  0  0
 28 30  1  0  0  0  0
 28 29  1  0  0  0  0
 31 27  1  0  0  0  0
 31 26  1  1  0  0  0
 31 28  1  0  0  0  0
 32 26  1  0  0  0  0
 33 32  2  0  0  0  0
 34 44  1  0  0  0  0
 35 39  1  0  0  0  0
 36 42  1  0  0  0  0
 37 45  1  6  0  0  0
 37 35  1  0  0  0  0
 38 36  2  0  0  0  0
 41 40  1  6  0  0  0
 41 39  1  0  0  0  0
 42 41  1  0  0  0  0
 43 45  1  6  0  0  0
 43 36  1  0  0  0  0
 43 37  1  0  0  0  0
 44 38  2  0  0  0  0
M  END
>  <MODEL>
7

>  <REMARK>
 VINA RESULT:      -5.2      2.577      8.213
  Name = 
  12 active torsions:
  status: ('A' for Active; 'I' for Inactive)
    1  A    between atoms: C_3  and  C_20
    2  A    between atoms: C_5  and  C_7
    3  A    between atoms: C_7  and  N_32
    4  A    between atoms: C_9  and  N_45
    5  A    between atoms: N_11  and  C_38
    6  A    between atoms: C_15  and  C_26
    7  A    between atoms: C_15  and  C_29
    8  A    between atoms: N_17  and  C_29
    9  A    between atoms: C_26  and  N_34
   10  A    between atoms: C_27  and  N_34
   11  A    between atoms: C_27  and  C_41
   12  A    between atoms: C_36  and  N_45
                            x       y       z     vdW  Elec       q    Type
                         _______ _______ _______ _____ _____    ______ ____

>  <TORSDO>
F 12

$$$$
=
 OpenBabel11052410303D

 45 49  0  0  1  0  0  0  0  0999 V2000
  160.7230  206.5600  150.5550 C   0  0  0  0  0  0  0  0  0  0  0  0
  161.3850  205.6870  151.4940 N   0  0  0  0  0  0  0  0  0  0  0  0
  159.6370  206.1850  150.0330 O   0  0  0  0  0  0  0  0  0  0  0  0
  161.2740  207.8800  150.1750 C   0  0  0  0  0  0  0  0  0  0  0  0
  161.4640  208.8680  151.1500 C   0  0  0  0  0  3  0  0  0  0  0  0
  161.9540  210.0900  150.8090 N   0  0  0  0  0  0  0  0  0  0  0  0
  162.7890  211.7010  149.2270 N   0  0  0  0  0  2  0  0  0  0  0  0
  162.0790  209.4530  148.5140 C   0  0  0  0  0  3  0  0  0  0  0  0
  162.2670  210.4040  149.5240 C   0  0  0  0  0  0  0  0  0  0  0  0
  161.5780  208.1940  148.8450 C   0  0  0  0  0  3  0  0  0  0  0  0
  163.1480  212.1220  147.8810 C   0  0  0  0  0  2  0  0  0  0  0  0
  161.8530  213.1560  146.0090 N   0  0  0  0  0  0  0  0  0  0  0  0
  161.1350  213.6680  148.0670 C   0  0  0  0  0  3  0  0  0  0  0  0
  162.0720  212.9870  147.3240 C   0  0  0  0  0  0  0  0  0  0  0  0
  160.3110  214.2960  147.2060 N   0  0  0  0  0  2  0  0  0  0  0  0
  160.1520  214.4430  144.7230 C   0  0  0  0  0  1  0  0  0  0  0  0
  160.7760  213.9640  145.9850 C   0  0  0  0  0  0  0  0  0  0  0  0
  162.3570  206.1700  152.4690 C   0  0  0  0  0  2  0  0  0  0  0  0
  161.8040  206.0370  153.8780 C   0  0  0  0  0  2  0  0  0  0  0  0
  160.8860  207.2040  154.1890 C   0  0  0  0  0  2  0  0  0  0  0  0
  160.9310  209.3350  155.5420 C   0  0  0  0  0  3  0  0  0  0  0  0
  159.6950  209.5960  155.2510 N   0  0  0  0  0  0  0  0  0  0  0  0
  161.5770  208.1670  155.0320 N   0  0  0  0  0  2  0  0  0  0  0  0
  159.0200  210.7580  155.7450 C   0  0  0  0  0  0  0  0  0  0  0  0
  159.0040  211.0000  156.9850 O   0  0  0  0  0  0  0  0  0  0  0  0
  158.3620  211.6530  154.8290 N   0  0  0  0  0  0  0  0  0  0  0  0
  156.6170  213.2250  154.4820 O   0  0  0  0  0  0  0  0  0  0  0  0
  156.2300  212.5650  155.6590 C   0  0  0  0  0  0  0  0  0  0  0  0
  155.5720  211.2340  155.3300 C   0  0  0  0  0  1  0  0  0  0  0  0
  155.5240  213.5140  156.6020 C   0  0  0  0  0  1  0  0  0  0  0  0
  157.6640  212.8380  155.3520 C   0  0  1  0  0  3  0  0  0  0  0  0
  158.5710  211.4610  153.4180 C   0  0  0  0  0  3  0  0  0  0  0  0
  159.6440  211.9150  152.7790 C   0  0  0  0  0  2  0  0  0  0  0  0
  161.0880  204.2620  151.4890 C   0  0  0  0  0  2  0  0  0  0  0  0
  162.2330  203.2000  145.6370 C   0  0  0  0  0  2  0  0  0  0  0  0
  160.7540  203.7020  147.9530 C   0  0  0  0  0  0  0  0  0  0  0  0
  161.0870  202.2300  145.9140 C   0  0  2  0  0  3  0  0  0  0  0  0
  161.2660  203.6530  149.1540 C   0  0  0  0  0  0  0  0  0  0  0  0
  161.7440  204.4060  145.1080 O   0  0  0  0  0  0  0  0  0  0  0  0
  163.0850  205.6090  146.8280 C   0  0  0  0  0  1  0  0  0  0  0  0
  161.7480  205.3970  146.1180 C   0  0  2  0  0  3  0  0  0  0  0  0
  160.3150  205.2920  147.2510 S   0  0  0  0  0  0  0  0  0  0  0  0
  160.3360  202.4490  147.2370 C   0  0  1  0  0  3  0  0  0  0  0  0
  161.7830  203.6040  150.3480 C   0  0  0  0  0  3  0  0  0  0  0  0
  161.4540  201.4230  147.1380 C   0  0  0  0  0  2  0  0  0  0  0  0
  1  2  1  0  0  0  0
  2 18  1  0  0  0  0
  3  1  2  0  0  0  0
  4  1  1  0  0  0  0
  4  5  2  0  0  0  0
  6  5  1  0  0  0  0
  7  9  1  0  0  0  0
  8 10  2  0  0  0  0
  8  9  1  0  0  0  0
  9  6  2  0  0  0  0
 10  4  1  0  0  0  0
 11  7  1  0  0  0  0
 12 14  1  0  0  0  0
 14 11  1  0  0  0  0
 14 13  2  0  0  0  0
 15 13  1  0  0  0  0
 16 17  1  0  0  0  0
 17 12  2  0  0  0  0
 17 15  1  0  0  0  0
 18 19  1  0  0  0  0
 19 20  1  0  0  0  0
 20 23  1  0  0  0  0
 22 21  2  0  0  0  0
 22 24  1  0  0  0  0
 23 21  1  0  0  0  0
 24 25  2  0  0  0  0
 26 24  1  0  0  0  0
 27 31  1  0  0  0  0
 27 28  1  0  0  0  0
 28 30  1  0  0  0  0
 29 28  1  0  0  0  0
 31 26  1  6  0  0  0
 31 28  1  0  0  0  0
 32 26  1  0  0  0  0
 33 32  2  0  0  0  0
 34  2  1  0  0  0  0
 36 38  2  0  0  0  0
 37 35  1  1  0  0  0
 37 45  1  0  0  0  0
 37 43  1  0  0  0  0
 38 44  2  0  0  0  0
 39 35  1  0  0  0  0
 39 41  1  0  0  0  0
 41 40  1  1  0  0  0
 41 42  1  0  0  0  0
 42 36  1  0  0  0  0
 43 45  1  1  0  0  0
 43 36  1  0  0  0  0
 44 34  1  0  0  0  0
M  END
>  <MODEL>
8

>  <REMARK>
 VINA RESULT:      -5.2      3.460     10.215
  Name = 
  12 active torsions:
  status: ('A' for Active; 'I' for Inactive)
    1  A    between atoms: C_3  and  C_20
    2  A    between atoms: C_5  and  C_7
    3  A    between atoms: C_7  and  N_32
    4  A    between atoms: C_9  and  N_45
    5  A    between atoms: N_11  and  C_38
    6  A    between atoms: C_15  and  C_26
    7  A    between atoms: C_15  and  C_29
    8  A    between atoms: N_17  and  C_29
    9  A    between atoms: C_26  and  N_34
   10  A    between atoms: C_27  and  N_34
   11  A    between atoms: C_27  and  C_41
   12  A    between atoms: C_36  and  N_45
                            x       y       z     vdW  Elec       q    Type
                         _______ _______ _______ _____ _____    ______ ____

>  <TORSDO>
F 12

$$$$
=
 OpenBabel11052410303D

 45 49  0  0  1  0  0  0  0  0999 V2000
  161.2690  206.6550  149.0670 C   0  0  0  0  0  0  0  0  0  0  0  0
  161.9960  207.7150  149.7230 N   0  0  0  0  0  0  0  0  0  0  0  0
  160.4350  205.9820  149.7350 O   0  0  0  0  0  0  0  0  0  0  0  0
  161.4680  206.3230  147.6390 C   0  0  0  0  0  0  0  0  0  0  0  0
  162.7080  205.8420  147.1970 C   0  0  0  0  0  3  0  0  0  0  0  0
  162.9060  205.5490  145.8840 N   0  0  0  0  0  0  0  0  0  0  0  0
  162.1900  205.3830  143.5910 N   0  0  0  0  0  2  0  0  0  0  0  0
  160.6780  206.2120  145.3490 C   0  0  0  0  0  3  0  0  0  0  0  0
  161.9270  205.7180  144.9550 C   0  0  0  0  0  0  0  0  0  0  0  0
  160.4550  206.5170  146.6920 C   0  0  0  0  0  3  0  0  0  0  0  0
  161.2030  205.5350  142.5320 C   0  0  0  0  0  2  0  0  0  0  0  0
  161.5200  207.6260  141.2010 N   0  0  0  0  0  0  0  0  0  0  0  0
  162.7060  205.8590  140.5040 C   0  0  0  0  0  3  0  0  0  0  0  0
  161.7860  206.3270  141.4150 C   0  0  0  0  0  0  0  0  0  0  0  0
  163.0210  206.8800  139.6840 N   0  0  0  0  0  2  0  0  0  0  0  0
  162.3320  209.2690  139.5140 C   0  0  0  0  0  1  0  0  0  0  0  0
  162.2890  207.9190  140.1350 C   0  0  0  0  0  0  0  0  0  0  0  0
  162.6170  208.8140  148.9930 C   0  0  0  0  0  2  0  0  0  0  0  0
  161.5810  209.8680  148.6400 C   0  0  0  0  0  2  0  0  0  0  0  0
  162.2530  211.2140  148.4480 C   0  0  0  0  0  2  0  0  0  0  0  0
  160.5040  212.7510  147.4710 C   0  0  0  0  0  3  0  0  0  0  0  0
  160.6680  212.2530  146.2860 N   0  0  0  0  0  0  0  0  0  0  0  0
  161.2730  212.2810  148.5790 N   0  0  0  0  0  2  0  0  0  0  0  0
  159.9130  212.7030  145.1540 C   0  0  0  0  0  0  0  0  0  0  0  0
  158.6720  212.4770  145.0920 O   0  0  0  0  0  0  0  0  0  0  0  0
  160.5680  213.4170  144.0880 N   0  0  0  0  0  0  0  0  0  0  0  0
  160.5900  213.9100  141.7670 O   0  0  0  0  0  0  0  0  0  0  0  0
  159.7030  212.8260  141.8600 C   0  0  0  0  0  0  0  0  0  0  0  0
  160.4710  211.5160  141.9460 C   0  0  0  0  0  1  0  0  0  0  0  0
  158.5880  212.9530  140.8450 C   0  0  0  0  0  1  0  0  0  0  0  0
  159.7820  213.8650  142.9280 C   0  0  1  0  0  3  0  0  0  0  0  0
  161.9320  213.8330  144.2840 C   0  0  0  0  0  3  0  0  0  0  0  0
  162.9730  213.0820  143.9430 C   0  0  0  0  0  2  0  0  0  0  0  0
  162.1280  207.7110  151.1740 C   0  0  0  0  0  2  0  0  0  0  0  0
  160.4560  212.0330  155.0730 C   0  0  0  0  0  2  0  0  0  0  0  0
  160.2670  209.7460  153.4800 C   0  0  0  0  0  0  0  0  0  0  0  0
  159.2580  211.9820  154.1290 C   0  0  2  0  0  3  0  0  0  0  0  0
  161.1600  209.4230  152.5840 C   0  0  0  0  0  0  0  0  0  0  0  0
  160.2340  211.2230  156.1990 O   0  0  0  0  0  0  0  0  0  0  0  0
  162.4610  210.1840  155.7880 C   0  0  0  0  0  1  0  0  0  0  0  0
  160.9650  210.0190  156.0620 C   0  0  2  0  0  3  0  0  0  0  0  0
  160.1480  208.7830  154.9880 S   0  0  0  0  0  0  0  0  0  0  0  0
  159.2080  210.7700  153.1840 C   0  0  1  0  0  3  0  0  0  0  0  0
  162.0550  209.1040  151.6930 C   0  0  0  0  0  3  0  0  0  0  0  0
  159.7820  212.0980  152.7150 C   0  0  0  0  0  2  0  0  0  0  0  0
  1  2  1  0  0  0  0
  1  3  2  0  0  0  0
  2 34  1  0  0  0  0
  4  1  1  0  0  0  0
  5  4  2  0  0  0  0
  6  5  1  0  0  0  0
  7  9  1  0  0  0  0
  8 10  2  0  0  0  0
  9  8  1  0  0  0  0
  9  6  2  0  0  0  0
 10  4  1  0  0  0  0
 11  7  1  0  0  0  0
 12 14  1  0  0  0  0
 13 14  2  0  0  0  0
 14 11  1  0  0  0  0
 15 17  1  0  0  0  0
 15 13  1  0  0  0  0
 16 17  1  0  0  0  0
 17 12  2  0  0  0  0
 18  2  1  0  0  0  0
 19 18  1  0  0  0  0
 20 23  1  0  0  0  0
 20 19  1  0  0  0  0
 21 23  1  0  0  0  0
 22 21  2  0  0  0  0
 24 22  1  0  0  0  0
 25 24  2  0  0  0  0
 26 32  1  0  0  0  0
 26 24  1  0  0  0  0
 27 28  1  0  0  0  0
 27 31  1  0  0  0  0
 28 29  1  0  0  0  0
 28 31  1  0  0  0  0
 30 28  1  0  0  0  0
 31 26  1  1  0  0  0
 33 32  2  0  0  0  0
 34 44  1  0  0  0  0
 35 39  1  0  0  0  0
 36 42  1  0  0  0  0
 37 45  1  6  0  0  0
 37 35  1  0  0  0  0
 38 36  2  0  0  0  0
 41 40  1  6  0  0  0
 41 39  1  0  0  0  0
 42 41  1  0  0  0  0
 43 45  1  6  0  0  0
 43 36  1  0  0  0  0
 43 37  1  0  0  0  0
 44 38  2  0  0  0  0
M  END
>  <MODEL>
9

>  <REMARK>
 VINA RESULT:      -4.9      2.300      3.674
  Name = 
  12 active torsions:
  status: ('A' for Active; 'I' for Inactive)
    1  A    between atoms: C_3  and  C_20
    2  A    between atoms: C_5  and  C_7
    3  A    between atoms: C_7  and  N_32
    4  A    between atoms: C_9  and  N_45
    5  A    between atoms: N_11  and  C_38
    6  A    between atoms: C_15  and  C_26
    7  A    between atoms: C_15  and  C_29
    8  A    between atoms: N_17  and  C_29
    9  A    between atoms: C_26  and  N_34
   10  A    between atoms: C_27  and  N_34
   11  A    between atoms: C_27  and  C_41
   12  A    between atoms: C_36  and  N_45
                            x       y       z     vdW  Elec       q    Type
                         _______ _______ _______ _____ _____    ______ ____

>  <TORSDO>
F 12

$$$$
