=
 OpenBabel11042420213D

 30 34  0  0  1  0  0  0  0  0999 V2000
  163.2030  205.1680  152.0100 C   0  0  0  0  0  1  0  0  0  0  0  0
  161.9110  207.1290  151.1220 C   0  0  0  0  0  0  0  0  0  0  0  0
  157.7540  212.5100  154.8170 C   0  0  0  0  0  2  0  0  0  0  0  0
  161.4810  207.4700  148.7800 N   0  0  0  0  0  0  0  0  0  0  0  0
  160.7420  208.9590  155.8380 N   0  0  0  0  0  2  0  0  0  0  0  0
  158.3100  211.5290  152.6110 O   0  0  0  0  0  0  0  0  0  0  0  0
  160.2150  206.5080  153.8430 C   0  0  0  0  0  2  0  0  0  0  0  0
  160.2230  211.1990  156.3990 C   0  0  0  0  0  0  0  0  0  0  0  0
  160.8740  205.5970  152.8200 C   0  0  0  0  0  2  0  0  0  0  0  0
  160.1160  209.9270  156.6360 N   0  0  0  0  0  0  0  0  0  0  0  0
  161.5190  205.2840  149.6280 F   0  0  0  0  0  0  0  0  0  0  0  0
  162.0260  211.0820  150.5230 S   0  0  0  0  0  0  0  0  0  0  0  0
  162.1580  206.2300  152.3040 C   0  0  1  0  0  3  0  0  0  0  0  0
  161.0540  206.5670  155.1110 C   0  0  0  0  0  2  0  0  0  0  0  0
  161.9580  208.5210  151.2760 C   0  0  0  0  0  0  0  0  0  0  0  0
  157.3280  211.5260  155.9010 C   0  0  0  0  0  2  0  0  0  0  0  0
  161.6340  206.6190  149.8350 C   0  0  0  0  0  0  0  0  0  0  0  0
  160.4840  207.5720  156.0460 C   0  0  0  0  0  0  0  0  0  0  0  0
  160.0220  211.5530  153.9750 C   0  0  0  0  0  0  0  0  0  0  0  0
  160.3910  211.0710  152.7370 C   0  0  0  0  0  0  0  0  0  0  0  0
  161.8490  209.3500  150.1830 C   0  0  0  0  0  0  0  0  0  0  0  0
  162.0930  209.2340  152.5750 C   0  0  0  0  0  2  0  0  0  0  0  0
  157.9630  211.8670  157.2530 C   0  0  0  0  0  2  0  0  0  0  0  0
  161.5900  208.8200  148.9230 C   0  0  0  0  0  3  0  0  0  0  0  0
  158.6760  211.8650  153.8260 C   0  0  0  0  0  0  0  0  0  0  0  0
  159.3920  212.1130  157.1090 N   0  0  0  0  0  2  0  0  0  0  0  0
  160.9120  211.7110  155.1750 C   0  0  0  0  0  2  0  0  0  0  0  0
  161.7840  210.7110  152.3070 C   0  0  1  0  0  3  0  0  0  0  0  0
  159.3100  211.0490  151.9280 N   0  0  0  0  0  0  0  0  0  0  0  0
  159.7410  207.1950  156.9900 O   0  0  0  0  0  0  0  0  0  0  0  0
  2 15  1  0  0  0  0
  2 13  1  0  0  0  0
  3 16  1  0  0  0  0
  4 24  2  0  0  0  0
  4 17  1  0  0  0  0
  5 18  1  0  0  0  0
  5 10  1  0  0  0  0
  6 25  1  0  0  0  0
  7 14  1  0  0  0  0
  8 10  2  0  0  0  0
  8 26  1  0  0  0  0
  9  7  1  0  0  0  0
 11 17  1  0  0  0  0
 12 28  1  0  0  0  0
 13  1  1  6  0  0  0
 13  9  1  0  0  0  0
 14 18  1  0  0  0  0
 15 22  1  0  0  0  0
 16 23  1  0  0  0  0
 17  2  2  0  0  0  0
 18 30  2  0  0  0  0
 19 27  1  0  0  0  0
 20 19  1  0  0  0  0
 21 12  1  0  0  0  0
 21 15  2  0  0  0  0
 24 21  1  0  0  0  0
 25 19  2  0  0  0  0
 25  3  1  0  0  0  0
 26 23  1  0  0  0  0
 27  8  1  0  0  0  0
 28 22  1  6  0  0  0
 28 20  1  0  0  0  0
 29  6  1  0  0  0  0
 29 20  2  0  0  0  0
M  END
>  <MODEL>
1

>  <REMARK>
 VINA RESULT:      -4.9      0.000      0.000
  Name = 
  0 active torsions:
  status: ('A' for Active; 'I' for Inactive)
                            x       y       z     vdW  Elec       q    Type
                         _______ _______ _______ _____ _____    ______ ____

>  <TORSDO>
F 0

$$$$
=
 OpenBabel11042420213D

 30 34  0  0  1  0  0  0  0  0999 V2000
  162.1150  213.0720  140.0630 C   0  0  0  0  0  1  0  0  0  0  0  0
  160.8720  210.9180  139.7140 C   0  0  0  0  0  0  0  0  0  0  0  0
  153.2740  209.4690  139.4940 C   0  0  0  0  0  2  0  0  0  0  0  0
  161.9450  208.7650  139.7080 N   0  0  0  0  0  0  0  0  0  0  0  0
  156.2110  213.2020  139.6110 N   0  0  0  0  0  2  0  0  0  0  0  0
  155.5340  208.4610  139.6170 O   0  0  0  0  0  0  0  0  0  0  0  0
  158.6980  212.5500  141.5230 C   0  0  0  0  0  2  0  0  0  0  0  0
  154.2540  212.3820  138.5610 C   0  0  0  0  0  0  0  0  0  0  0  0
  160.2150  212.4690  141.5760 C   0  0  0  0  0  2  0  0  0  0  0  0
  154.8180  213.0980  139.4860 N   0  0  0  0  0  0  0  0  0  0  0  0
  162.7420  210.4350  141.1500 F   0  0  0  0  0  0  0  0  0  0  0  0
  158.9280  208.7010  137.0110 S   0  0  0  0  0  0  0  0  0  0  0  0
  160.7830  212.3500  140.1700 C   0  0  1  0  0  3  0  0  0  0  0  0
  158.2630  213.8720  140.9090 C   0  0  0  0  0  2  0  0  0  0  0  0
  159.9590  210.4220  138.7730 C   0  0  0  0  0  0  0  0  0  0  0  0
  152.9720  210.5650  140.5090 C   0  0  0  0  0  2  0  0  0  0  0  0
  161.8620  210.0350  140.1980 C   0  0  0  0  0  0  0  0  0  0  0  0
  156.7890  213.8820  140.7240 C   0  0  0  0  0  0  0  0  0  0  0  0
  155.4830  210.2610  138.3710 C   0  0  0  0  0  0  0  0  0  0  0  0
  156.7370  209.6890  138.3530 C   0  0  0  0  0  0  0  0  0  0  0  0
  160.1010  209.1520  138.2630 C   0  0  0  0  0  0  0  0  0  0  0  0
  158.7710  211.1580  138.2630 C   0  0  0  0  0  2  0  0  0  0  0  0
  152.2150  211.7330  139.8680 C   0  0  0  0  0  2  0  0  0  0  0  0
  161.0950  208.3070  138.7490 C   0  0  0  0  0  3  0  0  0  0  0  0
  154.7380  209.4070  139.1750 C   0  0  0  0  0  0  0  0  0  0  0  0
  152.8510  212.1430  138.6220 N   0  0  0  0  0  2  0  0  0  0  0  0
  155.0570  211.5080  137.6500 C   0  0  0  0  0  2  0  0  0  0  0  0
  157.9020  210.1390  137.5180 C   0  0  1  0  0  3  0  0  0  0  0  0
  156.7410  208.5970  139.1460 N   0  0  0  0  0  0  0  0  0  0  0  0
  156.0570  214.4530  141.5730 O   0  0  0  0  0  0  0  0  0  0  0  0
  2 13  1  0  0  0  0
  2 17  1  0  0  0  0
  3 16  1  0  0  0  0
  4 17  2  0  0  0  0
  5 18  1  0  0  0  0
  7  9  1  0  0  0  0
  8 26  1  0  0  0  0
  8 10  2  0  0  0  0
 10  5  1  0  0  0  0
 12 28  1  0  0  0  0
 12 21  1  0  0  0  0
 13  1  1  1  0  0  0
 13  9  1  0  0  0  0
 14  7  1  0  0  0  0
 15  2  2  0  0  0  0
 17 11  1  0  0  0  0
 18 14  1  0  0  0  0
 18 30  2  0  0  0  0
 19 25  2  0  0  0  0
 20 19  1  0  0  0  0
 20 29  2  0  0  0  0
 21 24  2  0  0  0  0
 21 15  1  0  0  0  0
 22 15  1  0  0  0  0
 23 16  1  0  0  0  0
 24  4  1  0  0  0  0
 25  3  1  0  0  0  0
 25  6  1  0  0  0  0
 26 23  1  0  0  0  0
 27 19  1  0  0  0  0
 27  8  1  0  0  0  0
 28 22  1  1  0  0  0
 28 20  1  0  0  0  0
 29  6  1  0  0  0  0
M  END
>  <MODEL>
2

>  <REMARK>
 VINA RESULT:      -3.8     13.185     15.021
  Name = 
  0 active torsions:
  status: ('A' for Active; 'I' for Inactive)
                            x       y       z     vdW  Elec       q    Type
                         _______ _______ _______ _____ _____    ______ ____

>  <TORSDO>
F 0

$$$$
=
 OpenBabel11042420213D

 30 34  0  0  1  0  0  0  0  0999 V2000
  161.3010  199.9610  146.9400 C   0  0  0  0  0  1  0  0  0  0  0  0
  160.8920  202.3910  146.4600 C   0  0  0  0  0  0  0  0  0  0  0  0
  160.8740  208.5230  151.1810 C   0  0  0  0  0  2  0  0  0  0  0  0
  160.0690  203.1950  144.3470 N   0  0  0  0  0  0  0  0  0  0  0  0
  162.0070  203.9100  151.2970 N   0  0  0  0  0  2  0  0  0  0  0  0
  160.3010  207.6980  148.9160 O   0  0  0  0  0  0  0  0  0  0  0  0
  159.8900  202.2420  149.5650 C   0  0  0  0  0  2  0  0  0  0  0  0
  162.7650  206.0490  151.9710 C   0  0  0  0  0  0  0  0  0  0  0  0
  159.7510  201.2760  148.4000 C   0  0  0  0  0  2  0  0  0  0  0  0
  162.1420  204.9410  152.2380 N   0  0  0  0  0  0  0  0  0  0  0  0
  159.3040  201.1330  145.1610 F   0  0  0  0  0  0  0  0  0  0  0  0
  162.6760  205.9140  145.8260 S   0  0  0  0  0  0  0  0  0  0  0  0
  160.9930  201.3290  147.5220 C   0  0  1  0  0  3  0  0  0  0  0  0
  160.9620  201.7510  150.5280 C   0  0  0  0  0  2  0  0  0  0  0  0
  161.6220  203.5810  146.5830 C   0  0  0  0  0  0  0  0  0  0  0  0
  160.3420  207.7010  152.3490 C   0  0  0  0  0  2  0  0  0  0  0  0
  160.0790  202.2340  145.3160 C   0  0  0  0  0  0  0  0  0  0  0  0
  161.1970  202.7720  151.5820 C   0  0  0  0  0  0  0  0  0  0  0  0
  162.1190  206.7720  149.7130 C   0  0  0  0  0  0  0  0  0  0  0  0
  161.8770  206.3450  148.4240 C   0  0  0  0  0  0  0  0  0  0  0  0
  161.6280  204.5070  145.5660 C   0  0  0  0  0  0  0  0  0  0  0  0
  162.4130  203.9790  147.7790 C   0  0  0  0  0  2  0  0  0  0  0  0
  161.3950  207.5400  153.4510 C   0  0  0  0  0  2  0  0  0  0  0  0
  160.8280  204.3200  144.4420 C   0  0  0  0  0  3  0  0  0  0  0  0
  161.0890  207.6710  149.9650 C   0  0  0  0  0  0  0  0  0  0  0  0
  162.6780  207.1360  152.8890 N   0  0  0  0  0  2  0  0  0  0  0  0
  163.2610  206.3550  150.5940 C   0  0  0  0  0  2  0  0  0  0  0  0
  162.7700  205.4590  147.6040 C   0  0  1  0  0  3  0  0  0  0  0  0
  160.7410  206.9160  147.9710 N   0  0  0  0  0  0  0  0  0  0  0  0
  160.6440  202.6460  152.7060 O   0  0  0  0  0  0  0  0  0  0  0  0
  2 15  1  0  0  0  0
  2 13  1  0  0  0  0
  3 16  1  0  0  0  0
  4 24  2  0  0  0  0
  4 17  1  0  0  0  0
  5 18  1  0  0  0  0
  5 10  1  0  0  0  0
  6 25  1  0  0  0  0
  7 14  1  0  0  0  0
  8 10  2  0  0  0  0
  8 26  1  0  0  0  0
  9  7  1  0  0  0  0
 11 17  1  0  0  0  0
 12 28  1  0  0  0  0
 13  1  1  6  0  0  0
 13  9  1  0  0  0  0
 14 18  1  0  0  0  0
 15 22  1  0  0  0  0
 16 23  1  0  0  0  0
 17  2  2  0  0  0  0
 18 30  2  0  0  0  0
 19 25  2  0  0  0  0
 19 27  1  0  0  0  0
 20 19  1  0  0  0  0
 21 12  1  0  0  0  0
 21 15  2  0  0  0  0
 24 21  1  0  0  0  0
 25  3  1  0  0  0  0
 26 23  1  0  0  0  0
 27  8  1  0  0  0  0
 28 22  1  6  0  0  0
 28 20  1  0  0  0  0
 29 20  2  0  0  0  0
 29  6  1  0  0  0  0
M  END
>  <MODEL>
3

>  <REMARK>
 VINA RESULT:      -3.7      4.522      6.663
  Name = 
  0 active torsions:
  status: ('A' for Active; 'I' for Inactive)
                            x       y       z     vdW  Elec       q    Type
                         _______ _______ _______ _____ _____    ______ ____

>  <TORSDO>
F 0

$$$$
=
 OpenBabel11042420213D

 30 34  0  0  1  0  0  0  0  0999 V2000
  162.6980  213.4650  141.8880 C   0  0  0  0  0  1  0  0  0  0  0  0
  161.3270  211.8940  140.4880 C   0  0  0  0  0  0  0  0  0  0  0  0
  153.6700  211.4410  139.4630 C   0  0  0  0  0  2  0  0  0  0  0  0
  162.2430  209.9430  139.4200 N   0  0  0  0  0  0  0  0  0  0  0  0
  156.8540  214.3370  141.4770 N   0  0  0  0  0  2  0  0  0  0  0  0
  155.8420  210.3060  139.0970 O   0  0  0  0  0  0  0  0  0  0  0  0
  159.1740  212.5970  142.8400 C   0  0  0  0  0  2  0  0  0  0  0  0
  154.9080  214.3290  140.1290 C   0  0  0  0  0  0  0  0  0  0  0  0
  160.6750  212.3640  142.8670 C   0  0  0  0  0  2  0  0  0  0  0  0
  155.4670  214.4360  141.2960 N   0  0  0  0  0  0  0  0  0  0  0  0
  163.0720  210.5930  141.5160 F   0  0  0  0  0  0  0  0  0  0  0  0
  159.3900  211.5030  137.0110 S   0  0  0  0  0  0  0  0  0  0  0  0
  161.3140  212.9100  141.5990 C   0  0  1  0  0  3  0  0  0  0  0  0
  158.8710  214.0830  142.9650 C   0  0  0  0  0  2  0  0  0  0  0  0
  160.4370  212.0170  139.4130 C   0  0  0  0  0  0  0  0  0  0  0  0
  153.3890  211.9090  140.8860 C   0  0  0  0  0  2  0  0  0  0  0  0
  162.2220  210.8020  140.4790 C   0  0  0  0  0  0  0  0  0  0  0  0
  157.4140  214.3170  142.7890 C   0  0  0  0  0  0  0  0  0  0  0  0
  155.9910  212.4840  138.9200 C   0  0  0  0  0  0  0  0  0  0  0  0
  157.2010  211.8860  138.6350 C   0  0  0  0  0  0  0  0  0  0  0  0
  160.5170  211.1620  138.3370 C   0  0  0  0  0  0  0  0  0  0  0  0
  159.3350  213.0130  139.3230 C   0  0  0  0  0  2  0  0  0  0  0  0
  152.7560  213.3040  140.9060 C   0  0  0  0  0  2  0  0  0  0  0  0
  161.4190  210.1020  138.3480 C   0  0  0  0  0  3  0  0  0  0  0  0
  155.1420  211.4140  139.1770 C   0  0  0  0  0  0  0  0  0  0  0  0
  153.4900  214.2210  140.0420 N   0  0  0  0  0  2  0  0  0  0  0  0
  155.6980  213.9570  138.9150 C   0  0  0  0  0  2  0  0  0  0  0  0
  158.4410  212.5840  138.1550 C   0  0  1  0  0  3  0  0  0  0  0  0
  157.0810  210.5490  138.7740 N   0  0  0  0  0  0  0  0  0  0  0  0
  156.6770  214.4530  143.8000 O   0  0  0  0  0  0  0  0  0  0  0  0
  2 13  1  0  0  0  0
  3 16  1  0  0  0  0
  4 17  2  0  0  0  0
  5 18  1  0  0  0  0
  6 25  1  0  0  0  0
  7  9  1  0  0  0  0
  7 14  1  0  0  0  0
  8 10  2  0  0  0  0
 10  5  1  0  0  0  0
 12 28  1  0  0  0  0
 12 21  1  0  0  0  0
 13  1  1  1  0  0  0
 13  9  1  0  0  0  0
 15  2  2  0  0  0  0
 16 23  1  0  0  0  0
 17  2  1  0  0  0  0
 17 11  1  0  0  0  0
 18 14  1  0  0  0  0
 18 30  2  0  0  0  0
 19 25  2  0  0  0  0
 20 29  2  0  0  0  0
 20 19  1  0  0  0  0
 21 24  2  0  0  0  0
 21 15  1  0  0  0  0
 22 15  1  0  0  0  0
 24  4  1  0  0  0  0
 25  3  1  0  0  0  0
 26  8  1  0  0  0  0
 26 23  1  0  0  0  0
 27 19  1  0  0  0  0
 27  8  1  0  0  0  0
 28 20  1  0  0  0  0
 28 22  1  1  0  0  0
 29  6  1  0  0  0  0
M  END
>  <MODEL>
4

>  <REMARK>
 VINA RESULT:      -2.5     12.026     14.210
  Name = 
  0 active torsions:
  status: ('A' for Active; 'I' for Inactive)
                            x       y       z     vdW  Elec       q    Type
                         _______ _______ _______ _____ _____    ______ ____

>  <TORSDO>
F 0

$$$$
