=
 OpenBabel11052410533D

 30 35  0  0  1  0  0  0  0  0999 V2000
  157.7960  214.1560  153.8980 C   0  0  2  0  0  3  0  0  0  0  0  0
  161.3360  209.2330  152.0800 C   0  0  1  0  0  0  0  0  0  0  0  0
  161.0680  206.1220  150.2790 C   0  0  0  0  0  1  0  0  0  0  0  0
  159.2300  211.8520  155.6460 C   0  0  0  0  0  0  0  0  0  0  0  0
  156.8730  214.2400  152.6790 C   0  0  0  0  0  3  0  0  0  0  0  0
  160.5810  209.2610  154.4370 C   0  0  1  0  0  3  0  0  0  0  0  0
  160.0780  206.9730  154.8650 O   0  0  0  0  0  1  0  0  0  0  0  0
  160.7910  209.9080  155.8080 C   0  0  1  0  0  0  0  0  0  0  0  0
  159.4770  210.5180  156.2910 C   0  0  0  0  0  2  0  0  0  0  0  0
  157.5450  213.5320  151.6080 N   0  0  0  0  0  0  0  0  0  0  0  0
  160.8230  207.8900  151.9330 N   0  0  0  0  0  0  0  0  0  0  0  0
  162.3270  208.3830  156.9740 O   0  0  0  0  0  1  0  0  0  0  0  0
  160.3800  210.2560  152.3980 C   0  0  2  0  0  3  0  0  0  0  0  0
  160.7710  211.5290  151.6800 C   0  0  1  0  0  3  0  0  0  0  0  0
  161.6950  211.0590  150.1790 S   0  0  0  0  0  0  0  0  0  0  0  0
  161.4100  209.8690  153.4030 N   0  0  2  0  0  0  0  0  0  0  0  0
  162.2120  208.4060  150.1650 N   0  0  0  0  0  2  0  0  0  0  0  0
  158.8250  211.9370  154.3080 O   0  0  0  0  0  0  0  0  0  0  0  0
  159.4480  212.8950  156.3130 O   0  0  0  0  0  0  0  0  0  0  0  0
  161.0840  207.9330  154.9810 C   0  0  2  0  0  3  0  0  0  0  0  0
  159.5180  212.2320  151.2720 C   0  0  0  0  0  3  0  0  0  0  0  0
  161.0670  208.5160  156.3890 C   0  0  2  0  0  3  0  0  0  0  0  0
  162.3230  209.5790  151.0160 C   0  0  2  0  0  3  0  0  0  0  0  0
  158.9220  213.1500  153.5540 C   0  0  1  0  0  3  0  0  0  0  0  0
  161.3410  207.4780  150.8220 C   0  0  0  0  0  0  0  0  0  0  0  0
  158.7080  212.9000  152.1000 C   0  0  0  0  0  0  0  0  0  0  0  0
  161.9750  210.9030  155.9490 C   0  0  0  0  0  2  0  0  0  0  0  0
  162.1360  211.3590  157.2610 O   0  0  0  0  0  1  0  0  0  0  0  0
  157.0620  213.7770  155.0270 O   0  0  0  0  0  0  0  0  0  0  0  0
  155.7260  213.9270  154.6590 C   0  0  0  0  0  1  0  0  0  0  0  0
  1 29  1  1  0  0  0
  2 11  1  6  0  0  0
  2 13  1  0  0  0  0
  2 16  1  0  0  0  0
  3 25  1  0  0  0  0
  4  9  1  0  0  0  0
  4 19  2  0  0  0  0
  5  1  1  0  0  0  0
  6 20  1  0  0  0  0
  6  8  1  0  0  0  0
  7 20  1  0  0  0  0
  8 27  1  0  0  0  0
  8  9  1  0  0  0  0
  8 22  1  0  0  0  0
 10 26  1  0  0  0  0
 10  5  2  0  0  0  0
 13 16  1  0  0  0  0
 14 13  1  0  0  0  0
 15 23  1  0  0  0  0
 15 14  1  0  0  0  0
 16  6  1  0  0  0  0
 17 25  1  0  0  0  0
 17 23  1  0  0  0  0
 18  4  1  0  0  0  0
 20 22  1  0  0  0  0
 21 14  1  0  0  0  0
 21 26  2  0  0  0  0
 22 12  1  0  0  0  0
 23  2  1  0  0  0  0
 24  1  1  0  0  0  0
 24 18  1  0  0  0  0
 25 11  2  0  0  0  0
 26 24  1  0  0  0  0
 27 28  1  0  0  0  0
 30 29  1  0  0  0  0
M  END
>  <MODEL>
1

>  <REMARK>
 VINA RESULT:      -5.8      0.000      0.000
  Name = 
  2 active torsions:
  status: ('A' for Active; 'I' for Inactive)
    1  A    between atoms: C_1  and  O_16
    2  A    between atoms: C_8  and  C_13
                            x       y       z     vdW  Elec       q    Type
                         _______ _______ _______ _____ _____    ______ ____

>  <TORSDO>
F 2

$$$$
=
 OpenBabel11052410533D

 30 35  0  0  1  0  0  0  0  0999 V2000
  161.5860  212.3030  148.1990 C   0  0  2  0  0  3  0  0  0  0  0  0
  159.0700  212.4490  154.0050 C   0  0  1  0  0  0  0  0  0  0  0  0
  159.0880  214.4530  157.0000 C   0  0  0  0  0  1  0  0  0  0  0  0
  162.0350  210.3410  150.7220 C   0  0  0  0  0  0  0  0  0  0  0  0
  161.6110  213.8090  147.9190 C   0  0  0  0  0  2  0  0  0  0  0  0
  160.9720  210.9070  153.6460 C   0  0  1  0  0  3  0  0  0  0  0  0
  162.2050  211.0970  155.6750 O   0  0  0  0  0  1  0  0  0  0  0  0
  161.4030  209.5810  153.0170 C   0  0  1  0  0  0  0  0  0  0  0  0
  162.5490  209.8290  152.0370 C   0  0  0  0  0  2  0  0  0  0  0  0
  160.6690  214.4100  148.8400 N   0  0  0  0  0  0  0  0  0  0  0  0
  159.7430  213.0090  155.1550 N   0  0  0  0  0  0  0  0  0  0  0  0
  161.2440  207.9520  154.8520 O   0  0  0  0  0  1  0  0  0  0  0  0
  159.7330  212.5890  152.7390 C   0  0  2  0  0  3  0  0  0  0  0  0
  158.6920  212.8190  151.6660 C   0  0  1  0  0  3  0  0  0  0  0  0
  157.2480  213.6110  152.4520 S   0  0  0  0  0  0  0  0  0  0  0  0
  159.5840  211.2370  153.3490 N   0  0  2  0  0  0  0  0  0  0  0  0
  157.5260  213.6520  155.1410 N   0  0  0  0  0  2  0  0  0  0  0  0
  161.5850  211.6610  150.5940 O   0  0  0  0  0  0  0  0  0  0  0  0
  161.9630  209.5470  149.7510 O   0  0  0  0  0  0  0  0  0  0  0  0
  161.2280  210.3370  155.0330 C   0  0  2  0  0  3  0  0  0  0  0  0
  159.2670  213.7610  150.6600 C   0  0  0  0  0  2  0  0  0  0  0  0
  161.8740  209.1120  154.3990 C   0  0  2  0  0  3  0  0  0  0  0  0
  157.6080  212.7480  154.0060 C   0  0  2  0  0  3  0  0  0  0  0  0
  160.7710  212.0890  149.4970 C   0  0  1  0  0  3  0  0  0  0  0  0
  158.8220  213.6940  155.7510 C   0  0  0  0  0  0  0  0  0  0  0  0
  160.1920  213.4400  149.7500 C   0  0  0  0  0  0  0  0  0  0  0  0
  160.2910  208.6970  152.3900 C   0  0  0  0  0  2  0  0  0  0  0  0
  160.7770  207.4700  151.9320 O   0  0  0  0  0  1  0  0  0  0  0  0
  162.8940  211.8150  148.2980 O   0  0  0  0  0  0  0  0  0  0  0  0
  163.7070  212.8640  147.8700 C   0  0  0  0  0  1  0  0  0  0  0  0
  1 29  1  1  0  0  0
  1 24  1  0  0  0  0
  2 23  1  0  0  0  0
  2 11  1  1  0  0  0
  4  9  1  0  0  0  0
  5  1  1  0  0  0  0
  5 10  1  0  0  0  0
  6 20  1  0  0  0  0
  8  6  1  0  0  0  0
  8 22  1  0  0  0  0
  9  8  1  0  0  0  0
 10 26  2  0  0  0  0
 11 25  2  0  0  0  0
 13 16  1  0  0  0  0
 13  2  1  0  0  0  0
 14 15  1  0  0  0  0
 14 13  1  0  0  0  0
 15 23  1  0  0  0  0
 16  6  1  0  0  0  0
 16  2  1  0  0  0  0
 17 25  1  0  0  0  0
 18  4  1  0  0  0  0
 19  4  2  0  0  0  0
 20  7  1  0  0  0  0
 21 14  1  0  0  0  0
 22 12  1  0  0  0  0
 22 20  1  0  0  0  0
 23 17  1  0  0  0  0
 24 26  1  0  0  0  0
 24 18  1  0  0  0  0
 25  3  1  0  0  0  0
 26 21  1  0  0  0  0
 27  8  1  0  0  0  0
 28 27  1  0  0  0  0
 30 29  1  0  0  0  0
M  END
>  <MODEL>
2

>  <REMARK>
 VINA RESULT:      -4.5      3.161      5.800
  Name = 
  2 active torsions:
  status: ('A' for Active; 'I' for Inactive)
    1  A    between atoms: C_1  and  O_16
    2  A    between atoms: C_8  and  C_13
                            x       y       z     vdW  Elec       q    Type
                         _______ _______ _______ _____ _____    ______ ____

>  <TORSDO>
F 2

$$$$
=
 OpenBabel11052410533D

 30 35  0  0  1  0  0  0  0  0999 V2000
  160.5070  210.2590  154.4050 C   0  0  2  0  0  3  0  0  0  0  0  0
  161.5820  206.9410  149.1230 C   0  0  1  0  0  0  0  0  0  0  0  0
  159.9870  206.0580  146.0140 C   0  0  0  0  0  1  0  0  0  0  0  0
  160.8460  207.0790  153.9660 C   0  0  0  0  0  0  0  0  0  0  0  0
  159.6910  211.4040  153.7980 C   0  0  0  0  0  3  0  0  0  0  0  0
  160.9450  205.6590  151.1420 C   0  0  1  0  0  3  0  0  0  0  0  0
  159.5200  203.9610  150.2710 O   0  0  0  0  0  1  0  0  0  0  0  0
  161.4300  205.1430  152.4990 C   0  0  1  0  0  0  0  0  0  0  0  0
  160.5090  205.6620  153.6010 C   0  0  0  0  0  2  0  0  0  0  0  0
  159.9820  211.4040  152.3790 N   0  0  0  0  0  0  0  0  0  0  0  0
  160.5430  206.2730  148.3730 N   0  0  0  0  0  0  0  0  0  0  0  0
  162.1850  202.8470  152.0450 O   0  0  0  0  0  1  0  0  0  0  0  0
  161.1590  207.7390  150.2390 C   0  0  2  0  0  3  0  0  0  0  0  0
  162.0450  208.9610  150.3290 C   0  0  1  0  0  3  0  0  0  0  0  0
  162.6590  209.3270  148.6500 S   0  0  0  0  0  0  0  0  0  0  0  0
  161.9390  206.4920  150.4770 N   0  0  2  0  0  0  0  0  0  0  0  0
  161.9950  207.3460  146.9350 N   0  0  0  0  0  2  0  0  0  0  0  0
  160.4970  208.1390  153.1190 O   0  0  0  0  0  0  0  0  0  0  0  0
  161.4970  207.2940  155.0190 O   0  0  0  0  0  0  0  0  0  0  0  0
  160.8400  204.2300  150.6310 C   0  0  2  0  0  3  0  0  0  0  0  0
  161.2060  210.1060  150.7930 C   0  0  0  0  0  3  0  0  0  0  0  0
  161.0940  203.7180  152.0430 C   0  0  2  0  0  3  0  0  0  0  0  0
  162.6070  207.5630  148.2360 C   0  0  2  0  0  3  0  0  0  0  0  0
  161.0910  209.4360  153.2320 C   0  0  1  0  0  3  0  0  0  0  0  0
  160.8200  206.5510  147.1410 C   0  0  0  0  0  0  0  0  0  0  0  0
  160.7710  210.2810  152.0450 C   0  0  0  0  0  0  0  0  0  0  0  0
  162.9270  205.3630  152.8480 C   0  0  0  0  0  2  0  0  0  0  0  0
  163.6780  205.7760  151.7440 O   0  0  0  0  0  1  0  0  0  0  0  0
  159.6970  209.4910  155.2500 O   0  0  0  0  0  0  0  0  0  0  0  0
  159.8210  210.0830  156.5070 C   0  0  0  0  0  1  0  0  0  0  0  0
  1 29  1  1  0  0  0
  2 11  1  6  0  0  0
  2 13  1  0  0  0  0
  2 16  1  0  0  0  0
  3 25  1  0  0  0  0
  4 19  2  0  0  0  0
  5  1  1  0  0  0  0
  6  8  1  0  0  0  0
  7 20  1  0  0  0  0
  8 27  1  0  0  0  0
  8  9  1  0  0  0  0
  9  4  1  0  0  0  0
 10  5  2  0  0  0  0
 13 14  1  0  0  0  0
 13 16  1  0  0  0  0
 14 21  1  0  0  0  0
 15 14  1  0  0  0  0
 16  6  1  0  0  0  0
 17 25  1  0  0  0  0
 17 23  1  0  0  0  0
 18 24  1  0  0  0  0
 18  4  1  0  0  0  0
 20  6  1  0  0  0  0
 20 22  1  0  0  0  0
 21 26  2  0  0  0  0
 22 12  1  0  0  0  0
 22  8  1  0  0  0  0
 23 15  1  0  0  0  0
 23  2  1  0  0  0  0
 24  1  1  0  0  0  0
 25 11  2  0  0  0  0
 26 10  1  0  0  0  0
 26 24  1  0  0  0  0
 28 27  1  0  0  0  0
 29 30  1  0  0  0  0
M  END
>  <MODEL>
3

>  <REMARK>
 VINA RESULT:      -2.8      2.734      4.909
  Name = 
  2 active torsions:
  status: ('A' for Active; 'I' for Inactive)
    1  A    between atoms: C_1  and  O_16
    2  A    between atoms: C_8  and  C_13
                            x       y       z     vdW  Elec       q    Type
                         _______ _______ _______ _____ _____    ______ ____

>  <TORSDO>
F 2

$$$$
