=
 OpenBabel11052411583D

 61 64  0  0  1  0  0  0  0  0999 V2000
  160.5580  205.1140  149.2980 C   0  0  0  0  0  2  0  0  0  0  0  0
  161.0650  205.0970  147.8650 C   0  0  0  0  0  2  0  0  0  0  0  0
  162.1100  207.3610  148.4150 C   0  0  0  0  0  0  0  0  0  0  0  0
  162.1530  207.0040  149.7100 C   0  0  0  0  0  3  0  0  0  0  0  0
  161.3660  206.5220  147.3880 C   0  0  1  0  0  3  0  0  0  0  0  0
  161.6560  205.6650  150.2010 C   0  0  1  0  0  3  0  0  0  0  0  0
  161.9820  206.6400  152.4380 N   0  0  0  0  0  1  0  0  0  0  0  0
  161.1700  205.7230  151.6480 C   0  0  2  0  0  3  0  0  0  0  0  0
  161.1590  204.3420  152.2840 C   0  0  0  0  0  2  0  0  0  0  0  0
  160.7300  203.3480  151.2970 C   0  0  0  0  0  0  0  0  0  0  0  0
  160.3690  202.5160  150.5030 C   0  0  0  0  0  0  0  0  0  0  0  0
  159.7110  200.2890  150.2390 O   0  0  0  0  0  1  0  0  0  0  0  0
  159.9270  201.4880  149.5590 C   0  0  2  0  0  3  0  0  0  0  0  0
  161.2020  201.2410  148.2890 P   0  0  2  0  0  0  0  0  0  0  0  0
  161.0610  199.6690  147.6760 O   0  0  0  0  0  0  0  0  0  0  0  0
  162.5620  201.4120  148.9280 O   0  0  0  0  0  1  0  0  0  0  0  0
  160.9740  202.4020  147.0690 O   0  0  0  0  0  0  0  0  0  0  0  0
  160.1740  202.6360  144.3990 O   0  0  0  0  0  0  0  0  0  0  0  0
  158.7710  201.3290  146.1640 O   0  0  0  0  0  1  0  0  0  0  0  0
  160.9780  200.1810  145.3870 O   0  0  0  0  0  1  0  0  0  0  0  0
  160.1970  201.6340  145.7630 P   0  0  0  0  0  0  0  0  0  0  0  0
  162.6200  209.0350  147.9910 S   0  0  0  0  0  0  0  0  0  0  0  0
  161.6040  209.8220  149.2810 C   0  0  0  0  0  2  0  0  0  0  0  0
  160.9640  211.0980  148.7380 C   0  0  0  0  0  2  0  0  0  0  0  0
  161.4940  212.3170  149.3660 N   0  0  0  0  0  0  0  0  0  0  0  0
  161.3480  213.5020  148.4850 C   0  0  1  0  0  3  0  0  0  0  0  0
  162.6800  213.8430  147.7980 C   0  0  1  0  0  3  0  0  0  0  0  0
  163.5990  212.7930  147.8940 O   0  0  0  0  0  1  0  0  0  0  0  0
  162.8920  213.2870  145.4670 O   0  0  0  0  0  1  0  0  0  0  0  0
  162.5060  214.2930  146.3520 C   0  0  0  0  0  2  0  0  0  0  0  0
  160.2500  213.2910  147.4350 C   0  0  0  0  0  2  0  0  0  0  0  0
  159.1340  214.2950  147.6580 C   0  0  0  0  0  1  0  0  0  0  0  0
  160.8850  212.4410  150.7080 C   0  0  1  0  0  3  0  0  0  0  0  0
  159.5350  214.2290  151.5980 O   0  0  0  0  0  1  0  0  0  0  0  0
  159.5630  213.2040  150.6520 C   0  0  0  0  0  2  0  0  0  0  0  0
  160.8070  211.1400  151.5240 C   0  0  0  0  0  2  0  0  0  0  0  0
  161.0720  210.7120  155.3440 C   0  0  0  0  0  0  0  0  0  0  0  0
  158.7290  211.3670  154.7410 C   0  0  1  0  0  3  0  0  0  0  0  0
  161.4950  210.6990  153.8930 C   0  0  0  0  0  2  0  0  0  0  0  0
  159.0820  210.9680  153.3060 C   0  0  0  0  0  2  0  0  0  0  0  0
  162.0560  210.3010  156.3840 C   0  0  0  0  0  1  0  0  0  0  0  0
  159.8010  210.9390  155.7130 C   0  0  0  0  0  3  0  0  0  0  0  0
  160.5000  211.4240  152.9850 C   0  0  2  0  0  3  0  0  0  0  0  0
  158.5630  212.7540  154.8140 O   0  0  0  0  0  0  0  0  0  0  0  0
  158.0120  212.9860  156.0790 C   0  0  0  0  0  2  0  0  0  0  0  0
  156.5390  212.6320  156.0580 C   0  0  0  0  0  2  0  0  0  0  0  0
  155.8340  213.5890  155.3280 O   0  0  0  0  0  1  0  0  0  0  0  0
  162.1110  206.4550  146.0670 C   0  0  0  0  0  2  0  0  0  0  0  0
  161.3380  205.6210  145.0600 C   0  0  0  0  0  2  0  0  0  0  0  0
  161.1610  206.3820  143.8330 N   0  0  0  0  0  2  0  0  0  0  0  0
  162.0250  205.7950  142.8200 C   0  0  0  0  0  2  0  0  0  0  0  0
  161.4430  205.9980  141.4180 C   0  0  0  0  0  2  0  0  0  0  0  0
  161.8430  209.4240  137.0270 C   0  0  0  0  0  2  0  0  0  0  0  0
  162.2730  206.6200  139.1030 C   0  0  0  0  0  2  0  0  0  0  0  0
  161.9690  208.1150  137.1330 C   0  0  0  0  0  2  0  0  0  0  0  0
  161.4420  208.3980  140.5800 C   0  0  0  0  0  2  0  0  0  0  0  0
  163.5660  207.2440  141.1230 C   0  0  0  0  0  1  0  0  0  0  0  0
  161.4990  207.5880  138.3610 N   0  0  2  0  0  0  0  0  0  0  0  0
  160.8390  208.5620  139.1990 C   0  0  2  0  0  3  0  0  0  0  0  0
  162.1700  207.0490  140.5640 C   0  0  1  0  0  0  0  0  0  0  0  0
  161.1980  210.2070  138.5050 S   0  0  0  0  0  0  0  0  0  0  0  0
  1  6  1  0  0  0  0
  2  1  1  0  0  0  0
  3  4  2  0  0  0  0
  4  6  1  0  0  0  0
  5 48  1  6  0  0  0
  5  2  1  0  0  0  0
  5  3  1  0  0  0  0
  6  8  1  1  0  0  0
  8  9  1  0  0  0  0
  8  7  1  1  0  0  0
 10  9  1  0  0  0  0
 11 10  3  0  0  0  0
 13 12  1  1  0  0  0
 13 11  1  0  0  0  0
 14 15  2  6  0  0  0
 14 16  1  0  0  0  0
 14 13  1  0  0  0  0
 17 14  1  0  0  0  0
 18 21  2  0  0  0  0
 20 21  1  0  0  0  0
 21 19  1  0  0  0  0
 21 17  1  0  0  0  0
 22  3  1  0  0  0  0
 22 23  1  0  0  0  0
 24 23  1  0  0  0  0
 24 25  1  0  0  0  0
 25 33  1  0  0  0  0
 26 31  1  6  0  0  0
 26 25  1  0  0  0  0
 27 28  1  6  0  0  0
 27 26  1  0  0  0  0
 29 30  1  0  0  0  0
 30 27  1  0  0  0  0
 31 32  1  0  0  0  0
 33 35  1  6  0  0  0
 33 36  1  0  0  0  0
 35 34  1  0  0  0  0
 37 42  2  0  0  0  0
 37 41  1  0  0  0  0
 38 44  1  6  0  0  0
 38 42  1  0  0  0  0
 39 37  1  0  0  0  0
 40 38  1  0  0  0  0
 43 36  1  6  0  0  0
 43 40  1  0  0  0  0
 43 39  1  0  0  0  0
 44 45  1  0  0  0  0
 46 45  1  0  0  0  0
 47 46  1  0  0  0  0
 49 48  1  0  0  0  0
 50 49  1  0  0  0  0
 51 50  1  0  0  0  0
 52 51  1  0  0  0  0
 53 55  1  0  0  0  0
 53 61  1  0  0  0  0
 54 60  1  0  0  0  0
 58 55  1  6  0  0  0
 58 54  1  0  0  0  0
 58 59  1  0  0  0  0
 59 56  1  1  0  0  0
 60 56  1  0  0  0  0
 60 57  1  1  0  0  0
 60 52  1  0  0  0  0
 61 59  1  0  0  0  0
M  END
>  <MODEL>
1

>  <REMARK>
 VINA RESULT:      -1.6      0.000      0.000
  Name = 
  28 active torsions:
  status: ('A' for Active; 'I' for Inactive)
    1  A    between atoms: N_1  and  C_24
    2  A    between atoms: N_1  and  C_35
    3  A    between atoms: N_1  and  C_52
    4  A    between atoms: C_3  and  C_52
    5  A    between atoms: C_6  and  C_35
    6  A    between atoms: C_6  and  C_61
    7  A    between atoms: C_7  and  C_15
    8  A    between atoms: P_10  and  O_27
    9  A    between atoms: P_10  and  C_60
   10  A    between atoms: C_15  and  C_29
   11  A    between atoms: O_16  and  C_28
   12  A    between atoms: O_16  and  C_47
   13  A    between atoms: C_17  and  C_52
   14  A    between atoms: C_17  and  C_57
   15  A    between atoms: C_18  and  C_24
   16  A    between atoms: C_18  and  S_43
   17  A    between atoms: C_19  and  C_25
   18  A    between atoms: C_19  and  N_39
   19  A    between atoms: C_21  and  C_50
   20  A    between atoms: C_21  and  C_53
   21  A    between atoms: C_23  and  C_60
   22  A    between atoms: C_25  and  C_49
   23  A    between atoms: O_27  and  P_58
   24  A    between atoms: C_29  and  C_59
   25  A    between atoms: C_34  and  C_47
   26  A    between atoms: C_35  and  C_56
   27  A    between atoms: N_39  and  C_53
   28  A    between atoms: C_42  and  S_43
                            x       y       z     vdW  Elec       q    Type
                         _______ _______ _______ _____ _____    ______ ____

>  <TORSDO>
F 28

$$$$
=
 OpenBabel11052411583D

 61 64  0  0  1  0  0  0  0  0999 V2000
  160.3360  205.7420  149.2060 C   0  0  0  0  0  2  0  0  0  0  0  0
  160.8540  205.7910  147.7780 C   0  0  0  0  0  2  0  0  0  0  0  0
  161.7870  208.0850  148.4010 C   0  0  0  0  0  0  0  0  0  0  0  0
  161.8370  207.6930  149.6860 C   0  0  0  0  0  3  0  0  0  0  0  0
  161.0910  207.2410  147.3440 C   0  0  1  0  0  3  0  0  0  0  0  0
  161.4000  206.3180  150.1340 C   0  0  1  0  0  3  0  0  0  0  0  0
  161.3530  207.4960  152.2950 N   0  0  0  0  0  1  0  0  0  0  0  0
  160.9010  206.3110  151.5780 C   0  0  2  0  0  3  0  0  0  0  0  0
  161.3360  205.0500  152.3080 C   0  0  0  0  0  2  0  0  0  0  0  0
  160.9770  203.8730  151.5140 C   0  0  0  0  0  0  0  0  0  0  0  0
  160.6620  202.9160  150.8530 C   0  0  0  0  0  0  0  0  0  0  0  0
  160.6790  200.5860  150.6600 O   0  0  0  0  0  1  0  0  0  0  0  0
  160.2550  201.7640  150.0450 C   0  0  2  0  0  3  0  0  0  0  0  0
  161.0020  201.8860  148.3940 P   0  0  2  0  0  0  0  0  0  0  0  0
  161.8930  200.4770  148.0960 O   0  0  0  0  0  0  0  0  0  0  0  0
  161.9270  203.0810  148.3680 O   0  0  0  0  0  1  0  0  0  0  0  0
  159.7550  202.0810  147.2550 O   0  0  0  0  0  0  0  0  0  0  0  0
  161.8850  202.8780  145.6260 O   0  0  0  0  0  1  0  0  0  0  0  0
  159.4730  202.5410  144.6990 O   0  0  0  0  0  0  0  0  0  0  0  0
  160.7720  200.3670  145.3090 O   0  0  0  0  0  1  0  0  0  0  0  0
  160.4520  201.9790  145.7050 P   0  0  0  0  0  0  0  0  0  0  0  0
  162.2210  209.7920  148.0290 S   0  0  0  0  0  0  0  0  0  0  0  0
  160.7140  210.1120  147.0590 C   0  0  0  0  0  2  0  0  0  0  0  0
  160.2810  211.5670  147.2260 C   0  0  0  0  0  2  0  0  0  0  0  0
  161.3400  212.5240  146.8720 N   0  0  0  0  0  0  0  0  0  0  0  0
  160.9620  213.3600  145.7060 C   0  0  1  0  0  3  0  0  0  0  0  0
  162.1050  213.4220  144.6810 C   0  0  1  0  0  3  0  0  0  0  0  0
  163.2980  212.9060  145.1990 O   0  0  0  0  0  1  0  0  0  0  0  0
  162.6810  213.0970  142.3680 O   0  0  0  0  0  1  0  0  0  0  0  0
  161.7500  212.7650  143.3530 C   0  0  0  0  0  2  0  0  0  0  0  0
  159.6800  212.8480  145.0380 C   0  0  0  0  0  2  0  0  0  0  0  0
  158.5640  212.7810  146.0650 C   0  0  0  0  0  1  0  0  0  0  0  0
  161.7130  213.2660  148.0960 C   0  0  1  0  0  3  0  0  0  0  0  0
  164.0020  212.5540  148.3600 O   0  0  0  0  0  1  0  0  0  0  0  0
  163.1900  213.6550  148.0830 C   0  0  0  0  0  2  0  0  0  0  0  0
  160.7770  214.4230  148.4810 C   0  0  0  0  0  2  0  0  0  0  0  0
  157.1720  214.2430  149.8280 C   0  0  0  0  0  0  0  0  0  0  0  0
  158.7830  213.8480  151.7080 C   0  0  1  0  0  3  0  0  0  0  0  0
  158.2970  214.4500  148.8400 C   0  0  0  0  0  2  0  0  0  0  0  0
  159.8580  214.4360  150.7910 C   0  0  0  0  0  2  0  0  0  0  0  0
  155.7680  214.4230  149.3660 C   0  0  0  0  0  1  0  0  0  0  0  0
  157.4000  214.0480  151.1370 C   0  0  0  0  0  3  0  0  0  0  0  0
  159.6410  213.9400  149.3670 C   0  0  2  0  0  3  0  0  0  0  0  0
  159.0170  212.4800  151.8860 O   0  0  0  0  0  0  0  0  0  0  0  0
  160.3810  212.3830  152.1790 C   0  0  0  0  0  2  0  0  0  0  0  0
  160.5800  211.4260  153.3360 C   0  0  0  0  0  2  0  0  0  0  0  0
  159.5690  210.4640  153.3330 O   0  0  0  0  0  1  0  0  0  0  0  0
  161.8480  207.2480  146.0280 C   0  0  0  0  0  2  0  0  0  0  0  0
  161.4110  206.0840  145.1550 C   0  0  0  0  0  2  0  0  0  0  0  0
  161.0060  206.5830  143.8490 N   0  0  0  0  0  2  0  0  0  0  0  0
  161.9540  206.0720  142.8690 C   0  0  0  0  0  2  0  0  0  0  0  0
  161.3670  206.1340  141.4560 C   0  0  0  0  0  2  0  0  0  0  0  0
  161.9870  210.4040  137.9110 C   0  0  0  0  0  2  0  0  0  0  0  0
  161.4390  207.1540  139.1340 C   0  0  0  0  0  2  0  0  0  0  0  0
  161.3470  209.2560  137.7980 C   0  0  0  0  0  2  0  0  0  0  0  0
  162.4580  208.3840  141.0000 C   0  0  0  0  0  2  0  0  0  0  0  0
  163.4990  206.2830  140.1990 C   0  0  0  0  0  1  0  0  0  0  0  0
  161.1730  208.5700  139.0250 N   0  0  2  0  0  0  0  0  0  0  0  0
  161.5960  209.3250  140.1810 C   0  0  2  0  0  3  0  0  0  0  0  0
  162.1760  206.9780  140.4580 C   0  0  1  0  0  0  0  0  0  0  0  0
  162.5540  210.7510  139.5760 S   0  0  0  0  0  0  0  0  0  0  0  0
  1  6  1  0  0  0  0
  2  1  1  0  0  0  0
  3  4  2  0  0  0  0
  4  6  1  0  0  0  0
  5 48  1  6  0  0  0
  5  2  1  0  0  0  0
  5  3  1  0  0  0  0
  6  8  1  1  0  0  0
  8  7  1  1  0  0  0
  8  9  1  0  0  0  0
 10  9  1  0  0  0  0
 11 10  3  0  0  0  0
 13 12  1  1  0  0  0
 13 11  1  0  0  0  0
 14 15  2  6  0  0  0
 14 13  1  0  0  0  0
 16 14  1  0  0  0  0
 17 14  1  0  0  0  0
 18 21  1  0  0  0  0
 19 21  2  0  0  0  0
 20 21  1  0  0  0  0
 21 17  1  0  0  0  0
 22  3  1  0  0  0  0
 23 24  1  0  0  0  0
 23 22  1  0  0  0  0
 25 24  1  0  0  0  0
 25 33  1  0  0  0  0
 26 31  1  6  0  0  0
 26 25  1  0  0  0  0
 27 28  1  1  0  0  0
 27 26  1  0  0  0  0
 29 30  1  0  0  0  0
 30 27  1  0  0  0  0
 31 32  1  0  0  0  0
 33 35  1  6  0  0  0
 33 36  1  0  0  0  0
 35 34  1  0  0  0  0
 37 42  2  0  0  0  0
 38 44  1  6  0  0  0
 39 43  1  0  0  0  0
 39 37  1  0  0  0  0
 40 38  1  0  0  0  0
 41 37  1  0  0  0  0
 42 38  1  0  0  0  0
 43 36  1  6  0  0  0
 43 40  1  0  0  0  0
 44 45  1  0  0  0  0
 45 46  1  0  0  0  0
 47 46  1  0  0  0  0
 49 48  1  0  0  0  0
 50 49  1  0  0  0  0
 51 50  1  0  0  0  0
 52 51  1  0  0  0  0
 53 61  1  0  0  0  0
 54 60  1  0  0  0  0
 55 53  1  0  0  0  0
 58 55  1  6  0  0  0
 58 54  1  0  0  0  0
 58 59  1  0  0  0  0
 59 56  1  1  0  0  0
 60 57  1  6  0  0  0
 60 56  1  0  0  0  0
 60 52  1  0  0  0  0
 61 59  1  0  0  0  0
M  END
>  <MODEL>
2

>  <REMARK>
 VINA RESULT:      -1.2      1.680      3.091
  Name = 
  28 active torsions:
  status: ('A' for Active; 'I' for Inactive)
    1  A    between atoms: N_1  and  C_24
    2  A    between atoms: N_1  and  C_35
    3  A    between atoms: N_1  and  C_52
    4  A    between atoms: C_3  and  C_52
    5  A    between atoms: C_6  and  C_35
    6  A    between atoms: C_6  and  C_61
    7  A    between atoms: C_7  and  C_15
    8  A    between atoms: P_10  and  O_27
    9  A    between atoms: P_10  and  C_60
   10  A    between atoms: C_15  and  C_29
   11  A    between atoms: O_16  and  C_28
   12  A    between atoms: O_16  and  C_47
   13  A    between atoms: C_17  and  C_52
   14  A    between atoms: C_17  and  C_57
   15  A    between atoms: C_18  and  C_24
   16  A    between atoms: C_18  and  S_43
   17  A    between atoms: C_19  and  C_25
   18  A    between atoms: C_19  and  N_39
   19  A    between atoms: C_21  and  C_50
   20  A    between atoms: C_21  and  C_53
   21  A    between atoms: C_23  and  C_60
   22  A    between atoms: C_25  and  C_49
   23  A    between atoms: O_27  and  P_58
   24  A    between atoms: C_29  and  C_59
   25  A    between atoms: C_34  and  C_47
   26  A    between atoms: C_35  and  C_56
   27  A    between atoms: N_39  and  C_53
   28  A    between atoms: C_42  and  S_43
                            x       y       z     vdW  Elec       q    Type
                         _______ _______ _______ _____ _____    ______ ____

>  <TORSDO>
F 28

$$$$
=
 OpenBabel11052411583D

 61 64  0  0  1  0  0  0  0  0999 V2000
  158.4020  214.1290  148.4730 C   0  0  0  0  0  2  0  0  0  0  0  0
  158.7850  214.4530  149.9080 C   0  0  0  0  0  2  0  0  0  0  0  0
  159.9020  212.1560  149.9220 C   0  0  0  0  0  0  0  0  0  0  0  0
  160.0500  212.2430  148.5890 C   0  0  0  0  0  3  0  0  0  0  0  0
  159.0620  213.1650  150.6910 C   0  0  1  0  0  3  0  0  0  0  0  0
  159.5800  213.4380  147.7940 C   0  0  1  0  0  3  0  0  0  0  0  0
  157.8820  212.5000  146.2790 N   0  0  0  0  0  1  0  0  0  0  0  0
  159.2200  213.0720  146.3560 C   0  0  2  0  0  3  0  0  0  0  0  0
  160.2400  212.1170  145.7560 C   0  0  0  0  0  2  0  0  0  0  0  0
  160.6090  212.5710  144.4120 C   0  0  0  0  0  0  0  0  0  0  0  0
  160.9140  212.9190  143.3000 C   0  0  0  0  0  0  0  0  0  0  0  0
  160.5710  214.4530  141.5690 O   0  0  0  0  0  1  0  0  0  0  0  0
  161.2930  213.3190  141.9430 C   0  0  2  0  0  3  0  0  0  0  0  0
  160.9310  211.9650  140.7870 P   0  0  2  0  0  0  0  0  0  0  0  0
  159.2690  211.6470  140.8260 O   0  0  0  0  0  0  0  0  0  0  0  0
  161.6900  210.7340  141.2310 O   0  0  0  0  0  1  0  0  0  0  0  0
  161.4330  212.4390  139.2340 O   0  0  0  0  0  0  0  0  0  0  0  0
  164.1810  211.9320  139.1140 O   0  0  0  0  0  1  0  0  0  0  0  0
  162.5440  211.1900  137.2260 O   0  0  0  0  0  0  0  0  0  0  0  0
  162.4070  209.8370  139.4490 O   0  0  0  0  0  1  0  0  0  0  0  0
  162.6390  211.3490  138.7270 P   0  0  0  0  0  0  0  0  0  0  0  0
  160.3940  210.6200  150.7220 S   0  0  0  0  0  0  0  0  0  0  0  0
  161.8850  210.4010  149.6990 C   0  0  0  0  0  2  0  0  0  0  0  0
  162.8560  209.4430  150.3860 C   0  0  0  0  0  2  0  0  0  0  0  0
  162.2890  208.1030  150.5920 N   0  0  0  0  0  0  0  0  0  0  0  0
  161.7740  207.9270  151.9720 C   0  0  1  0  0  3  0  0  0  0  0  0
  162.4300  206.7150  152.6520 C   0  0  1  0  0  3  0  0  0  0  0  0
  161.6860  206.2650  153.7480 O   0  0  0  0  0  1  0  0  0  0  0  0
  161.8500  204.5110  151.8820 O   0  0  0  0  0  1  0  0  0  0  0  0
  162.7280  205.5770  151.6820 C   0  0  0  0  0  2  0  0  0  0  0  0
  161.9870  209.1880  152.8180 C   0  0  0  0  0  2  0  0  0  0  0  0
  160.7700  209.4250  153.6930 C   0  0  0  0  0  1  0  0  0  0  0  0
  161.3130  207.8480  149.5090 C   0  0  1  0  0  3  0  0  0  0  0  0
  163.3390  208.0400  148.2170 O   0  0  0  0  0  1  0  0  0  0  0  0
  161.9460  208.0390  148.1330 C   0  0  0  0  0  2  0  0  0  0  0  0
  160.5040  206.5480  149.6380 C   0  0  0  0  0  2  0  0  0  0  0  0
  161.0500  203.0940  148.0200 C   0  0  0  0  0  0  0  0  0  0  0  0
  162.7170  204.7190  147.0910 C   0  0  1  0  0  3  0  0  0  0  0  0
  160.4630  204.1420  148.9370 C   0  0  0  0  0  2  0  0  0  0  0  0
  162.3690  205.6180  148.2800 C   0  0  0  0  0  2  0  0  0  0  0  0
  160.5320  201.6990  148.0960 C   0  0  0  0  0  1  0  0  0  0  0  0
  162.1180  203.3430  147.2450 C   0  0  0  0  0  3  0  0  0  0  0  0
  160.8680  205.5630  148.5390 C   0  0  2  0  0  3  0  0  0  0  0  0
  162.2430  205.3020  145.9100 O   0  0  0  0  0  0  0  0  0  0  0  0
  161.6730  204.2470  145.1910 C   0  0  0  0  0  2  0  0  0  0  0  0
  160.5540  204.7780  144.3190 C   0  0  0  0  0  2  0  0  0  0  0  0
  159.9460  205.8680  144.9440 O   0  0  0  0  0  1  0  0  0  0  0  0
  159.6910  213.5220  152.0260 C   0  0  0  0  0  2  0  0  0  0  0  0
  158.8030  213.0690  153.1720 C   0  0  0  0  0  2  0  0  0  0  0  0
  157.4180  213.0260  152.7260 N   0  0  0  0  0  2  0  0  0  0  0  0
  156.6450  213.8960  153.5990 C   0  0  0  0  0  2  0  0  0  0  0  0
  155.8350  213.0780  154.6090 C   0  0  0  0  0  2  0  0  0  0  0  0
  160.1910  210.7970  157.2550 C   0  0  0  0  0  2  0  0  0  0  0  0
  156.9940  211.1930  155.8490 C   0  0  0  0  0  2  0  0  0  0  0  0
  159.1730  210.2560  156.6150 C   0  0  0  0  0  2  0  0  0  0  0  0
  157.9070  213.4660  156.0300 C   0  0  0  0  0  2  0  0  0  0  0  0
  155.7280  212.9300  157.0820 C   0  0  0  0  0  1  0  0  0  0  0  0
  158.4380  211.1720  155.8220 N   0  0  2  0  0  0  0  0  0  0  0  0
  159.0310  212.4870  155.7500 C   0  0  2  0  0  3  0  0  0  0  0  0
  156.6070  212.6690  155.8740 C   0  0  1  0  0  0  0  0  0  0  0  0
  160.3230  212.5710  157.0310 S   0  0  0  0  0  0  0  0  0  0  0  0
  1  2  1  0  0  0  0
  2  5  1  0  0  0  0
  3  5  1  0  0  0  0
  3 22  1  0  0  0  0
  4  3  2  0  0  0  0
  5 48  1  1  0  0  0
  6  8  1  6  0  0  0
  6  1  1  0  0  0  0
  6  4  1  0  0  0  0
  8  7  1  1  0  0  0
  9  8  1  0  0  0  0
 10  9  1  0  0  0  0
 11 10  3  0  0  0  0
 13 12  1  6  0  0  0
 13 11  1  0  0  0  0
 14 15  2  6  0  0  0
 14 16  1  0  0  0  0
 14 13  1  0  0  0  0
 17 14  1  0  0  0  0
 19 21  2  0  0  0  0
 21 18  1  0  0  0  0
 21 17  1  0  0  0  0
 21 20  1  0  0  0  0
 23 24  1  0  0  0  0
 23 22  1  0  0  0  0
 24 25  1  0  0  0  0
 25 26  1  0  0  0  0
 26 27  1  0  0  0  0
 26 31  1  1  0  0  0
 27 28  1  1  0  0  0
 30 29  1  0  0  0  0
 30 27  1  0  0  0  0
 31 32  1  0  0  0  0
 33 35  1  6  0  0  0
 33 36  1  0  0  0  0
 33 25  1  0  0  0  0
 35 34  1  0  0  0  0
 37 41  1  0  0  0  0
 37 39  1  0  0  0  0
 38 44  1  6  0  0  0
 38 42  1  0  0  0  0
 38 40  1  0  0  0  0
 40 43  1  0  0  0  0
 42 37  2  0  0  0  0
 43 39  1  0  0  0  0
 43 36  1  1  0  0  0
 45 44  1  0  0  0  0
 46 47  1  0  0  0  0
 46 45  1  0  0  0  0
 48 49  1  0  0  0  0
 50 49  1  0  0  0  0
 50 51  1  0  0  0  0
 51 52  1  0  0  0  0
 52 60  1  0  0  0  0
 54 60  1  0  0  0  0
 55 53  1  0  0  0  0
 58 54  1  1  0  0  0
 58 55  1  0  0  0  0
 59 58  1  0  0  0  0
 59 56  1  1  0  0  0
 59 61  1  0  0  0  0
 60 56  1  0  0  0  0
 60 57  1  1  0  0  0
 61 53  1  0  0  0  0
M  END
>  <MODEL>
3

>  <REMARK>
 VINA RESULT:      -0.8      4.769     11.966
  Name = 
  28 active torsions:
  status: ('A' for Active; 'I' for Inactive)
    1  A    between atoms: N_1  and  C_24
    2  A    between atoms: N_1  and  C_35
    3  A    between atoms: N_1  and  C_52
    4  A    between atoms: C_3  and  C_52
    5  A    between atoms: C_6  and  C_35
    6  A    between atoms: C_6  and  C_61
    7  A    between atoms: C_7  and  C_15
    8  A    between atoms: P_10  and  O_27
    9  A    between atoms: P_10  and  C_60
   10  A    between atoms: C_15  and  C_29
   11  A    between atoms: O_16  and  C_28
   12  A    between atoms: O_16  and  C_47
   13  A    between atoms: C_17  and  C_52
   14  A    between atoms: C_17  and  C_57
   15  A    between atoms: C_18  and  C_24
   16  A    between atoms: C_18  and  S_43
   17  A    between atoms: C_19  and  C_25
   18  A    between atoms: C_19  and  N_39
   19  A    between atoms: C_21  and  C_50
   20  A    between atoms: C_21  and  C_53
   21  A    between atoms: C_23  and  C_60
   22  A    between atoms: C_25  and  C_49
   23  A    between atoms: O_27  and  P_58
   24  A    between atoms: C_29  and  C_59
   25  A    between atoms: C_34  and  C_47
   26  A    between atoms: C_35  and  C_56
   27  A    between atoms: N_39  and  C_53
   28  A    between atoms: C_42  and  S_43
                            x       y       z     vdW  Elec       q    Type
                         _______ _______ _______ _____ _____    ______ ____

>  <TORSDO>
F 28

$$$$
=
 OpenBabel11052411583D

 61 64  0  0  1  0  0  0  0  0999 V2000
  160.2100  205.6670  149.4190 C   0  0  0  0  0  2  0  0  0  0  0  0
  160.6570  205.6160  147.9670 C   0  0  0  0  0  2  0  0  0  0  0  0
  161.9990  207.7200  148.5100 C   0  0  0  0  0  0  0  0  0  0  0  0
  162.0450  207.3340  149.7970 C   0  0  0  0  0  3  0  0  0  0  0  0
  161.1170  207.0020  147.5010 C   0  0  1  0  0  3  0  0  0  0  0  0
  161.4020  206.0580  150.2870 C   0  0  1  0  0  3  0  0  0  0  0  0
  161.6090  207.2850  152.4100 N   0  0  0  0  0  1  0  0  0  0  0  0
  160.9820  206.1460  151.7530 C   0  0  2  0  0  3  0  0  0  0  0  0
  161.3010  204.8600  152.4980 C   0  0  0  0  0  2  0  0  0  0  0  0
  160.9600  203.7070  151.6620 C   0  0  0  0  0  0  0  0  0  0  0  0
  160.6610  202.7530  150.9890 C   0  0  0  0  0  0  0  0  0  0  0  0
  160.7230  200.4220  150.8240 O   0  0  0  0  0  1  0  0  0  0  0  0
  160.2820  201.5850  150.1910 C   0  0  2  0  0  3  0  0  0  0  0  0
  161.0400  201.7010  148.5450 P   0  0  2  0  0  0  0  0  0  0  0  0
  161.9260  200.2890  148.2530 O   0  0  0  0  0  0  0  0  0  0  0  0
  161.9710  202.8930  148.5240 O   0  0  0  0  0  1  0  0  0  0  0  0
  159.8010  201.9020  147.3980 O   0  0  0  0  0  0  0  0  0  0  0  0
  159.3780  202.1540  144.6450 O   0  0  0  0  0  0  0  0  0  0  0  0
  160.9680  200.3500  145.6500 O   0  0  0  0  0  1  0  0  0  0  0  0
  161.8390  202.8050  145.7270 O   0  0  0  0  0  1  0  0  0  0  0  0
  160.5030  201.7750  145.8520 P   0  0  0  0  0  0  0  0  0  0  0  0
  162.6990  209.3250  148.0930 S   0  0  0  0  0  0  0  0  0  0  0  0
  161.4800  210.2670  149.0620 C   0  0  0  0  0  2  0  0  0  0  0  0
  161.2500  211.6380  148.4280 C   0  0  0  0  0  2  0  0  0  0  0  0
  161.4150  212.7450  149.3810 N   0  0  0  0  0  0  0  0  0  0  0  0
  161.2820  214.0670  148.7200 C   0  0  1  0  0  3  0  0  0  0  0  0
  162.2890  214.2080  147.5680 C   0  0  1  0  0  3  0  0  0  0  0  0
  163.6000  214.3510  148.0350 O   0  0  0  0  0  1  0  0  0  0  0  0
  163.4260  212.8310  145.9550 O   0  0  0  0  0  1  0  0  0  0  0  0
  162.1870  213.0800  146.5470 C   0  0  0  0  0  2  0  0  0  0  0  0
  159.8560  214.3000  148.2080 C   0  0  0  0  0  2  0  0  0  0  0  0
  159.8680  214.3950  146.6930 C   0  0  0  0  0  1  0  0  0  0  0  0
  160.5020  212.5060  150.5200 C   0  0  1  0  0  3  0  0  0  0  0  0
  158.4100  213.7030  150.4610 O   0  0  0  0  0  1  0  0  0  0  0  0
  159.0410  212.5200  150.0750 C   0  0  0  0  0  2  0  0  0  0  0  0
  160.8580  211.3090  151.4160 C   0  0  0  0  0  2  0  0  0  0  0  0
  159.4270  213.1180  154.5020 C   0  0  0  0  0  0  0  0  0  0  0  0
  160.4880  210.9630  155.2190 C   0  0  1  0  0  3  0  0  0  0  0  0
  159.8120  212.8860  153.0590 C   0  0  0  0  0  2  0  0  0  0  0  0
  161.1830  210.9550  153.8560 C   0  0  0  0  0  2  0  0  0  0  0  0
  158.7520  214.3940  154.8700 C   0  0  0  0  0  1  0  0  0  0  0  0
  159.8040  212.2820  155.4830 C   0  0  0  0  0  3  0  0  0  0  0  0
  160.2100  211.4340  152.7850 C   0  0  2  0  0  3  0  0  0  0  0  0
  159.5420  209.9330  155.2680 O   0  0  0  0  0  0  0  0  0  0  0  0
  160.2200  208.8470  155.8330 C   0  0  0  0  0  2  0  0  0  0  0  0
  161.0810  209.3340  156.9800 C   0  0  0  0  0  2  0  0  0  0  0  0
  162.4000  208.9200  156.7890 O   0  0  0  0  0  1  0  0  0  0  0  0
  161.7980  206.8700  146.1500 C   0  0  0  0  0  2  0  0  0  0  0  0
  160.9990  205.9550  145.2370 C   0  0  0  0  0  2  0  0  0  0  0  0
  160.8920  206.5580  143.9180 N   0  0  0  0  0  2  0  0  0  0  0  0
  161.9390  205.9850  143.0850 C   0  0  0  0  0  2  0  0  0  0  0  0
  161.5060  205.9380  141.6160 C   0  0  0  0  0  2  0  0  0  0  0  0
  161.8320  209.0840  137.0150 C   0  0  0  0  0  2  0  0  0  0  0  0
  162.3550  206.4480  139.2810 C   0  0  0  0  0  2  0  0  0  0  0  0
  162.0200  207.7930  137.2100 C   0  0  0  0  0  2  0  0  0  0  0  0
  161.4050  208.2750  140.6210 C   0  0  0  0  0  2  0  0  0  0  0  0
  163.5720  207.2670  141.2770 C   0  0  0  0  0  1  0  0  0  0  0  0
  161.5500  207.3250  138.4610 N   0  0  2  0  0  0  0  0  0  0  0  0
  160.8250  208.3170  139.2200 C   0  0  2  0  0  3  0  0  0  0  0  0
  162.1990  206.9660  140.7080 C   0  0  1  0  0  0  0  0  0  0  0  0
  161.1180  209.9290  138.4250 S   0  0  0  0  0  0  0  0  0  0  0  0
  1  6  1  0  0  0  0
  2  1  1  0  0  0  0
  3  4  2  0  0  0  0
  4  6  1  0  0  0  0
  5 48  1  6  0  0  0
  5  2  1  0  0  0  0
  5  3  1  0  0  0  0
  6  8  1  1  0  0  0
  8  7  1  1  0  0  0
  8  9  1  0  0  0  0
 10  9  1  0  0  0  0
 11 10  3  0  0  0  0
 13 12  1  1  0  0  0
 13 11  1  0  0  0  0
 14 15  2  6  0  0  0
 14 13  1  0  0  0  0
 16 14  1  0  0  0  0
 17 14  1  0  0  0  0
 18 21  2  0  0  0  0
 19 21  1  0  0  0  0
 20 21  1  0  0  0  0
 21 17  1  0  0  0  0
 22  3  1  0  0  0  0
 22 23  1  0  0  0  0
 24 23  1  0  0  0  0
 24 25  1  0  0  0  0
 25 33  1  0  0  0  0
 26 31  1  6  0  0  0
 26 25  1  0  0  0  0
 27 28  1  1  0  0  0
 27 26  1  0  0  0  0
 29 30  1  0  0  0  0
 30 27  1  0  0  0  0
 32 31  1  0  0  0  0
 33 35  1  6  0  0  0
 33 36  1  0  0  0  0
 35 34  1  0  0  0  0
 37 41  1  0  0  0  0
 37 42  2  0  0  0  0
 38 44  1  6  0  0  0
 38 42  1  0  0  0  0
 39 37  1  0  0  0  0
 40 38  1  0  0  0  0
 43 36  1  6  0  0  0
 43 39  1  0  0  0  0
 43 40  1  0  0  0  0
 44 45  1  0  0  0  0
 45 46  1  0  0  0  0
 47 46  1  0  0  0  0
 49 48  1  0  0  0  0
 50 49  1  0  0  0  0
 51 50  1  0  0  0  0
 52 51  1  0  0  0  0
 53 55  1  0  0  0  0
 53 61  1  0  0  0  0
 54 60  1  0  0  0  0
 56 60  1  0  0  0  0
 58 55  1  6  0  0  0
 58 59  1  0  0  0  0
 58 54  1  0  0  0  0
 59 56  1  1  0  0  0
 60 57  1  1  0  0  0
 60 52  1  0  0  0  0
 61 59  1  0  0  0  0
M  END
>  <MODEL>
4

>  <REMARK>
 VINA RESULT:      -0.8      1.227      1.942
  Name = 
  28 active torsions:
  status: ('A' for Active; 'I' for Inactive)
    1  A    between atoms: N_1  and  C_24
    2  A    between atoms: N_1  and  C_35
    3  A    between atoms: N_1  and  C_52
    4  A    between atoms: C_3  and  C_52
    5  A    between atoms: C_6  and  C_35
    6  A    between atoms: C_6  and  C_61
    7  A    between atoms: C_7  and  C_15
    8  A    between atoms: P_10  and  O_27
    9  A    between atoms: P_10  and  C_60
   10  A    between atoms: C_15  and  C_29
   11  A    between atoms: O_16  and  C_28
   12  A    between atoms: O_16  and  C_47
   13  A    between atoms: C_17  and  C_52
   14  A    between atoms: C_17  and  C_57
   15  A    between atoms: C_18  and  C_24
   16  A    between atoms: C_18  and  S_43
   17  A    between atoms: C_19  and  C_25
   18  A    between atoms: C_19  and  N_39
   19  A    between atoms: C_21  and  C_50
   20  A    between atoms: C_21  and  C_53
   21  A    between atoms: C_23  and  C_60
   22  A    between atoms: C_25  and  C_49
   23  A    between atoms: O_27  and  P_58
   24  A    between atoms: C_29  and  C_59
   25  A    between atoms: C_34  and  C_47
   26  A    between atoms: C_35  and  C_56
   27  A    between atoms: N_39  and  C_53
   28  A    between atoms: C_42  and  S_43
                            x       y       z     vdW  Elec       q    Type
                         _______ _______ _______ _____ _____    ______ ____

>  <TORSDO>
F 28

$$$$
=
 OpenBabel11052411583D

 61 64  0  0  1  0  0  0  0  0999 V2000
  160.4190  205.9780  149.2550 C   0  0  0  0  0  2  0  0  0  0  0  0
  160.9920  205.9470  147.8480 C   0  0  0  0  0  2  0  0  0  0  0  0
  161.8100  208.3160  148.3390 C   0  0  0  0  0  0  0  0  0  0  0  0
  161.8220  208.0180  149.6500 C   0  0  0  0  0  3  0  0  0  0  0  0
  161.1900  207.3720  147.3200 C   0  0  1  0  0  3  0  0  0  0  0  0
  161.4220  206.6610  150.1790 C   0  0  1  0  0  3  0  0  0  0  0  0
  160.7800  208.1160  152.0590 N   0  0  0  0  0  1  0  0  0  0  0  0
  160.8650  206.7360  151.6000 C   0  0  2  0  0  3  0  0  0  0  0  0
  161.6970  205.9060  152.5640 C   0  0  0  0  0  2  0  0  0  0  0  0
  161.5900  204.4870  152.2130 C   0  0  0  0  0  0  0  0  0  0  0  0
  161.4800  203.3260  151.9130 C   0  0  0  0  0  0  0  0  0  0  0  0
  162.5710  201.2980  151.5060 O   0  0  0  0  0  1  0  0  0  0  0  0
  161.3210  201.9180  151.5410 C   0  0  2  0  0  3  0  0  0  0  0  0
  160.5450  201.8060  149.9020 P   0  0  2  0  0  0  0  0  0  0  0  0
  159.9150  203.3230  149.4950 O   0  0  0  0  0  0  0  0  0  0  0  0
  159.4230  200.7940  149.9670 O   0  0  0  0  0  1  0  0  0  0  0  0
  161.7250  201.3060  148.7850 O   0  0  0  0  0  0  0  0  0  0  0  0
  161.2220  199.8110  146.4750 O   0  0  0  0  0  1  0  0  0  0  0  0
  161.6650  202.3780  146.4040 O   0  0  0  0  0  0  0  0  0  0  0  0
  159.3540  201.6480  147.3620 O   0  0  0  0  0  1  0  0  0  0  0  0
  161.0060  201.3060  147.2410 P   0  0  0  0  0  0  0  0  0  0  0  0
  162.1910  210.0100  147.8620 S   0  0  0  0  0  0  0  0  0  0  0  0
  160.6140  210.2690  146.9890 C   0  0  0  0  0  2  0  0  0  0  0  0
  159.9930  211.5980  147.4130 C   0  0  0  0  0  2  0  0  0  0  0  0
  160.7920  212.7610  147.0010 N   0  0  0  0  0  0  0  0  0  0  0  0
  160.0500  213.6370  146.0600 C   0  0  1  0  0  3  0  0  0  0  0  0
  160.8050  213.7780  144.7300 C   0  0  1  0  0  3  0  0  0  0  0  0
  162.0240  214.4450  144.8910 O   0  0  0  0  0  1  0  0  0  0  0  0
  159.9580  212.2200  143.1040 O   0  0  0  0  0  1  0  0  0  0  0  0
  160.9950  212.4480  144.0090 C   0  0  0  0  0  2  0  0  0  0  0  0
  158.6290  213.1180  145.8100 C   0  0  0  0  0  2  0  0  0  0  0  0
  157.7950  214.2100  145.1640 C   0  0  0  0  0  1  0  0  0  0  0  0
  161.3000  213.4220  148.2230 C   0  0  1  0  0  3  0  0  0  0  0  0
  163.4040  213.2200  147.0620 O   0  0  0  0  0  1  0  0  0  0  0  0
  162.7110  213.9680  148.0160 C   0  0  0  0  0  2  0  0  0  0  0  0
  160.3430  214.4300  148.8780 C   0  0  0  0  0  2  0  0  0  0  0  0
  160.1640  212.0750  151.9210 C   0  0  0  0  0  0  0  0  0  0  0  0
  157.9830  213.2860  151.6780 C   0  0  1  0  0  3  0  0  0  0  0  0
  160.7300  212.7430  150.6890 C   0  0  0  0  0  2  0  0  0  0  0  0
  158.4350  213.6300  150.2570 C   0  0  0  0  0  2  0  0  0  0  0  0
  160.9840  211.0490  152.6240 C   0  0  0  0  0  1  0  0  0  0  0  0
  158.8960  212.2670  152.3170 C   0  0  0  0  0  3  0  0  0  0  0  0
  159.9210  213.9690  150.2630 C   0  0  2  0  0  3  0  0  0  0  0  0
  157.9660  214.4470  152.4580 O   0  0  0  0  0  0  0  0  0  0  0  0
  157.6840  214.0070  153.7550 C   0  0  0  0  0  2  0  0  0  0  0  0
  156.2470  213.5350  153.8250 C   0  0  0  0  0  2  0  0  0  0  0  0
  155.6270  214.0730  154.9550 O   0  0  0  0  0  1  0  0  0  0  0  0
  161.9990  207.3170  146.0360 C   0  0  0  0  0  2  0  0  0  0  0  0
  161.9000  205.9410  145.4010 C   0  0  0  0  0  2  0  0  0  0  0  0
  161.1620  206.0350  144.1510 N   0  0  0  0  0  2  0  0  0  0  0  0
  162.1310  206.1940  143.0770 C   0  0  0  0  0  2  0  0  0  0  0  0
  161.4370  206.2220  141.7120 C   0  0  0  0  0  2  0  0  0  0  0  0
  162.1280  210.2240  137.8800 C   0  0  0  0  0  2  0  0  0  0  0  0
  161.3940  207.1100  139.3370 C   0  0  0  0  0  2  0  0  0  0  0  0
  161.3770  209.1400  137.8900 C   0  0  0  0  0  2  0  0  0  0  0  0
  162.6850  208.3300  141.0330 C   0  0  0  0  0  2  0  0  0  0  0  0
  163.4530  206.1000  140.2730 C   0  0  0  0  0  1  0  0  0  0  0  0
  161.2510  208.5380  139.1660 N   0  0  2  0  0  0  0  0  0  0  0  0
  161.8430  209.3070  140.2350 C   0  0  2  0  0  3  0  0  0  0  0  0
  162.2280  206.9320  140.6020 C   0  0  1  0  0  0  0  0  0  0  0  0
  162.8710  210.6000  139.4680 S   0  0  0  0  0  0  0  0  0  0  0  0
  1  6  1  0  0  0  0
  2  1  1  0  0  0  0
  3  4  2  0  0  0  0
  4  6  1  0  0  0  0
  5 48  1  6  0  0  0
  5  2  1  0  0  0  0
  5  3  1  0  0  0  0
  6  8  1  1  0  0  0
  8  7  1  1  0  0  0
  8  9  1  0  0  0  0
 10  9  1  0  0  0  0
 11 10  3  0  0  0  0
 13 12  1  6  0  0  0
 13 11  1  0  0  0  0
 14 15  2  6  0  0  0
 14 16  1  0  0  0  0
 14 13  1  0  0  0  0
 17 14  1  0  0  0  0
 18 21  1  0  0  0  0
 19 21  2  0  0  0  0
 21 20  1  0  0  0  0
 21 17  1  0  0  0  0
 22  3  1  0  0  0  0
 23 24  1  0  0  0  0
 23 22  1  0  0  0  0
 25 24  1  0  0  0  0
 25 33  1  0  0  0  0
 26 31  1  6  0  0  0
 26 25  1  0  0  0  0
 27 28  1  1  0  0  0
 27 26  1  0  0  0  0
 29 30  1  0  0  0  0
 30 27  1  0  0  0  0
 32 31  1  0  0  0  0
 33 35  1  6  0  0  0
 33 36  1  0  0  0  0
 34 35  1  0  0  0  0
 37 42  2  0  0  0  0
 37 41  1  0  0  0  0
 38 42  1  0  0  0  0
 38 44  1  1  0  0  0
 39 37  1  0  0  0  0
 40 43  1  0  0  0  0
 40 38  1  0  0  0  0
 43 36  1  6  0  0  0
 43 39  1  0  0  0  0
 44 45  1  0  0  0  0
 45 46  1  0  0  0  0
 46 47  1  0  0  0  0
 49 48  1  0  0  0  0
 50 49  1  0  0  0  0
 51 50  1  0  0  0  0
 52 51  1  0  0  0  0
 53 55  1  0  0  0  0
 53 61  1  0  0  0  0
 54 60  1  0  0  0  0
 58 55  1  6  0  0  0
 58 54  1  0  0  0  0
 58 59  1  0  0  0  0
 59 56  1  1  0  0  0
 60 57  1  6  0  0  0
 60 56  1  0  0  0  0
 60 52  1  0  0  0  0
 61 59  1  0  0  0  0
M  END
>  <MODEL>
5

>  <REMARK>
 VINA RESULT:      -0.6      1.577      2.635
  Name = 
  28 active torsions:
  status: ('A' for Active; 'I' for Inactive)
    1  A    between atoms: N_1  and  C_24
    2  A    between atoms: N_1  and  C_35
    3  A    between atoms: N_1  and  C_52
    4  A    between atoms: C_3  and  C_52
    5  A    between atoms: C_6  and  C_35
    6  A    between atoms: C_6  and  C_61
    7  A    between atoms: C_7  and  C_15
    8  A    between atoms: P_10  and  O_27
    9  A    between atoms: P_10  and  C_60
   10  A    between atoms: C_15  and  C_29
   11  A    between atoms: O_16  and  C_28
   12  A    between atoms: O_16  and  C_47
   13  A    between atoms: C_17  and  C_52
   14  A    between atoms: C_17  and  C_57
   15  A    between atoms: C_18  and  C_24
   16  A    between atoms: C_18  and  S_43
   17  A    between atoms: C_19  and  C_25
   18  A    between atoms: C_19  and  N_39
   19  A    between atoms: C_21  and  C_50
   20  A    between atoms: C_21  and  C_53
   21  A    between atoms: C_23  and  C_60
   22  A    between atoms: C_25  and  C_49
   23  A    between atoms: O_27  and  P_58
   24  A    between atoms: C_29  and  C_59
   25  A    between atoms: C_34  and  C_47
   26  A    between atoms: C_35  and  C_56
   27  A    between atoms: N_39  and  C_53
   28  A    between atoms: C_42  and  S_43
                            x       y       z     vdW  Elec       q    Type
                         _______ _______ _______ _____ _____    ______ ____

>  <TORSDO>
F 28

$$$$
=
 OpenBabel11052411583D

 61 64  0  0  1  0  0  0  0  0999 V2000
  160.6690  212.0300  149.8470 C   0  0  0  0  0  2  0  0  0  0  0  0
  160.9420  211.6070  151.2810 C   0  0  0  0  0  2  0  0  0  0  0  0
  162.0370  209.5390  150.2580 C   0  0  0  0  0  0  0  0  0  0  0  0
  162.2890  210.2490  149.1440 C   0  0  0  0  0  3  0  0  0  0  0  0
  161.1480  210.0900  151.3620 C   0  0  1  0  0  3  0  0  0  0  0  0
  161.8910  211.6990  148.9970 C   0  0  1  0  0  3  0  0  0  0  0  0
  162.6770  212.9880  147.0520 N   0  0  0  0  0  1  0  0  0  0  0  0
  161.6410  212.0860  147.5400 C   0  0  2  0  0  3  0  0  0  0  0  0
  160.2660  212.7090  147.3610 C   0  0  0  0  0  2  0  0  0  0  0  0
  160.0990  213.1430  145.9720 C   0  0  0  0  0  0  0  0  0  0  0  0
  159.9370  213.5000  144.8330 C   0  0  0  0  0  0  0  0  0  0  0  0
  158.4870  213.4340  142.9990 O   0  0  0  0  0  1  0  0  0  0  0  0
  159.7140  213.9260  143.4490 C   0  0  2  0  0  3  0  0  0  0  0  0
  161.0450  213.2850  142.3940 P   0  0  2  0  0  0  0  0  0  0  0  0
  162.2120  212.5500  143.3760 O   0  0  0  0  0  1  0  0  0  0  0  0
  161.6710  214.4420  141.6480 O   0  0  0  0  0  0  0  0  0  0  0  0
  160.3710  212.1740  141.2980 O   0  0  0  0  0  0  0  0  0  0  0  0
  162.9040  212.7520  140.2610 O   0  0  0  0  0  1  0  0  0  0  0  0
  160.7270  213.0300  138.8560 O   0  0  0  0  0  0  0  0  0  0  0  0
  161.4870  210.5780  139.3050 O   0  0  0  0  0  1  0  0  0  0  0  0
  161.3600  212.1520  139.9110 P   0  0  0  0  0  0  0  0  0  0  0  0
  162.4550  207.7880  150.2460 S   0  0  0  0  0  0  0  0  0  0  0  0
  163.1120  207.8120  148.5480 C   0  0  0  0  0  2  0  0  0  0  0  0
  163.1520  206.3940  147.9810 C   0  0  0  0  0  2  0  0  0  0  0  0
  161.8900  205.9990  147.3380 N   0  0  0  0  0  0  0  0  0  0  0  0
  162.0960  204.9340  146.3260 C   0  0  1  0  0  3  0  0  0  0  0  0
  160.9710  204.9470  145.2790 C   0  0  1  0  0  3  0  0  0  0  0  0
  161.3100  205.7140  144.1600 O   0  0  0  0  0  1  0  0  0  0  0  0
  159.2010  203.5650  144.4160 O   0  0  0  0  0  1  0  0  0  0  0  0
  160.5190  203.5490  144.8740 C   0  0  0  0  0  2  0  0  0  0  0  0
  163.4600  205.0660  145.6390 C   0  0  0  0  0  2  0  0  0  0  0  0
  163.9830  203.6880  145.2770 C   0  0  0  0  0  1  0  0  0  0  0  0
  160.9130  205.6870  148.4040 C   0  0  1  0  0  3  0  0  0  0  0  0
  159.3900  207.0250  147.0990 O   0  0  0  0  0  1  0  0  0  0  0  0
  159.7500  206.6770  148.4010 C   0  0  0  0  0  2  0  0  0  0  0  0
  160.4670  204.2180  148.4860 C   0  0  0  0  0  2  0  0  0  0  0  0
  161.5370  201.3440  150.8180 C   0  0  0  0  0  0  0  0  0  0  0  0
  160.3400  203.0960  152.1530 C   0  0  1  0  0  3  0  0  0  0  0  0
  161.3350  202.1130  149.5330 C   0  0  0  0  0  2  0  0  0  0  0  0
  159.8240  203.6340  150.8160 C   0  0  0  0  0  2  0  0  0  0  0  0
  162.1930  200.0080  150.7610 C   0  0  0  0  0  1  0  0  0  0  0  0
  161.0170  201.7580  151.9850 C   0  0  0  0  0  3  0  0  0  0  0  0
  160.9380  203.5710  149.7770 C   0  0  2  0  0  3  0  0  0  0  0  0
  161.2440  204.0080  152.7070 O   0  0  0  0  0  0  0  0  0  0  0  0
  161.5370  204.9010  151.6710 C   0  0  0  0  0  2  0  0  0  0  0  0
  161.6810  206.2980  152.2360 C   0  0  0  0  0  2  0  0  0  0  0  0
  161.3990  206.2860  153.6030 O   0  0  0  0  0  1  0  0  0  0  0  0
  161.6740  209.7340  152.7410 C   0  0  0  0  0  2  0  0  0  0  0  0
  161.2830  210.7980  153.7520 C   0  0  0  0  0  2  0  0  0  0  0  0
  161.7250  210.3930  155.0780 N   0  0  0  0  0  2  0  0  0  0  0  0
  161.2850  211.4110  156.0200 C   0  0  0  0  0  2  0  0  0  0  0  0
  160.5370  212.5370  155.3000 C   0  0  0  0  0  2  0  0  0  0  0  0
  155.1380  213.7070  156.1100 C   0  0  0  0  0  2  0  0  0  0  0  0
  158.5220  214.0760  155.2330 C   0  0  0  0  0  2  0  0  0  0  0  0
  156.0350  214.2260  155.2940 C   0  0  0  0  0  2  0  0  0  0  0  0
  158.4350  212.0730  156.6530 C   0  0  0  0  0  2  0  0  0  0  0  0
  159.9470  213.9420  157.2560 C   0  0  0  0  0  1  0  0  0  0  0  0
  157.2180  213.4560  155.1730 N   0  0  2  0  0  0  0  0  0  0  0  0
  157.1550  212.1800  155.8470 C   0  0  2  0  0  3  0  0  0  0  0  0
  159.3740  213.1490  156.0960 C   0  0  1  0  0  0  0  0  0  0  0  0
  155.6890  212.2090  156.9270 S   0  0  0  0  0  0  0  0  0  0  0  0
  1  2  1  0  0  0  0
  2  5  1  0  0  0  0
  3  5  1  0  0  0  0
  4  3  2  0  0  0  0
  5 48  1  1  0  0  0
  6  8  1  6  0  0  0
  6  4  1  0  0  0  0
  6  1  1  0  0  0  0
  8  7  1  1  0  0  0
  9  8  1  0  0  0  0
 10  9  1  0  0  0  0
 11 10  3  0  0  0  0
 13 12  1  6  0  0  0
 13 11  1  0  0  0  0
 14 16  2  6  0  0  0
 14 15  1  0  0  0  0
 14 13  1  0  0  0  0
 17 14  1  0  0  0  0
 19 21  2  0  0  0  0
 20 21  1  0  0  0  0
 21 18  1  0  0  0  0
 21 17  1  0  0  0  0
 22  3  1  0  0  0  0
 23 22  1  0  0  0  0
 24 23  1  0  0  0  0
 25 24  1  0  0  0  0
 25 33  1  0  0  0  0
 26 31  1  6  0  0  0
 26 25  1  0  0  0  0
 27 28  1  6  0  0  0
 27 26  1  0  0  0  0
 29 30  1  0  0  0  0
 30 27  1  0  0  0  0
 32 31  1  0  0  0  0
 33 35  1  6  0  0  0
 33 36  1  0  0  0  0
 34 35  1  0  0  0  0
 37 42  2  0  0  0  0
 38 44  1  6  0  0  0
 39 43  1  0  0  0  0
 39 37  1  0  0  0  0
 40 38  1  0  0  0  0
 41 37  1  0  0  0  0
 42 38  1  0  0  0  0
 43 36  1  6  0  0  0
 43 40  1  0  0  0  0
 45 46  1  0  0  0  0
 45 44  1  0  0  0  0
 46 47  1  0  0  0  0
 48 49  1  0  0  0  0
 49 50  1  0  0  0  0
 50 51  1  0  0  0  0
 52 51  1  0  0  0  0
 52 60  1  0  0  0  0
 53 61  1  0  0  0  0
 54 60  1  0  0  0  0
 55 53  1  0  0  0  0
 58 54  1  1  0  0  0
 58 55  1  0  0  0  0
 58 59  1  0  0  0  0
 59 56  1  1  0  0  0
 59 61  1  0  0  0  0
 60 56  1  0  0  0  0
 60 57  1  1  0  0  0
M  END
>  <MODEL>
6

>  <REMARK>
 VINA RESULT:       0.3      4.723     11.626
  Name = 
  28 active torsions:
  status: ('A' for Active; 'I' for Inactive)
    1  A    between atoms: N_1  and  C_24
    2  A    between atoms: N_1  and  C_35
    3  A    between atoms: N_1  and  C_52
    4  A    between atoms: C_3  and  C_52
    5  A    between atoms: C_6  and  C_35
    6  A    between atoms: C_6  and  C_61
    7  A    between atoms: C_7  and  C_15
    8  A    between atoms: P_10  and  O_27
    9  A    between atoms: P_10  and  C_60
   10  A    between atoms: C_15  and  C_29
   11  A    between atoms: O_16  and  C_28
   12  A    between atoms: O_16  and  C_47
   13  A    between atoms: C_17  and  C_52
   14  A    between atoms: C_17  and  C_57
   15  A    between atoms: C_18  and  C_24
   16  A    between atoms: C_18  and  S_43
   17  A    between atoms: C_19  and  C_25
   18  A    between atoms: C_19  and  N_39
   19  A    between atoms: C_21  and  C_50
   20  A    between atoms: C_21  and  C_53
   21  A    between atoms: C_23  and  C_60
   22  A    between atoms: C_25  and  C_49
   23  A    between atoms: O_27  and  P_58
   24  A    between atoms: C_29  and  C_59
   25  A    between atoms: C_34  and  C_47
   26  A    between atoms: C_35  and  C_56
   27  A    between atoms: N_39  and  C_53
   28  A    between atoms: C_42  and  S_43
                            x       y       z     vdW  Elec       q    Type
                         _______ _______ _______ _____ _____    ______ ____

>  <TORSDO>
F 28

$$$$
