=
 OpenBabel11052411463D

 40 46  0  0  1  0  0  0  0  0999 V2000
  160.0510  210.2020  154.4660 C   0  0  0  0  0  0  0  0  0  0  0  0
  160.3510  208.9490  153.9700 C   0  0  0  0  0  0  0  0  0  0  0  0
  159.8570  210.3830  155.8380 C   0  0  0  0  0  3  0  0  0  0  0  0
  160.0040  209.2850  156.7000 C   0  0  0  0  0  3  0  0  0  0  0  0
  160.4640  207.8320  154.8020 C   0  0  0  0  0  3  0  0  0  0  0  0
  160.3010  208.0120  156.1820 C   0  0  0  0  0  0  0  0  0  0  0  0
  159.8420  211.5050  151.8740 C   0  0  2  0  0  3  0  0  0  0  0  0
  158.3210  210.9470  153.3040 O   0  0  0  0  0  1  0  0  0  0  0  0
  160.4670  206.6450  157.2610 Cl  0  0  0  0  0  0  0  0  0  0  0  0
  159.6910  211.2170  153.4030 C   0  0  2  0  0  0  0  0  0  0  0  0
  160.7740  210.5610  152.4130 C   0  0  1  0  0  0  0  0  0  0  0  0
  160.5040  209.0500  152.5120 C   0  0  1  0  0  3  0  0  0  0  0  0
  163.2260  210.3390  151.8380 C   0  0  0  0  0  1  0  0  0  0  0  0
  162.2090  211.0660  152.7020 C   0  0  0  0  0  2  0  0  0  0  0  0
  160.3460  212.9350  151.6900 C   0  0  0  0  0  2  0  0  0  0  0  0
  158.0950  213.8070  146.5640 C   0  0  0  0  0  2  0  0  0  0  0  0
  158.3390  212.8780  150.1700 C   0  0  0  0  0  2  0  0  0  0  0  0
  157.6900  213.4670  148.9900 N   0  0  0  0  0  2  0  0  0  0  0  0
  159.6680  213.5890  150.4960 C   0  0  2  0  0  3  0  0  0  0  0  0
  159.3450  214.2540  145.8200 C   0  0  0  0  0  2  0  0  0  0  0  0
  159.7720  214.2400  148.1550 N   0  0  1  0  0  0  0  0  0  0  0  0
  161.1930  212.3130  148.8840 C   0  0  0  0  0  1  0  0  0  0  0  0
  160.5750  213.6720  149.2450 C   0  0  2  0  0  3  0  0  0  0  0  0
  160.4500  214.3240  146.8730 C   0  0  0  0  0  2  0  0  0  0  0  0
  158.6440  213.3660  147.8930 C   0  0  2  0  0  3  0  0  0  0  0  0
  161.5480  208.1120  151.8770 C   0  0  0  0  0  2  0  0  0  0  0  0
  160.9800  207.1460  150.9380 N   0  0  0  0  0  0  0  0  0  0  0  0
  160.6630  205.9270  151.6710 C   0  0  0  0  0  2  0  0  0  0  0  0
  161.7890  205.4920  152.3700 O   0  0  0  0  0  1  0  0  0  0  0  0
  161.9290  206.8480  149.9390 N   0  0  0  0  0  2  0  0  0  0  0  0
  161.2270  202.8090  147.7780 C   0  0  0  0  0  0  0  0  0  0  0  0
  161.6710  206.2560  148.6520 C   0  0  0  0  0  0  0  0  0  0  0  0
  161.9530  206.8770  147.4340 C   0  0  0  0  0  3  0  0  0  0  0  0
  161.2070  203.6690  149.0300 C   0  0  0  0  0  2  0  0  0  0  0  0
  161.2130  204.8340  147.0480 N   0  0  0  0  0  0  0  0  0  0  0  0
  161.2520  203.4970  146.6760 N   0  0  0  0  0  0  0  0  0  0  0  0
  161.2150  204.9920  148.3520 C   0  0  0  0  0  0  0  0  0  0  0  0
  161.6970  205.9280  146.4380 C   0  0  0  0  0  3  0  0  0  0  0  0
  161.5140  200.7390  148.9070 F   0  0  0  0  0  0  0  0  0  0  0  0
  161.2290  201.4200  147.7820 O   0  0  0  0  0  0  0  0  0  0  0  0
  1  3  1  0  0  0  0
  2  1  2  0  0  0  0
  2  5  1  0  0  0  0
  3  4  2  0  0  0  0
  5  6  2  0  0  0  0
  6  4  1  0  0  0  0
  6  9  1  0  0  0  0
  7 15  1  1  0  0  0
  7 11  1  0  0  0  0
  7 10  1  0  0  0  0
 10  8  1  6  0  0  0
 10  1  1  0  0  0  0
 11 12  1  0  0  0  0
 11 14  1  1  0  0  0
 11 10  1  0  0  0  0
 12 26  1  1  0  0  0
 12  2  1  0  0  0  0
 13 14  1  0  0  0  0
 17 19  1  0  0  0  0
 18 17  1  0  0  0  0
 19 15  1  1  0  0  0
 20 16  1  0  0  0  0
 20 24  1  0  0  0  0
 21 24  1  6  0  0  0
 21 23  1  0  0  0  0
 23 22  1  6  0  0  0
 23 19  1  0  0  0  0
 25 16  1  6  0  0  0
 25 21  1  0  0  0  0
 25 18  1  0  0  0  0
 27 28  1  0  0  0  0
 27 26  1  0  0  0  0
 28 29  1  0  0  0  0
 30 27  1  0  0  0  0
 31 40  1  0  0  0  0
 31 34  1  0  0  0  0
 32 30  1  0  0  0  0
 33 32  1  0  0  0  0
 35 37  1  0  0  0  0
 36 35  1  0  0  0  0
 36 31  2  0  0  0  0
 37 32  2  0  0  0  0
 37 34  1  0  0  0  0
 38 35  1  0  0  0  0
 38 33  2  0  0  0  0
 40 39  1  0  0  0  0
M  END
>  <MODEL>
1

>  <REMARK>
 VINA RESULT:      -5.7      0.000      0.000
  Name = 
  9 active torsions:
  status: ('A' for Active; 'I' for Inactive)
    1  A    between atoms: C_4  and  O_33
    2  A    between atoms: C_9  and  N_21
    3  A    between atoms: C_11  and  C_32
    4  A    between atoms: C_12  and  N_19
    5  A    between atoms: C_15  and  C_37
    6  A    between atoms: N_19  and  N_21
    7  A    between atoms: N_19  and  C_35
    8  A    between atoms: C_23  and  C_32
    9  A    between atoms: C_35  and  C_38
                            x       y       z     vdW  Elec       q    Type
                         _______ _______ _______ _____ _____    ______ ____

>  <TORSDO>
F 9

$$$$
=
 OpenBabel11052411463D

 40 46  0  0  1  0  0  0  0  0999 V2000
  161.8040  207.6490  149.4030 C   0  0  0  0  0  0  0  0  0  0  0  0
  161.3050  208.5640  150.3070 C   0  0  0  0  0  0  0  0  0  0  0  0
  162.5220  208.0880  148.2860 C   0  0  0  0  0  3  0  0  0  0  0  0
  162.7510  209.4630  148.1200 C   0  0  0  0  0  3  0  0  0  0  0  0
  161.4850  209.9390  150.1430 C   0  0  0  0  0  3  0  0  0  0  0  0
  162.2290  210.3860  149.0430 C   0  0  0  0  0  0  0  0  0  0  0  0
  160.5940  205.3130  150.6450 C   0  0  2  0  0  3  0  0  0  0  0  0
  160.1120  206.3510  148.8110 O   0  0  0  0  0  1  0  0  0  0  0  0
  162.5070  212.0990  148.8200 Cl  0  0  0  0  0  0  0  0  0  0  0  0
  161.2720  206.2440  149.5880 C   0  0  2  0  0  0  0  0  0  0  0  0
  161.2690  206.4570  151.1810 C   0  0  1  0  0  0  0  0  0  0  0  0
  160.6040  207.8320  151.3720 C   0  0  1  0  0  3  0  0  0  0  0  0
  162.5590  205.9080  153.2830 C   0  0  0  0  0  1  0  0  0  0  0  0
  162.6680  206.2300  151.8030 C   0  0  0  0  0  2  0  0  0  0  0  0
  161.3530  203.9880  150.6920 C   0  0  0  0  0  2  0  0  0  0  0  0
  160.8030  200.2180  146.4990 C   0  0  0  0  0  2  0  0  0  0  0  0
  161.3350  201.5880  149.9280 C   0  0  0  0  0  2  0  0  0  0  0  0
  160.8100  200.6290  148.9470 N   0  0  0  0  0  2  0  0  0  0  0  0
  160.7610  203.0010  149.6980 C   0  0  2  0  0  3  0  0  0  0  0  0
  160.6020  201.1760  145.3320 C   0  0  0  0  0  2  0  0  0  0  0  0
  160.4010  202.3610  147.3790 N   0  0  1  0  0  0  0  0  0  0  0  0
  162.3920  203.7890  147.8890 C   0  0  0  0  0  1  0  0  0  0  0  0
  160.9350  203.4380  148.2240 C   0  0  2  0  0  3  0  0  0  0  0  0
  160.5490  202.5720  145.9490 C   0  0  0  0  0  2  0  0  0  0  0  0
  161.1540  201.1460  147.6300 C   0  0  2  0  0  3  0  0  0  0  0  0
  160.6810  208.4520  152.7800 C   0  0  0  0  0  2  0  0  0  0  0  0
  160.8180  209.9080  152.7760 N   0  0  0  0  0  0  0  0  0  0  0  0
  161.7530  210.2840  153.8290 C   0  0  0  0  0  2  0  0  0  0  0  0
  161.4080  209.6380  155.0160 O   0  0  0  0  0  1  0  0  0  0  0  0
  159.5660  210.4990  153.0410 N   0  0  0  0  0  2  0  0  0  0  0  0
  156.2740  213.6410  153.9110 C   0  0  0  0  0  0  0  0  0  0  0  0
  159.1980  211.8750  152.8300 C   0  0  0  0  0  0  0  0  0  0  0  0
  159.7170  212.6770  151.8110 C   0  0  0  0  0  3  0  0  0  0  0  0
  157.0010  212.3510  154.2430 C   0  0  0  0  0  2  0  0  0  0  0  0
  158.1690  213.8090  152.9040 N   0  0  0  0  0  0  0  0  0  0  0  0
  156.9510  214.4340  153.1360 N   0  0  0  0  0  0  0  0  0  0  0  0
  158.2430  212.6290  153.4750 C   0  0  0  0  0  0  0  0  0  0  0  0
  159.0050  213.8810  151.8560 C   0  0  0  0  0  3  0  0  0  0  0  0
  154.0090  214.2320  153.5050 F   0  0  0  0  0  0  0  0  0  0  0  0
  155.0030  213.9660  154.3710 O   0  0  0  0  0  0  0  0  0  0  0  0
  1 10  1  0  0  0  0
  1  2  1  0  0  0  0
  2 12  1  0  0  0  0
  3  1  2  0  0  0  0
  4  3  1  0  0  0  0
  4  6  2  0  0  0  0
  5  2  2  0  0  0  0
  6  5  1  0  0  0  0
  7 15  1  1  0  0  0
  7 11  1  0  0  0  0
  9  6  1  0  0  0  0
 10  8  1  1  0  0  0
 10  7  1  0  0  0  0
 10 11  1  0  0  0  0
 11 12  1  0  0  0  0
 11 14  1  1  0  0  0
 12 26  1  1  0  0  0
 14 13  1  0  0  0  0
 18 17  1  0  0  0  0
 19 17  1  0  0  0  0
 19 15  1  1  0  0  0
 20 24  1  0  0  0  0
 20 16  1  0  0  0  0
 21 24  1  6  0  0  0
 21 25  1  0  0  0  0
 21 23  1  0  0  0  0
 23 22  1  6  0  0  0
 23 19  1  0  0  0  0
 25 16  1  6  0  0  0
 25 18  1  0  0  0  0
 27 26  1  0  0  0  0
 27 30  1  0  0  0  0
 27 28  1  0  0  0  0
 28 29  1  0  0  0  0
 31 34  1  0  0  0  0
 31 40  1  0  0  0  0
 32 30  1  0  0  0  0
 32 37  2  0  0  0  0
 33 38  2  0  0  0  0
 33 32  1  0  0  0  0
 35 36  1  0  0  0  0
 35 37  1  0  0  0  0
 36 31  2  0  0  0  0
 37 34  1  0  0  0  0
 38 35  1  0  0  0  0
 39 40  1  0  0  0  0
M  END
>  <MODEL>
2

>  <REMARK>
 VINA RESULT:      -5.3      4.172      9.456
  Name = 
  9 active torsions:
  status: ('A' for Active; 'I' for Inactive)
    1  A    between atoms: C_4  and  O_33
    2  A    between atoms: C_9  and  N_21
    3  A    between atoms: C_11  and  C_32
    4  A    between atoms: C_12  and  N_19
    5  A    between atoms: C_15  and  C_37
    6  A    between atoms: N_19  and  N_21
    7  A    between atoms: N_19  and  C_35
    8  A    between atoms: C_23  and  C_32
    9  A    between atoms: C_35  and  C_38
                            x       y       z     vdW  Elec       q    Type
                         _______ _______ _______ _____ _____    ______ ____

>  <TORSDO>
F 9

$$$$
=
 OpenBabel11052411463D

 40 46  0  0  1  0  0  0  0  0999 V2000
  161.2580  204.4590  151.8070 C   0  0  0  0  0  0  0  0  0  0  0  0
  160.8360  204.4830  150.4930 C   0  0  0  0  0  0  0  0  0  0  0  0
  161.7230  203.2670  152.3710 C   0  0  0  0  0  3  0  0  0  0  0  0
  161.7830  202.1130  151.5740 C   0  0  0  0  0  3  0  0  0  0  0  0
  160.8490  203.3400  149.6910 C   0  0  0  0  0  3  0  0  0  0  0  0
  161.3410  202.1480  150.2400 C   0  0  0  0  0  0  0  0  0  0  0  0
  160.5190  207.2070  152.4080 C   0  0  2  0  0  3  0  0  0  0  0  0
  159.6240  205.3360  153.0150 O   0  0  0  0  0  1  0  0  0  0  0  0
  161.4050  200.7020  149.2580 Cl  0  0  0  0  0  0  0  0  0  0  0  0
  160.9070  205.7040  152.5920 C   0  0  2  0  0  0  0  0  0  0  0  0
  161.1610  206.5990  151.2810 C   0  0  1  0  0  0  0  0  0  0  0  0
  160.4080  205.8510  150.1670 C   0  0  1  0  0  3  0  0  0  0  0  0
  162.9000  208.4030  150.9520 C   0  0  0  0  0  1  0  0  0  0  0  0
  162.6630  206.9070  151.0680 C   0  0  0  0  0  2  0  0  0  0  0  0
  161.4020  208.0580  153.3190 C   0  0  0  0  0  2  0  0  0  0  0  0
  159.6000  213.0230  155.3710 C   0  0  0  0  0  2  0  0  0  0  0  0
  160.0660  210.1710  153.0100 C   0  0  0  0  0  2  0  0  0  0  0  0
  159.3000  211.2340  153.6760 N   0  0  0  0  0  2  0  0  0  0  0  0
  160.5710  209.1230  154.0210 C   0  0  2  0  0  3  0  0  0  0  0  0
  160.3140  213.0060  156.7160 C   0  0  0  0  0  2  0  0  0  0  0  0
  160.4340  210.8520  155.7250 N   0  0  1  0  0  0  0  0  0  0  0  0
  162.6960  210.3230  154.7940 C   0  0  0  0  0  1  0  0  0  0  0  0
  161.3110  209.7980  155.2000 C   0  0  2  0  0  3  0  0  0  0  0  0
  161.0040  211.6460  156.8000 C   0  0  0  0  0  2  0  0  0  0  0  0
  160.1820  211.8220  154.6750 C   0  0  2  0  0  3  0  0  0  0  0  0
  160.6690  206.3120  148.7210 C   0  0  0  0  0  2  0  0  0  0  0  0
  162.0860  206.3730  148.3670 N   0  0  0  0  0  0  0  0  0  0  0  0
  162.3670  207.6960  147.8250 C   0  0  0  0  0  2  0  0  0  0  0  0
  161.2550  208.5210  147.9970 O   0  0  0  0  0  1  0  0  0  0  0  0
  162.3680  205.4040  147.3820 N   0  0  0  0  0  2  0  0  0  0  0  0
  160.4810  201.6940  145.3470 C   0  0  0  0  0  0  0  0  0  0  0  0
  161.5070  204.9910  146.3050 C   0  0  0  0  0  0  0  0  0  0  0  0
  161.2380  205.7670  145.1760 C   0  0  0  0  0  3  0  0  0  0  0  0
  161.0970  202.3790  146.5540 C   0  0  0  0  0  2  0  0  0  0  0  0
  160.2680  203.7980  144.9460 N   0  0  0  0  0  0  0  0  0  0  0  0
  160.0420  202.5220  144.4480 N   0  0  0  0  0  0  0  0  0  0  0  0
  160.8800  203.7810  146.1080 C   0  0  0  0  0  0  0  0  0  0  0  0
  160.4890  204.9600  144.3120 C   0  0  0  0  0  3  0  0  0  0  0  0
  161.1560  199.4910  145.9270 F   0  0  0  0  0  0  0  0  0  0  0  0
  160.3910  200.3160  145.1890 O   0  0  0  0  0  0  0  0  0  0  0  0
  1  3  1  0  0  0  0
  1 10  1  0  0  0  0
  2  1  2  0  0  0  0
  4  3  2  0  0  0  0
  5  6  2  0  0  0  0
  5  2  1  0  0  0  0
  6  4  1  0  0  0  0
  7 10  1  0  0  0  0
  7 15  1  1  0  0  0
  9  6  1  0  0  0  0
 10  8  1  6  0  0  0
 11 14  1  6  0  0  0
 11  7  1  0  0  0  0
 11 10  1  0  0  0  0
 12 26  1  6  0  0  0
 12  2  1  0  0  0  0
 12 11  1  0  0  0  0
 13 14  1  0  0  0  0
 16 20  1  0  0  0  0
 17 18  1  0  0  0  0
 17 19  1  0  0  0  0
 18 25  1  0  0  0  0
 19 15  1  6  0  0  0
 19 23  1  0  0  0  0
 20 24  1  0  0  0  0
 21 24  1  1  0  0  0
 23 22  1  6  0  0  0
 23 21  1  0  0  0  0
 25 16  1  1  0  0  0
 25 21  1  0  0  0  0
 27 26  1  0  0  0  0
 28 29  1  0  0  0  0
 28 27  1  0  0  0  0
 30 27  1  0  0  0  0
 31 34  1  0  0  0  0
 32 30  1  0  0  0  0
 33 32  1  0  0  0  0
 35 37  1  0  0  0  0
 36 35  1  0  0  0  0
 36 31  2  0  0  0  0
 37 32  2  0  0  0  0
 37 34  1  0  0  0  0
 38 35  1  0  0  0  0
 38 33  2  0  0  0  0
 40 31  1  0  0  0  0
 40 39  1  0  0  0  0
M  END
>  <MODEL>
3

>  <REMARK>
 VINA RESULT:      -4.9      3.819      5.844
  Name = 
  9 active torsions:
  status: ('A' for Active; 'I' for Inactive)
    1  A    between atoms: C_4  and  O_33
    2  A    between atoms: C_9  and  N_21
    3  A    between atoms: C_11  and  C_32
    4  A    between atoms: C_12  and  N_19
    5  A    between atoms: C_15  and  C_37
    6  A    between atoms: N_19  and  N_21
    7  A    between atoms: N_19  and  C_35
    8  A    between atoms: C_23  and  C_32
    9  A    between atoms: C_35  and  C_38
                            x       y       z     vdW  Elec       q    Type
                         _______ _______ _______ _____ _____    ______ ____

>  <TORSDO>
F 9

$$$$
=
 OpenBabel11052411463D

 40 46  0  0  1  0  0  0  0  0999 V2000
  161.3510  203.7320  151.1570 C   0  0  0  0  0  0  0  0  0  0  0  0
  160.7370  204.1990  150.0130 C   0  0  0  0  0  0  0  0  0  0  0  0
  161.7950  202.4080  151.2230 C   0  0  0  0  0  3  0  0  0  0  0  0
  161.6340  201.5780  150.1010 C   0  0  0  0  0  3  0  0  0  0  0  0
  160.5300  203.3830  148.8990 C   0  0  0  0  0  3  0  0  0  0  0  0
  160.9980  202.0630  148.9450 C   0  0  0  0  0  0  0  0  0  0  0  0
  160.9480  206.1510  152.7210 C   0  0  2  0  0  3  0  0  0  0  0  0
  160.0030  204.2120  152.8450 O   0  0  0  0  0  1  0  0  0  0  0  0
  160.7890  201.0180  147.5580 Cl  0  0  0  0  0  0  0  0  0  0  0  0
  161.2320  204.6600  152.3460 C   0  0  2  0  0  0  0  0  0  0  0  0
  161.3560  205.9280  151.3670 C   0  0  1  0  0  0  0  0  0  0  0  0
  160.3810  205.6100  150.2190 C   0  0  1  0  0  3  0  0  0  0  0  0
  163.1240  207.7250  151.1780 C   0  0  0  0  0  1  0  0  0  0  0  0
  162.8280  206.2440  151.0070 C   0  0  0  0  0  2  0  0  0  0  0  0
  162.0290  206.6290  153.6900 C   0  0  0  0  0  2  0  0  0  0  0  0
  158.7240  210.5150  156.1560 C   0  0  0  0  0  2  0  0  0  0  0  0
  160.0250  207.1770  155.1150 C   0  0  0  0  0  2  0  0  0  0  0  0
  159.4260  208.1360  156.0530 N   0  0  0  0  0  2  0  0  0  0  0  0
  161.4450  207.6090  154.6970 C   0  0  2  0  0  3  0  0  0  0  0  0
  159.4180  211.7770  155.6610 C   0  0  0  0  0  2  0  0  0  0  0  0
  160.7930  209.8910  155.2270 N   0  0  1  0  0  0  0  0  0  0  0  0
  160.8170  209.2260  152.8140 C   0  0  0  0  0  1  0  0  0  0  0  0
  161.4570  209.0750  154.2020 C   0  0  2  0  0  3  0  0  0  0  0  0
  160.6480  211.2970  154.8930 C   0  0  0  0  0  2  0  0  0  0  0  0
  159.4260  209.4300  155.3840 C   0  0  2  0  0  3  0  0  0  0  0  0
  160.4540  206.5130  148.9730 C   0  0  0  0  0  2  0  0  0  0  0  0
  161.6610  207.3350  148.9110 N   0  0  0  0  0  0  0  0  0  0  0  0
  161.2840  208.7230  149.1390 C   0  0  0  0  0  2  0  0  0  0  0  0
  162.1810  209.5680  148.4850 O   0  0  0  0  0  1  0  0  0  0  0  0
  162.2420  207.2220  147.6310 N   0  0  0  0  0  2  0  0  0  0  0  0
  160.2630  204.2400  144.6880 C   0  0  0  0  0  0  0  0  0  0  0  0
  162.4690  206.0090  146.8890 C   0  0  0  0  0  0  0  0  0  0  0  0
  163.4510  205.0690  147.2070 C   0  0  0  0  0  3  0  0  0  0  0  0
  160.3670  205.6180  145.3140 C   0  0  0  0  0  2  0  0  0  0  0  0
  162.2480  204.3140  145.5180 N   0  0  0  0  0  0  0  0  0  0  0  0
  161.3330  203.5190  144.8390 N   0  0  0  0  0  0  0  0  0  0  0  0
  161.7540  205.4880  145.8340 C   0  0  0  0  0  0  0  0  0  0  0  0
  163.2500  203.9830  146.3480 C   0  0  0  0  0  3  0  0  0  0  0  0
  158.7730  202.4750  144.1320 F   0  0  0  0  0  0  0  0  0  0  0  0
  159.1410  203.7640  144.0210 O   0  0  0  0  0  0  0  0  0  0  0  0
  1  3  1  0  0  0  0
  1 10  1  0  0  0  0
  2 12  1  0  0  0  0
  2  1  2  0  0  0  0
  4  3  2  0  0  0  0
  5  6  2  0  0  0  0
  5  2  1  0  0  0  0
  6  4  1  0  0  0  0
  7 15  1  1  0  0  0
  9  6  1  0  0  0  0
 10  7  1  0  0  0  0
 10  8  1  6  0  0  0
 11 14  1  6  0  0  0
 11 10  1  0  0  0  0
 11  7  1  0  0  0  0
 12 26  1  6  0  0  0
 12 11  1  0  0  0  0
 14 13  1  0  0  0  0
 17 18  1  0  0  0  0
 19 15  1  6  0  0  0
 19 17  1  0  0  0  0
 20 16  1  0  0  0  0
 21 24  1  6  0  0  0
 21 25  1  0  0  0  0
 23 22  1  6  0  0  0
 23 19  1  0  0  0  0
 23 21  1  0  0  0  0
 24 20  1  0  0  0  0
 25 18  1  0  0  0  0
 25 16  1  1  0  0  0
 27 26  1  0  0  0  0
 27 28  1  0  0  0  0
 29 28  1  0  0  0  0
 30 27  1  0  0  0  0
 31 36  2  0  0  0  0
 31 34  1  0  0  0  0
 32 33  1  0  0  0  0
 32 30  1  0  0  0  0
 34 37  1  0  0  0  0
 35 37  1  0  0  0  0
 35 38  1  0  0  0  0
 36 35  1  0  0  0  0
 37 32  2  0  0  0  0
 38 33  2  0  0  0  0
 40 39  1  0  0  0  0
 40 31  1  0  0  0  0
M  END
>  <MODEL>
4

>  <REMARK>
 VINA RESULT:      -4.7      4.035      6.480
  Name = 
  9 active torsions:
  status: ('A' for Active; 'I' for Inactive)
    1  A    between atoms: C_4  and  O_33
    2  A    between atoms: C_9  and  N_21
    3  A    between atoms: C_11  and  C_32
    4  A    between atoms: C_12  and  N_19
    5  A    between atoms: C_15  and  C_37
    6  A    between atoms: N_19  and  N_21
    7  A    between atoms: N_19  and  C_35
    8  A    between atoms: C_23  and  C_32
    9  A    between atoms: C_35  and  C_38
                            x       y       z     vdW  Elec       q    Type
                         _______ _______ _______ _____ _____    ______ ____

>  <TORSDO>
F 9

$$$$
=
 OpenBabel11052411463D

 40 46  0  0  1  0  0  0  0  0999 V2000
  161.0570  203.3980  151.1420 C   0  0  0  0  0  0  0  0  0  0  0  0
  161.0670  203.7900  149.8180 C   0  0  0  0  0  0  0  0  0  0  0  0
  161.1530  202.0430  151.4710 C   0  0  0  0  0  3  0  0  0  0  0  0
  161.2920  201.0980  150.4420 C   0  0  0  0  0  3  0  0  0  0  0  0
  161.1630  202.8670  148.7750 C   0  0  0  0  0  3  0  0  0  0  0  0
  161.2910  201.5090  149.0970 C   0  0  0  0  0  0  0  0  0  0  0  0
  160.5640  206.0490  152.2330 C   0  0  2  0  0  3  0  0  0  0  0  0
  159.2720  204.3250  152.0660 O   0  0  0  0  0  1  0  0  0  0  0  0
  161.4480  200.3240  147.8200 Cl  0  0  0  0  0  0  0  0  0  0  0  0
  160.6610  204.4940  152.1070 C   0  0  2  0  0  0  0  0  0  0  0  0
  161.4290  205.5720  151.1950 C   0  0  1  0  0  0  0  0  0  0  0  0
  160.9570  205.2550  149.7650 C   0  0  1  0  0  3  0  0  0  0  0  0
  163.5890  206.8550  150.9170 C   0  0  0  0  0  1  0  0  0  0  0  0
  162.9520  205.5930  151.4730 C   0  0  0  0  0  2  0  0  0  0  0  0
  161.2360  206.4800  153.5360 C   0  0  0  0  0  2  0  0  0  0  0  0
  161.0380  211.5870  155.9830 C   0  0  0  0  0  2  0  0  0  0  0  0
  161.9570  208.8940  153.5700 C   0  0  0  0  0  2  0  0  0  0  0  0
  161.5980  210.2640  153.9580 N   0  0  0  0  0  2  0  0  0  0  0  0
  160.8260  207.9000  153.9000 C   0  0  2  0  0  3  0  0  0  0  0  0
  160.1380  211.2580  157.1660 C   0  0  0  0  0  2  0  0  0  0  0  0
  160.0890  209.4680  155.6060 N   0  0  1  0  0  0  0  0  0  0  0  0
  161.3960  207.4710  156.3590 C   0  0  0  0  0  1  0  0  0  0  0  0
  160.3690  208.0460  155.3710 C   0  0  2  0  0  3  0  0  0  0  0  0
  159.7140  209.8030  156.9690 C   0  0  0  0  0  2  0  0  0  0  0  0
  161.3020  210.2320  155.3840 C   0  0  2  0  0  3  0  0  0  0  0  0
  161.7100  205.9460  148.6140 C   0  0  0  0  0  2  0  0  0  0  0  0
  161.0630  207.1650  148.1340 N   0  0  0  0  0  0  0  0  0  0  0  0
  160.6550  206.9550  146.7510 C   0  0  0  0  0  2  0  0  0  0  0  0
  161.5300  206.0610  146.1330 O   0  0  0  0  0  1  0  0  0  0  0  0
  161.9800  208.2360  148.1840 N   0  0  0  0  0  2  0  0  0  0  0  0
  161.6840  212.8360  147.7140 C   0  0  0  0  0  0  0  0  0  0  0  0
  161.8330  209.4650  148.9200 C   0  0  0  0  0  0  0  0  0  0  0  0
  162.1350  209.6070  150.2750 C   0  0  0  0  0  3  0  0  0  0  0  0
  161.5360  211.4310  147.1590 C   0  0  0  0  0  2  0  0  0  0  0  0
  161.5640  211.5740  149.4530 N   0  0  0  0  0  0  0  0  0  0  0  0
  161.7190  212.8810  149.0110 N   0  0  0  0  0  0  0  0  0  0  0  0
  161.4860  210.7160  148.4620 C   0  0  0  0  0  0  0  0  0  0  0  0
  162.0010  210.9680  150.5690 C   0  0  0  0  0  3  0  0  0  0  0  0
  161.7220  213.9010  145.5910 F   0  0  0  0  0  0  0  0  0  0  0  0
  161.7850  213.9800  146.9320 O   0  0  0  0  0  0  0  0  0  0  0  0
  1  3  1  0  0  0  0
  1 10  1  0  0  0  0
  2  1  2  0  0  0  0
  4  3  2  0  0  0  0
  5  6  2  0  0  0  0
  5  2  1  0  0  0  0
  6  4  1  0  0  0  0
  7 15  1  1  0  0  0
  9  6  1  0  0  0  0
 10  8  1  6  0  0  0
 10  7  1  0  0  0  0
 11 14  1  1  0  0  0
 11 10  1  0  0  0  0
 11  7  1  0  0  0  0
 12 26  1  6  0  0  0
 12  2  1  0  0  0  0
 12 11  1  0  0  0  0
 13 14  1  0  0  0  0
 16 20  1  0  0  0  0
 17 19  1  0  0  0  0
 17 18  1  0  0  0  0
 18 25  1  0  0  0  0
 19 15  1  1  0  0  0
 19 23  1  0  0  0  0
 21 24  1  1  0  0  0
 23 21  1  0  0  0  0
 23 22  1  1  0  0  0
 24 20  1  0  0  0  0
 25 21  1  0  0  0  0
 25 16  1  6  0  0  0
 27 30  1  0  0  0  0
 27 26  1  0  0  0  0
 28 27  1  0  0  0  0
 29 28  1  0  0  0  0
 30 32  1  0  0  0  0
 31 36  2  0  0  0  0
 32 33  1  0  0  0  0
 33 38  2  0  0  0  0
 34 31  1  0  0  0  0
 34 37  1  0  0  0  0
 35 38  1  0  0  0  0
 36 35  1  0  0  0  0
 37 32  2  0  0  0  0
 37 35  1  0  0  0  0
 39 40  1  0  0  0  0
 40 31  1  0  0  0  0
M  END
>  <MODEL>
5

>  <REMARK>
 VINA RESULT:      -4.6      3.816      7.901
  Name = 
  9 active torsions:
  status: ('A' for Active; 'I' for Inactive)
    1  A    between atoms: C_4  and  O_33
    2  A    between atoms: C_9  and  N_21
    3  A    between atoms: C_11  and  C_32
    4  A    between atoms: C_12  and  N_19
    5  A    between atoms: C_15  and  C_37
    6  A    between atoms: N_19  and  N_21
    7  A    between atoms: N_19  and  C_35
    8  A    between atoms: C_23  and  C_32
    9  A    between atoms: C_35  and  C_38
                            x       y       z     vdW  Elec       q    Type
                         _______ _______ _______ _____ _____    ______ ____

>  <TORSDO>
F 9

$$$$
=
 OpenBabel11052411463D

 40 46  0  0  1  0  0  0  0  0999 V2000
  161.4820  205.3390  151.1190 C   0  0  0  0  0  0  0  0  0  0  0  0
  160.7920  204.9610  149.9850 C   0  0  0  0  0  0  0  0  0  0  0  0
  161.9160  204.3700  152.0290 C   0  0  0  0  0  3  0  0  0  0  0  0
  161.6680  203.0160  151.7540 C   0  0  0  0  0  3  0  0  0  0  0  0
  160.4980  203.6240  149.7090 C   0  0  0  0  0  3  0  0  0  0  0  0
  160.9560  202.6450  150.6000 C   0  0  0  0  0  0  0  0  0  0  0  0
  161.2140  208.2030  150.6910 C   0  0  2  0  0  3  0  0  0  0  0  0
  160.2610  206.8910  152.1190 O   0  0  0  0  0  1  0  0  0  0  0  0
  160.6380  200.9560  150.2730 Cl  0  0  0  0  0  0  0  0  0  0  0  0
  161.4560  206.8270  151.3920 C   0  0  2  0  0  0  0  0  0  0  0  0
  161.5230  207.1150  149.8120 C   0  0  1  0  0  0  0  0  0  0  0  0
  160.4650  206.1700  149.2150 C   0  0  1  0  0  3  0  0  0  0  0  0
  163.2250  208.1220  148.2380 C   0  0  0  0  0  1  0  0  0  0  0  0
  162.9680  207.0320  149.2640 C   0  0  0  0  0  2  0  0  0  0  0  0
  162.3660  209.1430  151.0430 C   0  0  0  0  0  2  0  0  0  0  0  0
  159.3530  213.8830  150.2880 C   0  0  0  0  0  2  0  0  0  0  0  0
  160.4460  210.6210  151.7330 C   0  0  0  0  0  2  0  0  0  0  0  0
  159.9310  211.9960  151.7940 N   0  0  0  0  0  2  0  0  0  0  0  0
  161.8690  210.5780  151.1420 C   0  0  2  0  0  3  0  0  0  0  0  0
  160.0910  214.4530  149.0840 C   0  0  0  0  0  2  0  0  0  0  0  0
  161.3520  212.6730  150.0200 N   0  0  1  0  0  0  0  0  0  0  0  0
  161.2550  210.5760  148.6570 C   0  0  0  0  0  1  0  0  0  0  0  0
  161.9370  211.3440  149.7990 C   0  0  2  0  0  3  0  0  0  0  0  0
  161.2670  213.5100  148.8360 C   0  0  0  0  0  2  0  0  0  0  0  0
  159.9700  212.5190  150.4350 C   0  0  2  0  0  3  0  0  0  0  0  0
  160.4580  206.0120  147.6830 C   0  0  0  0  0  2  0  0  0  0  0  0
  161.7260  205.5350  147.1330 N   0  0  0  0  0  0  0  0  0  0  0  0
  161.8920  206.1030  145.8020 C   0  0  0  0  0  2  0  0  0  0  0  0
  162.9970  205.5230  145.1780 O   0  0  0  0  0  1  0  0  0  0  0  0
  161.6960  204.1290  147.0310 N   0  0  0  0  0  2  0  0  0  0  0  0
  160.8410  199.7940  145.6340 C   0  0  0  0  0  0  0  0  0  0  0  0
  160.9170  203.3460  146.1080 C   0  0  0  0  0  0  0  0  0  0  0  0
  160.3460  203.8520  144.9390 C   0  0  0  0  0  3  0  0  0  0  0  0
  161.3160  200.7840  146.6830 C   0  0  0  0  0  2  0  0  0  0  0  0
  159.9860  201.6770  145.0340 N   0  0  0  0  0  0  0  0  0  0  0  0
  160.1110  200.3330  144.7050 N   0  0  0  0  0  0  0  0  0  0  0  0
  160.6620  201.9920  146.1140 C   0  0  0  0  0  0  0  0  0  0  0  0
  159.8060  202.7560  144.2570 C   0  0  0  0  0  3  0  0  0  0  0  0
  161.5210  197.8190  144.5040 F   0  0  0  0  0  0  0  0  0  0  0  0
  161.1500  198.4400  145.6380 O   0  0  0  0  0  0  0  0  0  0  0  0
  1 10  1  0  0  0  0
  1  3  1  0  0  0  0
  2  1  2  0  0  0  0
  4  3  2  0  0  0  0
  5  2  1  0  0  0  0
  5  6  2  0  0  0  0
  6  4  1  0  0  0  0
  7 15  1  1  0  0  0
  7 10  1  0  0  0  0
  9  6  1  0  0  0  0
 10  8  1  6  0  0  0
 11 14  1  6  0  0  0
 11  7  1  0  0  0  0
 11 10  1  0  0  0  0
 12 26  1  6  0  0  0
 12 11  1  0  0  0  0
 12  2  1  0  0  0  0
 13 14  1  0  0  0  0
 17 18  1  0  0  0  0
 19 15  1  6  0  0  0
 19 17  1  0  0  0  0
 20 16  1  0  0  0  0
 21 24  1  6  0  0  0
 21 25  1  0  0  0  0
 23 22  1  6  0  0  0
 23 21  1  0  0  0  0
 23 19  1  0  0  0  0
 24 20  1  0  0  0  0
 25 16  1  1  0  0  0
 25 18  1  0  0  0  0
 27 26  1  0  0  0  0
 28 27  1  0  0  0  0
 29 28  1  0  0  0  0
 30 27  1  0  0  0  0
 31 40  1  0  0  0  0
 31 34  1  0  0  0  0
 32 37  2  0  0  0  0
 32 30  1  0  0  0  0
 33 32  1  0  0  0  0
 35 37  1  0  0  0  0
 36 35  1  0  0  0  0
 36 31  2  0  0  0  0
 37 34  1  0  0  0  0
 38 33  2  0  0  0  0
 38 35  1  0  0  0  0
 39 40  1  0  0  0  0
M  END
>  <MODEL>
6

>  <REMARK>
 VINA RESULT:      -4.0      3.024      4.886
  Name = 
  9 active torsions:
  status: ('A' for Active; 'I' for Inactive)
    1  A    between atoms: C_4  and  O_33
    2  A    between atoms: C_9  and  N_21
    3  A    between atoms: C_11  and  C_32
    4  A    between atoms: C_12  and  N_19
    5  A    between atoms: C_15  and  C_37
    6  A    between atoms: N_19  and  N_21
    7  A    between atoms: N_19  and  C_35
    8  A    between atoms: C_23  and  C_32
    9  A    between atoms: C_35  and  C_38
                            x       y       z     vdW  Elec       q    Type
                         _______ _______ _______ _____ _____    ______ ____

>  <TORSDO>
F 9

$$$$
=
 OpenBabel11052411463D

 40 46  0  0  1  0  0  0  0  0999 V2000
  160.9410  206.8400  153.1620 C   0  0  0  0  0  0  0  0  0  0  0  0
  161.8130  207.8180  152.7300 C   0  0  0  0  0  0  0  0  0  0  0  0
  160.1600  207.0530  154.3010 C   0  0  0  0  0  3  0  0  0  0  0  0
  160.2530  208.2820  154.9730 C   0  0  0  0  0  3  0  0  0  0  0  0
  161.9530  209.0340  153.4030 C   0  0  0  0  0  3  0  0  0  0  0  0
  161.1520  209.2670  154.5280 C   0  0  0  0  0  0  0  0  0  0  0  0
  161.7430  204.8420  151.2060 C   0  0  2  0  0  3  0  0  0  0  0  0
  162.1160  204.9710  153.3300 O   0  0  0  0  0  1  0  0  0  0  0  0
  161.2730  210.7900  155.3800 Cl  0  0  0  0  0  0  0  0  0  0  0  0
  161.1320  205.5000  152.4860 C   0  0  2  0  0  0  0  0  0  0  0  0
  161.4860  206.2470  151.1080 C   0  0  1  0  0  0  0  0  0  0  0  0
  162.4960  207.3330  151.5220 C   0  0  1  0  0  3  0  0  0  0  0  0
  160.4130  206.5450  148.8400 C   0  0  0  0  0  1  0  0  0  0  0  0
  160.2160  206.6870  150.3390 C   0  0  0  0  0  2  0  0  0  0  0  0
  160.7000  203.9130  150.5850 C   0  0  0  0  0  2  0  0  0  0  0  0
  161.1170  201.0560  145.7100 C   0  0  0  0  0  2  0  0  0  0  0  0
  160.7290  203.9230  148.0670 C   0  0  0  0  0  2  0  0  0  0  0  0
  161.2240  203.2570  146.8540 N   0  0  0  0  0  2  0  0  0  0  0  0
  161.2610  203.2400  149.3420 C   0  0  2  0  0  3  0  0  0  0  0  0
  161.2400  199.6430  146.2630 C   0  0  0  0  0  2  0  0  0  0  0  0
  161.5200  201.2140  148.0220 N   0  0  1  0  0  0  0  0  0  0  0  0
  159.5270  201.3660  149.5290 C   0  0  0  0  0  1  0  0  0  0  0  0
  161.0060  201.7140  149.3040 C   0  0  2  0  0  3  0  0  0  0  0  0
  161.2960  199.7980  147.7820 C   0  0  0  0  0  2  0  0  0  0  0  0
  160.8050  201.8640  146.9400 C   0  0  2  0  0  3  0  0  0  0  0  0
  162.8410  208.4010  150.4670 C   0  0  0  0  0  2  0  0  0  0  0  0
  161.7370  209.3120  150.1680 N   0  0  0  0  0  0  0  0  0  0  0  0
  161.6600  209.4810  148.7220 C   0  0  0  0  0  2  0  0  0  0  0  0
  162.6540  208.7190  148.1070 O   0  0  0  0  0  1  0  0  0  0  0  0
  161.9870  210.5660  150.7630 N   0  0  0  0  0  2  0  0  0  0  0  0
  158.3130  212.8480  152.4240 C   0  0  0  0  0  0  0  0  0  0  0  0
  161.2080  211.7660  150.6100 C   0  0  0  0  0  0  0  0  0  0  0  0
  161.1870  212.5430  149.4500 C   0  0  0  0  0  3  0  0  0  0  0  0
  159.4320  211.8350  152.5830 C   0  0  0  0  0  2  0  0  0  0  0  0
  159.7400  213.3680  150.8980 N   0  0  0  0  0  0  0  0  0  0  0  0
  158.5060  213.6860  151.4500 N   0  0  0  0  0  0  0  0  0  0  0  0
  160.2910  212.3240  151.4730 C   0  0  0  0  0  0  0  0  0  0  0  0
  160.2080  213.5230  149.6500 C   0  0  0  0  0  3  0  0  0  0  0  0
  156.9650  211.9560  154.1640 F   0  0  0  0  0  0  0  0  0  0  0  0
  157.1760  212.8920  153.2210 O   0  0  0  0  0  0  0  0  0  0  0  0
  1  3  1  0  0  0  0
  2  1  2  0  0  0  0
  2  5  1  0  0  0  0
  3  4  2  0  0  0  0
  5  6  2  0  0  0  0
  6  4  1  0  0  0  0
  6  9  1  0  0  0  0
  7 15  1  6  0  0  0
  7 10  1  0  0  0  0
 10  1  1  0  0  0  0
 10  8  1  1  0  0  0
 11 14  1  6  0  0  0
 11  7  1  0  0  0  0
 11 12  1  0  0  0  0
 11 10  1  0  0  0  0
 12 26  1  6  0  0  0
 12  2  1  0  0  0  0
 13 14  1  0  0  0  0
 16 20  1  0  0  0  0
 17 19  1  0  0  0  0
 18 25  1  0  0  0  0
 18 17  1  0  0  0  0
 19 15  1  1  0  0  0
 20 24  1  0  0  0  0
 21 24  1  1  0  0  0
 21 23  1  0  0  0  0
 23 19  1  0  0  0  0
 23 22  1  6  0  0  0
 25 16  1  6  0  0  0
 25 21  1  0  0  0  0
 27 26  1  0  0  0  0
 27 30  1  0  0  0  0
 28 27  1  0  0  0  0
 29 28  1  0  0  0  0
 31 34  1  0  0  0  0
 31 40  1  0  0  0  0
 32 30  1  0  0  0  0
 32 37  2  0  0  0  0
 33 38  2  0  0  0  0
 33 32  1  0  0  0  0
 35 36  1  0  0  0  0
 35 37  1  0  0  0  0
 36 31  2  0  0  0  0
 37 34  1  0  0  0  0
 38 35  1  0  0  0  0
 40 39  1  0  0  0  0
M  END
>  <MODEL>
7

>  <REMARK>
 VINA RESULT:      -3.8      3.072      8.582
  Name = 
  9 active torsions:
  status: ('A' for Active; 'I' for Inactive)
    1  A    between atoms: C_4  and  O_33
    2  A    between atoms: C_9  and  N_21
    3  A    between atoms: C_11  and  C_32
    4  A    between atoms: C_12  and  N_19
    5  A    between atoms: C_15  and  C_37
    6  A    between atoms: N_19  and  N_21
    7  A    between atoms: N_19  and  C_35
    8  A    between atoms: C_23  and  C_32
    9  A    between atoms: C_35  and  C_38
                            x       y       z     vdW  Elec       q    Type
                         _______ _______ _______ _____ _____    ______ ____

>  <TORSDO>
F 9

$$$$
=
 OpenBabel11052411463D

 40 46  0  0  1  0  0  0  0  0999 V2000
  161.1910  207.1720  153.1010 C   0  0  0  0  0  0  0  0  0  0  0  0
  160.8830  206.8470  151.7950 C   0  0  0  0  0  0  0  0  0  0  0  0
  161.6120  206.1770  153.9890 C   0  0  0  0  0  3  0  0  0  0  0  0
  161.7470  204.8600  153.5230 C   0  0  0  0  0  3  0  0  0  0  0  0
  160.9710  205.5380  151.3180 C   0  0  0  0  0  3  0  0  0  0  0  0
  161.4220  204.5400  152.1930 C   0  0  0  0  0  0  0  0  0  0  0  0
  160.3870  209.9610  152.9110 C   0  0  2  0  0  3  0  0  0  0  0  0
  159.4550  208.2840  153.9050 O   0  0  0  0  0  1  0  0  0  0  0  0
  161.5780  202.8930  151.6260 Cl  0  0  0  0  0  0  0  0  0  0  0  0
  160.7670  208.5660  153.5070 C   0  0  2  0  0  0  0  0  0  0  0  0
  161.1270  209.1030  152.0360 C   0  0  1  0  0  0  0  0  0  0  0  0
  160.4770  208.0740  151.0940 C   0  0  1  0  0  3  0  0  0  0  0  0
  162.8820  210.4590  150.8240 C   0  0  0  0  0  1  0  0  0  0  0  0
  162.6400  209.3870  151.8730 C   0  0  0  0  0  2  0  0  0  0  0  0
  161.1840  211.0410  153.6420 C   0  0  0  0  0  2  0  0  0  0  0  0
  156.5440  213.3240  155.9580 C   0  0  0  0  0  2  0  0  0  0  0  0
  159.4460  211.0320  155.4650 C   0  0  0  0  0  2  0  0  0  0  0  0
  158.5130  211.8430  156.2590 N   0  0  0  0  0  2  0  0  0  0  0  0
  160.2580  211.9040  154.4870 C   0  0  2  0  0  3  0  0  0  0  0  0
  156.2750  214.4220  154.9370 C   0  0  0  0  0  2  0  0  0  0  0  0
  158.4400  213.5150  154.5790 N   0  0  1  0  0  0  0  0  0  0  0  0
  158.5610  212.0210  152.5750 C   0  0  0  0  0  1  0  0  0  0  0  0
  159.3280  212.8100  153.6460 C   0  0  2  0  0  3  0  0  0  0  0  0
  157.4410  214.3640  153.9520 C   0  0  0  0  0  2  0  0  0  0  0  0
  157.6540  212.5400  155.3120 C   0  0  2  0  0  3  0  0  0  0  0  0
  160.8580  208.1560  149.6040 C   0  0  0  0  0  2  0  0  0  0  0  0
  161.4260  206.9190  149.0710 N   0  0  0  0  0  0  0  0  0  0  0  0
  162.8340  207.1500  148.7760 C   0  0  0  0  0  2  0  0  0  0  0  0
  162.9820  208.3690  148.1130 O   0  0  0  0  0  1  0  0  0  0  0  0
  160.7590  206.5690  147.8790 N   0  0  0  0  0  2  0  0  0  0  0  0
  161.1430  201.9540  147.7110 C   0  0  0  0  0  0  0  0  0  0  0  0
  161.0700  205.4670  147.0060 C   0  0  0  0  0  0  0  0  0  0  0  0
  161.8030  205.5880  145.8250 C   0  0  0  0  0  3  0  0  0  0  0  0
  160.5840  203.2200  148.3350 C   0  0  0  0  0  2  0  0  0  0  0  0
  161.3570  203.4560  146.1830 N   0  0  0  0  0  0  0  0  0  0  0  0
  161.5920  202.1260  146.5040 N   0  0  0  0  0  0  0  0  0  0  0  0
  160.8210  204.1240  147.1790 C   0  0  0  0  0  0  0  0  0  0  0  0
  162.0100  204.2860  145.3540 C   0  0  0  0  0  3  0  0  0  0  0  0
  161.5810  200.6300  149.6330 F   0  0  0  0  0  0  0  0  0  0  0  0
  161.1920  200.7210  148.3490 O   0  0  0  0  0  0  0  0  0  0  0  0
  1 10  1  0  0  0  0
  1  3  1  0  0  0  0
  2  1  2  0  0  0  0
  4  3  2  0  0  0  0
  5  2  1  0  0  0  0
  5  6  2  0  0  0  0
  6  4  1  0  0  0  0
  7 10  1  0  0  0  0
  7 15  1  1  0  0  0
  9  6  1  0  0  0  0
 10  8  1  6  0  0  0
 11 14  1  6  0  0  0
 11  7  1  0  0  0  0
 11 10  1  0  0  0  0
 12 26  1  6  0  0  0
 12  2  1  0  0  0  0
 12 11  1  0  0  0  0
 13 14  1  0  0  0  0
 17 18  1  0  0  0  0
 19 15  1  6  0  0  0
 19 17  1  0  0  0  0
 20 16  1  0  0  0  0
 21 24  1  6  0  0  0
 21 25  1  0  0  0  0
 23 22  1  6  0  0  0
 23 19  1  0  0  0  0
 23 21  1  0  0  0  0
 24 20  1  0  0  0  0
 25 16  1  1  0  0  0
 25 18  1  0  0  0  0
 27 26  1  0  0  0  0
 28 27  1  0  0  0  0
 29 28  1  0  0  0  0
 30 27  1  0  0  0  0
 31 34  1  0  0  0  0
 31 40  1  0  0  0  0
 32 37  2  0  0  0  0
 32 30  1  0  0  0  0
 33 32  1  0  0  0  0
 35 36  1  0  0  0  0
 35 37  1  0  0  0  0
 36 31  2  0  0  0  0
 37 34  1  0  0  0  0
 38 33  2  0  0  0  0
 38 35  1  0  0  0  0
 40 39  1  0  0  0  0
M  END
>  <MODEL>
8

>  <REMARK>
 VINA RESULT:      -3.7      3.130      4.428
  Name = 
  9 active torsions:
  status: ('A' for Active; 'I' for Inactive)
    1  A    between atoms: C_4  and  O_33
    2  A    between atoms: C_9  and  N_21
    3  A    between atoms: C_11  and  C_32
    4  A    between atoms: C_12  and  N_19
    5  A    between atoms: C_15  and  C_37
    6  A    between atoms: N_19  and  N_21
    7  A    between atoms: N_19  and  C_35
    8  A    between atoms: C_23  and  C_32
    9  A    between atoms: C_35  and  C_38
                            x       y       z     vdW  Elec       q    Type
                         _______ _______ _______ _____ _____    ______ ____

>  <TORSDO>
F 9

$$$$
=
 OpenBabel11052411463D

 40 46  0  0  1  0  0  0  0  0999 V2000
  161.6090  207.8710  149.6520 C   0  0  0  0  0  0  0  0  0  0  0  0
  161.4830  208.7310  150.7240 C   0  0  0  0  0  0  0  0  0  0  0  0
  161.9440  208.3700  148.3900 C   0  0  0  0  0  3  0  0  0  0  0  0
  162.1790  209.7460  148.2410 C   0  0  0  0  0  3  0  0  0  0  0  0
  161.6720  210.1080  150.5940 C   0  0  0  0  0  3  0  0  0  0  0  0
  162.0370  210.6130  149.3390 C   0  0  0  0  0  0  0  0  0  0  0  0
  160.7500  205.4860  151.0790 C   0  0  2  0  0  3  0  0  0  0  0  0
  159.7500  206.6720  149.5750 O   0  0  0  0  0  1  0  0  0  0  0  0
  162.3170  212.3290  149.1410 Cl  0  0  0  0  0  0  0  0  0  0  0  0
  161.0930  206.4730  149.9160 C   0  0  2  0  0  0  0  0  0  0  0  0
  161.6230  206.5660  151.4310 C   0  0  1  0  0  0  0  0  0  0  0  0
  161.1320  207.9420  151.9140 C   0  0  1  0  0  3  0  0  0  0  0  0
  163.4200  205.3670  152.7420 C   0  0  0  0  0  1  0  0  0  0  0  0
  163.1350  206.2510  151.5400 C   0  0  0  0  0  2  0  0  0  0  0  0
  161.4110  204.1400  150.7930 C   0  0  0  0  0  2  0  0  0  0  0  0
  160.3730  201.0250  146.1750 C   0  0  0  0  0  2  0  0  0  0  0  0
  160.8790  201.9020  149.7660 C   0  0  0  0  0  2  0  0  0  0  0  0
  160.2360  201.2000  148.6470 N   0  0  0  0  0  2  0  0  0  0  0  0
  160.6980  203.4290  149.6520 C   0  0  2  0  0  3  0  0  0  0  0  0
  160.5330  202.1030  145.1110 C   0  0  0  0  0  2  0  0  0  0  0  0
  160.4250  203.1120  147.2570 N   0  0  1  0  0  0  0  0  0  0  0  0
  162.6450  203.9330  148.0700 C   0  0  0  0  0  1  0  0  0  0  0  0
  161.1210  203.9370  148.2540 C   0  0  2  0  0  3  0  0  0  0  0  0
  160.7640  203.4050  145.8740 C   0  0  0  0  0  2  0  0  0  0  0  0
  160.8270  201.7280  147.4250 C   0  0  2  0  0  3  0  0  0  0  0  0
  161.6980  208.4530  153.2520 C   0  0  0  0  0  2  0  0  0  0  0  0
  160.7120  208.5040  154.3290 N   0  0  0  0  0  0  0  0  0  0  0  0
  160.2200  207.1530  154.5670 C   0  0  0  0  0  2  0  0  0  0  0  0
  161.0650  206.4960  155.4610 O   0  0  0  0  0  1  0  0  0  0  0  0
  159.6320  209.3240  153.9400 N   0  0  0  0  0  2  0  0  0  0  0  0
  158.8360  213.4460  151.9800 C   0  0  0  0  0  0  0  0  0  0  0  0
  159.4630  210.7250  154.2250 C   0  0  0  0  0  0  0  0  0  0  0  0
  159.9220  211.3480  155.3870 C   0  0  0  0  0  3  0  0  0  0  0  0
  158.7540  211.9300  151.9680 C   0  0  0  0  0  2  0  0  0  0  0  0
  159.0630  212.8720  154.0420 N   0  0  0  0  0  0  0  0  0  0  0  0
  159.0320  213.9460  153.1620 N   0  0  0  0  0  0  0  0  0  0  0  0
  158.9400  211.7180  153.4270 C   0  0  0  0  0  0  0  0  0  0  0  0
  159.6960  212.7180  155.2150 C   0  0  0  0  0  3  0  0  0  0  0  0
  159.7860  214.4520  150.0490 F   0  0  0  0  0  0  0  0  0  0  0  0
  158.7240  214.2450  150.8490 O   0  0  0  0  0  0  0  0  0  0  0  0
  1 10  1  0  0  0  0
  1  2  1  0  0  0  0
  2 12  1  0  0  0  0
  3  1  2  0  0  0  0
  4  3  1  0  0  0  0
  4  6  2  0  0  0  0
  5  2  2  0  0  0  0
  6  5  1  0  0  0  0
  7 15  1  6  0  0  0
  7 11  1  0  0  0  0
  9  6  1  0  0  0  0
 10  8  1  1  0  0  0
 10  7  1  0  0  0  0
 10 11  1  0  0  0  0
 11 14  1  1  0  0  0
 11 12  1  0  0  0  0
 12 26  1  1  0  0  0
 14 13  1  0  0  0  0
 18 17  1  0  0  0  0
 19 17  1  0  0  0  0
 19 15  1  1  0  0  0
 20 24  1  0  0  0  0
 20 16  1  0  0  0  0
 21 24  1  6  0  0  0
 21 25  1  0  0  0  0
 21 23  1  0  0  0  0
 23 22  1  6  0  0  0
 23 19  1  0  0  0  0
 25 16  1  6  0  0  0
 25 18  1  0  0  0  0
 26 27  1  0  0  0  0
 27 28  1  0  0  0  0
 28 29  1  0  0  0  0
 30 32  1  0  0  0  0
 30 27  1  0  0  0  0
 31 36  2  0  0  0  0
 32 33  1  0  0  0  0
 34 31  1  0  0  0  0
 34 37  1  0  0  0  0
 35 38  1  0  0  0  0
 36 35  1  0  0  0  0
 37 35  1  0  0  0  0
 37 32  2  0  0  0  0
 38 33  2  0  0  0  0
 39 40  1  0  0  0  0
 40 31  1  0  0  0  0
M  END
>  <MODEL>
9

>  <REMARK>
 VINA RESULT:      -3.5      3.927      8.893
  Name = 
  9 active torsions:
  status: ('A' for Active; 'I' for Inactive)
    1  A    between atoms: C_4  and  O_33
    2  A    between atoms: C_9  and  N_21
    3  A    between atoms: C_11  and  C_32
    4  A    between atoms: C_12  and  N_19
    5  A    between atoms: C_15  and  C_37
    6  A    between atoms: N_19  and  N_21
    7  A    between atoms: N_19  and  C_35
    8  A    between atoms: C_23  and  C_32
    9  A    between atoms: C_35  and  C_38
                            x       y       z     vdW  Elec       q    Type
                         _______ _______ _______ _____ _____    ______ ____

>  <TORSDO>
F 9

$$$$
