=
 OpenBabel11042420083D

 30 34  0  0  1  0  0  0  0  0999 V2000
  161.8490  209.7220  149.0980 C   0  0  0  0  0  0  0  0  0  0  0  0
  162.5270  209.2090  151.4580 C   0  0  0  0  0  2  0  0  0  0  0  0
  162.0330  204.3000  146.7490 N   0  0  0  0  0  0  0  0  0  0  0  0
  162.0640  206.5320  147.5360 C   0  0  0  0  0  0  0  0  0  0  0  0
  160.7250  202.0580  149.3490 C   0  0  0  0  0  0  0  0  0  0  0  0
  162.3090  205.6160  146.5180 C   0  0  0  0  0  3  0  0  0  0  0  0
  161.8720  210.0840  150.4880 N   0  0  0  0  0  0  0  0  0  0  0  0
  162.2450  207.8670  147.4800 N   0  0  0  0  0  0  0  0  0  0  0  0
  160.4570  200.7090  149.5330 O   0  0  0  0  0  1  0  0  0  0  0  0
  161.4220  207.2630  149.5090 C   0  0  0  0  0  0  0  0  0  0  0  0
  161.8480  208.3070  148.6990 C   0  0  0  0  0  0  0  0  0  0  0  0
  161.5580  206.1260  148.7450 C   0  0  0  0  0  0  0  0  0  0  0  0
  161.8370  210.6160  148.2100 O   0  0  0  0  0  0  0  0  0  0  0  0
  161.5220  203.8620  147.9410 C   0  0  2  0  0  3  0  0  0  0  0  0
  161.2500  202.5050  148.1320 C   0  0  0  0  0  3  0  0  0  0  0  0
  161.2610  204.7820  148.9890 C   0  0  0  0  0  0  0  0  0  0  0  0
  160.7380  204.3280  150.2060 C   0  0  0  0  0  3  0  0  0  0  0  0
  160.7430  207.4080  150.8340 C   0  0  0  0  0  2  0  0  0  0  0  0
  161.6400  208.0370  151.9090 C   0  0  2  0  0  3  0  0  0  0  0  0
  161.5800  211.4510  150.8900 C   0  0  0  0  0  1  0  0  0  0  0  0
  160.4700  202.9680  150.3820 C   0  0  0  0  0  3  0  0  0  0  0  0
  161.3920  209.5250  153.7960 O   0  0  0  0  0  1  0  0  0  0  0  0
  160.8750  208.3760  153.1920 C   0  0  2  0  0  3  0  0  0  0  0  0
  160.7720  207.2070  154.1850 C   0  0  2  0  0  3  0  0  0  0  0  0
  159.7940  208.3710  156.0950 C   0  0  2  0  0  3  0  0  0  0  0  0
  160.9980  207.7080  155.6040 C   0  0  1  0  0  3  0  0  0  0  0  0
  160.1520  209.2940  157.1560 N   0  0  0  0  0  1  0  0  0  0  0  0
  160.0970  206.9990  156.5250 N   0  0  0  0  0  2  0  0  0  0  0  0
  161.7510  206.0860  153.8540 C   0  0  0  0  0  2  0  0  0  0  0  0
  161.0580  204.9490  153.4370 O   0  0  0  0  0  1  0  0  0  0  0  0
  1  7  1  0  0  0  0
  2 19  1  0  0  0  0
  3 14  1  0  0  0  0
  4 12  1  0  0  0  0
  5  9  1  0  0  0  0
  5 21  1  0  0  0  0
  6  3  2  0  0  0  0
  6  4  1  0  0  0  0
  7 20  1  0  0  0  0
  7  2  1  0  0  0  0
  8  4  2  0  0  0  0
  8 11  1  0  0  0  0
 10 18  1  0  0  0  0
 11  1  1  0  0  0  0
 11 10  2  0  0  0  0
 12 16  2  0  0  0  0
 12 10  1  0  0  0  0
 13  1  2  0  0  0  0
 14 15  1  6  0  0  0
 14 16  1  0  0  0  0
 15  5  2  0  0  0  0
 16 17  1  0  0  0  0
 17 21  2  0  0  0  0
 18 19  1  0  0  0  0
 19 23  1  1  0  0  0
 23 22  1  1  0  0  0
 23 24  1  0  0  0  0
 24 29  1  6  0  0  0
 25 28  1  0  0  0  0
 25 27  1  1  0  0  0
 26 24  1  6  0  0  0
 26 25  1  0  0  0  0
 26 28  1  0  0  0  0
 30 29  1  0  0  0  0
M  END
>  <MODEL>
1

>  <REMARK>
 VINA RESULT:      -9.1      0.000      0.000
  Name = 
  4 active torsions:
  status: ('A' for Active; 'I' for Inactive)
    1  A    between atoms: C_11  and  C_20
    2  A    between atoms: C_17  and  C_20
    3  A    between atoms: C_20  and  C_22
    4  A    between atoms: C_22  and  C_28
                            x       y       z     vdW  Elec       q    Type
                         _______ _______ _______ _____ _____    ______ ____

>  <TORSDO>
F 4

$$$$
=
 OpenBabel11042420083D

 30 34  0  0  1  0  0  0  0  0999 V2000
  161.9000  209.8570  149.1570 C   0  0  0  0  0  0  0  0  0  0  0  0
  162.4650  209.4690  151.5700 C   0  0  0  0  0  2  0  0  0  0  0  0
  162.0820  204.3060  147.1290 N   0  0  0  0  0  0  0  0  0  0  0  0
  162.1220  206.5800  147.7890 C   0  0  0  0  0  0  0  0  0  0  0  0
  160.6200  202.2400  149.7910 C   0  0  0  0  0  0  0  0  0  0  0  0
  162.3930  205.6030  146.8370 C   0  0  0  0  0  3  0  0  0  0  0  0
  161.8700  210.2970  150.5240 N   0  0  0  0  0  0  0  0  0  0  0  0
  162.3310  207.9050  147.6660 N   0  0  0  0  0  0  0  0  0  0  0  0
  160.3180  200.9080  150.0390 O   0  0  0  0  0  1  0  0  0  0  0  0
  161.4090  207.4330  149.6870 C   0  0  0  0  0  0  0  0  0  0  0  0
  161.8900  208.4210  148.8390 C   0  0  0  0  0  0  0  0  0  0  0  0
  161.5560  206.2510  148.9950 C   0  0  0  0  0  0  0  0  0  0  0  0
  161.9440  210.6980  148.2200 O   0  0  0  0  0  0  0  0  0  0  0  0
  161.5120  203.9460  148.3210 C   0  0  2  0  0  3  0  0  0  0  0  0
  161.2060  202.6070  148.5750 C   0  0  0  0  0  3  0  0  0  0  0  0
  161.2230  204.9290  149.3020 C   0  0  0  0  0  0  0  0  0  0  0  0
  160.6390  204.5540  150.5180 C   0  0  0  0  0  3  0  0  0  0  0  0
  160.6760  207.6650  150.9710 C   0  0  0  0  0  2  0  0  0  0  0  0
  161.5370  208.3400  152.0470 C   0  0  2  0  0  3  0  0  0  0  0  0
  161.5870  211.6900  150.8350 C   0  0  0  0  0  1  0  0  0  0  0  0
  160.3380  203.2110  150.7590 C   0  0  0  0  0  3  0  0  0  0  0  0
  159.7730  209.7310  152.9350 O   0  0  0  0  0  1  0  0  0  0  0  0
  160.7240  208.7640  153.2730 C   0  0  2  0  0  3  0  0  0  0  0  0
  161.5810  209.2020  154.4710 C   0  0  2  0  0  3  0  0  0  0  0  0
  160.8310  207.3310  155.8490 C   0  0  2  0  0  3  0  0  0  0  0  0
  160.9090  208.7860  155.7720 C   0  0  1  0  0  3  0  0  0  0  0  0
  159.7570  206.9530  156.7490 N   0  0  0  0  0  1  0  0  0  0  0  0
  161.8680  208.0450  156.6060 N   0  0  0  0  0  2  0  0  0  0  0  0
  161.8480  210.7030  154.4670 C   0  0  0  0  0  2  0  0  0  0  0  0
  161.1860  211.3120  155.5340 O   0  0  0  0  0  1  0  0  0  0  0  0
  1  7  1  0  0  0  0
  2 19  1  0  0  0  0
  3 14  1  0  0  0  0
  4 12  1  0  0  0  0
  5  9  1  0  0  0  0
  5 21  1  0  0  0  0
  6  3  2  0  0  0  0
  6  4  1  0  0  0  0
  7 20  1  0  0  0  0
  7  2  1  0  0  0  0
  8  4  2  0  0  0  0
  8 11  1  0  0  0  0
 10 18  1  0  0  0  0
 11  1  1  0  0  0  0
 11 10  2  0  0  0  0
 12 16  2  0  0  0  0
 12 10  1  0  0  0  0
 13  1  2  0  0  0  0
 14 15  1  6  0  0  0
 14 16  1  0  0  0  0
 15  5  2  0  0  0  0
 16 17  1  0  0  0  0
 17 21  2  0  0  0  0
 18 19  1  0  0  0  0
 19 23  1  1  0  0  0
 23 22  1  6  0  0  0
 23 24  1  0  0  0  0
 24 29  1  1  0  0  0
 25 28  1  0  0  0  0
 25 27  1  1  0  0  0
 26 24  1  6  0  0  0
 26 25  1  0  0  0  0
 26 28  1  0  0  0  0
 29 30  1  0  0  0  0
M  END
>  <MODEL>
2

>  <REMARK>
 VINA RESULT:      -8.3      1.247      1.739
  Name = 
  4 active torsions:
  status: ('A' for Active; 'I' for Inactive)
    1  A    between atoms: C_11  and  C_20
    2  A    between atoms: C_17  and  C_20
    3  A    between atoms: C_20  and  C_22
    4  A    between atoms: C_22  and  C_28
                            x       y       z     vdW  Elec       q    Type
                         _______ _______ _______ _____ _____    ______ ____

>  <TORSDO>
F 4

$$$$
=
 OpenBabel11042420083D

 30 34  0  0  1  0  0  0  0  0999 V2000
  161.2800  206.4590  153.3820 C   0  0  0  0  0  0  0  0  0  0  0  0
  160.4390  208.5660  152.3110 C   0  0  0  0  0  2  0  0  0  0  0  0
  160.8270  202.7120  148.8320 N   0  0  0  0  0  0  0  0  0  0  0  0
  160.9170  204.0790  150.7640 C   0  0  0  0  0  0  0  0  0  0  0  0
  161.8240  204.6410  145.8690 C   0  0  0  0  0  0  0  0  0  0  0  0
  160.6610  202.8410  150.1810 C   0  0  0  0  0  2  0  0  0  0  0  0
  161.2080  207.8940  153.3560 N   0  0  0  0  0  0  0  0  0  0  0  0
  160.8370  204.3830  152.0740 N   0  0  0  0  0  0  0  0  0  0  0  0
  161.9820  204.4570  144.5020 O   0  0  0  0  0  1  0  0  0  0  0  0
  161.5030  206.1950  150.8770 C   0  0  0  0  0  0  0  0  0  0  0  0
  161.1990  205.6880  152.1330 C   0  0  0  0  0  0  0  0  0  0  0  0
  161.3260  205.1450  150.0040 C   0  0  0  0  0  0  0  0  0  0  0  0
  161.4060  205.8510  154.4790 O   0  0  0  0  0  0  0  0  0  0  0  0
  161.2390  203.7550  148.0470 C   0  0  0  0  0  0  0  0  0  0  0  0
  161.4000  203.5750  146.6700 C   0  0  0  0  0  3  0  0  0  0  0  0
  161.5090  205.0230  148.6240 C   0  0  0  0  0  0  0  0  0  0  0  0
  161.9310  206.0850  147.8150 C   0  0  0  0  0  3  0  0  0  0  0  0
  162.1170  207.5310  150.6000 C   0  0  0  0  0  2  0  0  0  0  0  0
  161.2120  208.7070  150.9900 C   0  0  2  0  0  3  0  0  0  0  0  0
  161.5770  208.6640  154.5330 C   0  0  0  0  0  1  0  0  0  0  0  0
  162.0880  205.8910  146.4400 C   0  0  0  0  0  3  0  0  0  0  0  0
  162.7070  210.2880  152.0410 O   0  0  0  0  0  1  0  0  0  0  0  0
  161.9290  210.0580  150.9020 C   0  0  2  0  0  3  0  0  0  0  0  0
  160.9960  211.2420  150.6010 C   0  0  2  0  0  3  0  0  0  0  0  0
  162.1680  211.5090  148.4760 C   0  0  2  0  0  3  0  0  0  0  0  0
  161.6830  212.2180  149.6560 C   0  0  1  0  0  3  0  0  0  0  0  0
  163.2520  212.2640  147.8730 N   0  0  0  0  0  1  0  0  0  0  0  0
  160.9290  212.2950  148.3950 N   0  0  0  0  0  2  0  0  0  0  0  0
  160.5500  211.9580  151.8720 C   0  0  0  0  0  2  0  0  0  0  0  0
  159.8700  213.1330  151.5480 O   0  0  0  0  0  1  0  0  0  0  0  0
  1 13  2  0  0  0  0
  2  7  1  0  0  0  0
  3  6  1  0  0  0  0
  4  8  2  0  0  0  0
  5 21  1  0  0  0  0
  5 15  2  0  0  0  0
  6  4  1  0  0  0  0
  7  1  1  0  0  0  0
  7 20  1  0  0  0  0
  8 11  1  0  0  0  0
  9  5  1  0  0  0  0
 10 11  2  0  0  0  0
 11  1  1  0  0  0  0
 12  4  1  0  0  0  0
 12 10  1  0  0  0  0
 14 16  1  0  0  0  0
 14  3  2  0  0  0  0
 15 14  1  0  0  0  0
 16 12  2  0  0  0  0
 17 16  1  0  0  0  0
 18 10  1  0  0  0  0
 18 19  1  0  0  0  0
 19 23  1  1  0  0  0
 19  2  1  0  0  0  0
 21 17  2  0  0  0  0
 23 22  1  1  0  0  0
 24 23  1  0  0  0  0
 24 29  1  1  0  0  0
 25 27  1  6  0  0  0
 25 26  1  0  0  0  0
 26 24  1  1  0  0  0
 28 25  1  0  0  0  0
 28 26  1  0  0  0  0
 30 29  1  0  0  0  0
M  END
>  <MODEL>
3

>  <REMARK>
 VINA RESULT:      -7.9      2.373      5.265
  Name = 
  4 active torsions:
  status: ('A' for Active; 'I' for Inactive)
    1  A    between atoms: C_11  and  C_20
    2  A    between atoms: C_17  and  C_20
    3  A    between atoms: C_20  and  C_22
    4  A    between atoms: C_22  and  C_28
                            x       y       z     vdW  Elec       q    Type
                         _______ _______ _______ _____ _____    ______ ____

>  <TORSDO>
F 4

$$$$
=
 OpenBabel11042420083D

 30 34  0  0  1  0  0  0  0  0999 V2000
  161.1060  208.9020  154.9650 C   0  0  0  0  0  0  0  0  0  0  0  0
  159.5820  210.4930  153.7650 C   0  0  0  0  0  2  0  0  0  0  0  0
  161.1670  204.4070  151.1260 N   0  0  0  0  0  0  0  0  0  0  0  0
  161.1070  206.0760  152.8040 C   0  0  0  0  0  0  0  0  0  0  0  0
  161.2080  205.9590  147.7970 C   0  0  0  0  0  0  0  0  0  0  0  0
  161.1390  204.7300  152.4520 C   0  0  0  0  0  2  0  0  0  0  0  0
  160.6310  210.2410  154.7500 N   0  0  0  0  0  0  0  0  0  0  0  0
  161.1060  206.5810  154.0530 N   0  0  0  0  0  0  0  0  0  0  0  0
  161.2420  205.5780  146.4630 O   0  0  0  0  0  1  0  0  0  0  0  0
  161.0830  208.2560  152.5190 C   0  0  0  0  0  0  0  0  0  0  0  0
  161.0910  207.9240  153.8670 C   0  0  0  0  0  0  0  0  0  0  0  0
  161.1020  207.0570  151.8450 C   0  0  0  0  0  0  0  0  0  0  0  0
  161.5320  208.5550  156.0990 O   0  0  0  0  0  0  0  0  0  0  0  0
  161.1690  205.3610  150.1440 C   0  0  0  0  0  0  0  0  0  0  0  0
  161.2030  204.9830  148.8000 C   0  0  0  0  0  3  0  0  0  0  0  0
  161.1410  206.7380  150.4850 C   0  0  0  0  0  0  0  0  0  0  0  0
  161.1440  207.7090  149.4760 C   0  0  0  0  0  3  0  0  0  0  0  0
  161.2590  209.6320  151.9590 C   0  0  0  0  0  2  0  0  0  0  0  0
  160.1150  210.5870  152.3260 C   0  0  2  0  0  3  0  0  0  0  0  0
  160.9110  211.2800  155.7290 C   0  0  0  0  0  1  0  0  0  0  0  0
  161.1790  207.3160  148.1350 C   0  0  0  0  0  3  0  0  0  0  0  0
  160.0340  212.9200  152.9500 O   0  0  0  0  0  1  0  0  0  0  0  0
  160.4070  212.0380  151.9310 C   0  0  2  0  0  3  0  0  0  0  0  0
  159.8110  212.4490  150.5750 C   0  0  2  0  0  3  0  0  0  0  0  0
  161.4700  211.8550  148.8850 C   0  0  2  0  0  3  0  0  0  0  0  0
  160.9110  212.9610  149.6570 C   0  0  1  0  0  3  0  0  0  0  0  0
  162.8120  212.1990  148.4540 N   0  0  0  0  0  1  0  0  0  0  0  0
  160.5090  212.7710  148.2550 N   0  0  0  0  0  2  0  0  0  0  0  0
  158.7130  213.4960  150.7250 C   0  0  0  0  0  2  0  0  0  0  0  0
  157.5790  213.1090  150.0110 O   0  0  0  0  0  1  0  0  0  0  0  0
  1 13  2  0  0  0  0
  2  7  1  0  0  0  0
  3  6  1  0  0  0  0
  4  8  2  0  0  0  0
  5 21  1  0  0  0  0
  5 15  2  0  0  0  0
  6  4  1  0  0  0  0
  7  1  1  0  0  0  0
  7 20  1  0  0  0  0
  9  5  1  0  0  0  0
 10 11  2  0  0  0  0
 11  8  1  0  0  0  0
 11  1  1  0  0  0  0
 12 10  1  0  0  0  0
 12  4  1  0  0  0  0
 14 16  1  0  0  0  0
 14  3  2  0  0  0  0
 15 14  1  0  0  0  0
 16 12  2  0  0  0  0
 17 16  1  0  0  0  0
 18 19  1  0  0  0  0
 18 10  1  0  0  0  0
 19 23  1  1  0  0  0
 19  2  1  0  0  0  0
 21 17  2  0  0  0  0
 23 22  1  1  0  0  0
 24 29  1  1  0  0  0
 24 23  1  0  0  0  0
 25 27  1  6  0  0  0
 25 26  1  0  0  0  0
 26 24  1  1  0  0  0
 28 25  1  0  0  0  0
 28 26  1  0  0  0  0
 30 29  1  0  0  0  0
M  END
>  <MODEL>
4

>  <REMARK>
 VINA RESULT:      -7.9      2.599      5.842
  Name = 
  4 active torsions:
  status: ('A' for Active; 'I' for Inactive)
    1  A    between atoms: C_11  and  C_20
    2  A    between atoms: C_17  and  C_20
    3  A    between atoms: C_20  and  C_22
    4  A    between atoms: C_22  and  C_28
                            x       y       z     vdW  Elec       q    Type
                         _______ _______ _______ _____ _____    ______ ____

>  <TORSDO>
F 4

$$$$
=
 OpenBabel11042420083D

 30 34  0  0  1  0  0  0  0  0999 V2000
  161.2710  206.9530  154.0390 C   0  0  0  0  0  0  0  0  0  0  0  0
  160.4160  208.8780  152.6770 C   0  0  0  0  0  2  0  0  0  0  0  0
  160.7390  202.5670  150.1100 N   0  0  0  0  0  0  0  0  0  0  0  0
  160.8620  204.2080  151.8130 C   0  0  0  0  0  0  0  0  0  0  0  0
  161.6910  204.0250  146.8760 C   0  0  0  0  0  0  0  0  0  0  0  0
  160.5950  202.8980  151.4270 C   0  0  0  0  0  2  0  0  0  0  0  0
  161.2000  208.3680  153.7980 N   0  0  0  0  0  0  0  0  0  0  0  0
  160.8040  204.7060  153.0640 N   0  0  0  0  0  0  0  0  0  0  0  0
  161.8270  203.6380  145.5500 O   0  0  0  0  0  1  0  0  0  0  0  0
  161.4520  206.3150  151.5980 C   0  0  0  0  0  0  0  0  0  0  0  0
  161.1680  206.0040  152.9200 C   0  0  0  0  0  0  0  0  0  0  0  0
  161.2600  205.1470  150.8950 C   0  0  0  0  0  0  0  0  0  0  0  0
  161.4140  206.5150  155.2120 O   0  0  0  0  0  0  0  0  0  0  0  0
  161.1400  203.4790  149.1710 C   0  0  0  0  0  0  0  0  0  0  0  0
  161.2780  203.0940  147.8350 C   0  0  0  0  0  3  0  0  0  0  0  0
  161.4210  204.8180  149.5470 C   0  0  0  0  0  0  0  0  0  0  0  0
  161.8310  205.7450  148.5810 C   0  0  0  0  0  3  0  0  0  0  0  0
  162.0640  207.5920  151.1140 C   0  0  0  0  0  2  0  0  0  0  0  0
  161.1670  208.8170  151.3370 C   0  0  2  0  0  3  0  0  0  0  0  0
  161.5890  209.3050  154.8410 C   0  0  0  0  0  1  0  0  0  0  0  0
  161.9660  205.3460  147.2490 C   0  0  0  0  0  3  0  0  0  0  0  0
  161.1960  211.2200  151.5920 O   0  0  0  0  0  1  0  0  0  0  0  0
  161.8850  210.1370  151.0370 C   0  0  2  0  0  3  0  0  0  0  0  0
  162.1880  210.3580  149.5460 C   0  0  2  0  0  3  0  0  0  0  0  0
  162.5700  212.4240  148.3030 C   0  0  2  0  0  3  0  0  0  0  0  0
  161.5880  211.6770  149.0830 C   0  0  1  0  0  3  0  0  0  0  0  0
  162.2350  213.8360  148.3340 N   0  0  0  0  0  1  0  0  0  0  0  0
  161.5000  211.6880  147.6140 N   0  0  0  0  0  2  0  0  0  0  0  0
  161.6800  209.2090  148.6810 C   0  0  0  0  0  2  0  0  0  0  0  0
  162.7490  208.5820  148.0390 O   0  0  0  0  0  1  0  0  0  0  0  0
  1 13  2  0  0  0  0
  2  7  1  0  0  0  0
  3  6  1  0  0  0  0
  4  8  2  0  0  0  0
  5 21  1  0  0  0  0
  5 15  2  0  0  0  0
  6  4  1  0  0  0  0
  7  1  1  0  0  0  0
  7 20  1  0  0  0  0
  9  5  1  0  0  0  0
 10 11  2  0  0  0  0
 11  8  1  0  0  0  0
 11  1  1  0  0  0  0
 12 10  1  0  0  0  0
 12  4  1  0  0  0  0
 14 16  1  0  0  0  0
 14  3  2  0  0  0  0
 15 14  1  0  0  0  0
 16 12  2  0  0  0  0
 17 16  1  0  0  0  0
 18 19  1  0  0  0  0
 18 10  1  0  0  0  0
 19 23  1  1  0  0  0
 19  2  1  0  0  0  0
 21 17  2  0  0  0  0
 23 22  1  6  0  0  0
 24 29  1  6  0  0  0
 24 23  1  0  0  0  0
 25 27  1  1  0  0  0
 25 26  1  0  0  0  0
 26 24  1  6  0  0  0
 28 25  1  0  0  0  0
 28 26  1  0  0  0  0
 30 29  1  0  0  0  0
M  END
>  <MODEL>
5

>  <REMARK>
 VINA RESULT:      -7.4      2.261      5.292
  Name = 
  4 active torsions:
  status: ('A' for Active; 'I' for Inactive)
    1  A    between atoms: C_11  and  C_20
    2  A    between atoms: C_17  and  C_20
    3  A    between atoms: C_20  and  C_22
    4  A    between atoms: C_22  and  C_28
                            x       y       z     vdW  Elec       q    Type
                         _______ _______ _______ _____ _____    ______ ____

>  <TORSDO>
F 4

$$$$
=
 OpenBabel11042420083D

 30 34  0  0  1  0  0  0  0  0999 V2000
  160.9590  207.9460  155.9490 C   0  0  0  0  0  0  0  0  0  0  0  0
  159.5330  209.8220  155.0880 C   0  0  0  0  0  2  0  0  0  0  0  0
  161.2160  204.5260  151.1330 N   0  0  0  0  0  0  0  0  0  0  0  0
  161.0670  205.7350  153.1630 C   0  0  0  0  0  0  0  0  0  0  0  0
  161.4910  206.8430  148.2960 C   0  0  0  0  0  0  0  0  0  0  0  0
  161.1060  204.5160  152.4940 C   0  0  0  0  0  2  0  0  0  0  0  0
  160.5130  209.3090  156.0410 N   0  0  0  0  0  0  0  0  0  0  0  0
  160.9920  205.9190  154.4960 N   0  0  0  0  0  0  0  0  0  0  0  0
  161.6060  206.8000  146.9140 O   0  0  0  0  0  1  0  0  0  0  0  0
  161.0860  207.9190  153.4220 C   0  0  0  0  0  0  0  0  0  0  0  0
  161.0040  207.2660  154.6450 C   0  0  0  0  0  0  0  0  0  0  0  0
  161.1360  206.9200  152.4760 C   0  0  0  0  0  0  0  0  0  0  0  0
  161.3070  207.3200  156.9860 O   0  0  0  0  0  0  0  0  0  0  0  0
  161.2930  205.6910  150.4180 C   0  0  0  0  0  0  0  0  0  0  0  0
  161.4090  205.6520  149.0260 C   0  0  0  0  0  3  0  0  0  0  0  0
  161.2590  206.9430  151.0840 C   0  0  0  0  0  0  0  0  0  0  0  0
  161.3380  208.1300  150.3470 C   0  0  0  0  0  3  0  0  0  0  0  0
  161.3140  209.3850  153.2290 C   0  0  0  0  0  2  0  0  0  0  0  0
  160.1590  210.2510  153.7510 C   0  0  2  0  0  3  0  0  0  0  0  0
  160.7420  210.0680  157.2610 C   0  0  0  0  0  1  0  0  0  0  0  0
  161.4550  208.0770  148.9550 C   0  0  0  0  0  3  0  0  0  0  0  0
  160.4520  212.2760  155.0360 O   0  0  0  0  0  1  0  0  0  0  0  0
  160.4930  211.7460  153.7430 C   0  0  2  0  0  3  0  0  0  0  0  0
  159.6440  212.5700  152.7620 C   0  0  2  0  0  3  0  0  0  0  0  0
  157.5720  212.8570  154.0210 C   0  0  2  0  0  3  0  0  0  0  0  0
  158.1800  212.1760  152.8810 C   0  0  1  0  0  3  0  0  0  0  0  0
  156.4110  212.1080  154.4660 N   0  0  0  0  0  1  0  0  0  0  0  0
  157.3320  213.3580  152.6600 N   0  0  0  0  0  2  0  0  0  0  0  0
  160.1210  212.4150  151.3210 C   0  0  0  0  0  2  0  0  0  0  0  0
  160.1290  213.6560  150.6820 O   0  0  0  0  0  1  0  0  0  0  0  0
  1  7  1  0  0  0  0
  1 13  2  0  0  0  0
  2  7  1  0  0  0  0
  3  6  1  0  0  0  0
  4  8  2  0  0  0  0
  5 21  1  0  0  0  0
  5 15  2  0  0  0  0
  6  4  1  0  0  0  0
  7 20  1  0  0  0  0
  8 11  1  0  0  0  0
  9  5  1  0  0  0  0
 10 11  2  0  0  0  0
 11  1  1  0  0  0  0
 12  4  1  0  0  0  0
 12 10  1  0  0  0  0
 14 16  1  0  0  0  0
 14  3  2  0  0  0  0
 15 14  1  0  0  0  0
 16 12  2  0  0  0  0
 17 16  1  0  0  0  0
 18 10  1  0  0  0  0
 18 19  1  0  0  0  0
 19 23  1  1  0  0  0
 19  2  1  0  0  0  0
 21 17  2  0  0  0  0
 23 22  1  1  0  0  0
 24 29  1  6  0  0  0
 24 23  1  0  0  0  0
 25 27  1  6  0  0  0
 26 24  1  1  0  0  0
 26 25  1  0  0  0  0
 28 26  1  0  0  0  0
 28 25  1  0  0  0  0
 30 29  1  0  0  0  0
M  END
>  <MODEL>
6

>  <REMARK>
 VINA RESULT:      -7.3      2.856      5.656
  Name = 
  4 active torsions:
  status: ('A' for Active; 'I' for Inactive)
    1  A    between atoms: C_11  and  C_20
    2  A    between atoms: C_17  and  C_20
    3  A    between atoms: C_20  and  C_22
    4  A    between atoms: C_22  and  C_28
                            x       y       z     vdW  Elec       q    Type
                         _______ _______ _______ _____ _____    ______ ____

>  <TORSDO>
F 4

$$$$
=
 OpenBabel11042420083D

 30 34  0  0  1  0  0  0  0  0999 V2000
  161.1100  206.5250  153.8650 C   0  0  0  0  0  0  0  0  0  0  0  0
  160.0810  208.6260  152.9600 C   0  0  0  0  0  2  0  0  0  0  0  0
  160.9760  203.1210  149.0330 N   0  0  0  0  0  0  0  0  0  0  0  0
  160.9510  204.3340  151.0660 C   0  0  0  0  0  0  0  0  0  0  0  0
  161.7860  205.3580  146.2340 C   0  0  0  0  0  0  0  0  0  0  0  0
  160.8040  203.1290  150.3870 C   0  0  0  0  0  2  0  0  0  0  0  0
  160.9100  207.9450  153.9510 N   0  0  0  0  0  0  0  0  0  0  0  0
  160.8490  204.5270  152.3960 N   0  0  0  0  0  0  0  0  0  0  0  0
  161.9550  205.2970  144.8580 O   0  0  0  0  0  1  0  0  0  0  0  0
  161.3460  206.4800  151.3470 C   0  0  0  0  0  0  0  0  0  0  0  0
  161.0930  205.8510  152.5590 C   0  0  0  0  0  0  0  0  0  0  0  0
  161.2600  205.4900  150.3940 C   0  0  0  0  0  0  0  0  0  0  0  0
  161.2940  205.8460  154.9110 O   0  0  0  0  0  0  0  0  0  0  0  0
  161.2900  204.2550  148.3330 C   0  0  0  0  0  0  0  0  0  0  0  0
  161.4610  204.1990  146.9480 C   0  0  0  0  0  3  0  0  0  0  0  0
  161.4490  205.4930  149.0090 C   0  0  0  0  0  0  0  0  0  0  0  0
  161.7710  206.6480  148.2880 C   0  0  0  0  0  3  0  0  0  0  0  0
  161.8380  207.8820  151.1780 C   0  0  0  0  0  2  0  0  0  0  0  0
  160.8330  208.9390  151.6560 C   0  0  2  0  0  3  0  0  0  0  0  0
  161.2140  208.6500  155.1870 C   0  0  0  0  0  1  0  0  0  0  0  0
  161.9400  206.5770  146.9020 C   0  0  0  0  0  3  0  0  0  0  0  0
  162.5710  210.4020  152.4800 O   0  0  0  0  0  1  0  0  0  0  0  0
  161.4270  210.3510  151.6770 C   0  0  2  0  0  3  0  0  0  0  0  0
  160.4180  211.4480  152.0530 C   0  0  2  0  0  3  0  0  0  0  0  0
  160.4630  212.4140  149.8120 C   0  0  2  0  0  3  0  0  0  0  0  0
  160.6780  212.6990  151.2270 C   0  0  1  0  0  3  0  0  0  0  0  0
  161.2080  213.3690  149.0110 N   0  0  0  0  0  1  0  0  0  0  0  0
  159.4300  213.1270  150.5770 N   0  0  0  0  0  2  0  0  0  0  0  0
  160.4560  211.7760  153.5420 C   0  0  0  0  0  2  0  0  0  0  0  0
  159.1760  211.6750  154.0890 O   0  0  0  0  0  1  0  0  0  0  0  0
  1  7  1  0  0  0  0
  1 13  2  0  0  0  0
  2  7  1  0  0  0  0
  3  6  1  0  0  0  0
  4  8  2  0  0  0  0
  5 21  1  0  0  0  0
  5 15  2  0  0  0  0
  6  4  1  0  0  0  0
  7 20  1  0  0  0  0
  8 11  1  0  0  0  0
  9  5  1  0  0  0  0
 10 11  2  0  0  0  0
 11  1  1  0  0  0  0
 12  4  1  0  0  0  0
 12 10  1  0  0  0  0
 14 16  1  0  0  0  0
 14  3  2  0  0  0  0
 15 14  1  0  0  0  0
 16 12  2  0  0  0  0
 17 16  1  0  0  0  0
 18 10  1  0  0  0  0
 18 19  1  0  0  0  0
 19 23  1  1  0  0  0
 19  2  1  0  0  0  0
 21 17  2  0  0  0  0
 23 24  1  0  0  0  0
 23 22  1  1  0  0  0
 24 29  1  1  0  0  0
 25 27  1  6  0  0  0
 25 28  1  0  0  0  0
 25 26  1  0  0  0  0
 26 24  1  1  0  0  0
 28 26  1  0  0  0  0
 29 30  1  0  0  0  0
M  END
>  <MODEL>
7

>  <REMARK>
 VINA RESULT:      -7.2      2.397      5.022
  Name = 
  4 active torsions:
  status: ('A' for Active; 'I' for Inactive)
    1  A    between atoms: C_11  and  C_20
    2  A    between atoms: C_17  and  C_20
    3  A    between atoms: C_20  and  C_22
    4  A    between atoms: C_22  and  C_28
                            x       y       z     vdW  Elec       q    Type
                         _______ _______ _______ _____ _____    ______ ____

>  <TORSDO>
F 4

$$$$
=
 OpenBabel11042420083D

 30 34  0  0  1  0  0  0  0  0999 V2000
  162.2240  208.0530  148.4500 C   0  0  0  0  0  0  0  0  0  0  0  0
  160.6610  206.0930  148.3670 C   0  0  0  0  0  2  0  0  0  0  0  0
  160.9150  210.2160  153.7940 N   0  0  0  0  0  0  0  0  0  0  0  0
  161.4210  209.5320  151.5850 C   0  0  0  0  0  0  0  0  0  0  0  0
  160.3880  207.2810  155.9390 C   0  0  0  0  0  0  0  0  0  0  0  0
  161.2200  210.5530  152.5070 C   0  0  0  0  0  3  0  0  0  0  0  0
  161.8680  206.7730  147.9040 N   0  0  0  0  0  0  0  0  0  0  0  0
  161.7570  209.6730  150.2880 N   0  0  0  0  0  0  0  0  0  0  0  0
  160.0790  206.9890  157.2600 O   0  0  0  0  0  1  0  0  0  0  0  0
  161.5820  207.4730  150.8270 C   0  0  0  0  0  0  0  0  0  0  0  0
  161.8530  208.4010  149.8300 C   0  0  0  0  0  0  0  0  0  0  0  0
  161.3140  208.2150  151.9560 C   0  0  0  0  0  0  0  0  0  0  0  0
  162.8500  208.8910  147.7470 O   0  0  0  0  0  0  0  0  0  0  0  0
  160.8060  208.9120  154.1980 C   0  0  0  0  0  0  0  0  0  0  0  0
  160.4950  208.6130  155.5270 C   0  0  0  0  0  3  0  0  0  0  0  0
  161.0110  207.8570  153.2720 C   0  0  0  0  0  0  0  0  0  0  0  0
  160.8990  206.5260  153.6910 C   0  0  0  0  0  2  0  0  0  0  0  0
  161.7830  205.9950  150.7220 C   0  0  0  0  0  2  0  0  0  0  0  0
  160.8660  205.3300  149.6860 C   0  0  2  0  0  3  0  0  0  0  0  0
  162.4760  206.3150  146.6640 C   0  0  0  0  0  1  0  0  0  0  0  0
  160.5890  206.2410  155.0240 C   0  0  0  0  0  3  0  0  0  0  0  0
  161.5060  203.6390  148.0830 O   0  0  0  0  0  1  0  0  0  0  0  0
  161.2260  203.8630  149.4340 C   0  0  2  0  0  3  0  0  0  0  0  0
  160.1900  202.8640  149.9740 C   0  0  2  0  0  3  0  0  0  0  0  0
  162.0410  202.6930  151.5560 C   0  0  2  0  0  3  0  0  0  0  0  0
  160.7720  202.0960  151.1520 C   0  0  1  0  0  3  0  0  0  0  0  0
  162.8370  201.7010  152.2570 N   0  0  0  0  0  1  0  0  0  0  0  0
  160.8250  202.9730  152.3330 N   0  0  0  0  0  2  0  0  0  0  0  0
  159.7070  201.8990  148.8960 C   0  0  0  0  0  2  0  0  0  0  0  0
  160.5540  200.7920  148.8290 O   0  0  0  0  0  1  0  0  0  0  0  0
  1 11  1  0  0  0  0
  2 19  1  0  0  0  0
  3 14  1  0  0  0  0
  4 12  1  0  0  0  0
  4  6  1  0  0  0  0
  5  9  1  0  0  0  0
  6  3  2  0  0  0  0
  7  2  1  0  0  0  0
  7  1  1  0  0  0  0
  8  4  2  0  0  0  0
 10 12  1  0  0  0  0
 11  8  1  0  0  0  0
 11 10  2  0  0  0  0
 12 16  2  0  0  0  0
 13  1  2  0  0  0  0
 14 15  2  0  0  0  0
 15  5  1  0  0  0  0
 16 17  1  0  0  0  0
 16 14  1  0  0  0  0
 17 21  1  0  0  0  0
 18 10  1  0  0  0  0
 19 23  1  6  0  0  0
 19 18  1  0  0  0  0
 20  7  1  0  0  0  0
 21  5  2  0  0  0  0
 23 22  1  6  0  0  0
 23 24  1  0  0  0  0
 24 29  1  6  0  0  0
 25 27  1  1  0  0  0
 25 28  1  0  0  0  0
 26 24  1  6  0  0  0
 26 25  1  0  0  0  0
 26 28  1  0  0  0  0
 30 29  1  0  0  0  0
M  END
>  <MODEL>
8

>  <REMARK>
 VINA RESULT:      -6.6      2.223      6.252
  Name = 
  4 active torsions:
  status: ('A' for Active; 'I' for Inactive)
    1  A    between atoms: C_11  and  C_20
    2  A    between atoms: C_17  and  C_20
    3  A    between atoms: C_20  and  C_22
    4  A    between atoms: C_22  and  C_28
                            x       y       z     vdW  Elec       q    Type
                         _______ _______ _______ _____ _____    ______ ____

>  <TORSDO>
F 4

$$$$
=
 OpenBabel11042420083D

 30 34  0  0  1  0  0  0  0  0999 V2000
  162.2290  208.5990  148.5400 C   0  0  0  0  0  0  0  0  0  0  0  0
  160.8540  206.5090  148.3480 C   0  0  0  0  0  2  0  0  0  0  0  0
  160.6590  210.4000  153.9470 N   0  0  0  0  0  0  0  0  0  0  0  0
  161.2540  209.8610  151.7200 C   0  0  0  0  0  0  0  0  0  0  0  0
  160.3770  207.3390  155.9580 C   0  0  0  0  0  0  0  0  0  0  0  0
  160.9480  210.8190  152.6810 C   0  0  0  0  0  3  0  0  0  0  0  0
  161.9990  207.3160  147.9340 N   0  0  0  0  0  0  0  0  0  0  0  0
  161.5920  210.0880  150.4350 N   0  0  0  0  0  0  0  0  0  0  0  0
  160.0800  206.9630  157.2610 O   0  0  0  0  0  1  0  0  0  0  0  0
  161.6130  207.8610  150.8790 C   0  0  0  0  0  0  0  0  0  0  0  0
  161.8100  208.8510  149.9260 C   0  0  0  0  0  0  0  0  0  0  0  0
  161.2630  208.5250  152.0330 C   0  0  0  0  0  0  0  0  0  0  0  0
  162.7850  209.5200  147.8830 O   0  0  0  0  0  0  0  0  0  0  0  0
  160.6650  209.0760  154.2940 C   0  0  0  0  0  0  0  0  0  0  0  0
  160.3670  208.6920  155.6040 C   0  0  0  0  0  3  0  0  0  0  0  0
  160.9790  208.0840  153.3280 C   0  0  0  0  0  0  0  0  0  0  0  0
  160.9840  206.7320  153.6890 C   0  0  0  0  0  2  0  0  0  0  0  0
  161.9510  206.4130  150.7160 C   0  0  0  0  0  2  0  0  0  0  0  0
  161.1120  205.7130  149.6370 C   0  0  2  0  0  3  0  0  0  0  0  0
  162.6630  206.9700  146.6870 C   0  0  0  0  0  1  0  0  0  0  0  0
  160.6850  206.3630  155.0040 C   0  0  0  0  0  3  0  0  0  0  0  0
  161.3850  203.9660  147.9910 O   0  0  0  0  0  1  0  0  0  0  0  0
  161.6080  204.2960  149.3310 C   0  0  2  0  0  3  0  0  0  0  0  0
  161.0590  203.2220  150.2820 C   0  0  2  0  0  3  0  0  0  0  0  0
  161.4830  201.2030  148.9770 C   0  0  2  0  0  3  0  0  0  0  0  0
  160.4370  202.0870  149.4820 C   0  0  1  0  0  3  0  0  0  0  0  0
  160.9890  200.4870  147.8150 N   0  0  0  0  0  1  0  0  0  0  0  0
  160.7010  200.8070  150.1570 N   0  0  0  0  0  2  0  0  0  0  0  0
  160.0460  203.7940  151.2690 C   0  0  0  0  0  2  0  0  0  0  0  0
  160.4640  203.5540  152.5790 O   0  0  0  0  0  1  0  0  0  0  0  0
  1 11  1  0  0  0  0
  2 19  1  0  0  0  0
  3 14  1  0  0  0  0
  4 12  1  0  0  0  0
  4  6  1  0  0  0  0
  5  9  1  0  0  0  0
  6  3  2  0  0  0  0
  7  2  1  0  0  0  0
  7  1  1  0  0  0  0
  8  4  2  0  0  0  0
 10 12  1  0  0  0  0
 11  8  1  0  0  0  0
 11 10  2  0  0  0  0
 12 16  2  0  0  0  0
 13  1  2  0  0  0  0
 14 15  2  0  0  0  0
 15  5  1  0  0  0  0
 16 17  1  0  0  0  0
 16 14  1  0  0  0  0
 17 21  1  0  0  0  0
 18 10  1  0  0  0  0
 19 23  1  6  0  0  0
 19 18  1  0  0  0  0
 20  7  1  0  0  0  0
 21  5  2  0  0  0  0
 23 22  1  6  0  0  0
 23 24  1  0  0  0  0
 24 29  1  1  0  0  0
 25 27  1  6  0  0  0
 25 26  1  0  0  0  0
 25 28  1  0  0  0  0
 26 28  1  0  0  0  0
 26 24  1  1  0  0  0
 29 30  1  0  0  0  0
M  END
>  <MODEL>
9

>  <REMARK>
 VINA RESULT:      -6.6      1.979      6.561
  Name = 
  4 active torsions:
  status: ('A' for Active; 'I' for Inactive)
    1  A    between atoms: C_11  and  C_20
    2  A    between atoms: C_17  and  C_20
    3  A    between atoms: C_20  and  C_22
    4  A    between atoms: C_22  and  C_28
                            x       y       z     vdW  Elec       q    Type
                         _______ _______ _______ _____ _____    ______ ____

>  <TORSDO>
F 4

$$$$
