=
 OpenBabel11042420213D

 30 33  0  0  1  0  0  0  0  0999 V2000
  162.4320  209.9920  150.4280 O   0  0  0  0  0  0  0  0  0  0  0  0
  161.1640  205.3970  153.1530 N   0  0  0  0  0  0  0  0  0  0  0  0
  160.8140  201.4730  150.3800 N   0  0  0  0  0  1  0  0  0  0  0  0
  160.9520  202.8810  150.5220 C   0  0  0  0  0  0  0  0  0  0  0  0
  161.1630  205.0210  149.5110 C   0  0  0  0  0  0  0  0  0  0  0  0
  161.2360  205.6410  150.7710 C   0  0  0  0  0  0  0  0  0  0  0  0
  161.0240  203.6700  149.4180 N   0  0  0  0  0  0  0  0  0  0  0  0
  160.9790  205.3480  147.1690 O   0  0  0  0  0  0  0  0  0  0  0  0
  161.4000  207.0420  150.9020 C   0  0  0  0  0  0  0  0  0  0  0  0
  161.1320  204.8340  151.9210 C   0  0  0  0  0  0  0  0  0  0  0  0
  161.2830  207.2360  148.4450 O   0  0  0  0  0  0  0  0  0  0  0  0
  161.1540  205.8560  148.3080 C   0  0  0  0  0  0  0  0  0  0  0  0
  162.4970  209.8310  151.8100 C   0  0  0  0  0  0  0  0  0  0  0  0
  161.4460  209.0650  152.5480 C   0  0  2  0  0  3  0  0  0  0  0  0
  161.2890  206.7370  153.3160 C   0  0  0  0  0  3  0  0  0  0  0  0
  160.9960  203.4510  151.7960 C   0  0  0  0  0  3  0  0  0  0  0  0
  161.4140  207.5940  152.2170 C   0  0  0  0  0  0  0  0  0  0  0  0
  161.4630  209.3060  149.6510 C   0  0  0  0  0  2  0  0  0  0  0  0
  163.4390  210.3600  152.4530 O   0  0  0  0  0  0  0  0  0  0  0  0
  161.7880  207.8240  149.6440 C   0  0  1  0  0  3  0  0  0  0  0  0
  160.0770  209.7210  152.3940 C   0  0  0  0  0  2  0  0  0  0  0  0
  160.1870  211.5270  152.5860 S   0  0  0  0  0  0  0  0  0  0  0  0
  158.7120  211.5890  153.6410 C   0  0  0  0  0  2  0  0  0  0  0  0
  159.0370  212.6520  155.0740 S   0  0  0  0  0  0  0  0  0  0  0  0
  158.0170  211.5410  157.2420 O   0  0  0  0  0  0  0  0  0  0  0  0
  158.7200  211.3190  156.2190 C   0  0  0  0  0  0  0  0  0  0  0  0
  159.2510  210.0150  155.9390 N   0  0  0  0  0  0  0  0  0  0  0  0
  160.4640  209.5940  156.1560 C   0  0  0  0  0  3  0  0  0  0  0  0
  162.5750  210.6700  155.7070 N   0  0  0  0  0  1  0  0  0  0  0  0
  161.5610  210.4390  156.7200 C   0  0  0  0  0  2  0  0  0  0  0  0
  1 13  1  0  0  0  0
  2 15  1  0  0  0  0
  3  4  1  0  0  0  0
  4 16  2  0  0  0  0
  5  6  1  0  0  0  0
  6  9  2  0  0  0  0
  6 10  1  0  0  0  0
  7  5  2  0  0  0  0
  7  4  1  0  0  0  0
  8 12  2  0  0  0  0
  9 17  1  0  0  0  0
 10  2  2  0  0  0  0
 11 20  1  0  0  0  0
 12 11  1  0  0  0  0
 12  5  1  0  0  0  0
 13 19  2  0  0  0  0
 13 14  1  0  0  0  0
 14 21  1  6  0  0  0
 16 10  1  0  0  0  0
 17 14  1  0  0  0  0
 17 15  2  0  0  0  0
 18  1  1  0  0  0  0
 20 18  1  1  0  0  0
 20  9  1  0  0  0  0
 21 22  1  0  0  0  0
 22 23  1  0  0  0  0
 23 24  1  0  0  0  0
 24 26  1  0  0  0  0
 26 25  2  0  0  0  0
 27 28  2  0  0  0  0
 27 26  1  0  0  0  0
 28 30  1  0  0  0  0
 29 30  1  0  0  0  0
M  END
>  <MODEL>
1

>  <REMARK>
 VINA RESULT:      -6.8      0.000      0.000
  Name = 
  7 active torsions:
  status: ('A' for Active; 'I' for Inactive)
    1  A    between atoms: C_1  and  S_8
    2  A    between atoms: C_1  and  S_18
    3  A    between atoms: S_8  and  C_11
    4  A    between atoms: N_9  and  C_21
    5  A    between atoms: C_11  and  C_24
    6  A    between atoms: C_16  and  C_20
    7  A    between atoms: S_18  and  C_21
                            x       y       z     vdW  Elec       q    Type
                         _______ _______ _______ _____ _____    ______ ____

>  <TORSDO>
F 7

$$$$
=
 OpenBabel11042420213D

 30 33  0  0  1  0  0  0  0  0999 V2000
  162.4420  210.0560  150.4500 O   0  0  0  0  0  0  0  0  0  0  0  0
  161.1760  205.4490  153.1550 N   0  0  0  0  0  0  0  0  0  0  0  0
  160.7740  201.5470  150.3590 N   0  0  0  0  0  1  0  0  0  0  0  0
  160.9220  202.9520  150.5090 C   0  0  0  0  0  0  0  0  0  0  0  0
  161.1350  205.0990  149.5120 C   0  0  0  0  0  0  0  0  0  0  0  0
  161.2240  205.7090  150.7750 C   0  0  0  0  0  0  0  0  0  0  0  0
  160.9880  203.7490  149.4100 N   0  0  0  0  0  0  0  0  0  0  0  0
  160.9290  205.4440  147.1740 O   0  0  0  0  0  0  0  0  0  0  0  0
  161.3990  207.1080  150.9140 C   0  0  0  0  0  0  0  0  0  0  0  0
  161.1280  204.8940  151.9210 C   0  0  0  0  0  0  0  0  0  0  0  0
  161.2570  207.3200  148.4600 O   0  0  0  0  0  0  0  0  0  0  0  0
  161.1190  205.9420  148.3150 C   0  0  0  0  0  0  0  0  0  0  0  0
  162.5210  209.8840  151.8300 C   0  0  0  0  0  0  0  0  0  0  0  0
  161.4730  209.1190  152.5730 C   0  0  2  0  0  3  0  0  0  0  0  0
  161.3110  206.7870  153.3270 C   0  0  0  0  0  3  0  0  0  0  0  0
  160.9830  203.5130  151.7860 C   0  0  0  0  0  3  0  0  0  0  0  0
  161.4290  207.6510  152.2330 C   0  0  0  0  0  0  0  0  0  0  0  0
  161.4620  209.3800  149.6790 C   0  0  0  0  0  2  0  0  0  0  0  0
  163.4730  210.4030  152.4670 O   0  0  0  0  0  0  0  0  0  0  0  0
  161.7780  207.8970  149.6570 C   0  0  1  0  0  3  0  0  0  0  0  0
  160.1060  209.7840  152.4380 C   0  0  0  0  0  2  0  0  0  0  0  0
  160.1940  211.5560  152.8390 S   0  0  0  0  0  0  0  0  0  0  0  0
  160.7380  211.2300  154.5400 C   0  0  0  0  0  2  0  0  0  0  0  0
  159.9620  212.4250  155.6630 S   0  0  0  0  0  0  0  0  0  0  0  0
  158.8940  210.0250  155.9260 O   0  0  0  0  0  0  0  0  0  0  0  0
  158.7110  211.2510  156.1570 C   0  0  0  0  0  0  0  0  0  0  0  0
  157.5350  211.7230  156.8290 N   0  0  0  0  0  0  0  0  0  0  0  0
  156.3260  211.7920  156.3500 C   0  0  0  0  0  3  0  0  0  0  0  0
  155.2270  210.1500  154.9670 N   0  0  0  0  0  1  0  0  0  0  0  0
  155.9510  211.4090  154.9540 C   0  0  0  0  0  2  0  0  0  0  0  0
  1 13  1  0  0  0  0
  2 15  1  0  0  0  0
  3  4  1  0  0  0  0
  4 16  2  0  0  0  0
  5  6  1  0  0  0  0
  6  9  2  0  0  0  0
  6 10  1  0  0  0  0
  7  5  2  0  0  0  0
  7  4  1  0  0  0  0
  8 12  2  0  0  0  0
  9 17  1  0  0  0  0
 10  2  2  0  0  0  0
 11 20  1  0  0  0  0
 12 11  1  0  0  0  0
 12  5  1  0  0  0  0
 13 19  2  0  0  0  0
 13 14  1  0  0  0  0
 14 21  1  6  0  0  0
 16 10  1  0  0  0  0
 17 14  1  0  0  0  0
 17 15  2  0  0  0  0
 18  1  1  0  0  0  0
 20 18  1  1  0  0  0
 20  9  1  0  0  0  0
 21 22  1  0  0  0  0
 22 23  1  0  0  0  0
 23 24  1  0  0  0  0
 24 26  1  0  0  0  0
 25 26  2  0  0  0  0
 26 27  1  0  0  0  0
 28 27  2  0  0  0  0
 30 29  1  0  0  0  0
 30 28  1  0  0  0  0
M  END
>  <MODEL>
2

>  <REMARK>
 VINA RESULT:      -6.8      1.380      2.084
  Name = 
  7 active torsions:
  status: ('A' for Active; 'I' for Inactive)
    1  A    between atoms: C_1  and  S_8
    2  A    between atoms: C_1  and  S_18
    3  A    between atoms: S_8  and  C_11
    4  A    between atoms: N_9  and  C_21
    5  A    between atoms: C_11  and  C_24
    6  A    between atoms: C_16  and  C_20
    7  A    between atoms: S_18  and  C_21
                            x       y       z     vdW  Elec       q    Type
                         _______ _______ _______ _____ _____    ______ ____

>  <TORSDO>
F 7

$$$$
=
 OpenBabel11042420213D

 30 33  0  0  1  0  0  0  0  0999 V2000
  162.4490  210.0930  150.5290 O   0  0  0  0  0  0  0  0  0  0  0  0
  161.0970  205.4760  153.1740 N   0  0  0  0  0  0  0  0  0  0  0  0
  160.7800  201.5860  150.3500 N   0  0  0  0  0  1  0  0  0  0  0  0
  160.9230  202.9910  150.5110 C   0  0  0  0  0  0  0  0  0  0  0  0
  161.1680  205.1410  149.5290 C   0  0  0  0  0  0  0  0  0  0  0  0
  161.2190  205.7460  150.7980 C   0  0  0  0  0  0  0  0  0  0  0  0
  161.0230  203.7920  149.4180 N   0  0  0  0  0  0  0  0  0  0  0  0
  161.0340  205.4960  147.1880 O   0  0  0  0  0  0  0  0  0  0  0  0
  161.3900  207.1440  150.9480 C   0  0  0  0  0  0  0  0  0  0  0  0
  161.0870  204.9270  151.9360 C   0  0  0  0  0  0  0  0  0  0  0  0
  161.3240  207.3670  148.4920 O   0  0  0  0  0  0  0  0  0  0  0  0
  161.1890  205.9900  148.3360 C   0  0  0  0  0  0  0  0  0  0  0  0
  162.4840  209.9160  151.9100 C   0  0  0  0  0  0  0  0  0  0  0  0
  161.4140  209.1480  152.6170 C   0  0  2  0  0  3  0  0  0  0  0  0
  161.2270  206.8130  153.3550 C   0  0  0  0  0  3  0  0  0  0  0  0
  160.9450  203.5460  151.7920 C   0  0  0  0  0  3  0  0  0  0  0  0
  161.3800  207.6810  152.2690 C   0  0  0  0  0  0  0  0  0  0  0  0
  161.4920  209.4220  149.7250 C   0  0  0  0  0  2  0  0  0  0  0  0
  163.4170  210.4310  152.5780 O   0  0  0  0  0  0  0  0  0  0  0  0
  161.8080  207.9380  149.7070 C   0  0  1  0  0  3  0  0  0  0  0  0
  160.0530  209.8140  152.4430 C   0  0  0  0  0  2  0  0  0  0  0  0
  159.9810  211.4050  153.3250 S   0  0  0  0  0  0  0  0  0  0  0  0
  158.9590  212.1690  152.0350 C   0  0  0  0  0  2  0  0  0  0  0  0
  159.9490  213.3790  151.1150 S   0  0  0  0  0  0  0  0  0  0  0  0
  157.5050  213.1470  150.1430 O   0  0  0  0  0  0  0  0  0  0  0  0
  158.6420  213.6470  149.9290 C   0  0  0  0  0  0  0  0  0  0  0  0
  158.9060  214.4490  148.7670 N   0  0  0  0  0  0  0  0  0  0  0  0
  159.4360  214.0580  147.6440 C   0  0  0  0  0  3  0  0  0  0  0  0
  161.3630  212.6250  147.4270 N   0  0  0  0  0  1  0  0  0  0  0  0
  159.9120  212.6670  147.3750 C   0  0  0  0  0  2  0  0  0  0  0  0
  1 13  1  0  0  0  0
  2 15  1  0  0  0  0
  3  4  1  0  0  0  0
  4 16  2  0  0  0  0
  5  6  1  0  0  0  0
  6  9  2  0  0  0  0
  6 10  1  0  0  0  0
  7  5  2  0  0  0  0
  7  4  1  0  0  0  0
  8 12  2  0  0  0  0
  9 17  1  0  0  0  0
 10  2  2  0  0  0  0
 11 20  1  0  0  0  0
 12 11  1  0  0  0  0
 12  5  1  0  0  0  0
 13 19  2  0  0  0  0
 13 14  1  0  0  0  0
 14 21  1  6  0  0  0
 16 10  1  0  0  0  0
 17 14  1  0  0  0  0
 17 15  2  0  0  0  0
 18  1  1  0  0  0  0
 20 18  1  1  0  0  0
 20  9  1  0  0  0  0
 21 22  1  0  0  0  0
 23 22  1  0  0  0  0
 24 23  1  0  0  0  0
 26 25  2  0  0  0  0
 26 24  1  0  0  0  0
 27 26  1  0  0  0  0
 28 27  2  0  0  0  0
 30 29  1  0  0  0  0
 30 28  1  0  0  0  0
M  END
>  <MODEL>
3

>  <REMARK>
 VINA RESULT:      -6.6      2.924      3.884
  Name = 
  7 active torsions:
  status: ('A' for Active; 'I' for Inactive)
    1  A    between atoms: C_1  and  S_8
    2  A    between atoms: C_1  and  S_18
    3  A    between atoms: S_8  and  C_11
    4  A    between atoms: N_9  and  C_21
    5  A    between atoms: C_11  and  C_24
    6  A    between atoms: C_16  and  C_20
    7  A    between atoms: S_18  and  C_21
                            x       y       z     vdW  Elec       q    Type
                         _______ _______ _______ _____ _____    ______ ____

>  <TORSDO>
F 7

$$$$
=
 OpenBabel11042420213D

 30 33  0  0  1  0  0  0  0  0999 V2000
  162.0740  210.8910  153.2370 O   0  0  0  0  0  0  0  0  0  0  0  0
  160.9220  205.5940  154.1070 N   0  0  0  0  0  0  0  0  0  0  0  0
  161.1400  202.8360  150.1630 N   0  0  0  0  0  1  0  0  0  0  0  0
  161.1530  204.1160  150.7810 C   0  0  0  0  0  0  0  0  0  0  0  0
  161.2890  206.4800  150.5740 C   0  0  0  0  0  0  0  0  0  0  0  0
  161.1950  206.6360  151.9680 C   0  0  0  0  0  0  0  0  0  0  0  0
  161.2660  205.2370  150.0200 N   0  0  0  0  0  0  0  0  0  0  0  0
  161.2990  207.5770  148.4710 O   0  0  0  0  0  0  0  0  0  0  0  0
  161.2370  207.9140  152.5770 C   0  0  0  0  0  0  0  0  0  0  0  0
  161.0490  205.4820  152.7630 C   0  0  0  0  0  0  0  0  0  0  0  0
  161.3340  208.9280  150.3300 O   0  0  0  0  0  0  0  0  0  0  0  0
  161.3270  207.6730  149.7260 C   0  0  0  0  0  0  0  0  0  0  0  0
  162.0220  210.2710  154.4830 C   0  0  0  0  0  0  0  0  0  0  0  0
  160.9710  209.2560  154.7980 C   0  0  2  0  0  3  0  0  0  0  0  0
  160.9260  206.8020  154.7210 C   0  0  0  0  0  3  0  0  0  0  0  0
  161.0340  204.2200  152.1680 C   0  0  0  0  0  3  0  0  0  0  0  0
  161.0850  207.9860  153.9930 C   0  0  0  0  0  0  0  0  0  0  0  0
  161.2390  210.4700  152.1700 C   0  0  0  0  0  2  0  0  0  0  0  0
  162.8570  210.5900  155.3690 O   0  0  0  0  0  0  0  0  0  0  0  0
  161.6780  209.0940  151.7050 C   0  0  1  0  0  3  0  0  0  0  0  0
  159.5750  209.8670  154.7170 C   0  0  0  0  0  2  0  0  0  0  0  0
  159.2280  210.9120  156.1660 S   0  0  0  0  0  0  0  0  0  0  0  0
  158.8120  212.3470  155.1360 C   0  0  0  0  0  2  0  0  0  0  0  0
  157.9650  211.7890  153.6330 S   0  0  0  0  0  0  0  0  0  0  0  0
  159.5680  213.5000  152.4170 O   0  0  0  0  0  0  0  0  0  0  0  0
  158.3730  213.2940  152.7630 C   0  0  0  0  0  0  0  0  0  0  0  0
  157.3280  214.2280  152.4540 N   0  0  0  0  0  0  0  0  0  0  0  0
  156.7460  214.4080  151.3030 C   0  0  0  0  0  3  0  0  0  0  0  0
  156.1100  213.9270  149.0270 N   0  0  0  0  0  1  0  0  0  0  0  0
  157.1060  213.6710  150.0530 C   0  0  0  0  0  2  0  0  0  0  0  0
  1 13  1  0  0  0  0
  2 15  1  0  0  0  0
  3  4  1  0  0  0  0
  4 16  2  0  0  0  0
  5  6  1  0  0  0  0
  6  9  2  0  0  0  0
  6 10  1  0  0  0  0
  7  5  2  0  0  0  0
  7  4  1  0  0  0  0
  8 12  2  0  0  0  0
  9 17  1  0  0  0  0
 10  2  2  0  0  0  0
 11 20  1  0  0  0  0
 12 11  1  0  0  0  0
 12  5  1  0  0  0  0
 13 14  1  0  0  0  0
 13 19  2  0  0  0  0
 14 21  1  6  0  0  0
 16 10  1  0  0  0  0
 17 15  2  0  0  0  0
 17 14  1  0  0  0  0
 18  1  1  0  0  0  0
 20 18  1  1  0  0  0
 20  9  1  0  0  0  0
 21 22  1  0  0  0  0
 23 22  1  0  0  0  0
 24 23  1  0  0  0  0
 25 26  2  0  0  0  0
 26 24  1  0  0  0  0
 27 26  1  0  0  0  0
 28 27  2  0  0  0  0
 29 30  1  0  0  0  0
 30 28  1  0  0  0  0
M  END
>  <MODEL>
4

>  <REMARK>
 VINA RESULT:      -6.1      2.732      3.764
  Name = 
  7 active torsions:
  status: ('A' for Active; 'I' for Inactive)
    1  A    between atoms: C_1  and  S_8
    2  A    between atoms: C_1  and  S_18
    3  A    between atoms: S_8  and  C_11
    4  A    between atoms: N_9  and  C_21
    5  A    between atoms: C_11  and  C_24
    6  A    between atoms: C_16  and  C_20
    7  A    between atoms: S_18  and  C_21
                            x       y       z     vdW  Elec       q    Type
                         _______ _______ _______ _____ _____    ______ ____

>  <TORSDO>
F 7

$$$$
=
 OpenBabel11042420213D

 30 33  0  0  1  0  0  0  0  0999 V2000
  159.8090  207.6740  155.7630 O   0  0  0  0  0  0  0  0  0  0  0  0
  161.5680  209.9950  151.1080 N   0  0  0  0  0  0  0  0  0  0  0  0
  162.3670  206.8890  147.5140 N   0  0  0  0  0  1  0  0  0  0  0  0
  162.0720  207.1540  148.8790 C   0  0  0  0  0  0  0  0  0  0  0  0
  161.6280  206.3350  151.0660 C   0  0  0  0  0  0  0  0  0  0  0  0
  161.4810  207.6450  151.5570 C   0  0  0  0  0  0  0  0  0  0  0  0
  161.9170  206.1240  149.7520 N   0  0  0  0  0  0  0  0  0  0  0  0
  161.7860  204.0350  151.6210 O   0  0  0  0  0  0  0  0  0  0  0  0
  161.1600  207.8980  152.9130 C   0  0  0  0  0  0  0  0  0  0  0  0
  161.6680  208.7190  150.6660 C   0  0  0  0  0  0  0  0  0  0  0  0
  161.2670  205.4700  153.3400 O   0  0  0  0  0  0  0  0  0  0  0  0
  161.5500  205.2120  152.0020 C   0  0  0  0  0  0  0  0  0  0  0  0
  159.7560  209.0350  155.4700 C   0  0  0  0  0  0  0  0  0  0  0  0
  160.8820  209.7170  154.7620 C   0  0  2  0  0  3  0  0  0  0  0  0
  161.2940  210.2760  152.4060 C   0  0  0  0  0  3  0  0  0  0  0  0
  161.9580  208.4730  149.3230 C   0  0  0  0  0  3  0  0  0  0  0  0
  161.0790  209.2560  153.3400 C   0  0  0  0  0  0  0  0  0  0  0  0
  160.8510  206.8530  155.2600 C   0  0  0  0  0  2  0  0  0  0  0  0
  158.7570  209.7080  155.8320 O   0  0  0  0  0  0  0  0  0  0  0  0
  160.6940  206.7080  153.7590 C   0  0  1  0  0  3  0  0  0  0  0  0
  162.1700  209.6420  155.5760 C   0  0  0  0  0  2  0  0  0  0  0  0
  162.0330  210.6060  157.1140 S   0  0  0  0  0  0  0  0  0  0  0  0
  161.2980  212.0260  156.2570 C   0  0  0  0  0  2  0  0  0  0  0  0
  159.9430  212.7010  157.2570 S   0  0  0  0  0  0  0  0  0  0  0  0
  159.4340  212.8470  154.6700 O   0  0  0  0  0  0  0  0  0  0  0  0
  159.0490  213.2340  155.8060 C   0  0  0  0  0  0  0  0  0  0  0  0
  157.8950  214.0730  155.9650 N   0  0  0  0  0  0  0  0  0  0  0  0
  156.6800  213.6980  156.2490 C   0  0  0  0  0  3  0  0  0  0  0  0
  155.9900  211.6750  155.1320 N   0  0  0  0  0  1  0  0  0  0  0  0
  156.2580  212.2750  156.4280 C   0  0  0  0  0  2  0  0  0  0  0  0
  2 15  1  0  0  0  0
  3  4  1  0  0  0  0
  4 16  2  0  0  0  0
  4  7  1  0  0  0  0
  5  6  1  0  0  0  0
  5 12  1  0  0  0  0
  6  9  2  0  0  0  0
  7  5  2  0  0  0  0
  8 12  2  0  0  0  0
  9 17  1  0  0  0  0
  9 20  1  0  0  0  0
 10  2  2  0  0  0  0
 10  6  1  0  0  0  0
 11 20  1  0  0  0  0
 12 11  1  0  0  0  0
 13  1  1  0  0  0  0
 13 19  2  0  0  0  0
 14 13  1  0  0  0  0
 14 21  1  1  0  0  0
 15 17  2  0  0  0  0
 16 10  1  0  0  0  0
 17 14  1  0  0  0  0
 18  1  1  0  0  0  0
 20 18  1  1  0  0  0
 21 22  1  0  0  0  0
 23 22  1  0  0  0  0
 23 24  1  0  0  0  0
 25 26  2  0  0  0  0
 26 27  1  0  0  0  0
 26 24  1  0  0  0  0
 27 28  2  0  0  0  0
 28 30  1  0  0  0  0
 29 30  1  0  0  0  0
M  END
>  <MODEL>
5

>  <REMARK>
 VINA RESULT:      -5.8      2.927      4.458
  Name = 
  7 active torsions:
  status: ('A' for Active; 'I' for Inactive)
    1  A    between atoms: C_1  and  S_8
    2  A    between atoms: C_1  and  S_18
    3  A    between atoms: S_8  and  C_11
    4  A    between atoms: N_9  and  C_21
    5  A    between atoms: C_11  and  C_24
    6  A    between atoms: C_16  and  C_20
    7  A    between atoms: S_18  and  C_21
                            x       y       z     vdW  Elec       q    Type
                         _______ _______ _______ _____ _____    ______ ____

>  <TORSDO>
F 7

$$$$
=
 OpenBabel11042420213D

 30 33  0  0  1  0  0  0  0  0999 V2000
  161.9180  206.5770  153.2780 O   0  0  0  0  0  0  0  0  0  0  0  0
  162.3490  209.0700  148.4050 N   0  0  0  0  0  0  0  0  0  0  0  0
  161.5220  213.8150  148.5180 N   0  0  0  0  0  1  0  0  0  0  0  0
  161.5170  212.5420  149.1500 C   0  0  0  0  0  0  0  0  0  0  0  0
  161.0620  211.2210  151.0730 C   0  0  0  0  0  0  0  0  0  0  0  0
  161.5100  210.0610  150.4170 C   0  0  0  0  0  0  0  0  0  0  0  0
  161.0760  212.4210  150.4300 N   0  0  0  0  0  0  0  0  0  0  0  0
  159.9910  212.1000  152.9980 O   0  0  0  0  0  0  0  0  0  0  0  0
  161.5270  208.8010  151.0650 C   0  0  0  0  0  0  0  0  0  0  0  0
  161.9410  210.1710  149.0810 C   0  0  0  0  0  0  0  0  0  0  0  0
  160.4930  209.8570  153.0410 O   0  0  0  0  0  0  0  0  0  0  0  0
  160.5040  211.1050  152.4220 C   0  0  0  0  0  0  0  0  0  0  0  0
  162.5050  206.0280  152.1410 C   0  0  0  0  0  0  0  0  0  0  0  0
  161.9080  206.2360  150.7860 C   0  0  2  0  0  3  0  0  0  0  0  0
  162.3490  207.8440  148.9820 C   0  0  0  0  0  3  0  0  0  0  0  0
  161.9510  211.4150  148.4490 C   0  0  0  0  0  3  0  0  0  0  0  0
  161.9490  207.6660  150.3110 C   0  0  0  0  0  0  0  0  0  0  0  0
  160.8310  207.4830  153.1800 C   0  0  0  0  0  2  0  0  0  0  0  0
  163.5400  205.3230  152.2560 O   0  0  0  0  0  0  0  0  0  0  0  0
  161.3210  208.7890  152.5830 C   0  0  1  0  0  3  0  0  0  0  0  0
  160.5050  205.6420  150.7060 C   0  0  0  0  0  2  0  0  0  0  0  0
  160.5660  203.8390  150.4630 S   0  0  0  0  0  0  0  0  0  0  0  0
  161.1050  204.0070  148.7380 C   0  0  0  0  0  2  0  0  0  0  0  0
  161.0840  202.3790  147.9370 S   0  0  0  0  0  0  0  0  0  0  0  0
  160.8440  202.6580  145.3220 O   0  0  0  0  0  0  0  0  0  0  0  0
  161.4520  203.0870  146.3390 C   0  0  0  0  0  0  0  0  0  0  0  0
  162.4150  204.1480  146.2490 N   0  0  0  0  0  0  0  0  0  0  0  0
  162.3430  205.2170  145.5090 C   0  0  0  0  0  3  0  0  0  0  0  0
  160.1610  206.2140  145.2670 N   0  0  0  0  0  1  0  0  0  0  0  0
  161.2230  205.5150  144.5650 C   0  0  0  0  0  2  0  0  0  0  0  0
  2 15  2  0  0  0  0
  2 10  1  0  0  0  0
  3  4  1  0  0  0  0
  4  7  1  0  0  0  0
  5 12  1  0  0  0  0
  6  9  1  0  0  0  0
  6  5  1  0  0  0  0
  7  5  2  0  0  0  0
  9 20  1  0  0  0  0
 10  6  2  0  0  0  0
 12  8  2  0  0  0  0
 12 11  1  0  0  0  0
 13 19  2  0  0  0  0
 13  1  1  0  0  0  0
 14 21  1  1  0  0  0
 14 13  1  0  0  0  0
 15 17  1  0  0  0  0
 16 10  1  0  0  0  0
 16  4  2  0  0  0  0
 17 14  1  0  0  0  0
 17  9  2  0  0  0  0
 18  1  1  0  0  0  0
 20 11  1  0  0  0  0
 20 18  1  6  0  0  0
 22 21  1  0  0  0  0
 23 22  1  0  0  0  0
 24 23  1  0  0  0  0
 25 26  2  0  0  0  0
 26 24  1  0  0  0  0
 27 26  1  0  0  0  0
 28 27  2  0  0  0  0
 30 29  1  0  0  0  0
 30 28  1  0  0  0  0
M  END
>  <MODEL>
6

>  <REMARK>
 VINA RESULT:      -5.8      4.009      8.434
  Name = 
  7 active torsions:
  status: ('A' for Active; 'I' for Inactive)
    1  A    between atoms: C_1  and  S_8
    2  A    between atoms: C_1  and  S_18
    3  A    between atoms: S_8  and  C_11
    4  A    between atoms: N_9  and  C_21
    5  A    between atoms: C_11  and  C_24
    6  A    between atoms: C_16  and  C_20
    7  A    between atoms: S_18  and  C_21
                            x       y       z     vdW  Elec       q    Type
                         _______ _______ _______ _____ _____    ______ ____

>  <TORSDO>
F 7

$$$$
=
 OpenBabel11042420213D

 30 33  0  0  1  0  0  0  0  0999 V2000
  162.3730  205.4970  152.5410 O   0  0  0  0  0  0  0  0  0  0  0  0
  161.1190  210.8300  152.1820 N   0  0  0  0  0  0  0  0  0  0  0  0
  159.7140  212.8270  156.3350 N   0  0  0  0  0  1  0  0  0  0  0  0
  160.0550  211.6820  155.5650 C   0  0  0  0  0  0  0  0  0  0  0  0
  160.3240  209.3250  155.4230 C   0  0  0  0  0  0  0  0  0  0  0  0
  160.7310  209.4230  154.0810 C   0  0  0  0  0  0  0  0  0  0  0  0
  159.9990  210.4450  156.1250 N   0  0  0  0  0  0  0  0  0  0  0  0
  159.7070  207.8640  157.1860 O   0  0  0  0  0  0  0  0  0  0  0  0
  161.0950  208.2790  153.3290 C   0  0  0  0  0  0  0  0  0  0  0  0
  160.7640  210.6980  153.4830 C   0  0  0  0  0  0  0  0  0  0  0  0
  160.5020  206.8760  155.2700 O   0  0  0  0  0  0  0  0  0  0  0  0
  160.1740  207.9990  156.0250 C   0  0  0  0  0  0  0  0  0  0  0  0
  162.6990  206.3320  151.4740 C   0  0  0  0  0  0  0  0  0  0  0  0
  161.7330  207.3580  150.9740 C   0  0  2  0  0  3  0  0  0  0  0  0
  161.4440  209.7550  151.4240 C   0  0  0  0  0  3  0  0  0  0  0  0
  160.4320  211.8300  154.2280 C   0  0  0  0  0  3  0  0  0  0  0  0
  161.4480  208.4630  151.9600 C   0  0  0  0  0  0  0  0  0  0  0  0
  161.1870  205.6930  153.2940 C   0  0  0  0  0  2  0  0  0  0  0  0
  163.8130  206.2030  150.9040 O   0  0  0  0  0  0  0  0  0  0  0  0
  161.3130  206.9730  154.0990 C   0  0  1  0  0  3  0  0  0  0  0  0
  160.4560  206.7040  150.4540 C   0  0  0  0  0  2  0  0  0  0  0  0
  160.8310  205.3980  149.2440 S   0  0  0  0  0  0  0  0  0  0  0  0
  161.4850  206.5870  148.0390 C   0  0  0  0  0  2  0  0  0  0  0  0
  160.8310  206.2020  146.3910 S   0  0  0  0  0  0  0  0  0  0  0  0
  163.1530  204.9590  146.5760 O   0  0  0  0  0  0  0  0  0  0  0  0
  161.9600  204.8330  146.1900 C   0  0  0  0  0  0  0  0  0  0  0  0
  161.4790  203.6080  145.6160 N   0  0  0  0  0  0  0  0  0  0  0  0
  161.1290  202.5250  146.2480 C   0  0  0  0  0  3  0  0  0  0  0  0
  161.1990  200.9380  148.0620 N   0  0  0  0  0  1  0  0  0  0  0  0
  161.2060  202.3520  147.7310 C   0  0  0  0  0  2  0  0  0  0  0  0
  1 18  1  0  0  0  0
  2 10  1  0  0  0  0
  4  7  1  0  0  0  0
  4  3  1  0  0  0  0
  5 12  1  0  0  0  0
  5  7  2  0  0  0  0
  6  5  1  0  0  0  0
  9  6  1  0  0  0  0
  9 20  1  0  0  0  0
 10  6  2  0  0  0  0
 10 16  1  0  0  0  0
 11 12  1  0  0  0  0
 12  8  2  0  0  0  0
 13  1  1  0  0  0  0
 14 21  1  1  0  0  0
 14 13  1  0  0  0  0
 14 17  1  0  0  0  0
 15 17  1  0  0  0  0
 15  2  2  0  0  0  0
 16  4  2  0  0  0  0
 17  9  2  0  0  0  0
 19 13  2  0  0  0  0
 20 18  1  6  0  0  0
 20 11  1  0  0  0  0
 22 21  1  0  0  0  0
 23 22  1  0  0  0  0
 24 23  1  0  0  0  0
 26 24  1  0  0  0  0
 26 25  2  0  0  0  0
 27 26  1  0  0  0  0
 27 28  2  0  0  0  0
 28 30  1  0  0  0  0
 30 29  1  0  0  0  0
M  END
>  <MODEL>
7

>  <REMARK>
 VINA RESULT:      -5.7      3.212      8.410
  Name = 
  7 active torsions:
  status: ('A' for Active; 'I' for Inactive)
    1  A    between atoms: C_1  and  S_8
    2  A    between atoms: C_1  and  S_18
    3  A    between atoms: S_8  and  C_11
    4  A    between atoms: N_9  and  C_21
    5  A    between atoms: C_11  and  C_24
    6  A    between atoms: C_16  and  C_20
    7  A    between atoms: S_18  and  C_21
                            x       y       z     vdW  Elec       q    Type
                         _______ _______ _______ _____ _____    ______ ____

>  <TORSDO>
F 7

$$$$
=
 OpenBabel11042420213D

 30 33  0  0  1  0  0  0  0  0999 V2000
  161.2220  207.9710  147.3080 O   0  0  0  0  0  0  0  0  0  0  0  0
  160.8110  204.6690  151.6760 N   0  0  0  0  0  0  0  0  0  0  0  0
  160.8440  206.9620  155.9130 N   0  0  0  0  0  1  0  0  0  0  0  0
  161.0010  206.9680  154.5000 C   0  0  0  0  0  0  0  0  0  0  0  0
  161.4980  208.1670  152.5090 C   0  0  0  0  0  0  0  0  0  0  0  0
  161.3020  207.0120  151.7310 C   0  0  0  0  0  0  0  0  0  0  0  0
  161.3450  208.1180  153.8610 N   0  0  0  0  0  0  0  0  0  0  0  0
  162.2430  210.4180  152.5290 O   0  0  0  0  0  0  0  0  0  0  0  0
  161.4350  207.0350  150.3210 C   0  0  0  0  0  0  0  0  0  0  0  0
  160.9750  205.8100  152.3880 C   0  0  0  0  0  0  0  0  0  0  0  0
  162.1100  209.4030  150.4720 O   0  0  0  0  0  0  0  0  0  0  0  0
  161.9500  209.3960  151.8550 C   0  0  0  0  0  0  0  0  0  0  0  0
  160.8300  206.6340  147.2750 C   0  0  0  0  0  0  0  0  0  0  0  0
  161.5000  205.6120  148.1360 C   0  0  2  0  0  3  0  0  0  0  0  0
  160.9600  204.6470  150.3290 C   0  0  0  0  0  3  0  0  0  0  0  0
  160.8180  205.7900  153.7740 C   0  0  0  0  0  3  0  0  0  0  0  0
  161.2680  205.8080  149.6130 C   0  0  0  0  0  0  0  0  0  0  0  0
  162.1520  208.4410  148.2700 C   0  0  0  0  0  2  0  0  0  0  0  0
  159.9180  206.2750  146.4870 O   0  0  0  0  0  0  0  0  0  0  0  0
  161.5090  208.4080  149.6440 C   0  0  1  0  0  3  0  0  0  0  0  0
  162.9820  205.4920  147.7960 C   0  0  0  0  0  2  0  0  0  0  0  0
  163.2220  204.7710  146.1420 S   0  0  0  0  0  0  0  0  0  0  0  0
  162.1220  203.3730  146.5000 C   0  0  0  0  0  2  0  0  0  0  0  0
  160.8650  203.2420  145.1990 S   0  0  0  0  0  0  0  0  0  0  0  0
  159.4670  201.0030  145.1360 O   0  0  0  0  0  0  0  0  0  0  0  0
  160.4710  201.5620  145.6560 C   0  0  0  0  0  0  0  0  0  0  0  0
  161.3190  200.8730  146.5860 N   0  0  0  0  0  0  0  0  0  0  0  0
  161.1600  200.7760  147.8750 C   0  0  0  0  0  3  0  0  0  0  0  0
  160.2990  201.3090  150.0640 N   0  0  0  0  0  1  0  0  0  0  0  0
  160.0470  201.4200  148.6380 C   0  0  0  0  0  2  0  0  0  0  0  0
  1 18  1  0  0  0  0
  2 10  1  0  0  0  0
  4  3  1  0  0  0  0
  5  7  2  0  0  0  0
  6 10  2  0  0  0  0
  6  5  1  0  0  0  0
  7  4  1  0  0  0  0
  9  6  1  0  0  0  0
 10 16  1  0  0  0  0
 11 12  1  0  0  0  0
 12  5  1  0  0  0  0
 12  8  2  0  0  0  0
 13  1  1  0  0  0  0
 13 14  1  0  0  0  0
 14 21  1  1  0  0  0
 14 17  1  0  0  0  0
 15  2  2  0  0  0  0
 16  4  2  0  0  0  0
 17  9  2  0  0  0  0
 17 15  1  0  0  0  0
 19 13  2  0  0  0  0
 20 18  1  6  0  0  0
 20  9  1  0  0  0  0
 20 11  1  0  0  0  0
 22 23  1  0  0  0  0
 22 21  1  0  0  0  0
 24 26  1  0  0  0  0
 24 23  1  0  0  0  0
 25 26  2  0  0  0  0
 26 27  1  0  0  0  0
 27 28  2  0  0  0  0
 28 30  1  0  0  0  0
 30 29  1  0  0  0  0
M  END
>  <MODEL>
8

>  <REMARK>
 VINA RESULT:      -5.6      3.774      8.084
  Name = 
  7 active torsions:
  status: ('A' for Active; 'I' for Inactive)
    1  A    between atoms: C_1  and  S_8
    2  A    between atoms: C_1  and  S_18
    3  A    between atoms: S_8  and  C_11
    4  A    between atoms: N_9  and  C_21
    5  A    between atoms: C_11  and  C_24
    6  A    between atoms: C_16  and  C_20
    7  A    between atoms: S_18  and  C_21
                            x       y       z     vdW  Elec       q    Type
                         _______ _______ _______ _____ _____    ______ ____

>  <TORSDO>
F 7

$$$$
=
 OpenBabel11042420213D

 30 33  0  0  1  0  0  0  0  0999 V2000
  163.0800  207.1160  150.2620 O   0  0  0  0  0  0  0  0  0  0  0  0
  160.7330  202.2090  149.5150 N   0  0  0  0  0  0  0  0  0  0  0  0
  160.1780  200.9520  144.8980 N   0  0  0  0  0  1  0  0  0  0  0  0
  160.5120  201.9170  145.8860 C   0  0  0  0  0  0  0  0  0  0  0  0
  161.1980  204.1260  146.4310 C   0  0  0  0  0  0  0  0  0  0  0  0
  161.1840  203.8230  147.8040 C   0  0  0  0  0  0  0  0  0  0  0  0
  160.8650  203.1760  145.5150 N   0  0  0  0  0  0  0  0  0  0  0  0
  161.4070  205.8340  144.7980 O   0  0  0  0  0  0  0  0  0  0  0  0
  161.5440  204.7830  148.7800 C   0  0  0  0  0  0  0  0  0  0  0  0
  160.7910  202.5300  148.2000 C   0  0  0  0  0  0  0  0  0  0  0  0
  161.8140  206.4450  146.9770 O   0  0  0  0  0  0  0  0  0  0  0  0
  161.4930  205.4970  146.0090 C   0  0  0  0  0  0  0  0  0  0  0  0
  162.9200  206.1410  151.2440 C   0  0  0  0  0  0  0  0  0  0  0  0
  161.6670  205.3290  151.3280 C   0  0  2  0  0  3  0  0  0  0  0  0
  161.0400  203.1120  150.4780 C   0  0  0  0  0  3  0  0  0  0  0  0
  160.4610  201.5740  147.2390 C   0  0  0  0  0  3  0  0  0  0  0  0
  161.4540  204.4080  150.1530 C   0  0  0  0  0  0  0  0  0  0  0  0
  162.1390  207.2650  149.2110 C   0  0  0  0  0  2  0  0  0  0  0  0
  163.8310  205.9590  152.0920 O   0  0  0  0  0  0  0  0  0  0  0  0
  162.2270  206.0640  148.2890 C   0  0  1  0  0  3  0  0  0  0  0  0
  160.4540  206.2160  151.5940 C   0  0  0  0  0  2  0  0  0  0  0  0
  160.7240  207.2840  153.0420 S   0  0  0  0  0  0  0  0  0  0  0  0
  160.6460  208.7980  152.0440 C   0  0  0  0  0  2  0  0  0  0  0  0
  161.8600  209.9940  152.6640 S   0  0  0  0  0  0  0  0  0  0  0  0
  159.4370  210.8960  153.2020 O   0  0  0  0  0  0  0  0  0  0  0  0
  160.6240  210.8530  153.6250 C   0  0  0  0  0  0  0  0  0  0  0  0
  161.0020  211.4540  154.8720 N   0  0  0  0  0  0  0  0  0  0  0  0
  161.0770  210.8750  156.0360 C   0  0  0  0  0  3  0  0  0  0  0  0
  161.9510  208.6820  156.5290 N   0  0  0  0  0  1  0  0  0  0  0  0
  160.7360  209.4410  156.2880 C   0  0  0  0  0  2  0  0  0  0  0  0
  1 13  1  0  0  0  0
  2 15  1  0  0  0  0
  3  4  1  0  0  0  0
  4 16  2  0  0  0  0
  5  6  1  0  0  0  0
  6 10  1  0  0  0  0
  6  9  2  0  0  0  0
  7  4  1  0  0  0  0
  7  5  2  0  0  0  0
  8 12  2  0  0  0  0
  9 17  1  0  0  0  0
 10  2  2  0  0  0  0
 11 20  1  0  0  0  0
 12  5  1  0  0  0  0
 12 11  1  0  0  0  0
 13 14  1  0  0  0  0
 13 19  2  0  0  0  0
 14 21  1  6  0  0  0
 16 10  1  0  0  0  0
 17 15  2  0  0  0  0
 17 14  1  0  0  0  0
 18  1  1  0  0  0  0
 20  9  1  0  0  0  0
 20 18  1  1  0  0  0
 21 22  1  0  0  0  0
 23 24  1  0  0  0  0
 23 22  1  0  0  0  0
 24 26  1  0  0  0  0
 25 26  2  0  0  0  0
 26 27  1  0  0  0  0
 27 28  2  0  0  0  0
 28 30  1  0  0  0  0
 30 29  1  0  0  0  0
M  END
>  <MODEL>
9

>  <REMARK>
 VINA RESULT:      -5.6      2.578      3.640
  Name = 
  7 active torsions:
  status: ('A' for Active; 'I' for Inactive)
    1  A    between atoms: C_1  and  S_8
    2  A    between atoms: C_1  and  S_18
    3  A    between atoms: S_8  and  C_11
    4  A    between atoms: N_9  and  C_21
    5  A    between atoms: C_11  and  C_24
    6  A    between atoms: C_16  and  C_20
    7  A    between atoms: S_18  and  C_21
                            x       y       z     vdW  Elec       q    Type
                         _______ _______ _______ _____ _____    ______ ____

>  <TORSDO>
F 7

$$$$
