=
 OpenBabel11052409523D

 26 28  0  0  1  0  0  0  0  0999 V2000
  161.1290  205.7290  151.6920 N   0  0  0  0  0  2  0  0  0  0  0  0
  160.4690  206.8000  156.2960 O   0  0  0  0  0  1  0  0  0  0  0  0
  161.0100  206.6630  152.6700 C   0  0  0  0  0  0  0  0  0  0  0  0
  160.6840  207.2340  154.9920 C   0  0  0  0  0  0  0  0  0  0  0  0
  161.2920  208.3800  151.0420 N   0  0  0  0  0  0  0  0  0  0  0  0
  161.6250  207.8860  148.6540 C   0  0  0  0  0  1  0  0  0  0  0  0
  161.2800  209.4550  156.8390 O   0  0  0  0  0  0  0  0  0  0  0  0
  159.5120  210.5370  155.8060 N   0  0  0  0  0  2  0  0  0  0  0  0
  160.9800  209.0150  153.3370 C   0  0  0  0  0  0  0  0  0  0  0  0
  161.4310  205.1950  149.5110 O   0  0  0  0  0  0  0  0  0  0  0  0
  161.0920  208.0290  152.3410 C   0  0  0  0  0  0  0  0  0  0  0  0
  159.7420  211.9520  153.8560 C   0  0  1  0  0  3  0  0  0  0  0  0
  158.8440  210.9670  154.5910 C   0  0  0  0  0  2  0  0  0  0  0  0
  160.7530  208.6130  154.6890 C   0  0  0  0  0  0  0  0  0  0  0  0
  161.4100  207.4460  150.0620 C   0  0  0  0  0  0  0  0  0  0  0  0
  161.3260  206.0860  150.3960 C   0  0  0  0  0  0  0  0  0  0  0  0
  161.1130  211.4470  153.7470 N   0  0  0  0  0  2  0  0  0  0  0  0
  160.8130  206.2750  153.9890 C   0  0  0  0  0  3  0  0  0  0  0  0
  161.1280  210.3490  152.9110 O   0  0  0  0  0  0  0  0  0  0  0  0
  160.5630  209.5650  155.8100 C   0  0  0  0  0  0  0  0  0  0  0  0
  159.1800  212.3540  152.5260 C   0  0  0  0  0  0  0  0  0  0  0  0
  159.5790  213.6130  150.3550 C   0  0  0  0  0  0  0  0  0  0  0  0
  158.0360  211.9550  152.1730 O   0  0  0  0  0  0  0  0  0  0  0  0
  158.4550  213.3080  149.8750 O   0  0  0  0  0  0  0  0  0  0  0  0
  159.9750  213.1650  151.6560 N   0  0  0  0  0  2  0  0  0  0  0  0
  160.5100  214.4530  149.5580 C   0  0  0  0  0  1  0  0  0  0  0  0
  1  3  1  0  0  0  0
  3 18  1  0  0  0  0
  4  2  1  0  0  0  0
  5 11  1  0  0  0  0
  6 15  1  0  0  0  0
  8 20  1  0  0  0  0
  9 14  2  0  0  0  0
 10 16  2  0  0  0  0
 11  3  2  0  0  0  0
 11  9  1  0  0  0  0
 12 21  1  6  0  0  0
 12 13  1  0  0  0  0
 13  8  1  0  0  0  0
 14  4  1  0  0  0  0
 14 20  1  0  0  0  0
 15 16  1  0  0  0  0
 15  5  2  0  0  0  0
 16  1  1  0  0  0  0
 17 12  1  0  0  0  0
 18  4  2  0  0  0  0
 19  9  1  0  0  0  0
 19 17  1  0  0  0  0
 20  7  2  0  0  0  0
 22 25  1  0  0  0  0
 23 21  2  0  0  0  0
 24 22  2  0  0  0  0
 25 21  1  0  0  0  0
 26 22  1  0  0  0  0
M  END
>  <MODEL>
1

>  <REMARK>
 VINA RESULT:      -7.2      0.000      0.000
  Name = 
  1 active torsions:
  status: ('A' for Active; 'I' for Inactive)
    1  A    between atoms: C_4  and  C_18
                            x       y       z     vdW  Elec       q    Type
                         _______ _______ _______ _____ _____    ______ ____

>  <TORSDO>
F 1

$$$$
=
 OpenBabel11052409523D

 26 28  0  0  1  0  0  0  0  0999 V2000
  160.9760  203.2520  147.8390 N   0  0  0  0  0  2  0  0  0  0  0  0
  160.3930  203.8300  152.5400 O   0  0  0  0  0  1  0  0  0  0  0  0
  161.1480  204.0060  148.9540 C   0  0  0  0  0  0  0  0  0  0  0  0
  160.8730  204.3220  151.3300 C   0  0  0  0  0  0  0  0  0  0  0  0
  162.2200  205.6800  147.6390 N   0  0  0  0  0  0  0  0  0  0  0  0
  162.5390  205.4400  145.2110 C   0  0  0  0  0  1  0  0  0  0  0  0
  162.1290  205.8300  153.5320 O   0  0  0  0  0  0  0  0  0  0  0  0
  161.0240  207.6650  152.6540 N   0  0  0  0  0  2  0  0  0  0  0  0
  161.9850  206.0520  150.0000 C   0  0  0  0  0  0  0  0  0  0  0  0
  161.2320  202.9600  145.6070 O   0  0  0  0  0  0  0  0  0  0  0  0
  161.7870  205.2560  148.8580 C   0  0  0  0  0  0  0  0  0  0  0  0
  161.9570  209.1320  150.9700 C   0  0  1  0  0  3  0  0  0  0  0  0
  160.6850  208.4950  151.5110 C   0  0  0  0  0  2  0  0  0  0  0  0
  161.5020  205.5860  151.2620 C   0  0  0  0  0  0  0  0  0  0  0  0
  162.0470  204.9270  146.5210 C   0  0  0  0  0  0  0  0  0  0  0  0
  161.4080  203.6820  146.6240 C   0  0  0  0  0  0  0  0  0  0  0  0
  163.0250  208.1410  150.8090 N   0  0  0  0  0  2  0  0  0  0  0  0
  160.7020  203.5460  150.1860 C   0  0  0  0  0  3  0  0  0  0  0  0
  162.6800  207.2600  149.8040 O   0  0  0  0  0  0  0  0  0  0  0  0
  161.6040  206.3640  152.5200 C   0  0  0  0  0  0  0  0  0  0  0  0
  161.7150  209.9100  149.7130 C   0  0  0  0  0  0  0  0  0  0  0  0
  161.5070  212.2120  148.6580 C   0  0  0  0  0  0  0  0  0  0  0  0
  161.5480  209.3090  148.6160 O   0  0  0  0  0  0  0  0  0  0  0  0
  161.3100  211.7550  147.5000 O   0  0  0  0  0  0  0  0  0  0  0  0
  161.7100  211.3400  149.7740 N   0  0  0  0  0  2  0  0  0  0  0  0
  161.5290  213.6830  148.8680 C   0  0  0  0  0  1  0  0  0  0  0  0
  1  3  1  0  0  0  0
  3 18  1  0  0  0  0
  4  2  1  0  0  0  0
  5 11  1  0  0  0  0
  6 15  1  0  0  0  0
  9 14  2  0  0  0  0
 10 16  2  0  0  0  0
 11  3  2  0  0  0  0
 11  9  1  0  0  0  0
 12 21  1  6  0  0  0
 12 13  1  0  0  0  0
 13  8  1  0  0  0  0
 14  4  1  0  0  0  0
 14 20  1  0  0  0  0
 15 16  1  0  0  0  0
 15  5  2  0  0  0  0
 16  1  1  0  0  0  0
 17 12  1  0  0  0  0
 18  4  2  0  0  0  0
 19  9  1  0  0  0  0
 19 17  1  0  0  0  0
 20  8  1  0  0  0  0
 20  7  2  0  0  0  0
 21 25  1  0  0  0  0
 22 26  1  0  0  0  0
 22 25  1  0  0  0  0
 23 21  2  0  0  0  0
 24 22  2  0  0  0  0
M  END
>  <MODEL>
2

>  <REMARK>
 VINA RESULT:      -7.1      3.286      4.433
  Name = 
  1 active torsions:
  status: ('A' for Active; 'I' for Inactive)
    1  A    between atoms: C_4  and  C_18
                            x       y       z     vdW  Elec       q    Type
                         _______ _______ _______ _____ _____    ______ ____

>  <TORSDO>
F 1

$$$$
=
 OpenBabel11052409523D

 26 28  0  0  1  0  0  0  0  0999 V2000
  161.1700  206.1520  151.7260 N   0  0  0  0  0  2  0  0  0  0  0  0
  160.1910  206.8150  156.3500 O   0  0  0  0  0  1  0  0  0  0  0  0
  160.9820  206.9960  152.7720 C   0  0  0  0  0  0  0  0  0  0  0  0
  160.4950  207.3610  155.1070 C   0  0  0  0  0  0  0  0  0  0  0  0
  161.3720  208.8500  151.3250 N   0  0  0  0  0  0  0  0  0  0  0  0
  161.8700  208.5670  148.9320 C   0  0  0  0  0  1  0  0  0  0  0  0
  160.9580  209.4090  157.1800 O   0  0  0  0  0  0  0  0  0  0  0  0
  159.2630  210.5850  156.1270 N   0  0  0  0  0  2  0  0  0  0  0  0
  160.9000  209.2800  153.6410 C   0  0  0  0  0  0  0  0  0  0  0  0
  161.6230  205.8120  149.5330 O   0  0  0  0  0  0  0  0  0  0  0  0
  161.0830  208.3860  152.5720 C   0  0  0  0  0  0  0  0  0  0  0  0
  159.6230  212.1650  154.3300 C   0  0  1  0  0  3  0  0  0  0  0  0
  158.6790  211.1230  154.9110 C   0  0  0  0  0  2  0  0  0  0  0  0
  160.5820  208.7610  154.9330 C   0  0  0  0  0  0  0  0  0  0  0  0
  161.5590  208.0050  150.2770 C   0  0  0  0  0  0  0  0  0  0  0  0
  161.4550  206.6210  150.4830 C   0  0  0  0  0  0  0  0  0  0  0  0
  161.0000  211.6670  154.2720 N   0  0  0  0  0  2  0  0  0  0  0  0
  160.6950  206.4940  154.0350 C   0  0  0  0  0  3  0  0  0  0  0  0
  161.0750  210.6460  153.3460 O   0  0  0  0  0  0  0  0  0  0  0  0
  160.3130  209.6120  156.1170 C   0  0  0  0  0  0  0  0  0  0  0  0
  159.1540  212.6850  153.0060 C   0  0  0  0  0  0  0  0  0  0  0  0
  157.2780  213.8240  151.7260 C   0  0  0  0  0  0  0  0  0  0  0  0
  159.9090  212.6250  151.9960 O   0  0  0  0  0  0  0  0  0  0  0  0
  157.9080  213.8200  150.6350 O   0  0  0  0  0  0  0  0  0  0  0  0
  157.8540  213.2750  152.9160 N   0  0  0  0  0  2  0  0  0  0  0  0
  155.9130  214.4090  151.7790 C   0  0  0  0  0  1  0  0  0  0  0  0
  1  3  1  0  0  0  0
  3 18  1  0  0  0  0
  4  2  1  0  0  0  0
  5 11  1  0  0  0  0
  6 15  1  0  0  0  0
  9 14  2  0  0  0  0
 10 16  2  0  0  0  0
 11  3  2  0  0  0  0
 11  9  1  0  0  0  0
 12 21  1  6  0  0  0
 12 13  1  0  0  0  0
 13  8  1  0  0  0  0
 14  4  1  0  0  0  0
 14 20  1  0  0  0  0
 15 16  1  0  0  0  0
 15  5  2  0  0  0  0
 16  1  1  0  0  0  0
 17 12  1  0  0  0  0
 18  4  2  0  0  0  0
 19  9  1  0  0  0  0
 19 17  1  0  0  0  0
 20  8  1  0  0  0  0
 20  7  2  0  0  0  0
 22 26  1  0  0  0  0
 22 25  1  0  0  0  0
 23 21  2  0  0  0  0
 24 22  2  0  0  0  0
 25 21  1  0  0  0  0
M  END
>  <MODEL>
3

>  <REMARK>
 VINA RESULT:      -6.8      1.223      1.379
  Name = 
  1 active torsions:
  status: ('A' for Active; 'I' for Inactive)
    1  A    between atoms: C_4  and  C_18
                            x       y       z     vdW  Elec       q    Type
                         _______ _______ _______ _____ _____    ______ ____

>  <TORSDO>
F 1

$$$$
=
 OpenBabel11052409523D

 26 28  0  0  1  0  0  0  0  0999 V2000
  161.6910  207.4730  150.0990 N   0  0  0  0  0  2  0  0  0  0  0  0
  160.7570  205.9450  154.5230 O   0  0  0  0  0  1  0  0  0  0  0  0
  161.4860  207.7480  151.4120 C   0  0  0  0  0  0  0  0  0  0  0  0
  161.0210  207.0040  153.6590 C   0  0  0  0  0  0  0  0  0  0  0  0
  161.7840  210.0690  150.9560 N   0  0  0  0  0  0  0  0  0  0  0  0
  162.2570  210.9140  148.6930 C   0  0  0  0  0  1  0  0  0  0  0  0
  161.4370  207.9160  156.4340 O   0  0  0  0  0  0  0  0  0  0  0  0
  159.6830  209.3700  156.0170 N   0  0  0  0  0  2  0  0  0  0  0  0
  161.3310  209.3920  153.2150 C   0  0  0  0  0  0  0  0  0  0  0  0
  162.1230  208.1750  147.9890 O   0  0  0  0  0  0  0  0  0  0  0  0
  161.5320  209.0820  151.8590 C   0  0  0  0  0  0  0  0  0  0  0  0
  159.9560  211.6040  155.1250 C   0  0  1  0  0  3  0  0  0  0  0  0
  159.0610  210.3740  155.1710 C   0  0  0  0  0  2  0  0  0  0  0  0
  161.0520  208.3350  154.1340 C   0  0  0  0  0  0  0  0  0  0  0  0
  161.9870  209.7940  149.6400 C   0  0  0  0  0  0  0  0  0  0  0  0
  161.9390  208.4630  149.2010 C   0  0  0  0  0  0  0  0  0  0  0  0
  161.3500  211.2410  154.8540 N   0  0  0  0  0  2  0  0  0  0  0  0
  161.2380  206.7200  152.3130 C   0  0  0  0  0  3  0  0  0  0  0  0
  161.4490  210.7500  153.5670 O   0  0  0  0  0  0  0  0  0  0  0  0
  160.7690  208.5500  155.5740 C   0  0  0  0  0  0  0  0  0  0  0  0
  159.4480  212.6440  154.1740 C   0  0  0  0  0  0  0  0  0  0  0  0
  159.4430  213.5000  151.7820 C   0  0  0  0  0  0  0  0  0  0  0  0
  158.6500  213.5350  154.5750 O   0  0  0  0  0  0  0  0  0  0  0  0
  158.6600  214.4530  152.0370 O   0  0  0  0  0  0  0  0  0  0  0  0
  159.8560  212.5870  152.8040 N   0  0  0  0  0  2  0  0  0  0  0  0
  159.9470  213.3200  150.3960 C   0  0  0  0  0  1  0  0  0  0  0  0
  1  3  1  0  0  0  0
  3 11  2  0  0  0  0
  3 18  1  0  0  0  0
  4 14  1  0  0  0  0
  4  2  1  0  0  0  0
  5 11  1  0  0  0  0
  6 15  1  0  0  0  0
  9 19  1  0  0  0  0
  9 14  2  0  0  0  0
 10 16  2  0  0  0  0
 11  9  1  0  0  0  0
 12 21  1  6  0  0  0
 12 13  1  0  0  0  0
 13  8  1  0  0  0  0
 14 20  1  0  0  0  0
 15  5  2  0  0  0  0
 16 15  1  0  0  0  0
 16  1  1  0  0  0  0
 17 12  1  0  0  0  0
 18  4  2  0  0  0  0
 19 17  1  0  0  0  0
 20  8  1  0  0  0  0
 20  7  2  0  0  0  0
 21 23  2  0  0  0  0
 22 24  2  0  0  0  0
 22 25  1  0  0  0  0
 25 21  1  0  0  0  0
 26 22  1  0  0  0  0
M  END
>  <MODEL>
4

>  <REMARK>
 VINA RESULT:      -6.6      1.617      1.874
  Name = 
  1 active torsions:
  status: ('A' for Active; 'I' for Inactive)
    1  A    between atoms: C_4  and  C_18
                            x       y       z     vdW  Elec       q    Type
                         _______ _______ _______ _____ _____    ______ ____

>  <TORSDO>
F 1

$$$$
=
 OpenBabel11052409523D

 26 28  0  0  1  0  0  0  0  0999 V2000
  161.8610  207.5060  150.3090 N   0  0  0  0  0  2  0  0  0  0  0  0
  160.8350  206.3410  154.8220 O   0  0  0  0  0  1  0  0  0  0  0  0
  161.5530  207.8890  151.5740 C   0  0  0  0  0  0  0  0  0  0  0  0
  161.0380  207.3300  153.8640 C   0  0  0  0  0  0  0  0  0  0  0  0
  161.6350  210.1700  150.8870 N   0  0  0  0  0  0  0  0  0  0  0  0
  162.1480  210.8280  148.5720 C   0  0  0  0  0  1  0  0  0  0  0  0
  161.1940  208.5580  156.5410 O   0  0  0  0  0  0  0  0  0  0  0  0
  159.3260  209.7620  155.8890 N   0  0  0  0  0  2  0  0  0  0  0  0
  161.1240  209.6800  153.1820 C   0  0  0  0  0  0  0  0  0  0  0  0
  162.3410  208.0340  148.1580 O   0  0  0  0  0  0  0  0  0  0  0  0
  161.4340  209.2580  151.8770 C   0  0  0  0  0  0  0  0  0  0  0  0
  159.4180  211.9100  154.7770 C   0  0  1  0  0  3  0  0  0  0  0  0
  158.6540  210.6010  154.9130 C   0  0  0  0  0  2  0  0  0  0  0  0
  160.9020  208.6970  154.1940 C   0  0  0  0  0  0  0  0  0  0  0  0
  161.9410  209.7870  149.6190 C   0  0  0  0  0  0  0  0  0  0  0  0
  162.0570  208.4210  149.3230 C   0  0  0  0  0  0  0  0  0  0  0  0
  160.8550  211.6760  154.6120 N   0  0  0  0  0  2  0  0  0  0  0  0
  161.3610  206.9370  152.5670 C   0  0  0  0  0  3  0  0  0  0  0  0
  161.0800  211.0720  153.3920 O   0  0  0  0  0  0  0  0  0  0  0  0
  160.5150  209.0250  155.5880 C   0  0  0  0  0  0  0  0  0  0  0  0
  158.8610  212.7870  153.6980 C   0  0  0  0  0  0  0  0  0  0  0  0
  156.7870  213.8940  152.7330 C   0  0  0  0  0  0  0  0  0  0  0  0
  159.6260  213.2920  152.8300 O   0  0  0  0  0  0  0  0  0  0  0  0
  157.4190  214.4520  151.7980 O   0  0  0  0  0  0  0  0  0  0  0  0
  157.4570  213.0660  153.6890 N   0  0  0  0  0  2  0  0  0  0  0  0
  155.3190  214.0980  152.8470 C   0  0  0  0  0  1  0  0  0  0  0  0
  1  3  1  0  0  0  0
  3 11  2  0  0  0  0
  3 18  1  0  0  0  0
  4 14  1  0  0  0  0
  4  2  1  0  0  0  0
  5 11  1  0  0  0  0
  6 15  1  0  0  0  0
  9 19  1  0  0  0  0
  9 14  2  0  0  0  0
 10 16  2  0  0  0  0
 11  9  1  0  0  0  0
 12 21  1  6  0  0  0
 12 13  1  0  0  0  0
 13  8  1  0  0  0  0
 14 20  1  0  0  0  0
 15  5  2  0  0  0  0
 16 15  1  0  0  0  0
 16  1  1  0  0  0  0
 17 12  1  0  0  0  0
 18  4  2  0  0  0  0
 19 17  1  0  0  0  0
 20  8  1  0  0  0  0
 20  7  2  0  0  0  0
 22 26  1  0  0  0  0
 22 25  1  0  0  0  0
 23 21  2  0  0  0  0
 24 22  2  0  0  0  0
 25 21  1  0  0  0  0
M  END
>  <MODEL>
5

>  <REMARK>
 VINA RESULT:      -6.3      1.874      2.263
  Name = 
  1 active torsions:
  status: ('A' for Active; 'I' for Inactive)
    1  A    between atoms: C_4  and  C_18
                            x       y       z     vdW  Elec       q    Type
                         _______ _______ _______ _____ _____    ______ ____

>  <TORSDO>
F 1

$$$$
=
 OpenBabel11052409523D

 26 28  0  0  1  0  0  0  0  0999 V2000
  159.8800  210.5870  155.0740 N   0  0  0  0  0  2  0  0  0  0  0  0
  160.6120  212.0930  150.6050 O   0  0  0  0  0  1  0  0  0  0  0  0
  160.3880  210.3670  153.8340 C   0  0  0  0  0  0  0  0  0  0  0  0
  160.7770  211.1050  151.5710 C   0  0  0  0  0  0  0  0  0  0  0  0
  161.1610  208.2280  154.5470 N   0  0  0  0  0  0  0  0  0  0  0  0
  160.8020  207.3960  156.8360 C   0  0  0  0  0  1  0  0  0  0  0  0
  162.6610  210.5930  149.3590 O   0  0  0  0  0  0  0  0  0  0  0  0
  161.4660  208.6340  149.0460 N   0  0  0  0  0  2  0  0  0  0  0  0
  161.5880  208.9070  152.2830 C   0  0  0  0  0  0  0  0  0  0  0  0
  159.5120  209.8900  157.1980 O   0  0  0  0  0  0  0  0  0  0  0  0
  161.0460  209.1550  153.5570 C   0  0  0  0  0  0  0  0  0  0  0  0
  161.9950  206.5350  150.1290 C   0  0  1  0  0  3  0  0  0  0  0  0
  160.8810  207.4220  149.5930 C   0  0  0  0  0  2  0  0  0  0  0  0
  161.4360  209.8930  151.2610 C   0  0  0  0  0  0  0  0  0  0  0  0
  160.6510  208.4470  155.7880 C   0  0  0  0  0  0  0  0  0  0  0  0
  159.9940  209.6570  156.0580 C   0  0  0  0  0  0  0  0  0  0  0  0
  162.9230  207.2930  150.9730 N   0  0  0  0  0  2  0  0  0  0  0  0
  160.2620  211.3340  152.8450 C   0  0  0  0  0  3  0  0  0  0  0  0
  162.2720  207.6870  152.1250 O   0  0  0  0  0  0  0  0  0  0  0  0
  161.9150  209.7160  149.8690 C   0  0  0  0  0  0  0  0  0  0  0  0
  161.4690  205.3160  150.8230 C   0  0  0  0  0  0  0  0  0  0  0  0
  160.8640  202.8570  150.6090 C   0  0  0  0  0  0  0  0  0  0  0  0
  161.1770  205.3590  152.0500 O   0  0  0  0  0  0  0  0  0  0  0  0
  160.5180  202.7520  151.8160 O   0  0  0  0  0  0  0  0  0  0  0  0
  161.3370  204.1000  150.0790 N   0  0  0  0  0  2  0  0  0  0  0  0
  160.7790  201.6700  149.7180 C   0  0  0  0  0  1  0  0  0  0  0  0
  1 16  1  0  0  0  0
  2  4  1  0  0  0  0
  3  1  1  0  0  0  0
  4 18  1  0  0  0  0
  5 15  2  0  0  0  0
  7 20  2  0  0  0  0
  8 13  1  0  0  0  0
  8 20  1  0  0  0  0
  9 11  2  0  0  0  0
 11  3  1  0  0  0  0
 11  5  1  0  0  0  0
 12 21  1  1  0  0  0
 12 17  1  0  0  0  0
 13 12  1  0  0  0  0
 14  4  2  0  0  0  0
 14  9  1  0  0  0  0
 15 16  1  0  0  0  0
 15  6  1  0  0  0  0
 16 10  2  0  0  0  0
 17 19  1  0  0  0  0
 18  3  2  0  0  0  0
 19  9  1  0  0  0  0
 20 14  1  0  0  0  0
 21 23  2  0  0  0  0
 22 24  2  0  0  0  0
 25 22  1  0  0  0  0
 25 21  1  0  0  0  0
 26 22  1  0  0  0  0
M  END
>  <MODEL>
6

>  <REMARK>
 VINA RESULT:      -5.7      2.272      7.085
  Name = 
  1 active torsions:
  status: ('A' for Active; 'I' for Inactive)
    1  A    between atoms: C_4  and  C_18
                            x       y       z     vdW  Elec       q    Type
                         _______ _______ _______ _____ _____    ______ ____

>  <TORSDO>
F 1

$$$$
=
 OpenBabel11052409523D

 26 28  0  0  1  0  0  0  0  0999 V2000
  161.9200  208.2050  150.8090 N   0  0  0  0  0  2  0  0  0  0  0  0
  160.4930  207.3040  155.2740 O   0  0  0  0  0  1  0  0  0  0  0  0
  161.4010  208.6480  151.9830 C   0  0  0  0  0  0  0  0  0  0  0  0
  160.6780  208.2230  154.2450 C   0  0  0  0  0  0  0  0  0  0  0  0
  161.2520  210.8450  151.0700 N   0  0  0  0  0  0  0  0  0  0  0  0
  161.9640  211.3650  148.7720 C   0  0  0  0  0  1  0  0  0  0  0  0
  160.3160  209.6940  156.7760 O   0  0  0  0  0  0  0  0  0  0  0  0
  158.3980  210.5390  155.7900 N   0  0  0  0  0  2  0  0  0  0  0  0
  160.5230  210.4890  153.3310 C   0  0  0  0  0  0  0  0  0  0  0  0
  162.5940  208.6060  148.6840 O   0  0  0  0  0  0  0  0  0  0  0  0
  161.0550  210.0050  152.1230 C   0  0  0  0  0  0  0  0  0  0  0  0
  158.3330  212.5690  154.4740 C   0  0  1  0  0  3  0  0  0  0  0  0
  157.7470  211.1760  154.6590 C   0  0  0  0  0  2  0  0  0  0  0  0
  160.3120  209.5780  154.4110 C   0  0  0  0  0  0  0  0  0  0  0  0
  161.7700  210.4020  149.8940 C   0  0  0  0  0  0  0  0  0  0  0  0
  162.1120  209.0480  149.7600 C   0  0  0  0  0  0  0  0  0  0  0  0
  159.7970  212.5410  154.5000 N   0  0  0  0  0  2  0  0  0  0  0  0
  161.2170  207.7700  153.0430 C   0  0  0  0  0  3  0  0  0  0  0  0
  160.2590  211.8710  153.3850 O   0  0  0  0  0  0  0  0  0  0  0  0
  159.7070  209.9660  155.7080 C   0  0  0  0  0  0  0  0  0  0  0  0
  157.8030  213.2520  153.2500 C   0  0  0  0  0  0  0  0  0  0  0  0
  158.2380  213.8920  150.8300 C   0  0  0  0  0  0  0  0  0  0  0  0
  156.6470  213.7580  153.2550 O   0  0  0  0  0  0  0  0  0  0  0  0
  157.1180  214.4520  150.6900 O   0  0  0  0  0  0  0  0  0  0  0  0
  158.6150  213.2900  152.0720 N   0  0  0  0  0  2  0  0  0  0  0  0
  159.1850  213.8560  149.6850 C   0  0  0  0  0  1  0  0  0  0  0  0
  1  3  1  0  0  0  0
  3 11  2  0  0  0  0
  3 18  1  0  0  0  0
  4 14  1  0  0  0  0
  4  2  1  0  0  0  0
  5 11  1  0  0  0  0
  6 15  1  0  0  0  0
  9 19  1  0  0  0  0
  9 14  2  0  0  0  0
 10 16  2  0  0  0  0
 11  9  1  0  0  0  0
 12 21  1  6  0  0  0
 12 17  1  0  0  0  0
 12 13  1  0  0  0  0
 13  8  1  0  0  0  0
 14 20  1  0  0  0  0
 15  5  2  0  0  0  0
 16 15  1  0  0  0  0
 16  1  1  0  0  0  0
 18  4  2  0  0  0  0
 19 17  1  0  0  0  0
 20  8  1  0  0  0  0
 20  7  2  0  0  0  0
 21 23  2  0  0  0  0
 22 25  1  0  0  0  0
 24 22  2  0  0  0  0
 25 21  1  0  0  0  0
 26 22  1  0  0  0  0
M  END
>  <MODEL>
7

>  <REMARK>
 VINA RESULT:      -5.5      1.799      2.057
  Name = 
  1 active torsions:
  status: ('A' for Active; 'I' for Inactive)
    1  A    between atoms: C_4  and  C_18
                            x       y       z     vdW  Elec       q    Type
                         _______ _______ _______ _____ _____    ______ ____

>  <TORSDO>
F 1

$$$$
=
 OpenBabel11052409523D

 26 28  0  0  1  0  0  0  0  0999 V2000
  160.9640  204.6520  149.9740 N   0  0  0  0  0  2  0  0  0  0  0  0
  160.4280  206.5680  154.3120 O   0  0  0  0  0  1  0  0  0  0  0  0
  161.1030  205.7130  150.8090 C   0  0  0  0  0  0  0  0  0  0  0  0
  160.8500  206.7060  152.9930 C   0  0  0  0  0  0  0  0  0  0  0  0
  162.0300  206.9820  149.0160 N   0  0  0  0  0  0  0  0  0  0  0  0
  162.3200  206.0490  146.7580 C   0  0  0  0  0  1  0  0  0  0  0  0
  162.0370  208.8770  154.5990 O   0  0  0  0  0  0  0  0  0  0  0  0
  160.7880  210.2940  153.2600 N   0  0  0  0  0  2  0  0  0  0  0  0
  161.8120  208.0260  151.1680 C   0  0  0  0  0  0  0  0  0  0  0  0
  161.1990  203.7240  147.9200 O   0  0  0  0  0  0  0  0  0  0  0  0
  161.6500  206.9150  150.3210 C   0  0  0  0  0  0  0  0  0  0  0  0
  161.5840  211.2470  151.1820 C   0  0  1  0  0  3  0  0  0  0  0  0
  160.3700  210.7230  151.9370 C   0  0  0  0  0  2  0  0  0  0  0  0
  161.3870  207.9280  152.5290 C   0  0  0  0  0  0  0  0  0  0  0  0
  161.8890  205.9210  148.1790 C   0  0  0  0  0  0  0  0  0  0  0  0
  161.3420  204.7260  148.6700 C   0  0  0  0  0  0  0  0  0  0  0  0
  162.7160  210.3220  151.2820 N   0  0  0  0  0  2  0  0  0  0  0  0
  160.7130  205.6140  152.1380 C   0  0  0  0  0  3  0  0  0  0  0  0
  162.4160  209.1620  150.5970 O   0  0  0  0  0  0  0  0  0  0  0  0
  161.4570  209.0510  153.4950 C   0  0  0  0  0  0  0  0  0  0  0  0
  161.2640  211.5980  149.7610 C   0  0  0  0  0  0  0  0  0  0  0  0
  160.0980  213.2250  148.1960 C   0  0  0  0  0  0  0  0  0  0  0  0
  161.7150  210.8940  148.8160 O   0  0  0  0  0  0  0  0  0  0  0  0
  160.4610  212.6130  147.1560 O   0  0  0  0  0  0  0  0  0  0  0  0
  160.4710  212.7590  149.4980 N   0  0  0  0  0  2  0  0  0  0  0  0
  159.2680  214.4510  148.0710 C   0  0  0  0  0  1  0  0  0  0  0  0
  1  3  1  0  0  0  0
  3 18  1  0  0  0  0
  4  2  1  0  0  0  0
  5 11  1  0  0  0  0
  6 15  1  0  0  0  0
  8 20  1  0  0  0  0
  9 14  2  0  0  0  0
 10 16  2  0  0  0  0
 11  3  2  0  0  0  0
 11  9  1  0  0  0  0
 12 21  1  6  0  0  0
 12 17  1  0  0  0  0
 12 13  1  0  0  0  0
 13  8  1  0  0  0  0
 14  4  1  0  0  0  0
 14 20  1  0  0  0  0
 15 16  1  0  0  0  0
 15  5  2  0  0  0  0
 16  1  1  0  0  0  0
 18  4  2  0  0  0  0
 19  9  1  0  0  0  0
 19 17  1  0  0  0  0
 20  7  2  0  0  0  0
 22 25  1  0  0  0  0
 23 21  2  0  0  0  0
 24 22  2  0  0  0  0
 25 21  1  0  0  0  0
 26 22  1  0  0  0  0
M  END
>  <MODEL>
8

>  <REMARK>
 VINA RESULT:      -5.2      2.239      2.714
  Name = 
  1 active torsions:
  status: ('A' for Active; 'I' for Inactive)
    1  A    between atoms: C_4  and  C_18
                            x       y       z     vdW  Elec       q    Type
                         _______ _______ _______ _____ _____    ______ ____

>  <TORSDO>
F 1

$$$$
=
 OpenBabel11052409523D

 26 28  0  0  1  0  0  0  0  0999 V2000
  161.7020  201.8070  147.4200 N   0  0  0  0  0  2  0  0  0  0  0  0
  162.4870  206.0250  145.3300 O   0  0  0  0  0  1  0  0  0  0  0  0
  161.6310  203.1620  147.4590 C   0  0  0  0  0  0  0  0  0  0  0  0
  162.0110  205.3080  146.4240 C   0  0  0  0  0  0  0  0  0  0  0  0
  160.6650  203.0340  149.6340 N   0  0  0  0  0  0  0  0  0  0  0  0
  160.2470  200.8880  150.7630 C   0  0  0  0  0  1  0  0  0  0  0  0
  160.9620  208.0610  146.5680 O   0  0  0  0  0  0  0  0  0  0  0  0
  162.1910  208.2260  148.5230 N   0  0  0  0  0  2  0  0  0  0  0  0
  161.0090  205.2010  148.6560 C   0  0  0  0  0  0  0  0  0  0  0  0
  161.3490  199.7930  148.3960 O   0  0  0  0  0  0  0  0  0  0  0  0
  161.1000  203.7990  148.5960 C   0  0  0  0  0  0  0  0  0  0  0  0
  161.3320  207.6670  150.7160 C   0  0  1  0  0  3  0  0  0  0  0  0
  162.5630  207.6860  149.8190 C   0  0  0  0  0  2  0  0  0  0  0  0
  161.4910  205.9750  147.5560 C   0  0  0  0  0  0  0  0  0  0  0  0
  160.7360  201.6770  149.5970 C   0  0  0  0  0  0  0  0  0  0  0  0
  161.2690  201.0480  148.4610 C   0  0  0  0  0  0  0  0  0  0  0  0
  160.1790  207.0790  150.0290 N   0  0  0  0  0  2  0  0  0  0  0  0
  162.0770  203.9170  146.3820 C   0  0  0  0  0  3  0  0  0  0  0  0
  160.4140  205.7360  149.8140 O   0  0  0  0  0  0  0  0  0  0  0  0
  161.4970  207.4580  147.5350 C   0  0  0  0  0  0  0  0  0  0  0  0
  161.5990  207.0090  152.0360 C   0  0  0  0  0  0  0  0  0  0  0  0
  160.9190  206.8140  154.4760 C   0  0  0  0  0  0  0  0  0  0  0  0
  162.5040  206.1360  152.1390 O   0  0  0  0  0  0  0  0  0  0  0  0
  161.7910  205.9430  154.7350 O   0  0  0  0  0  0  0  0  0  0  0  0
  160.7910  207.3660  153.1620 N   0  0  0  0  0  2  0  0  0  0  0  0
  160.0080  207.2790  155.5540 C   0  0  0  0  0  1  0  0  0  0  0  0
  1  3  1  0  0  0  0
  1 16  1  0  0  0  0
  2  4  1  0  0  0  0
  3 11  1  0  0  0  0
  4 14  2  0  0  0  0
  7 20  2  0  0  0  0
  8 13  1  0  0  0  0
  9 19  1  0  0  0  0
 10 16  2  0  0  0  0
 11  9  2  0  0  0  0
 11  5  1  0  0  0  0
 12 21  1  1  0  0  0
 13 12  1  0  0  0  0
 14  9  1  0  0  0  0
 15  5  2  0  0  0  0
 15  6  1  0  0  0  0
 16 15  1  0  0  0  0
 17 12  1  0  0  0  0
 18  4  1  0  0  0  0
 18  3  2  0  0  0  0
 19 17  1  0  0  0  0
 20 14  1  0  0  0  0
 20  8  1  0  0  0  0
 21 23  2  0  0  0  0
 21 25  1  0  0  0  0
 22 24  2  0  0  0  0
 22 26  1  0  0  0  0
 25 22  1  0  0  0  0
M  END
>  <MODEL>
9

>  <REMARK>
 VINA RESULT:      -4.9      3.919      7.354
  Name = 
  1 active torsions:
  status: ('A' for Active; 'I' for Inactive)
    1  A    between atoms: C_4  and  C_18
                            x       y       z     vdW  Elec       q    Type
                         _______ _______ _______ _____ _____    ______ ____

>  <TORSDO>
F 1

$$$$
