=
 OpenBabel11042421053D

 36 40  0  0  1  0  0  0  0  0999 V2000
  160.8080  203.0850  151.5620 C   0  0  0  0  0  2  0  0  0  0  0  0
  161.3260  202.3070  147.9450 C   0  0  0  0  0  0  0  0  0  0  0  0
  161.3260  204.2780  149.5640 C   0  0  2  0  0  3  0  0  0  0  0  0
  160.7610  205.3800  148.6690 C   0  0  0  0  0  2  0  0  0  0  0  0
  161.6960  206.7660  150.6490 C   0  0  1  0  0  3  0  0  0  0  0  0
  160.6050  202.1490  150.3690 C   0  0  0  0  0  2  0  0  0  0  0  0
  160.9650  202.9250  149.1890 N   0  0  0  0  0  0  0  0  0  0  0  0
  161.0280  201.1020  147.7310 O   0  0  0  0  0  0  0  0  0  0  0  0
  160.7280  204.4540  150.9290 C   0  0  2  0  0  3  0  0  0  0  0  0
  161.4080  205.6150  151.6460 C   0  0  0  0  0  2  0  0  0  0  0  0
  160.7990  206.7530  149.3840 C   0  0  0  0  0  2  0  0  0  0  0  0
  160.8010  211.0890  154.7220 N   0  0  0  0  0  1  0  0  0  0  0  0
  161.3470  208.3500  152.5890 C   0  0  0  0  0  0  0  0  0  0  0  0
  161.7860  209.2960  150.7450 C   0  0  0  0  0  0  0  0  0  0  0  0
  160.8020  208.5650  154.6740 C   0  0  0  0  0  0  0  0  0  0  0  0
  161.6420  208.0640  151.3120 N   0  0  0  0  0  0  0  0  0  0  0  0
  161.5710  210.3120  151.6920 C   0  0  0  0  0  3  0  0  0  0  0  0
  161.3100  209.6370  152.8230 N   0  0  0  0  0  0  0  0  0  0  0  0
  161.0340  207.5760  153.6970 C   0  0  0  0  0  3  0  0  0  0  0  0
  160.9800  209.8210  154.0980 C   0  0  0  0  0  0  0  0  0  0  0  0
  160.1170  208.1010  157.1330 N   0  0  0  0  0  0  0  0  0  0  0  0
  160.4220  208.3080  156.0360 C   0  0  0  0  0  0  0  0  0  0  0  0
  162.0620  209.5270  149.2980 C   0  0  0  0  0  2  0  0  0  0  0  0
  162.3670  210.9950  149.0590 C   0  0  0  0  0  2  0  0  0  0  0  0
  161.5100  211.5100  148.0050 N   0  0  0  0  0  2  0  0  0  0  0  0
  161.1270  212.8590  148.3870 C   0  0  0  0  0  2  0  0  0  0  0  0
  161.7140  213.8620  147.4100 C   0  0  1  0  0  3  0  0  0  0  0  0
  162.8670  214.4190  147.9580 O   0  0  0  0  0  1  0  0  0  0  0  0
  162.0610  213.1750  146.1030 C   0  0  0  0  0  1  0  0  0  0  0  0
  162.0910  203.0590  146.9020 C   0  0  0  0  0  2  0  0  0  0  0  0
  161.3410  203.0970  145.6540 N   0  0  0  0  0  0  0  0  0  0  0  0
  161.9130  205.5250  145.1160 C   0  0  0  0  0  1  0  0  0  0  0  0
  159.2350  203.0880  144.2560 C   0  0  0  0  0  2  0  0  0  0  0  0
  159.9940  204.3300  144.2560 N   0  0  0  0  0  0  0  0  0  0  0  0
  161.0520  204.3160  144.9880 C   0  0  0  0  0  0  0  0  0  0  0  0
  160.1580  201.8560  145.2460 S   0  0  0  0  0  0  0  0  0  0  0  0
  2  7  1  0  0  0  0
  3  4  1  6  0  0  0
  3  9  1  0  0  0  0
  4 11  1  0  0  0  0
  5 11  1  6  0  0  0
  5 16  1  0  0  0  0
  5 10  1  0  0  0  0
  6  1  1  0  0  0  0
  7  3  1  0  0  0  0
  7  6  1  0  0  0  0
  8  2  2  0  0  0  0
  9  1  1  1  0  0  0
  9 10  1  0  0  0  0
 13 18  1  0  0  0  0
 13 19  2  0  0  0  0
 14 16  1  0  0  0  0
 14 17  2  0  0  0  0
 15 22  1  0  0  0  0
 16 13  1  0  0  0  0
 17 18  1  0  0  0  0
 18 20  1  0  0  0  0
 19 15  1  0  0  0  0
 20 15  2  0  0  0  0
 20 12  1  0  0  0  0
 22 21  3  0  0  0  0
 23 14  1  0  0  0  0
 24 23  1  0  0  0  0
 25 26  1  0  0  0  0
 25 24  1  0  0  0  0
 27 29  1  6  0  0  0
 27 28  1  0  0  0  0
 27 26  1  0  0  0  0
 30  2  1  0  0  0  0
 31 30  1  0  0  0  0
 33 36  1  0  0  0  0
 34 33  1  0  0  0  0
 34 35  2  0  0  0  0
 35 32  1  0  0  0  0
 35 31  1  0  0  0  0
 36 31  1  0  0  0  0
M  END
>  <MODEL>
1

>  <REMARK>
 VINA RESULT:      -8.5      0.000      0.000
  Name = 
  9 active torsions:
  status: ('A' for Active; 'I' for Inactive)
    1  A    between atoms: N_1  and  C_4
    2  A    between atoms: N_1  and  C_25
    3  A    between atoms: N_2  and  C_5
    4  A    between atoms: C_4  and  C_28
    5  A    between atoms: C_5  and  C_6
    6  A    between atoms: C_10  and  C_14
    7  A    between atoms: C_10  and  C_25
    8  A    between atoms: C_15  and  N_18
    9  A    between atoms: C_16  and  C_34
                            x       y       z     vdW  Elec       q    Type
                         _______ _______ _______ _____ _____    ______ ____

>  <TORSDO>
F 9

$$$$
=
 OpenBabel11042421053D

 36 40  0  0  1  0  0  0  0  0999 V2000
  160.6350  206.9660  154.9220 C   0  0  0  0  0  2  0  0  0  0  0  0
  160.6410  210.5410  156.0030 C   0  0  0  0  0  0  0  0  0  0  0  0
  160.9070  209.1070  153.9110 C   0  0  2  0  0  3  0  0  0  0  0  0
  161.9430  209.9230  153.1390 C   0  0  0  0  0  2  0  0  0  0  0  0
  161.0900  208.3130  151.2950 C   0  0  1  0  0  3  0  0  0  0  0  0
  160.7820  208.0120  156.0290 C   0  0  0  0  0  2  0  0  0  0  0  0
  160.9150  209.2940  155.3480 N   0  0  0  0  0  0  0  0  0  0  0  0
  160.6010  210.5970  157.2610 O   0  0  0  0  0  0  0  0  0  0  0  0
  161.2460  207.6570  153.7260 C   0  0  2  0  0  3  0  0  0  0  0  0
  160.8150  207.1990  152.3380 C   0  0  0  0  0  2  0  0  0  0  0  0
  162.1760  209.3340  151.7250 C   0  0  0  0  0  2  0  0  0  0  0  0
  161.9660  204.4430  146.7870 N   0  0  0  0  0  1  0  0  0  0  0  0
  161.2520  206.4860  149.5550 C   0  0  0  0  0  0  0  0  0  0  0  0
  161.9980  208.3670  148.9310 C   0  0  0  0  0  0  0  0  0  0  0  0
  160.9660  204.3870  149.1040 C   0  0  0  0  0  0  0  0  0  0  0  0
  161.3960  207.7470  149.9860 N   0  0  0  0  0  0  0  0  0  0  0  0
  162.2120  207.4650  147.8750 C   0  0  0  0  0  3  0  0  0  0  0  0
  161.7090  206.3110  148.3420 N   0  0  0  0  0  0  0  0  0  0  0  0
  160.7610  205.3250  150.1350 C   0  0  0  0  0  3  0  0  0  0  0  0
  161.5520  205.0310  148.0170 C   0  0  0  0  0  0  0  0  0  0  0  0
  160.3760  201.8640  149.2420 N   0  0  0  0  0  0  0  0  0  0  0  0
  160.6390  202.9900  149.1800 C   0  0  0  0  0  0  0  0  0  0  0  0
  162.4340  209.7940  148.9330 C   0  0  0  0  0  2  0  0  0  0  0  0
  161.3770  210.6560  148.2680 C   0  0  0  0  0  2  0  0  0  0  0  0
  161.5600  212.0450  148.6550 N   0  0  0  0  0  2  0  0  0  0  0  0
  162.4260  212.6550  147.6590 C   0  0  0  0  0  2  0  0  0  0  0  0
  161.6370  212.9530  146.3980 C   0  0  1  0  0  3  0  0  0  0  0  0
  160.7020  213.9510  146.6630 O   0  0  0  0  0  1  0  0  0  0  0  0
  162.5710  213.4210  145.2970 C   0  0  0  0  0  1  0  0  0  0  0  0
  160.3600  211.7830  155.2160 C   0  0  0  0  0  2  0  0  0  0  0  0
  158.9920  211.7640  154.7130 N   0  0  0  0  0  0  0  0  0  0  0  0
  159.5790  212.7100  152.4170 C   0  0  0  0  0  1  0  0  0  0  0  0
  156.5850  212.5280  154.6190 C   0  0  0  0  0  2  0  0  0  0  0  0
  157.3940  212.8270  153.4470 N   0  0  0  0  0  0  0  0  0  0  0  0
  158.6200  212.4430  153.5250 C   0  0  0  0  0  0  0  0  0  0  0  0
  157.6120  211.5670  155.7900 S   0  0  0  0  0  0  0  0  0  0  0  0
  1  6  1  0  0  0  0
  2  8  2  0  0  0  0
  3  4  1  6  0  0  0
  3  7  1  0  0  0  0
  5 16  1  6  0  0  0
  5 11  1  0  0  0  0
  5 10  1  0  0  0  0
  7  2  1  0  0  0  0
  7  6  1  0  0  0  0
  9 10  1  6  0  0  0
  9  3  1  0  0  0  0
  9  1  1  0  0  0  0
 11  4  1  0  0  0  0
 12 20  1  0  0  0  0
 13 16  1  0  0  0  0
 13 19  2  0  0  0  0
 14 23  1  0  0  0  0
 14 16  1  0  0  0  0
 15 22  1  0  0  0  0
 15 19  1  0  0  0  0
 17 18  1  0  0  0  0
 17 14  2  0  0  0  0
 18 13  1  0  0  0  0
 20 18  1  0  0  0  0
 20 15  2  0  0  0  0
 22 21  3  0  0  0  0
 24 25  1  0  0  0  0
 24 23  1  0  0  0  0
 26 25  1  0  0  0  0
 27 29  1  6  0  0  0
 27 28  1  0  0  0  0
 27 26  1  0  0  0  0
 30  2  1  0  0  0  0
 31 30  1  0  0  0  0
 31 36  1  0  0  0  0
 32 35  1  0  0  0  0
 33 36  1  0  0  0  0
 34 35  2  0  0  0  0
 34 33  1  0  0  0  0
 35 31  1  0  0  0  0
M  END
>  <MODEL>
2

>  <REMARK>
 VINA RESULT:      -8.3      3.710      7.912
  Name = 
  9 active torsions:
  status: ('A' for Active; 'I' for Inactive)
    1  A    between atoms: N_1  and  C_4
    2  A    between atoms: N_1  and  C_25
    3  A    between atoms: N_2  and  C_5
    4  A    between atoms: C_4  and  C_28
    5  A    between atoms: C_5  and  C_6
    6  A    between atoms: C_10  and  C_14
    7  A    between atoms: C_10  and  C_25
    8  A    between atoms: C_15  and  N_18
    9  A    between atoms: C_16  and  C_34
                            x       y       z     vdW  Elec       q    Type
                         _______ _______ _______ _____ _____    ______ ____

>  <TORSDO>
F 9

$$$$
=
 OpenBabel11042421053D

 36 40  0  0  1  0  0  0  0  0999 V2000
  162.3220  210.0590  149.2570 C   0  0  0  0  0  2  0  0  0  0  0  0
  161.5570  206.4230  148.8780 C   0  0  0  0  0  0  0  0  0  0  0  0
  161.2400  208.3500  150.5190 C   0  0  2  0  0  3  0  0  0  0  0  0
  161.3630  207.6110  151.8500 C   0  0  0  0  0  2  0  0  0  0  0  0
  160.3600  209.8740  152.6180 C   0  0  1  0  0  3  0  0  0  0  0  0
  162.6100  208.7100  148.5960 C   0  0  0  0  0  2  0  0  0  0  0  0
  161.9000  207.7170  149.3940 N   0  0  0  0  0  0  0  0  0  0  0  0
  162.1380  205.9800  147.8520 O   0  0  0  0  0  0  0  0  0  0  0  0
  161.9450  209.6670  150.6660 C   0  0  2  0  0  3  0  0  0  0  0  0
  161.0780  210.6290  151.4700 C   0  0  0  0  0  2  0  0  0  0  0  0
  161.0510  208.5510  153.0410 C   0  0  0  0  0  2  0  0  0  0  0  0
  158.0740  213.9780  156.3600 N   0  0  0  0  0  1  0  0  0  0  0  0
  159.1110  211.5450  154.0470 C   0  0  0  0  0  0  0  0  0  0  0  0
  161.0220  211.0070  154.7850 C   0  0  0  0  0  0  0  0  0  0  0  0
  157.3500  212.7890  154.2540 C   0  0  0  0  0  0  0  0  0  0  0  0
  160.1500  210.7430  153.7710 N   0  0  0  0  0  0  0  0  0  0  0  0
  160.4960  211.9720  155.6600 C   0  0  0  0  0  3  0  0  0  0  0  0
  159.2930  212.2510  155.1330 N   0  0  0  0  0  0  0  0  0  0  0  0
  157.9100  211.8120  153.4060 C   0  0  0  0  0  3  0  0  0  0  0  0
  158.2310  213.0330  155.3050 C   0  0  0  0  0  0  0  0  0  0  0  0
  155.0650  213.9580  153.8790 N   0  0  0  0  0  0  0  0  0  0  0  0
  156.0850  213.4370  154.0470 C   0  0  0  0  0  0  0  0  0  0  0  0
  162.3810  210.4040  154.9020 C   0  0  0  0  0  2  0  0  0  0  0  0
  162.9820  210.7460  156.2530 C   0  0  0  0  0  2  0  0  0  0  0  0
  162.5690  209.7620  157.2390 N   0  0  0  0  0  2  0  0  0  0  0  0
  162.0340  208.6250  156.5090 C   0  0  0  0  0  2  0  0  0  0  0  0
  160.7660  208.1280  157.1780 C   0  0  1  0  0  3  0  0  0  0  0  0
  159.8470  209.1720  157.2610 O   0  0  0  0  0  1  0  0  0  0  0  0
  160.1620  206.9910  156.3740 C   0  0  0  0  0  1  0  0  0  0  0  0
  160.4860  205.5960  149.5160 C   0  0  0  0  0  2  0  0  0  0  0  0
  161.0640  204.4120  150.1390 N   0  0  0  0  0  0  0  0  0  0  0  0
  160.8500  202.9350  148.0700 C   0  0  0  0  0  1  0  0  0  0  0  0
  161.0950  202.4680  151.7540 C   0  0  0  0  0  2  0  0  0  0  0  0
  161.0060  202.1230  150.3430 N   0  0  0  0  0  0  0  0  0  0  0  0
  160.9750  203.1290  149.5410 C   0  0  0  0  0  0  0  0  0  0  0  0
  161.2570  204.2860  151.8860 S   0  0  0  0  0  0  0  0  0  0  0  0
  2  7  1  0  0  0  0
  2 30  1  0  0  0  0
  3  9  1  0  0  0  0
  3  4  1  1  0  0  0
  4 11  1  0  0  0  0
  5 10  1  6  0  0  0
  5 11  1  0  0  0  0
  5 16  1  0  0  0  0
  6  1  1  0  0  0  0
  6  7  1  0  0  0  0
  7  3  1  0  0  0  0
  8  2  2  0  0  0  0
  9  1  1  6  0  0  0
  9 10  1  0  0  0  0
 13 18  1  0  0  0  0
 14 23  1  0  0  0  0
 14 17  2  0  0  0  0
 15 20  2  0  0  0  0
 16 13  1  0  0  0  0
 16 14  1  0  0  0  0
 18 20  1  0  0  0  0
 18 17  1  0  0  0  0
 19 13  2  0  0  0  0
 19 15  1  0  0  0  0
 20 12  1  0  0  0  0
 21 22  3  0  0  0  0
 22 15  1  0  0  0  0
 23 24  1  0  0  0  0
 24 25  1  0  0  0  0
 26 27  1  0  0  0  0
 26 25  1  0  0  0  0
 27 29  1  6  0  0  0
 27 28  1  0  0  0  0
 30 31  1  0  0  0  0
 31 36  1  0  0  0  0
 32 35  1  0  0  0  0
 33 36  1  0  0  0  0
 34 33  1  0  0  0  0
 35 31  1  0  0  0  0
 35 34  2  0  0  0  0
M  END
>  <MODEL>
3

>  <REMARK>
 VINA RESULT:      -7.5      3.421      6.422
  Name = 
  9 active torsions:
  status: ('A' for Active; 'I' for Inactive)
    1  A    between atoms: N_1  and  C_4
    2  A    between atoms: N_1  and  C_25
    3  A    between atoms: N_2  and  C_5
    4  A    between atoms: C_4  and  C_28
    5  A    between atoms: C_5  and  C_6
    6  A    between atoms: C_10  and  C_14
    7  A    between atoms: C_10  and  C_25
    8  A    between atoms: C_15  and  N_18
    9  A    between atoms: C_16  and  C_34
                            x       y       z     vdW  Elec       q    Type
                         _______ _______ _______ _____ _____    ______ ____

>  <TORSDO>
F 9

$$$$
=
 OpenBabel11042421053D

 36 40  0  0  1  0  0  0  0  0999 V2000
  159.6490  211.7250  152.7270 C   0  0  0  0  0  2  0  0  0  0  0  0
  160.9260  213.2030  149.5430 C   0  0  0  0  0  0  0  0  0  0  0  0
  160.8320  210.9820  150.7950 C   0  0  2  0  0  3  0  0  0  0  0  0
  162.1750  210.3750  150.3970 C   0  0  0  0  0  2  0  0  0  0  0  0
  160.9610  208.3100  151.3870 C   0  0  1  0  0  3  0  0  0  0  0  0
  160.0750  212.9500  151.9170 C   0  0  0  0  0  2  0  0  0  0  0  0
  160.7630  212.4290  150.7410 N   0  0  0  0  0  0  0  0  0  0  0  0
  160.7820  214.4530  149.5770 O   0  0  0  0  0  0  0  0  0  0  0  0
  160.6000  210.6560  152.2410 C   0  0  2  0  0  3  0  0  0  0  0  0
  160.1710  209.2000  152.3800 C   0  0  0  0  0  2  0  0  0  0  0  0
  162.3070  208.9220  150.9150 C   0  0  0  0  0  2  0  0  0  0  0  0
  161.3260  202.3370  151.8860 N   0  0  0  0  0  1  0  0  0  0  0  0
  161.1710  205.7930  151.2750 C   0  0  0  0  0  0  0  0  0  0  0  0
  161.2750  206.6010  153.2300 C   0  0  0  0  0  0  0  0  0  0  0  0
  161.1120  204.0270  150.0230 C   0  0  0  0  0  0  0  0  0  0  0  0
  161.1580  206.9680  151.9210 N   0  0  0  0  0  0  0  0  0  0  0  0
  161.3540  205.2040  153.3540 C   0  0  0  0  0  3  0  0  0  0  0  0
  161.2910  204.7720  152.0840 N   0  0  0  0  0  0  0  0  0  0  0  0
  161.0450  205.4320  149.9410 C   0  0  0  0  0  3  0  0  0  0  0  0
  161.2620  203.6580  151.3580 C   0  0  0  0  0  0  0  0  0  0  0  0
  160.9400  202.4040  148.0060 N   0  0  0  0  0  0  0  0  0  0  0  0
  161.0170  203.1280  148.9060 C   0  0  0  0  0  0  0  0  0  0  0  0
  161.2480  207.5560  154.3750 C   0  0  0  0  0  2  0  0  0  0  0  0
  160.3690  207.0070  155.4840 C   0  0  0  0  0  2  0  0  0  0  0  0
  160.1110  208.0460  156.4670 N   0  0  0  0  0  2  0  0  0  0  0  0
  160.8360  209.2300  156.0370 C   0  0  0  0  0  2  0  0  0  0  0  0
  160.2250  210.4700  156.6650 C   0  0  1  0  0  3  0  0  0  0  0  0
  161.0520  211.5650  156.4240 O   0  0  0  0  0  1  0  0  0  0  0  0
  158.8550  210.7360  156.0690 C   0  0  0  0  0  1  0  0  0  0  0  0
  161.2300  212.5450  148.2340 C   0  0  0  0  0  2  0  0  0  0  0  0
  160.8970  213.4370  147.1310 N   0  0  0  0  0  0  0  0  0  0  0  0
  158.4810  212.6460  146.9160 C   0  0  0  0  0  1  0  0  0  0  0  0
  161.0340  214.2680  144.7470 C   0  0  0  0  0  2  0  0  0  0  0  0
  159.7540  213.7080  145.1550 N   0  0  0  0  0  0  0  0  0  0  0  0
  159.7140  213.2770  146.3670 C   0  0  0  0  0  0  0  0  0  0  0  0
  162.1450  214.2660  146.2020 S   0  0  0  0  0  0  0  0  0  0  0  0
  2  8  2  0  0  0  0
  2  7  1  0  0  0  0
  3  4  1  1  0  0  0
  3  9  1  0  0  0  0
  4 11  1  0  0  0  0
  5 11  1  1  0  0  0
  5 16  1  0  0  0  0
  5 10  1  0  0  0  0
  6  1  1  0  0  0  0
  7  3  1  0  0  0  0
  7  6  1  0  0  0  0
  9 10  1  6  0  0  0
  9  1  1  0  0  0  0
 13 16  1  0  0  0  0
 13 18  1  0  0  0  0
 14 17  2  0  0  0  0
 14 23  1  0  0  0  0
 15 20  2  0  0  0  0
 16 14  1  0  0  0  0
 18 17  1  0  0  0  0
 19 15  1  0  0  0  0
 19 13  2  0  0  0  0
 20 12  1  0  0  0  0
 20 18  1  0  0  0  0
 21 22  3  0  0  0  0
 22 15  1  0  0  0  0
 23 24  1  0  0  0  0
 24 25  1  0  0  0  0
 26 25  1  0  0  0  0
 26 27  1  0  0  0  0
 27 29  1  6  0  0  0
 28 27  1  0  0  0  0
 30  2  1  0  0  0  0
 31 30  1  0  0  0  0
 33 34  1  0  0  0  0
 33 36  1  0  0  0  0
 34 35  2  0  0  0  0
 35 32  1  0  0  0  0
 35 31  1  0  0  0  0
 36 31  1  0  0  0  0
M  END
>  <MODEL>
4

>  <REMARK>
 VINA RESULT:      -7.4      3.740      8.291
  Name = 
  9 active torsions:
  status: ('A' for Active; 'I' for Inactive)
    1  A    between atoms: N_1  and  C_4
    2  A    between atoms: N_1  and  C_25
    3  A    between atoms: N_2  and  C_5
    4  A    between atoms: C_4  and  C_28
    5  A    between atoms: C_5  and  C_6
    6  A    between atoms: C_10  and  C_14
    7  A    between atoms: C_10  and  C_25
    8  A    between atoms: C_15  and  N_18
    9  A    between atoms: C_16  and  C_34
                            x       y       z     vdW  Elec       q    Type
                         _______ _______ _______ _____ _____    ______ ____

>  <TORSDO>
F 9

$$$$
=
 OpenBabel11042421053D

 36 40  0  0  1  0  0  0  0  0999 V2000
  162.2190  210.3440  149.7410 C   0  0  0  0  0  2  0  0  0  0  0  0
  161.5120  206.7250  149.1450 C   0  0  0  0  0  0  0  0  0  0  0  0
  161.2210  208.5300  150.9230 C   0  0  2  0  0  3  0  0  0  0  0  0
  161.4090  207.7070  152.1960 C   0  0  0  0  0  2  0  0  0  0  0  0
  160.3920  209.8900  153.1520 C   0  0  1  0  0  3  0  0  0  0  0  0
  162.5070  209.0500  148.9790 C   0  0  0  0  0  2  0  0  0  0  0  0
  161.8490  207.9900  149.7340 N   0  0  0  0  0  0  0  0  0  0  0  0
  162.0620  206.3650  148.0700 O   0  0  0  0  0  0  0  0  0  0  0  0
  161.9040  209.8490  151.1330 C   0  0  2  0  0  3  0  0  0  0  0  0
  161.0500  210.7360  152.0320 C   0  0  0  0  0  2  0  0  0  0  0  0
  161.1250  208.5570  153.4580 C   0  0  0  0  0  2  0  0  0  0  0  0
  158.1520  213.6540  157.2610 N   0  0  0  0  0  1  0  0  0  0  0  0
  159.1580  211.4160  154.7460 C   0  0  0  0  0  0  0  0  0  0  0  0
  161.1220  210.9070  155.3540 C   0  0  0  0  0  0  0  0  0  0  0  0
  157.3660  212.5750  155.1190 C   0  0  0  0  0  0  0  0  0  0  0  0
  160.2090  210.6750  154.3680 N   0  0  0  0  0  0  0  0  0  0  0  0
  160.6060  211.7930  156.3160 C   0  0  0  0  0  3  0  0  0  0  0  0
  159.3680  212.0580  155.8660 N   0  0  0  0  0  0  0  0  0  0  0  0
  157.9170  211.6770  154.1820 C   0  0  0  0  0  3  0  0  0  0  0  0
  158.2890  212.7860  156.1400 C   0  0  0  0  0  0  0  0  0  0  0  0
  155.0250  213.6780  154.9320 N   0  0  0  0  0  0  0  0  0  0  0  0
  156.0700  213.1850  155.0150 C   0  0  0  0  0  0  0  0  0  0  0  0
  162.5050  210.3500  155.3670 C   0  0  0  0  0  2  0  0  0  0  0  0
  163.2920  210.9510  156.5180 C   0  0  0  0  0  2  0  0  0  0  0  0
  164.6140  211.3420  156.0590 N   0  0  0  0  0  2  0  0  0  0  0  0
  165.3400  211.8350  157.2180 C   0  0  0  0  0  2  0  0  0  0  0  0
  166.5200  212.6780  156.7720 C   0  0  1  0  0  3  0  0  0  0  0  0
  166.6140  212.6420  155.3820 O   0  0  0  0  0  1  0  0  0  0  0  0
  166.3370  214.1140  157.2240 C   0  0  0  0  0  1  0  0  0  0  0  0
  160.4830  205.8330  149.7640 C   0  0  0  0  0  2  0  0  0  0  0  0
  161.1090  204.6250  150.2860 N   0  0  0  0  0  0  0  0  0  0  0  0
  161.1670  203.4090  148.0430 C   0  0  0  0  0  1  0  0  0  0  0  0
  161.1800  202.4990  151.6520 C   0  0  0  0  0  2  0  0  0  0  0  0
  161.2220  202.3300  150.2070 N   0  0  0  0  0  0  0  0  0  0  0  0
  161.1680  203.4250  149.5330 C   0  0  0  0  0  0  0  0  0  0  0  0
  161.1830  204.2930  152.0150 S   0  0  0  0  0  0  0  0  0  0  0  0
  2  7  1  0  0  0  0
  2 30  1  0  0  0  0
  3  9  1  0  0  0  0
  3  4  1  1  0  0  0
  4 11  1  0  0  0  0
  5 10  1  6  0  0  0
  5 11  1  0  0  0  0
  5 16  1  0  0  0  0
  6  7  1  0  0  0  0
  6  1  1  0  0  0  0
  7  3  1  0  0  0  0
  8  2  2  0  0  0  0
  9  1  1  6  0  0  0
  9 10  1  0  0  0  0
 13 18  1  0  0  0  0
 14 23  1  0  0  0  0
 14 17  2  0  0  0  0
 15 20  2  0  0  0  0
 16 13  1  0  0  0  0
 16 14  1  0  0  0  0
 18 20  1  0  0  0  0
 18 17  1  0  0  0  0
 19 13  2  0  0  0  0
 19 15  1  0  0  0  0
 20 12  1  0  0  0  0
 21 22  3  0  0  0  0
 22 15  1  0  0  0  0
 23 24  1  0  0  0  0
 25 24  1  0  0  0  0
 25 26  1  0  0  0  0
 27 26  1  0  0  0  0
 27 29  1  6  0  0  0
 28 27  1  0  0  0  0
 30 31  1  0  0  0  0
 31 36  1  0  0  0  0
 32 35  1  0  0  0  0
 33 36  1  0  0  0  0
 34 33  1  0  0  0  0
 35 34  2  0  0  0  0
 35 31  1  0  0  0  0
M  END
>  <MODEL>
5

>  <REMARK>
 VINA RESULT:      -6.9      3.783      6.344
  Name = 
  9 active torsions:
  status: ('A' for Active; 'I' for Inactive)
    1  A    between atoms: N_1  and  C_4
    2  A    between atoms: N_1  and  C_25
    3  A    between atoms: N_2  and  C_5
    4  A    between atoms: C_4  and  C_28
    5  A    between atoms: C_5  and  C_6
    6  A    between atoms: C_10  and  C_14
    7  A    between atoms: C_10  and  C_25
    8  A    between atoms: C_15  and  N_18
    9  A    between atoms: C_16  and  C_34
                            x       y       z     vdW  Elec       q    Type
                         _______ _______ _______ _____ _____    ______ ____

>  <TORSDO>
F 9

$$$$
=
 OpenBabel11042421053D

 36 40  0  0  1  0  0  0  0  0999 V2000
  161.6980  210.6290  151.4860 C   0  0  0  0  0  2  0  0  0  0  0  0
  161.5010  212.0550  148.0390 C   0  0  0  0  0  0  0  0  0  0  0  0
  161.5280  209.8120  149.2530 C   0  0  2  0  0  3  0  0  0  0  0  0
  162.2990  208.9570  148.2490 C   0  0  0  0  0  2  0  0  0  0  0  0
  161.3020  207.1380  149.8030 C   0  0  1  0  0  3  0  0  0  0  0  0
  161.9320  211.7940  150.5230 C   0  0  0  0  0  2  0  0  0  0  0  0
  161.7870  211.2370  149.1830 N   0  0  0  0  0  0  0  0  0  0  0  0
  161.6950  213.2990  148.0920 O   0  0  0  0  0  0  0  0  0  0  0  0
  161.9890  209.4210  150.6270 C   0  0  2  0  0  3  0  0  0  0  0  0
  161.3580  208.0910  151.0240 C   0  0  0  0  0  2  0  0  0  0  0  0
  162.3260  207.4710  148.6870 C   0  0  0  0  0  2  0  0  0  0  0  0
  161.1900  201.1330  149.8070 N   0  0  0  0  0  1  0  0  0  0  0  0
  161.2910  204.6300  149.4800 C   0  0  0  0  0  0  0  0  0  0  0  0
  161.5830  205.2610  151.4810 C   0  0  0  0  0  0  0  0  0  0  0  0
  161.0050  202.9850  148.1010 C   0  0  0  0  0  0  0  0  0  0  0  0
  161.4170  205.7440  150.2160 N   0  0  0  0  0  0  0  0  0  0  0  0
  161.5510  203.8560  151.4890 C   0  0  0  0  0  3  0  0  0  0  0  0
  161.3730  203.5390  150.1970 N   0  0  0  0  0  0  0  0  0  0  0  0
  161.0520  204.3930  148.1350 C   0  0  0  0  0  3  0  0  0  0  0  0
  161.2050  202.4950  149.3900 C   0  0  0  0  0  0  0  0  0  0  0  0
  160.5720  201.5550  145.9800 N   0  0  0  0  0  0  0  0  0  0  0  0
  160.7650  202.1930  146.9270 C   0  0  0  0  0  0  0  0  0  0  0  0
  161.7090  206.1160  152.6970 C   0  0  0  0  0  2  0  0  0  0  0  0
  160.9350  205.4950  153.8450 C   0  0  0  0  0  2  0  0  0  0  0  0
  160.4450  206.5400  154.7290 N   0  0  0  0  0  2  0  0  0  0  0  0
  161.2130  207.7390  154.4390 C   0  0  0  0  0  2  0  0  0  0  0  0
  160.9210  208.8070  155.4780 C   0  0  1  0  0  3  0  0  0  0  0  0
  160.4380  209.9490  154.8430 O   0  0  0  0  0  1  0  0  0  0  0  0
  159.8830  208.3050  156.4640 C   0  0  0  0  0  1  0  0  0  0  0  0
  160.9370  211.4630  146.7860 C   0  0  0  0  0  2  0  0  0  0  0  0
  160.5090  212.5180  145.8770 N   0  0  0  0  0  0  0  0  0  0  0  0
  158.1020  212.5880  146.7230 C   0  0  0  0  0  1  0  0  0  0  0  0
  159.9390  213.4860  143.6120 C   0  0  0  0  0  2  0  0  0  0  0  0
  158.8280  213.3410  144.5410 N   0  0  0  0  0  0  0  0  0  0  0  0
  159.1400  212.8300  145.6810 C   0  0  0  0  0  0  0  0  0  0  0  0
  161.4720  212.9790  144.4750 S   0  0  0  0  0  0  0  0  0  0  0  0
  2  8  2  0  0  0  0
  2  7  1  0  0  0  0
  3  4  1  6  0  0  0
  3  9  1  0  0  0  0
  4 11  1  0  0  0  0
  5 11  1  6  0  0  0
  5 16  1  0  0  0  0
  5 10  1  0  0  0  0
  6  1  1  0  0  0  0
  7  3  1  0  0  0  0
  7  6  1  0  0  0  0
  9 10  1  1  0  0  0
  9  1  1  0  0  0  0
 13 18  1  0  0  0  0
 13 16  1  0  0  0  0
 14 17  2  0  0  0  0
 14 23  1  0  0  0  0
 15 19  1  0  0  0  0
 15 20  2  0  0  0  0
 16 14  1  0  0  0  0
 18 17  1  0  0  0  0
 19 13  2  0  0  0  0
 20 12  1  0  0  0  0
 20 18  1  0  0  0  0
 21 22  3  0  0  0  0
 22 15  1  0  0  0  0
 23 24  1  0  0  0  0
 24 25  1  0  0  0  0
 26 25  1  0  0  0  0
 26 27  1  0  0  0  0
 27 29  1  1  0  0  0
 28 27  1  0  0  0  0
 30  2  1  0  0  0  0
 31 30  1  0  0  0  0
 33 36  1  0  0  0  0
 33 34  1  0  0  0  0
 34 35  2  0  0  0  0
 35 31  1  0  0  0  0
 35 32  1  0  0  0  0
 36 31  1  0  0  0  0
M  END
>  <MODEL>
6

>  <REMARK>
 VINA RESULT:      -6.2      3.266      8.201
  Name = 
  9 active torsions:
  status: ('A' for Active; 'I' for Inactive)
    1  A    between atoms: N_1  and  C_4
    2  A    between atoms: N_1  and  C_25
    3  A    between atoms: N_2  and  C_5
    4  A    between atoms: C_4  and  C_28
    5  A    between atoms: C_5  and  C_6
    6  A    between atoms: C_10  and  C_14
    7  A    between atoms: C_10  and  C_25
    8  A    between atoms: C_15  and  N_18
    9  A    between atoms: C_16  and  C_34
                            x       y       z     vdW  Elec       q    Type
                         _______ _______ _______ _____ _____    ______ ____

>  <TORSDO>
F 9

$$$$
=
 OpenBabel11042421053D

 36 40  0  0  1  0  0  0  0  0999 V2000
  160.8030  207.8970  154.5600 C   0  0  0  0  0  2  0  0  0  0  0  0
  160.4570  211.4680  153.5190 C   0  0  0  0  0  0  0  0  0  0  0  0
  160.7800  209.1410  152.5260 C   0  0  2  0  0  3  0  0  0  0  0  0
  161.6760  209.4640  151.3330 C   0  0  0  0  0  2  0  0  0  0  0  0
  160.9210  207.0530  150.7590 C   0  0  1  0  0  3  0  0  0  0  0  0
  160.8850  209.3860  154.8990 C   0  0  0  0  0  2  0  0  0  0  0  0
  160.8380  210.0880  153.6220 N   0  0  0  0  0  0  0  0  0  0  0  0
  160.4740  212.2030  154.5420 O   0  0  0  0  0  0  0  0  0  0  0  0
  161.2710  207.8550  153.1240 C   0  0  2  0  0  3  0  0  0  0  0  0
  160.8260  206.6810  152.2610 C   0  0  0  0  0  2  0  0  0  0  0  0
  161.9040  208.2120  150.4500 C   0  0  0  0  0  2  0  0  0  0  0  0
  161.5820  203.3400  146.0850 N   0  0  0  0  0  1  0  0  0  0  0  0
  161.2260  205.7590  148.6080 C   0  0  0  0  0  0  0  0  0  0  0  0
  161.4790  204.6120  150.3710 C   0  0  0  0  0  0  0  0  0  0  0  0
  161.1230  205.7960  146.4450 C   0  0  0  0  0  0  0  0  0  0  0  0
  161.2240  205.8820  149.9430 N   0  0  0  0  0  0  0  0  0  0  0  0
  161.6280  203.7370  149.2810 C   0  0  0  0  0  3  0  0  0  0  0  0
  161.4630  204.5350  148.2130 N   0  0  0  0  0  0  0  0  0  0  0  0
  160.9890  206.6420  147.5640 C   0  0  0  0  0  3  0  0  0  0  0  0
  161.4130  204.5060  146.8850 C   0  0  0  0  0  0  0  0  0  0  0  0
  160.8310  206.5320  143.9740 N   0  0  0  0  0  0  0  0  0  0  0  0
  160.9610  206.2030  145.0760 C   0  0  0  0  0  0  0  0  0  0  0  0
  161.5200  204.2010  151.8040 C   0  0  0  0  0  2  0  0  0  0  0  0
  160.8300  202.8600  151.9750 C   0  0  0  0  0  2  0  0  0  0  0  0
  161.6900  201.7980  151.4790 N   0  0  0  0  0  2  0  0  0  0  0  0
  160.8340  200.8360  150.8040 C   0  0  0  0  0  2  0  0  0  0  0  0
  160.6560  201.2290  149.3490 C   0  0  1  0  0  3  0  0  0  0  0  0
  161.2500  200.2670  148.5350 O   0  0  0  0  0  1  0  0  0  0  0  0
  159.1800  201.3290  149.0120 C   0  0  0  0  0  1  0  0  0  0  0  0
  159.9980  212.0490  152.2190 C   0  0  0  0  0  2  0  0  0  0  0  0
  158.5950  212.4330  152.3030 N   0  0  0  0  0  0  0  0  0  0  0  0
  158.6220  213.8630  150.1900 C   0  0  0  0  0  1  0  0  0  0  0  0
  156.6150  213.6340  153.3160 C   0  0  0  0  0  2  0  0  0  0  0  0
  157.0350  214.0940  152.0010 N   0  0  0  0  0  0  0  0  0  0  0  0
  158.0550  213.4800  151.5130 C   0  0  0  0  0  0  0  0  0  0  0  0
  157.6590  212.2030  153.7780 S   0  0  0  0  0  0  0  0  0  0  0  0
  1  6  1  0  0  0  0
  2  7  1  0  0  0  0
  2  8  2  0  0  0  0
  3  4  1  6  0  0  0
  3  9  1  0  0  0  0
  3  7  1  0  0  0  0
  5 16  1  6  0  0  0
  5 10  1  0  0  0  0
  7  6  1  0  0  0  0
  9 10  1  6  0  0  0
  9  1  1  0  0  0  0
 11  5  1  0  0  0  0
 11  4  1  0  0  0  0
 12 20  1  0  0  0  0
 13 16  1  0  0  0  0
 14 23  1  0  0  0  0
 15 20  2  0  0  0  0
 15 19  1  0  0  0  0
 16 14  1  0  0  0  0
 17 14  2  0  0  0  0
 18 13  1  0  0  0  0
 18 17  1  0  0  0  0
 19 13  2  0  0  0  0
 20 18  1  0  0  0  0
 21 22  3  0  0  0  0
 22 15  1  0  0  0  0
 23 24  1  0  0  0  0
 25 24  1  0  0  0  0
 26 25  1  0  0  0  0
 27 29  1  6  0  0  0
 27 26  1  0  0  0  0
 28 27  1  0  0  0  0
 30 31  1  0  0  0  0
 30  2  1  0  0  0  0
 31 36  1  0  0  0  0
 32 35  1  0  0  0  0
 33 36  1  0  0  0  0
 34 33  1  0  0  0  0
 35 34  2  0  0  0  0
 35 31  1  0  0  0  0
M  END
>  <MODEL>
7

>  <REMARK>
 VINA RESULT:      -5.6      3.385      9.515
  Name = 
  9 active torsions:
  status: ('A' for Active; 'I' for Inactive)
    1  A    between atoms: N_1  and  C_4
    2  A    between atoms: N_1  and  C_25
    3  A    between atoms: N_2  and  C_5
    4  A    between atoms: C_4  and  C_28
    5  A    between atoms: C_5  and  C_6
    6  A    between atoms: C_10  and  C_14
    7  A    between atoms: C_10  and  C_25
    8  A    between atoms: C_15  and  N_18
    9  A    between atoms: C_16  and  C_34
                            x       y       z     vdW  Elec       q    Type
                         _______ _______ _______ _____ _____    ______ ____

>  <TORSDO>
F 9

$$$$
