=
 OpenBabel11052409293D

 35 38  0  0  1  0  0  0  0  0999 V2000
  162.0790  207.2280  150.1480 C   0  0  2  0  0  0  0  0  0  0  0  0
  161.2620  208.4730  152.6620 C   0  0  0  0  0  3  0  0  0  0  0  0
  161.4650  206.9860  152.5780 C   0  0  0  0  0  2  0  0  0  0  0  0
  162.4820  206.6220  151.4960 C   0  0  0  0  0  2  0  0  0  0  0  0
  163.1660  206.9070  149.1360 C   0  0  0  0  0  1  0  0  0  0  0  0
  161.4220  209.2860  151.6060 C   0  0  0  0  0  0  0  0  0  0  0  0
  162.0060  208.7660  150.3010 C   0  0  2  0  0  3  0  0  0  0  0  0
  161.5340  209.4710  149.1020 N   0  0  0  0  0  2  0  0  0  0  0  0
  162.2810  211.7070  148.3830 C   0  0  0  0  0  0  0  0  0  0  0  0
  163.3170  212.6440  147.9040 C   0  0  0  0  0  3  0  0  0  0  0  0
  162.5630  213.9640  147.8280 C   0  0  0  0  0  3  0  0  0  0  0  0
  161.1200  212.2300  148.5630 N   0  0  0  0  0  0  0  0  0  0  0  0
  162.5450  210.3290  148.6390 N   0  0  0  0  0  2  0  0  0  0  0  0
  161.1240  213.6410  148.2300 C   0  0  1  0  0  3  0  0  0  0  0  0
  160.7270  214.4530  149.4530 C   0  0  0  0  0  2  0  0  0  0  0  0
  159.6690  213.7310  150.2760 C   0  0  0  0  0  2  0  0  0  0  0  0
  157.4260  213.1170  149.7300 O   0  0  0  0  0  1  0  0  0  0  0  0
  158.2690  214.2100  149.9310 C   0  0  0  0  0  2  0  0  0  0  0  0
  160.4790  206.5200  149.5730 S   0  0  0  0  0  0  0  0  0  0  0  0
  161.3320  203.0800  147.5990 N   0  0  0  0  0  2  0  0  0  0  0  0
  160.3000  203.8440  150.1320 C   0  0  0  0  0  2  0  0  0  0  0  0
  161.1330  202.0820  148.6090 C   0  0  0  0  0  0  0  0  0  0  0  0
  161.0980  204.8320  149.2850 C   0  0  1  0  0  3  0  0  0  0  0  0
  160.6960  202.4270  149.8220 C   0  0  0  0  0  3  0  0  0  0  0  0
  160.9360  204.4700  147.8120 C   0  0  0  0  0  2  0  0  0  0  0  0
  161.5810  200.4220  148.2890 Cl  0  0  0  0  0  0  0  0  0  0  0  0
  161.2470  210.7590  151.8110 C   0  0  0  0  0  2  0  0  0  0  0  0
  158.8370  211.5830  155.2090 C   0  0  0  0  0  0  0  0  0  0  0  0
  159.0010  211.1310  152.8470 C   0  0  0  0  0  3  0  0  0  0  0  0
  160.9400  211.2140  154.2220 N   0  0  0  0  0  0  0  0  0  0  0  0
  160.3830  211.0300  152.9960 C   0  0  0  0  0  0  0  0  0  0  0  0
  158.2190  211.4080  153.9650 C   0  0  0  0  0  3  0  0  0  0  0  0
  160.1900  211.4790  155.2930 N   0  0  0  0  0  0  0  0  0  0  0  0
  158.0990  211.8620  156.3620 O   0  0  0  0  0  0  0  0  0  0  0  0
  156.6800  211.8030  156.3990 C   0  0  0  0  0  1  0  0  0  0  0  0
  1  5  1  6  0  0  0
  1  7  1  0  0  0  0
  1  4  1  0  0  0  0
  3  2  1  0  0  0  0
  4  3  1  0  0  0  0
  6 27  1  0  0  0  0
  6  2  2  0  0  0  0
  7  8  1  6  0  0  0
  7  6  1  0  0  0  0
  9 12  2  0  0  0  0
  9 13  1  0  0  0  0
 10  9  1  0  0  0  0
 11 10  2  0  0  0  0
 11 14  1  0  0  0  0
 13  8  1  0  0  0  0
 14 12  1  0  0  0  0
 14 15  1  1  0  0  0
 15 16  1  0  0  0  0
 17 18  1  0  0  0  0
 18 16  1  0  0  0  0
 19  1  1  0  0  0  0
 20 25  1  0  0  0  0
 20 22  1  0  0  0  0
 22 24  2  0  0  0  0
 23 19  1  6  0  0  0
 23 21  1  0  0  0  0
 24 21  1  0  0  0  0
 25 23  1  0  0  0  0
 26 22  1  0  0  0  0
 27 31  1  0  0  0  0
 28 33  2  0  0  0  0
 28 34  1  0  0  0  0
 29 31  1  0  0  0  0
 29 32  2  0  0  0  0
 30 33  1  0  0  0  0
 31 30  2  0  0  0  0
 32 28  1  0  0  0  0
 34 35  1  0  0  0  0
M  END
>  <MODEL>
1

>  <REMARK>
 VINA RESULT:      -6.8      0.000      0.000
  Name = 
  10 active torsions:
  status: ('A' for Active; 'I' for Inactive)
    1  A    between atoms: C_1  and  O_15
    2  A    between atoms: C_3  and  S_24
    3  A    between atoms: N_6  and  N_27
    4  A    between atoms: N_6  and  C_34
    5  A    between atoms: C_8  and  C_14
    6  A    between atoms: C_8  and  C_30
    7  A    between atoms: C_13  and  S_24
    8  A    between atoms: C_14  and  C_26
    9  A    between atoms: C_22  and  C_28
   10  A    between atoms: C_28  and  C_31
                            x       y       z     vdW  Elec       q    Type
                         _______ _______ _______ _____ _____    ______ ____

>  <TORSDO>
F 10

$$$$
=
 OpenBabel11052409293D

 35 38  0  0  1  0  0  0  0  0999 V2000
  162.1000  207.3550  150.2100 C   0  0  2  0  0  0  0  0  0  0  0  0
  161.1540  208.4190  152.7620 C   0  0  0  0  0  3  0  0  0  0  0  0
  161.3720  206.9420  152.5850 C   0  0  0  0  0  2  0  0  0  0  0  0
  162.4420  206.6590  151.5310 C   0  0  0  0  0  2  0  0  0  0  0  0
  163.2370  207.1090  149.2320 C   0  0  0  0  0  1  0  0  0  0  0  0
  161.3570  209.3040  151.7730 C   0  0  0  0  0  0  0  0  0  0  0  0
  162.0070  208.8790  150.4650 C   0  0  2  0  0  3  0  0  0  0  0  0
  161.5880  209.6620  149.2960 N   0  0  0  0  0  2  0  0  0  0  0  0
  162.2000  211.7700  148.1740 C   0  0  0  0  0  0  0  0  0  0  0  0
  163.1110  212.9100  147.9480 C   0  0  0  0  0  3  0  0  0  0  0  0
  162.3550  213.7430  146.9230 C   0  0  0  0  0  3  0  0  0  0  0  0
  161.1200  211.7940  147.4750 N   0  0  0  0  0  0  0  0  0  0  0  0
  162.4850  210.7260  149.1030 N   0  0  0  0  0  2  0  0  0  0  0  0
  161.0790  212.9600  146.6140 C   0  0  1  0  0  3  0  0  0  0  0  0
  159.8550  213.7970  146.9510 C   0  0  0  0  0  2  0  0  0  0  0  0
  158.9410  213.9510  145.7430 C   0  0  0  0  0  2  0  0  0  0  0  0
  159.0420  212.7940  143.6560 O   0  0  0  0  0  1  0  0  0  0  0  0
  158.7540  212.6330  145.0110 C   0  0  0  0  0  2  0  0  0  0  0  0
  160.5340  206.6810  149.5110 S   0  0  0  0  0  0  0  0  0  0  0  0
  161.3810  203.1660  147.6710 N   0  0  0  0  0  2  0  0  0  0  0  0
  160.2880  204.0270  150.1460 C   0  0  0  0  0  2  0  0  0  0  0  0
  161.1320  202.2040  148.7040 C   0  0  0  0  0  0  0  0  0  0  0  0
  161.1290  204.9740  149.2940 C   0  0  1  0  0  3  0  0  0  0  0  0
  160.6660  202.5950  149.8920 C   0  0  0  0  0  3  0  0  0  0  0  0
  161.0050  204.5690  147.8290 C   0  0  0  0  0  2  0  0  0  0  0  0
  161.5580  200.5270  148.4490 Cl  0  0  0  0  0  0  0  0  0  0  0  0
  161.1620  210.7590  152.0710 C   0  0  0  0  0  2  0  0  0  0  0  0
  158.2670  211.2470  155.1390 C   0  0  0  0  0  0  0  0  0  0  0  0
  160.5640  210.9000  154.4950 C   0  0  0  0  0  3  0  0  0  0  0  0
  158.8500  211.1290  152.8630 N   0  0  0  0  0  0  0  0  0  0  0  0
  160.1630  210.9460  153.1620 C   0  0  0  0  0  0  0  0  0  0  0  0
  159.6080  211.0540  155.4950 C   0  0  0  0  0  3  0  0  0  0  0  0
  157.9330  211.2770  153.8220 N   0  0  0  0  0  0  0  0  0  0  0  0
  157.2680  211.4080  156.1030 O   0  0  0  0  0  0  0  0  0  0  0  0
  155.8850  211.2760  155.8040 C   0  0  0  0  0  1  0  0  0  0  0  0
  1  5  1  6  0  0  0
  1  7  1  0  0  0  0
  1  4  1  0  0  0  0
  3  2  1  0  0  0  0
  4  3  1  0  0  0  0
  6 27  1  0  0  0  0
  6  2  2  0  0  0  0
  7  8  1  6  0  0  0
  7  6  1  0  0  0  0
  9 13  1  0  0  0  0
 10  9  1  0  0  0  0
 11 10  2  0  0  0  0
 12  9  2  0  0  0  0
 13  8  1  0  0  0  0
 14 11  1  0  0  0  0
 14 15  1  1  0  0  0
 14 12  1  0  0  0  0
 16 15  1  0  0  0  0
 17 18  1  0  0  0  0
 18 16  1  0  0  0  0
 19  1  1  0  0  0  0
 20 25  1  0  0  0  0
 20 22  1  0  0  0  0
 22 24  2  0  0  0  0
 23 19  1  6  0  0  0
 23 21  1  0  0  0  0
 24 21  1  0  0  0  0
 25 23  1  0  0  0  0
 26 22  1  0  0  0  0
 27 31  1  0  0  0  0
 28 32  1  0  0  0  0
 28 34  1  0  0  0  0
 29 32  2  0  0  0  0
 30 31  2  0  0  0  0
 30 33  1  0  0  0  0
 31 29  1  0  0  0  0
 33 28  2  0  0  0  0
 35 34  1  0  0  0  0
M  END
>  <MODEL>
2

>  <REMARK>
 VINA RESULT:      -6.4      1.664      1.908
  Name = 
  10 active torsions:
  status: ('A' for Active; 'I' for Inactive)
    1  A    between atoms: C_1  and  O_15
    2  A    between atoms: C_3  and  S_24
    3  A    between atoms: N_6  and  N_27
    4  A    between atoms: N_6  and  C_34
    5  A    between atoms: C_8  and  C_14
    6  A    between atoms: C_8  and  C_30
    7  A    between atoms: C_13  and  S_24
    8  A    between atoms: C_14  and  C_26
    9  A    between atoms: C_22  and  C_28
   10  A    between atoms: C_28  and  C_31
                            x       y       z     vdW  Elec       q    Type
                         _______ _______ _______ _____ _____    ______ ____

>  <TORSDO>
F 10

$$$$
=
 OpenBabel11052409293D

 35 38  0  0  1  0  0  0  0  0999 V2000
  161.9040  207.4530  151.0740 C   0  0  2  0  0  0  0  0  0  0  0  0
  160.7250  208.8900  153.3290 C   0  0  0  0  0  3  0  0  0  0  0  0
  160.9590  207.4070  153.4070 C   0  0  0  0  0  2  0  0  0  0  0  0
  162.1230  206.9780  152.5140 C   0  0  0  0  0  2  0  0  0  0  0  0
  163.1270  207.0740  150.2550 C   0  0  0  0  0  1  0  0  0  0  0  0
  161.0200  209.6120  152.2360 C   0  0  0  0  0  0  0  0  0  0  0  0
  161.7880  208.9960  151.0760 C   0  0  2  0  0  3  0  0  0  0  0  0
  161.4790  209.5810  149.7650 N   0  0  0  0  0  2  0  0  0  0  0  0
  162.2030  211.5140  148.4190 C   0  0  0  0  0  0  0  0  0  0  0  0
  163.1740  212.5710  148.0710 C   0  0  0  0  0  3  0  0  0  0  0  0
  162.4630  213.3240  146.9560 C   0  0  0  0  0  3  0  0  0  0  0  0
  161.1250  211.5180  147.7160 N   0  0  0  0  0  0  0  0  0  0  0  0
  162.4320  210.5670  149.4590 N   0  0  0  0  0  2  0  0  0  0  0  0
  161.1470  212.5810  146.7300 C   0  0  1  0  0  3  0  0  0  0  0  0
  159.9700  213.5150  146.9650 C   0  0  0  0  0  2  0  0  0  0  0  0
  158.9020  212.8550  147.8250 C   0  0  0  0  0  2  0  0  0  0  0  0
  157.8340  212.4090  145.7350 O   0  0  0  0  0  1  0  0  0  0  0  0
  157.5880  212.7130  147.0740 C   0  0  0  0  0  2  0  0  0  0  0  0
  160.4100  206.6550  150.3490 S   0  0  0  0  0  0  0  0  0  0  0  0
  161.2060  205.9120  146.4410 N   0  0  0  0  0  2  0  0  0  0  0  0
  161.0810  204.4480  148.8710 C   0  0  0  0  0  2  0  0  0  0  0  0
  161.6460  204.5480  146.4650 C   0  0  0  0  0  0  0  0  0  0  0  0
  161.2410  205.9660  148.8830 C   0  0  1  0  0  3  0  0  0  0  0  0
  161.6430  203.8570  147.6080 C   0  0  0  0  0  3  0  0  0  0  0  0
  160.6140  206.5430  147.6180 C   0  0  0  0  0  2  0  0  0  0  0  0
  162.3050  203.8220  145.0170 Cl  0  0  0  0  0  0  0  0  0  0  0  0
  160.7970  211.0920  152.2820 C   0  0  0  0  0  2  0  0  0  0  0  0
  158.1530  212.1760  155.4230 C   0  0  0  0  0  0  0  0  0  0  0  0
  158.4770  211.4160  153.1580 C   0  0  0  0  0  3  0  0  0  0  0  0
  160.3280  211.8490  154.5880 N   0  0  0  0  0  0  0  0  0  0  0  0
  159.8530  211.4520  153.3780 C   0  0  0  0  0  0  0  0  0  0  0  0
  157.6170  211.7790  154.1920 C   0  0  0  0  0  3  0  0  0  0  0  0
  159.5040  212.1980  155.5780 N   0  0  0  0  0  0  0  0  0  0  0  0
  157.3350  212.5500  156.4930 O   0  0  0  0  0  0  0  0  0  0  0  0
  156.4370  213.6480  156.4250 C   0  0  0  0  0  1  0  0  0  0  0  0
  1  5  1  6  0  0  0
  1  7  1  0  0  0  0
  1  4  1  0  0  0  0
  2  3  1  0  0  0  0
  4  3  1  0  0  0  0
  6 27  1  0  0  0  0
  6  2  2  0  0  0  0
  7  8  1  6  0  0  0
  7  6  1  0  0  0  0
  9 13  1  0  0  0  0
 10  9  1  0  0  0  0
 11 10  2  0  0  0  0
 12  9  2  0  0  0  0
 13  8  1  0  0  0  0
 14 11  1  0  0  0  0
 14 15  1  1  0  0  0
 14 12  1  0  0  0  0
 15 16  1  0  0  0  0
 17 18  1  0  0  0  0
 18 16  1  0  0  0  0
 19  1  1  0  0  0  0
 20 22  1  0  0  0  0
 20 25  1  0  0  0  0
 21 23  1  0  0  0  0
 22 24  2  0  0  0  0
 23 19  1  1  0  0  0
 24 21  1  0  0  0  0
 25 23  1  0  0  0  0
 26 22  1  0  0  0  0
 27 31  1  0  0  0  0
 28 33  2  0  0  0  0
 28 34  1  0  0  0  0
 29 31  1  0  0  0  0
 29 32  2  0  0  0  0
 30 33  1  0  0  0  0
 31 30  2  0  0  0  0
 32 28  1  0  0  0  0
 35 34  1  0  0  0  0
M  END
>  <MODEL>
3

>  <REMARK>
 VINA RESULT:      -6.0      1.740      1.898
  Name = 
  10 active torsions:
  status: ('A' for Active; 'I' for Inactive)
    1  A    between atoms: C_1  and  O_15
    2  A    between atoms: C_3  and  S_24
    3  A    between atoms: N_6  and  N_27
    4  A    between atoms: N_6  and  C_34
    5  A    between atoms: C_8  and  C_14
    6  A    between atoms: C_8  and  C_30
    7  A    between atoms: C_13  and  S_24
    8  A    between atoms: C_14  and  C_26
    9  A    between atoms: C_22  and  C_28
   10  A    between atoms: C_28  and  C_31
                            x       y       z     vdW  Elec       q    Type
                         _______ _______ _______ _____ _____    ______ ____

>  <TORSDO>
F 10

$$$$
=
 OpenBabel11052409293D

 35 38  0  0  1  0  0  0  0  0999 V2000
  160.7370  205.8320  150.1060 C   0  0  2  0  0  0  0  0  0  0  0  0
  161.7580  208.4550  149.3180 C   0  0  0  0  0  3  0  0  0  0  0  0
  161.2410  207.4950  148.2830 C   0  0  0  0  0  2  0  0  0  0  0  0
  160.1890  206.5550  148.8700 C   0  0  0  0  0  2  0  0  0  0  0  0
  159.6240  204.9810  150.6930 C   0  0  0  0  0  1  0  0  0  0  0  0
  161.7960  208.1560  150.6260 C   0  0  0  0  0  0  0  0  0  0  0  0
  161.1370  206.8930  151.1590 C   0  0  2  0  0  3  0  0  0  0  0  0
  161.7700  206.3390  152.3630 N   0  0  0  0  0  2  0  0  0  0  0  0
  160.8530  206.9090  154.5780 C   0  0  0  0  0  0  0  0  0  0  0  0
  159.8480  206.7640  155.6500 C   0  0  0  0  0  3  0  0  0  0  0  0
  160.3160  207.7750  156.6870 C   0  0  0  0  0  3  0  0  0  0  0  0
  161.7810  207.7670  154.8200 N   0  0  0  0  0  0  0  0  0  0  0  0
  160.7980  206.1660  153.3620 N   0  0  0  0  0  2  0  0  0  0  0  0
  161.6010  208.3800  156.1220 C   0  0  1  0  0  3  0  0  0  0  0  0
  161.4450  209.8840  155.9580 C   0  0  0  0  0  2  0  0  0  0  0  0
  160.0810  210.3550  156.4410 C   0  0  0  0  0  2  0  0  0  0  0  0
  160.2750  212.6420  155.7800 O   0  0  0  0  0  1  0  0  0  0  0  0
  160.1160  211.8070  156.8860 C   0  0  0  0  0  2  0  0  0  0  0  0
  162.1570  204.7530  149.6470 S   0  0  0  0  0  0  0  0  0  0  0  0
  160.6960  201.5810  147.5820 N   0  0  0  0  0  2  0  0  0  0  0  0
  162.0020  204.0360  147.0070 C   0  0  0  0  0  2  0  0  0  0  0  0
  160.8260  202.0080  146.2190 C   0  0  0  0  0  0  0  0  0  0  0  0
  161.2910  203.8250  148.3410 C   0  0  1  0  0  3  0  0  0  0  0  0
  161.3920  203.1820  145.9310 C   0  0  0  0  0  3  0  0  0  0  0  0
  161.2950  202.3380  148.6790 C   0  0  0  0  0  2  0  0  0  0  0  0
  160.1310  201.0430  144.9370 Cl  0  0  0  0  0  0  0  0  0  0  0  0
  162.2800  209.2050  151.5800 C   0  0  0  0  0  2  0  0  0  0  0  0
  159.2720  212.1390  152.1900 C   0  0  0  0  0  0  0  0  0  0  0  0
  160.1640  209.9540  152.6830 C   0  0  0  0  0  3  0  0  0  0  0  0
  161.2700  211.4240  151.1750 N   0  0  0  0  0  0  0  0  0  0  0  0
  161.2240  210.2290  151.8210 C   0  0  0  0  0  0  0  0  0  0  0  0
  159.1780  210.9190  152.8720 C   0  0  0  0  0  3  0  0  0  0  0  0
  160.3250  212.3490  151.3560 N   0  0  0  0  0  0  0  0  0  0  0  0
  158.3100  213.1410  152.3440 O   0  0  0  0  0  0  0  0  0  0  0  0
  157.4990  213.2560  153.5050 C   0  0  0  0  0  1  0  0  0  0  0  0
  1  5  1  1  0  0  0
  1  7  1  0  0  0  0
  2  6  2  0  0  0  0
  3  4  1  0  0  0  0
  3  2  1  0  0  0  0
  4  1  1  0  0  0  0
  6  7  1  0  0  0  0
  6 27  1  0  0  0  0
  7  8  1  1  0  0  0
  8 13  1  0  0  0  0
  9 12  2  0  0  0  0
  9 10  1  0  0  0  0
 10 11  2  0  0  0  0
 12 14  1  0  0  0  0
 13  9  1  0  0  0  0
 14 15  1  6  0  0  0
 14 11  1  0  0  0  0
 15 16  1  0  0  0  0
 16 18  1  0  0  0  0
 17 18  1  0  0  0  0
 19  1  1  0  0  0  0
 20 25  1  0  0  0  0
 21 23  1  0  0  0  0
 22 20  1  0  0  0  0
 23 25  1  0  0  0  0
 23 19  1  1  0  0  0
 24 22  2  0  0  0  0
 24 21  1  0  0  0  0
 26 22  1  0  0  0  0
 27 31  1  0  0  0  0
 28 34  1  0  0  0  0
 28 32  1  0  0  0  0
 29 32  2  0  0  0  0
 30 33  1  0  0  0  0
 30 31  2  0  0  0  0
 31 29  1  0  0  0  0
 33 28  2  0  0  0  0
 34 35  1  0  0  0  0
M  END
>  <MODEL>
4

>  <REMARK>
 VINA RESULT:      -5.7      2.644      5.163
  Name = 
  10 active torsions:
  status: ('A' for Active; 'I' for Inactive)
    1  A    between atoms: C_1  and  O_15
    2  A    between atoms: C_3  and  S_24
    3  A    between atoms: N_6  and  N_27
    4  A    between atoms: N_6  and  C_34
    5  A    between atoms: C_8  and  C_14
    6  A    between atoms: C_8  and  C_30
    7  A    between atoms: C_13  and  S_24
    8  A    between atoms: C_14  and  C_26
    9  A    between atoms: C_22  and  C_28
   10  A    between atoms: C_28  and  C_31
                            x       y       z     vdW  Elec       q    Type
                         _______ _______ _______ _____ _____    ______ ____

>  <TORSDO>
F 10

$$$$
=
 OpenBabel11052409293D

 35 38  0  0  1  0  0  0  0  0999 V2000
  161.9100  207.4960  151.3070 C   0  0  2  0  0  0  0  0  0  0  0  0
  161.3100  210.3550  151.2010 C   0  0  0  0  0  3  0  0  0  0  0  0
  160.7290  209.4930  152.2880 C   0  0  0  0  0  2  0  0  0  0  0  0
  161.6260  208.2910  152.5850 C   0  0  0  0  0  2  0  0  0  0  0  0
  162.8700  206.3700  151.6480 C   0  0  0  0  0  1  0  0  0  0  0  0
  162.0990  209.8630  150.2320 C   0  0  0  0  0  0  0  0  0  0  0  0
  162.6080  208.4310  150.2900 C   0  0  2  0  0  3  0  0  0  0  0  0
  162.8520  207.8200  148.9770 N   0  0  0  0  0  2  0  0  0  0  0  0
  161.5040  206.9480  147.1070 C   0  0  0  0  0  0  0  0  0  0  0  0
  160.2590  206.8820  146.3170 C   0  0  0  0  0  3  0  0  0  0  0  0
  160.5860  205.8330  145.2640 C   0  0  0  0  0  3  0  0  0  0  0  0
  162.4470  206.1750  146.6960 N   0  0  0  0  0  0  0  0  0  0  0  0
  161.6520  207.7920  148.2470 N   0  0  0  0  0  2  0  0  0  0  0  0
  162.0360  205.4260  145.5240 C   0  0  1  0  0  3  0  0  0  0  0  0
  162.1180  203.9360  145.8190 C   0  0  0  0  0  2  0  0  0  0  0  0
  160.9120  203.1940  145.2600 C   0  0  0  0  0  2  0  0  0  0  0  0
  160.0800  200.9780  144.9360 O   0  0  0  0  0  1  0  0  0  0  0  0
  160.8290  201.7760  145.8010 C   0  0  0  0  0  2  0  0  0  0  0  0
  160.3510  206.7870  150.6270 S   0  0  0  0  0  0  0  0  0  0  0  0
  160.8570  203.0800  149.0610 N   0  0  0  0  0  2  0  0  0  0  0  0
  160.4540  204.2370  151.6220 C   0  0  0  0  0  2  0  0  0  0  0  0
  160.9670  202.2580  150.2300 C   0  0  0  0  0  0  0  0  0  0  0  0
  160.9630  205.0810  150.4570 C   0  0  1  0  0  3  0  0  0  0  0  0
  160.8320  202.7930  151.4460 C   0  0  0  0  0  3  0  0  0  0  0  0
  160.4560  204.4820  149.1490 C   0  0  0  0  0  2  0  0  0  0  0  0
  161.4050  200.5720  150.0690 Cl  0  0  0  0  0  0  0  0  0  0  0  0
  162.6690  210.8180  149.2290 C   0  0  0  0  0  2  0  0  0  0  0  0
  159.6070  213.3180  147.6780 C   0  0  0  0  0  0  0  0  0  0  0  0
  161.2060  212.8370  149.4170 C   0  0  0  0  0  3  0  0  0  0  0  0
  161.0030  211.4320  147.5090 N   0  0  0  0  0  0  0  0  0  0  0  0
  161.6080  211.7180  148.6920 C   0  0  0  0  0  0  0  0  0  0  0  0
  160.1970  213.6480  148.9050 C   0  0  0  0  0  3  0  0  0  0  0  0
  160.0350  212.2090  147.0180 N   0  0  0  0  0  0  0  0  0  0  0  0
  158.5910  214.0970  147.1190 O   0  0  0  0  0  0  0  0  0  0  0  0
  157.6200  213.5680  146.2260 C   0  0  0  0  0  1  0  0  0  0  0  0
  1  5  1  1  0  0  0
  1  4  1  0  0  0  0
  2  3  1  0  0  0  0
  3  4  1  0  0  0  0
  6  7  1  0  0  0  0
  6  2  2  0  0  0  0
  7  8  1  6  0  0  0
  7  1  1  0  0  0  0
  9 13  1  0  0  0  0
 10  9  1  0  0  0  0
 11 14  1  0  0  0  0
 11 10  2  0  0  0  0
 12  9  2  0  0  0  0
 13  8  1  0  0  0  0
 14 15  1  1  0  0  0
 14 12  1  0  0  0  0
 16 18  1  0  0  0  0
 16 15  1  0  0  0  0
 17 18  1  0  0  0  0
 19  1  1  0  0  0  0
 20 25  1  0  0  0  0
 20 22  1  0  0  0  0
 22 24  2  0  0  0  0
 23 19  1  1  0  0  0
 23 21  1  0  0  0  0
 24 21  1  0  0  0  0
 25 23  1  0  0  0  0
 26 22  1  0  0  0  0
 27  6  1  0  0  0  0
 28 32  1  0  0  0  0
 30 31  2  0  0  0  0
 31 27  1  0  0  0  0
 31 29  1  0  0  0  0
 32 29  2  0  0  0  0
 33 30  1  0  0  0  0
 33 28  2  0  0  0  0
 34 28  1  0  0  0  0
 35 34  1  0  0  0  0
M  END
>  <MODEL>
5

>  <REMARK>
 VINA RESULT:      -5.4      3.087      6.319
  Name = 
  10 active torsions:
  status: ('A' for Active; 'I' for Inactive)
    1  A    between atoms: C_1  and  O_15
    2  A    between atoms: C_3  and  S_24
    3  A    between atoms: N_6  and  N_27
    4  A    between atoms: N_6  and  C_34
    5  A    between atoms: C_8  and  C_14
    6  A    between atoms: C_8  and  C_30
    7  A    between atoms: C_13  and  S_24
    8  A    between atoms: C_14  and  C_26
    9  A    between atoms: C_22  and  C_28
   10  A    between atoms: C_28  and  C_31
                            x       y       z     vdW  Elec       q    Type
                         _______ _______ _______ _____ _____    ______ ____

>  <TORSDO>
F 10

$$$$
=
 OpenBabel11052409293D

 35 38  0  0  1  0  0  0  0  0999 V2000
  160.7950  205.8060  150.0370 C   0  0  2  0  0  0  0  0  0  0  0  0
  161.7190  208.3900  149.0320 C   0  0  0  0  0  3  0  0  0  0  0  0
  161.1560  207.3620  148.0900 C   0  0  0  0  0  2  0  0  0  0  0  0
  160.1590  206.4450  148.7980 C   0  0  0  0  0  2  0  0  0  0  0  0
  159.7360  204.9770  150.7430 C   0  0  0  0  0  1  0  0  0  0  0  0
  161.8430  208.1720  150.3510 C   0  0  0  0  0  0  0  0  0  0  0  0
  161.2410  206.9340  150.9980 C   0  0  2  0  0  3  0  0  0  0  0  0
  161.9570  206.4630  152.1910 N   0  0  0  0  0  2  0  0  0  0  0  0
  160.8890  207.1560  154.3000 C   0  0  0  0  0  0  0  0  0  0  0  0
  159.9270  206.9540  155.4030 C   0  0  0  0  0  3  0  0  0  0  0  0
  160.1210  208.2050  156.2480 C   0  0  0  0  0  3  0  0  0  0  0  0
  161.5800  208.2390  154.3770 N   0  0  0  0  0  0  0  0  0  0  0  0
  161.0360  206.2310  153.2250 N   0  0  0  0  0  2  0  0  0  0  0  0
  161.2340  208.9970  155.5640 C   0  0  1  0  0  3  0  0  0  0  0  0
  160.7270  210.3720  155.1570 C   0  0  0  0  0  2  0  0  0  0  0  0
  159.5450  210.8020  156.0150 C   0  0  0  0  0  2  0  0  0  0  0  0
  158.1350  211.2100  154.1310 O   0  0  0  0  0  1  0  0  0  0  0  0
  158.6570  211.7950  155.2850 C   0  0  0  0  0  2  0  0  0  0  0  0
  162.2030  204.7210  149.5550 S   0  0  0  0  0  0  0  0  0  0  0  0
  160.7050  201.5480  147.5180 N   0  0  0  0  0  2  0  0  0  0  0  0
  161.9910  204.0080  146.9180 C   0  0  0  0  0  2  0  0  0  0  0  0
  160.8030  201.9770  146.1540 C   0  0  0  0  0  0  0  0  0  0  0  0
  161.3110  203.7930  148.2670 C   0  0  1  0  0  3  0  0  0  0  0  0
  161.3590  203.1530  145.8540 C   0  0  0  0  0  3  0  0  0  0  0  0
  161.3270  202.3050  148.6030 C   0  0  0  0  0  2  0  0  0  0  0  0
  160.0810  201.0120  144.8860 Cl  0  0  0  0  0  0  0  0  0  0  0  0
  162.3670  209.2830  151.2080 C   0  0  0  0  0  2  0  0  0  0  0  0
  160.4210  212.9220  150.2050 C   0  0  0  0  0  0  0  0  0  0  0  0
  160.7430  211.1050  151.7560 C   0  0  0  0  0  3  0  0  0  0  0  0
  161.9560  211.2080  149.7130 N   0  0  0  0  0  0  0  0  0  0  0  0
  161.6860  210.5690  150.8810 C   0  0  0  0  0  0  0  0  0  0  0  0
  160.1050  212.2950  151.4170 C   0  0  0  0  0  3  0  0  0  0  0  0
  161.3440  212.3490  149.3870 N   0  0  0  0  0  0  0  0  0  0  0  0
  159.8110  214.1170  149.8160 O   0  0  0  0  0  0  0  0  0  0  0  0
  158.4400  214.1950  149.4490 C   0  0  0  0  0  1  0  0  0  0  0  0
  1  5  1  1  0  0  0
  1  7  1  0  0  0  0
  2  6  2  0  0  0  0
  3  4  1  0  0  0  0
  3  2  1  0  0  0  0
  4  1  1  0  0  0  0
  6  7  1  0  0  0  0
  6 27  1  0  0  0  0
  7  8  1  1  0  0  0
  8 13  1  0  0  0  0
  9 12  2  0  0  0  0
  9 10  1  0  0  0  0
 10 11  2  0  0  0  0
 12 14  1  0  0  0  0
 13  9  1  0  0  0  0
 14 15  1  6  0  0  0
 14 11  1  0  0  0  0
 15 16  1  0  0  0  0
 17 18  1  0  0  0  0
 18 16  1  0  0  0  0
 19  1  1  0  0  0  0
 20 25  1  0  0  0  0
 21 23  1  0  0  0  0
 22 20  1  0  0  0  0
 23 25  1  0  0  0  0
 23 19  1  1  0  0  0
 24 22  2  0  0  0  0
 24 21  1  0  0  0  0
 26 22  1  0  0  0  0
 28 32  1  0  0  0  0
 30 31  2  0  0  0  0
 31 27  1  0  0  0  0
 31 29  1  0  0  0  0
 32 29  2  0  0  0  0
 33 30  1  0  0  0  0
 33 28  2  0  0  0  0
 34 28  1  0  0  0  0
 35 34  1  0  0  0  0
M  END
>  <MODEL>
6

>  <REMARK>
 VINA RESULT:      -5.3      2.231      5.249
  Name = 
  10 active torsions:
  status: ('A' for Active; 'I' for Inactive)
    1  A    between atoms: C_1  and  O_15
    2  A    between atoms: C_3  and  S_24
    3  A    between atoms: N_6  and  N_27
    4  A    between atoms: N_6  and  C_34
    5  A    between atoms: C_8  and  C_14
    6  A    between atoms: C_8  and  C_30
    7  A    between atoms: C_13  and  S_24
    8  A    between atoms: C_14  and  C_26
    9  A    between atoms: C_22  and  C_28
   10  A    between atoms: C_28  and  C_31
                            x       y       z     vdW  Elec       q    Type
                         _______ _______ _______ _____ _____    ______ ____

>  <TORSDO>
F 10

$$$$
=
 OpenBabel11052409293D

 35 38  0  0  1  0  0  0  0  0999 V2000
  161.8180  205.6400  152.0260 C   0  0  2  0  0  0  0  0  0  0  0  0
  160.8690  208.0150  153.4400 C   0  0  0  0  0  3  0  0  0  0  0  0
  160.4560  206.6420  153.8920 C   0  0  0  0  0  2  0  0  0  0  0  0
  161.5070  205.5940  153.5260 C   0  0  0  0  0  2  0  0  0  0  0  0
  162.9260  204.6410  151.7380 C   0  0  0  0  0  1  0  0  0  0  0  0
  161.6610  208.2180  152.3750 C   0  0  0  0  0  0  0  0  0  0  0  0
  162.3430  207.0530  151.6750 C   0  0  2  0  0  3  0  0  0  0  0  0
  162.5910  207.2660  150.2430 N   0  0  0  0  0  2  0  0  0  0  0  0
  161.2940  206.9400  148.1730 C   0  0  0  0  0  0  0  0  0  0  0  0
  160.0270  206.9350  147.4160 C   0  0  0  0  0  3  0  0  0  0  0  0
  160.4660  206.4750  146.0330 C   0  0  0  0  0  3  0  0  0  0  0  0
  162.3330  206.6030  147.4920 N   0  0  0  0  0  0  0  0  0  0  0  0
  161.3660  207.2810  149.5560 N   0  0  0  0  0  2  0  0  0  0  0  0
  161.9830  206.3060  146.1160 C   0  0  1  0  0  3  0  0  0  0  0  0
  162.3700  204.8720  145.7920 C   0  0  0  0  0  2  0  0  0  0  0  0
  161.3010  204.1860  144.9520 C   0  0  0  0  0  2  0  0  0  0  0  0
  159.9600  202.2110  144.8840 O   0  0  0  0  0  1  0  0  0  0  0  0
  161.2060  202.7030  145.2700 C   0  0  0  0  0  2  0  0  0  0  0  0
  160.3250  205.2000  151.0420 S   0  0  0  0  0  0  0  0  0  0  0  0
  161.2510  202.5390  148.1230 N   0  0  0  0  0  2  0  0  0  0  0  0
  160.3800  202.4690  150.8250 C   0  0  0  0  0  2  0  0  0  0  0  0
  161.2060  201.2850  148.8170 C   0  0  0  0  0  0  0  0  0  0  0  0
  161.0340  203.7230  150.2490 C   0  0  1  0  0  3  0  0  0  0  0  0
  160.8480  201.2370  150.1020 C   0  0  0  0  0  3  0  0  0  0  0  0
  160.7770  203.7730  148.7460 C   0  0  0  0  0  2  0  0  0  0  0  0
  161.7410  199.8270  148.0120 Cl  0  0  0  0  0  0  0  0  0  0  0  0
  162.0560  209.6240  152.0430 C   0  0  0  0  0  2  0  0  0  0  0  0
  159.7020  212.4360  154.1840 C   0  0  0  0  0  0  0  0  0  0  0  0
  160.1890  211.2860  152.1220 C   0  0  0  0  0  3  0  0  0  0  0  0
  161.4440  210.8560  154.0960 N   0  0  0  0  0  0  0  0  0  0  0  0
  161.2070  210.6020  152.7820 C   0  0  0  0  0  0  0  0  0  0  0  0
  159.4270  212.2120  152.8290 C   0  0  0  0  0  3  0  0  0  0  0  0
  160.7120  211.7430  154.7750 N   0  0  0  0  0  0  0  0  0  0  0  0
  158.9670  213.3520  154.9400 O   0  0  0  0  0  0  0  0  0  0  0  0
  157.6720  213.0640  155.4510 C   0  0  0  0  0  1  0  0  0  0  0  0
  1  5  1  6  0  0  0
  1  4  1  0  0  0  0
  2  3  1  0  0  0  0
  4  3  1  0  0  0  0
  6  2  2  0  0  0  0
  7  8  1  6  0  0  0
  7  1  1  0  0  0  0
  7  6  1  0  0  0  0
  9 13  1  0  0  0  0
 10  9  1  0  0  0  0
 11 14  1  0  0  0  0
 11 10  2  0  0  0  0
 12  9  2  0  0  0  0
 13  8  1  0  0  0  0
 14 15  1  1  0  0  0
 14 12  1  0  0  0  0
 16 18  1  0  0  0  0
 16 15  1  0  0  0  0
 17 18  1  0  0  0  0
 19  1  1  0  0  0  0
 20 25  1  0  0  0  0
 20 22  1  0  0  0  0
 22 24  2  0  0  0  0
 23 21  1  0  0  0  0
 23 19  1  1  0  0  0
 24 21  1  0  0  0  0
 25 23  1  0  0  0  0
 26 22  1  0  0  0  0
 27  6  1  0  0  0  0
 27 31  1  0  0  0  0
 28 33  2  0  0  0  0
 28 34  1  0  0  0  0
 29 31  1  0  0  0  0
 29 32  2  0  0  0  0
 30 33  1  0  0  0  0
 31 30  2  0  0  0  0
 32 28  1  0  0  0  0
 34 35  1  0  0  0  0
M  END
>  <MODEL>
7

>  <REMARK>
 VINA RESULT:      -4.8      2.738      4.937
  Name = 
  10 active torsions:
  status: ('A' for Active; 'I' for Inactive)
    1  A    between atoms: C_1  and  O_15
    2  A    between atoms: C_3  and  S_24
    3  A    between atoms: N_6  and  N_27
    4  A    between atoms: N_6  and  C_34
    5  A    between atoms: C_8  and  C_14
    6  A    between atoms: C_8  and  C_30
    7  A    between atoms: C_13  and  S_24
    8  A    between atoms: C_14  and  C_26
    9  A    between atoms: C_22  and  C_28
   10  A    between atoms: C_28  and  C_31
                            x       y       z     vdW  Elec       q    Type
                         _______ _______ _______ _____ _____    ______ ____

>  <TORSDO>
F 10

$$$$
=
 OpenBabel11052409293D

 35 38  0  0  1  0  0  0  0  0999 V2000
  161.8640  207.1710  151.2880 C   0  0  2  0  0  0  0  0  0  0  0  0
  161.2310  207.5330  148.4580 C   0  0  0  0  0  3  0  0  0  0  0  0
  161.9360  208.6160  149.2270 C   0  0  0  0  0  2  0  0  0  0  0  0
  162.7480  208.0390  150.3860 C   0  0  0  0  0  2  0  0  0  0  0  0
  162.7400  206.5590  152.3670 C   0  0  0  0  0  1  0  0  0  0  0  0
  160.8450  206.3790  149.0240 C   0  0  0  0  0  0  0  0  0  0  0  0
  161.2730  206.0200  150.4390 C   0  0  2  0  0  3  0  0  0  0  0  0
  160.3240  205.1630  151.1610 N   0  0  0  0  0  2  0  0  0  0  0  0
  160.8380  202.8000  150.6870 C   0  0  0  0  0  0  0  0  0  0  0  0
  161.4940  201.5180  151.0120 C   0  0  0  0  0  3  0  0  0  0  0  0
  161.1030  200.6350  149.8350 C   0  0  0  0  0  3  0  0  0  0  0  0
  160.1560  202.7970  149.5960 N   0  0  0  0  0  0  0  0  0  0  0  0
  160.9580  203.9590  151.5090 N   0  0  0  0  0  2  0  0  0  0  0  0
  160.1990  201.4980  148.9550 C   0  0  1  0  0  3  0  0  0  0  0  0
  160.7990  201.6370  147.5640 C   0  0  0  0  0  2  0  0  0  0  0  0
  161.2000  200.2840  146.9960 C   0  0  0  0  0  2  0  0  0  0  0  0
  159.9510  201.1580  145.1560 O   0  0  0  0  0  1  0  0  0  0  0  0
  160.8860  200.1860  145.5120 C   0  0  0  0  0  2  0  0  0  0  0  0
  160.5460  208.1900  152.0740 S   0  0  0  0  0  0  0  0  0  0  0  0
  161.5600  208.9050  155.9360 N   0  0  0  0  0  2  0  0  0  0  0  0
  161.7230  210.2520  153.4410 C   0  0  0  0  0  2  0  0  0  0  0  0
  162.2950  210.1330  155.8450 C   0  0  0  0  0  0  0  0  0  0  0  0
  161.5370  208.7380  153.4990 C   0  0  1  0  0  3  0  0  0  0  0  0
  162.4250  210.7560  154.6710 C   0  0  0  0  0  3  0  0  0  0  0  0
  160.8200  208.3720  154.7950 C   0  0  0  0  0  2  0  0  0  0  0  0
  163.1270  210.7540  157.2520 Cl  0  0  0  0  0  0  0  0  0  0  0  0
  160.1980  205.3440  148.1560 C   0  0  0  0  0  2  0  0  0  0  0  0
  161.8360  205.4630  144.2400 C   0  0  0  0  0  0  0  0  0  0  0  0
  162.0870  204.9150  146.5740 C   0  0  0  0  0  3  0  0  0  0  0  0
  160.0640  205.8440  145.7390 N   0  0  0  0  0  0  0  0  0  0  0  0
  160.7840  205.3610  146.7850 C   0  0  0  0  0  0  0  0  0  0  0  0
  162.6190  204.9640  145.2880 C   0  0  0  0  0  3  0  0  0  0  0  0
  160.5730  205.8910  144.5060 N   0  0  0  0  0  0  0  0  0  0  0  0
  162.3210  205.5340  142.9310 O   0  0  0  0  0  0  0  0  0  0  0  0
  161.6470  206.2410  141.8990 C   0  0  0  0  0  1  0  0  0  0  0  0
  1 19  1  0  0  0  0
  1  5  1  1  0  0  0
  2  6  2  0  0  0  0
  2  3  1  0  0  0  0
  3  4  1  0  0  0  0
  4  1  1  0  0  0  0
  6  7  1  0  0  0  0
  7  8  1  1  0  0  0
  7  1  1  0  0  0  0
  8 13  1  0  0  0  0
  9 10  1  0  0  0  0
  9 13  1  0  0  0  0
 11 10  2  0  0  0  0
 12  9  2  0  0  0  0
 14 15  1  6  0  0  0
 14 12  1  0  0  0  0
 14 11  1  0  0  0  0
 16 15  1  0  0  0  0
 17 18  1  0  0  0  0
 18 16  1  0  0  0  0
 21 23  1  0  0  0  0
 21 24  1  0  0  0  0
 22 20  1  0  0  0  0
 22 26  1  0  0  0  0
 23 19  1  6  0  0  0
 23 25  1  0  0  0  0
 24 22  2  0  0  0  0
 25 20  1  0  0  0  0
 27  6  1  0  0  0  0
 28 33  2  0  0  0  0
 28 32  1  0  0  0  0
 29 31  1  0  0  0  0
 30 31  2  0  0  0  0
 31 27  1  0  0  0  0
 32 29  2  0  0  0  0
 33 30  1  0  0  0  0
 34 28  1  0  0  0  0
 35 34  1  0  0  0  0
M  END
>  <MODEL>
8

>  <REMARK>
 VINA RESULT:      -4.8      5.287      9.965
  Name = 
  10 active torsions:
  status: ('A' for Active; 'I' for Inactive)
    1  A    between atoms: C_1  and  O_15
    2  A    between atoms: C_3  and  S_24
    3  A    between atoms: N_6  and  N_27
    4  A    between atoms: N_6  and  C_34
    5  A    between atoms: C_8  and  C_14
    6  A    between atoms: C_8  and  C_30
    7  A    between atoms: C_13  and  S_24
    8  A    between atoms: C_14  and  C_26
    9  A    between atoms: C_22  and  C_28
   10  A    between atoms: C_28  and  C_31
                            x       y       z     vdW  Elec       q    Type
                         _______ _______ _______ _____ _____    ______ ____

>  <TORSDO>
F 10

$$$$
=
 OpenBabel11052409293D

 35 38  0  0  1  0  0  0  0  0999 V2000
  160.9490  209.0280  153.5930 C   0  0  2  0  0  0  0  0  0  0  0  0
  162.5590  209.2600  151.1650 C   0  0  0  0  0  3  0  0  0  0  0  0
  162.1330  210.4900  151.9180 C   0  0  0  0  0  2  0  0  0  0  0  0
  161.9280  210.1910  153.4030 C   0  0  0  0  0  2  0  0  0  0  0  0
  160.8520  208.7230  155.0780 C   0  0  0  0  0  1  0  0  0  0  0  0
  162.2130  208.0210  151.5480 C   0  0  0  0  0  0  0  0  0  0  0  0
  161.5230  207.7790  152.8820 C   0  0  2  0  0  3  0  0  0  0  0  0
  160.6340  206.6110  152.9030 N   0  0  0  0  0  2  0  0  0  0  0  0
  161.1900  204.2980  152.2580 C   0  0  0  0  0  0  0  0  0  0  0  0
  161.9790  203.0580  152.4020 C   0  0  0  0  0  3  0  0  0  0  0  0
  161.4140  202.1730  151.3010 C   0  0  0  0  0  3  0  0  0  0  0  0
  160.3020  204.2690  151.3280 N   0  0  0  0  0  0  0  0  0  0  0  0
  161.4010  205.4460  153.0770 N   0  0  0  0  0  2  0  0  0  0  0  0
  160.2970  202.9870  150.6500 C   0  0  1  0  0  3  0  0  0  0  0  0
  160.5910  203.1940  149.1720 C   0  0  0  0  0  2  0  0  0  0  0  0
  161.1870  201.9420  148.5450 C   0  0  0  0  0  2  0  0  0  0  0  0
  161.1580  200.6000  146.5690 O   0  0  0  0  0  1  0  0  0  0  0  0
  160.9310  201.8900  147.0480 C   0  0  0  0  0  2  0  0  0  0  0  0
  159.2820  209.4760  152.9490 S   0  0  0  0  0  0  0  0  0  0  0  0
  157.5490  211.7520  155.8260 N   0  0  0  0  0  2  0  0  0  0  0  0
  158.6770  212.1320  153.2490 C   0  0  0  0  0  2  0  0  0  0  0  0
  157.7410  213.0830  155.3310 C   0  0  0  0  0  0  0  0  0  0  0  0
  159.0070  210.8870  154.0680 C   0  0  1  0  0  3  0  0  0  0  0  0
  158.3160  213.2850  154.1430 C   0  0  0  0  0  3  0  0  0  0  0  0
  157.8400  210.5810  155.0020 C   0  0  0  0  0  2  0  0  0  0  0  0
  157.3340  214.4530  156.3400 Cl  0  0  0  0  0  0  0  0  0  0  0  0
  162.7360  206.8620  150.7580 C   0  0  0  0  0  2  0  0  0  0  0  0
  160.8780  206.5830  146.9490 C   0  0  0  0  0  0  0  0  0  0  0  0
  160.6790  206.6460  149.3510 C   0  0  0  0  0  3  0  0  0  0  0  0
  162.8000  206.8020  148.2870 N   0  0  0  0  0  0  0  0  0  0  0  0
  162.0640  206.7800  149.4290 C   0  0  0  0  0  0  0  0  0  0  0  0
  160.0780  206.5480  148.0980 C   0  0  0  0  0  3  0  0  0  0  0  0
  162.2250  206.7090  147.0870 N   0  0  0  0  0  0  0  0  0  0  0  0
  160.3260  206.4890  145.6690 O   0  0  0  0  0  0  0  0  0  0  0  0
  160.6520  205.4400  144.7670 C   0  0  0  0  0  1  0  0  0  0  0  0
  1  5  1  1  0  0  0
  2  6  2  0  0  0  0
  2  3  1  0  0  0  0
  3  4  1  0  0  0  0
  4  1  1  0  0  0  0
  6  7  1  0  0  0  0
  7  8  1  6  0  0  0
  7  1  1  0  0  0  0
  8 13  1  0  0  0  0
  9 10  1  0  0  0  0
  9 13  1  0  0  0  0
 11 10  2  0  0  0  0
 12  9  2  0  0  0  0
 14 15  1  6  0  0  0
 14 11  1  0  0  0  0
 14 12  1  0  0  0  0
 16 15  1  0  0  0  0
 17 18  1  0  0  0  0
 18 16  1  0  0  0  0
 19  1  1  0  0  0  0
 21 23  1  0  0  0  0
 21 24  1  0  0  0  0
 22 20  1  0  0  0  0
 22 26  1  0  0  0  0
 23 19  1  6  0  0  0
 23 25  1  0  0  0  0
 24 22  2  0  0  0  0
 25 20  1  0  0  0  0
 27  6  1  0  0  0  0
 28 33  2  0  0  0  0
 28 32  1  0  0  0  0
 29 31  1  0  0  0  0
 30 31  2  0  0  0  0
 31 27  1  0  0  0  0
 32 29  2  0  0  0  0
 33 30  1  0  0  0  0
 34 28  1  0  0  0  0
 35 34  1  0  0  0  0
M  END
>  <MODEL>
9

>  <REMARK>
 VINA RESULT:      -4.3      4.712      9.383
  Name = 
  10 active torsions:
  status: ('A' for Active; 'I' for Inactive)
    1  A    between atoms: C_1  and  O_15
    2  A    between atoms: C_3  and  S_24
    3  A    between atoms: N_6  and  N_27
    4  A    between atoms: N_6  and  C_34
    5  A    between atoms: C_8  and  C_14
    6  A    between atoms: C_8  and  C_30
    7  A    between atoms: C_13  and  S_24
    8  A    between atoms: C_14  and  C_26
    9  A    between atoms: C_22  and  C_28
   10  A    between atoms: C_28  and  C_31
                            x       y       z     vdW  Elec       q    Type
                         _______ _______ _______ _____ _____    ______ ____

>  <TORSDO>
F 10

$$$$
