=
 OpenBabel11042423013D

 65 71  0  0  1  0  0  0  0  0999 V2000
  160.1760  212.9880  147.6970 C   0  0  1  0  0  3  0  0  0  0  0  0
  159.9420  214.0760  149.6980 C   0  0  1  0  0  3  0  0  0  0  0  0
  160.6440  212.7610  150.0660 C   0  0  1  0  0  3  0  0  0  0  0  0
  159.8630  211.9470  150.8960 O   0  0  0  0  0  1  0  0  0  0  0  0
  161.3900  211.0330  148.4900 N   0  0  0  0  0  0  0  0  0  0  0  0
  160.7810  212.1410  148.7430 C   0  0  0  0  0  0  0  0  0  0  0  0
  159.6140  214.1220  148.3200 O   0  0  0  0  0  0  0  0  0  0  0  0
  163.3010  214.4520  146.0900 C   0  0  0  0  0  3  0  0  0  0  0  0
  161.9360  213.4760  144.3460 C   0  0  0  0  0  3  0  0  0  0  0  0
  163.0970  214.1450  144.7430 C   0  0  0  0  0  3  0  0  0  0  0  0
  161.1810  213.4030  146.6560 C   0  0  0  0  0  0  0  0  0  0  0  0
  162.3480  214.0830  147.0420 C   0  0  0  0  0  3  0  0  0  0  0  0
  160.9720  213.1070  145.2930 C   0  0  0  0  0  0  0  0  0  0  0  0
  159.7170  212.4410  144.8070 C   0  0  0  0  0  2  0  0  0  0  0  0
  159.8630  211.9120  143.3800 C   0  0  0  0  0  2  0  0  0  0  0  0
  159.7000  213.0150  142.3380 C   0  0  1  0  0  3  0  0  0  0  0  0
  160.7200  212.8870  141.3500 O   0  0  0  0  0  0  0  0  0  0  0  0
  158.8130  212.5480  140.2780 C   0  0  0  0  0  0  0  0  0  0  0  0
  158.4950  212.8130  141.5970 O   0  0  0  0  0  0  0  0  0  0  0  0
  160.1160  212.6040  140.1330 C   0  0  0  0  0  0  0  0  0  0  0  0
  157.8390  212.2470  139.2270 C   0  0  0  0  0  3  0  0  0  0  0  0
  157.5030  213.1700  138.3360 C   0  0  0  0  0  3  0  0  0  0  0  0
  156.5100  212.8620  137.2740 C   0  0  0  0  0  2  0  0  0  0  0  0
  155.2590  212.2960  137.9120 C   0  0  0  0  0  1  0  0  0  0  0  0
  160.8190  212.3930  138.9080 N   0  0  0  0  0  2  0  0  0  0  0  0
  162.3710  210.8920  137.4760 C   0  0  0  0  0  2  0  0  0  0  0  0
  162.7470  210.9940  138.9290 C   0  0  1  0  0  3  0  0  0  0  0  0
  160.9370  210.0020  139.3610 O   0  0  0  0  0  0  0  0  0  0  0  0
  161.2900  211.0720  138.5230 C   0  0  1  0  0  0  0  0  0  0  0  0
  162.2730  209.8160  139.7310 C   0  0  0  0  0  2  0  0  0  0  0  0
  158.7370  214.4520  150.5650 C   0  0  0  0  0  2  0  0  0  0  0  0
  158.6920  213.6330  151.8500 C   0  0  0  0  0  2  0  0  0  0  0  0
  159.1140  214.4110  154.2240 C   0  0  0  0  0  2  0  0  0  0  0  0
  157.9590  212.3670  154.9950 O   0  0  0  0  0  0  0  0  0  0  0  0
  159.1970  213.0400  154.9220 C   0  0  0  0  0  2  0  0  0  0  0  0
  157.0690  213.1820  155.7170 C   0  0  0  0  0  2  0  0  0  0  0  0
  154.8150  213.8670  154.9150 C   0  0  0  0  0  1  0  0  0  0  0  0
  156.7150  214.0210  153.3170 C   0  0  0  0  0  2  0  0  0  0  0  0
  156.3000  214.1430  154.7900 C   0  0  2  0  0  3  0  0  0  0  0  0
  158.1620  214.4530  153.0150 C   0  0  2  0  0  3  0  0  0  0  0  0
  161.9850  210.2210  149.5210 C   0  0  0  0  0  2  0  0  0  0  0  0
  162.3590  208.8560  148.9660 C   0  0  0  0  0  2  0  0  0  0  0  0
  161.5920  207.7380  149.6640 C   0  0  0  0  0  2  0  0  0  0  0  0
  160.5660  207.0950  148.7400 C   0  0  0  0  0  2  0  0  0  0  0  0
  161.0850  205.7820  148.1740 C   0  0  2  0  0  3  0  0  0  0  0  0
  161.8240  205.0040  149.2550 C   0  0  0  0  0  2  0  0  0  0  0  0
  160.8580  204.1160  150.0250 C   0  0  0  0  0  2  0  0  0  0  0  0
  161.3530  203.8960  151.4470 C   0  0  0  0  0  2  0  0  0  0  0  0
  160.9850  205.0710  152.3410 C   0  0  0  0  0  2  0  0  0  0  0  0
  162.1920  205.9040  152.6370 C   0  0  0  0  0  0  0  0  0  0  0  0
  162.0700  207.2370  153.1360 N   0  0  0  0  0  2  0  0  0  0  0  0
  163.3350  205.4310  152.4140 O   0  0  0  0  0  0  0  0  0  0  0  0
  159.6020  209.9990  153.0440 C   0  0  0  0  0  1  0  0  0  0  0  0
  160.7890  207.8660  153.4090 C   0  0  2  0  0  3  0  0  0  0  0  0
  160.9500  209.3740  153.3380 C   0  0  2  0  0  3  0  0  0  0  0  0
  160.8940  208.6810  154.6820 C   0  0  0  0  0  2  0  0  0  0  0  0
  161.9510  206.0450  147.0990 O   0  0  0  0  0  0  0  0  0  0  0  0
  161.5290  205.3180  145.9630 C   0  0  1  0  0  0  0  0  0  0  0  0
  160.5390  205.9900  145.2540 F   0  0  0  0  0  0  0  0  0  0  0  0
  162.7040  205.0380  145.0390 C   0  0  0  0  0  1  0  0  0  0  0  0
  160.9710  203.9750  146.4140 C   0  0  0  0  0  2  0  0  0  0  0  0
  161.0310  202.9410  145.3010 C   0  0  0  0  0  2  0  0  0  0  0  0
  160.3450  200.5760  144.9210 O   0  0  0  0  0  0  0  0  0  0  0  0
  160.5590  201.6250  145.8050 C   0  0  0  0  0  0  0  0  0  0  0  0
  160.3290  201.4690  147.0330 O   0  0  0  0  0  1  0  0  0  0  0  0
  1 11  1  6  0  0  0
  1  7  1  0  0  0  0
  1  6  1  0  0  0  0
  2  3  1  0  0  0  0
  2 31  1  1  0  0  0
  3  4  1  1  0  0  0
  5  6  2  0  0  0  0
  5 41  1  0  0  0  0
  6  3  1  0  0  0  0
  7  2  1  0  0  0  0
  8 12  1  0  0  0  0
  9 10  1  0  0  0  0
  9 13  2  0  0  0  0
 10  8  2  0  0  0  0
 11 12  2  0  0  0  0
 13 11  1  0  0  0  0
 14 13  1  0  0  0  0
 15 14  1  0  0  0  0
 16 15  1  1  0  0  0
 17 16  1  0  0  0  0
 18 19  1  0  0  0  0
 19 16  1  0  0  0  0
 20 18  2  0  0  0  0
 20 17  1  0  0  0  0
 21 18  1  0  0  0  0
 22 21  2  0  0  0  0
 23 24  1  0  0  0  0
 23 22  1  0  0  0  0
 25 20  1  0  0  0  0
 26 29  1  0  0  0  0
 27 26  1  6  0  0  0
 27 30  1  0  0  0  0
 28 30  1  0  0  0  0
 29 25  1  1  0  0  0
 29 27  1  0  0  0  0
 29 28  1  0  0  0  0
 31 32  1  0  0  0  0
 33 35  1  0  0  0  0
 34 36  1  0  0  0  0
 35 34  1  0  0  0  0
 38 39  1  0  0  0  0
 39 37  1  6  0  0  0
 39 36  1  0  0  0  0
 40 32  1  6  0  0  0
 40 38  1  0  0  0  0
 40 33  1  0  0  0  0
 42 41  1  0  0  0  0
 42 43  1  0  0  0  0
 44 43  1  0  0  0  0
 45 44  1  1  0  0  0
 45 46  1  0  0  0  0
 46 47  1  0  0  0  0
 47 48  1  0  0  0  0
 48 49  1  0  0  0  0
 49 50  1  0  0  0  0
 50 51  1  0  0  0  0
 52 50  2  0  0  0  0
 54 51  1  6  0  0  0
 54 56  1  0  0  0  0
 55 53  1  1  0  0  0
 55 54  1  0  0  0  0
 55 56  1  0  0  0  0
 57 45  1  0  0  0  0
 58 60  1  6  0  0  0
 58 61  1  0  0  0  0
 58 57  1  0  0  0  0
 59 58  1  0  0  0  0
 62 64  1  0  0  0  0
 62 61  1  0  0  0  0
 63 64  2  0  0  0  0
 64 65  1  0  0  0  0
M  END
>  <MODEL>
1

>  <REMARK>
 VINA RESULT:      -5.1      0.000      0.000
  Name = 
  27 active torsions:
  status: ('A' for Active; 'I' for Inactive)
    1  A    between atoms: C_1  and  C_5
    2  A    between atoms: C_1  and  C_52
    3  A    between atoms: C_3  and  C_21
    4  A    between atoms: O_4  and  C_7
    5  A    between atoms: O_4  and  C_20
    6  A    between atoms: C_5  and  C_12
    7  A    between atoms: C_6  and  C_16
    8  A    between atoms: C_7  and  C_61
    9  A    between atoms: C_7  and  C_65
   10  A    between atoms: C_8  and  C_25
   11  A    between atoms: C_9  and  C_33
   12  A    between atoms: C_10  and  C_30
   13  A    between atoms: C_11  and  C_27
   14  A    between atoms: C_11  and  N_40
   15  A    between atoms: C_12  and  C_65
   16  A    between atoms: C_20  and  C_60
   17  A    between atoms: C_21  and  C_58
   18  A    between atoms: C_23  and  C_28
   19  A    between atoms: C_26  and  N_54
   20  A    between atoms: C_27  and  C_29
   21  A    between atoms: C_28  and  C_60
   22  A    between atoms: C_29  and  C_61
   23  A    between atoms: C_33  and  C_35
   24  A    between atoms: C_35  and  C_63
   25  A    between atoms: C_43  and  N_49
   26  A    between atoms: N_49  and  C_50
   27  A    between atoms: C_55  and  C_58
                            x       y       z     vdW  Elec       q    Type
                         _______ _______ _______ _____ _____    ______ ____

>  <TORSDO>
F 27

$$$$
=
 OpenBabel11042423013D

 65 71  0  0  1  0  0  0  0  0999 V2000
  160.4220  209.4600  152.2290 C   0  0  1  0  0  3  0  0  0  0  0  0
  161.2670  210.4300  154.1230 C   0  0  1  0  0  3  0  0  0  0  0  0
  161.2420  208.9310  154.4500 C   0  0  1  0  0  3  0  0  0  0  0  0
  160.3710  208.6230  155.5020 O   0  0  0  0  0  1  0  0  0  0  0  0
  160.5820  207.1300  152.9160 N   0  0  0  0  0  0  0  0  0  0  0  0
  160.7210  208.3820  153.1920 C   0  0  0  0  0  0  0  0  0  0  0  0
  160.7000  210.6950  152.8510 O   0  0  0  0  0  0  0  0  0  0  0  0
  162.6650  207.9830  149.5310 C   0  0  0  0  0  3  0  0  0  0  0  0
  161.9710  210.1890  148.8180 C   0  0  0  0  0  3  0  0  0  0  0  0
  162.6760  209.0070  148.5810 C   0  0  0  0  0  3  0  0  0  0  0  0
  161.2200  209.3180  150.9600 C   0  0  0  0  0  0  0  0  0  0  0  0
  161.9410  208.1380  150.7140 C   0  0  0  0  0  3  0  0  0  0  0  0
  161.2450  210.3560  150.0040 C   0  0  0  0  0  0  0  0  0  0  0  0
  160.5510  211.6670  150.2350 C   0  0  0  0  0  2  0  0  0  0  0  0
  161.5250  212.8460  150.2040 C   0  0  0  0  0  2  0  0  0  0  0  0
  161.2320  213.8040  149.0540 C   0  0  1  0  0  3  0  0  0  0  0  0
  161.4790  213.1440  147.8140 O   0  0  0  0  0  0  0  0  0  0  0  0
  159.3110  213.5920  147.8240 C   0  0  0  0  0  0  0  0  0  0  0  0
  159.8340  214.0920  149.0020 O   0  0  0  0  0  0  0  0  0  0  0  0
  160.2790  213.0480  147.1240 C   0  0  0  0  0  0  0  0  0  0  0  0
  157.8990  213.6600  147.4390 C   0  0  0  0  0  3  0  0  0  0  0  0
  157.5020  213.2200  146.2530 C   0  0  0  0  0  3  0  0  0  0  0  0
  156.0700  213.2970  145.8650 C   0  0  0  0  0  2  0  0  0  0  0  0
  155.8740  214.4530  144.9080 C   0  0  0  0  0  1  0  0  0  0  0  0
  160.1250  212.4340  145.8440 N   0  0  0  0  0  2  0  0  0  0  0  0
  161.0490  212.1530  143.4410 C   0  0  0  0  0  2  0  0  0  0  0  0
  159.7170  212.8450  143.5330 C   0  0  1  0  0  3  0  0  0  0  0  0
  160.7140  214.4060  144.5420 O   0  0  0  0  0  0  0  0  0  0  0  0
  160.7270  213.0060  144.6510 C   0  0  1  0  0  0  0  0  0  0  0  0
  159.8380  214.3400  143.4530 C   0  0  0  0  0  2  0  0  0  0  0  0
  160.6790  211.3550  155.1930 C   0  0  0  0  0  2  0  0  0  0  0  0
  160.2180  212.6800  154.5970 C   0  0  0  0  0  2  0  0  0  0  0  0
  158.4540  212.2160  156.3570 C   0  0  0  0  0  2  0  0  0  0  0  0
  157.0950  211.1710  154.5780 O   0  0  0  0  0  0  0  0  0  0  0  0
  157.8370  210.9390  155.7560 C   0  0  0  0  0  2  0  0  0  0  0  0
  156.0560  212.0640  154.8940 C   0  0  0  0  0  2  0  0  0  0  0  0
  155.5960  214.1820  153.6720 C   0  0  0  0  0  1  0  0  0  0  0  0
  157.9550  213.6730  154.2700 C   0  0  0  0  0  2  0  0  0  0  0  0
  156.4900  213.5300  154.7060 C   0  0  2  0  0  3  0  0  0  0  0  0
  158.9890  213.2150  155.3150 C   0  0  2  0  0  3  0  0  0  0  0  0
  160.8870  206.0880  153.8640 C   0  0  0  0  0  2  0  0  0  0  0  0
  161.8590  205.0910  153.2560 C   0  0  0  0  0  2  0  0  0  0  0  0
  161.1360  204.0440  152.4150 C   0  0  0  0  0  2  0  0  0  0  0  0
  161.8720  203.7600  151.1130 C   0  0  0  0  0  2  0  0  0  0  0  0
  160.9010  203.6560  149.9470 C   0  0  2  0  0  3  0  0  0  0  0  0
  160.0050  202.4360  150.1210 C   0  0  0  0  0  2  0  0  0  0  0  0
  160.0100  201.5890  148.8570 C   0  0  0  0  0  2  0  0  0  0  0  0
  161.2310  200.6830  148.8270 C   0  0  0  0  0  2  0  0  0  0  0  0
  161.9220  200.7400  147.4730 C   0  0  0  0  0  2  0  0  0  0  0  0
  161.3080  199.7570  146.5270 C   0  0  0  0  0  0  0  0  0  0  0  0
  160.2120  200.1210  145.6840 N   0  0  0  0  0  2  0  0  0  0  0  0
  161.7460  198.5790  146.4940 O   0  0  0  0  0  0  0  0  0  0  0  0
  158.7610  203.1280  144.0790 C   0  0  0  0  0  1  0  0  0  0  0  0
  159.6350  201.4550  145.6680 C   0  0  2  0  0  3  0  0  0  0  0  0
  159.8090  202.0540  144.2840 C   0  0  2  0  0  3  0  0  0  0  0  0
  160.7310  202.4680  145.4100 C   0  0  0  0  0  2  0  0  0  0  0  0
  161.6230  203.5490  148.7450 O   0  0  0  0  0  0  0  0  0  0  0  0
  161.5440  204.7700  148.0360 C   0  0  1  0  0  0  0  0  0  0  0  0
  160.5070  205.5720  148.4980 F   0  0  0  0  0  0  0  0  0  0  0  0
  162.8550  205.5340  148.1400 C   0  0  0  0  0  1  0  0  0  0  0  0
  161.3030  204.4720  146.5630 C   0  0  0  0  0  2  0  0  0  0  0  0
  162.1230  205.3850  145.6650 C   0  0  0  0  0  2  0  0  0  0  0  0
  160.2460  206.7930  144.8260 O   0  0  0  0  0  1  0  0  0  0  0  0
  161.2760  205.9010  144.5580 C   0  0  0  0  0  0  0  0  0  0  0  0
  161.4770  205.5090  143.3790 O   0  0  0  0  0  0  0  0  0  0  0  0
  1 11  1  6  0  0  0
  1  7  1  0  0  0  0
  1  6  1  0  0  0  0
  2  3  1  0  0  0  0
  2 31  1  1  0  0  0
  3  4  1  1  0  0  0
  5  6  2  0  0  0  0
  5 41  1  0  0  0  0
  6  3  1  0  0  0  0
  7  2  1  0  0  0  0
  8 12  1  0  0  0  0
  9 13  2  0  0  0  0
 10  9  1  0  0  0  0
 10  8  2  0  0  0  0
 12 11  2  0  0  0  0
 13 14  1  0  0  0  0
 13 11  1  0  0  0  0
 15 14  1  0  0  0  0
 16 15  1  1  0  0  0
 17 16  1  0  0  0  0
 18 19  1  0  0  0  0
 19 16  1  0  0  0  0
 20 17  1  0  0  0  0
 20 18  2  0  0  0  0
 21 18  1  0  0  0  0
 22 21  2  0  0  0  0
 23 22  1  0  0  0  0
 24 23  1  0  0  0  0
 25 20  1  0  0  0  0
 26 29  1  0  0  0  0
 27 26  1  6  0  0  0
 27 29  1  0  0  0  0
 28 29  1  0  0  0  0
 29 25  1  1  0  0  0
 30 27  1  0  0  0  0
 30 28  1  0  0  0  0
 32 31  1  0  0  0  0
 34 36  1  0  0  0  0
 34 35  1  0  0  0  0
 35 33  1  0  0  0  0
 38 39  1  0  0  0  0
 38 40  1  0  0  0  0
 39 37  1  6  0  0  0
 39 36  1  0  0  0  0
 40 32  1  6  0  0  0
 40 33  1  0  0  0  0
 42 41  1  0  0  0  0
 43 42  1  0  0  0  0
 44 43  1  0  0  0  0
 45 46  1  1  0  0  0
 45 44  1  0  0  0  0
 47 46  1  0  0  0  0
 48 47  1  0  0  0  0
 49 48  1  0  0  0  0
 50 49  1  0  0  0  0
 51 50  1  0  0  0  0
 52 50  2  0  0  0  0
 54 51  1  6  0  0  0
 55 53  1  1  0  0  0
 55 56  1  0  0  0  0
 55 54  1  0  0  0  0
 56 54  1  0  0  0  0
 57 45  1  0  0  0  0
 58 60  1  1  0  0  0
 58 59  1  0  0  0  0
 58 57  1  0  0  0  0
 61 58  1  0  0  0  0
 62 61  1  0  0  0  0
 64 63  1  0  0  0  0
 64 62  1  0  0  0  0
 65 64  2  0  0  0  0
M  END
>  <MODEL>
2

>  <REMARK>
 VINA RESULT:      -2.3      2.939      6.197
  Name = 
  27 active torsions:
  status: ('A' for Active; 'I' for Inactive)
    1  A    between atoms: C_1  and  C_5
    2  A    between atoms: C_1  and  C_52
    3  A    between atoms: C_3  and  C_21
    4  A    between atoms: O_4  and  C_7
    5  A    between atoms: O_4  and  C_20
    6  A    between atoms: C_5  and  C_12
    7  A    between atoms: C_6  and  C_16
    8  A    between atoms: C_7  and  C_61
    9  A    between atoms: C_7  and  C_65
   10  A    between atoms: C_8  and  C_25
   11  A    between atoms: C_9  and  C_33
   12  A    between atoms: C_10  and  C_30
   13  A    between atoms: C_11  and  C_27
   14  A    between atoms: C_11  and  N_40
   15  A    between atoms: C_12  and  C_65
   16  A    between atoms: C_20  and  C_60
   17  A    between atoms: C_21  and  C_58
   18  A    between atoms: C_23  and  C_28
   19  A    between atoms: C_26  and  N_54
   20  A    between atoms: C_27  and  C_29
   21  A    between atoms: C_28  and  C_60
   22  A    between atoms: C_29  and  C_61
   23  A    between atoms: C_33  and  C_35
   24  A    between atoms: C_35  and  C_63
   25  A    between atoms: C_43  and  N_49
   26  A    between atoms: N_49  and  C_50
   27  A    between atoms: C_55  and  C_58
                            x       y       z     vdW  Elec       q    Type
                         _______ _______ _______ _____ _____    ______ ____

>  <TORSDO>
F 27

$$$$
