=
 OpenBabel11042421063D

 36 39  0  0  1  0  0  0  0  0999 V2000
  161.3170  207.3380  152.0750 C   0  0  0  0  0  0  0  0  0  0  0  0
  161.8540  209.0190  150.3990 C   0  0  0  0  0  0  0  0  0  0  0  0
  160.9110  206.4640  151.0690 C   0  0  0  0  0  3  0  0  0  0  0  0
  160.9690  206.8450  149.7290 C   0  0  0  0  0  0  0  0  0  0  0  0
  161.4430  208.1210  149.4000 C   0  0  0  0  0  3  0  0  0  0  0  0
  161.2760  206.9090  153.3990 O   0  0  0  0  0  1  0  0  0  0  0  0
  161.7860  208.6230  151.7570 C   0  0  0  0  0  0  0  0  0  0  0  0
  162.0260  210.9630  148.9270 C   0  0  0  0  0  0  0  0  0  0  0  0
  162.3570  210.3560  150.0360 C   0  0  0  0  0  3  0  0  0  0  0  0
  161.6650  211.5610  147.8290 C   0  0  0  0  0  3  0  0  0  0  0  0
  158.6940  213.6860  146.6980 C   0  0  0  0  0  2  0  0  0  0  0  0
  159.6040  212.5920  146.8610 O   0  0  0  0  0  0  0  0  0  0  0  0
  159.5270  214.4530  148.8670 N   0  0  0  0  0  2  0  0  0  0  0  0
  160.6130  212.5890  147.8430 C   0  0  0  0  0  0  0  0  0  0  0  0
  158.3170  214.2560  148.0650 C   0  0  0  0  0  2  0  0  0  0  0  0
  160.6040  213.5070  148.8100 C   0  0  0  0  0  3  0  0  0  0  0  0
  162.1830  209.5460  152.8830 C   0  0  0  0  0  2  0  0  0  0  0  0
  161.0000  210.0190  153.6790 C   0  0  0  0  0  0  0  0  0  0  0  0
  160.1780  211.7670  152.0240 C   0  0  0  0  0  1  0  0  0  0  0  0
  159.4580  211.0200  156.5370 N   0  0  0  0  0  0  0  0  0  0  0  0
  157.0920  211.7440  156.4340 C   0  0  0  0  0  0  0  0  0  0  0  0
  158.4550  211.6810  157.0370 C   0  0  0  0  0  3  0  0  0  0  0  0
  156.8720  211.8010  155.1110 C   0  0  0  0  0  3  0  0  0  0  0  0
  160.7180  209.6730  154.9360 C   0  0  0  0  0  0  0  0  0  0  0  0
  159.0040  210.9810  154.1630 C   0  0  0  0  0  0  0  0  0  0  0  0
  159.3600  210.1620  155.3600 C   0  0  2  0  0  3  0  0  0  0  0  0
  157.8800  211.6810  154.0390 C   0  0  0  0  0  3  0  0  0  0  0  0
  159.9860  210.8510  153.1370 N   0  0  0  0  0  0  0  0  0  0  0  0
  161.5710  208.8630  155.7460 N   0  0  0  0  0  1  0  0  0  0  0  0
  155.9720  211.8170  157.2610 O   0  0  0  0  0  0  0  0  0  0  0  0
  155.0170  212.8650  157.1700 C   0  0  0  0  0  1  0  0  0  0  0  0
  160.5790  205.9070  148.7240 N   0  0  0  0  0  2  0  0  0  0  0  0
  160.4780  206.2370  145.9170 N   0  0  0  0  0  1  0  0  0  0  0  0
  162.7380  206.4580  147.2720 O   0  0  0  0  0  0  0  0  0  0  0  0
  161.7390  204.2090  147.0360 O   0  0  0  0  0  0  0  0  0  0  0  0
  161.4510  205.6770  147.2350 S   0  0  0  0  0  0  0  0  0  0  0  0
  1  6  1  0  0  0  0
  2  7  2  0  0  0  0
  3  1  2  0  0  0  0
  4  3  1  0  0  0  0
  5  4  2  0  0  0  0
  5  2  1  0  0  0  0
  7  1  1  0  0  0  0
  7 17  1  0  0  0  0
  8  9  2  0  0  0  0
  9  2  1  0  0  0  0
 10 14  1  0  0  0  0
 10  8  2  0  0  0  0
 11 12  1  0  0  0  0
 11 15  1  0  0  0  0
 12 14  1  0  0  0  0
 14 16  2  0  0  0  0
 15 13  1  0  0  0  0
 16 13  1  0  0  0  0
 17 18  1  0  0  0  0
 18 24  2  0  0  0  0
 19 28  1  0  0  0  0
 20 22  2  0  0  0  0
 21 22  1  0  0  0  0
 21 30  1  0  0  0  0
 23 21  2  0  0  0  0
 24 26  1  0  0  0  0
 24 29  1  0  0  0  0
 26 25  1  6  0  0  0
 26 20  1  0  0  0  0
 27 25  2  0  0  0  0
 27 23  1  0  0  0  0
 28 18  1  0  0  0  0
 28 25  1  0  0  0  0
 31 30  1  0  0  0  0
 32  4  1  0  0  0  0
 33 36  1  0  0  0  0
 35 36  2  0  0  0  0
 36 34  2  0  0  0  0
 36 32  1  0  0  0  0
M  END
>  <MODEL>
1

>  <REMARK>
 VINA RESULT:      -7.2      0.000      0.000
  Name = 
  7 active torsions:
  status: ('A' for Active; 'I' for Inactive)
    1  A    between atoms: C_1  and  C_13
    2  A    between atoms: O_3  and  C_5
    3  A    between atoms: C_13  and  C_33
    4  A    between atoms: C_16  and  C_31
    5  A    between atoms: C_20  and  C_22
    6  A    between atoms: N_21  and  C_25
    7  A    between atoms: N_21  and  S_35
                            x       y       z     vdW  Elec       q    Type
                         _______ _______ _______ _____ _____    ______ ____

>  <TORSDO>
F 7

$$$$
=
 OpenBabel11042421063D

 36 39  0  0  1  0  0  0  0  0999 V2000
  161.3460  207.7540  152.5500 C   0  0  0  0  0  0  0  0  0  0  0  0
  161.8940  209.3090  150.7590 C   0  0  0  0  0  0  0  0  0  0  0  0
  160.9660  206.8010  151.6080 C   0  0  0  0  0  3  0  0  0  0  0  0
  161.0430  207.0800  150.2440 C   0  0  0  0  0  0  0  0  0  0  0  0
  161.5100  208.3320  149.8260 C   0  0  0  0  0  3  0  0  0  0  0  0
  161.2860  207.4280  153.9030 O   0  0  0  0  0  1  0  0  0  0  0  0
  161.8060  209.0170  152.1430 C   0  0  0  0  0  0  0  0  0  0  0  0
  162.0810  211.1310  149.1410 C   0  0  0  0  0  0  0  0  0  0  0  0
  162.3890  210.6190  150.3030 C   0  0  0  0  0  3  0  0  0  0  0  0
  161.7420  211.6340  147.9900 C   0  0  0  0  0  3  0  0  0  0  0  0
  158.9510  213.7900  146.5150 C   0  0  0  0  0  2  0  0  0  0  0  0
  159.8490  212.7010  146.7560 O   0  0  0  0  0  0  0  0  0  0  0  0
  159.3870  214.4160  148.8390 N   0  0  0  0  0  2  0  0  0  0  0  0
  160.6770  212.6430  147.8930 C   0  0  0  0  0  0  0  0  0  0  0  0
  158.3350  214.2590  147.8320 C   0  0  0  0  0  2  0  0  0  0  0  0
  160.4820  213.4920  148.9030 C   0  0  0  0  0  3  0  0  0  0  0  0
  162.1740  210.0270  153.2010 C   0  0  0  0  0  2  0  0  0  0  0  0
  160.9730  210.5430  153.9420 C   0  0  0  0  0  0  0  0  0  0  0  0
  161.3790  209.2970  156.1210 C   0  0  0  0  0  1  0  0  0  0  0  0
  157.6800  211.3360  154.2210 N   0  0  0  0  0  0  0  0  0  0  0  0
  156.8240  212.1520  156.3970 C   0  0  0  0  0  0  0  0  0  0  0  0
  156.6940  211.5330  155.0450 C   0  0  0  0  0  3  0  0  0  0  0  0
  157.8680  211.9340  157.2110 C   0  0  0  0  0  3  0  0  0  0  0  0
  159.9840  211.2660  153.4120 C   0  0  0  0  0  0  0  0  0  0  0  0
  159.6040  211.0900  155.6650 C   0  0  0  0  0  0  0  0  0  0  0  0
  159.0470  211.7880  154.4670 C   0  0  2  0  0  3  0  0  0  0  0  0
  159.1000  211.1850  156.8920 C   0  0  0  0  0  3  0  0  0  0  0  0
  160.7940  210.3750  155.3390 N   0  0  0  0  0  0  0  0  0  0  0  0
  159.8820  211.5740  152.0220 N   0  0  0  0  0  1  0  0  0  0  0  0
  155.7930  212.9470  156.8960 O   0  0  0  0  0  0  0  0  0  0  0  0
  155.1670  213.9650  156.1270 C   0  0  0  0  0  1  0  0  0  0  0  0
  160.6810  206.0630  149.3070 N   0  0  0  0  0  2  0  0  0  0  0  0
  161.8050  204.2460  147.4540 N   0  0  0  0  0  1  0  0  0  0  0  0
  160.4300  206.3670  146.6770 O   0  0  0  0  0  0  0  0  0  0  0  0
  162.6660  206.7300  147.6660 O   0  0  0  0  0  0  0  0  0  0  0  0
  161.4030  205.9070  147.7300 S   0  0  0  0  0  0  0  0  0  0  0  0
  1  6  1  0  0  0  0
  2  7  2  0  0  0  0
  3  1  2  0  0  0  0
  4  3  1  0  0  0  0
  5  4  2  0  0  0  0
  5  2  1  0  0  0  0
  7  1  1  0  0  0  0
  7 17  1  0  0  0  0
  8  9  2  0  0  0  0
  9  2  1  0  0  0  0
 10  8  2  0  0  0  0
 11 12  1  0  0  0  0
 11 15  1  0  0  0  0
 12 14  1  0  0  0  0
 13 16  1  0  0  0  0
 14 10  1  0  0  0  0
 14 16  2  0  0  0  0
 15 13  1  0  0  0  0
 17 18  1  0  0  0  0
 18 28  1  0  0  0  0
 20 26  1  0  0  0  0
 20 22  2  0  0  0  0
 21 30  1  0  0  0  0
 21 23  2  0  0  0  0
 22 21  1  0  0  0  0
 24 18  2  0  0  0  0
 25 27  2  0  0  0  0
 26 24  1  6  0  0  0
 26 25  1  0  0  0  0
 27 23  1  0  0  0  0
 28 25  1  0  0  0  0
 28 19  1  0  0  0  0
 29 24  1  0  0  0  0
 31 30  1  0  0  0  0
 32  4  1  0  0  0  0
 33 36  1  0  0  0  0
 34 36  2  0  0  0  0
 35 36  2  0  0  0  0
 36 32  1  0  0  0  0
M  END
>  <MODEL>
2

>  <REMARK>
 VINA RESULT:      -6.7      1.048      1.874
  Name = 
  7 active torsions:
  status: ('A' for Active; 'I' for Inactive)
    1  A    between atoms: C_1  and  C_13
    2  A    between atoms: O_3  and  C_5
    3  A    between atoms: C_13  and  C_33
    4  A    between atoms: C_16  and  C_31
    5  A    between atoms: C_20  and  C_22
    6  A    between atoms: N_21  and  C_25
    7  A    between atoms: N_21  and  S_35
                            x       y       z     vdW  Elec       q    Type
                         _______ _______ _______ _____ _____    ______ ____

>  <TORSDO>
F 7

$$$$
=
 OpenBabel11042421063D

 36 39  0  0  1  0  0  0  0  0999 V2000
  161.6200  205.9200  153.1830 C   0  0  0  0  0  0  0  0  0  0  0  0
  161.2400  206.4590  150.8400 C   0  0  0  0  0  0  0  0  0  0  0  0
  161.0770  204.6530  152.9800 C   0  0  0  0  0  3  0  0  0  0  0  0
  160.6140  204.2710  151.7220 C   0  0  0  0  0  0  0  0  0  0  0  0
  160.7000  205.1750  150.6570 C   0  0  0  0  0  3  0  0  0  0  0  0
  162.1010  206.2530  154.4470 O   0  0  0  0  0  1  0  0  0  0  0  0
  161.7030  206.8380  152.1240 C   0  0  0  0  0  0  0  0  0  0  0  0
  161.9900  207.1270  148.6120 C   0  0  0  0  0  0  0  0  0  0  0  0
  161.3310  207.3970  149.7070 C   0  0  0  0  0  3  0  0  0  0  0  0
  162.6310  206.8290  147.5190 C   0  0  0  0  0  3  0  0  0  0  0  0
  161.9890  205.4790  144.0000 C   0  0  0  0  0  2  0  0  0  0  0  0
  162.6060  205.7550  145.2630 O   0  0  0  0  0  0  0  0  0  0  0  0
  159.8770  205.9330  145.1480 N   0  0  0  0  0  0  0  0  0  0  0  0
  161.9090  206.3550  146.3290 C   0  0  1  0  0  3  0  0  0  0  0  0
  160.5460  205.0240  144.2140 C   0  0  0  0  0  2  0  0  0  0  0  0
  160.5820  206.4750  146.2730 C   0  0  0  0  0  3  0  0  0  0  0  0
  162.2680  208.2100  152.4010 C   0  0  0  0  0  2  0  0  0  0  0  0
  161.2210  209.1720  152.8880 C   0  0  0  0  0  0  0  0  0  0  0  0
  161.1980  210.6840  150.8440 C   0  0  0  0  0  1  0  0  0  0  0  0
  159.7810  211.1750  155.2250 N   0  0  0  0  0  0  0  0  0  0  0  0
  157.8020  212.5240  154.5930 C   0  0  0  0  0  0  0  0  0  0  0  0
  158.9970  212.1930  155.4240 C   0  0  0  0  0  3  0  0  0  0  0  0
  157.7600  212.3570  153.2620 C   0  0  0  0  0  3  0  0  0  0  0  0
  160.7060  209.2040  154.1180 C   0  0  0  0  0  0  0  0  0  0  0  0
  159.6030  210.7610  152.8500 C   0  0  0  0  0  0  0  0  0  0  0  0
  159.5410  210.1510  154.2120 C   0  0  2  0  0  3  0  0  0  0  0  0
  158.7870  211.7170  152.4160 C   0  0  0  0  0  3  0  0  0  0  0  0
  160.5970  210.1280  152.0470 N   0  0  0  0  0  0  0  0  0  0  0  0
  161.1550  208.3730  155.1900 N   0  0  0  0  0  1  0  0  0  0  0  0
  156.6830  213.1010  155.1900 O   0  0  0  0  0  0  0  0  0  0  0  0
  155.7210  213.8480  154.4580 C   0  0  0  0  0  1  0  0  0  0  0  0
  160.0990  202.9490  151.5440 N   0  0  0  0  0  2  0  0  0  0  0  0
  160.9770  203.0100  148.8570 N   0  0  0  0  0  1  0  0  0  0  0  0
  161.4270  200.9330  150.4300 O   0  0  0  0  0  0  0  0  0  0  0  0
  159.1080  201.3370  149.6740 O   0  0  0  0  0  0  0  0  0  0  0  0
  160.3940  201.9860  150.1250 S   0  0  0  0  0  0  0  0  0  0  0  0
  1  6  1  0  0  0  0
  2  7  1  0  0  0  0
  3  1  1  0  0  0  0
  4  3  2  0  0  0  0
  5  2  2  0  0  0  0
  5  4  1  0  0  0  0
  7 17  1  0  0  0  0
  7  1  2  0  0  0  0
  8  9  2  0  0  0  0
  9  2  1  0  0  0  0
 10  8  2  0  0  0  0
 11 15  1  0  0  0  0
 11 12  1  0  0  0  0
 12 14  1  0  0  0  0
 13 16  2  0  0  0  0
 14 10  1  1  0  0  0
 15 13  1  0  0  0  0
 16 14  1  0  0  0  0
 17 18  1  0  0  0  0
 18 24  2  0  0  0  0
 19 28  1  0  0  0  0
 20 22  2  0  0  0  0
 21 30  1  0  0  0  0
 21 22  1  0  0  0  0
 23 21  2  0  0  0  0
 24 26  1  0  0  0  0
 24 29  1  0  0  0  0
 26 25  1  6  0  0  0
 26 20  1  0  0  0  0
 27 25  2  0  0  0  0
 27 23  1  0  0  0  0
 28 25  1  0  0  0  0
 28 18  1  0  0  0  0
 31 30  1  0  0  0  0
 32  4  1  0  0  0  0
 33 36  1  0  0  0  0
 35 36  2  0  0  0  0
 36 34  2  0  0  0  0
 36 32  1  0  0  0  0
M  END
>  <MODEL>
3

>  <REMARK>
 VINA RESULT:      -5.5      2.776      4.401
  Name = 
  7 active torsions:
  status: ('A' for Active; 'I' for Inactive)
    1  A    between atoms: C_1  and  C_13
    2  A    between atoms: O_3  and  C_5
    3  A    between atoms: C_13  and  C_33
    4  A    between atoms: C_16  and  C_31
    5  A    between atoms: C_20  and  C_22
    6  A    between atoms: N_21  and  C_25
    7  A    between atoms: N_21  and  S_35
                            x       y       z     vdW  Elec       q    Type
                         _______ _______ _______ _____ _____    ______ ____

>  <TORSDO>
F 7

$$$$
=
 OpenBabel11042421063D

 36 39  0  0  1  0  0  0  0  0999 V2000
  160.4480  209.4590  152.8990 C   0  0  0  0  0  0  0  0  0  0  0  0
  161.1020  211.0720  151.1970 C   0  0  0  0  0  0  0  0  0  0  0  0
  159.3800  210.2760  153.2640 C   0  0  0  0  0  3  0  0  0  0  0  0
  159.1560  211.4870  152.6110 C   0  0  0  0  0  0  0  0  0  0  0  0
  160.0170  211.8790  151.5780 C   0  0  0  0  0  3  0  0  0  0  0  0
  160.6200  208.2410  153.5520 O   0  0  0  0  0  1  0  0  0  0  0  0
  161.3230  209.8460  151.8710 C   0  0  0  0  0  0  0  0  0  0  0  0
  161.6710  211.3910  148.8420 C   0  0  0  0  0  0  0  0  0  0  0  0
  161.9950  211.4940  150.1040 C   0  0  0  0  0  3  0  0  0  0  0  0
  161.3200  211.3030  147.5920 C   0  0  0  0  0  3  0  0  0  0  0  0
  161.1290  214.1580  145.0560 C   0  0  0  0  0  2  0  0  0  0  0  0
  161.4360  212.9040  145.6770 O   0  0  0  0  0  0  0  0  0  0  0  0
  159.2110  214.2230  146.5730 N   0  0  0  0  0  0  0  0  0  0  0  0
  160.8160  212.4790  146.8670 C   0  0  1  0  0  3  0  0  0  0  0  0
  159.6360  214.4530  145.1900 C   0  0  0  0  0  2  0  0  0  0  0  0
  159.7490  213.1300  147.3310 C   0  0  0  0  0  3  0  0  0  0  0  0
  162.4850  208.9430  151.5340 C   0  0  0  0  0  2  0  0  0  0  0  0
  162.0380  207.6130  150.9970 C   0  0  0  0  0  0  0  0  0  0  0  0
  162.6970  206.2120  153.0140 C   0  0  0  0  0  1  0  0  0  0  0  0
  161.7860  205.2370  148.5800 N   0  0  0  0  0  0  0  0  0  0  0  0
  160.6830  203.0870  149.1230 C   0  0  0  0  0  0  0  0  0  0  0  0
  161.5910  203.9740  148.3380 C   0  0  0  0  0  3  0  0  0  0  0  0
  160.5370  203.1730  150.4540 C   0  0  0  0  0  3  0  0  0  0  0  0
  161.6290  207.3760  149.7490 C   0  0  0  0  0  0  0  0  0  0  0  0
  161.3790  205.4430  150.9540 C   0  0  0  0  0  0  0  0  0  0  0  0
  161.0630  205.9890  149.6000 C   0  0  2  0  0  3  0  0  0  0  0  0
  161.1120  204.2000  151.3440 C   0  0  0  0  0  3  0  0  0  0  0  0
  161.9300  206.4500  151.8010 N   0  0  0  0  0  0  0  0  0  0  0  0
  161.6490  208.3520  148.7080 N   0  0  0  0  0  1  0  0  0  0  0  0
  159.9910  202.0630  148.4790 O   0  0  0  0  0  0  0  0  0  0  0  0
  160.6450  201.0350  147.7470 C   0  0  0  0  0  1  0  0  0  0  0  0
  158.0280  212.2800  152.9880 N   0  0  0  0  0  2  0  0  0  0  0  0
  156.6610  214.1860  154.5690 N   0  0  0  0  0  1  0  0  0  0  0  0
  157.1280  211.7300  155.4290 O   0  0  0  0  0  0  0  0  0  0  0  0
  159.0470  213.2770  155.2340 O   0  0  0  0  0  0  0  0  0  0  0  0
  157.7440  212.8360  154.6130 S   0  0  0  0  0  0  0  0  0  0  0  0
  1  3  1  0  0  0  0
  1  6  1  0  0  0  0
  2  5  2  0  0  0  0
  2  7  1  0  0  0  0
  4 32  1  0  0  0  0
  4  3  2  0  0  0  0
  5  4  1  0  0  0  0
  7  1  2  0  0  0  0
  8  9  2  0  0  0  0
  9  2  1  0  0  0  0
 10  8  2  0  0  0  0
 11 15  1  0  0  0  0
 11 12  1  0  0  0  0
 12 14  1  0  0  0  0
 13 16  2  0  0  0  0
 14 16  1  0  0  0  0
 14 10  1  6  0  0  0
 15 13  1  0  0  0  0
 17  7  1  0  0  0  0
 18 17  1  0  0  0  0
 18 28  1  0  0  0  0
 21 23  2  0  0  0  0
 22 20  2  0  0  0  0
 22 21  1  0  0  0  0
 23 27  1  0  0  0  0
 24 18  2  0  0  0  0
 25 27  2  0  0  0  0
 25 28  1  0  0  0  0
 26 20  1  6  0  0  0
 26 24  1  0  0  0  0
 26 25  1  0  0  0  0
 28 19  1  0  0  0  0
 29 24  1  0  0  0  0
 30 21  1  0  0  0  0
 31 30  1  0  0  0  0
 32 36  1  0  0  0  0
 33 36  1  0  0  0  0
 36 35  2  0  0  0  0
 36 34  2  0  0  0  0
M  END
>  <MODEL>
4

>  <REMARK>
 VINA RESULT:      -5.4      3.125      7.507
  Name = 
  7 active torsions:
  status: ('A' for Active; 'I' for Inactive)
    1  A    between atoms: C_1  and  C_13
    2  A    between atoms: O_3  and  C_5
    3  A    between atoms: C_13  and  C_33
    4  A    between atoms: C_16  and  C_31
    5  A    between atoms: C_20  and  C_22
    6  A    between atoms: N_21  and  C_25
    7  A    between atoms: N_21  and  S_35
                            x       y       z     vdW  Elec       q    Type
                         _______ _______ _______ _____ _____    ______ ____

>  <TORSDO>
F 7

$$$$
=
 OpenBabel11042421063D

 36 39  0  0  1  0  0  0  0  0999 V2000
  162.0750  207.5600  150.9210 C   0  0  0  0  0  0  0  0  0  0  0  0
  161.8490  209.6190  149.6420 C   0  0  0  0  0  0  0  0  0  0  0  0
  161.6250  206.8290  149.8240 C   0  0  0  0  0  3  0  0  0  0  0  0
  161.2850  207.4700  148.6330 C   0  0  0  0  0  0  0  0  0  0  0  0
  161.4010  208.8630  148.5470 C   0  0  0  0  0  3  0  0  0  0  0  0
  162.4360  206.8820  152.0820 O   0  0  0  0  0  1  0  0  0  0  0  0
  162.1870  208.9580  150.8490 C   0  0  0  0  0  0  0  0  0  0  0  0
  162.2630  211.6920  148.4140 C   0  0  0  0  0  0  0  0  0  0  0  0
  161.9730  211.0840  149.5340 C   0  0  0  0  0  3  0  0  0  0  0  0
  162.5290  212.2790  147.2840 C   0  0  0  0  0  3  0  0  0  0  0  0
  159.1000  213.6700  146.3230 C   0  0  0  0  0  2  0  0  0  0  0  0
  160.2500  213.2850  147.0840 O   0  0  0  0  0  0  0  0  0  0  0  0
  160.6260  213.7420  144.4120 N   0  0  0  0  0  0  0  0  0  0  0  0
  161.4560  212.8830  146.4800 C   0  0  1  0  0  3  0  0  0  0  0  0
  159.5350  214.4520  145.0840 C   0  0  0  0  0  2  0  0  0  0  0  0
  161.6410  213.0740  145.1730 C   0  0  0  0  0  3  0  0  0  0  0  0
  162.6480  209.7100  152.0740 C   0  0  0  0  0  2  0  0  0  0  0  0
  161.5030  210.1190  152.9580 C   0  0  0  0  0  0  0  0  0  0  0  0
  161.5530  208.1000  154.5040 C   0  0  0  0  0  1  0  0  0  0  0  0
  158.3770  211.3250  153.5260 N   0  0  0  0  0  0  0  0  0  0  0  0
  157.5290  211.4100  155.8510 C   0  0  0  0  0  0  0  0  0  0  0  0
  157.3860  211.3730  154.3660 C   0  0  0  0  0  3  0  0  0  0  0  0
  158.4680  210.7220  156.5190 C   0  0  0  0  0  3  0  0  0  0  0  0
  160.6850  211.1500  152.7440 C   0  0  0  0  0  0  0  0  0  0  0  0
  160.1350  210.2190  154.7640 C   0  0  0  0  0  0  0  0  0  0  0  0
  159.7810  211.4000  153.9210 C   0  0  2  0  0  3  0  0  0  0  0  0
  159.5750  209.9390  155.9370 C   0  0  0  0  0  3  0  0  0  0  0  0
  161.2080  209.4770  154.1890 N   0  0  0  0  0  0  0  0  0  0  0  0
  160.7260  211.9670  151.5730 N   0  0  0  0  0  1  0  0  0  0  0  0
  156.6150  212.1330  156.6160 O   0  0  0  0  0  0  0  0  0  0  0  0
  155.4260  212.6870  156.0710 C   0  0  0  0  0  1  0  0  0  0  0  0
  160.8630  206.6820  147.5170 N   0  0  0  0  0  2  0  0  0  0  0  0
  161.6650  205.6170  145.0230 N   0  0  0  0  0  1  0  0  0  0  0  0
  163.3200  205.7610  147.0810 O   0  0  0  0  0  0  0  0  0  0  0  0
  161.4780  204.1150  147.1840 O   0  0  0  0  0  0  0  0  0  0  0  0
  161.8770  205.5000  146.7380 S   0  0  0  0  0  0  0  0  0  0  0  0
  1  6  1  0  0  0  0
  2  7  2  0  0  0  0
  3  1  2  0  0  0  0
  4  3  1  0  0  0  0
  5  4  2  0  0  0  0
  5  2  1  0  0  0  0
  7  1  1  0  0  0  0
  7 17  1  0  0  0  0
  8  9  2  0  0  0  0
  9  2  1  0  0  0  0
 10  8  2  0  0  0  0
 11 12  1  0  0  0  0
 13 15  1  0  0  0  0
 13 16  2  0  0  0  0
 14 12  1  0  0  0  0
 14 10  1  1  0  0  0
 15 11  1  0  0  0  0
 16 14  1  0  0  0  0
 17 18  1  0  0  0  0
 18 28  1  0  0  0  0
 20 26  1  0  0  0  0
 20 22  2  0  0  0  0
 21 23  2  0  0  0  0
 21 30  1  0  0  0  0
 22 21  1  0  0  0  0
 24 18  2  0  0  0  0
 25 27  2  0  0  0  0
 26 24  1  6  0  0  0
 26 25  1  0  0  0  0
 27 23  1  0  0  0  0
 28 19  1  0  0  0  0
 28 25  1  0  0  0  0
 29 24  1  0  0  0  0
 31 30  1  0  0  0  0
 32  4  1  0  0  0  0
 33 36  1  0  0  0  0
 36 34  2  0  0  0  0
 36 35  2  0  0  0  0
 36 32  1  0  0  0  0
M  END
>  <MODEL>
5

>  <REMARK>
 VINA RESULT:      -5.1      1.476      2.220
  Name = 
  7 active torsions:
  status: ('A' for Active; 'I' for Inactive)
    1  A    between atoms: C_1  and  C_13
    2  A    between atoms: O_3  and  C_5
    3  A    between atoms: C_13  and  C_33
    4  A    between atoms: C_16  and  C_31
    5  A    between atoms: C_20  and  C_22
    6  A    between atoms: N_21  and  C_25
    7  A    between atoms: N_21  and  S_35
                            x       y       z     vdW  Elec       q    Type
                         _______ _______ _______ _____ _____    ______ ____

>  <TORSDO>
F 7

$$$$
=
 OpenBabel11042421063D

 36 39  0  0  1  0  0  0  0  0999 V2000
  161.5640  211.9530  149.4070 C   0  0  0  0  0  0  0  0  0  0  0  0
  160.3560  211.5940  151.4900 C   0  0  0  0  0  0  0  0  0  0  0  0
  160.6020  212.8790  149.0090 C   0  0  0  0  0  3  0  0  0  0  0  0
  159.5170  213.1760  149.8320 C   0  0  0  0  0  0  0  0  0  0  0  0
  159.4000  212.5340  151.0700 C   0  0  0  0  0  3  0  0  0  0  0  0
  162.6510  211.7070  148.5720 O   0  0  0  0  0  1  0  0  0  0  0  0
  161.4520  211.2960  150.6430 C   0  0  0  0  0  0  0  0  0  0  0  0
  159.8630  211.5650  153.8830 C   0  0  0  0  0  0  0  0  0  0  0  0
  160.2240  210.9320  152.8000 C   0  0  0  0  0  3  0  0  0  0  0  0
  159.4780  212.2100  154.9460 C   0  0  0  0  0  3  0  0  0  0  0  0
  155.8990  210.9420  155.3960 C   0  0  0  0  0  2  0  0  0  0  0  0
  157.3120  210.9830  155.1660 O   0  0  0  0  0  0  0  0  0  0  0  0
  156.2270  213.0440  156.6040 N   0  0  0  0  0  2  0  0  0  0  0  0
  158.0840  212.1350  155.4080 C   0  0  0  0  0  0  0  0  0  0  0  0
  155.5530  211.7440  156.6490 C   0  0  0  0  0  2  0  0  0  0  0  0
  157.5580  213.1580  156.0820 C   0  0  0  0  0  3  0  0  0  0  0  0
  162.5010  210.2760  151.0160 C   0  0  0  0  0  2  0  0  0  0  0  0
  162.0760  208.8730  150.6890 C   0  0  0  0  0  0  0  0  0  0  0  0
  162.1750  207.9470  153.0560 C   0  0  0  0  0  1  0  0  0  0  0  0
  162.1590  206.0190  148.8450 N   0  0  0  0  0  0  0  0  0  0  0  0
  160.7980  204.0820  149.5720 C   0  0  0  0  0  0  0  0  0  0  0  0
  161.9200  204.7410  148.8420 C   0  0  0  0  0  3  0  0  0  0  0  0
  160.3780  204.4720  150.7860 C   0  0  0  0  0  3  0  0  0  0  0  0
  161.9250  208.3710  149.4620 C   0  0  0  0  0  0  0  0  0  0  0  0
  161.2710  206.7700  150.9650 C   0  0  0  0  0  0  0  0  0  0  0  0
  161.2960  207.0050  149.4900 C   0  0  2  0  0  3  0  0  0  0  0  0
  160.8290  205.6570  151.5420 C   0  0  0  0  0  3  0  0  0  0  0  0
  161.7070  207.9260  151.6780 N   0  0  0  0  0  0  0  0  0  0  0  0
  162.2440  209.0850  148.2670 N   0  0  0  0  0  1  0  0  0  0  0  0
  160.1800  202.9590  149.0230 O   0  0  0  0  0  0  0  0  0  0  0  0
  160.8340  202.0960  148.1030 C   0  0  0  0  0  1  0  0  0  0  0  0
  158.5710  214.1590  149.4050 N   0  0  0  0  0  2  0  0  0  0  0  0
  155.7820  214.4500  149.0340 N   0  0  0  0  0  1  0  0  0  0  0  0
  157.4730  214.4530  147.0010 O   0  0  0  0  0  0  0  0  0  0  0  0
  157.0860  212.3180  148.1870 O   0  0  0  0  0  0  0  0  0  0  0  0
  157.2360  213.8120  148.3430 S   0  0  0  0  0  0  0  0  0  0  0  0
  1  7  1  0  0  0  0
  2  9  1  0  0  0  0
  3  1  2  0  0  0  0
  3  4  1  0  0  0  0
  4  5  2  0  0  0  0
  5  2  1  0  0  0  0
  6  1  1  0  0  0  0
  7 17  1  0  0  0  0
  7  2  2  0  0  0  0
  8 10  2  0  0  0  0
  9  8  2  0  0  0  0
 10 14  1  0  0  0  0
 11 15  1  0  0  0  0
 12 11  1  0  0  0  0
 12 14  1  0  0  0  0
 13 15  1  0  0  0  0
 14 16  2  0  0  0  0
 16 13  1  0  0  0  0
 18 17  1  0  0  0  0
 18 28  1  0  0  0  0
 21 23  2  0  0  0  0
 22 20  2  0  0  0  0
 22 21  1  0  0  0  0
 23 27  1  0  0  0  0
 24 26  1  0  0  0  0
 24 18  2  0  0  0  0
 25 27  2  0  0  0  0
 25 28  1  0  0  0  0
 26 20  1  6  0  0  0
 26 25  1  0  0  0  0
 28 19  1  0  0  0  0
 29 24  1  0  0  0  0
 30 21  1  0  0  0  0
 31 30  1  0  0  0  0
 32  4  1  0  0  0  0
 34 36  2  0  0  0  0
 35 36  2  0  0  0  0
 36 33  1  0  0  0  0
 36 32  1  0  0  0  0
M  END
>  <MODEL>
6

>  <REMARK>
 VINA RESULT:      -4.7      2.784      7.974
  Name = 
  7 active torsions:
  status: ('A' for Active; 'I' for Inactive)
    1  A    between atoms: C_1  and  C_13
    2  A    between atoms: O_3  and  C_5
    3  A    between atoms: C_13  and  C_33
    4  A    between atoms: C_16  and  C_31
    5  A    between atoms: C_20  and  C_22
    6  A    between atoms: N_21  and  C_25
    7  A    between atoms: N_21  and  S_35
                            x       y       z     vdW  Elec       q    Type
                         _______ _______ _______ _____ _____    ______ ____

>  <TORSDO>
F 7

$$$$
=
 OpenBabel11042421063D

 36 39  0  0  1  0  0  0  0  0999 V2000
  160.7830  212.2360  148.5530 C   0  0  0  0  0  0  0  0  0  0  0  0
  159.8930  212.8600  150.7310 C   0  0  0  0  0  0  0  0  0  0  0  0
  159.6490  212.7610  147.9380 C   0  0  0  0  0  3  0  0  0  0  0  0
  158.6310  213.3380  148.6970 C   0  0  0  0  0  0  0  0  0  0  0  0
  158.7600  213.3870  150.0900 C   0  0  0  0  0  3  0  0  0  0  0  0
  161.7930  211.6970  147.7600 O   0  0  0  0  0  1  0  0  0  0  0  0
  160.9190  212.2720  149.9500 C   0  0  0  0  0  0  0  0  0  0  0  0
  159.1230  213.4970  152.9610 C   0  0  0  0  0  0  0  0  0  0  0  0
  160.0170  212.9260  152.1970 C   0  0  0  0  0  3  0  0  0  0  0  0
  158.2100  214.0490  153.7060 C   0  0  0  0  0  3  0  0  0  0  0  0
  156.0360  211.0410  154.6290 C   0  0  0  0  0  2  0  0  0  0  0  0
  157.1240  211.8420  154.1540 O   0  0  0  0  0  0  0  0  0  0  0  0
  155.4720  212.9730  156.0210 N   0  0  0  0  0  2  0  0  0  0  0  0
  157.2070  213.2260  154.3990 C   0  0  0  0  0  0  0  0  0  0  0  0
  155.6100  211.5140  156.0180 C   0  0  0  0  0  2  0  0  0  0  0  0
  156.3880  213.7950  155.2850 C   0  0  0  0  0  3  0  0  0  0  0  0
  162.1500  211.6600  150.5720 C   0  0  0  0  0  2  0  0  0  0  0  0
  161.9200  210.2460  151.0240 C   0  0  0  0  0  0  0  0  0  0  0  0
  161.9050  210.7060  153.5250 C   0  0  0  0  0  1  0  0  0  0  0  0
  162.4990  206.8980  150.9580 N   0  0  0  0  0  0  0  0  0  0  0  0
  161.3080  205.4430  152.5690 C   0  0  0  0  0  0  0  0  0  0  0  0
  162.4100  205.7840  151.6220 C   0  0  0  0  0  3  0  0  0  0  0  0
  160.7360  206.3380  153.3880 C   0  0  0  0  0  3  0  0  0  0  0  0
  161.9420  209.1660  150.2410 C   0  0  0  0  0  0  0  0  0  0  0  0
  161.3400  208.4990  152.3490 C   0  0  0  0  0  0  0  0  0  0  0  0
  161.4730  207.9360  150.9720 C   0  0  2  0  0  3  0  0  0  0  0  0
  160.9770  207.7950  153.4170 C   0  0  0  0  0  3  0  0  0  0  0  0
  161.5720  209.9060  152.3570 N   0  0  0  0  0  0  0  0  0  0  0  0
  162.2870  209.1960  148.8560 N   0  0  0  0  0  1  0  0  0  0  0  0
  160.8760  204.1220  152.6810 O   0  0  0  0  0  0  0  0  0  0  0  0
  160.9080  203.2090  151.5920 C   0  0  0  0  0  1  0  0  0  0  0  0
  157.5000  213.9000  148.0270 N   0  0  0  0  0  2  0  0  0  0  0  0
  155.6830  214.4490  145.9310 N   0  0  0  0  0  1  0  0  0  0  0  0
  158.2910  214.3010  145.5190 O   0  0  0  0  0  0  0  0  0  0  0  0
  157.0730  212.2080  146.0180 O   0  0  0  0  0  0  0  0  0  0  0  0
  157.1820  213.6810  146.3290 S   0  0  0  0  0  0  0  0  0  0  0  0
  1  7  1  0  0  0  0
  2  9  1  0  0  0  0
  3  1  2  0  0  0  0
  3  4  1  0  0  0  0
  4  5  2  0  0  0  0
  5  2  1  0  0  0  0
  6  1  1  0  0  0  0
  7 17  1  0  0  0  0
  7  2  2  0  0  0  0
  8 10  2  0  0  0  0
  9  8  2  0  0  0  0
 10 14  1  0  0  0  0
 11 15  1  0  0  0  0
 12 14  1  0  0  0  0
 12 11  1  0  0  0  0
 14 16  2  0  0  0  0
 15 13  1  0  0  0  0
 16 13  1  0  0  0  0
 17 18  1  0  0  0  0
 18 28  1  0  0  0  0
 20 26  1  0  0  0  0
 20 22  2  0  0  0  0
 21 30  1  0  0  0  0
 21 23  2  0  0  0  0
 22 21  1  0  0  0  0
 23 27  1  0  0  0  0
 24 18  2  0  0  0  0
 25 28  1  0  0  0  0
 25 27  2  0  0  0  0
 26 24  1  6  0  0  0
 26 25  1  0  0  0  0
 28 19  1  0  0  0  0
 29 24  1  0  0  0  0
 31 30  1  0  0  0  0
 32  4  1  0  0  0  0
 33 36  1  0  0  0  0
 34 36  2  0  0  0  0
 35 36  2  0  0  0  0
 36 32  1  0  0  0  0
M  END
>  <MODEL>
7

>  <REMARK>
 VINA RESULT:      -4.6      2.941      7.209
  Name = 
  7 active torsions:
  status: ('A' for Active; 'I' for Inactive)
    1  A    between atoms: C_1  and  C_13
    2  A    between atoms: O_3  and  C_5
    3  A    between atoms: C_13  and  C_33
    4  A    between atoms: C_16  and  C_31
    5  A    between atoms: C_20  and  C_22
    6  A    between atoms: N_21  and  C_25
    7  A    between atoms: N_21  and  S_35
                            x       y       z     vdW  Elec       q    Type
                         _______ _______ _______ _____ _____    ______ ____

>  <TORSDO>
F 7

$$$$
=
 OpenBabel11042421063D

 36 39  0  0  1  0  0  0  0  0999 V2000
  161.3150  212.3760  149.6650 C   0  0  0  0  0  0  0  0  0  0  0  0
  160.0190  211.7200  151.6180 C   0  0  0  0  0  0  0  0  0  0  0  0
  160.2850  213.2250  149.2660 C   0  0  0  0  0  3  0  0  0  0  0  0
  159.1210  213.3360  150.0250 C   0  0  0  0  0  0  0  0  0  0  0  0
  158.9950  212.5850  151.2000 C   0  0  0  0  0  3  0  0  0  0  0  0
  162.4760  212.3170  148.8980 O   0  0  0  0  0  1  0  0  0  0  0  0
  161.1960  211.6110  150.8360 C   0  0  0  0  0  0  0  0  0  0  0  0
  159.6310  211.4920  154.0200 C   0  0  0  0  0  0  0  0  0  0  0  0
  159.8740  210.9410  152.8610 C   0  0  0  0  0  3  0  0  0  0  0  0
  159.3650  212.0580  155.1620 C   0  0  0  0  0  3  0  0  0  0  0  0
  155.8210  210.9050  156.0160 C   0  0  0  0  0  2  0  0  0  0  0  0
  157.2230  210.8990  155.7220 O   0  0  0  0  0  0  0  0  0  0  0  0
  156.1800  213.2100  156.7550 N   0  0  0  0  0  2  0  0  0  0  0  0
  157.9930  212.0780  155.6890 C   0  0  0  0  0  0  0  0  0  0  0  0
  155.5200  211.9460  157.0930 C   0  0  0  0  0  2  0  0  0  0  0  0
  157.4870  213.2160  156.1630 C   0  0  0  0  0  3  0  0  0  0  0  0
  162.3240  210.6810  151.2090 C   0  0  0  0  0  2  0  0  0  0  0  0
  162.0850  209.2740  150.7390 C   0  0  0  0  0  0  0  0  0  0  0  0
  161.6670  209.8210  148.2910 C   0  0  0  0  0  1  0  0  0  0  0  0
  160.7100  206.1770  150.9820 N   0  0  0  0  0  0  0  0  0  0  0  0
  161.1120  204.5400  149.1670 C   0  0  0  0  0  0  0  0  0  0  0  0
  160.3670  205.1040  150.3310 C   0  0  0  0  0  3  0  0  0  0  0  0
  161.6980  205.2990  148.2280 C   0  0  0  0  0  3  0  0  0  0  0  0
  161.9640  208.2020  151.5220 C   0  0  0  0  0  0  0  0  0  0  0  0
  161.9020  207.4960  149.3440 C   0  0  0  0  0  0  0  0  0  0  0  0
  161.9360  206.9260  150.7240 C   0  0  2  0  0  3  0  0  0  0  0  0
  161.8320  206.7690  148.2320 C   0  0  0  0  0  3  0  0  0  0  0  0
  162.0360  208.9150  149.3670 N   0  0  0  0  0  0  0  0  0  0  0  0
  161.9500  208.2580  152.9490 N   0  0  0  0  0  1  0  0  0  0  0  0
  161.1620  203.1590  148.9820 O   0  0  0  0  0  0  0  0  0  0  0  0
  160.7720  202.2350  149.9880 C   0  0  0  0  0  1  0  0  0  0  0  0
  158.1020  214.2470  149.6030 N   0  0  0  0  0  2  0  0  0  0  0  0
  157.1520  214.4530  146.9470 N   0  0  0  0  0  1  0  0  0  0  0  0
  156.7070  212.3100  148.4310 O   0  0  0  0  0  0  0  0  0  0  0  0
  155.5120  214.3950  149.0130 O   0  0  0  0  0  0  0  0  0  0  0  0
  156.8130  213.8100  148.5180 S   0  0  0  0  0  0  0  0  0  0  0  0
  1  7  1  0  0  0  0
  2  9  1  0  0  0  0
  3  1  2  0  0  0  0
  3  4  1  0  0  0  0
  4  5  2  0  0  0  0
  5  2  1  0  0  0  0
  6  1  1  0  0  0  0
  7 17  1  0  0  0  0
  7  2  2  0  0  0  0
  8 10  2  0  0  0  0
  9  8  2  0  0  0  0
 10 14  1  0  0  0  0
 11 15  1  0  0  0  0
 12 11  1  0  0  0  0
 13 15  1  0  0  0  0
 14 12  1  0  0  0  0
 14 16  2  0  0  0  0
 16 13  1  0  0  0  0
 18 17  1  0  0  0  0
 18 24  2  0  0  0  0
 19 28  1  0  0  0  0
 21 22  1  0  0  0  0
 22 20  2  0  0  0  0
 23 27  1  0  0  0  0
 23 21  2  0  0  0  0
 24 29  1  0  0  0  0
 25 28  1  0  0  0  0
 26 25  1  6  0  0  0
 26 20  1  0  0  0  0
 26 24  1  0  0  0  0
 27 25  2  0  0  0  0
 28 18  1  0  0  0  0
 30 21  1  0  0  0  0
 30 31  1  0  0  0  0
 32  4  1  0  0  0  0
 33 36  1  0  0  0  0
 34 36  2  0  0  0  0
 36 35  2  0  0  0  0
 36 32  1  0  0  0  0
M  END
>  <MODEL>
8

>  <REMARK>
 VINA RESULT:      -4.4      2.785      7.951
  Name = 
  7 active torsions:
  status: ('A' for Active; 'I' for Inactive)
    1  A    between atoms: C_1  and  C_13
    2  A    between atoms: O_3  and  C_5
    3  A    between atoms: C_13  and  C_33
    4  A    between atoms: C_16  and  C_31
    5  A    between atoms: C_20  and  C_22
    6  A    between atoms: N_21  and  C_25
    7  A    between atoms: N_21  and  S_35
                            x       y       z     vdW  Elec       q    Type
                         _______ _______ _______ _____ _____    ______ ____

>  <TORSDO>
F 7

$$$$
=
 OpenBabel11042421063D

 36 39  0  0  1  0  0  0  0  0999 V2000
  161.0470  211.0360  154.1870 C   0  0  0  0  0  0  0  0  0  0  0  0
  159.2690  211.5230  152.5980 C   0  0  0  0  0  0  0  0  0  0  0  0
  160.1400  211.1480  155.2380 C   0  0  0  0  0  3  0  0  0  0  0  0
  158.8000  211.4450  154.9920 C   0  0  0  0  0  0  0  0  0  0  0  0
  158.3700  211.6280  153.6720 C   0  0  0  0  0  3  0  0  0  0  0  0
  162.3710  210.7060  154.4700 O   0  0  0  0  0  1  0  0  0  0  0  0
  160.6290  211.2270  152.8600 C   0  0  0  0  0  0  0  0  0  0  0  0
  158.9260  212.8400  150.5680 C   0  0  0  0  0  0  0  0  0  0  0  0
  158.8000  211.7120  151.2140 C   0  0  0  0  0  3  0  0  0  0  0  0
  159.0840  213.9650  149.9340 C   0  0  0  0  0  3  0  0  0  0  0  0
  162.6270  214.4270  148.5720 C   0  0  0  0  0  2  0  0  0  0  0  0
  161.5250  214.0490  149.4050 O   0  0  0  0  0  0  0  0  0  0  0  0
  160.9930  214.4510  146.7510 N   0  0  0  0  0  0  0  0  0  0  0  0
  160.1870  214.1420  148.9770 C   0  0  1  0  0  3  0  0  0  0  0  0
  162.3440  214.0260  147.1240 C   0  0  0  0  0  2  0  0  0  0  0  0
  159.9140  214.3660  147.6920 C   0  0  0  0  0  3  0  0  0  0  0  0
  161.6560  211.1270  151.7580 C   0  0  0  0  0  2  0  0  0  0  0  0
  161.5680  209.8270  151.0100 C   0  0  0  0  0  0  0  0  0  0  0  0
  161.6050  208.2880  153.0340 C   0  0  0  0  0  1  0  0  0  0  0  0
  162.4340  207.6850  148.5190 N   0  0  0  0  0  0  0  0  0  0  0  0
  161.4360  205.4190  148.4830 C   0  0  0  0  0  0  0  0  0  0  0  0
  162.4680  206.4410  148.1410 C   0  0  0  0  0  3  0  0  0  0  0  0
  160.8180  205.3650  149.6740 C   0  0  0  0  0  3  0  0  0  0  0  0
  161.6540  209.6840  149.6870 C   0  0  0  0  0  0  0  0  0  0  0  0
  161.1920  207.6300  150.5910 C   0  0  0  0  0  0  0  0  0  0  0  0
  161.3230  208.2810  149.2530 C   0  0  2  0  0  3  0  0  0  0  0  0
  160.9310  206.3390  150.7770 C   0  0  0  0  0  3  0  0  0  0  0  0
  161.3000  208.5870  151.6440 N   0  0  0  0  0  0  0  0  0  0  0  0
  161.9440  210.7560  148.7890 N   0  0  0  0  0  1  0  0  0  0  0  0
  161.1250  204.4160  147.5670 O   0  0  0  0  0  0  0  0  0  0  0  0
  161.5820  204.4360  146.2220 C   0  0  0  0  0  1  0  0  0  0  0  0
  157.8920  211.5140  156.0940 N   0  0  0  0  0  2  0  0  0  0  0  0
  155.8310  213.0080  154.8610 N   0  0  0  0  0  1  0  0  0  0  0  0
  155.6020  210.4120  155.3090 O   0  0  0  0  0  0  0  0  0  0  0  0
  155.5350  211.9380  157.2540 O   0  0  0  0  0  0  0  0  0  0  0  0
  156.1680  211.6730  155.9090 S   0  0  0  0  0  0  0  0  0  0  0  0
  1  6  1  0  0  0  0
  1  3  1  0  0  0  0
  2  7  1  0  0  0  0
  2  5  2  0  0  0  0
  4  3  2  0  0  0  0
  4 32  1  0  0  0  0
  5  4  1  0  0  0  0
  7  1  2  0  0  0  0
  8  9  2  0  0  0  0
  9  2  1  0  0  0  0
 10  8  2  0  0  0  0
 11 12  1  0  0  0  0
 13 15  1  0  0  0  0
 13 16  2  0  0  0  0
 14 12  1  0  0  0  0
 14 10  1  6  0  0  0
 15 11  1  0  0  0  0
 16 14  1  0  0  0  0
 17  7  1  0  0  0  0
 18 28  1  0  0  0  0
 18 17  1  0  0  0  0
 21 23  2  0  0  0  0
 22 21  1  0  0  0  0
 22 20  2  0  0  0  0
 23 27  1  0  0  0  0
 24 18  2  0  0  0  0
 25 27  2  0  0  0  0
 25 28  1  0  0  0  0
 26 20  1  6  0  0  0
 26 24  1  0  0  0  0
 26 25  1  0  0  0  0
 28 19  1  0  0  0  0
 29 24  1  0  0  0  0
 30 21  1  0  0  0  0
 31 30  1  0  0  0  0
 33 36  1  0  0  0  0
 34 36  2  0  0  0  0
 36 32  1  0  0  0  0
 36 35  2  0  0  0  0
M  END
>  <MODEL>
9

>  <REMARK>
 VINA RESULT:      -4.2      2.928      7.606
  Name = 
  7 active torsions:
  status: ('A' for Active; 'I' for Inactive)
    1  A    between atoms: C_1  and  C_13
    2  A    between atoms: O_3  and  C_5
    3  A    between atoms: C_13  and  C_33
    4  A    between atoms: C_16  and  C_31
    5  A    between atoms: C_20  and  C_22
    6  A    between atoms: N_21  and  C_25
    7  A    between atoms: N_21  and  S_35
                            x       y       z     vdW  Elec       q    Type
                         _______ _______ _______ _____ _____    ______ ____

>  <TORSDO>
F 7

$$$$
