=
 OpenBabel11052411133D

 26 29  0  0  1  0  0  0  0  0999 V2000
  161.5420  209.1190  151.6990 C   0  0  0  0  0  0  0  0  0  0  0  0
  162.2600  207.0140  150.4020 C   0  0  1  0  0  3  0  0  0  0  0  0
  162.3020  208.4380  150.6960 N   0  0  0  0  0  2  0  0  0  0  0  0
  159.9100  210.6000  153.4520 C   0  0  0  0  0  0  0  0  0  0  0  0
  160.5340  211.2280  152.3690 C   0  0  0  0  0  3  0  0  0  0  0  0
  162.3320  206.2450  152.7650 C   0  0  0  0  0  3  0  0  0  0  0  0
  162.8280  206.2300  151.5320 C   0  0  0  0  0  3  0  0  0  0  0  0
  160.1280  209.2380  153.6690 C   0  0  0  0  0  3  0  0  0  0  0  0
  160.9490  208.4740  152.8200 C   0  0  0  0  0  0  0  0  0  0  0  0
  160.4580  206.5500  154.1120 O   0  0  0  0  0  0  0  0  0  0  0  0
  161.3400  210.4910  151.5050 C   0  0  0  0  0  3  0  0  0  0  0  0
  161.1980  207.0620  153.2280 C   0  0  0  0  0  0  0  0  0  0  0  0
  160.8480  205.0540  149.7980 C   0  0  0  0  0  2  0  0  0  0  0  0
  160.8410  206.5500  150.0460 C   0  0  2  0  0  3  0  0  0  0  0  0
  160.6600  205.9980  148.6280 C   0  0  1  0  0  3  0  0  0  0  0  0
  162.3630  205.0220  146.9590 C   0  0  0  0  0  0  0  0  0  0  0  0
  161.8830  206.0530  147.8350 N   0  0  0  0  0  2  0  0  0  0  0  0
  163.4350  205.2370  146.3310 O   0  0  0  0  0  0  0  0  0  0  0  0
  161.4360  202.8070  147.7620 C   0  0  0  0  0  3  0  0  0  0  0  0
  160.4900  202.2670  145.2320 N   0  0  0  0  0  0  0  0  0  0  0  0
  161.1600  203.4280  145.4570 C   0  0  0  0  0  3  0  0  0  0  0  0
  161.6520  203.7350  146.7350 C   0  0  0  0  0  0  0  0  0  0  0  0
  160.2720  201.3670  146.2260 C   0  0  0  0  0  3  0  0  0  0  0  0
  160.7440  201.6210  147.5140 C   0  0  0  0  0  3  0  0  0  0  0  0
  159.0840  211.3030  154.3320 O   0  0  0  0  0  0  0  0  0  0  0  0
  158.7630  210.8260  155.6310 C   0  0  0  0  0  1  0  0  0  0  0  0
  1  9  1  0  0  0  0
  2  3  1  0  0  0  0
  2  7  1  1  0  0  0
  3  1  1  0  0  0  0
  4  8  1  0  0  0  0
  4 25  1  0  0  0  0
  5  4  2  0  0  0  0
  6 12  1  0  0  0  0
  7  6  2  0  0  0  0
  9 12  1  0  0  0  0
  9  8  2  0  0  0  0
 11  1  2  0  0  0  0
 11  5  1  0  0  0  0
 12 10  2  0  0  0  0
 14 13  1  1  0  0  0
 14  2  1  0  0  0  0
 15 17  1  6  0  0  0
 15 13  1  0  0  0  0
 15 14  1  0  0  0  0
 16 17  1  0  0  0  0
 18 16  2  0  0  0  0
 20 21  2  0  0  0  0
 20 23  1  0  0  0  0
 21 22  1  0  0  0  0
 22 16  1  0  0  0  0
 22 19  2  0  0  0  0
 23 24  2  0  0  0  0
 24 19  1  0  0  0  0
 25 26  1  0  0  0  0
M  END
>  <MODEL>
1

>  <REMARK>
 VINA RESULT:      -8.3      0.000      0.000
  Name = 
  4 active torsions:
  status: ('A' for Active; 'I' for Inactive)
    1  A    between atoms: C_2  and  C_13
    2  A    between atoms: C_3  and  C_18
    3  A    between atoms: C_5  and  O_9
    4  A    between atoms: N_17  and  C_22
                            x       y       z     vdW  Elec       q    Type
                         _______ _______ _______ _____ _____    ______ ____

>  <TORSDO>
F 4

$$$$
=
 OpenBabel11052411133D

 26 29  0  0  1  0  0  0  0  0999 V2000
  161.8860  205.3200  151.3750 C   0  0  0  0  0  0  0  0  0  0  0  0
  162.1420  207.8240  151.9160 C   0  0  1  0  0  3  0  0  0  0  0  0
  162.4770  206.4180  152.0770 N   0  0  0  0  0  2  0  0  0  0  0  0
  160.6160  203.0720  150.2520 C   0  0  0  0  0  0  0  0  0  0  0  0
  161.3380  202.9530  151.4430 C   0  0  0  0  0  3  0  0  0  0  0  0
  162.0900  207.8110  149.4320 C   0  0  0  0  0  3  0  0  0  0  0  0
  162.5550  208.3100  150.5720 C   0  0  0  0  0  3  0  0  0  0  0  0
  160.5550  204.3120  149.6130 C   0  0  0  0  0  3  0  0  0  0  0  0
  161.1910  205.4500  150.1400 C   0  0  0  0  0  0  0  0  0  0  0  0
  160.3380  206.7340  148.3410 O   0  0  0  0  0  0  0  0  0  0  0  0
  161.9650  204.0680  151.9940 C   0  0  0  0  0  3  0  0  0  0  0  0
  161.1530  206.6820  149.3020 C   0  0  0  0  0  0  0  0  0  0  0  0
  160.3920  209.5800  152.1510 C   0  0  0  0  0  2  0  0  0  0  0  0
  160.6530  208.0860  152.1820 C   0  0  2  0  0  3  0  0  0  0  0  0
  160.3340  208.8450  153.4750 C   0  0  1  0  0  3  0  0  0  0  0  0
  161.6100  210.1420  155.2990 C   0  0  0  0  0  0  0  0  0  0  0  0
  161.5220  209.1510  154.2640 N   0  0  0  0  0  2  0  0  0  0  0  0
  162.7120  210.2700  155.8970 O   0  0  0  0  0  0  0  0  0  0  0  0
  160.0960  212.1500  155.0090 C   0  0  0  0  0  3  0  0  0  0  0  0
  158.6600  211.4110  157.2400 N   0  0  0  0  0  0  0  0  0  0  0  0
  159.7190  210.6530  156.8500 C   0  0  0  0  0  3  0  0  0  0  0  0
  160.4690  211.0000  155.7160 C   0  0  0  0  0  0  0  0  0  0  0  0
  158.2890  212.5240  156.5530 C   0  0  0  0  0  3  0  0  0  0  0  0
  159.0050  212.9160  155.4210 C   0  0  0  0  0  3  0  0  0  0  0  0
  159.9630  201.9800  149.6770 O   0  0  0  0  0  0  0  0  0  0  0  0
  160.5150  201.2340  148.6010 C   0  0  0  0  0  1  0  0  0  0  0  0
  1 11  1  0  0  0  0
  1  3  1  0  0  0  0
  2  7  1  6  0  0  0
  2  3  1  0  0  0  0
  2 14  1  0  0  0  0
  4  5  1  0  0  0  0
  5 11  2  0  0  0  0
  6  7  2  0  0  0  0
  8  9  1  0  0  0  0
  8  4  2  0  0  0  0
  9  1  2  0  0  0  0
 10 12  2  0  0  0  0
 12  6  1  0  0  0  0
 12  9  1  0  0  0  0
 13 15  1  0  0  0  0
 14 13  1  6  0  0  0
 14 15  1  0  0  0  0
 15 17  1  1  0  0  0
 16 22  1  0  0  0  0
 16 18  2  0  0  0  0
 17 16  1  0  0  0  0
 19 24  2  0  0  0  0
 19 22  1  0  0  0  0
 21 20  1  0  0  0  0
 22 21  2  0  0  0  0
 23 20  2  0  0  0  0
 24 23  1  0  0  0  0
 25  4  1  0  0  0  0
 26 25  1  0  0  0  0
M  END
>  <MODEL>
2

>  <REMARK>
 VINA RESULT:      -7.8      2.888      8.839
  Name = 
  4 active torsions:
  status: ('A' for Active; 'I' for Inactive)
    1  A    between atoms: C_2  and  C_13
    2  A    between atoms: C_3  and  C_18
    3  A    between atoms: C_5  and  O_9
    4  A    between atoms: N_17  and  C_22
                            x       y       z     vdW  Elec       q    Type
                         _______ _______ _______ _____ _____    ______ ____

>  <TORSDO>
F 4

$$$$
=
 OpenBabel11052411133D

 26 29  0  0  1  0  0  0  0  0999 V2000
  159.7030  211.8690  153.5830 C   0  0  0  0  0  0  0  0  0  0  0  0
  161.5420  210.1010  153.9310 C   0  0  1  0  0  3  0  0  0  0  0  0
  160.9030  211.1870  153.2050 N   0  0  0  0  0  2  0  0  0  0  0  0
  157.2210  213.0980  154.0880 C   0  0  0  0  0  0  0  0  0  0  0  0
  157.7660  213.1120  152.8010 C   0  0  0  0  0  3  0  0  0  0  0  0
  161.3460  211.1280  156.1860 C   0  0  0  0  0  3  0  0  0  0  0  0
  162.0900  210.5890  155.2250 C   0  0  0  0  0  3  0  0  0  0  0  0
  157.9350  212.4930  155.1240 C   0  0  0  0  0  3  0  0  0  0  0  0
  159.1840  211.8840  154.9080 C   0  0  0  0  0  0  0  0  0  0  0  0
  159.2510  211.2600  157.1920 O   0  0  0  0  0  0  0  0  0  0  0  0
  158.9950  212.5030  152.5560 C   0  0  0  0  0  3  0  0  0  0  0  0
  159.8980  211.3810  156.1160 C   0  0  0  0  0  0  0  0  0  0  0  0
  161.4000  207.6540  154.3720 C   0  0  0  0  0  2  0  0  0  0  0  0
  160.5900  208.9140  154.1290 C   0  0  2  0  0  3  0  0  0  0  0  0
  160.6630  207.8190  153.0580 C   0  0  1  0  0  3  0  0  0  0  0  0
  162.0520  207.2180  150.9740 C   0  0  0  0  0  0  0  0  0  0  0  0
  161.6110  208.1270  151.9930 N   0  0  0  0  0  2  0  0  0  0  0  0
  162.8670  207.6500  150.1140 O   0  0  0  0  0  0  0  0  0  0  0  0
  161.5740  204.9340  151.9570 C   0  0  0  0  0  3  0  0  0  0  0  0
  160.6560  204.0560  149.5130 N   0  0  0  0  0  0  0  0  0  0  0  0
  161.1090  205.3320  149.6330 C   0  0  0  0  0  3  0  0  0  0  0  0
  161.5810  205.8110  150.8650 C   0  0  0  0  0  0  0  0  0  0  0  0
  160.6400  203.2030  150.5710 C   0  0  0  0  0  3  0  0  0  0  0  0
  161.1030  203.6280  151.8170 C   0  0  0  0  0  3  0  0  0  0  0  0
  155.9860  213.6870  154.3690 O   0  0  0  0  0  0  0  0  0  0  0  0
  154.9720  213.8510  153.3860 C   0  0  0  0  0  1  0  0  0  0  0  0
  1  9  1  0  0  0  0
  2 14  1  0  0  0  0
  2  7  1  1  0  0  0
  3  1  1  0  0  0  0
  3  2  1  0  0  0  0
  4 25  1  0  0  0  0
  4  8  1  0  0  0  0
  5  4  2  0  0  0  0
  7  6  2  0  0  0  0
  9  8  2  0  0  0  0
  9 12  1  0  0  0  0
 11  5  1  0  0  0  0
 11  1  2  0  0  0  0
 12  6  1  0  0  0  0
 12 10  2  0  0  0  0
 14 13  1  1  0  0  0
 15 17  1  6  0  0  0
 15 14  1  0  0  0  0
 15 13  1  0  0  0  0
 16 17  1  0  0  0  0
 18 16  2  0  0  0  0
 20 21  2  0  0  0  0
 20 23  1  0  0  0  0
 21 22  1  0  0  0  0
 22 16  1  0  0  0  0
 22 19  2  0  0  0  0
 23 24  2  0  0  0  0
 24 19  1  0  0  0  0
 26 25  1  0  0  0  0
M  END
>  <MODEL>
3

>  <REMARK>
 VINA RESULT:      -7.1      2.739      4.675
  Name = 
  4 active torsions:
  status: ('A' for Active; 'I' for Inactive)
    1  A    between atoms: C_2  and  C_13
    2  A    between atoms: C_3  and  C_18
    3  A    between atoms: C_5  and  O_9
    4  A    between atoms: N_17  and  C_22
                            x       y       z     vdW  Elec       q    Type
                         _______ _______ _______ _____ _____    ______ ____

>  <TORSDO>
F 4

$$$$
=
 OpenBabel11052411133D

 26 29  0  0  1  0  0  0  0  0999 V2000
  159.2740  211.2140  153.6370 C   0  0  0  0  0  0  0  0  0  0  0  0
  161.2730  209.9200  152.6580 C   0  0  1  0  0  3  0  0  0  0  0  0
  160.2350  210.9390  152.6140 N   0  0  0  0  0  2  0  0  0  0  0  0
  157.1770  211.6660  155.4620 C   0  0  0  0  0  0  0  0  0  0  0  0
  157.0530  212.0730  154.1300 C   0  0  0  0  0  3  0  0  0  0  0  0
  162.0190  210.3910  154.9810 C   0  0  0  0  0  3  0  0  0  0  0  0
  162.2920  210.2580  153.6880 C   0  0  0  0  0  3  0  0  0  0  0  0
  158.3620  211.0590  155.8820 C   0  0  0  0  0  3  0  0  0  0  0  0
  159.4330  210.8320  154.9990 C   0  0  0  0  0  0  0  0  0  0  0  0
  160.6360  209.7970  156.7570 O   0  0  0  0  0  0  0  0  0  0  0  0
  158.0940  211.8470  153.2310 C   0  0  0  0  0  3  0  0  0  0  0  0
  160.6850  210.2880  155.5970 C   0  0  0  0  0  0  0  0  0  0  0  0
  161.7850  207.4850  152.7460 C   0  0  0  0  0  2  0  0  0  0  0  0
  160.6840  208.5210  152.8780 C   0  0  2  0  0  3  0  0  0  0  0  0
  160.7280  207.5840  151.6650 C   0  0  1  0  0  3  0  0  0  0  0  0
  161.6460  207.5470  149.2590 C   0  0  0  0  0  0  0  0  0  0  0  0
  161.2910  208.2170  150.4780 N   0  0  0  0  0  2  0  0  0  0  0  0
  162.1090  208.2470  148.3180 O   0  0  0  0  0  0  0  0  0  0  0  0
  161.0450  205.2210  150.0570 C   0  0  0  0  0  3  0  0  0  0  0  0
  161.5610  204.2090  147.5470 N   0  0  0  0  0  0  0  0  0  0  0  0
  161.7300  205.5390  147.7750 C   0  0  0  0  0  3  0  0  0  0  0  0
  161.4730  206.0860  149.0420 C   0  0  0  0  0  0  0  0  0  0  0  0
  161.1390  203.3660  148.5260 C   0  0  0  0  0  3  0  0  0  0  0  0
  160.8750  203.8590  149.8050 C   0  0  0  0  0  3  0  0  0  0  0  0
  156.1500  211.8630  156.3880 O   0  0  0  0  0  0  0  0  0  0  0  0
  155.8850  213.1250  156.9840 C   0  0  0  0  0  1  0  0  0  0  0  0
  1  9  1  0  0  0  0
  2 14  1  0  0  0  0
  2  7  1  1  0  0  0
  3  2  1  0  0  0  0
  3  1  1  0  0  0  0
  4  8  1  0  0  0  0
  4 25  1  0  0  0  0
  5  4  2  0  0  0  0
  6 12  1  0  0  0  0
  7  6  2  0  0  0  0
  9 12  1  0  0  0  0
  9  8  2  0  0  0  0
 11  1  2  0  0  0  0
 11  5  1  0  0  0  0
 12 10  2  0  0  0  0
 14 13  1  1  0  0  0
 15 17  1  6  0  0  0
 15 13  1  0  0  0  0
 15 14  1  0  0  0  0
 16 17  1  0  0  0  0
 18 16  2  0  0  0  0
 20 21  2  0  0  0  0
 20 23  1  0  0  0  0
 21 22  1  0  0  0  0
 22 16  1  0  0  0  0
 22 19  2  0  0  0  0
 23 24  2  0  0  0  0
 24 19  1  0  0  0  0
 25 26  1  0  0  0  0
M  END
>  <MODEL>
4

>  <REMARK>
 VINA RESULT:      -7.0      2.124      3.704
  Name = 
  4 active torsions:
  status: ('A' for Active; 'I' for Inactive)
    1  A    between atoms: C_2  and  C_13
    2  A    between atoms: C_3  and  C_18
    3  A    between atoms: C_5  and  O_9
    4  A    between atoms: N_17  and  C_22
                            x       y       z     vdW  Elec       q    Type
                         _______ _______ _______ _____ _____    ______ ____

>  <TORSDO>
F 4

$$$$
=
 OpenBabel11052411133D

 26 29  0  0  1  0  0  0  0  0999 V2000
  161.5830  206.9900  152.3790 C   0  0  0  0  0  0  0  0  0  0  0  0
  161.5640  209.5390  152.7450 C   0  0  1  0  0  3  0  0  0  0  0  0
  161.8510  208.1690  153.1440 N   0  0  0  0  0  2  0  0  0  0  0  0
  160.8640  204.5960  151.0830 C   0  0  0  0  0  0  0  0  0  0  0  0
  161.1050  204.6080  152.4600 C   0  0  0  0  0  3  0  0  0  0  0  0
  162.4230  209.3330  150.4220 C   0  0  0  0  0  3  0  0  0  0  0  0
  162.4280  209.9420  151.6020 C   0  0  0  0  0  3  0  0  0  0  0  0
  161.0120  205.7780  150.3550 C   0  0  0  0  0  3  0  0  0  0  0  0
  161.3840  206.9870  150.9700 C   0  0  0  0  0  0  0  0  0  0  0  0
  161.2150  208.0800  148.8750 O   0  0  0  0  0  0  0  0  0  0  0  0
  161.4610  205.7950  153.0960 C   0  0  0  0  0  3  0  0  0  0  0  0
  161.6250  208.1470  150.0660 C   0  0  0  0  0  0  0  0  0  0  0  0
  159.8090  211.2060  152.1610 C   0  0  0  0  0  2  0  0  0  0  0  0
  160.0750  209.7370  152.4300 C   0  0  2  0  0  3  0  0  0  0  0  0
  159.2900  210.5810  153.4410 C   0  0  1  0  0  3  0  0  0  0  0  0
  159.6730  211.8920  155.6240 C   0  0  0  0  0  0  0  0  0  0  0  0
  160.1020  211.0170  154.5700 N   0  0  0  0  0  2  0  0  0  0  0  0
  160.4980  212.1590  156.5390 O   0  0  0  0  0  0  0  0  0  0  0  0
  157.9620  213.6760  155.0730 C   0  0  0  0  0  3  0  0  0  0  0  0
  156.0470  212.3030  156.5010 N   0  0  0  0  0  0  0  0  0  0  0  0
  157.3090  211.8010  156.4270 C   0  0  0  0  0  3  0  0  0  0  0  0
  158.3060  212.4740  155.7060 C   0  0  0  0  0  0  0  0  0  0  0  0
  155.7060  213.4650  155.8830 C   0  0  0  0  0  3  0  0  0  0  0  0
  156.6620  214.1760  155.1570 C   0  0  0  0  0  3  0  0  0  0  0  0
  160.4920  203.4280  150.4130 O   0  0  0  0  0  0  0  0  0  0  0  0
  160.9260  203.1290  149.0930 C   0  0  0  0  0  1  0  0  0  0  0  0
  1 11  1  0  0  0  0
  1  3  1  0  0  0  0
  2  7  1  6  0  0  0
  2  3  1  0  0  0  0
  4  5  1  0  0  0  0
  5 11  2  0  0  0  0
  6  7  2  0  0  0  0
  8  9  1  0  0  0  0
  8  4  2  0  0  0  0
  9  1  2  0  0  0  0
 10 12  2  0  0  0  0
 12  6  1  0  0  0  0
 12  9  1  0  0  0  0
 13 15  1  0  0  0  0
 14 13  1  6  0  0  0
 14  2  1  0  0  0  0
 14 15  1  0  0  0  0
 15 17  1  1  0  0  0
 16 22  1  0  0  0  0
 16 18  2  0  0  0  0
 17 16  1  0  0  0  0
 19 24  2  0  0  0  0
 19 22  1  0  0  0  0
 21 20  1  0  0  0  0
 22 21  2  0  0  0  0
 23 20  2  0  0  0  0
 24 23  1  0  0  0  0
 25  4  1  0  0  0  0
 26 25  1  0  0  0  0
M  END
>  <MODEL>
5

>  <REMARK>
 VINA RESULT:      -6.9      3.144      9.176
  Name = 
  4 active torsions:
  status: ('A' for Active; 'I' for Inactive)
    1  A    between atoms: C_2  and  C_13
    2  A    between atoms: C_3  and  C_18
    3  A    between atoms: C_5  and  O_9
    4  A    between atoms: N_17  and  C_22
                            x       y       z     vdW  Elec       q    Type
                         _______ _______ _______ _____ _____    ______ ____

>  <TORSDO>
F 4

$$$$
=
 OpenBabel11052411133D

 26 29  0  0  1  0  0  0  0  0999 V2000
  161.8010  206.9730  152.2730 C   0  0  0  0  0  0  0  0  0  0  0  0
  161.8890  209.5390  152.4620 C   0  0  1  0  0  3  0  0  0  0  0  0
  162.2170  208.1910  152.8980 N   0  0  0  0  0  2  0  0  0  0  0  0
  160.8290  204.5210  151.2870 C   0  0  0  0  0  0  0  0  0  0  0  0
  161.3040  204.6160  152.5990 C   0  0  0  0  0  3  0  0  0  0  0  0
  162.3290  209.1590  150.0450 C   0  0  0  0  0  3  0  0  0  0  0  0
  162.5480  209.8430  151.1630 C   0  0  0  0  0  3  0  0  0  0  0  0
  160.8680  205.6490  150.4650 C   0  0  0  0  0  3  0  0  0  0  0  0
  161.3610  206.8840  150.9230 C   0  0  0  0  0  0  0  0  0  0  0  0
  160.8510  207.8440  148.8180 O   0  0  0  0  0  0  0  0  0  0  0  0
  161.7850  205.8310  153.0820 C   0  0  0  0  0  3  0  0  0  0  0  0
  161.4620  207.9760  149.9140 C   0  0  0  0  0  0  0  0  0  0  0  0
  160.0890  211.1720  151.9200 C   0  0  0  0  0  2  0  0  0  0  0  0
  160.3710  209.7590  152.3930 C   0  0  2  0  0  3  0  0  0  0  0  0
  159.8080  210.8040  153.3630 C   0  0  1  0  0  3  0  0  0  0  0  0
  161.3540  210.7880  155.4240 C   0  0  0  0  0  0  0  0  0  0  0  0
  160.8280  211.3850  154.2290 N   0  0  0  0  0  2  0  0  0  0  0  0
  162.2470  211.4190  156.0510 O   0  0  0  0  0  0  0  0  0  0  0  0
  159.6870  208.8910  155.6040 C   0  0  0  0  0  3  0  0  0  0  0  0
  161.4060  207.5160  157.2610 N   0  0  0  0  0  0  0  0  0  0  0  0
  161.7720  208.7380  156.7900 C   0  0  0  0  0  3  0  0  0  0  0  0
  160.9210  209.4630  155.9410 C   0  0  0  0  0  0  0  0  0  0  0  0
  160.2140  206.9540  156.9300 C   0  0  0  0  0  3  0  0  0  0  0  0
  159.3290  207.6340  156.0940 C   0  0  0  0  0  3  0  0  0  0  0  0
  160.3270  203.3230  150.7720 O   0  0  0  0  0  0  0  0  0  0  0  0
  160.7860  202.7600  149.5510 C   0  0  0  0  0  1  0  0  0  0  0  0
  1  3  1  0  0  0  0
  1 11  1  0  0  0  0
  2  7  1  6  0  0  0
  2  3  1  0  0  0  0
  4  5  1  0  0  0  0
  5 11  2  0  0  0  0
  6  7  2  0  0  0  0
  8  9  1  0  0  0  0
  8  4  2  0  0  0  0
  9  1  2  0  0  0  0
 10 12  2  0  0  0  0
 12  6  1  0  0  0  0
 12  9  1  0  0  0  0
 13 15  1  0  0  0  0
 14 13  1  6  0  0  0
 14  2  1  0  0  0  0
 14 15  1  0  0  0  0
 15 17  1  1  0  0  0
 16 22  1  0  0  0  0
 16 18  2  0  0  0  0
 17 16  1  0  0  0  0
 19 22  2  0  0  0  0
 19 24  1  0  0  0  0
 21 20  2  0  0  0  0
 22 21  1  0  0  0  0
 23 20  1  0  0  0  0
 24 23  2  0  0  0  0
 25  4  1  0  0  0  0
 26 25  1  0  0  0  0
M  END
>  <MODEL>
6

>  <REMARK>
 VINA RESULT:      -6.3      3.237      7.940
  Name = 
  4 active torsions:
  status: ('A' for Active; 'I' for Inactive)
    1  A    between atoms: C_2  and  C_13
    2  A    between atoms: C_3  and  C_18
    3  A    between atoms: C_5  and  O_9
    4  A    between atoms: N_17  and  C_22
                            x       y       z     vdW  Elec       q    Type
                         _______ _______ _______ _____ _____    ______ ____

>  <TORSDO>
F 4

$$$$
=
 OpenBabel11052411133D

 26 29  0  0  1  0  0  0  0  0999 V2000
  160.4610  205.5870  148.2270 C   0  0  0  0  0  0  0  0  0  0  0  0
  160.6390  205.3930  150.7890 C   0  0  1  0  0  3  0  0  0  0  0  0
  160.1050  205.9630  149.5610 N   0  0  0  0  0  2  0  0  0  0  0  0
  161.2750  205.1160  145.5730 C   0  0  0  0  0  0  0  0  0  0  0  0
  160.6410  206.3150  145.9150 C   0  0  0  0  0  3  0  0  0  0  0  0
  160.4860  203.0170  150.0760 C   0  0  0  0  0  3  0  0  0  0  0  0
  160.1980  203.9800  150.9440 C   0  0  0  0  0  3  0  0  0  0  0  0
  161.4730  204.1450  146.5570 C   0  0  0  0  0  3  0  0  0  0  0  0
  161.0650  204.3440  147.8880 C   0  0  0  0  0  0  0  0  0  0  0  0
  161.9570  202.2240  148.4560 O   0  0  0  0  0  0  0  0  0  0  0  0
  160.2410  206.5430  147.2290 C   0  0  0  0  0  3  0  0  0  0  0  0
  161.2240  203.1860  148.8130 C   0  0  0  0  0  0  0  0  0  0  0  0
  162.6460  205.1070  152.2340 C   0  0  0  0  0  2  0  0  0  0  0  0
  162.1670  205.5220  150.8550 C   0  0  2  0  0  3  0  0  0  0  0  0
  162.7020  206.5690  151.8390 C   0  0  1  0  0  3  0  0  0  0  0  0
  161.0910  208.5630  152.0970 C   0  0  0  0  0  0  0  0  0  0  0  0
  161.6420  207.3060  152.5180 N   0  0  0  0  0  2  0  0  0  0  0  0
  160.1640  209.0600  152.7920 O   0  0  0  0  0  0  0  0  0  0  0  0
  161.9330  208.6270  149.7100 C   0  0  0  0  0  3  0  0  0  0  0  0
  161.9410  211.3810  149.7690 N   0  0  0  0  0  0  0  0  0  0  0  0
  161.5550  210.6940  150.8770 C   0  0  0  0  0  3  0  0  0  0  0  0
  161.5370  209.2910  150.8780 C   0  0  0  0  0  0  0  0  0  0  0  0
  162.3190  210.7430  148.6300 C   0  0  0  0  0  3  0  0  0  0  0  0
  162.3240  209.3480  148.5810 C   0  0  0  0  0  3  0  0  0  0  0  0
  161.7020  204.8570  144.2690 O   0  0  0  0  0  0  0  0  0  0  0  0
  161.5700  205.8020  143.2160 C   0  0  0  0  0  1  0  0  0  0  0  0
  1  3  1  0  0  0  0
  2 14  1  0  0  0  0
  2  7  1  6  0  0  0
  3  2  1  0  0  0  0
  4  5  2  0  0  0  0
  4  8  1  0  0  0  0
  5 11  1  0  0  0  0
  6  7  2  0  0  0  0
  8  9  2  0  0  0  0
  9  1  1  0  0  0  0
  9 12  1  0  0  0  0
 10 12  2  0  0  0  0
 11  1  2  0  0  0  0
 12  6  1  0  0  0  0
 14 15  1  0  0  0  0
 14 13  1  1  0  0  0
 15 13  1  0  0  0  0
 15 17  1  1  0  0  0
 16 17  1  0  0  0  0
 16 18  2  0  0  0  0
 19 22  1  0  0  0  0
 20 21  1  0  0  0  0
 21 22  2  0  0  0  0
 22 16  1  0  0  0  0
 23 20  2  0  0  0  0
 24 23  1  0  0  0  0
 24 19  2  0  0  0  0
 25  4  1  0  0  0  0
 26 25  1  0  0  0  0
M  END
>  <MODEL>
7

>  <REMARK>
 VINA RESULT:      -6.0      2.294      7.363
  Name = 
  4 active torsions:
  status: ('A' for Active; 'I' for Inactive)
    1  A    between atoms: C_2  and  C_13
    2  A    between atoms: C_3  and  C_18
    3  A    between atoms: C_5  and  O_9
    4  A    between atoms: N_17  and  C_22
                            x       y       z     vdW  Elec       q    Type
                         _______ _______ _______ _____ _____    ______ ____

>  <TORSDO>
F 4

$$$$
=
 OpenBabel11052411133D

 26 29  0  0  1  0  0  0  0  0999 V2000
  160.7830  205.5750  149.6890 C   0  0  0  0  0  0  0  0  0  0  0  0
  160.9730  205.4910  147.1220 C   0  0  1  0  0  3  0  0  0  0  0  0
  160.3630  205.1340  148.3940 N   0  0  0  0  0  2  0  0  0  0  0  0
  161.6770  206.1620  152.2930 C   0  0  0  0  0  0  0  0  0  0  0  0
  160.8590  205.0530  152.0620 C   0  0  0  0  0  3  0  0  0  0  0  0
  161.2060  207.9180  147.6030 C   0  0  0  0  0  3  0  0  0  0  0  0
  160.7620  206.9340  146.8280 C   0  0  0  0  0  3  0  0  0  0  0  0
  162.0220  206.9900  151.2230 C   0  0  0  0  0  3  0  0  0  0  0  0
  161.5800  206.7320  149.9130 C   0  0  0  0  0  0  0  0  0  0  0  0
  162.7950  208.6180  149.1530 O   0  0  0  0  0  0  0  0  0  0  0  0
  160.4190  204.7670  150.7710 C   0  0  0  0  0  3  0  0  0  0  0  0
  161.9160  207.7560  148.8830 C   0  0  0  0  0  0  0  0  0  0  0  0
  163.0540  205.5520  145.7570 C   0  0  0  0  0  2  0  0  0  0  0  0
  162.4610  205.1150  147.0820 C   0  0  2  0  0  3  0  0  0  0  0  0
  162.8530  204.0750  146.0260 C   0  0  1  0  0  3  0  0  0  0  0  0
  160.8260  202.5270  145.6610 C   0  0  0  0  0  0  0  0  0  0  0  0
  161.7140  203.5820  145.2610 N   0  0  0  0  0  2  0  0  0  0  0  0
  159.8760  202.2330  144.8860 O   0  0  0  0  0  0  0  0  0  0  0  0
  160.4570  202.2890  148.1550 C   0  0  0  0  0  3  0  0  0  0  0  0
  161.6930  199.8280  148.1190 N   0  0  0  0  0  0  0  0  0  0  0  0
  161.5810  200.5320  146.9620 C   0  0  0  0  0  3  0  0  0  0  0  0
  160.9540  201.7870  146.9450 C   0  0  0  0  0  0  0  0  0  0  0  0
  161.2060  200.3070  149.2940 C   0  0  0  0  0  3  0  0  0  0  0  0
  160.5780  201.5520  149.3330 C   0  0  0  0  0  3  0  0  0  0  0  0
  162.1490  206.4740  153.5700 O   0  0  0  0  0  0  0  0  0  0  0  0
  161.3490  207.1250  154.5470 C   0  0  0  0  0  1  0  0  0  0  0  0
  1  9  2  0  0  0  0
  1 11  1  0  0  0  0
  2  7  1  1  0  0  0
  2  3  1  0  0  0  0
  3  1  1  0  0  0  0
  4 25  1  0  0  0  0
  5  4  1  0  0  0  0
  6 12  1  0  0  0  0
  7  6  2  0  0  0  0
  8  4  2  0  0  0  0
  9  8  1  0  0  0  0
 11  5  2  0  0  0  0
 12 10  2  0  0  0  0
 12  9  1  0  0  0  0
 13 15  1  0  0  0  0
 14 13  1  6  0  0  0
 14  2  1  0  0  0  0
 15 17  1  6  0  0  0
 15 14  1  0  0  0  0
 16 22  1  0  0  0  0
 17 16  1  0  0  0  0
 18 16  2  0  0  0  0
 19 24  1  0  0  0  0
 20 23  1  0  0  0  0
 21 20  2  0  0  0  0
 22 21  1  0  0  0  0
 22 19  2  0  0  0  0
 23 24  2  0  0  0  0
 25 26  1  0  0  0  0
M  END
>  <MODEL>
8

>  <REMARK>
 VINA RESULT:      -5.9      2.656      4.322
  Name = 
  4 active torsions:
  status: ('A' for Active; 'I' for Inactive)
    1  A    between atoms: C_2  and  C_13
    2  A    between atoms: C_3  and  C_18
    3  A    between atoms: C_5  and  O_9
    4  A    between atoms: N_17  and  C_22
                            x       y       z     vdW  Elec       q    Type
                         _______ _______ _______ _____ _____    ______ ____

>  <TORSDO>
F 4

$$$$
=
 OpenBabel11052411133D

 26 29  0  0  1  0  0  0  0  0999 V2000
  162.0080  208.0680  151.2050 C   0  0  0  0  0  0  0  0  0  0  0  0
  161.9960  205.5040  150.9720 C   0  0  1  0  0  3  0  0  0  0  0  0
  162.4840  206.8370  150.6540 N   0  0  0  0  0  2  0  0  0  0  0  0
  160.9770  210.5580  152.0210 C   0  0  0  0  0  0  0  0  0  0  0  0
  161.7220  210.4550  150.8420 C   0  0  0  0  0  3  0  0  0  0  0  0
  161.9170  205.8240  153.4360 C   0  0  0  0  0  3  0  0  0  0  0  0
  162.3390  205.1440  152.3750 C   0  0  0  0  0  3  0  0  0  0  0  0
  160.7750  209.4190  152.8020 C   0  0  0  0  0  3  0  0  0  0  0  0
  161.2890  208.1630  152.4290 C   0  0  0  0  0  0  0  0  0  0  0  0
  160.2800  207.2050  154.3470 O   0  0  0  0  0  0  0  0  0  0  0  0
  162.2300  209.2210  150.4430 C   0  0  0  0  0  3  0  0  0  0  0  0
  161.1080  207.0530  153.4070 C   0  0  0  0  0  0  0  0  0  0  0  0
  159.9820  204.0810  151.3160 C   0  0  0  0  0  2  0  0  0  0  0  0
  160.4910  205.3730  150.7030 C   0  0  2  0  0  3  0  0  0  0  0  0
  160.0770  204.1990  149.8080 C   0  0  1  0  0  3  0  0  0  0  0  0
  161.7870  203.5090  148.0080 C   0  0  0  0  0  0  0  0  0  0  0  0
  161.2140  203.4250  149.3220 N   0  0  0  0  0  2  0  0  0  0  0  0
  162.7830  202.7790  147.7540 O   0  0  0  0  0  0  0  0  0  0  0  0
  160.9040  205.7470  147.2170 C   0  0  0  0  0  3  0  0  0  0  0  0
  160.7620  204.7960  144.6360 N   0  0  0  0  0  0  0  0  0  0  0  0
  161.1990  203.9710  145.6240 C   0  0  0  0  0  3  0  0  0  0  0  0
  161.2860  204.4260  146.9490 C   0  0  0  0  0  0  0  0  0  0  0  0
  160.3970  206.0800  144.8890 C   0  0  0  0  0  3  0  0  0  0  0  0
  160.4600  206.5800  146.1900 C   0  0  0  0  0  3  0  0  0  0  0  0
  160.4400  211.7760  152.4460 O   0  0  0  0  0  0  0  0  0  0  0  0
  159.6790  211.9050  153.6390 C   0  0  0  0  0  1  0  0  0  0  0  0
  1  9  1  0  0  0  0
  2  7  1  1  0  0  0
  3  2  1  0  0  0  0
  3  1  1  0  0  0  0
  4 25  1  0  0  0  0
  4  8  1  0  0  0  0
  5  4  2  0  0  0  0
  7  6  2  0  0  0  0
  9  8  2  0  0  0  0
  9 12  1  0  0  0  0
 11  5  1  0  0  0  0
 11  1  2  0  0  0  0
 12  6  1  0  0  0  0
 12 10  2  0  0  0  0
 14  2  1  0  0  0  0
 14 13  1  1  0  0  0
 15 17  1  1  0  0  0
 15 14  1  0  0  0  0
 15 13  1  0  0  0  0
 16 17  1  0  0  0  0
 18 16  2  0  0  0  0
 20 23  2  0  0  0  0
 20 21  1  0  0  0  0
 21 22  2  0  0  0  0
 22 19  1  0  0  0  0
 22 16  1  0  0  0  0
 23 24  1  0  0  0  0
 24 19  2  0  0  0  0
 25 26  1  0  0  0  0
M  END
>  <MODEL>
9

>  <REMARK>
 VINA RESULT:      -5.5      1.645      2.276
  Name = 
  4 active torsions:
  status: ('A' for Active; 'I' for Inactive)
    1  A    between atoms: C_2  and  C_13
    2  A    between atoms: C_3  and  C_18
    3  A    between atoms: C_5  and  O_9
    4  A    between atoms: N_17  and  C_22
                            x       y       z     vdW  Elec       q    Type
                         _______ _______ _______ _____ _____    ______ ____

>  <TORSDO>
F 4

$$$$
