=
 OpenBabel11052411523D

 32 36  0  0  1  0  0  0  0  0999 V2000
  160.6390  207.3970  154.6890 C   0  0  0  0  0  2  0  0  0  0  0  0
  161.5800  206.6700  152.4170 C   0  0  2  0  0  3  0  0  0  0  0  0
  161.0940  209.0820  152.8510 C   0  0  0  0  0  2  0  0  0  0  0  0
  161.3960  206.3220  153.9030 C   0  0  0  0  0  2  0  0  0  0  0  0
  161.0680  208.7350  154.2780 N   0  0  0  0  0  0  0  0  0  0  0  0
  160.7570  207.8790  151.9730 C   0  0  0  0  0  2  0  0  0  0  0  0
  160.2220  210.5950  155.7070 C   0  0  0  0  0  0  0  0  0  0  0  0
  158.8780  210.4080  155.2240 N   0  0  0  0  0  0  0  0  0  0  0  0
  164.0470  211.1100  157.2610 F   0  0  0  0  0  0  0  0  0  0  0  0
  160.4780  211.5990  156.6650 C   0  0  0  0  0  0  0  0  0  0  0  0
  162.5600  209.9510  155.8040 C   0  0  0  0  0  3  0  0  0  0  0  0
  158.0930  212.2210  156.6000 C   0  0  0  0  0  0  0  0  0  0  0  0
  156.5050  210.8870  155.0650 C   0  0  0  0  0  2  0  0  0  0  0  0
  157.1060  212.9660  156.9940 N   0  0  0  0  0  0  0  0  0  0  0  0
  161.7620  211.7710  157.1820 C   0  0  0  0  0  3  0  0  0  0  0  0
  155.7690  212.7890  156.5000 C   0  0  0  0  0  3  0  0  0  0  0  0
  157.8780  211.1420  155.6140 C   0  0  0  0  0  0  0  0  0  0  0  0
  161.2770  209.7660  155.2620 C   0  0  0  0  0  0  0  0  0  0  0  0
  159.4080  212.4320  157.1170 N   0  0  0  0  0  2  0  0  0  0  0  0
  162.8010  210.9460  156.7540 C   0  0  0  0  0  0  0  0  0  0  0  0
  155.4730  211.8370  155.6100 C   0  0  0  0  0  3  0  0  0  0  0  0
  161.0750  204.2230  149.7780 N   0  0  0  0  0  0  0  0  0  0  0  0
  160.7000  203.4890  150.8420 C   0  0  0  0  0  3  0  0  0  0  0  0
  161.4310  205.4500  150.1880 C   0  0  0  0  0  3  0  0  0  0  0  0
  160.8250  204.2510  151.9900 C   0  0  0  0  0  3  0  0  0  0  0  0
  161.2890  205.4840  151.5580 C   0  0  0  0  0  0  0  0  0  0  0  0
  161.0410  203.7760  148.3970 C   0  0  0  0  0  2  0  0  0  0  0  0
  161.7010  204.7540  147.5500 N   0  0  0  0  0  2  0  0  0  0  0  0
  161.5690  204.2790  146.1840 C   0  0  0  0  0  2  0  0  0  0  0  0
  161.4500  205.4340  144.1060 O   0  0  0  0  0  0  0  0  0  0  0  0
  161.0970  205.3880  145.3120 C   0  0  0  0  0  0  0  0  0  0  0  0
  160.2350  206.3510  145.8180 O   0  0  0  0  0  1  0  0  0  0  0  0
  2 26  1  6  0  0  0
  2  4  1  0  0  0  0
  3  5  1  0  0  0  0
  4  1  1  0  0  0  0
  5  1  1  0  0  0  0
  5 18  1  0  0  0  0
  6  2  1  0  0  0  0
  6  3  1  0  0  0  0
  7 10  1  0  0  0  0
  8 17  2  0  0  0  0
  8  7  1  0  0  0  0
 10 19  1  0  0  0  0
 10 15  2  0  0  0  0
 11 20  2  0  0  0  0
 12 14  2  0  0  0  0
 12 19  1  0  0  0  0
 13 21  1  0  0  0  0
 13 17  1  0  0  0  0
 16 14  1  0  0  0  0
 17 12  1  0  0  0  0
 18  7  2  0  0  0  0
 18 11  1  0  0  0  0
 20 15  1  0  0  0  0
 20  9  1  0  0  0  0
 21 16  2  0  0  0  0
 22 24  1  0  0  0  0
 22 23  1  0  0  0  0
 23 25  2  0  0  0  0
 24 26  2  0  0  0  0
 26 25  1  0  0  0  0
 27 22  1  0  0  0  0
 28 27  1  0  0  0  0
 29 28  1  0  0  0  0
 30 31  2  0  0  0  0
 31 32  1  0  0  0  0
 31 29  1  0  0  0  0
M  END
>  <MODEL>
1

>  <REMARK>
 VINA RESULT:      -7.9      0.000      0.000
  Name = 
  6 active torsions:
  status: ('A' for Active; 'I' for Inactive)
    1  A    between atoms: N_8  and  C_9
    2  A    between atoms: N_8  and  C_14
    3  A    between atoms: C_9  and  C_28
    4  A    between atoms: N_10  and  C_14
    5  A    between atoms: C_17  and  C_31
    6  A    between atoms: C_20  and  N_24
                            x       y       z     vdW  Elec       q    Type
                         _______ _______ _______ _____ _____    ______ ____

>  <TORSDO>
F 6

$$$$
=
 OpenBabel11052411523D

 32 36  0  0  1  0  0  0  0  0999 V2000
  162.4830  209.5140  151.1780 C   0  0  0  0  0  2  0  0  0  0  0  0
  161.4740  210.4660  149.0220 C   0  0  2  0  0  3  0  0  0  0  0  0
  161.5530  207.9930  149.3760 C   0  0  0  0  0  2  0  0  0  0  0  0
  161.8620  210.7290  150.4860 C   0  0  0  0  0  2  0  0  0  0  0  0
  161.7800  208.2870  150.7970 N   0  0  0  0  0  0  0  0  0  0  0  0
  162.0160  209.1420  148.4820 C   0  0  0  0  0  2  0  0  0  0  0  0
  161.2830  205.9280  151.4310 C   0  0  0  0  0  0  0  0  0  0  0  0
  161.4130  205.4910  150.0640 N   0  0  0  0  0  0  0  0  0  0  0  0
  161.0280  207.0770  155.4210 F   0  0  0  0  0  0  0  0  0  0  0  0
  160.9840  204.9800  152.4320 C   0  0  0  0  0  0  0  0  0  0  0  0
  161.4010  207.6480  153.1380 C   0  0  0  0  0  3  0  0  0  0  0  0
  160.9110  203.2240  150.7020 C   0  0  0  0  0  0  0  0  0  0  0  0
  161.3980  203.8760  148.2530 C   0  0  0  0  0  2  0  0  0  0  0  0
  160.7340  201.9880  150.3510 N   0  0  0  0  0  0  0  0  0  0  0  0
  160.8960  205.3690  153.7690 C   0  0  0  0  0  3  0  0  0  0  0  0
  160.8490  201.5560  148.9860 C   0  0  0  0  0  3  0  0  0  0  0  0
  161.2460  204.2550  149.6980 C   0  0  0  0  0  0  0  0  0  0  0  0
  161.4840  207.2810  151.7840 C   0  0  0  0  0  0  0  0  0  0  0  0
  160.7860  203.6100  152.0720 N   0  0  0  0  0  2  0  0  0  0  0  0
  161.1070  206.7010  154.1220 C   0  0  0  0  0  0  0  0  0  0  0  0
  161.1530  202.4120  148.0050 C   0  0  0  0  0  3  0  0  0  0  0  0
  161.8180  213.1720  146.6210 N   0  0  0  0  0  0  0  0  0  0  0  0
  163.0390  213.2140  147.1850 C   0  0  0  0  0  3  0  0  0  0  0  0
  161.0990  212.1900  147.1880 C   0  0  0  0  0  3  0  0  0  0  0  0
  163.1240  212.2390  148.1630 C   0  0  0  0  0  3  0  0  0  0  0  0
  161.8910  211.6050  148.1520 C   0  0  0  0  0  0  0  0  0  0  0  0
  161.3700  214.0160  145.5280 C   0  0  0  0  0  2  0  0  0  0  0  0
  160.8440  213.1890  144.4550 N   0  0  0  0  0  2  0  0  0  0  0  0
  161.9470  212.9360  143.5450 C   0  0  0  0  0  2  0  0  0  0  0  0
  160.3440  211.5310  142.4870 O   0  0  0  0  0  1  0  0  0  0  0  0
  161.4980  212.0290  142.4550 C   0  0  0  0  0  0  0  0  0  0  0  0
  162.3380  211.7640  141.3820 O   0  0  0  0  0  0  0  0  0  0  0  0
  2 26  1  6  0  0  0
  2  4  1  0  0  0  0
  3  5  1  0  0  0  0
  4  1  1  0  0  0  0
  5  1  1  0  0  0  0
  5 18  1  0  0  0  0
  6  2  1  0  0  0  0
  6  3  1  0  0  0  0
  7 18  2  0  0  0  0
  7 10  1  0  0  0  0
  8  7  1  0  0  0  0
 10 15  2  0  0  0  0
 11 20  2  0  0  0  0
 12 19  1  0  0  0  0
 13 17  1  0  0  0  0
 14 12  2  0  0  0  0
 15 20  1  0  0  0  0
 16 14  1  0  0  0  0
 17  8  2  0  0  0  0
 17 12  1  0  0  0  0
 18 11  1  0  0  0  0
 19 10  1  0  0  0  0
 20  9  1  0  0  0  0
 21 13  1  0  0  0  0
 21 16  2  0  0  0  0
 22 23  1  0  0  0  0
 22 24  1  0  0  0  0
 23 25  2  0  0  0  0
 24 26  2  0  0  0  0
 26 25  1  0  0  0  0
 27 22  1  0  0  0  0
 28 27  1  0  0  0  0
 29 28  1  0  0  0  0
 31 30  1  0  0  0  0
 31 29  1  0  0  0  0
 32 31  2  0  0  0  0
M  END
>  <MODEL>
2

>  <REMARK>
 VINA RESULT:      -7.7      4.703      8.374
  Name = 
  6 active torsions:
  status: ('A' for Active; 'I' for Inactive)
    1  A    between atoms: N_8  and  C_9
    2  A    between atoms: N_8  and  C_14
    3  A    between atoms: C_9  and  C_28
    4  A    between atoms: N_10  and  C_14
    5  A    between atoms: C_17  and  C_31
    6  A    between atoms: C_20  and  N_24
                            x       y       z     vdW  Elec       q    Type
                         _______ _______ _______ _____ _____    ______ ____

>  <TORSDO>
F 6

$$$$
=
 OpenBabel11052411523D

 32 36  0  0  1  0  0  0  0  0999 V2000
  160.3830  206.0320  150.5690 C   0  0  0  0  0  2  0  0  0  0  0  0
  161.6440  207.2130  152.4630 C   0  0  2  0  0  3  0  0  0  0  0  0
  161.2060  204.7570  152.5980 C   0  0  0  0  0  2  0  0  0  0  0  0
  161.2060  207.2520  150.9900 C   0  0  0  0  0  2  0  0  0  0  0  0
  160.9330  204.8090  151.1560 N   0  0  0  0  0  0  0  0  0  0  0  0
  160.9610  206.1070  153.2680 C   0  0  0  0  0  2  0  0  0  0  0  0
  161.0730  203.6360  148.9610 C   0  0  0  0  0  0  0  0  0  0  0  0
  161.0730  204.8870  148.2470 N   0  0  0  0  0  0  0  0  0  0  0  0
  161.2210  199.9840  150.9470 F   0  0  0  0  0  0  0  0  0  0  0  0
  161.1540  202.4280  148.2350 C   0  0  0  0  0  0  0  0  0  0  0  0
  161.0860  202.3610  151.0250 C   0  0  0  0  0  3  0  0  0  0  0  0
  161.1880  203.7280  146.1400 C   0  0  0  0  0  0  0  0  0  0  0  0
  161.1190  206.3040  146.2780 C   0  0  0  0  0  2  0  0  0  0  0  0
  161.2320  203.7860  144.8440 N   0  0  0  0  0  0  0  0  0  0  0  0
  161.2010  201.2050  148.9040 C   0  0  0  0  0  3  0  0  0  0  0  0
  161.2170  205.0330  144.1330 C   0  0  0  0  0  3  0  0  0  0  0  0
  161.1230  204.9620  146.9500 C   0  0  0  0  0  0  0  0  0  0  0  0
  161.0270  203.6040  150.3730 C   0  0  0  0  0  0  0  0  0  0  0  0
  161.2060  202.4640  146.8070 N   0  0  0  0  0  2  0  0  0  0  0  0
  161.1700  201.1710  150.2980 C   0  0  0  0  0  0  0  0  0  0  0  0
  161.1640  206.2040  144.7760 C   0  0  0  0  0  3  0  0  0  0  0  0
  161.0460  210.0580  154.6420 N   0  0  0  0  0  0  0  0  0  0  0  0
  161.2400  210.7030  153.4770 C   0  0  0  0  0  3  0  0  0  0  0  0
  161.1550  208.7360  154.4420 C   0  0  0  0  0  3  0  0  0  0  0  0
  161.4990  209.7780  152.4810 C   0  0  0  0  0  3  0  0  0  0  0  0
  161.4430  208.5430  153.1100 C   0  0  0  0  0  0  0  0  0  0  0  0
  160.7090  210.6910  155.9050 C   0  0  0  0  0  2  0  0  0  0  0  0
  159.3630  210.3130  156.2980 N   0  0  0  0  0  2  0  0  0  0  0  0
  158.5370  211.4980  156.1510 C   0  0  0  0  0  2  0  0  0  0  0  0
  157.8310  211.5260  153.8780 O   0  0  0  0  0  0  0  0  0  0  0  0
  157.5340  211.2780  155.0750 C   0  0  0  0  0  0  0  0  0  0  0  0
  156.2850  210.7590  155.3850 O   0  0  0  0  0  1  0  0  0  0  0  0
  1  4  1  0  0  0  0
  1  5  1  0  0  0  0
  2 26  1  1  0  0  0
  2  6  1  0  0  0  0
  3  6  1  0  0  0  0
  4  2  1  0  0  0  0
  5  3  1  0  0  0  0
  7 18  1  0  0  0  0
  8  7  1  0  0  0  0
 10 15  1  0  0  0  0
 10  7  2  0  0  0  0
 12 19  1  0  0  0  0
 12 17  1  0  0  0  0
 13 17  1  0  0  0  0
 14 12  2  0  0  0  0
 15 20  2  0  0  0  0
 16 21  2  0  0  0  0
 16 14  1  0  0  0  0
 17  8  2  0  0  0  0
 18 11  2  0  0  0  0
 18  5  1  0  0  0  0
 19 10  1  0  0  0  0
 20  9  1  0  0  0  0
 20 11  1  0  0  0  0
 21 13  1  0  0  0  0
 22 27  1  0  0  0  0
 23 22  1  0  0  0  0
 24 22  1  0  0  0  0
 25 26  1  0  0  0  0
 25 23  2  0  0  0  0
 26 24  2  0  0  0  0
 27 28  1  0  0  0  0
 29 28  1  0  0  0  0
 30 31  2  0  0  0  0
 31 32  1  0  0  0  0
 31 29  1  0  0  0  0
M  END
>  <MODEL>
3

>  <REMARK>
 VINA RESULT:      -7.6      3.879     10.226
  Name = 
  6 active torsions:
  status: ('A' for Active; 'I' for Inactive)
    1  A    between atoms: N_8  and  C_9
    2  A    between atoms: N_8  and  C_14
    3  A    between atoms: C_9  and  C_28
    4  A    between atoms: N_10  and  C_14
    5  A    between atoms: C_17  and  C_31
    6  A    between atoms: C_20  and  N_24
                            x       y       z     vdW  Elec       q    Type
                         _______ _______ _______ _____ _____    ______ ____

>  <TORSDO>
F 6

$$$$
=
 OpenBabel11052411523D

 32 36  0  0  1  0  0  0  0  0999 V2000
  161.7020  208.1740  148.7180 C   0  0  0  0  0  2  0  0  0  0  0  0
  161.0930  206.6390  150.6790 C   0  0  2  0  0  3  0  0  0  0  0  0
  162.2730  208.7990  151.1070 C   0  0  0  0  0  2  0  0  0  0  0  0
  160.8140  207.0330  149.2200 C   0  0  0  0  0  2  0  0  0  0  0  0
  161.8630  209.1970  149.7540 N   0  0  0  0  0  0  0  0  0  0  0  0
  162.3590  207.2810  151.2470 C   0  0  0  0  0  2  0  0  0  0  0  0
  161.0840  211.5250  150.1880 C   0  0  0  0  0  0  0  0  0  0  0  0
  160.4000  211.1150  151.3880 N   0  0  0  0  0  0  0  0  0  0  0  0
  163.1500  212.8200  146.8170 F   0  0  0  0  0  0  0  0  0  0  0  0
  161.0540  212.8830  149.8070 C   0  0  0  0  0  0  0  0  0  0  0  0
  162.5080  211.0530  148.2810 C   0  0  0  0  0  3  0  0  0  0  0  0
  159.6470  213.3700  151.7720 C   0  0  0  0  0  0  0  0  0  0  0  0
  159.0410  211.4370  153.3710 C   0  0  0  0  0  2  0  0  0  0  0  0
  158.9740  214.2030  152.5050 N   0  0  0  0  0  0  0  0  0  0  0  0
  161.7460  213.3140  148.6740 C   0  0  0  0  0  3  0  0  0  0  0  0
  158.2800  213.7910  153.6920 C   0  0  0  0  0  3  0  0  0  0  0  0
  159.7290  211.9400  152.1360 C   0  0  0  0  0  0  0  0  0  0  0  0
  161.8110  210.5950  149.4110 C   0  0  0  0  0  0  0  0  0  0  0  0
  160.3230  213.8230  150.5980 N   0  0  0  0  0  2  0  0  0  0  0  0
  162.4740  212.4000  147.9140 C   0  0  0  0  0  0  0  0  0  0  0  0
  158.2980  212.5210  154.1070 C   0  0  0  0  0  3  0  0  0  0  0  0
  161.0790  203.0230  150.3180 N   0  0  0  0  0  0  0  0  0  0  0  0
  161.2850  203.1170  151.6440 C   0  0  0  0  0  3  0  0  0  0  0  0
  160.9750  204.2550  149.7960 C   0  0  0  0  0  3  0  0  0  0  0  0
  161.3330  204.4520  152.0060 C   0  0  0  0  0  3  0  0  0  0  0  0
  161.1380  205.1540  150.8260 C   0  0  0  0  0  0  0  0  0  0  0  0
  160.9290  201.7820  149.5790 C   0  0  0  0  0  2  0  0  0  0  0  0
  160.2750  202.0450  148.3090 N   0  0  0  0  0  2  0  0  0  0  0  0
  161.0400  201.3460  147.2930 C   0  0  0  0  0  2  0  0  0  0  0  0
  161.1990  203.0660  145.6550 O   0  0  0  0  0  1  0  0  0  0  0  0
  160.7490  201.9310  145.9560 C   0  0  0  0  0  0  0  0  0  0  0  0
  160.0160  201.2070  145.0260 O   0  0  0  0  0  0  0  0  0  0  0  0
  1  4  1  0  0  0  0
  1  5  1  0  0  0  0
  2 26  1  6  0  0  0
  2  6  1  0  0  0  0
  3  6  1  0  0  0  0
  4  2  1  0  0  0  0
  5  3  1  0  0  0  0
  7  8  1  0  0  0  0
  8 17  2  0  0  0  0
  9 20  1  0  0  0  0
 10  7  1  0  0  0  0
 10 19  1  0  0  0  0
 11 18  1  0  0  0  0
 12 17  1  0  0  0  0
 12 14  2  0  0  0  0
 13 21  1  0  0  0  0
 14 16  1  0  0  0  0
 15 10  2  0  0  0  0
 16 21  2  0  0  0  0
 17 13  1  0  0  0  0
 18  5  1  0  0  0  0
 18  7  2  0  0  0  0
 19 12  1  0  0  0  0
 20 11  2  0  0  0  0
 20 15  1  0  0  0  0
 22 23  1  0  0  0  0
 23 25  2  0  0  0  0
 24 22  1  0  0  0  0
 24 26  2  0  0  0  0
 26 25  1  0  0  0  0
 27 22  1  0  0  0  0
 28 27  1  0  0  0  0
 29 28  1  0  0  0  0
 30 31  1  0  0  0  0
 31 29  1  0  0  0  0
 32 31  2  0  0  0  0
M  END
>  <MODEL>
4

>  <REMARK>
 VINA RESULT:      -7.4      3.921      4.938
  Name = 
  6 active torsions:
  status: ('A' for Active; 'I' for Inactive)
    1  A    between atoms: N_8  and  C_9
    2  A    between atoms: N_8  and  C_14
    3  A    between atoms: C_9  and  C_28
    4  A    between atoms: N_10  and  C_14
    5  A    between atoms: C_17  and  C_31
    6  A    between atoms: C_20  and  N_24
                            x       y       z     vdW  Elec       q    Type
                         _______ _______ _______ _____ _____    ______ ____

>  <TORSDO>
F 6

$$$$
=
 OpenBabel11052411523D

 32 36  0  0  1  0  0  0  0  0999 V2000
  161.6350  205.9320  150.5430 C   0  0  0  0  0  2  0  0  0  0  0  0
  160.5900  203.6010  150.3220 C   0  0  2  0  0  3  0  0  0  0  0  0
  161.2060  204.4820  152.5780 C   0  0  0  0  0  2  0  0  0  0  0  0
  160.8030  204.9810  149.6790 C   0  0  0  0  0  2  0  0  0  0  0  0
  161.2600  205.8110  151.9540 N   0  0  0  0  0  0  0  0  0  0  0  0
  161.4570  203.3710  151.5600 C   0  0  0  0  0  2  0  0  0  0  0  0
  161.2560  208.2870  152.2390 C   0  0  0  0  0  0  0  0  0  0  0  0
  161.4710  208.4900  150.8300 N   0  0  0  0  0  0  0  0  0  0  0  0
  160.4930  207.7940  156.2990 F   0  0  0  0  0  0  0  0  0  0  0  0
  161.1330  209.4090  153.0870 C   0  0  0  0  0  0  0  0  0  0  0  0
  160.8670  206.8410  154.1480 C   0  0  0  0  0  3  0  0  0  0  0  0
  161.4810  210.8790  151.1380 C   0  0  0  0  0  0  0  0  0  0  0  0
  161.8050  209.8010  148.8160 C   0  0  0  0  0  2  0  0  0  0  0  0
  161.5960  212.0620  150.6190 N   0  0  0  0  0  0  0  0  0  0  0  0
  160.8800  209.2400  154.4490 C   0  0  0  0  0  3  0  0  0  0  0  0
  161.8260  212.2640  149.2160 C   0  0  0  0  0  3  0  0  0  0  0  0
  161.5810  209.6700  150.2940 C   0  0  0  0  0  0  0  0  0  0  0  0
  161.1320  206.9860  152.7760 C   0  0  0  0  0  0  0  0  0  0  0  0
  161.2530  210.7240  152.5400 N   0  0  0  0  0  2  0  0  0  0  0  0
  160.7440  207.9570  154.9780 C   0  0  0  0  0  0  0  0  0  0  0  0
  161.9260  211.2340  148.3690 C   0  0  0  0  0  3  0  0  0  0  0  0
  160.9120  201.4700  147.3960 N   0  0  0  0  0  0  0  0  0  0  0  0
  161.2100  200.5780  148.3590 C   0  0  0  0  0  3  0  0  0  0  0  0
  160.6450  202.6590  147.9580 C   0  0  0  0  0  3  0  0  0  0  0  0
  161.1510  201.2020  149.5930 C   0  0  0  0  0  3  0  0  0  0  0  0
  160.7960  202.5140  149.3190 C   0  0  0  0  0  0  0  0  0  0  0  0
  160.8310  201.1750  145.9770 C   0  0  0  0  0  2  0  0  0  0  0  0
  160.4390  202.3700  145.2500 N   0  0  0  0  0  2  0  0  0  0  0  0
  161.5860  203.2590  145.2600 C   0  0  0  0  0  2  0  0  0  0  0  0
  161.2070  205.0690  143.7610 O   0  0  0  0  0  0  0  0  0  0  0  0
  161.1470  204.6450  144.9440 C   0  0  0  0  0  0  0  0  0  0  0  0
  160.6330  205.4560  145.9450 O   0  0  0  0  0  1  0  0  0  0  0  0
  1  5  1  0  0  0  0
  2 26  1  6  0  0  0
  2  6  1  0  0  0  0
  4  2  1  0  0  0  0
  4  1  1  0  0  0  0
  5  3  1  0  0  0  0
  5 18  1  0  0  0  0
  6  3  1  0  0  0  0
  7 18  2  0  0  0  0
  7 10  1  0  0  0  0
  8  7  1  0  0  0  0
 10 15  2  0  0  0  0
 11 20  2  0  0  0  0
 12 19  1  0  0  0  0
 13 17  1  0  0  0  0
 14 12  2  0  0  0  0
 15 20  1  0  0  0  0
 16 14  1  0  0  0  0
 17  8  2  0  0  0  0
 17 12  1  0  0  0  0
 18 11  1  0  0  0  0
 19 10  1  0  0  0  0
 20  9  1  0  0  0  0
 21 13  1  0  0  0  0
 21 16  2  0  0  0  0
 22 24  1  0  0  0  0
 22 23  1  0  0  0  0
 23 25  2  0  0  0  0
 24 26  2  0  0  0  0
 26 25  1  0  0  0  0
 27 22  1  0  0  0  0
 28 29  1  0  0  0  0
 28 27  1  0  0  0  0
 30 31  2  0  0  0  0
 31 29  1  0  0  0  0
 31 32  1  0  0  0  0
M  END
>  <MODEL>
5

>  <REMARK>
 VINA RESULT:      -7.3      3.200      4.972
  Name = 
  6 active torsions:
  status: ('A' for Active; 'I' for Inactive)
    1  A    between atoms: N_8  and  C_9
    2  A    between atoms: N_8  and  C_14
    3  A    between atoms: C_9  and  C_28
    4  A    between atoms: N_10  and  C_14
    5  A    between atoms: C_17  and  C_31
    6  A    between atoms: C_20  and  N_24
                            x       y       z     vdW  Elec       q    Type
                         _______ _______ _______ _____ _____    ______ ____

>  <TORSDO>
F 6

$$$$
=
 OpenBabel11052411523D

 32 36  0  0  1  0  0  0  0  0999 V2000
  160.1660  205.8020  150.5830 C   0  0  0  0  0  2  0  0  0  0  0  0
  161.4570  207.0260  152.4290 C   0  0  2  0  0  3  0  0  0  0  0  0
  161.1980  204.5430  152.5260 C   0  0  0  0  0  2  0  0  0  0  0  0
  160.9280  207.0670  150.9870 C   0  0  0  0  0  2  0  0  0  0  0  0
  160.8340  204.6080  151.1040 N   0  0  0  0  0  0  0  0  0  0  0  0
  160.9020  205.8570  153.2440 C   0  0  0  0  0  2  0  0  0  0  0  0
  161.0260  203.5070  148.8750 C   0  0  0  0  0  0  0  0  0  0  0  0
  161.0110  204.7800  148.2010 N   0  0  0  0  0  0  0  0  0  0  0  0
  161.2180  199.7980  150.7490 F   0  0  0  0  0  0  0  0  0  0  0  0
  161.1410  202.3250  148.1140 C   0  0  0  0  0  0  0  0  0  0  0  0
  161.0360  202.1680  150.8990 C   0  0  0  0  0  3  0  0  0  0  0  0
  161.1780  203.6900  146.0610 C   0  0  0  0  0  0  0  0  0  0  0  0
  161.0560  206.2580  146.2780 C   0  0  0  0  0  2  0  0  0  0  0  0
  161.2380  203.7890  144.7680 N   0  0  0  0  0  0  0  0  0  0  0  0
  161.2020  201.0820  148.7450 C   0  0  0  0  0  3  0  0  0  0  0  0
  161.2080  205.0570  144.0960 C   0  0  0  0  0  3  0  0  0  0  0  0
  161.0770  204.8960  146.9080 C   0  0  0  0  0  0  0  0  0  0  0  0
  160.9620  203.4300  150.2850 C   0  0  0  0  0  0  0  0  0  0  0  0
  161.2110  202.4060  146.6880 N   0  0  0  0  0  2  0  0  0  0  0  0
  161.1530  201.0040  150.1360 C   0  0  0  0  0  0  0  0  0  0  0  0
  161.1230  206.2060  144.7740 C   0  0  0  0  0  3  0  0  0  0  0  0
  160.7470  210.4440  153.4380 N   0  0  0  0  0  0  0  0  0  0  0  0
  160.9620  209.8910  154.6470 C   0  0  0  0  0  3  0  0  0  0  0  0
  160.9000  209.5080  152.4880 C   0  0  0  0  0  3  0  0  0  0  0  0
  161.2510  208.5470  154.4890 C   0  0  0  0  0  3  0  0  0  0  0  0
  161.2050  208.3250  153.1210 C   0  0  0  0  0  0  0  0  0  0  0  0
  160.4570  211.8460  153.1970 C   0  0  0  0  0  2  0  0  0  0  0  0
  159.4710  211.9670  152.1370 N   0  0  0  0  0  2  0  0  0  0  0  0
  159.5510  213.3320  151.6480 C   0  0  0  0  0  2  0  0  0  0  0  0
  158.5430  213.3730  149.4920 O   0  0  0  0  0  0  0  0  0  0  0  0
  159.6070  213.3270  150.1620 C   0  0  0  0  0  0  0  0  0  0  0  0
  160.8340  213.3140  149.5130 O   0  0  0  0  0  1  0  0  0  0  0  0
  1  4  1  0  0  0  0
  1  5  1  0  0  0  0
  2 26  1  1  0  0  0
  2  6  1  0  0  0  0
  3  6  1  0  0  0  0
  4  2  1  0  0  0  0
  5  3  1  0  0  0  0
  7 18  1  0  0  0  0
  8  7  1  0  0  0  0
 10 15  1  0  0  0  0
 10  7  2  0  0  0  0
 12 19  1  0  0  0  0
 12 17  1  0  0  0  0
 13 17  1  0  0  0  0
 14 12  2  0  0  0  0
 15 20  2  0  0  0  0
 16 14  1  0  0  0  0
 16 21  2  0  0  0  0
 17  8  2  0  0  0  0
 18 11  2  0  0  0  0
 18  5  1  0  0  0  0
 19 10  1  0  0  0  0
 20  9  1  0  0  0  0
 20 11  1  0  0  0  0
 21 13  1  0  0  0  0
 22 23  1  0  0  0  0
 24 26  2  0  0  0  0
 24 22  1  0  0  0  0
 25 23  2  0  0  0  0
 26 25  1  0  0  0  0
 27 22  1  0  0  0  0
 28 27  1  0  0  0  0
 29 28  1  0  0  0  0
 30 31  2  0  0  0  0
 31 29  1  0  0  0  0
 32 31  1  0  0  0  0
M  END
>  <MODEL>
6

>  <REMARK>
 VINA RESULT:      -7.1      4.158      9.861
  Name = 
  6 active torsions:
  status: ('A' for Active; 'I' for Inactive)
    1  A    between atoms: N_8  and  C_9
    2  A    between atoms: N_8  and  C_14
    3  A    between atoms: C_9  and  C_28
    4  A    between atoms: N_10  and  C_14
    5  A    between atoms: C_17  and  C_31
    6  A    between atoms: C_20  and  N_24
                            x       y       z     vdW  Elec       q    Type
                         _______ _______ _______ _____ _____    ______ ____

>  <TORSDO>
F 6

$$$$
=
 OpenBabel11052411523D

 32 36  0  0  1  0  0  0  0  0999 V2000
  160.7950  208.5040  153.0070 C   0  0  0  0  0  2  0  0  0  0  0  0
  162.2660  208.2430  150.9240 C   0  0  2  0  0  3  0  0  0  0  0  0
  162.1600  210.4420  152.1080 C   0  0  0  0  0  2  0  0  0  0  0  0
  161.5360  207.5390  152.0780 C   0  0  0  0  0  2  0  0  0  0  0  0
  161.5950  209.7070  153.2480 N   0  0  0  0  0  0  0  0  0  0  0  0
  161.8980  209.7210  150.7870 C   0  0  0  0  0  2  0  0  0  0  0  0
  160.5650  210.9320  155.1590 C   0  0  0  0  0  0  0  0  0  0  0  0
  159.2980  211.0090  154.4790 N   0  0  0  0  0  0  0  0  0  0  0  0
  164.1470  210.6290  157.2530 F   0  0  0  0  0  0  0  0  0  0  0  0
  160.6900  211.4870  156.4510 C   0  0  0  0  0  0  0  0  0  0  0  0
  162.8690  210.1810  155.2940 C   0  0  0  0  0  3  0  0  0  0  0  0
  158.3350  212.2070  156.3320 C   0  0  0  0  0  0  0  0  0  0  0  0
  156.9670  211.6320  154.2210 C   0  0  0  0  0  2  0  0  0  0  0  0
  157.3040  212.7970  156.8540 N   0  0  0  0  0  0  0  0  0  0  0  0
  161.8930  211.3860  157.1490 C   0  0  0  0  0  3  0  0  0  0  0  0
  156.0450  212.8880  156.1690 C   0  0  0  0  0  3  0  0  0  0  0  0
  158.2540  211.5910  154.9920 C   0  0  0  0  0  0  0  0  0  0  0  0
  161.6700  210.2790  154.5670 C   0  0  0  0  0  0  0  0  0  0  0  0
  159.5690  212.1410  157.0500 N   0  0  0  0  0  2  0  0  0  0  0  0
  162.9810  210.7310  156.5720 C   0  0  0  0  0  0  0  0  0  0  0  0
  155.8710  212.3570  154.9550 C   0  0  0  0  0  3  0  0  0  0  0  0
  161.5160  205.9290  148.2240 N   0  0  0  0  0  0  0  0  0  0  0  0
  161.9360  206.9870  147.5060 C   0  0  0  0  0  3  0  0  0  0  0  0
  161.5820  206.2260  149.5320 C   0  0  0  0  0  3  0  0  0  0  0  0
  162.2760  208.0170  148.3640 C   0  0  0  0  0  3  0  0  0  0  0  0
  162.0440  207.5190  149.6380 C   0  0  0  0  0  0  0  0  0  0  0  0
  161.1150  204.6470  147.6740 C   0  0  0  0  0  2  0  0  0  0  0  0
  161.3730  203.5960  148.6420 N   0  0  0  0  0  2  0  0  0  0  0  0
  160.7410  202.3930  148.1310 C   0  0  0  0  0  2  0  0  0  0  0  0
  161.5350  200.1630  148.3800 O   0  0  0  0  0  0  0  0  0  0  0  0
  161.1620  201.2220  148.9460 C   0  0  0  0  0  0  0  0  0  0  0  0
  161.1810  201.3110  150.3310 O   0  0  0  0  0  1  0  0  0  0  0  0
  1  5  1  0  0  0  0
  2 26  1  6  0  0  0
  2  4  1  0  0  0  0
  3  5  1  0  0  0  0
  4  1  1  0  0  0  0
  5 18  1  0  0  0  0
  6  2  1  0  0  0  0
  6  3  1  0  0  0  0
  7 10  1  0  0  0  0
  8 17  2  0  0  0  0
  8  7  1  0  0  0  0
 10 19  1  0  0  0  0
 10 15  2  0  0  0  0
 11 20  2  0  0  0  0
 12 14  2  0  0  0  0
 12 19  1  0  0  0  0
 13 21  1  0  0  0  0
 13 17  1  0  0  0  0
 16 14  1  0  0  0  0
 17 12  1  0  0  0  0
 18  7  2  0  0  0  0
 18 11  1  0  0  0  0
 20 15  1  0  0  0  0
 20  9  1  0  0  0  0
 21 16  2  0  0  0  0
 22 24  1  0  0  0  0
 23 22  1  0  0  0  0
 23 25  2  0  0  0  0
 24 26  2  0  0  0  0
 25 26  1  0  0  0  0
 27 22  1  0  0  0  0
 27 28  1  0  0  0  0
 29 28  1  0  0  0  0
 29 31  1  0  0  0  0
 30 31  2  0  0  0  0
 31 32  1  0  0  0  0
M  END
>  <MODEL>
7

>  <REMARK>
 VINA RESULT:      -6.8      2.195      2.725
  Name = 
  6 active torsions:
  status: ('A' for Active; 'I' for Inactive)
    1  A    between atoms: N_8  and  C_9
    2  A    between atoms: N_8  and  C_14
    3  A    between atoms: C_9  and  C_28
    4  A    between atoms: N_10  and  C_14
    5  A    between atoms: C_17  and  C_31
    6  A    between atoms: C_20  and  N_24
                            x       y       z     vdW  Elec       q    Type
                         _______ _______ _______ _____ _____    ______ ____

>  <TORSDO>
F 6

$$$$
=
 OpenBabel11052411523D

 32 36  0  0  1  0  0  0  0  0999 V2000
  161.0040  208.2560  149.0930 C   0  0  0  0  0  2  0  0  0  0  0  0
  162.1800  210.4780  149.5950 C   0  0  2  0  0  3  0  0  0  0  0  0
  161.2970  209.0830  151.4710 C   0  0  0  0  0  2  0  0  0  0  0  0
  161.9650  209.3350  148.5890 C   0  0  0  0  0  2  0  0  0  0  0  0
  161.2410  207.9730  150.5100 N   0  0  0  0  0  0  0  0  0  0  0  0
  161.2060  210.4380  150.7730 C   0  0  0  0  0  2  0  0  0  0  0  0
  161.2090  205.5120  150.1130 C   0  0  0  0  0  0  0  0  0  0  0  0
  161.2520  205.7020  148.6860 N   0  0  0  0  0  0  0  0  0  0  0  0
  161.2290  204.8710  154.2230 F   0  0  0  0  0  0  0  0  0  0  0  0
  161.1850  204.2010  150.6340 C   0  0  0  0  0  0  0  0  0  0  0  0
  161.2400  206.3790  152.3790 C   0  0  0  0  0  3  0  0  0  0  0  0
  161.2010  203.3210  148.3310 C   0  0  0  0  0  0  0  0  0  0  0  0
  161.2920  204.9910  146.3660 C   0  0  0  0  0  2  0  0  0  0  0  0
  161.1890  202.3250  147.4990 N   0  0  0  0  0  0  0  0  0  0  0  0
  161.1890  203.9890  152.0130 C   0  0  0  0  0  3  0  0  0  0  0  0
  161.2160  202.5150  146.0770 C   0  0  0  0  0  3  0  0  0  0  0  0
  161.2470  204.7140  147.8400 C   0  0  0  0  0  0  0  0  0  0  0  0
  161.2270  206.6170  150.9940 C   0  0  0  0  0  0  0  0  0  0  0  0
  161.1730  203.0860  149.7400 N   0  0  0  0  0  2  0  0  0  0  0  0
  161.2190  205.0770  152.8850 C   0  0  0  0  0  0  0  0  0  0  0  0
  161.2620  203.7360  145.5350 C   0  0  0  0  0  3  0  0  0  0  0  0
  162.4950  213.3810  147.4330 N   0  0  0  0  0  0  0  0  0  0  0  0
  161.7100  213.9000  148.3950 C   0  0  0  0  0  3  0  0  0  0  0  0
  162.7750  212.1030  147.7290 C   0  0  0  0  0  3  0  0  0  0  0  0
  161.4530  212.9290  149.3480 C   0  0  0  0  0  3  0  0  0  0  0  0
  162.1310  211.8030  148.9090 C   0  0  0  0  0  0  0  0  0  0  0  0
  163.0100  214.1100  146.2880 C   0  0  0  0  0  2  0  0  0  0  0  0
  162.6810  213.3980  145.0660 N   0  0  0  0  0  2  0  0  0  0  0  0
  161.3310  213.7910  144.7050 C   0  0  0  0  0  2  0  0  0  0  0  0
  160.4350  211.9350  143.5120 O   0  0  0  0  0  0  0  0  0  0  0  0
  160.4720  212.5820  144.5910 C   0  0  0  0  0  0  0  0  0  0  0  0
  159.7420  212.1420  145.6870 O   0  0  0  0  0  1  0  0  0  0  0  0
  1  5  1  0  0  0  0
  2 26  1  6  0  0  0
  2  6  1  0  0  0  0
  4  1  1  0  0  0  0
  4  2  1  0  0  0  0
  5 18  1  0  0  0  0
  5  3  1  0  0  0  0
  6  3  1  0  0  0  0
  7 10  2  0  0  0  0
  7 18  1  0  0  0  0
  8  7  1  0  0  0  0
 10 15  1  0  0  0  0
 11 20  1  0  0  0  0
 12 19  1  0  0  0  0
 13 17  1  0  0  0  0
 14 12  2  0  0  0  0
 15 20  2  0  0  0  0
 16 14  1  0  0  0  0
 17 12  1  0  0  0  0
 17  8  2  0  0  0  0
 18 11  2  0  0  0  0
 19 10  1  0  0  0  0
 20  9  1  0  0  0  0
 21 16  2  0  0  0  0
 21 13  1  0  0  0  0
 22 24  1  0  0  0  0
 22 23  1  0  0  0  0
 23 25  2  0  0  0  0
 24 26  2  0  0  0  0
 26 25  1  0  0  0  0
 27 22  1  0  0  0  0
 28 27  1  0  0  0  0
 29 28  1  0  0  0  0
 30 31  2  0  0  0  0
 31 29  1  0  0  0  0
 31 32  1  0  0  0  0
M  END
>  <MODEL>
8

>  <REMARK>
 VINA RESULT:      -6.8      4.888      9.031
  Name = 
  6 active torsions:
  status: ('A' for Active; 'I' for Inactive)
    1  A    between atoms: N_8  and  C_9
    2  A    between atoms: N_8  and  C_14
    3  A    between atoms: C_9  and  C_28
    4  A    between atoms: N_10  and  C_14
    5  A    between atoms: C_17  and  C_31
    6  A    between atoms: C_20  and  N_24
                            x       y       z     vdW  Elec       q    Type
                         _______ _______ _______ _____ _____    ______ ____

>  <TORSDO>
F 6

$$$$
=
 OpenBabel11052411523D

 32 36  0  0  1  0  0  0  0  0999 V2000
  160.2910  206.2790  150.1710 C   0  0  0  0  0  2  0  0  0  0  0  0
  161.6170  204.3180  149.1860 C   0  0  2  0  0  3  0  0  0  0  0  0
  162.0070  206.6360  148.3410 C   0  0  0  0  0  2  0  0  0  0  0  0
  160.7870  204.8440  150.3680 C   0  0  0  0  0  2  0  0  0  0  0  0
  161.3320  207.1060  149.5580 N   0  0  0  0  0  0  0  0  0  0  0  0
  161.5630  205.2260  147.9580 C   0  0  0  0  0  2  0  0  0  0  0  0
  161.4120  208.8020  151.3830 C   0  0  0  0  0  0  0  0  0  0  0  0
  161.0640  207.8140  152.3710 N   0  0  0  0  0  0  0  0  0  0  0  0
  162.5580  211.6910  148.6160 F   0  0  0  0  0  0  0  0  0  0  0  0
  161.6380  210.1350  151.7890 C   0  0  0  0  0  0  0  0  0  0  0  0
  161.9570  209.4380  149.1050 C   0  0  0  0  0  3  0  0  0  0  0  0
  161.1290  209.4780  154.1110 C   0  0  0  0  0  0  0  0  0  0  0  0
  160.5600  207.0090  154.6040 C   0  0  0  0  0  2  0  0  0  0  0  0
  160.9870  209.7740  155.3660 N   0  0  0  0  0  0  0  0  0  0  0  0
  162.0190  211.1020  150.8590 C   0  0  0  0  0  3  0  0  0  0  0  0
  160.6260  208.7910  156.3480 C   0  0  0  0  0  3  0  0  0  0  0  0
  160.9250  208.0940  153.6330 C   0  0  0  0  0  0  0  0  0  0  0  0
  161.5620  208.4490  150.0220 C   0  0  0  0  0  0  0  0  0  0  0  0
  161.4900  210.4880  153.1670 N   0  0  0  0  0  2  0  0  0  0  0  0
  162.1820  210.7530  149.5180 C   0  0  0  0  0  0  0  0  0  0  0  0
  160.4230  207.5120  156.0160 C   0  0  0  0  0  3  0  0  0  0  0  0
  160.8900  201.0960  147.6700 N   0  0  0  0  0  0  0  0  0  0  0  0
  160.4180  200.8740  148.9110 C   0  0  0  0  0  3  0  0  0  0  0  0
  161.3720  202.3470  147.5950 C   0  0  0  0  0  3  0  0  0  0  0  0
  160.6070  202.0070  149.6820 C   0  0  0  0  0  3  0  0  0  0  0  0
  161.2120  202.9240  148.8350 C   0  0  0  0  0  0  0  0  0  0  0  0
  160.8290  200.1520  146.5690 C   0  0  0  0  0  2  0  0  0  0  0  0
  161.0020  200.8570  145.3100 N   0  0  0  0  0  2  0  0  0  0  0  0
  159.6820  201.2880  144.8890 C   0  0  0  0  0  2  0  0  0  0  0  0
  158.7440  203.2510  143.9240 O   0  0  0  0  0  0  0  0  0  0  0  0
  159.7200  202.7280  144.5200 C   0  0  0  0  0  0  0  0  0  0  0  0
  160.8150  203.5060  144.8700 O   0  0  0  0  0  1  0  0  0  0  0  0
  1  4  1  0  0  0  0
  2 26  1  6  0  0  0
  2  4  1  0  0  0  0
  3  5  1  0  0  0  0
  5 18  1  0  0  0  0
  5  1  1  0  0  0  0
  6  3  1  0  0  0  0
  6  2  1  0  0  0  0
  7 10  1  0  0  0  0
  7  8  1  0  0  0  0
  8 17  2  0  0  0  0
  9 20  1  0  0  0  0
 10 19  1  0  0  0  0
 11 20  2  0  0  0  0
 11 18  1  0  0  0  0
 12 14  2  0  0  0  0
 13 21  1  0  0  0  0
 14 16  1  0  0  0  0
 15 10  2  0  0  0  0
 17 12  1  0  0  0  0
 17 13  1  0  0  0  0
 18  7  2  0  0  0  0
 19 12  1  0  0  0  0
 20 15  1  0  0  0  0
 21 16  2  0  0  0  0
 22 23  1  0  0  0  0
 23 25  2  0  0  0  0
 24 22  1  0  0  0  0
 24 26  2  0  0  0  0
 26 25  1  0  0  0  0
 27 22  1  0  0  0  0
 28 27  1  0  0  0  0
 29 28  1  0  0  0  0
 30 31  2  0  0  0  0
 31 32  1  0  0  0  0
 31 29  1  0  0  0  0
M  END
>  <MODEL>
9

>  <REMARK>
 VINA RESULT:      -6.4      3.335      5.013
  Name = 
  6 active torsions:
  status: ('A' for Active; 'I' for Inactive)
    1  A    between atoms: N_8  and  C_9
    2  A    between atoms: N_8  and  C_14
    3  A    between atoms: C_9  and  C_28
    4  A    between atoms: N_10  and  C_14
    5  A    between atoms: C_17  and  C_31
    6  A    between atoms: C_20  and  N_24
                            x       y       z     vdW  Elec       q    Type
                         _______ _______ _______ _____ _____    ______ ____

>  <TORSDO>
F 6

$$$$
