=
 OpenBabel11052411083D

 44 49  0  0  1  0  0  0  0  0999 V2000
  160.4110  211.2850  152.8980 C   0  0  1  0  0  0  0  0  0  0  0  0
  163.2930  210.9540  157.2170 N   0  0  0  0  0  0  0  0  0  0  0  0
  163.7090  210.6340  155.8540 C   0  0  0  0  0  3  0  0  0  0  0  0
  159.1200  210.4810  153.3220 C   0  0  1  0  0  3  0  0  0  0  0  0
  161.5190  211.1490  155.9580 C   0  0  0  0  0  0  0  0  0  0  0  0
  158.1640  210.1820  152.1720 C   0  0  0  0  0  1  0  0  0  0  0  0
  162.4290  210.7820  155.1080 C   0  0  0  0  0  0  0  0  0  0  0  0
  160.4900  212.0280  155.3670 C   0  0  0  0  0  2  0  0  0  0  0  0
  162.5680  206.8320  152.2700 C   0  0  0  0  0  3  0  0  0  0  0  0
  162.6350  208.2300  152.2680 C   0  0  0  0  0  3  0  0  0  0  0  0
  162.2120  211.3660  153.7560 C   0  0  2  0  0  3  0  0  0  0  0  0
  161.4540  206.1710  152.8160 C   0  0  0  0  0  0  0  0  0  0  0  0
  160.4110  206.9240  153.3730 C   0  0  0  0  0  3  0  0  0  0  0  0
  159.4170  209.1510  154.0530 C   0  0  0  0  0  2  0  0  0  0  0  0
  160.9890  212.2370  153.9210 C   0  0  1  0  0  3  0  0  0  0  0  0
  161.5800  210.3820  152.8450 N   0  0  0  0  0  0  0  0  0  0  0  0
  161.5780  208.9620  152.8100 C   0  0  0  0  0  0  0  0  0  0  0  0
  162.0610  211.2640  157.2600 N   0  0  0  0  0  2  0  0  0  0  0  0
  160.4680  208.3200  153.3590 C   0  0  0  0  0  0  0  0  0  0  0  0
  160.0510  204.4180  150.9150 O   0  0  0  0  0  0  0  0  0  0  0  0
  161.3560  204.7410  152.8370 N   0  0  0  0  0  2  0  0  0  0  0  0
  160.6660  203.9100  151.8890 C   0  0  0  0  0  0  0  0  0  0  0  0
  160.6650  202.5230  152.0400 O   0  0  0  0  0  0  0  0  0  0  0  0
  161.4040  201.6600  151.1840 C   0  0  0  0  0  2  0  0  0  0  0  0
  160.5910  201.3040  149.9500 C   0  0  0  0  0  2  0  0  0  0  0  0
  161.4360  201.2800  148.8080 O   0  0  0  0  0  0  0  0  0  0  0  0
  161.7520  203.3870  147.9140 O   0  0  0  0  0  1  0  0  0  0  0  0
  160.6880  201.8470  146.5940 O   0  0  0  0  0  0  0  0  0  0  0  0
  161.3080  202.2150  147.7810 C   0  0  0  0  0  0  0  0  0  0  0  0
  160.2700  212.0020  151.5750 C   0  0  0  0  0  3  0  0  0  0  0  0
  161.0880  211.7660  150.5560 C   0  0  0  0  0  3  0  0  0  0  0  0
  160.7720  213.0680  148.2810 C   0  0  0  0  0  0  0  0  0  0  0  0
  160.9170  212.4740  149.3210 C   0  0  0  0  0  0  0  0  0  0  0  0
  159.4550  213.2420  146.2880 N   0  0  0  0  0  0  0  0  0  0  0  0
  160.5940  213.7910  147.0180 C   0  0  2  0  0  3  0  0  0  0  0  0
  161.7700  213.6870  146.2420 O   0  0  0  0  0  0  0  0  0  0  0  0
  161.3910  213.0680  145.0420 C   0  0  1  0  0  3  0  0  0  0  0  0
  158.2970  214.1070  146.5060 C   0  0  0  0  0  1  0  0  0  0  0  0
  159.8980  213.2400  144.9020 C   0  0  2  0  0  3  0  0  0  0  0  0
  161.9740  213.0840  142.6050 O   0  0  0  0  0  0  0  0  0  0  0  0
  163.0750  214.4530  144.0740 O   0  0  0  0  0  1  0  0  0  0  0  0
  162.1860  213.5850  143.8830 C   0  0  0  0  0  0  0  0  0  0  0  0
  159.6000  214.4530  144.2550 O   0  0  0  0  0  0  0  0  0  0  0  0
  158.8310  214.1100  143.2430 O   0  0  0  0  0  1  0  0  0  0  0  0
  1 30  1  6  0  0  0
  1  4  1  0  0  0  0
  1 15  1  0  0  0  0
  2 18  1  0  0  0  0
  3  2  2  0  0  0  0
  4  6  1  6  0  0  0
  4 14  1  0  0  0  0
  5 18  1  0  0  0  0
  7  3  1  0  0  0  0
  7  5  2  0  0  0  0
  8  5  1  0  0  0  0
  9 12  1  0  0  0  0
 10  9  2  0  0  0  0
 10 17  1  0  0  0  0
 11 15  1  0  0  0  0
 11  7  1  1  0  0  0
 12 21  1  0  0  0  0
 12 13  2  0  0  0  0
 15  8  1  1  0  0  0
 16  1  1  0  0  0  0
 16 11  1  0  0  0  0
 17 16  1  0  0  0  0
 17 19  2  0  0  0  0
 19 13  1  0  0  0  0
 19 14  1  0  0  0  0
 20 22  2  0  0  0  0
 22 23  1  0  0  0  0
 22 21  1  0  0  0  0
 24 23  1  0  0  0  0
 25 24  1  0  0  0  0
 26 25  1  0  0  0  0
 28 29  2  0  0  0  0
 29 27  1  0  0  0  0
 29 26  1  0  0  0  0
 31 30  2  0  0  0  0
 32 33  3  0  0  0  0
 33 31  1  0  0  0  0
 34 38  1  0  0  0  0
 34 35  1  0  0  0  0
 35 32  1  1  0  0  0
 36 35  1  0  0  0  0
 37 42  1  6  0  0  0
 37 36  1  0  0  0  0
 39 43  1  1  0  0  0
 39 37  1  0  0  0  0
 39 34  1  0  0  0  0
 40 42  2  0  0  0  0
 42 41  1  0  0  0  0
 44 43  1  0  0  0  0
M  END
>  <MODEL>
1

>  <REMARK>
 VINA RESULT:       1.7      0.000      0.000
  Name = 
  11 active torsions:
  status: ('A' for Active; 'I' for Inactive)
    1  A    between atoms: C_2  and  C_12
    2  A    between atoms: O_5  and  C_38
    3  A    between atoms: C_8  and  O_24
    4  A    between atoms: C_8  and  C_36
    5  A    between atoms: C_10  and  C_39
    6  A    between atoms: O_16  and  C_36
    7  A    between atoms: O_16  and  C_42
    8  A    between atoms: C_18  and  C_29
    9  A    between atoms: O_24  and  C_44
   10  A    between atoms: N_25  and  C_26
   11  A    between atoms: C_35  and  C_40
                            x       y       z     vdW  Elec       q    Type
                         _______ _______ _______ _____ _____    ______ ____

>  <TORSDO>
F 11

$$$$
=
 OpenBabel11052411083D

 44 49  0  0  1  0  0  0  0  0999 V2000
  161.6470  203.7860  146.1070 C   0  0  1  0  0  0  0  0  0  0  0  0
  159.7200  200.5040  149.6550 N   0  0  0  0  0  0  0  0  0  0  0  0
  159.1220  201.7540  149.1950 C   0  0  0  0  0  2  0  0  0  0  0  0
  163.1150  204.0010  146.6460 C   0  0  1  0  0  3  0  0  0  0  0  0
  161.1660  201.4330  148.3090 C   0  0  0  0  0  0  0  0  0  0  0  0
  163.8780  205.1220  145.9490 C   0  0  0  0  0  1  0  0  0  0  0  0
  160.1950  202.2930  148.3150 C   0  0  0  0  0  0  0  0  0  0  0  0
  161.8960  201.3880  147.0250 C   0  0  0  0  0  2  0  0  0  0  0  0
  160.2310  206.9630  149.6820 C   0  0  0  0  0  3  0  0  0  0  0  0
  159.9190  206.0940  148.6310 C   0  0  0  0  0  3  0  0  0  0  0  0
  160.0510  202.9980  147.0110 C   0  0  2  0  0  3  0  0  0  0  0  0
  161.5260  206.9870  150.2290 C   0  0  0  0  0  0  0  0  0  0  0  0
  162.5040  206.1210  149.7210 C   0  0  0  0  0  3  0  0  0  0  0  0
  163.1980  204.2430  148.1710 C   0  0  0  0  0  2  0  0  0  0  0  0
  161.1100  202.3730  146.1340 C   0  0  1  0  0  3  0  0  0  0  0  0
  160.6660  204.3450  147.0620 N   0  0  0  0  0  0  0  0  0  0  0  0
  160.9120  205.2540  148.1250 C   0  0  0  0  0  0  0  0  0  0  0  0
  160.8640  200.3230  149.1310 N   0  0  0  0  0  0  0  0  0  0  0  0
  162.2010  205.2640  148.6600 C   0  0  0  0  0  0  0  0  0  0  0  0
  161.9650  209.8940  150.1430 O   0  0  0  0  0  0  0  0  0  0  0  0
  161.8780  207.8610  151.3090 N   0  0  0  0  0  2  0  0  0  0  0  0
  162.0800  209.2820  151.2370 C   0  0  0  0  0  0  0  0  0  0  0  0
  162.4150  210.0040  152.3840 O   0  0  0  0  0  0  0  0  0  0  0  0
  161.4460  210.4010  153.3470 C   0  0  0  0  0  2  0  0  0  0  0  0
  162.1070  210.6820  154.6860 C   0  0  0  0  0  2  0  0  0  0  0  0
  161.7410  209.6800  155.6240 O   0  0  0  0  0  0  0  0  0  0  0  0
  159.7170  210.5720  156.2910 O   0  0  0  0  0  0  0  0  0  0  0  0
  159.9110  208.2900  156.3330 O   0  0  0  0  0  1  0  0  0  0  0  0
  160.4320  209.5540  156.0910 C   0  0  0  0  0  0  0  0  0  0  0  0
  161.4110  204.3820  144.7390 C   0  0  0  0  0  3  0  0  0  0  0  0
  162.1460  205.3850  144.2720 C   0  0  0  0  0  3  0  0  0  0  0  0
  161.6630  206.3700  141.8700 C   0  0  0  0  0  0  0  0  0  0  0  0
  161.8830  205.9200  142.9680 C   0  0  0  0  0  0  0  0  0  0  0  0
  162.6390  206.9890  139.7720 N   0  0  0  0  0  0  0  0  0  0  0  0
  161.3960  206.9160  140.5360 C   0  0  2  0  0  3  0  0  0  0  0  0
  160.8170  208.2000  140.6550 O   0  0  0  0  0  0  0  0  0  0  0  0
  161.6830  209.0800  139.9910 C   0  0  1  0  0  3  0  0  0  0  0  0
  162.7040  205.8390  138.8730 C   0  0  0  0  0  1  0  0  0  0  0  0
  162.5340  208.2530  139.0580 C   0  0  2  0  0  3  0  0  0  0  0  0
  159.5940  210.0300  138.9830 O   0  0  0  0  0  0  0  0  0  0  0  0
  161.5250  211.2610  139.0400 O   0  0  0  0  0  1  0  0  0  0  0  0
  160.9320  210.1900  139.3240 C   0  0  0  0  0  0  0  0  0  0  0  0
  161.8950  208.0990  137.8140 O   0  0  0  0  0  0  0  0  0  0  0  0
  162.5280  208.9290  137.0110 O   0  0  0  0  0  1  0  0  0  0  0  0
  1 30  1  6  0  0  0
  1 15  1  0  0  0  0
  1  4  1  0  0  0  0
  1 16  1  0  0  0  0
  3  2  1  0  0  0  0
  4  6  1  6  0  0  0
  4 14  1  0  0  0  0
  5  7  2  0  0  0  0
  5 18  1  0  0  0  0
  7  3  1  0  0  0  0
  8  5  1  0  0  0  0
  9 12  1  0  0  0  0
 10  9  2  0  0  0  0
 11 16  1  0  0  0  0
 11  7  1  1  0  0  0
 12 21  1  0  0  0  0
 13 12  2  0  0  0  0
 14 19  1  0  0  0  0
 15 11  1  0  0  0  0
 15  8  1  1  0  0  0
 16 17  1  0  0  0  0
 17 10  1  0  0  0  0
 17 19  2  0  0  0  0
 18  2  2  0  0  0  0
 19 13  1  0  0  0  0
 20 22  2  0  0  0  0
 22 21  1  0  0  0  0
 22 23  1  0  0  0  0
 23 24  1  0  0  0  0
 24 25  1  0  0  0  0
 25 26  1  0  0  0  0
 26 29  1  0  0  0  0
 29 27  2  0  0  0  0
 29 28  1  0  0  0  0
 31 30  2  0  0  0  0
 32 33  3  0  0  0  0
 33 31  1  0  0  0  0
 34 35  1  0  0  0  0
 35 36  1  0  0  0  0
 35 32  1  1  0  0  0
 37 42  1  6  0  0  0
 37 36  1  0  0  0  0
 38 34  1  0  0  0  0
 39 43  1  6  0  0  0
 39 34  1  0  0  0  0
 39 37  1  0  0  0  0
 40 42  2  0  0  0  0
 41 42  1  0  0  0  0
 44 43  1  0  0  0  0
M  END
>  <MODEL>
2

>  <REMARK>
 VINA RESULT:       3.6      5.026      9.277
  Name = 
  11 active torsions:
  status: ('A' for Active; 'I' for Inactive)
    1  A    between atoms: C_2  and  C_12
    2  A    between atoms: O_5  and  C_38
    3  A    between atoms: C_8  and  O_24
    4  A    between atoms: C_8  and  C_36
    5  A    between atoms: C_10  and  C_39
    6  A    between atoms: O_16  and  C_36
    7  A    between atoms: O_16  and  C_42
    8  A    between atoms: C_18  and  C_29
    9  A    between atoms: O_24  and  C_44
   10  A    between atoms: N_25  and  C_26
   11  A    between atoms: C_35  and  C_40
                            x       y       z     vdW  Elec       q    Type
                         _______ _______ _______ _____ _____    ______ ____

>  <TORSDO>
F 11

$$$$
