=
 OpenBabel11052409363D

 44 51  0  0  1  0  0  0  0  0999 V2000
  160.7280  204.8490  150.1560 C   0  0  0  0  0  0  0  0  0  0  0  0
  160.8800  211.8200  150.5720 C   0  0  1  0  0  3  0  0  0  0  0  0
  162.5980  206.0050  149.0310 C   0  0  0  0  0  2  0  0  0  0  0  0
  161.7110  210.1460  148.9270 C   0  0  0  0  0  0  0  0  0  0  0  0
  160.5310  203.5810  149.4240 C   0  0  0  0  0  0  0  0  0  0  0  0
  161.9110  208.8620  156.7050 C   0  0  0  0  0  3  0  0  0  0  0  0
  162.5210  209.8410  156.0640 O   0  0  0  0  0  0  0  0  0  0  0  0
  163.7160  212.0610  147.3100 O   0  0  0  0  0  0  0  0  0  0  0  0
  162.4580  203.8100  147.9640 N   0  0  0  0  0  2  0  0  0  0  0  0
  160.4340  204.9640  151.4140 N   0  0  0  0  0  0  0  0  0  0  0  0
  160.4270  206.8960  153.1270 C   0  0  0  0  0  2  0  0  0  0  0  0
  161.4270  211.7360  152.0040 C   0  0  0  0  0  2  0  0  0  0  0  0
  161.1830  206.1400  149.5430 C   0  0  2  0  0  3  0  0  0  0  0  0
  161.4180  208.4500  150.8540 C   0  0  0  0  0  0  0  0  0  0  0  0
  162.2990  209.7000  154.7840 C   0  0  0  0  0  0  0  0  0  0  0  0
  162.7200  212.8220  147.4500 C   0  0  0  0  0  0  0  0  0  0  0  0
  161.3380  203.1450  148.4990 N   0  0  0  0  0  0  0  0  0  0  0  0
  162.5530  205.2440  147.7270 C   0  0  0  0  0  2  0  0  0  0  0  0
  160.3270  213.2080  150.2740 C   0  0  1  0  0  3  0  0  0  0  0  0
  161.1190  208.1820  153.2810 N   0  0  0  0  0  0  0  0  0  0  0  0
  161.5310  208.6070  154.5770 C   0  0  0  0  0  0  0  0  0  0  0  0
  162.8580  210.5350  153.6890 C   0  0  0  0  0  2  0  0  0  0  0  0
  161.1400  209.1520  152.1650 C   0  0  1  0  0  3  0  0  0  0  0  0
  161.2580  208.0290  155.7990 C   0  0  0  0  0  3  0  0  0  0  0  0
  161.1380  207.0120  150.7520 C   0  0  0  0  0  0  0  0  0  0  0  0
  159.4360  202.6750  149.8700 C   0  0  0  0  0  1  0  0  0  0  0  0
  161.5810  209.1910  149.7990 C   0  0  0  0  0  0  0  0  0  0  0  0
  161.7780  212.5820  148.5040 N   0  0  0  0  0  0  0  0  0  0  0  0
  161.9330  211.5310  149.4960 C   0  0  1  0  0  3  0  0  0  0  0  0
  160.7730  213.5640  148.8630 C   0  0  0  0  0  2  0  0  0  0  0  0
  161.3450  209.8960  147.5030 C   0  0  0  0  0  1  0  0  0  0  0  0
  160.7110  206.3050  151.7790 C   0  0  0  0  0  0  0  0  0  0  0  0
  162.0840  210.3940  152.3650 C   0  0  1  0  0  3  0  0  0  0  0  0
  158.8350  213.2390  150.4000 C   0  0  0  0  0  0  0  0  0  0  0  0
  158.2110  213.2750  151.6580 C   0  0  0  0  0  3  0  0  0  0  0  0
  156.6600  213.2710  149.3320 C   0  0  0  0  0  3  0  0  0  0  0  0
  158.0540  213.2380  149.2400 C   0  0  0  0  0  3  0  0  0  0  0  0
  156.0410  213.3060  150.5840 C   0  0  0  0  0  3  0  0  0  0  0  0
  156.8170  213.3080  151.7470 C   0  0  0  0  0  3  0  0  0  0  0  0
  162.5280  213.9000  146.5840 O   0  0  0  0  0  0  0  0  0  0  0  0
  162.8040  214.4530  143.8690 S   0  0  0  0  0  0  0  0  0  0  0  0
  160.2990  214.4530  145.0390 O   0  0  0  0  0  1  0  0  0  0  0  0
  161.8100  213.7180  145.0470 S   0  0  2  0  0  0  0  0  0  0  0  0
  161.6580  212.2570  144.7290 O   0  0  0  0  0  0  0  0  0  0  0  0
  1 10  2  0  0  0  0
  2 12  1  1  0  0  0
  4 27  2  0  0  0  0
  5 26  1  0  0  0  0
  5  1  1  0  0  0  0
  7  6  1  0  0  0  0
  8 16  2  0  0  0  0
  9 17  1  0  0  0  0
 10 32  1  0  0  0  0
 11 20  1  0  0  0  0
 13  3  1  1  0  0  0
 13  1  1  0  0  0  0
 13 25  1  0  0  0  0
 15  7  1  0  0  0  0
 16 28  1  0  0  0  0
 17  5  2  0  0  0  0
 18  9  1  0  0  0  0
 18  3  1  0  0  0  0
 19 34  1  6  0  0  0
 19  2  1  0  0  0  0
 20 21  1  0  0  0  0
 21 15  2  0  0  0  0
 21 24  1  0  0  0  0
 22 15  1  0  0  0  0
 23 14  1  6  0  0  0
 23 33  1  0  0  0  0
 23 20  1  0  0  0  0
 24  6  2  0  0  0  0
 25 14  1  0  0  0  0
 25 32  2  0  0  0  0
 27 14  2  0  0  0  0
 28 30  1  0  0  0  0
 28 29  1  0  0  0  0
 29  4  1  6  0  0  0
 29  2  1  0  0  0  0
 30 19  1  0  0  0  0
 31  4  1  0  0  0  0
 32 11  1  0  0  0  0
 33 12  1  1  0  0  0
 33 22  1  0  0  0  0
 34 35  1  0  0  0  0
 35 39  2  0  0  0  0
 36 38  2  0  0  0  0
 37 36  1  0  0  0  0
 37 34  2  0  0  0  0
 38 39  1  0  0  0  0
 40 16  1  0  0  0  0
 42 43  1  0  0  0  0
 43 41  2  6  0  0  0
 43 40  1  0  0  0  0
 44 43  2  0  0  0  0
M  END
>  <MODEL>
1

>  <REMARK>
 VINA RESULT:       0.2      0.000      0.000
  Name = 
  3 active torsions:
  status: ('A' for Active; 'I' for Inactive)
    1  A    between atoms: C_9  and  C_25
    2  A    between atoms: O_18  and  S_21
    3  A    between atoms: O_18  and  C_22
                            x       y       z     vdW  Elec       q    Type
                         _______ _______ _______ _____ _____    ______ ____

>  <TORSDO>
F 3

$$$$
