=
 OpenBabel11042422103D

 34 38  0  0  1  0  0  0  0  0999 V2000
  161.3170  207.4090  153.2300 C   0  0  1  0  0  3  0  0  0  0  0  0
  161.6160  208.5960  152.3690 C   0  0  0  0  0  0  0  0  0  0  0  0
  161.9010  209.9370  150.7230 C   0  0  0  0  0  0  0  0  0  0  0  0
  160.6280  207.4960  155.4570 C   0  0  0  0  0  2  0  0  0  0  0  0
  160.0950  210.1050  153.4320 C   0  0  0  0  0  2  0  0  0  0  0  0
  159.6990  208.9710  154.4080 C   0  0  2  0  0  3  0  0  0  0  0  0
  160.2910  208.9410  155.8110 C   0  0  2  0  0  3  0  0  0  0  0  0
  161.6900  210.7600  151.6980 N   0  0  0  0  0  0  0  0  0  0  0  0
  161.5060  209.9610  152.9000 C   0  0  2  0  0  3  0  0  0  0  0  0
  160.1260  207.5910  154.0870 N   0  0  1  0  0  0  0  0  0  0  0  0
  161.8490  208.5670  151.0990 N   0  0  0  0  0  0  0  0  0  0  0  0
  161.2060  206.1350  152.4470 C   0  0  0  0  0  0  0  0  0  0  0  0
  161.0480  203.7180  152.4100 C   0  0  0  0  0  3  0  0  0  0  0  0
  161.1350  204.9540  150.3190 C   0  0  0  0  0  0  0  0  0  0  0  0
  161.0530  203.7380  151.0120 C   0  0  0  0  0  3  0  0  0  0  0  0
  161.1270  204.9160  153.1260 C   0  0  0  0  0  3  0  0  0  0  0  0
  161.2110  206.1510  151.0460 C   0  0  0  0  0  3  0  0  0  0  0  0
  161.6270  204.5350  146.6710 C   0  0  0  0  0  0  0  0  0  0  0  0
  161.1450  204.9690  148.8840 N   0  0  0  0  0  0  0  0  0  0  0  0
  160.9980  202.6470  148.1170 C   0  0  0  0  0  1  0  0  0  0  0  0
  161.7770  203.9490  148.0350 C   0  0  1  0  0  3  0  0  0  0  0  0
  160.6380  206.0440  148.1390 N   0  0  0  0  0  2  0  0  0  0  0  0
  162.0070  203.9980  145.5960 O   0  0  0  0  0  0  0  0  0  0  0  0
  160.9650  205.8170  146.7830 C   0  0  0  0  0  0  0  0  0  0  0  0
  160.3700  206.4190  145.8070 N   0  0  0  0  0  2  0  0  0  0  0  0
  162.2680  211.7310  149.0590 O   0  0  0  0  0  1  0  0  0  0  0  0
  162.1280  210.3790  149.3440 C   0  0  0  0  0  0  0  0  0  0  0  0
  162.1960  209.5360  148.4130 O   0  0  0  0  0  0  0  0  0  0  0  0
  161.5120  209.7400  155.9250 N   0  0  0  0  0  0  0  0  0  0  0  0
  162.5020  208.9090  156.3370 O   0  0  0  0  0  1  0  0  0  0  0  0
  161.3010  210.6890  157.0090 C   0  0  0  0  0  2  0  0  0  0  0  0
  160.4620  212.5150  155.7270 O   0  0  0  0  0  0  0  0  0  0  0  0
  160.2450  211.6700  156.6330 C   0  0  0  0  0  0  0  0  0  0  0  0
  159.0070  211.6310  157.2600 O   0  0  0  0  0  1  0  0  0  0  0  0
  1 12  1  6  0  0  0
  1 10  1  0  0  0  0
  2  9  1  0  0  0  0
  2  1  1  0  0  0  0
  3 11  1  0  0  0  0
  3  8  2  0  0  0  0
  4  7  1  0  0  0  0
  6  5  1  6  0  0  0
  6  7  1  0  0  0  0
  7 29  1  6  0  0  0
  8  9  1  0  0  0  0
  9  5  1  6  0  0  0
 10  6  1  0  0  0  0
 10  4  1  1  0  0  0
 11  2  2  0  0  0  0
 12 16  1  0  0  0  0
 13 16  2  0  0  0  0
 14 15  2  0  0  0  0
 14 17  1  0  0  0  0
 15 13  1  0  0  0  0
 17 12  2  0  0  0  0
 18 24  1  0  0  0  0
 18 21  1  0  0  0  0
 19 14  1  0  0  0  0
 21 20  1  6  0  0  0
 21 19  1  0  0  0  0
 22 19  1  0  0  0  0
 23 18  2  0  0  0  0
 24 22  1  0  0  0  0
 25 24  2  0  0  0  0
 26 27  1  0  0  0  0
 27  3  1  0  0  0  0
 28 27  2  0  0  0  0
 29 30  1  0  0  0  0
 29 31  1  0  0  0  0
 32 33  2  0  0  0  0
 33 31  1  0  0  0  0
 33 34  1  0  0  0  0
M  END
>  <MODEL>
1

>  <REMARK>
 VINA RESULT:      -8.4      0.000      0.000
  Name = 
  6 active torsions:
  status: ('A' for Active; 'I' for Inactive)
    1  A    between atoms: N_3  and  C_5
    2  A    between atoms: N_3  and  C_24
    3  A    between atoms: C_5  and  C_27
    4  A    between atoms: C_6  and  C_7
    5  A    between atoms: N_8  and  C_17
    6  A    between atoms: C_12  and  C_14
                            x       y       z     vdW  Elec       q    Type
                         _______ _______ _______ _____ _____    ______ ____

>  <TORSDO>
F 6

$$$$
=
 OpenBabel11042422103D

 34 38  0  0  1  0  0  0  0  0999 V2000
  160.8830  209.0830  153.3750 C   0  0  1  0  0  3  0  0  0  0  0  0
  161.1810  210.0560  152.2780 C   0  0  0  0  0  0  0  0  0  0  0  0
  161.5710  210.9840  150.3870 C   0  0  0  0  0  0  0  0  0  0  0  0
  159.8560  209.6080  155.4030 C   0  0  0  0  0  2  0  0  0  0  0  0
  159.3640  211.5460  152.7200 C   0  0  0  0  0  2  0  0  0  0  0  0
  158.9460  210.6370  153.9020 C   0  0  2  0  0  3  0  0  0  0  0  0
  159.3160  211.0330  155.3260 C   0  0  2  0  0  3  0  0  0  0  0  0
  161.1260  211.9810  151.0820 N   0  0  0  0  0  0  0  0  0  0  0  0
  160.8470  211.4790  152.4180 C   0  0  2  0  0  3  0  0  0  0  0  0
  159.5620  209.2960  154.0040 N   0  0  1  0  0  0  0  0  0  0  0  0
  161.6070  209.7540  151.0970 N   0  0  0  0  0  0  0  0  0  0  0  0
  161.0290  207.6550  152.9420 C   0  0  0  0  0  0  0  0  0  0  0  0
  161.4190  205.3330  153.5130 C   0  0  0  0  0  3  0  0  0  0  0  0
  161.1370  205.9720  151.1860 C   0  0  0  0  0  0  0  0  0  0  0  0
  161.3600  204.9890  152.1590 C   0  0  0  0  0  3  0  0  0  0  0  0
  161.2560  206.6650  153.9030 C   0  0  0  0  0  3  0  0  0  0  0  0
  160.9710  207.3060  151.5860 C   0  0  0  0  0  3  0  0  0  0  0  0
  161.3670  204.5380  147.7770 C   0  0  0  0  0  0  0  0  0  0  0  0
  161.0820  205.6150  149.7960 N   0  0  0  0  0  0  0  0  0  0  0  0
  160.4510  203.2520  149.6620 C   0  0  0  0  0  1  0  0  0  0  0  0
  161.4640  204.3070  149.2480 C   0  0  1  0  0  3  0  0  0  0  0  0
  160.7590  206.5410  148.7930 N   0  0  0  0  0  2  0  0  0  0  0  0
  161.5840  203.6790  146.8820 O   0  0  0  0  0  0  0  0  0  0  0  0
  160.9720  205.9120  147.5460 C   0  0  0  0  0  0  0  0  0  0  0  0
  160.4600  206.3480  146.4430 N   0  0  0  0  0  2  0  0  0  0  0  0
  162.1010  212.3620  148.4010 O   0  0  0  0  0  1  0  0  0  0  0  0
  161.9570  211.1070  148.9790 C   0  0  0  0  0  0  0  0  0  0  0  0
  162.1590  210.0760  148.2870 O   0  0  0  0  0  0  0  0  0  0  0  0
  160.4130  212.0000  155.3750 N   0  0  0  0  0  0  0  0  0  0  0  0
  161.5100  211.3460  155.8320 O   0  0  0  0  0  1  0  0  0  0  0  0
  160.0710  212.9810  156.3950 C   0  0  0  0  0  2  0  0  0  0  0  0
  158.0150  214.1470  156.7090 O   0  0  0  0  0  1  0  0  0  0  0  0
  158.9500  213.8410  155.9240 C   0  0  0  0  0  0  0  0  0  0  0  0
  158.9530  214.3360  154.6270 O   0  0  0  0  0  0  0  0  0  0  0  0
  1 12  1  6  0  0  0
  1 10  1  0  0  0  0
  2  9  1  0  0  0  0
  2  1  1  0  0  0  0
  3  8  2  0  0  0  0
  3 11  1  0  0  0  0
  6  5  1  6  0  0  0
  6 10  1  0  0  0  0
  6  7  1  0  0  0  0
  7 29  1  6  0  0  0
  7  4  1  0  0  0  0
  8  9  1  0  0  0  0
  9  5  1  6  0  0  0
 10  4  1  1  0  0  0
 11  2  2  0  0  0  0
 12 16  1  0  0  0  0
 13 16  2  0  0  0  0
 14 17  1  0  0  0  0
 14 15  2  0  0  0  0
 15 13  1  0  0  0  0
 17 12  2  0  0  0  0
 18 21  1  0  0  0  0
 19 14  1  0  0  0  0
 21 20  1  1  0  0  0
 21 19  1  0  0  0  0
 22 19  1  0  0  0  0
 23 18  2  0  0  0  0
 24 18  1  0  0  0  0
 24 22  1  0  0  0  0
 25 24  2  0  0  0  0
 26 27  1  0  0  0  0
 27  3  1  0  0  0  0
 28 27  2  0  0  0  0
 29 30  1  0  0  0  0
 29 31  1  0  0  0  0
 33 31  1  0  0  0  0
 33 32  1  0  0  0  0
 34 33  2  0  0  0  0
M  END
>  <MODEL>
2

>  <REMARK>
 VINA RESULT:      -7.2      1.432      1.839
  Name = 
  6 active torsions:
  status: ('A' for Active; 'I' for Inactive)
    1  A    between atoms: N_3  and  C_5
    2  A    between atoms: N_3  and  C_24
    3  A    between atoms: C_5  and  C_27
    4  A    between atoms: C_6  and  C_7
    5  A    between atoms: N_8  and  C_17
    6  A    between atoms: C_12  and  C_14
                            x       y       z     vdW  Elec       q    Type
                         _______ _______ _______ _____ _____    ______ ____

>  <TORSDO>
F 6

$$$$
=
 OpenBabel11042422103D

 34 38  0  0  1  0  0  0  0  0999 V2000
  161.2710  210.0600  152.5580 C   0  0  1  0  0  3  0  0  0  0  0  0
  160.6060  211.3660  152.2550 C   0  0  0  0  0  0  0  0  0  0  0  0
  159.5710  212.9890  151.3160 C   0  0  0  0  0  0  0  0  0  0  0  0
  161.4880  209.1170  154.6810 C   0  0  0  0  0  2  0  0  0  0  0  0
  159.0400  211.3120  154.0610 C   0  0  0  0  0  2  0  0  0  0  0  0
  159.6430  209.9560  154.5040 C   0  0  2  0  0  3  0  0  0  0  0  0
  160.6320  209.9130  155.6620 C   0  0  2  0  0  3  0  0  0  0  0  0
  159.3470  213.2240  152.5680 N   0  0  0  0  0  0  0  0  0  0  0  0
  160.0320  212.1890  153.3270 C   0  0  2  0  0  3  0  0  0  0  0  0
  160.5500  209.2550  153.5680 N   0  0  1  0  0  0  0  0  0  0  0  0
  160.3460  211.8230  151.0750 N   0  0  0  0  0  0  0  0  0  0  0  0
  161.5330  209.2410  151.3310 C   0  0  0  0  0  0  0  0  0  0  0  0
  162.1740  209.1270  148.9970 C   0  0  0  0  0  3  0  0  0  0  0  0
  161.5580  207.0950  150.1790 C   0  0  0  0  0  0  0  0  0  0  0  0
  161.9790  207.7430  149.0090 C   0  0  0  0  0  3  0  0  0  0  0  0
  161.9490  209.8750  150.1560 C   0  0  0  0  0  3  0  0  0  0  0  0
  161.3380  207.8530  151.3380 C   0  0  0  0  0  3  0  0  0  0  0  0
  160.6480  203.5390  149.6720 C   0  0  0  0  0  0  0  0  0  0  0  0
  161.3530  205.6740  150.1850 N   0  0  0  0  0  0  0  0  0  0  0  0
  161.7370  204.8600  147.9060 C   0  0  0  0  0  1  0  0  0  0  0  0
  160.7710  204.9030  149.0790 C   0  0  1  0  0  3  0  0  0  0  0  0
  161.5920  204.8850  151.3200 N   0  0  0  0  0  2  0  0  0  0  0  0
  160.2110  202.5170  149.0800 O   0  0  0  0  0  0  0  0  0  0  0  0
  161.1230  203.5810  151.0390 C   0  0  0  0  0  0  0  0  0  0  0  0
  161.4860  202.5440  151.7170 N   0  0  0  0  0  2  0  0  0  0  0  0
  159.8860  214.3970  149.3060 O   0  0  0  0  0  0  0  0  0  0  0  0
  159.0320  213.8280  150.2420 C   0  0  0  0  0  0  0  0  0  0  0  0
  157.7940  214.0360  150.1630 O   0  0  0  0  0  1  0  0  0  0  0  0
  161.2390  211.2160  155.9340 N   0  0  0  0  0  0  0  0  0  0  0  0
  162.5790  211.0260  156.0310 O   0  0  0  0  0  1  0  0  0  0  0  0
  160.7910  211.6270  157.2560 C   0  0  0  0  0  2  0  0  0  0  0  0
  160.5060  213.9740  156.9470 O   0  0  0  0  0  0  0  0  0  0  0  0
  159.9600  212.8600  157.1560 C   0  0  0  0  0  0  0  0  0  0  0  0
  158.5780  212.7750  157.2590 O   0  0  0  0  0  1  0  0  0  0  0  0
  1 12  1  6  0  0  0
  1 10  1  0  0  0  0
  2  1  1  0  0  0  0
  2  9  1  0  0  0  0
  3  8  2  0  0  0  0
  4  7  1  0  0  0  0
  6  5  1  6  0  0  0
  6  7  1  0  0  0  0
  7 29  1  6  0  0  0
  8  9  1  0  0  0  0
  9  5  1  6  0  0  0
 10  6  1  0  0  0  0
 10  4  1  1  0  0  0
 11  3  1  0  0  0  0
 11  2  2  0  0  0  0
 12 17  1  0  0  0  0
 13 15  2  0  0  0  0
 13 16  1  0  0  0  0
 14 19  1  0  0  0  0
 14 17  2  0  0  0  0
 15 14  1  0  0  0  0
 16 12  2  0  0  0  0
 18 24  1  0  0  0  0
 19 22  1  0  0  0  0
 21 20  1  6  0  0  0
 21 18  1  0  0  0  0
 21 19  1  0  0  0  0
 23 18  2  0  0  0  0
 24 22  1  0  0  0  0
 24 25  2  0  0  0  0
 26 27  2  0  0  0  0
 27  3  1  0  0  0  0
 28 27  1  0  0  0  0
 29 30  1  0  0  0  0
 29 31  1  0  0  0  0
 32 33  2  0  0  0  0
 33 31  1  0  0  0  0
 33 34  1  0  0  0  0
M  END
>  <MODEL>
3

>  <REMARK>
 VINA RESULT:      -7.1      2.311      3.475
  Name = 
  6 active torsions:
  status: ('A' for Active; 'I' for Inactive)
    1  A    between atoms: N_3  and  C_5
    2  A    between atoms: N_3  and  C_24
    3  A    between atoms: C_5  and  C_27
    4  A    between atoms: C_6  and  C_7
    5  A    between atoms: N_8  and  C_17
    6  A    between atoms: C_12  and  C_14
                            x       y       z     vdW  Elec       q    Type
                         _______ _______ _______ _____ _____    ______ ____

>  <TORSDO>
F 6

$$$$
=
 OpenBabel11042422103D

 34 38  0  0  1  0  0  0  0  0999 V2000
  160.9580  207.7150  152.6620 C   0  0  1  0  0  3  0  0  0  0  0  0
  161.2410  208.4690  151.4010 C   0  0  0  0  0  0  0  0  0  0  0  0
  161.7410  209.9740  149.9610 C   0  0  0  0  0  0  0  0  0  0  0  0
  161.1850  205.4090  152.9340 C   0  0  0  0  0  2  0  0  0  0  0  0
  162.9320  207.0000  150.5660 C   0  0  0  0  0  2  0  0  0  0  0  0
  162.7340  206.1090  151.8160 C   0  0  2  0  0  3  0  0  0  0  0  0
  161.9010  204.8380  151.7130 C   0  0  2  0  0  3  0  0  0  0  0  0
  162.0150  208.8890  149.3120 N   0  0  0  0  0  0  0  0  0  0  0  0
  161.6860  207.7740  150.1870 C   0  0  2  0  0  3  0  0  0  0  0  0
  161.9500  206.6550  152.9460 N   0  0  1  0  0  0  0  0  0  0  0  0
  161.2660  209.7550  151.2820 N   0  0  0  0  0  0  0  0  0  0  0  0
  160.7960  208.6100  153.8530 C   0  0  0  0  0  0  0  0  0  0  0  0
  161.3470  209.1420  156.1510 C   0  0  0  0  0  3  0  0  0  0  0  0
  159.7530  210.5220  154.9430 C   0  0  0  0  0  0  0  0  0  0  0  0
  160.4730  210.2320  156.1110 C   0  0  0  0  0  3  0  0  0  0  0  0
  161.5060  208.3300  155.0250 C   0  0  0  0  0  3  0  0  0  0  0  0
  159.9210  209.7040  153.8160 C   0  0  0  0  0  3  0  0  0  0  0  0
  157.5260  213.4300  155.4980 C   0  0  0  0  0  0  0  0  0  0  0  0
  158.8530  211.6390  154.9070 N   0  0  0  0  0  0  0  0  0  0  0  0
  159.8960  213.4720  156.1550 C   0  0  0  0  0  1  0  0  0  0  0  0
  158.6600  212.6000  156.0010 C   0  0  1  0  0  3  0  0  0  0  0  0
  157.9690  211.8590  153.8400 N   0  0  0  0  0  2  0  0  0  0  0  0
  157.0140  214.4140  156.0960 O   0  0  0  0  0  0  0  0  0  0  0  0
  157.1170  212.9260  154.2050 C   0  0  0  0  0  0  0  0  0  0  0  0
  156.4270  213.5980  153.3450 N   0  0  0  0  0  2  0  0  0  0  0  0
  161.1880  212.3830  149.8450 O   0  0  0  0  0  1  0  0  0  0  0  0
  161.9480  211.3100  149.3960 C   0  0  0  0  0  0  0  0  0  0  0  0
  162.8150  211.4920  148.5020 O   0  0  0  0  0  0  0  0  0  0  0  0
  161.0130  204.8380  150.5500 N   0  0  0  0  0  0  0  0  0  0  0  0
  159.7420  204.7270  151.0120 O   0  0  0  0  0  1  0  0  0  0  0  0
  161.2830  203.6160  149.8080 C   0  0  0  0  0  2  0  0  0  0  0  0
  161.3550  205.0890  147.9350 O   0  0  0  0  0  1  0  0  0  0  0  0
  161.3160  203.9010  148.3460 C   0  0  0  0  0  0  0  0  0  0  0  0
  161.3360  202.8530  147.4360 O   0  0  0  0  0  0  0  0  0  0  0  0
  1 10  1  0  0  0  0
  1 12  1  1  0  0  0
  2  1  1  0  0  0  0
  3 11  1  0  0  0  0
  6  5  1  6  0  0  0
  6 10  1  0  0  0  0
  7 29  1  6  0  0  0
  7  6  1  0  0  0  0
  7  4  1  0  0  0  0
  8  3  2  0  0  0  0
  8  9  1  0  0  0  0
  9  5  1  1  0  0  0
  9  2  1  0  0  0  0
 10  4  1  6  0  0  0
 11  2  2  0  0  0  0
 12 16  1  0  0  0  0
 14 15  2  0  0  0  0
 15 13  1  0  0  0  0
 16 13  2  0  0  0  0
 17 12  2  0  0  0  0
 17 14  1  0  0  0  0
 18 21  1  0  0  0  0
 18 23  2  0  0  0  0
 19 14  1  0  0  0  0
 19 21  1  0  0  0  0
 21 20  1  6  0  0  0
 22 24  1  0  0  0  0
 22 19  1  0  0  0  0
 24 18  1  0  0  0  0
 25 24  2  0  0  0  0
 27 26  1  0  0  0  0
 27  3  1  0  0  0  0
 28 27  2  0  0  0  0
 29 30  1  0  0  0  0
 31 29  1  0  0  0  0
 32 33  1  0  0  0  0
 33 31  1  0  0  0  0
 34 33  2  0  0  0  0
M  END
>  <MODEL>
4

>  <REMARK>
 VINA RESULT:      -7.1      2.482      7.923
  Name = 
  6 active torsions:
  status: ('A' for Active; 'I' for Inactive)
    1  A    between atoms: N_3  and  C_5
    2  A    between atoms: N_3  and  C_24
    3  A    between atoms: C_5  and  C_27
    4  A    between atoms: C_6  and  C_7
    5  A    between atoms: N_8  and  C_17
    6  A    between atoms: C_12  and  C_14
                            x       y       z     vdW  Elec       q    Type
                         _______ _______ _______ _____ _____    ______ ____

>  <TORSDO>
F 6

$$$$
=
 OpenBabel11042422103D

 34 38  0  0  1  0  0  0  0  0999 V2000
  159.6900  210.7260  153.0350 C   0  0  1  0  0  3  0  0  0  0  0  0
  159.8170  210.1220  154.3980 C   0  0  0  0  0  0  0  0  0  0  0  0
  160.4580  209.0180  156.1180 C   0  0  0  0  0  0  0  0  0  0  0  0
  158.6340  212.7490  152.5480 C   0  0  0  0  0  2  0  0  0  0  0  0
  159.8380  212.1790  155.6170 C   0  0  0  0  0  2  0  0  0  0  0  0
  159.6890  212.9400  154.2780 C   0  0  2  0  0  3  0  0  0  0  0  0
  158.3220  213.4680  153.8580 C   0  0  2  0  0  3  0  0  0  0  0  0
  159.7670  209.9680  156.6590 N   0  0  0  0  0  0  0  0  0  0  0  0
  159.2440  210.7860  155.5760 C   0  0  2  0  0  3  0  0  0  0  0  0
  159.9000  212.1900  153.0200 N   0  0  1  0  0  0  0  0  0  0  0  0
  160.5270  209.0870  154.7000 N   0  0  0  0  0  0  0  0  0  0  0  0
  160.5700  210.0630  152.0190 C   0  0  0  0  0  0  0  0  0  0  0  0
  162.2490  210.2410  150.2820 C   0  0  0  0  0  3  0  0  0  0  0  0
  161.3170  208.0680  150.8400 C   0  0  0  0  0  0  0  0  0  0  0  0
  162.1870  208.8600  150.0780 C   0  0  0  0  0  3  0  0  0  0  0  0
  161.4390  210.8430  151.2490 C   0  0  0  0  0  3  0  0  0  0  0  0
  160.5110  208.6780  151.8120 C   0  0  0  0  0  3  0  0  0  0  0  0
  160.7910  204.5640  149.7550 C   0  0  0  0  0  0  0  0  0  0  0  0
  161.2530  206.6500  150.6240 N   0  0  0  0  0  0  0  0  0  0  0  0
  161.8480  206.2290  148.2850 C   0  0  0  0  0  1  0  0  0  0  0  0
  160.8140  206.0080  149.3770 C   0  0  1  0  0  3  0  0  0  0  0  0
  161.5010  205.7210  151.6450 N   0  0  0  0  0  2  0  0  0  0  0  0
  160.4920  203.6090  148.9900 O   0  0  0  0  0  0  0  0  0  0  0  0
  161.1790  204.4390  151.1440 C   0  0  0  0  0  0  0  0  0  0  0  0
  161.6020  203.3470  151.6880 N   0  0  0  0  0  2  0  0  0  0  0  0
  160.4850  206.8210  157.2570 O   0  0  0  0  0  0  0  0  0  0  0  0
  161.1470  207.9900  156.9030 C   0  0  0  0  0  0  0  0  0  0  0  0
  162.3410  208.1620  157.2610 O   0  0  0  0  0  1  0  0  0  0  0  0
  157.2220  212.8060  154.5590 N   0  0  0  0  0  0  0  0  0  0  0  0
  156.1860  212.7110  153.6870 O   0  0  0  0  0  1  0  0  0  0  0  0
  156.7840  213.7090  155.6130 C   0  0  0  0  0  2  0  0  0  0  0  0
  154.7510  213.5790  156.8520 O   0  0  0  0  0  0  0  0  0  0  0  0
  155.8240  213.0140  156.5170 C   0  0  0  0  0  0  0  0  0  0  0  0
  156.0980  211.7290  156.9630 O   0  0  0  0  0  1  0  0  0  0  0  0
  1 12  1  6  0  0  0
  1  2  1  0  0  0  0
  2 11  2  0  0  0  0
  2  9  1  0  0  0  0
  3  8  2  0  0  0  0
  3 27  1  0  0  0  0
  4  7  1  0  0  0  0
  6  5  1  1  0  0  0
  7  6  1  0  0  0  0
  7 29  1  1  0  0  0
  9  5  1  1  0  0  0
  9  8  1  0  0  0  0
 10  4  1  6  0  0  0
 10  1  1  0  0  0  0
 10  6  1  0  0  0  0
 11  3  1  0  0  0  0
 13 16  1  0  0  0  0
 14 17  2  0  0  0  0
 15 13  2  0  0  0  0
 15 14  1  0  0  0  0
 16 12  2  0  0  0  0
 17 12  1  0  0  0  0
 18 24  1  0  0  0  0
 19 14  1  0  0  0  0
 19 22  1  0  0  0  0
 21 20  1  6  0  0  0
 21 18  1  0  0  0  0
 21 19  1  0  0  0  0
 23 18  2  0  0  0  0
 24 22  1  0  0  0  0
 24 25  2  0  0  0  0
 27 26  2  0  0  0  0
 27 28  1  0  0  0  0
 29 31  1  0  0  0  0
 30 29  1  0  0  0  0
 31 33  1  0  0  0  0
 33 32  2  0  0  0  0
 33 34  1  0  0  0  0
M  END
>  <MODEL>
5

>  <REMARK>
 VINA RESULT:      -6.9      2.713      5.239
  Name = 
  6 active torsions:
  status: ('A' for Active; 'I' for Inactive)
    1  A    between atoms: N_3  and  C_5
    2  A    between atoms: N_3  and  C_24
    3  A    between atoms: C_5  and  C_27
    4  A    between atoms: C_6  and  C_7
    5  A    between atoms: N_8  and  C_17
    6  A    between atoms: C_12  and  C_14
                            x       y       z     vdW  Elec       q    Type
                         _______ _______ _______ _____ _____    ______ ____

>  <TORSDO>
F 6

$$$$
=
 OpenBabel11042422103D

 34 38  0  0  1  0  0  0  0  0999 V2000
  161.1310  208.0560  150.5790 C   0  0  1  0  0  3  0  0  0  0  0  0
  160.8070  208.8110  151.8300 C   0  0  0  0  0  0  0  0  0  0  0  0
  160.4460  209.3880  153.8610 C   0  0  0  0  0  0  0  0  0  0  0  0
  161.9740  208.9950  148.6170 C   0  0  0  0  0  2  0  0  0  0  0  0
  162.4390  210.5360  151.5500 C   0  0  0  0  0  2  0  0  0  0  0  0
  162.8700  209.8710  150.2200 C   0  0  2  0  0  3  0  0  0  0  0  0
  162.3750  210.4410  148.8970 C   0  0  2  0  0  3  0  0  0  0  0  0
  160.7470  210.5220  153.3160 N   0  0  0  0  0  0  0  0  0  0  0  0
  160.9910  210.2660  151.9050 C   0  0  2  0  0  3  0  0  0  0  0  0
  162.3840  208.5040  149.9320 N   0  0  1  0  0  0  0  0  0  0  0  0
  160.4870  208.2850  152.9650 N   0  0  0  0  0  0  0  0  0  0  0  0
  161.1530  206.5710  150.7830 C   0  0  0  0  0  0  0  0  0  0  0  0
  161.3150  204.6750  152.2820 C   0  0  0  0  0  3  0  0  0  0  0  0
  161.1380  204.3070  149.8870 C   0  0  0  0  0  0  0  0  0  0  0  0
  161.2510  203.8040  151.1900 C   0  0  0  0  0  3  0  0  0  0  0  0
  161.2690  206.0570  152.0780 C   0  0  0  0  0  3  0  0  0  0  0  0
  161.0890  205.6950  149.6910 C   0  0  0  0  0  3  0  0  0  0  0  0
  161.1410  201.5280  147.4360 C   0  0  0  0  0  0  0  0  0  0  0  0
  161.0780  203.4100  148.7680 N   0  0  0  0  0  0  0  0  0  0  0  0
  159.6940  201.4980  149.4250 C   0  0  0  0  0  1  0  0  0  0  0  0
  161.0350  201.9440  148.8660 C   0  0  1  0  0  3  0  0  0  0  0  0
  161.1700  203.8550  147.4410 N   0  0  0  0  0  2  0  0  0  0  0  0
  161.1250  200.3410  147.0140 O   0  0  0  0  0  0  0  0  0  0  0  0
  161.2560  202.7120  146.6120 C   0  0  0  0  0  0  0  0  0  0  0  0
  161.0140  202.7460  145.3440 N   0  0  0  0  0  2  0  0  0  0  0  0
  160.2970  208.0230  155.9200 O   0  0  0  0  0  0  0  0  0  0  0  0
  160.1370  209.2490  155.2870 C   0  0  0  0  0  0  0  0  0  0  0  0
  159.7250  210.2400  155.9440 O   0  0  0  0  0  1  0  0  0  0  0  0
  161.1880  211.2810  149.0530 N   0  0  0  0  0  0  0  0  0  0  0  0
  160.5210  211.2630  147.8720 O   0  0  0  0  0  1  0  0  0  0  0  0
  161.6540  212.6480  149.2350 C   0  0  0  0  0  2  0  0  0  0  0  0
  160.1490  214.4310  148.7480 O   0  0  0  0  0  0  0  0  0  0  0  0
  160.5080  213.5420  149.5620 C   0  0  0  0  0  0  0  0  0  0  0  0
  159.8140  213.3720  150.7520 O   0  0  0  0  0  1  0  0  0  0  0  0
  1 12  1  1  0  0  0
  1  2  1  0  0  0  0
  2  9  1  0  0  0  0
  2 11  2  0  0  0  0
  3 27  1  0  0  0  0
  4  7  1  0  0  0  0
  6  5  1  1  0  0  0
  7 29  1  1  0  0  0
  7  6  1  0  0  0  0
  8  3  2  0  0  0  0
  9  5  1  1  0  0  0
  9  8  1  0  0  0  0
 10  4  1  6  0  0  0
 10  6  1  0  0  0  0
 10  1  1  0  0  0  0
 11  3  1  0  0  0  0
 12 16  1  0  0  0  0
 14 15  2  0  0  0  0
 15 13  1  0  0  0  0
 16 13  2  0  0  0  0
 17 14  1  0  0  0  0
 17 12  2  0  0  0  0
 18 21  1  0  0  0  0
 19 21  1  0  0  0  0
 19 14  1  0  0  0  0
 21 20  1  6  0  0  0
 22 19  1  0  0  0  0
 23 18  2  0  0  0  0
 24 18  1  0  0  0  0
 24 22  1  0  0  0  0
 25 24  2  0  0  0  0
 27 26  2  0  0  0  0
 27 28  1  0  0  0  0
 29 31  1  0  0  0  0
 30 29  1  0  0  0  0
 31 33  1  0  0  0  0
 32 33  2  0  0  0  0
 33 34  1  0  0  0  0
M  END
>  <MODEL>
6

>  <REMARK>
 VINA RESULT:      -6.7      1.971      4.820
  Name = 
  6 active torsions:
  status: ('A' for Active; 'I' for Inactive)
    1  A    between atoms: N_3  and  C_5
    2  A    between atoms: N_3  and  C_24
    3  A    between atoms: C_5  and  C_27
    4  A    between atoms: C_6  and  C_7
    5  A    between atoms: N_8  and  C_17
    6  A    between atoms: C_12  and  C_14
                            x       y       z     vdW  Elec       q    Type
                         _______ _______ _______ _____ _____    ______ ____

>  <TORSDO>
F 6

$$$$
=
 OpenBabel11042422103D

 34 38  0  0  1  0  0  0  0  0999 V2000
  161.9880  207.3420  148.7870 C   0  0  1  0  0  3  0  0  0  0  0  0
  161.8190  206.3090  149.8560 C   0  0  0  0  0  0  0  0  0  0  0  0
  161.4150  205.2800  151.6910 C   0  0  0  0  0  0  0  0  0  0  0  0
  161.8560  206.9440  146.4920 C   0  0  0  0  0  2  0  0  0  0  0  0
  160.3230  204.8910  148.6440 C   0  0  0  0  0  2  0  0  0  0  0  0
  160.4170  205.8670  147.4460 C   0  0  2  0  0  3  0  0  0  0  0  0
  161.3240  205.5310  146.2690 C   0  0  2  0  0  3  0  0  0  0  0  0
  161.2810  204.3300  150.8230 N   0  0  0  0  0  0  0  0  0  0  0  0
  161.5620  204.9040  149.5160 C   0  0  2  0  0  3  0  0  0  0  0  0
  161.0280  207.1950  147.6720 N   0  0  1  0  0  0  0  0  0  0  0  0
  161.7390  206.5420  151.1240 N   0  0  0  0  0  0  0  0  0  0  0  0
  161.9560  208.7430  149.3200 C   0  0  0  0  0  0  0  0  0  0  0  0
  162.2260  211.1210  148.9500 C   0  0  0  0  0  3  0  0  0  0  0  0
  161.6850  210.3010  151.1720 C   0  0  0  0  0  0  0  0  0  0  0  0
  161.9560  211.3640  150.3000 C   0  0  0  0  0  3  0  0  0  0  0  0
  162.2290  209.8120  148.4620 C   0  0  0  0  0  3  0  0  0  0  0  0
  161.6860  208.9900  150.6730 C   0  0  0  0  0  3  0  0  0  0  0  0
  160.6880  211.4990  154.5340 C   0  0  0  0  0  0  0  0  0  0  0  0
  161.4130  210.5540  152.5590 N   0  0  0  0  0  0  0  0  0  0  0  0
  159.0320  211.0930  152.7610 C   0  0  0  0  0  1  0  0  0  0  0  0
  160.4520  211.5450  153.0610 C   0  0  1  0  0  3  0  0  0  0  0  0
  162.1400  209.9430  153.5920 N   0  0  0  0  0  2  0  0  0  0  0  0
  160.0680  212.1740  155.3990 O   0  0  0  0  0  0  0  0  0  0  0  0
  161.7400  210.5440  154.8080 C   0  0  0  0  0  0  0  0  0  0  0  0
  161.9510  210.0010  155.9600 N   0  0  0  0  0  2  0  0  0  0  0  0
  161.4220  206.1230  154.0180 O   0  0  0  0  0  1  0  0  0  0  0  0
  161.2060  205.0780  153.1280 C   0  0  0  0  0  0  0  0  0  0  0  0
  160.8310  203.9590  153.5610 O   0  0  0  0  0  0  0  0  0  0  0  0
  162.3440  204.5390  146.6080 N   0  0  0  0  0  0  0  0  0  0  0  0
  163.5550  205.1150  146.3960 O   0  0  0  0  0  1  0  0  0  0  0  0
  162.2310  203.4620  145.6350 C   0  0  0  0  0  2  0  0  0  0  0  0
  160.3590  202.0350  145.2600 O   0  0  0  0  0  0  0  0  0  0  0  0
  161.2060  202.4760  146.0790 C   0  0  0  0  0  0  0  0  0  0  0  0
  161.2060  202.0180  147.3890 O   0  0  0  0  0  1  0  0  0  0  0  0
  1 12  1  1  0  0  0
  1  2  1  0  0  0  0
  2 11  2  0  0  0  0
  3 27  1  0  0  0  0
  6 10  1  0  0  0  0
  6  5  1  1  0  0  0
  7  4  1  0  0  0  0
  7 29  1  1  0  0  0
  7  6  1  0  0  0  0
  8  3  2  0  0  0  0
  9  5  1  6  0  0  0
  9  2  1  0  0  0  0
  9  8  1  0  0  0  0
 10  4  1  6  0  0  0
 10  1  1  0  0  0  0
 11  3  1  0  0  0  0
 12 17  1  0  0  0  0
 13 15  2  0  0  0  0
 14 19  1  0  0  0  0
 15 14  1  0  0  0  0
 16 13  1  0  0  0  0
 16 12  2  0  0  0  0
 17 14  2  0  0  0  0
 18 24  1  0  0  0  0
 18 23  2  0  0  0  0
 19 21  1  0  0  0  0
 19 22  1  0  0  0  0
 21 20  1  1  0  0  0
 21 18  1  0  0  0  0
 22 24  1  0  0  0  0
 24 25  2  0  0  0  0
 27 28  2  0  0  0  0
 27 26  1  0  0  0  0
 30 29  1  0  0  0  0
 31 33  1  0  0  0  0
 31 29  1  0  0  0  0
 32 33  2  0  0  0  0
 33 34  1  0  0  0  0
M  END
>  <MODEL>
7

>  <REMARK>
 VINA RESULT:      -6.2      2.339      8.817
  Name = 
  6 active torsions:
  status: ('A' for Active; 'I' for Inactive)
    1  A    between atoms: N_3  and  C_5
    2  A    between atoms: N_3  and  C_24
    3  A    between atoms: C_5  and  C_27
    4  A    between atoms: C_6  and  C_7
    5  A    between atoms: N_8  and  C_17
    6  A    between atoms: C_12  and  C_14
                            x       y       z     vdW  Elec       q    Type
                         _______ _______ _______ _____ _____    ______ ____

>  <TORSDO>
F 6

$$$$
=
 OpenBabel11042422103D

 34 38  0  0  1  0  0  0  0  0999 V2000
  161.9230  207.6650  148.9980 C   0  0  1  0  0  3  0  0  0  0  0  0
  161.8100  206.9210  150.2920 C   0  0  0  0  0  0  0  0  0  0  0  0
  161.5160  206.3720  152.3420 C   0  0  0  0  0  0  0  0  0  0  0  0
  161.6220  206.7380  146.8790 C   0  0  0  0  0  2  0  0  0  0  0  0
  160.2060  205.3090  149.5520 C   0  0  0  0  0  2  0  0  0  0  0  0
  160.2340  205.9680  148.1520 C   0  0  2  0  0  3  0  0  0  0  0  0
  161.0500  205.3320  147.0340 C   0  0  2  0  0  3  0  0  0  0  0  0
  161.3040  205.2490  151.7360 N   0  0  0  0  0  0  0  0  0  0  0  0
  161.5030  205.4850  150.3150 C   0  0  2  0  0  3  0  0  0  0  0  0
  160.8840  207.2900  148.0140 N   0  0  1  0  0  0  0  0  0  0  0  0
  161.8220  207.4510  151.4700 N   0  0  0  0  0  0  0  0  0  0  0  0
  161.9540  209.1520  149.1820 C   0  0  0  0  0  0  0  0  0  0  0  0
  162.1240  211.0680  150.6540 C   0  0  0  0  0  3  0  0  0  0  0  0
  161.7930  211.4040  148.2710 C   0  0  0  0  0  0  0  0  0  0  0  0
  161.9610  211.9250  149.5620 C   0  0  0  0  0  3  0  0  0  0  0  0
  162.1170  209.6830  150.4650 C   0  0  0  0  0  3  0  0  0  0  0  0
  161.7910  210.0140  148.0890 C   0  0  0  0  0  3  0  0  0  0  0  0
  160.7590  213.4030  145.3270 C   0  0  0  0  0  0  0  0  0  0  0  0
  161.6220  212.2870  147.1520 N   0  0  0  0  0  0  0  0  0  0  0  0
  159.4570  213.4040  147.4140 C   0  0  0  0  0  1  0  0  0  0  0  0
  160.3390  212.5750  146.4950 C   0  0  1  0  0  3  0  0  0  0  0  0
  162.7060  212.8860  146.4930 N   0  0  0  0  0  2  0  0  0  0  0  0
  159.9870  213.9110  144.4710 O   0  0  0  0  0  0  0  0  0  0  0  0
  162.2000  213.5380  145.3440 C   0  0  0  0  0  0  0  0  0  0  0  0
  162.8550  214.4530  144.7120 N   0  0  0  0  0  2  0  0  0  0  0  0
  161.4980  207.7840  154.3740 O   0  0  0  0  0  0  0  0  0  0  0  0
  161.4040  206.5250  153.7950 C   0  0  0  0  0  0  0  0  0  0  0  0
  161.2230  205.5160  154.5240 O   0  0  0  0  0  1  0  0  0  0  0  0
  162.0730  204.4140  147.5350 N   0  0  0  0  0  0  0  0  0  0  0  0
  163.2820  204.9410  147.2160 O   0  0  0  0  0  1  0  0  0  0  0  0
  161.9520  203.1820  146.7680 C   0  0  0  0  0  2  0  0  0  0  0  0
  160.8180  201.1000  147.0120 O   0  0  0  0  0  0  0  0  0  0  0  0
  161.2350  202.1490  147.5660 C   0  0  0  0  0  0  0  0  0  0  0  0
  161.0540  202.3290  148.9310 O   0  0  0  0  0  1  0  0  0  0  0  0
  1 12  1  1  0  0  0
  1  2  1  0  0  0  0
  2  9  1  0  0  0  0
  2 11  2  0  0  0  0
  3 27  1  0  0  0  0
  4  7  1  0  0  0  0
  6  5  1  1  0  0  0
  7 29  1  1  0  0  0
  7  6  1  0  0  0  0
  8  3  2  0  0  0  0
  9  5  1  6  0  0  0
  9  8  1  0  0  0  0
 10  4  1  6  0  0  0
 10  6  1  0  0  0  0
 10  1  1  0  0  0  0
 11  3  1  0  0  0  0
 12 16  1  0  0  0  0
 14 15  2  0  0  0  0
 15 13  1  0  0  0  0
 16 13  2  0  0  0  0
 17 14  1  0  0  0  0
 17 12  2  0  0  0  0
 18 24  1  0  0  0  0
 18 21  1  0  0  0  0
 19 14  1  0  0  0  0
 21 19  1  0  0  0  0
 21 20  1  1  0  0  0
 22 19  1  0  0  0  0
 23 18  2  0  0  0  0
 24 22  1  0  0  0  0
 25 24  2  0  0  0  0
 27 26  2  0  0  0  0
 27 28  1  0  0  0  0
 30 29  1  0  0  0  0
 31 29  1  0  0  0  0
 31 33  1  0  0  0  0
 32 33  2  0  0  0  0
 33 34  1  0  0  0  0
M  END
>  <MODEL>
8

>  <REMARK>
 VINA RESULT:      -6.0      3.145      8.228
  Name = 
  6 active torsions:
  status: ('A' for Active; 'I' for Inactive)
    1  A    between atoms: N_3  and  C_5
    2  A    between atoms: N_3  and  C_24
    3  A    between atoms: C_5  and  C_27
    4  A    between atoms: C_6  and  C_7
    5  A    between atoms: N_8  and  C_17
    6  A    between atoms: C_12  and  C_14
                            x       y       z     vdW  Elec       q    Type
                         _______ _______ _______ _____ _____    ______ ____

>  <TORSDO>
F 6

$$$$
