=
 OpenBabel11042421583D

 46 50  0  0  1  0  0  0  0  0999 V2000
  162.3290  208.0040  150.6970 C   0  0  0  0  0  0  0  0  0  0  0  0
  161.9450  209.0790  151.5160 C   0  0  0  0  0  3  0  0  0  0  0  0
  161.6530  210.2940  150.9040 C   0  0  0  0  0  0  0  0  0  0  0  0
  162.1140  209.4050  148.7480 N   0  0  0  0  0  0  0  0  0  0  0  0
  161.0750  212.5370  150.3110 C   0  0  0  0  0  2  0  0  0  0  0  0
  161.2590  211.5910  151.5250 C   0  0  1  0  0  3  0  0  0  0  0  0
  162.4050  208.1890  149.3010 C   0  0  0  0  0  3  0  0  0  0  0  0
  161.7490  210.4360  149.5530 C   0  0  0  0  0  0  0  0  0  0  0  0
  161.4000  211.7370  149.1260 N   0  0  0  0  0  0  0  0  0  0  0  0
  159.4490  213.7820  145.2360 C   0  0  2  0  0  3  0  0  0  0  0  0
  160.5550  212.7280  147.0490 C   0  0  0  0  0  0  0  0  0  0  0  0
  158.3920  213.3130  146.2390 C   0  0  1  0  0  3  0  0  0  0  0  0
  159.1090  213.2860  143.8410 C   0  0  0  0  0  1  0  0  0  0  0  0
  159.1460  212.8550  147.4810 C   0  0  0  0  0  2  0  0  0  0  0  0
  161.5420  212.2000  147.7760 C   0  0  0  0  0  3  0  0  0  0  0  0
  160.7840  213.2080  145.6710 C   0  0  0  0  0  2  0  0  0  0  0  0
  157.4010  214.4310  146.5900 C   0  0  0  0  0  3  0  0  0  0  0  0
  156.8620  214.2270  147.9960 C   0  0  0  0  0  1  0  0  0  0  0  0
  156.2200  214.4380  145.6360 C   0  0  0  0  0  1  0  0  0  0  0  0
  158.8140  213.0540  151.0880 O   0  0  0  0  0  0  0  0  0  0  0  0
  160.0300  211.4700  152.3150 N   0  0  0  0  0  0  0  0  0  0  0  0
  158.8780  212.3130  152.1080 C   0  0  0  0  0  0  0  0  0  0  0  0
  157.7680  212.3380  153.1260 C   0  0  2  0  0  3  0  0  0  0  0  0
  157.1200  213.6480  153.1390 C   0  0  0  0  0  2  0  0  0  0  0  0
  158.0660  213.2950  154.2100 N   0  0  0  0  0  0  0  0  0  0  0  0
  157.2720  212.8720  155.3490 C   0  0  0  0  0  2  0  0  0  0  0  0
  155.9600  213.6400  155.3840 C   0  0  0  0  0  2  0  0  0  0  0  0
  154.1880  214.2860  156.8540 O   0  0  0  0  0  1  0  0  0  0  0  0
  155.5410  213.9390  156.8120 C   0  0  0  0  0  2  0  0  0  0  0  0
  160.9810  211.0260  154.5190 C   0  0  0  0  0  1  0  0  0  0  0  0
  160.0650  210.5210  153.4180 C   0  0  0  0  0  2  0  0  0  0  0  0
  162.6410  206.6700  151.2900 C   0  0  0  0  0  2  0  0  0  0  0  0
  161.4490  205.7630  151.2210 C   0  0  0  0  0  0  0  0  0  0  0  0
  160.5140  205.9330  152.0510 O   0  0  0  0  0  0  0  0  0  0  0  0
  161.3850  204.1690  147.7980 C   0  0  0  0  0  3  0  0  0  0  0  0
  161.3560  204.7210  150.1650 C   0  0  0  0  0  0  0  0  0  0  0  0
  161.5030  205.1040  148.8240 C   0  0  0  0  0  3  0  0  0  0  0  0
  161.1100  202.8230  148.0850 C   0  0  0  0  0  0  0  0  0  0  0  0
  160.9480  202.4320  149.4230 C   0  0  0  0  0  0  0  0  0  0  0  0
  160.9080  202.9500  151.7780 O   0  0  0  0  0  1  0  0  0  0  0  0
  160.5750  200.7570  149.8030 Cl  0  0  0  0  0  0  0  0  0  0  0  0
  161.0720  203.3700  150.4610 C   0  0  0  0  0  0  0  0  0  0  0  0
  160.9780  201.8580  147.0710 O   0  0  0  0  0  0  0  0  0  0  0  0
  160.6230  202.0970  145.7360 C   0  0  0  0  0  0  0  0  0  0  0  0
  159.9210  201.0300  144.9720 C   0  0  0  0  0  1  0  0  0  0  0  0
  160.8930  203.1870  145.1600 O   0  0  0  0  0  0  0  0  0  0  0  0
  1 32  1  0  0  0  0
  1  2  1  0  0  0  0
  3  2  2  0  0  0  0
  3  6  1  0  0  0  0
  4  7  1  0  0  0  0
  4  8  2  0  0  0  0
  5  6  1  0  0  0  0
  6 21  1  6  0  0  0
  7  1  2  0  0  0  0
  8  3  1  0  0  0  0
  9  8  1  0  0  0  0
  9  5  1  0  0  0  0
 10 13  1  6  0  0  0
 10 16  1  0  0  0  0
 10 12  1  0  0  0  0
 11 14  1  0  0  0  0
 11 15  2  0  0  0  0
 12 17  1  1  0  0  0
 12 14  1  0  0  0  0
 15  9  1  0  0  0  0
 16 11  1  0  0  0  0
 17 18  1  0  0  0  0
 19 17  1  0  0  0  0
 20 22  2  0  0  0  0
 21 31  1  0  0  0  0
 22 21  1  0  0  0  0
 23 22  1  6  0  0  0
 23 24  1  0  0  0  0
 23 25  1  0  0  0  0
 24 25  1  0  0  0  0
 25 26  1  0  0  0  0
 26 27  1  0  0  0  0
 27 29  1  0  0  0  0
 29 28  1  0  0  0  0
 31 30  1  0  0  0  0
 33 32  1  0  0  0  0
 33 34  2  0  0  0  0
 35 38  2  0  0  0  0
 35 37  1  0  0  0  0
 36 42  1  0  0  0  0
 36 33  1  0  0  0  0
 37 36  2  0  0  0  0
 38 39  1  0  0  0  0
 39 41  1  0  0  0  0
 39 42  2  0  0  0  0
 42 40  1  0  0  0  0
 43 38  1  0  0  0  0
 44 43  1  0  0  0  0
 45 44  1  0  0  0  0
 46 44  2  0  0  0  0
M  END
>  <MODEL>
1

>  <REMARK>
 VINA RESULT:      -7.3      0.000      0.000
  Name = 
  13 active torsions:
  status: ('A' for Active; 'I' for Inactive)
    1  A    between atoms: C_1  and  C_3
    2  A    between atoms: C_1  and  C_45
    3  A    between atoms: C_4  and  O_38
    4  A    between atoms: C_6  and  C_15
    5  A    between atoms: C_6  and  C_18
    6  A    between atoms: C_8  and  C_45
    7  A    between atoms: C_10  and  O_38
    8  A    between atoms: C_15  and  N_33
    9  A    between atoms: C_16  and  C_31
   10  A    between atoms: C_22  and  C_42
   11  A    between atoms: N_27  and  C_30
   12  A    between atoms: N_27  and  C_44
   13  A    between atoms: C_41  and  N_46
                            x       y       z     vdW  Elec       q    Type
                         _______ _______ _______ _____ _____    ______ ____

>  <TORSDO>
F 13

$$$$
=
 OpenBabel11042421583D

 46 50  0  0  1  0  0  0  0  0999 V2000
  161.1910  208.2720  153.1720 C   0  0  0  0  0  0  0  0  0  0  0  0
  160.8540  207.5470  152.0170 C   0  0  0  0  0  3  0  0  0  0  0  0
  161.2260  208.0740  150.7840 C   0  0  0  0  0  0  0  0  0  0  0  0
  162.2230  209.9720  151.8120 N   0  0  0  0  0  0  0  0  0  0  0  0
  161.6420  208.5810  148.4850 C   0  0  0  0  0  2  0  0  0  0  0  0
  160.9700  207.5400  149.4160 C   0  0  1  0  0  3  0  0  0  0  0  0
  161.8850  209.4920  153.0460 C   0  0  0  0  0  3  0  0  0  0  0  0
  161.8860  209.2620  150.7030 C   0  0  0  0  0  0  0  0  0  0  0  0
  162.1860  209.6180  149.3690 N   0  0  0  0  0  0  0  0  0  0  0  0
  161.7490  213.8070  147.0500 C   0  0  2  0  0  3  0  0  0  0  0  0
  162.1440  211.7780  148.2100 C   0  0  0  0  0  0  0  0  0  0  0  0
  160.6760  212.7970  146.6340 C   0  0  1  0  0  3  0  0  0  0  0  0
  162.4120  214.4080  145.8230 C   0  0  0  0  0  1  0  0  0  0  0  0
  160.8260  211.5990  147.5640 C   0  0  0  0  0  2  0  0  0  0  0  0
  162.7530  210.8770  148.9850 C   0  0  0  0  0  3  0  0  0  0  0  0
  162.7830  213.0680  147.8780 C   0  0  0  0  0  2  0  0  0  0  0  0
  159.2640  213.3880  146.7360 C   0  0  0  0  0  3  0  0  0  0  0  0
  158.5060  212.7310  147.8770 C   0  0  0  0  0  1  0  0  0  0  0  0
  158.4770  213.1560  145.4600 C   0  0  0  0  0  1  0  0  0  0  0  0
  161.5880  206.2870  146.8940 O   0  0  0  0  0  0  0  0  0  0  0  0
  161.5380  206.2000  149.2360 N   0  0  0  0  0  0  0  0  0  0  0  0
  161.7200  205.5930  147.9400 C   0  0  0  0  0  0  0  0  0  0  0  0
  162.0320  204.1230  147.8320 C   0  0  2  0  0  3  0  0  0  0  0  0
  161.5690  203.5980  146.5490 C   0  0  0  0  0  2  0  0  0  0  0  0
  160.7930  203.3230  147.7700 N   0  0  0  0  0  0  0  0  0  0  0  0
  161.1560  201.9860  148.2050 C   0  0  0  0  0  2  0  0  0  0  0  0
  160.6930  200.9610  147.1810 C   0  0  0  0  0  2  0  0  0  0  0  0
  161.5300  199.1690  145.8370 O   0  0  0  0  0  1  0  0  0  0  0  0
  161.6890  199.8210  147.0630 C   0  0  0  0  0  2  0  0  0  0  0  0
  160.5930  204.6210  150.8400 C   0  0  0  0  0  1  0  0  0  0  0  0
  161.8060  205.4460  150.4520 C   0  0  0  0  0  2  0  0  0  0  0  0
  160.8330  207.7550  154.5260 C   0  0  0  0  0  2  0  0  0  0  0  0
  161.1010  208.7870  155.5800 C   0  0  0  0  0  0  0  0  0  0  0  0
  162.1310  208.6620  156.2980 O   0  0  0  0  0  0  0  0  0  0  0  0
  157.9390  210.8520  155.6070 C   0  0  0  0  0  3  0  0  0  0  0  0
  160.1940  209.9540  155.7370 C   0  0  0  0  0  0  0  0  0  0  0  0
  158.8220  209.7790  155.5090 C   0  0  0  0  0  3  0  0  0  0  0  0
  158.4060  212.1350  155.9290 C   0  0  0  0  0  0  0  0  0  0  0  0
  159.7790  212.3240  156.1460 C   0  0  0  0  0  0  0  0  0  0  0  0
  162.0290  211.4650  156.2780 O   0  0  0  0  0  1  0  0  0  0  0  0
  160.3900  213.9290  156.5230 Cl  0  0  0  0  0  0  0  0  0  0  0  0
  160.6730  211.2440  156.0550 C   0  0  0  0  0  0  0  0  0  0  0  0
  157.5410  213.2390  156.0280 O   0  0  0  0  0  0  0  0  0  0  0  0
  156.6590  213.6970  155.0380 C   0  0  0  0  0  0  0  0  0  0  0  0
  157.2140  214.3590  153.8270 C   0  0  0  0  0  1  0  0  0  0  0  0
  155.4090  213.5720  155.1500 O   0  0  0  0  0  0  0  0  0  0  0  0
  1 32  1  0  0  0  0
  2  1  2  0  0  0  0
  3  2  1  0  0  0  0
  4  7  2  0  0  0  0
  5  9  1  0  0  0  0
  5  6  1  0  0  0  0
  6 21  1  1  0  0  0
  6  3  1  0  0  0  0
  7  1  1  0  0  0  0
  8  3  2  0  0  0  0
  8  4  1  0  0  0  0
  9  8  1  0  0  0  0
 10 13  1  6  0  0  0
 10 16  1  0  0  0  0
 11 15  2  0  0  0  0
 12 17  1  1  0  0  0
 12 10  1  0  0  0  0
 12 14  1  0  0  0  0
 14 11  1  0  0  0  0
 15  9  1  0  0  0  0
 16 11  1  0  0  0  0
 17 18  1  0  0  0  0
 19 17  1  0  0  0  0
 20 22  2  0  0  0  0
 21 31  1  0  0  0  0
 22 21  1  0  0  0  0
 23 22  1  6  0  0  0
 24 25  1  0  0  0  0
 24 23  1  0  0  0  0
 25 23  1  0  0  0  0
 25 26  1  0  0  0  0
 27 26  1  0  0  0  0
 28 29  1  0  0  0  0
 29 27  1  0  0  0  0
 31 30  1  0  0  0  0
 32 33  1  0  0  0  0
 33 36  1  0  0  0  0
 33 34  2  0  0  0  0
 35 38  1  0  0  0  0
 36 42  2  0  0  0  0
 37 35  2  0  0  0  0
 37 36  1  0  0  0  0
 38 43  1  0  0  0  0
 38 39  2  0  0  0  0
 39 41  1  0  0  0  0
 42 39  1  0  0  0  0
 42 40  1  0  0  0  0
 44 46  2  0  0  0  0
 44 43  1  0  0  0  0
 45 44  1  0  0  0  0
M  END
>  <MODEL>
2

>  <REMARK>
 VINA RESULT:      -6.9      3.213      9.346
  Name = 
  13 active torsions:
  status: ('A' for Active; 'I' for Inactive)
    1  A    between atoms: C_1  and  C_3
    2  A    between atoms: C_1  and  C_45
    3  A    between atoms: C_4  and  O_38
    4  A    between atoms: C_6  and  C_15
    5  A    between atoms: C_6  and  C_18
    6  A    between atoms: C_8  and  C_45
    7  A    between atoms: C_10  and  O_38
    8  A    between atoms: C_15  and  N_33
    9  A    between atoms: C_16  and  C_31
   10  A    between atoms: C_22  and  C_42
   11  A    between atoms: N_27  and  C_30
   12  A    between atoms: N_27  and  C_44
   13  A    between atoms: C_41  and  N_46
                            x       y       z     vdW  Elec       q    Type
                         _______ _______ _______ _____ _____    ______ ____

>  <TORSDO>
F 13

$$$$
=
 OpenBabel11042421583D

 46 50  0  0  1  0  0  0  0  0999 V2000
  162.0650  210.3060  149.9230 C   0  0  0  0  0  0  0  0  0  0  0  0
  162.1990  208.9110  150.0160 C   0  0  0  0  0  3  0  0  0  0  0  0
  161.9120  208.3090  151.2370 C   0  0  0  0  0  0  0  0  0  0  0  0
  161.3870  210.4030  152.2320 N   0  0  0  0  0  0  0  0  0  0  0  0
  161.5450  206.8600  153.1040 C   0  0  0  0  0  2  0  0  0  0  0  0
  162.0010  206.8710  151.6220 C   0  0  1  0  0  3  0  0  0  0  0  0
  161.6510  211.0400  151.0520 C   0  0  0  0  0  3  0  0  0  0  0  0
  161.5260  209.0540  152.3090 C   0  0  0  0  0  0  0  0  0  0  0  0
  161.2690  208.2590  153.4490 N   0  0  0  0  0  0  0  0  0  0  0  0
  158.6210  211.1580  156.2250 C   0  0  2  0  0  3  0  0  0  0  0  0
  160.0420  209.7100  154.9990 C   0  0  0  0  0  0  0  0  0  0  0  0
  158.4580  211.4700  154.7350 C   0  0  1  0  0  3  0  0  0  0  0  0
  158.9120  212.4300  157.0020 C   0  0  0  0  0  1  0  0  0  0  0  0
  159.2030  210.3770  153.9790 C   0  0  0  0  0  2  0  0  0  0  0  0
  160.9790  208.7930  154.7480 C   0  0  0  0  0  3  0  0  0  0  0  0
  159.7840  210.1940  156.3700 C   0  0  0  0  0  2  0  0  0  0  0  0
  156.9830  211.5080  154.3170 C   0  0  0  0  0  3  0  0  0  0  0  0
  156.5130  212.9480  154.1920 C   0  0  0  0  0  1  0  0  0  0  0  0
  156.1020  210.8200  155.3450 C   0  0  0  0  0  1  0  0  0  0  0  0
  161.7550  204.0040  151.8040 O   0  0  0  0  0  0  0  0  0  0  0  0
  161.1480  206.0250  150.7820 N   0  0  0  0  0  0  0  0  0  0  0  0
  161.1570  204.5840  150.8560 C   0  0  0  0  0  0  0  0  0  0  0  0
  160.4840  203.7700  149.7820 C   0  0  2  0  0  3  0  0  0  0  0  0
  160.6830  202.3430  150.0260 C   0  0  0  0  0  2  0  0  0  0  0  0
  161.4760  203.0200  148.9870 N   0  0  0  0  0  0  0  0  0  0  0  0
  160.8360  202.7300  147.7160 C   0  0  0  0  0  2  0  0  0  0  0  0
  161.6260  203.3570  146.5790 C   0  0  0  0  0  2  0  0  0  0  0  0
  160.4070  201.8580  145.1700 O   0  0  0  0  0  1  0  0  0  0  0  0
  160.9220  203.1550  145.2490 C   0  0  0  0  0  2  0  0  0  0  0  0
  160.9560  206.4730  148.3900 C   0  0  0  0  0  1  0  0  0  0  0  0
  160.3620  206.7110  149.7670 C   0  0  0  0  0  2  0  0  0  0  0  0
  162.3440  211.0110  148.6370 C   0  0  0  0  0  2  0  0  0  0  0  0
  161.3570  212.1180  148.4100 C   0  0  0  0  0  0  0  0  0  0  0  0
  160.9430  212.7690  149.4080 O   0  0  0  0  0  0  0  0  0  0  0  0
  159.1700  212.4140  145.3460 C   0  0  0  0  0  3  0  0  0  0  0  0
  160.9190  212.4650  147.0330 C   0  0  0  0  0  0  0  0  0  0  0  0
  159.6120  212.1430  146.6390 C   0  0  0  0  0  3  0  0  0  0  0  0
  160.0250  213.0110  144.4070 C   0  0  0  0  0  0  0  0  0  0  0  0
  161.3390  213.3250  144.7880 C   0  0  0  0  0  0  0  0  0  0  0  0
  163.0970  213.3840  146.4380 O   0  0  0  0  0  1  0  0  0  0  0  0
  162.4370  214.0460  143.6190 Cl  0  0  0  0  0  0  0  0  0  0  0  0
  161.7880  213.0590  146.0910 C   0  0  0  0  0  0  0  0  0  0  0  0
  159.6100  213.2900  143.0930 O   0  0  0  0  0  0  0  0  0  0  0  0
  159.6880  212.4220  141.9940 C   0  0  0  0  0  0  0  0  0  0  0  0
  158.8580  212.7040  140.7910 C   0  0  0  0  0  1  0  0  0  0  0  0
  160.4340  211.4050  142.0000 O   0  0  0  0  0  0  0  0  0  0  0  0
  1  2  2  0  0  0  0
  1  7  1  0  0  0  0
  2  3  1  0  0  0  0
  3  6  1  0  0  0  0
  3  8  2  0  0  0  0
  4  8  1  0  0  0  0
  5  9  1  0  0  0  0
  6 21  1  6  0  0  0
  6  5  1  0  0  0  0
  7  4  2  0  0  0  0
  8  9  1  0  0  0  0
  9 15  1  0  0  0  0
 10 16  1  0  0  0  0
 10 13  1  1  0  0  0
 11 16  1  0  0  0  0
 12 17  1  6  0  0  0
 12 10  1  0  0  0  0
 14 12  1  0  0  0  0
 14 11  1  0  0  0  0
 15 11  2  0  0  0  0
 17 19  1  0  0  0  0
 18 17  1  0  0  0  0
 21 22  1  0  0  0  0
 22 20  2  0  0  0  0
 23 24  1  0  0  0  0
 23 22  1  1  0  0  0
 25 23  1  0  0  0  0
 25 24  1  0  0  0  0
 26 25  1  0  0  0  0
 27 26  1  0  0  0  0
 28 29  1  0  0  0  0
 29 27  1  0  0  0  0
 30 31  1  0  0  0  0
 31 21  1  0  0  0  0
 32  1  1  0  0  0  0
 33 32  1  0  0  0  0
 33 34  2  0  0  0  0
 35 37  1  0  0  0  0
 36 33  1  0  0  0  0
 37 36  2  0  0  0  0
 38 39  1  0  0  0  0
 38 35  2  0  0  0  0
 39 42  2  0  0  0  0
 41 39  1  0  0  0  0
 42 40  1  0  0  0  0
 42 36  1  0  0  0  0
 43 38  1  0  0  0  0
 44 46  2  0  0  0  0
 44 43  1  0  0  0  0
 45 44  1  0  0  0  0
M  END
>  <MODEL>
3

>  <REMARK>
 VINA RESULT:      -6.7      3.518      9.638
  Name = 
  13 active torsions:
  status: ('A' for Active; 'I' for Inactive)
    1  A    between atoms: C_1  and  C_3
    2  A    between atoms: C_1  and  C_45
    3  A    between atoms: C_4  and  O_38
    4  A    between atoms: C_6  and  C_15
    5  A    between atoms: C_6  and  C_18
    6  A    between atoms: C_8  and  C_45
    7  A    between atoms: C_10  and  O_38
    8  A    between atoms: C_15  and  N_33
    9  A    between atoms: C_16  and  C_31
   10  A    between atoms: C_22  and  C_42
   11  A    between atoms: N_27  and  C_30
   12  A    between atoms: N_27  and  C_44
   13  A    between atoms: C_41  and  N_46
                            x       y       z     vdW  Elec       q    Type
                         _______ _______ _______ _____ _____    ______ ____

>  <TORSDO>
F 13

$$$$
=
 OpenBabel11042421583D

 46 50  0  0  1  0  0  0  0  0999 V2000
  162.1570  212.1520  148.2660 C   0  0  0  0  0  0  0  0  0  0  0  0
  162.3840  210.8380  148.7080 C   0  0  0  0  0  3  0  0  0  0  0  0
  161.9510  210.4950  149.9840 C   0  0  0  0  0  0  0  0  0  0  0  0
  161.1050  212.6830  150.3680 N   0  0  0  0  0  0  0  0  0  0  0  0
  161.4010  209.4670  152.0710 C   0  0  0  0  0  2  0  0  0  0  0  0
  162.0910  209.2000  150.7090 C   0  0  1  0  0  3  0  0  0  0  0  0
  161.5060  213.0670  149.1190 C   0  0  0  0  0  3  0  0  0  0  0  0
  161.3360  211.4100  150.7830 C   0  0  0  0  0  0  0  0  0  0  0  0
  160.9610  210.8650  152.0310 N   0  0  0  0  0  0  0  0  0  0  0  0
  159.4790  211.1040  156.5990 C   0  0  2  0  0  3  0  0  0  0  0  0
  160.1340  211.1520  154.3210 C   0  0  0  0  0  0  0  0  0  0  0  0
  159.6140  209.6610  156.1050 C   0  0  1  0  0  3  0  0  0  0  0  0
  158.1270  211.3100  157.2610 C   0  0  0  0  0  1  0  0  0  0  0  0
  160.2530  209.7340  154.7240 C   0  0  0  0  0  2  0  0  0  0  0  0
  160.4220  211.6380  153.1120 C   0  0  0  0  0  3  0  0  0  0  0  0
  159.6030  212.0170  155.3940 C   0  0  0  0  0  2  0  0  0  0  0  0
  160.4700  208.8100  157.0530 C   0  0  0  0  0  3  0  0  0  0  0  0
  161.9440  208.9960  156.7310 C   0  0  0  0  0  1  0  0  0  0  0  0
  160.1460  207.3340  156.9130 C   0  0  0  0  0  1  0  0  0  0  0  0
  160.7670  206.9310  151.8980 O   0  0  0  0  0  0  0  0  0  0  0  0
  161.4570  208.0940  149.9840 N   0  0  0  0  0  0  0  0  0  0  0  0
  160.9080  206.9350  150.6440 C   0  0  0  0  0  0  0  0  0  0  0  0
  160.5380  205.7150  149.8420 C   0  0  2  0  0  3  0  0  0  0  0  0
  160.3210  204.5720  150.7270 C   0  0  0  0  0  2  0  0  0  0  0  0
  161.5730  204.6700  149.9590 N   0  0  0  0  0  0  0  0  0  0  0  0
  161.4190  203.8180  148.7930 C   0  0  0  0  0  2  0  0  0  0  0  0
  160.7660  202.5030  149.1910 C   0  0  0  0  0  2  0  0  0  0  0  0
  160.7580  201.7100  146.9350 O   0  0  0  0  0  1  0  0  0  0  0  0
  161.1570  201.3900  148.2360 C   0  0  0  0  0  2  0  0  0  0  0  0
  162.6770  207.3390  148.0080 C   0  0  0  0  0  1  0  0  0  0  0  0
  161.5130  208.1620  148.5300 C   0  0  0  0  0  2  0  0  0  0  0  0
  162.5840  212.5810  146.9010 C   0  0  0  0  0  2  0  0  0  0  0  0
  161.3970  212.7820  146.0090 C   0  0  0  0  0  0  0  0  0  0  0  0
  160.2530  212.8590  146.5360 O   0  0  0  0  0  0  0  0  0  0  0  0
  163.0040  213.6060  142.6920 C   0  0  0  0  0  3  0  0  0  0  0  0
  161.5760  212.9350  144.5410 C   0  0  0  0  0  0  0  0  0  0  0  0
  162.8030  213.4090  144.0570 C   0  0  0  0  0  3  0  0  0  0  0  0
  161.9780  213.3390  141.7730 C   0  0  0  0  0  0  0  0  0  0  0  0
  160.7420  212.8770  142.2480 C   0  0  0  0  0  0  0  0  0  0  0  0
  159.2980  212.2110  144.0620 O   0  0  0  0  0  1  0  0  0  0  0  0
  159.4330  212.5640  141.1160 Cl  0  0  0  0  0  0  0  0  0  0  0  0
  160.5360  212.6720  143.6220 C   0  0  0  0  0  0  0  0  0  0  0  0
  162.1480  213.5340  140.3910 O   0  0  0  0  0  0  0  0  0  0  0  0
  162.7440  212.6380  139.4910 C   0  0  0  0  0  0  0  0  0  0  0  0
  164.0540  212.9910  138.8800 C   0  0  0  0  0  1  0  0  0  0  0  0
  162.1950  211.5460  139.1760 O   0  0  0  0  0  0  0  0  0  0  0  0
  1  2  2  0  0  0  0
  1  7  1  0  0  0  0
  2  3  1  0  0  0  0
  3  6  1  0  0  0  0
  3  8  2  0  0  0  0
  4  8  1  0  0  0  0
  6 21  1  6  0  0  0
  6  5  1  0  0  0  0
  7  4  2  0  0  0  0
  8  9  1  0  0  0  0
  9  5  1  0  0  0  0
  9 15  1  0  0  0  0
 10 13  1  6  0  0  0
 11 14  1  0  0  0  0
 11 16  1  0  0  0  0
 12 10  1  0  0  0  0
 12 17  1  1  0  0  0
 14 12  1  0  0  0  0
 15 11  2  0  0  0  0
 16 10  1  0  0  0  0
 18 17  1  0  0  0  0
 19 17  1  0  0  0  0
 21 22  1  0  0  0  0
 22 20  2  0  0  0  0
 23 25  1  0  0  0  0
 23 22  1  1  0  0  0
 23 24  1  0  0  0  0
 25 24  1  0  0  0  0
 26 27  1  0  0  0  0
 26 25  1  0  0  0  0
 28 29  1  0  0  0  0
 29 27  1  0  0  0  0
 30 31  1  0  0  0  0
 31 21  1  0  0  0  0
 32  1  1  0  0  0  0
 33 34  2  0  0  0  0
 33 32  1  0  0  0  0
 35 37  1  0  0  0  0
 36 33  1  0  0  0  0
 37 36  2  0  0  0  0
 38 39  1  0  0  0  0
 38 35  2  0  0  0  0
 39 42  2  0  0  0  0
 41 39  1  0  0  0  0
 42 40  1  0  0  0  0
 42 36  1  0  0  0  0
 43 38  1  0  0  0  0
 44 43  1  0  0  0  0
 45 44  1  0  0  0  0
 46 44  2  0  0  0  0
M  END
>  <MODEL>
4

>  <REMARK>
 VINA RESULT:      -6.6      4.093      9.969
  Name = 
  13 active torsions:
  status: ('A' for Active; 'I' for Inactive)
    1  A    between atoms: C_1  and  C_3
    2  A    between atoms: C_1  and  C_45
    3  A    between atoms: C_4  and  O_38
    4  A    between atoms: C_6  and  C_15
    5  A    between atoms: C_6  and  C_18
    6  A    between atoms: C_8  and  C_45
    7  A    between atoms: C_10  and  O_38
    8  A    between atoms: C_15  and  N_33
    9  A    between atoms: C_16  and  C_31
   10  A    between atoms: C_22  and  C_42
   11  A    between atoms: N_27  and  C_30
   12  A    between atoms: N_27  and  C_44
   13  A    between atoms: C_41  and  N_46
                            x       y       z     vdW  Elec       q    Type
                         _______ _______ _______ _____ _____    ______ ____

>  <TORSDO>
F 13

$$$$
=
 OpenBabel11042421583D

 46 50  0  0  1  0  0  0  0  0999 V2000
  161.9280  210.0290  150.8870 C   0  0  0  0  0  0  0  0  0  0  0  0
  161.2570  211.2240  151.1930 C   0  0  0  0  0  3  0  0  0  0  0  0
  161.0270  212.1260  150.1580 C   0  0  0  0  0  0  0  0  0  0  0  0
  162.0970  210.7050  148.5810 N   0  0  0  0  0  0  0  0  0  0  0  0
  160.4280  213.9490  148.7330 C   0  0  0  0  0  2  0  0  0  0  0  0
  160.3780  213.4670  150.2050 C   0  0  1  0  0  3  0  0  0  0  0  0
  162.3400  209.7840  149.5620 C   0  0  0  0  0  3  0  0  0  0  0  0
  161.4510  211.8590  148.8930 C   0  0  0  0  0  0  0  0  0  0  0  0
  161.1110  212.8880  147.9860 N   0  0  0  0  0  0  0  0  0  0  0  0
  160.0830  213.5380  143.3340 C   0  0  2  0  0  3  0  0  0  0  0  0
  160.7540  213.1520  145.5750 C   0  0  0  0  0  0  0  0  0  0  0  0
  158.8270  213.3300  144.1840 C   0  0  1  0  0  3  0  0  0  0  0  0
  160.0570  212.6240  142.1210 C   0  0  0  0  0  1  0  0  0  0  0  0
  159.2850  213.3160  145.6380 C   0  0  0  0  0  2  0  0  0  0  0  0
  161.5520  212.9300  146.6220 C   0  0  0  0  0  3  0  0  0  0  0  0
  161.2860  213.2060  144.1980 C   0  0  0  0  0  2  0  0  0  0  0  0
  157.7910  214.4380  143.9540 C   0  0  0  0  0  3  0  0  0  0  0  0
  156.6090  214.2480  144.8900 C   0  0  0  0  0  1  0  0  0  0  0  0
  157.2660  214.4130  142.5300 C   0  0  0  0  0  1  0  0  0  0  0  0
  159.4520  214.4530  152.7520 O   0  0  0  0  0  0  0  0  0  0  0  0
  159.0030  213.3940  150.7100 N   0  0  0  0  0  0  0  0  0  0  0  0
  158.6330  213.8090  152.0400 C   0  0  0  0  0  0  0  0  0  0  0  0
  157.2800  213.4440  152.5950 C   0  0  2  0  0  3  0  0  0  0  0  0
  156.8590  214.4250  153.5940 C   0  0  0  0  0  2  0  0  0  0  0  0
  157.3690  213.1150  154.0310 N   0  0  0  0  0  0  0  0  0  0  0  0
  156.2100  212.2910  154.3270 C   0  0  0  0  0  2  0  0  0  0  0  0
  156.5550  211.2720  155.4010 C   0  0  0  0  0  2  0  0  0  0  0  0
  158.7040  210.2300  155.5070 O   0  0  0  0  0  1  0  0  0  0  0  0
  158.0070  211.3980  155.8270 C   0  0  0  0  0  2  0  0  0  0  0  0
  157.2570  213.8090  149.0550 C   0  0  0  0  0  1  0  0  0  0  0  0
  158.0300  212.7590  149.8320 C   0  0  0  0  0  2  0  0  0  0  0  0
  162.1930  209.0130  151.9490 C   0  0  0  0  0  2  0  0  0  0  0  0
  161.1200  207.9660  151.9660 C   0  0  0  0  0  0  0  0  0  0  0  0
  160.0790  208.1810  152.6450 O   0  0  0  0  0  0  0  0  0  0  0  0
  161.2320  205.6680  148.9710 C   0  0  0  0  0  3  0  0  0  0  0  0
  161.2660  206.7260  151.1600 C   0  0  0  0  0  0  0  0  0  0  0  0
  161.1420  206.8090  149.7650 C   0  0  0  0  0  3  0  0  0  0  0  0
  161.4430  204.4080  149.5520 C   0  0  0  0  0  0  0  0  0  0  0  0
  161.5550  204.3120  150.9470 C   0  0  0  0  0  0  0  0  0  0  0  0
  161.5880  205.3320  153.1330 O   0  0  0  0  0  1  0  0  0  0  0  0
  161.7910  202.7390  151.6970 Cl  0  0  0  0  0  0  0  0  0  0  0  0
  161.4710  205.4600  151.7510 C   0  0  0  0  0  0  0  0  0  0  0  0
  161.5310  203.2370  148.7780 O   0  0  0  0  0  0  0  0  0  0  0  0
  160.7160  202.1010  148.8910 C   0  0  0  0  0  0  0  0  0  0  0  0
  161.2540  200.7810  148.4670 C   0  0  0  0  0  1  0  0  0  0  0  0
  159.5360  202.1700  149.3320 O   0  0  0  0  0  0  0  0  0  0  0  0
  1  2  1  0  0  0  0
  1 32  1  0  0  0  0
  3  6  1  0  0  0  0
  3  2  2  0  0  0  0
  4  8  2  0  0  0  0
  4  7  1  0  0  0  0
  5  6  1  0  0  0  0
  6 21  1  6  0  0  0
  7  1  2  0  0  0  0
  8  3  1  0  0  0  0
  9  5  1  0  0  0  0
  9  8  1  0  0  0  0
 10 13  1  6  0  0  0
 10 12  1  0  0  0  0
 10 16  1  0  0  0  0
 11 14  1  0  0  0  0
 11 15  2  0  0  0  0
 12 17  1  1  0  0  0
 12 14  1  0  0  0  0
 15  9  1  0  0  0  0
 16 11  1  0  0  0  0
 17 18  1  0  0  0  0
 19 17  1  0  0  0  0
 21 22  1  0  0  0  0
 22 20  2  0  0  0  0
 23 22  1  1  0  0  0
 23 24  1  0  0  0  0
 23 25  1  0  0  0  0
 24 25  1  0  0  0  0
 25 26  1  0  0  0  0
 26 27  1  0  0  0  0
 27 29  1  0  0  0  0
 28 29  1  0  0  0  0
 30 31  1  0  0  0  0
 31 21  1  0  0  0  0
 32 33  1  0  0  0  0
 33 34  2  0  0  0  0
 35 38  2  0  0  0  0
 35 37  1  0  0  0  0
 36 42  1  0  0  0  0
 36 33  1  0  0  0  0
 37 36  2  0  0  0  0
 38 39  1  0  0  0  0
 39 41  1  0  0  0  0
 39 42  2  0  0  0  0
 42 40  1  0  0  0  0
 43 44  1  0  0  0  0
 43 38  1  0  0  0  0
 44 46  2  0  0  0  0
 45 44  1  0  0  0  0
M  END
>  <MODEL>
5

>  <REMARK>
 VINA RESULT:      -6.5      2.000      2.760
  Name = 
  13 active torsions:
  status: ('A' for Active; 'I' for Inactive)
    1  A    between atoms: C_1  and  C_3
    2  A    between atoms: C_1  and  C_45
    3  A    between atoms: C_4  and  O_38
    4  A    between atoms: C_6  and  C_15
    5  A    between atoms: C_6  and  C_18
    6  A    between atoms: C_8  and  C_45
    7  A    between atoms: C_10  and  O_38
    8  A    between atoms: C_15  and  N_33
    9  A    between atoms: C_16  and  C_31
   10  A    between atoms: C_22  and  C_42
   11  A    between atoms: N_27  and  C_30
   12  A    between atoms: N_27  and  C_44
   13  A    between atoms: C_41  and  N_46
                            x       y       z     vdW  Elec       q    Type
                         _______ _______ _______ _____ _____    ______ ____

>  <TORSDO>
F 13

$$$$
=
 OpenBabel11042421583D

 46 50  0  0  1  0  0  0  0  0999 V2000
  161.3500  210.5810  151.7040 C   0  0  0  0  0  0  0  0  0  0  0  0
  160.6630  211.1820  150.6370 C   0  0  0  0  0  3  0  0  0  0  0  0
  159.8280  212.2590  150.9230 C   0  0  0  0  0  0  0  0  0  0  0  0
  160.3390  212.1360  153.2420 N   0  0  0  0  0  0  0  0  0  0  0  0
  158.3020  214.0990  150.9320 C   0  0  0  0  0  2  0  0  0  0  0  0
  158.9650  213.0510  150.0020 C   0  0  1  0  0  3  0  0  0  0  0  0
  161.1760  211.0800  153.0110 C   0  0  0  0  0  3  0  0  0  0  0  0
  159.6770  212.7040  152.2000 C   0  0  0  0  0  0  0  0  0  0  0  0
  158.8010  213.8100  152.2810 N   0  0  0  0  0  0  0  0  0  0  0  0
  156.2430  213.4380  156.3360 C   0  0  2  0  0  3  0  0  0  0  0  0
  157.5220  213.8010  154.3730 C   0  0  0  0  0  0  0  0  0  0  0  0
  155.8650  212.3670  155.3080 C   0  0  1  0  0  3  0  0  0  0  0  0
  154.9950  214.1260  156.8630 C   0  0  0  0  0  1  0  0  0  0  0  0
  156.8630  212.4940  154.1640 C   0  0  0  0  0  2  0  0  0  0  0  0
  158.3570  214.3910  153.5150 C   0  0  0  0  0  3  0  0  0  0  0  0
  157.1300  214.4530  155.6390 C   0  0  0  0  0  2  0  0  0  0  0  0
  155.9080  210.9570  155.9110 C   0  0  0  0  0  3  0  0  0  0  0  0
  157.3500  210.5050  156.0750 C   0  0  0  0  0  1  0  0  0  0  0  0
  155.2050  209.9540  155.0140 C   0  0  0  0  0  1  0  0  0  0  0  0
  158.0090  213.6700  147.3530 O   0  0  0  0  0  0  0  0  0  0  0  0
  159.7410  213.6850  148.9320 N   0  0  0  0  0  0  0  0  0  0  0  0
  159.2320  213.8660  147.5940 C   0  0  0  0  0  0  0  0  0  0  0  0
  160.1660  214.2530  146.4770 C   0  0  2  0  0  3  0  0  0  0  0  0
  159.4280  214.3950  145.2240 C   0  0  0  0  0  2  0  0  0  0  0  0
  160.2390  213.1890  145.4560 N   0  0  0  0  0  0  0  0  0  0  0  0
  161.4960  213.3880  144.7580 C   0  0  0  0  0  2  0  0  0  0  0  0
  161.2990  213.1930  143.2630 C   0  0  0  0  0  2  0  0  0  0  0  0
  160.4850  211.0580  142.5570 O   0  0  0  0  0  1  0  0  0  0  0  0
  160.0840  212.3270  142.9820 C   0  0  0  0  0  2  0  0  0  0  0  0
  162.0750  213.2330  148.3760 C   0  0  0  0  0  1  0  0  0  0  0  0
  161.1210  214.0230  149.2520 C   0  0  0  0  0  2  0  0  0  0  0  0
  162.2720  209.4320  151.4630 C   0  0  0  0  0  2  0  0  0  0  0  0
  161.5520  208.1270  151.6230 C   0  0  0  0  0  0  0  0  0  0  0  0
  160.9740  207.8880  152.7190 O   0  0  0  0  0  0  0  0  0  0  0  0
  161.4890  206.7850  148.0930 C   0  0  0  0  0  3  0  0  0  0  0  0
  161.4830  207.1610  150.4950 C   0  0  0  0  0  0  0  0  0  0  0  0
  161.5870  207.6470  149.1830 C   0  0  0  0  0  3  0  0  0  0  0  0
  161.2790  205.4110  148.2850 C   0  0  0  0  0  0  0  0  0  0  0  0
  161.1610  204.9170  149.5920 C   0  0  0  0  0  0  0  0  0  0  0  0
  161.1440  205.2590  151.9800 O   0  0  0  0  0  1  0  0  0  0  0  0
  160.8680  203.2030  149.8540 Cl  0  0  0  0  0  0  0  0  0  0  0  0
  161.2640  205.7810  150.6950 C   0  0  0  0  0  0  0  0  0  0  0  0
  161.1690  204.5170  147.2050 O   0  0  0  0  0  0  0  0  0  0  0  0
  161.6080  204.7420  145.8910 C   0  0  0  0  0  0  0  0  0  0  0  0
  163.0690  204.7650  145.6110 C   0  0  0  0  0  1  0  0  0  0  0  0
  160.7980  204.9350  144.9430 O   0  0  0  0  0  0  0  0  0  0  0  0
  1  7  1  0  0  0  0
  2  3  1  0  0  0  0
  2  1  2  0  0  0  0
  3  8  2  0  0  0  0
  5  9  1  0  0  0  0
  6 21  1  6  0  0  0
  6  3  1  0  0  0  0
  6  5  1  0  0  0  0
  7  4  2  0  0  0  0
  8  9  1  0  0  0  0
  8  4  1  0  0  0  0
  9 15  1  0  0  0  0
 10 13  1  6  0  0  0
 11 16  1  0  0  0  0
 12 17  1  1  0  0  0
 12 10  1  0  0  0  0
 14 11  1  0  0  0  0
 14 12  1  0  0  0  0
 15 11  2  0  0  0  0
 16 10  1  0  0  0  0
 17 18  1  0  0  0  0
 19 17  1  0  0  0  0
 20 22  2  0  0  0  0
 21 31  1  0  0  0  0
 22 21  1  0  0  0  0
 23 22  1  1  0  0  0
 24 25  1  0  0  0  0
 24 23  1  0  0  0  0
 25 23  1  0  0  0  0
 26 25  1  0  0  0  0
 27 26  1  0  0  0  0
 28 29  1  0  0  0  0
 29 27  1  0  0  0  0
 30 31  1  0  0  0  0
 32 33  1  0  0  0  0
 32  1  1  0  0  0  0
 33 34  2  0  0  0  0
 35 38  2  0  0  0  0
 35 37  1  0  0  0  0
 36 42  1  0  0  0  0
 36 33  1  0  0  0  0
 37 36  2  0  0  0  0
 38 39  1  0  0  0  0
 39 41  1  0  0  0  0
 39 42  2  0  0  0  0
 42 40  1  0  0  0  0
 43 38  1  0  0  0  0
 44 43  1  0  0  0  0
 45 44  1  0  0  0  0
 46 44  2  0  0  0  0
M  END
>  <MODEL>
6

>  <REMARK>
 VINA RESULT:      -6.3      2.466      7.115
  Name = 
  13 active torsions:
  status: ('A' for Active; 'I' for Inactive)
    1  A    between atoms: C_1  and  C_3
    2  A    between atoms: C_1  and  C_45
    3  A    between atoms: C_4  and  O_38
    4  A    between atoms: C_6  and  C_15
    5  A    between atoms: C_6  and  C_18
    6  A    between atoms: C_8  and  C_45
    7  A    between atoms: C_10  and  O_38
    8  A    between atoms: C_15  and  N_33
    9  A    between atoms: C_16  and  C_31
   10  A    between atoms: C_22  and  C_42
   11  A    between atoms: N_27  and  C_30
   12  A    between atoms: N_27  and  C_44
   13  A    between atoms: C_41  and  N_46
                            x       y       z     vdW  Elec       q    Type
                         _______ _______ _______ _____ _____    ______ ____

>  <TORSDO>
F 13

$$$$
=
 OpenBabel11042421583D

 46 50  0  0  1  0  0  0  0  0999 V2000
  162.3850  207.7900  148.6920 C   0  0  0  0  0  0  0  0  0  0  0  0
  161.8720  209.0090  148.2180 C   0  0  0  0  0  3  0  0  0  0  0  0
  161.6220  210.0150  149.1460 C   0  0  0  0  0  0  0  0  0  0  0  0
  162.3580  208.6450  150.9440 N   0  0  0  0  0  0  0  0  0  0  0  0
  161.0360  211.9970  150.3490 C   0  0  0  0  0  2  0  0  0  0  0  0
  161.0530  211.3760  148.9280 C   0  0  1  0  0  3  0  0  0  0  0  0
  162.6270  207.6280  150.0710 C   0  0  0  0  0  3  0  0  0  0  0  0
  161.8570  209.8170  150.4720 C   0  0  0  0  0  0  0  0  0  0  0  0
  161.5530  210.9580  151.2470 N   0  0  0  0  0  0  0  0  0  0  0  0
  159.3500  211.9770  155.3980 C   0  0  2  0  0  3  0  0  0  0  0  0
  160.5910  211.4530  153.4470 C   0  0  0  0  0  0  0  0  0  0  0  0
  158.6630  212.6350  154.1970 C   0  0  1  0  0  3  0  0  0  0  0  0
  159.5870  213.0000  156.4950 C   0  0  0  0  0  1  0  0  0  0  0  0
  159.3510  212.0890  152.9520 C   0  0  0  0  0  2  0  0  0  0  0  0
  161.5780  210.9830  152.6800 C   0  0  0  0  0  3  0  0  0  0  0  0
  160.6790  211.4210  154.9220 C   0  0  0  0  0  2  0  0  0  0  0  0
  157.1600  212.3320  154.1620 C   0  0  0  0  0  3  0  0  0  0  0  0
  156.3680  213.5820  154.5070 C   0  0  0  0  0  1  0  0  0  0  0  0
  156.7920  211.2560  155.1680 C   0  0  0  0  0  1  0  0  0  0  0  0
  160.0660  212.8510  146.6560 O   0  0  0  0  0  0  0  0  0  0  0  0
  161.8630  212.1670  147.9970 N   0  0  0  0  0  0  0  0  0  0  0  0
  161.3170  212.7900  146.8160 C   0  0  0  0  0  0  0  0  0  0  0  0
  162.2380  213.3370  145.7570 C   0  0  2  0  0  3  0  0  0  0  0  0
  161.5990  214.4460  145.0510 C   0  0  0  0  0  2  0  0  0  0  0  0
  161.6780  213.1240  144.4080 N   0  0  0  0  0  0  0  0  0  0  0  0
  162.8050  213.1700  143.4930 C   0  0  0  0  0  2  0  0  0  0  0  0
  162.4170  212.5560  142.1570 C   0  0  0  0  0  2  0  0  0  0  0  0
  163.4010  214.0370  140.5580 O   0  0  0  0  0  1  0  0  0  0  0  0
  162.1830  213.6300  141.1110 C   0  0  0  0  0  2  0  0  0  0  0  0
  163.7710  213.6280  148.4270 C   0  0  0  0  0  1  0  0  0  0  0  0
  163.2950  212.1960  148.2560 C   0  0  0  0  0  2  0  0  0  0  0  0
  162.6890  206.6750  147.7460 C   0  0  0  0  0  2  0  0  0  0  0  0
  161.4290  206.0000  147.2940 C   0  0  0  0  0  0  0  0  0  0  0  0
  160.4470  206.7180  146.9610 O   0  0  0  0  0  0  0  0  0  0  0  0
  161.2090  202.5430  145.7890 C   0  0  0  0  0  3  0  0  0  0  0  0
  161.3620  204.5180  147.1980 C   0  0  0  0  0  0  0  0  0  0  0  0
  161.3110  203.9260  145.9280 C   0  0  0  0  0  3  0  0  0  0  0  0
  161.1480  201.7130  146.9190 C   0  0  0  0  0  0  0  0  0  0  0  0
  161.1850  202.2970  148.1940 C   0  0  0  0  0  0  0  0  0  0  0  0
  161.3300  204.2380  149.6190 O   0  0  0  0  0  1  0  0  0  0  0  0
  161.0800  201.2780  149.6230 Cl  0  0  0  0  0  0  0  0  0  0  0  0
  161.2940  203.6900  148.3400 C   0  0  0  0  0  0  0  0  0  0  0  0
  161.0370  200.3160  146.8110 O   0  0  0  0  0  0  0  0  0  0  0  0
  160.8540  199.5850  145.6280 C   0  0  0  0  0  0  0  0  0  0  0  0
  161.4810  198.2410  145.5050 C   0  0  0  0  0  1  0  0  0  0  0  0
  160.1820  200.0380  144.6620 O   0  0  0  0  0  0  0  0  0  0  0  0
  1  7  1  0  0  0  0
  2  1  2  0  0  0  0
  2  3  1  0  0  0  0
  3  8  2  0  0  0  0
  5  9  1  0  0  0  0
  6 21  1  6  0  0  0
  6  3  1  0  0  0  0
  6  5  1  0  0  0  0
  7  4  2  0  0  0  0
  8  4  1  0  0  0  0
  8  9  1  0  0  0  0
  9 15  1  0  0  0  0
 10 13  1  1  0  0  0
 11 16  1  0  0  0  0
 12 17  1  6  0  0  0
 12 10  1  0  0  0  0
 14 11  1  0  0  0  0
 14 12  1  0  0  0  0
 15 11  2  0  0  0  0
 16 10  1  0  0  0  0
 17 18  1  0  0  0  0
 17 19  1  0  0  0  0
 20 22  2  0  0  0  0
 21 31  1  0  0  0  0
 22 21  1  0  0  0  0
 23 22  1  1  0  0  0
 24 23  1  0  0  0  0
 25 24  1  0  0  0  0
 25 23  1  0  0  0  0
 26 25  1  0  0  0  0
 27 26  1  0  0  0  0
 28 29  1  0  0  0  0
 29 27  1  0  0  0  0
 31 30  1  0  0  0  0
 32  1  1  0  0  0  0
 33 32  1  0  0  0  0
 34 33  2  0  0  0  0
 35 37  2  0  0  0  0
 35 38  1  0  0  0  0
 36 33  1  0  0  0  0
 36 42  2  0  0  0  0
 37 36  1  0  0  0  0
 38 39  2  0  0  0  0
 39 42  1  0  0  0  0
 39 41  1  0  0  0  0
 42 40  1  0  0  0  0
 43 38  1  0  0  0  0
 44 43  1  0  0  0  0
 45 44  1  0  0  0  0
 46 44  2  0  0  0  0
M  END
>  <MODEL>
7

>  <REMARK>
 VINA RESULT:      -6.2      2.868      7.161
  Name = 
  13 active torsions:
  status: ('A' for Active; 'I' for Inactive)
    1  A    between atoms: C_1  and  C_3
    2  A    between atoms: C_1  and  C_45
    3  A    between atoms: C_4  and  O_38
    4  A    between atoms: C_6  and  C_15
    5  A    between atoms: C_6  and  C_18
    6  A    between atoms: C_8  and  C_45
    7  A    between atoms: C_10  and  O_38
    8  A    between atoms: C_15  and  N_33
    9  A    between atoms: C_16  and  C_31
   10  A    between atoms: C_22  and  C_42
   11  A    between atoms: N_27  and  C_30
   12  A    between atoms: N_27  and  C_44
   13  A    between atoms: C_41  and  N_46
                            x       y       z     vdW  Elec       q    Type
                         _______ _______ _______ _____ _____    ______ ____

>  <TORSDO>
F 13

$$$$
=
 OpenBabel11042421583D

 46 50  0  0  1  0  0  0  0  0999 V2000
  161.9600  209.8210  148.9360 C   0  0  0  0  0  0  0  0  0  0  0  0
  161.3090  210.5210  147.9070 C   0  0  0  0  0  3  0  0  0  0  0  0
  160.7430  211.7550  148.2140 C   0  0  0  0  0  0  0  0  0  0  0  0
  161.4400  211.5950  150.4810 N   0  0  0  0  0  0  0  0  0  0  0  0
  159.6310  213.8710  148.2710 C   0  0  0  0  0  2  0  0  0  0  0  0
  159.9730  212.6820  147.3360 C   0  0  1  0  0  3  0  0  0  0  0  0
  162.0180  210.3820  150.2270 C   0  0  0  0  0  3  0  0  0  0  0  0
  160.8090  212.2580  149.4770 C   0  0  0  0  0  0  0  0  0  0  0  0
  160.1890  213.5230  149.5820 N   0  0  0  0  0  0  0  0  0  0  0  0
  158.7060  213.4720  154.1560 C   0  0  2  0  0  3  0  0  0  0  0  0
  159.4460  213.6810  151.9140 C   0  0  0  0  0  0  0  0  0  0  0  0
  158.2020  212.2600  153.3670 C   0  0  1  0  0  3  0  0  0  0  0  0
  157.5580  214.1310  154.9010 C   0  0  0  0  0  1  0  0  0  0  0  0
  158.8860  212.3150  152.0060 C   0  0  0  0  0  2  0  0  0  0  0  0
  159.9940  214.2180  150.8210 C   0  0  0  0  0  3  0  0  0  0  0  0
  159.3010  214.4530  153.1640 C   0  0  0  0  0  2  0  0  0  0  0  0
  158.5230  210.9400  154.0810 C   0  0  0  0  0  3  0  0  0  0  0  0
  158.7150  211.1860  155.5680 C   0  0  0  0  0  1  0  0  0  0  0  0
  159.7990  210.3190  153.5430 C   0  0  0  0  0  1  0  0  0  0  0  0
  158.9060  213.5030  144.7870 O   0  0  0  0  0  0  0  0  0  0  0  0
  160.7550  213.1110  146.1730 N   0  0  0  0  0  0  0  0  0  0  0  0
  160.1590  213.4040  144.8920 C   0  0  0  0  0  0  0  0  0  0  0  0
  161.0300  213.5550  143.6720 C   0  0  2  0  0  3  0  0  0  0  0  0
  160.2290  213.4270  142.4560 C   0  0  0  0  0  2  0  0  0  0  0  0
  161.0720  212.3020  142.8930 N   0  0  0  0  0  0  0  0  0  0  0  0
  162.2890  212.3600  142.1030 C   0  0  0  0  0  2  0  0  0  0  0  0
  162.1960  211.3980  140.9290 C   0  0  0  0  0  2  0  0  0  0  0  0
  161.6340  211.2600  138.6100 O   0  0  0  0  0  1  0  0  0  0  0  0
  162.0030  212.1480  139.6240 C   0  0  0  0  0  2  0  0  0  0  0  0
  162.6610  214.4260  146.9470 C   0  0  0  0  0  1  0  0  0  0  0  0
  162.2020  213.1140  146.3360 C   0  0  0  0  0  2  0  0  0  0  0  0
  162.6010  208.5000  148.6680 C   0  0  0  0  0  2  0  0  0  0  0  0
  161.7130  207.3760  149.1130 C   0  0  0  0  0  0  0  0  0  0  0  0
  160.9640  207.5590  150.1110 O   0  0  0  0  0  0  0  0  0  0  0  0
  162.0220  204.9280  146.2530 C   0  0  0  0  0  3  0  0  0  0  0  0
  161.6860  206.0950  148.3590 C   0  0  0  0  0  0  0  0  0  0  0  0
  162.0680  206.0970  147.0100 C   0  0  0  0  0  3  0  0  0  0  0  0
  161.5850  203.7230  146.8240 C   0  0  0  0  0  0  0  0  0  0  0  0
  161.1890  203.7130  148.1700 C   0  0  0  0  0  0  0  0  0  0  0  0
  160.8400  204.8440  150.2720 O   0  0  0  0  0  1  0  0  0  0  0  0
  160.6110  202.2200  148.8980 Cl  0  0  0  0  0  0  0  0  0  0  0  0
  161.2390  204.8870  148.9390 C   0  0  0  0  0  0  0  0  0  0  0  0
  161.5210  202.5290  146.0850 O   0  0  0  0  0  0  0  0  0  0  0  0
  160.4770  202.1310  145.2370 C   0  0  0  0  0  0  0  0  0  0  0  0
  159.7260  203.1680  144.4790 C   0  0  0  0  0  1  0  0  0  0  0  0
  160.1490  200.9190  145.1080 O   0  0  0  0  0  0  0  0  0  0  0  0
  1  7  1  0  0  0  0
  2  3  1  0  0  0  0
  2  1  2  0  0  0  0
  3  8  2  0  0  0  0
  5  9  1  0  0  0  0
  6 21  1  6  0  0  0
  6  3  1  0  0  0  0
  6  5  1  0  0  0  0
  7  4  2  0  0  0  0
  8  9  1  0  0  0  0
  8  4  1  0  0  0  0
  9 15  1  0  0  0  0
 10 13  1  6  0  0  0
 11 14  1  0  0  0  0
 11 16  1  0  0  0  0
 12 17  1  1  0  0  0
 12 10  1  0  0  0  0
 14 12  1  0  0  0  0
 15 11  2  0  0  0  0
 16 10  1  0  0  0  0
 17 18  1  0  0  0  0
 19 17  1  0  0  0  0
 20 22  2  0  0  0  0
 21 31  1  0  0  0  0
 22 21  1  0  0  0  0
 23 22  1  1  0  0  0
 24 25  1  0  0  0  0
 24 23  1  0  0  0  0
 25 23  1  0  0  0  0
 26 25  1  0  0  0  0
 27 26  1  0  0  0  0
 28 29  1  0  0  0  0
 29 27  1  0  0  0  0
 31 30  1  0  0  0  0
 32  1  1  0  0  0  0
 32 33  1  0  0  0  0
 33 34  2  0  0  0  0
 35 38  2  0  0  0  0
 35 37  1  0  0  0  0
 36 42  1  0  0  0  0
 36 33  1  0  0  0  0
 37 36  2  0  0  0  0
 38 39  1  0  0  0  0
 39 41  1  0  0  0  0
 39 42  2  0  0  0  0
 42 40  1  0  0  0  0
 43 38  1  0  0  0  0
 44 43  1  0  0  0  0
 45 44  1  0  0  0  0
 46 44  2  0  0  0  0
M  END
>  <MODEL>
8

>  <REMARK>
 VINA RESULT:      -6.2      2.785      7.502
  Name = 
  13 active torsions:
  status: ('A' for Active; 'I' for Inactive)
    1  A    between atoms: C_1  and  C_3
    2  A    between atoms: C_1  and  C_45
    3  A    between atoms: C_4  and  O_38
    4  A    between atoms: C_6  and  C_15
    5  A    between atoms: C_6  and  C_18
    6  A    between atoms: C_8  and  C_45
    7  A    between atoms: C_10  and  O_38
    8  A    between atoms: C_15  and  N_33
    9  A    between atoms: C_16  and  C_31
   10  A    between atoms: C_22  and  C_42
   11  A    between atoms: N_27  and  C_30
   12  A    between atoms: N_27  and  C_44
   13  A    between atoms: C_41  and  N_46
                            x       y       z     vdW  Elec       q    Type
                         _______ _______ _______ _____ _____    ______ ____

>  <TORSDO>
F 13

$$$$
=
 OpenBabel11042421583D

 46 50  0  0  1  0  0  0  0  0999 V2000
  161.5580  211.5440  149.3220 C   0  0  0  0  0  0  0  0  0  0  0  0
  161.9640  210.5640  150.2430 C   0  0  0  0  0  3  0  0  0  0  0  0
  161.5490  210.7000  151.5640 C   0  0  0  0  0  0  0  0  0  0  0  0
  160.3800  212.7090  151.0700 N   0  0  0  0  0  0  0  0  0  0  0  0
  161.0970  210.5230  153.9050 C   0  0  0  0  0  2  0  0  0  0  0  0
  161.8580  209.8380  152.7410 C   0  0  1  0  0  3  0  0  0  0  0  0
  160.7560  212.6170  149.7590 C   0  0  0  0  0  3  0  0  0  0  0  0
  160.7840  211.7570  151.9510 C   0  0  0  0  0  0  0  0  0  0  0  0
  160.4580  211.7080  153.3240 N   0  0  0  0  0  0  0  0  0  0  0  0
  156.6380  213.2040  155.8340 C   0  0  2  0  0  3  0  0  0  0  0  0
  158.5720  212.6430  154.5820 C   0  0  0  0  0  0  0  0  0  0  0  0
  156.3780  211.8800  155.1100 C   0  0  1  0  0  3  0  0  0  0  0  0
  155.5130  214.1870  155.5580 C   0  0  0  0  0  1  0  0  0  0  0  0
  157.7090  211.4440  154.5120 C   0  0  0  0  0  2  0  0  0  0  0  0
  159.7790  212.7600  154.0240 C   0  0  0  0  0  3  0  0  0  0  0  0
  157.9470  213.7660  155.3100 C   0  0  0  0  0  2  0  0  0  0  0  0
  155.8340  210.8070  156.0620 C   0  0  0  0  0  3  0  0  0  0  0  0
  154.8170  209.9370  155.3400 C   0  0  0  0  0  1  0  0  0  0  0  0
  155.1440  211.4320  157.2600 C   0  0  0  0  0  1  0  0  0  0  0  0
  162.7080  208.0800  150.6200 O   0  0  0  0  0  0  0  0  0  0  0  0
  161.4150  208.4550  152.5380 N   0  0  0  0  0  0  0  0  0  0  0  0
  161.7990  207.6680  151.3920 C   0  0  0  0  0  0  0  0  0  0  0  0
  161.0890  206.3730  151.0940 C   0  0  2  0  0  3  0  0  0  0  0  0
  161.8630  205.2410  151.6000 C   0  0  0  0  0  2  0  0  0  0  0  0
  161.8740  205.5430  150.1590 N   0  0  0  0  0  0  0  0  0  0  0  0
  160.9270  204.6370  149.5340 C   0  0  0  0  0  2  0  0  0  0  0  0
  161.5580  203.9820  148.3150 C   0  0  0  0  0  2  0  0  0  0  0  0
  162.7870  204.9410  146.5030 O   0  0  0  0  0  1  0  0  0  0  0  0
  161.5330  204.9160  147.1200 C   0  0  0  0  0  2  0  0  0  0  0  0
  161.1790  207.3020  154.6780 C   0  0  0  0  0  1  0  0  0  0  0  0
  160.4560  207.9390  153.5050 C   0  0  0  0  0  2  0  0  0  0  0  0
  161.9570  211.4490  147.8860 C   0  0  0  0  0  2  0  0  0  0  0  0
  162.1470  212.8130  147.2930 C   0  0  0  0  0  0  0  0  0  0  0  0
  162.4090  213.7750  148.0670 O   0  0  0  0  0  0  0  0  0  0  0  0
  163.2430  213.4560  143.7370 C   0  0  0  0  0  3  0  0  0  0  0  0
  162.0750  213.0100  145.8220 C   0  0  0  0  0  0  0  0  0  0  0  0
  163.2650  213.2270  145.1110 C   0  0  0  0  0  3  0  0  0  0  0  0
  162.0290  213.4820  143.0350 C   0  0  0  0  0  0  0  0  0  0  0  0
  160.8320  213.2790  143.7390 C   0  0  0  0  0  0  0  0  0  0  0  0
  159.6440  212.8430  145.7930 O   0  0  0  0  0  1  0  0  0  0  0  0
  159.2970  213.3350  142.8840 Cl  0  0  0  0  0  0  0  0  0  0  0  0
  160.8490  213.0420  145.1240 C   0  0  0  0  0  0  0  0  0  0  0  0
  161.9740  213.7170  141.6500 O   0  0  0  0  0  0  0  0  0  0  0  0
  162.4600  212.8710  140.6420 C   0  0  0  0  0  0  0  0  0  0  0  0
  161.9770  211.4650  140.5840 C   0  0  0  0  0  1  0  0  0  0  0  0
  163.3040  213.2660  139.7910 O   0  0  0  0  0  0  0  0  0  0  0  0
  1  7  2  0  0  0  0
  1  2  1  0  0  0  0
  2  3  2  0  0  0  0
  3  8  1  0  0  0  0
  3  6  1  0  0  0  0
  4  8  2  0  0  0  0
  6 21  1  6  0  0  0
  6  5  1  0  0  0  0
  7  4  1  0  0  0  0
  8  9  1  0  0  0  0
  9  5  1  0  0  0  0
  9 15  1  0  0  0  0
 10 13  1  6  0  0  0
 11 16  1  0  0  0  0
 12 10  1  0  0  0  0
 12 17  1  1  0  0  0
 14 11  1  0  0  0  0
 14 12  1  0  0  0  0
 15 11  2  0  0  0  0
 16 10  1  0  0  0  0
 17 19  1  0  0  0  0
 18 17  1  0  0  0  0
 20 22  2  0  0  0  0
 21 31  1  0  0  0  0
 22 21  1  0  0  0  0
 23 22  1  1  0  0  0
 23 24  1  0  0  0  0
 25 23  1  0  0  0  0
 25 24  1  0  0  0  0
 26 25  1  0  0  0  0
 27 26  1  0  0  0  0
 28 29  1  0  0  0  0
 29 27  1  0  0  0  0
 31 30  1  0  0  0  0
 32  1  1  0  0  0  0
 33 32  1  0  0  0  0
 33 34  2  0  0  0  0
 35 37  1  0  0  0  0
 36 33  1  0  0  0  0
 37 36  2  0  0  0  0
 38 35  2  0  0  0  0
 38 39  1  0  0  0  0
 39 42  2  0  0  0  0
 41 39  1  0  0  0  0
 42 40  1  0  0  0  0
 42 36  1  0  0  0  0
 43 38  1  0  0  0  0
 44 43  1  0  0  0  0
 45 44  1  0  0  0  0
 46 44  2  0  0  0  0
M  END
>  <MODEL>
9

>  <REMARK>
 VINA RESULT:      -6.2      3.887      9.277
  Name = 
  13 active torsions:
  status: ('A' for Active; 'I' for Inactive)
    1  A    between atoms: C_1  and  C_3
    2  A    between atoms: C_1  and  C_45
    3  A    between atoms: C_4  and  O_38
    4  A    between atoms: C_6  and  C_15
    5  A    between atoms: C_6  and  C_18
    6  A    between atoms: C_8  and  C_45
    7  A    between atoms: C_10  and  O_38
    8  A    between atoms: C_15  and  N_33
    9  A    between atoms: C_16  and  C_31
   10  A    between atoms: C_22  and  C_42
   11  A    between atoms: N_27  and  C_30
   12  A    between atoms: N_27  and  C_44
   13  A    between atoms: C_41  and  N_46
                            x       y       z     vdW  Elec       q    Type
                         _______ _______ _______ _____ _____    ______ ____

>  <TORSDO>
F 13

$$$$
