=
 OpenBabel11052410543D

 30 35  0  0  1  0  0  0  0  0999 V2000
  159.4150  212.6090  155.0400 C   0  0  1  0  0  3  0  0  0  0  0  0
  160.3660  209.1950  156.6380 C   0  0  1  0  0  3  0  0  0  0  0  0
  161.1410  205.9160  152.8890 C   0  0  0  0  0  3  0  0  0  0  0  0
  161.0450  206.1820  154.2550 C   0  0  0  0  0  3  0  0  0  0  0  0
  160.9320  208.2460  152.4330 N   0  0  0  0  0  0  0  0  0  0  0  0
  161.0650  206.9720  151.9700 C   0  0  0  0  0  0  0  0  0  0  0  0
  160.8190  207.8190  156.1680 C   0  0  1  0  0  0  0  0  0  0  0  0
  158.6720  212.0910  156.1990 N   0  0  0  0  0  0  0  0  0  0  0  0
  159.9100  211.6900  152.7200 C   0  0  0  0  0  2  0  0  0  0  0  0
  160.6860  209.8810  154.2120 N   0  0  0  0  0  0  0  0  0  0  0  0
  160.0400  211.6080  155.9390 C   0  0  1  0  0  3  0  0  0  0  0  0
  161.8500  208.8240  156.6430 C   0  0  0  0  0  2  0  0  0  0  0  0
  160.6060  206.7820  157.0770 O   0  0  0  0  0  1  0  0  0  0  0  0
  161.1120  210.9710  153.3340 C   0  0  0  0  0  2  0  0  0  0  0  0
  158.8230  212.0340  153.7490 C   0  0  2  0  0  3  0  0  0  0  0  0
  160.8220  208.5290  153.7610 C   0  0  0  0  0  0  0  0  0  0  0  0
  158.7710  213.0970  157.2410 C   0  0  0  0  0  1  0  0  0  0  0  0
  159.9720  210.1400  155.4790 C   0  0  2  0  0  3  0  0  0  0  0  0
  160.8760  207.4960  154.7010 C   0  0  0  0  0  0  0  0  0  0  0  0
  162.0940  209.3150  150.0830 Cl  0  0  0  0  0  0  0  0  0  0  0  0
  160.7640  205.4580  150.0250 C   0  0  0  0  0  3  0  0  0  0  0  0
  160.8590  205.1570  148.6660 C   0  0  0  0  0  3  0  0  0  0  0  0
  161.7340  207.3690  148.2400 C   0  0  0  0  0  3  0  0  0  0  0  0
  161.6470  207.6820  149.6020 C   0  0  0  0  0  0  0  0  0  0  0  0
  161.1610  206.7140  150.5160 C   0  0  0  0  0  0  0  0  0  0  0  0
  161.3470  206.1120  147.7740 C   0  0  0  0  0  3  0  0  0  0  0  0
  157.8300  213.0170  153.1510 C   0  0  0  0  0  2  0  0  0  0  0  0
  156.3490  214.3890  154.6110 O   0  0  0  0  0  1  0  0  0  0  0  0
  155.9050  212.1640  154.2760 O   0  0  0  0  0  0  0  0  0  0  0  0
  156.6350  213.1600  154.0320 C   0  0  0  0  0  0  0  0  0  0  0  0
  1 11  1  0  0  0  0
  1  8  1  1  0  0  0
  2 12  1  6  0  0  0
  3  4  1  0  0  0  0
  4 19  2  0  0  0  0
  5 16  2  0  0  0  0
  6  5  1  0  0  0  0
  6  3  2  0  0  0  0
  7  2  1  0  0  0  0
  7 12  1  0  0  0  0
  7 13  1  1  0  0  0
  8 17  1  0  0  0  0
  9 14  1  0  0  0  0
  9 15  1  0  0  0  0
 11  8  1  1  0  0  0
 14 10  1  0  0  0  0
 15 27  1  6  0  0  0
 15  1  1  0  0  0  0
 16 10  1  0  0  0  0
 16 19  1  0  0  0  0
 18 10  1  6  0  0  0
 18 11  1  0  0  0  0
 18  2  1  0  0  0  0
 19  7  1  0  0  0  0
 21 25  1  0  0  0  0
 22 21  2  0  0  0  0
 23 24  1  0  0  0  0
 24 20  1  0  0  0  0
 24 25  2  0  0  0  0
 25  6  1  0  0  0  0
 26 23  2  0  0  0  0
 26 22  1  0  0  0  0
 27 30  1  0  0  0  0
 30 29  2  0  0  0  0
 30 28  1  0  0  0  0
M  END
>  <MODEL>
1

>  <REMARK>
 VINA RESULT:      -8.7      0.000      0.000
  Name = 
  3 active torsions:
  status: ('A' for Active; 'I' for Inactive)
    1  A    between atoms: C_10  and  C_25
    2  A    between atoms: C_10  and  C_26
    3  A    between atoms: C_11  and  C_22
                            x       y       z     vdW  Elec       q    Type
                         _______ _______ _______ _____ _____    ______ ____

>  <TORSDO>
F 3

$$$$
=
 OpenBabel11052410543D

 30 35  0  0  1  0  0  0  0  0999 V2000
  159.5400  212.5340  154.1600 C   0  0  1  0  0  3  0  0  0  0  0  0
  160.2910  209.2260  156.0610 C   0  0  1  0  0  3  0  0  0  0  0  0
  161.1590  205.6480  152.6180 C   0  0  0  0  0  3  0  0  0  0  0  0
  160.9980  206.0210  153.9530 C   0  0  0  0  0  3  0  0  0  0  0  0
  161.0510  207.9410  151.9780 N   0  0  0  0  0  0  0  0  0  0  0  0
  161.1660  206.6320  151.6200 C   0  0  0  0  0  0  0  0  0  0  0  0
  160.7240  207.8060  155.7220 C   0  0  1  0  0  0  0  0  0  0  0  0
  158.7190  212.1270  155.3110 N   0  0  0  0  0  0  0  0  0  0  0  0
  160.1290  211.4250  151.9480 C   0  0  0  0  0  2  0  0  0  0  0  0
  160.7640  209.7140  153.6120 N   0  0  0  0  0  0  0  0  0  0  0  0
  160.0820  211.5860  155.1650 C   0  0  1  0  0  3  0  0  0  0  0  0
  161.7600  208.8140  156.1770 C   0  0  0  0  0  2  0  0  0  0  0  0
  160.4280  206.8480  156.6930 O   0  0  0  0  0  1  0  0  0  0  0  0
  161.2710  210.7210  152.6800 C   0  0  0  0  0  2  0  0  0  0  0  0
  159.0000  211.8780  152.8850 C   0  0  2  0  0  3  0  0  0  0  0  0
  160.8790  208.3280  153.2720 C   0  0  0  0  0  0  0  0  0  0  0  0
  158.7950  213.2070  156.2780 C   0  0  0  0  0  1  0  0  0  0  0  0
  159.9910  210.0910  154.8150 C   0  0  2  0  0  3  0  0  0  0  0  0
  160.8490  207.3690  154.2890 C   0  0  0  0  0  0  0  0  0  0  0  0
  162.0940  208.8770  149.5680 Cl  0  0  0  0  0  0  0  0  0  0  0  0
  161.0430  204.9420  149.8060 C   0  0  0  0  0  3  0  0  0  0  0  0
  161.2070  204.5360  148.4810 C   0  0  0  0  0  3  0  0  0  0  0  0
  161.9380  206.7620  147.8910 C   0  0  0  0  0  3  0  0  0  0  0  0
  161.7810  207.1810  149.2170 C   0  0  0  0  0  0  0  0  0  0  0  0
  161.3320  206.2600  150.1970 C   0  0  0  0  0  0  0  0  0  0  0  0
  161.6570  205.4450  147.5240 C   0  0  0  0  0  3  0  0  0  0  0  0
  158.0730  212.8400  152.1600 C   0  0  0  0  0  2  0  0  0  0  0  0
  159.8250  214.4330  151.3880 O   0  0  0  0  0  1  0  0  0  0  0  0
  158.4710  213.3770  149.8690 O   0  0  0  0  0  0  0  0  0  0  0  0
  158.8010  213.5510  151.0700 C   0  0  0  0  0  0  0  0  0  0  0  0
  1 11  1  0  0  0  0
  1  8  1  1  0  0  0
  2 12  1  6  0  0  0
  3  4  1  0  0  0  0
  4 19  2  0  0  0  0
  5 16  2  0  0  0  0
  6  5  1  0  0  0  0
  6  3  2  0  0  0  0
  7  2  1  0  0  0  0
  7 12  1  0  0  0  0
  7 13  1  1  0  0  0
  8 17  1  0  0  0  0
  9 14  1  0  0  0  0
  9 15  1  0  0  0  0
 11  8  1  1  0  0  0
 14 10  1  0  0  0  0
 15 27  1  6  0  0  0
 15  1  1  0  0  0  0
 16 10  1  0  0  0  0
 16 19  1  0  0  0  0
 18 10  1  6  0  0  0
 18 11  1  0  0  0  0
 18  2  1  0  0  0  0
 19  7  1  0  0  0  0
 21 25  1  0  0  0  0
 22 21  2  0  0  0  0
 23 24  1  0  0  0  0
 24 20  1  0  0  0  0
 24 25  2  0  0  0  0
 25  6  1  0  0  0  0
 26 23  2  0  0  0  0
 26 22  1  0  0  0  0
 29 30  2  0  0  0  0
 30 28  1  0  0  0  0
 30 27  1  0  0  0  0
M  END
>  <MODEL>
2

>  <REMARK>
 VINA RESULT:      -8.7      1.508      1.593
  Name = 
  3 active torsions:
  status: ('A' for Active; 'I' for Inactive)
    1  A    between atoms: C_10  and  C_25
    2  A    between atoms: C_10  and  C_26
    3  A    between atoms: C_11  and  C_22
                            x       y       z     vdW  Elec       q    Type
                         _______ _______ _______ _____ _____    ______ ____

>  <TORSDO>
F 3

$$$$
=
 OpenBabel11052410543D

 30 35  0  0  1  0  0  0  0  0999 V2000
  161.0670  203.8460  147.6050 C   0  0  1  0  0  3  0  0  0  0  0  0
  161.5410  204.8930  151.3190 C   0  0  1  0  0  3  0  0  0  0  0  0
  162.2760  209.8790  151.4190 C   0  0  0  0  0  3  0  0  0  0  0  0
  162.2150  208.6580  152.0900 C   0  0  0  0  0  3  0  0  0  0  0  0
  161.5320  208.8060  149.4250 N   0  0  0  0  0  0  0  0  0  0  0  0
  161.9430  209.9400  150.0590 C   0  0  0  0  0  0  0  0  0  0  0  0
  161.7000  206.1830  152.1130 C   0  0  1  0  0  0  0  0  0  0  0  0
  161.9230  203.0560  148.5040 N   0  0  0  0  0  0  0  0  0  0  0  0
  161.0560  206.2880  146.8910 C   0  0  0  0  0  2  0  0  0  0  0  0
  161.0400  206.4290  149.3570 N   0  0  0  0  0  0  0  0  0  0  0  0
  160.8780  203.9240  149.0740 C   0  0  1  0  0  3  0  0  0  0  0  0
  160.3360  205.5280  152.0170 C   0  0  0  0  0  2  0  0  0  0  0  0
  162.2900  206.0360  153.3700 O   0  0  0  0  0  1  0  0  0  0  0  0
  160.2340  206.5820  148.1460 C   0  0  0  0  0  2  0  0  0  0  0  0
  161.8790  204.9950  146.9990 C   0  0  2  0  0  3  0  0  0  0  0  0
  161.4790  207.6000  150.0550 C   0  0  0  0  0  0  0  0  0  0  0  0
  161.3930  201.7040  148.5010 C   0  0  0  0  0  1  0  0  0  0  0  0
  161.5500  205.1110  149.7880 C   0  0  2  0  0  3  0  0  0  0  0  0
  161.8220  207.5040  151.4070 C   0  0  0  0  0  0  0  0  0  0  0  0
  160.0780  212.3240  151.0320 Cl  0  0  0  0  0  0  0  0  0  0  0  0
  162.8540  211.3280  148.2120 C   0  0  0  0  0  3  0  0  0  0  0  0
  162.9640  212.5240  147.5030 C   0  0  0  0  0  3  0  0  0  0  0  0
  161.3560  213.5490  148.9880 C   0  0  0  0  0  3  0  0  0  0  0  0
  161.2400  212.3560  149.7100 C   0  0  0  0  0  0  0  0  0  0  0  0
  162.0020  211.2240  149.3250 C   0  0  0  0  0  0  0  0  0  0  0  0
  162.2170  213.6360  147.8930 C   0  0  0  0  0  3  0  0  0  0  0  0
  162.4040  204.5950  145.6300 C   0  0  0  0  0  2  0  0  0  0  0  0
  160.2950  203.8950  144.5040 O   0  0  0  0  0  1  0  0  0  0  0  0
  161.4440  205.7380  143.7670 O   0  0  0  0  0  0  0  0  0  0  0  0
  161.3550  204.7880  144.5880 C   0  0  0  0  0  0  0  0  0  0  0  0
  1  8  1  1  0  0  0
  1 11  1  0  0  0  0
  2 12  1  1  0  0  0
  2  7  1  0  0  0  0
  3  4  1  0  0  0  0
  5 16  2  0  0  0  0
  5  6  1  0  0  0  0
  6  3  2  0  0  0  0
  7 13  1  1  0  0  0
  9 15  1  0  0  0  0
  9 14  1  0  0  0  0
 10 16  1  0  0  0  0
 11  8  1  1  0  0  0
 11 18  1  0  0  0  0
 12  7  1  0  0  0  0
 14 10  1  0  0  0  0
 15 27  1  6  0  0  0
 15  1  1  0  0  0  0
 16 19  1  0  0  0  0
 17  8  1  0  0  0  0
 18 10  1  1  0  0  0
 18  2  1  0  0  0  0
 19  4  2  0  0  0  0
 19  7  1  0  0  0  0
 21 25  1  0  0  0  0
 22 26  1  0  0  0  0
 22 21  2  0  0  0  0
 23 24  1  0  0  0  0
 24 20  1  0  0  0  0
 25 24  2  0  0  0  0
 25  6  1  0  0  0  0
 26 23  2  0  0  0  0
 28 30  1  0  0  0  0
 29 30  2  0  0  0  0
 30 27  1  0  0  0  0
M  END
>  <MODEL>
3

>  <REMARK>
 VINA RESULT:      -7.8      4.636      8.398
  Name = 
  3 active torsions:
  status: ('A' for Active; 'I' for Inactive)
    1  A    between atoms: C_10  and  C_25
    2  A    between atoms: C_10  and  C_26
    3  A    between atoms: C_11  and  C_22
                            x       y       z     vdW  Elec       q    Type
                         _______ _______ _______ _____ _____    ______ ____

>  <TORSDO>
F 3

$$$$
=
 OpenBabel11052410543D

 30 35  0  0  1  0  0  0  0  0999 V2000
  161.5500  203.7450  148.4350 C   0  0  1  0  0  3  0  0  0  0  0  0
  161.9060  207.5930  148.0040 C   0  0  1  0  0  3  0  0  0  0  0  0
  161.0770  209.7180  152.4990 C   0  0  0  0  0  3  0  0  0  0  0  0
  161.3230  209.8490  151.1320 C   0  0  0  0  0  3  0  0  0  0  0  0
  161.3760  207.3600  152.3130 N   0  0  0  0  0  0  0  0  0  0  0  0
  161.0900  208.4440  153.0860 C   0  0  0  0  0  0  0  0  0  0  0  0
  161.8970  208.8300  148.8910 C   0  0  1  0  0  0  0  0  0  0  0  0
  160.9440  204.4300  147.2830 N   0  0  0  0  0  0  0  0  0  0  0  0
  161.3320  204.0220  150.9540 C   0  0  0  0  0  2  0  0  0  0  0  0
  161.9050  206.3010  150.1930 N   0  0  0  0  0  0  0  0  0  0  0  0
  162.0670  205.0650  147.9950 C   0  0  1  0  0  3  0  0  0  0  0  0
  163.2200  208.2220  148.4710 C   0  0  0  0  0  2  0  0  0  0  0  0
  161.6130  210.0290  148.2340 O   0  0  0  0  0  1  0  0  0  0  0  0
  162.4100  205.1020  150.8620 C   0  0  0  0  0  2  0  0  0  0  0  0
  160.5910  203.7960  149.6280 C   0  0  2  0  0  3  0  0  0  0  0  0
  161.6040  207.4620  150.9740 C   0  0  0  0  0  0  0  0  0  0  0  0
  161.4960  203.8100  146.0920 C   0  0  0  0  0  1  0  0  0  0  0  0
  161.5430  206.2940  148.7600 C   0  0  2  0  0  3  0  0  0  0  0  0
  161.5810  208.7160  150.3560 C   0  0  0  0  0  0  0  0  0  0  0  0
  162.2030  210.6530  155.0830 Cl  0  0  0  0  0  0  0  0  0  0  0  0
  160.1320  207.1400  154.9690 C   0  0  0  0  0  3  0  0  0  0  0  0
  159.8400  206.9520  156.3210 C   0  0  0  0  0  3  0  0  0  0  0  0
  160.9550  209.0300  156.8490 C   0  0  0  0  0  3  0  0  0  0  0  0
  161.2500  209.2320  155.4950 C   0  0  0  0  0  0  0  0  0  0  0  0
  160.8300  208.2790  154.5340 C   0  0  0  0  0  0  0  0  0  0  0  0
  160.2500  207.8980  157.2600 C   0  0  0  0  0  3  0  0  0  0  0  0
  159.7790  202.5120  149.6960 C   0  0  0  0  0  2  0  0  0  0  0  0
  160.8390  200.8140  148.2130 O   0  0  0  0  0  0  0  0  0  0  0  0
  161.2070  200.7660  150.4760 O   0  0  0  0  0  1  0  0  0  0  0  0
  160.6570  201.3240  149.4910 C   0  0  0  0  0  0  0  0  0  0  0  0
  1  8  1  6  0  0  0
  1 15  1  0  0  0  0
  2 12  1  1  0  0  0
  2 18  1  0  0  0  0
  2  7  1  0  0  0  0
  3  6  1  0  0  0  0
  4  3  2  0  0  0  0
  5  6  2  0  0  0  0
  6 25  1  0  0  0  0
  7 13  1  6  0  0  0
  7 19  1  0  0  0  0
 10 14  1  0  0  0  0
 10 16  1  0  0  0  0
 11  8  1  6  0  0  0
 11  1  1  0  0  0  0
 11 18  1  0  0  0  0
 12  7  1  0  0  0  0
 14  9  1  0  0  0  0
 15 27  1  1  0  0  0
 15  9  1  0  0  0  0
 16  5  1  0  0  0  0
 17  8  1  0  0  0  0
 18 10  1  1  0  0  0
 19 16  2  0  0  0  0
 19  4  1  0  0  0  0
 20 24  1  0  0  0  0
 21 22  1  0  0  0  0
 22 26  2  0  0  0  0
 23 26  1  0  0  0  0
 24 23  2  0  0  0  0
 25 21  2  0  0  0  0
 25 24  1  0  0  0  0
 28 30  2  0  0  0  0
 30 27  1  0  0  0  0
 30 29  1  0  0  0  0
M  END
>  <MODEL>
4

>  <REMARK>
 VINA RESULT:      -7.2      3.951      8.788
  Name = 
  3 active torsions:
  status: ('A' for Active; 'I' for Inactive)
    1  A    between atoms: C_10  and  C_25
    2  A    between atoms: C_10  and  C_26
    3  A    between atoms: C_11  and  C_22
                            x       y       z     vdW  Elec       q    Type
                         _______ _______ _______ _____ _____    ______ ____

>  <TORSDO>
F 3

$$$$
=
 OpenBabel11052410543D

 30 35  0  0  1  0  0  0  0  0999 V2000
  161.5620  210.4080  152.9680 C   0  0  1  0  0  3  0  0  0  0  0  0
  161.2080  206.5890  153.6040 C   0  0  1  0  0  3  0  0  0  0  0  0
  160.8790  204.3150  149.1170 C   0  0  0  0  0  3  0  0  0  0  0  0
  160.8470  204.2410  150.5100 C   0  0  0  0  0  3  0  0  0  0  0  0
  161.5160  206.6080  149.2680 N   0  0  0  0  0  0  0  0  0  0  0  0
  161.2040  205.5300  148.4960 C   0  0  0  0  0  0  0  0  0  0  0  0
  161.1600  205.3100  152.7790 C   0  0  1  0  0  0  0  0  0  0  0  0
  160.6540  209.9030  154.0080 N   0  0  0  0  0  0  0  0  0  0  0  0
  161.7640  209.9980  150.4650 C   0  0  0  0  0  2  0  0  0  0  0  0
  161.8140  207.7160  151.4080 N   0  0  0  0  0  0  0  0  0  0  0  0
  161.7700  209.0580  153.5470 C   0  0  1  0  0  3  0  0  0  0  0  0
  162.4660  205.7380  153.4200 C   0  0  0  0  0  2  0  0  0  0  0  0
  160.5720  204.2160  153.4150 O   0  0  0  0  0  1  0  0  0  0  0  0
  162.6190  208.7760  150.8020 C   0  0  0  0  0  2  0  0  0  0  0  0
  160.8410  210.4230  151.6160 C   0  0  2  0  0  3  0  0  0  0  0  0
  161.4770  206.5630  150.6280 C   0  0  0  0  0  0  0  0  0  0  0  0
  161.0720  210.5110  155.2580 C   0  0  0  0  0  1  0  0  0  0  0  0
  161.2030  207.8740  152.7440 C   0  0  2  0  0  3  0  0  0  0  0  0
  161.1390  205.3720  151.2780 C   0  0  0  0  0  0  0  0  0  0  0  0
  163.8800  204.7030  146.9900 Cl  0  0  0  0  0  0  0  0  0  0  0  0
  160.1090  206.1220  146.3480 C   0  0  0  0  0  3  0  0  0  0  0  0
  160.0860  206.2160  144.9560 C   0  0  0  0  0  3  0  0  0  0  0  0
  162.3410  205.3510  144.8640 C   0  0  0  0  0  3  0  0  0  0  0  0
  162.3750  205.2500  146.2590 C   0  0  0  0  0  0  0  0  0  0  0  0
  161.2420  205.6340  147.0200 C   0  0  0  0  0  0  0  0  0  0  0  0
  161.2020  205.8280  144.2140 C   0  0  0  0  0  3  0  0  0  0  0  0
  160.2730  211.8070  151.3460 C   0  0  0  0  0  2  0  0  0  0  0  0
  159.4420  213.2450  153.2030 O   0  0  0  0  0  1  0  0  0  0  0  0
  158.2020  211.4580  152.4790 O   0  0  0  0  0  0  0  0  0  0  0  0
  159.2400  212.1590  152.3620 C   0  0  0  0  0  0  0  0  0  0  0  0
  1 11  1  0  0  0  0
  1  8  1  1  0  0  0
  2 12  1  6  0  0  0
  3  4  1  0  0  0  0
  4 19  2  0  0  0  0
  5 16  2  0  0  0  0
  6  3  2  0  0  0  0
  6  5  1  0  0  0  0
  7 13  1  1  0  0  0
  7 12  1  0  0  0  0
  7  2  1  0  0  0  0
  8 17  1  0  0  0  0
  9 14  1  0  0  0  0
  9 15  1  0  0  0  0
 11  8  1  1  0  0  0
 14 10  1  0  0  0  0
 15 27  1  6  0  0  0
 15  1  1  0  0  0  0
 16 19  1  0  0  0  0
 16 10  1  0  0  0  0
 18 10  1  6  0  0  0
 18 11  1  0  0  0  0
 18  2  1  0  0  0  0
 19  7  1  0  0  0  0
 21 25  1  0  0  0  0
 22 21  2  0  0  0  0
 23 24  1  0  0  0  0
 24 20  1  0  0  0  0
 24 25  2  0  0  0  0
 25  6  1  0  0  0  0
 26 23  2  0  0  0  0
 26 22  1  0  0  0  0
 27 30  1  0  0  0  0
 30 29  2  0  0  0  0
 30 28  1  0  0  0  0
M  END
>  <MODEL>
5

>  <REMARK>
 VINA RESULT:      -6.8      2.371      3.900
  Name = 
  3 active torsions:
  status: ('A' for Active; 'I' for Inactive)
    1  A    between atoms: C_10  and  C_25
    2  A    between atoms: C_10  and  C_26
    3  A    between atoms: C_11  and  C_22
                            x       y       z     vdW  Elec       q    Type
                         _______ _______ _______ _____ _____    ______ ____

>  <TORSDO>
F 3

$$$$
=
 OpenBabel11052410543D

 30 35  0  0  1  0  0  0  0  0999 V2000
  160.8110  213.0530  149.6030 C   0  0  1  0  0  3  0  0  0  0  0  0
  160.9180  210.4380  152.4770 C   0  0  1  0  0  3  0  0  0  0  0  0
  161.3650  205.8770  150.3780 C   0  0  0  0  0  3  0  0  0  0  0  0
  161.2000  206.6680  151.5150 C   0  0  0  0  0  3  0  0  0  0  0  0
  161.6640  207.8460  149.0680 N   0  0  0  0  0  0  0  0  0  0  0  0
  161.5830  206.4880  149.1350 C   0  0  0  0  0  0  0  0  0  0  0  0
  161.1310  208.9370  152.6270 C   0  0  1  0  0  0  0  0  0  0  0  0
  159.8780  213.1460  150.7360 N   0  0  0  0  0  0  0  0  0  0  0  0
  161.3230  211.2370  147.8970 C   0  0  0  0  0  2  0  0  0  0  0  0
  161.5860  210.0630  150.0540 N   0  0  0  0  0  0  0  0  0  0  0  0
  161.1410  212.4030  150.8950 C   0  0  1  0  0  3  0  0  0  0  0  0
  162.2930  209.8830  152.8560 C   0  0  0  0  0  2  0  0  0  0  0  0
  160.6350  208.3830  153.8080 O   0  0  0  0  0  1  0  0  0  0  0  0
  162.2970  210.6460  148.9160 C   0  0  0  0  0  2  0  0  0  0  0  0
  160.2360  212.1130  148.5390 C   0  0  2  0  0  3  0  0  0  0  0  0
  161.4920  208.6380  150.1610 C   0  0  0  0  0  0  0  0  0  0  0  0
  160.0790  214.4530  151.3350 C   0  0  0  0  0  1  0  0  0  0  0  0
  160.8260  210.9010  151.0050 C   0  0  2  0  0  3  0  0  0  0  0  0
  161.2550  208.0600  151.4120 C   0  0  0  0  0  0  0  0  0  0  0  0
  160.8780  203.3910  149.2770 Cl  0  0  0  0  0  0  0  0  0  0  0  0
  162.2560  206.2850  146.7540 C   0  0  0  0  0  3  0  0  0  0  0  0
  162.4160  205.5620  145.5700 C   0  0  0  0  0  3  0  0  0  0  0  0
  161.5990  203.5760  146.6770 C   0  0  0  0  0  3  0  0  0  0  0  0
  161.4310  204.2910  147.8690 C   0  0  0  0  0  0  0  0  0  0  0  0
  161.7580  205.6690  147.9140 C   0  0  0  0  0  0  0  0  0  0  0  0
  162.0840  204.2080  145.5320 C   0  0  0  0  0  3  0  0  0  0  0  0
  159.5160  212.9180  147.4690 C   0  0  0  0  0  2  0  0  0  0  0  0
  161.3790  213.6430  145.9840 O   0  0  0  0  0  1  0  0  0  0  0  0
  159.8430  212.1080  145.2480 O   0  0  0  0  0  0  0  0  0  0  0  0
  160.2540  212.8530  146.1750 C   0  0  0  0  0  0  0  0  0  0  0  0
  1  8  1  1  0  0  0
  1 11  1  0  0  0  0
  2  7  1  0  0  0  0
  2 12  1  6  0  0  0
  3  4  1  0  0  0  0
  5  6  1  0  0  0  0
  5 16  2  0  0  0  0
  6  3  2  0  0  0  0
  7 12  1  0  0  0  0
  7 13  1  1  0  0  0
  8 17  1  0  0  0  0
  9 15  1  0  0  0  0
  9 14  1  0  0  0  0
 10 16  1  0  0  0  0
 11  8  1  1  0  0  0
 11 18  1  0  0  0  0
 14 10  1  0  0  0  0
 15 27  1  6  0  0  0
 15  1  1  0  0  0  0
 16 19  1  0  0  0  0
 18 10  1  6  0  0  0
 18  2  1  0  0  0  0
 19  4  2  0  0  0  0
 19  7  1  0  0  0  0
 21 25  1  0  0  0  0
 22 21  2  0  0  0  0
 23 24  1  0  0  0  0
 24 25  2  0  0  0  0
 24 20  1  0  0  0  0
 25  6  1  0  0  0  0
 26 22  1  0  0  0  0
 26 23  2  0  0  0  0
 28 30  1  0  0  0  0
 29 30  2  0  0  0  0
 30 27  1  0  0  0  0
M  END
>  <MODEL>
6

>  <REMARK>
 VINA RESULT:      -5.8      3.958      5.117
  Name = 
  3 active torsions:
  status: ('A' for Active; 'I' for Inactive)
    1  A    between atoms: C_10  and  C_25
    2  A    between atoms: C_10  and  C_26
    3  A    between atoms: C_11  and  C_22
                            x       y       z     vdW  Elec       q    Type
                         _______ _______ _______ _____ _____    ______ ____

>  <TORSDO>
F 3

$$$$
=
 OpenBabel11052410543D

 30 35  0  0  1  0  0  0  0  0999 V2000
  161.0330  203.7350  147.6610 C   0  0  1  0  0  3  0  0  0  0  0  0
  161.4770  204.7680  151.3830 C   0  0  1  0  0  3  0  0  0  0  0  0
  162.1330  209.7640  151.5140 C   0  0  0  0  0  3  0  0  0  0  0  0
  162.0890  208.5380  152.1780 C   0  0  0  0  0  3  0  0  0  0  0  0
  161.4140  208.6910  149.5110 N   0  0  0  0  0  0  0  0  0  0  0  0
  161.8040  209.8270  150.1530 C   0  0  0  0  0  0  0  0  0  0  0  0
  161.6130  206.0550  152.1850 C   0  0  1  0  0  0  0  0  0  0  0  0
  161.8970  202.9530  148.5580 N   0  0  0  0  0  0  0  0  0  0  0  0
  160.9860  206.1810  146.9610 C   0  0  0  0  0  2  0  0  0  0  0  0
  160.9590  206.3070  149.4280 N   0  0  0  0  0  0  0  0  0  0  0  0
  160.8370  203.8020  149.1300 C   0  0  1  0  0  3  0  0  0  0  0  0
  160.2600  205.3800  152.0800 C   0  0  0  0  0  2  0  0  0  0  0  0
  162.2000  205.9100  153.4430 O   0  0  0  0  0  1  0  0  0  0  0  0
  160.1550  206.4550  148.2150 C   0  0  0  0  0  2  0  0  0  0  0  0
  161.8290  204.9010  147.0650 C   0  0  2  0  0  3  0  0  0  0  0  0
  161.3770  207.4810  150.1340 C   0  0  0  0  0  0  0  0  0  0  0  0
  161.3890  201.5940  148.5460 C   0  0  0  0  0  1  0  0  0  0  0  0
  161.4880  204.9950  149.8530 C   0  0  2  0  0  3  0  0  0  0  0  0
  161.7170  207.3820  151.4860 C   0  0  0  0  0  0  0  0  0  0  0  0
  163.8020  210.1160  147.6960 Cl  0  0  0  0  0  0  0  0  0  0  0  0
  161.0270  212.1690  149.8710 C   0  0  0  0  0  3  0  0  0  0  0  0
  161.0120  213.3960  149.2060 C   0  0  0  0  0  3  0  0  0  0  0  0
  162.6520  212.5630  147.6390 C   0  0  0  0  0  3  0  0  0  0  0  0
  162.6740  211.3270  148.2960 C   0  0  0  0  0  0  0  0  0  0  0  0
  161.8460  211.1170  149.4270 C   0  0  0  0  0  0  0  0  0  0  0  0
  161.8230  213.5910  148.0880 C   0  0  0  0  0  3  0  0  0  0  0  0
  162.3650  204.5160  145.6950 C   0  0  0  0  0  2  0  0  0  0  0  0
  160.2660  203.8010  144.5600 O   0  0  0  0  0  1  0  0  0  0  0  0
  161.4020  205.6550  143.8320 O   0  0  0  0  0  0  0  0  0  0  0  0
  161.3180  204.7020  144.6500 C   0  0  0  0  0  0  0  0  0  0  0  0
  1  8  1  1  0  0  0
  1 11  1  0  0  0  0
  2 12  1  1  0  0  0
  2  7  1  0  0  0  0
  3  4  1  0  0  0  0
  5 16  2  0  0  0  0
  5  6  1  0  0  0  0
  6  3  2  0  0  0  0
  7 13  1  1  0  0  0
  9 15  1  0  0  0  0
  9 14  1  0  0  0  0
 10 16  1  0  0  0  0
 11  8  1  1  0  0  0
 11 18  1  0  0  0  0
 12  7  1  0  0  0  0
 14 10  1  0  0  0  0
 15 27  1  6  0  0  0
 15  1  1  0  0  0  0
 16 19  1  0  0  0  0
 17  8  1  0  0  0  0
 18 10  1  1  0  0  0
 18  2  1  0  0  0  0
 19  4  2  0  0  0  0
 19  7  1  0  0  0  0
 20 24  1  0  0  0  0
 22 21  2  0  0  0  0
 23 26  2  0  0  0  0
 23 24  1  0  0  0  0
 24 25  2  0  0  0  0
 25 21  1  0  0  0  0
 25  6  1  0  0  0  0
 26 22  1  0  0  0  0
 28 30  1  0  0  0  0
 29 30  2  0  0  0  0
 30 27  1  0  0  0  0
M  END
>  <MODEL>
7

>  <REMARK>
 VINA RESULT:      -5.8      4.550      8.372
  Name = 
  3 active torsions:
  status: ('A' for Active; 'I' for Inactive)
    1  A    between atoms: C_10  and  C_25
    2  A    between atoms: C_10  and  C_26
    3  A    between atoms: C_11  and  C_22
                            x       y       z     vdW  Elec       q    Type
                         _______ _______ _______ _____ _____    ______ ____

>  <TORSDO>
F 3

$$$$
