=
 OpenBabel11042422293D

 34 38  0  0  1  0  0  0  0  0999 V2000
  161.3600  203.3990  146.9510 N   0  0  0  0  0  0  0  0  0  0  0  0
  161.7030  205.2410  152.6750 N   0  0  0  0  0  2  0  0  0  0  0  0
  161.6750  205.3410  148.1480 C   0  0  0  0  0  0  0  0  0  0  0  0
  161.5780  205.4970  151.2690 C   0  0  0  0  0  0  0  0  0  0  0  0
  160.8300  202.0050  148.7830 C   0  0  0  0  0  3  0  0  0  0  0  0
  161.7780  206.7230  150.8700 N   0  0  0  0  0  0  0  0  0  0  0  0
  161.6940  204.8010  146.7550 C   0  0  0  0  0  3  0  0  0  0  0  0
  161.7750  206.7650  148.4230 C   0  0  0  0  0  3  0  0  0  0  0  0
  160.6430  201.9570  150.1630 C   0  0  0  0  0  3  0  0  0  0  0  0
  161.2470  204.3400  150.3790 C   0  0  0  0  0  0  0  0  0  0  0  0
  161.3900  204.3540  148.9770 C   0  0  0  0  0  0  0  0  0  0  0  0
  160.8380  203.0990  150.9560 C   0  0  0  0  0  0  0  0  0  0  0  0
  161.2010  203.2150  148.2160 C   0  0  2  0  0  3  0  0  0  0  0  0
  161.7900  207.3880  149.5990 C   0  0  0  0  0  0  0  0  0  0  0  0
  160.6110  202.9710  152.2860 F   0  0  0  0  0  0  0  0  0  0  0  0
  162.0340  210.9680  150.2420 O   0  0  0  0  0  0  0  0  0  0  0  0
  161.9260  209.7340  150.6650 C   0  0  0  0  0  0  0  0  0  0  0  0
  162.0050  209.6580  148.4440 C   0  0  0  0  0  3  0  0  0  0  0  0
  162.0790  210.9500  148.9310 C   0  0  0  0  0  0  0  0  0  0  0  0
  161.9020  208.8670  149.5810 C   0  0  0  0  0  0  0  0  0  0  0  0
  161.8600  209.3760  152.1090 C   0  0  0  0  0  1  0  0  0  0  0  0
  162.2190  212.1700  148.0900 C   0  0  0  0  0  2  0  0  0  0  0  0
  160.1610  213.3520  148.3050 O   0  0  0  0  0  1  0  0  0  0  0  0
  160.4540  212.2250  146.3300 O   0  0  0  0  0  0  0  0  0  0  0  0
  160.8840  212.6080  147.5940 C   0  0  0  0  0  0  0  0  0  0  0  0
  161.8800  206.2820  153.6800 C   0  0  0  0  0  2  0  0  0  0  0  0
  160.5440  206.6320  154.3200 C   0  0  0  0  0  2  0  0  0  0  0  0
  160.7490  207.3600  155.5670 N   0  0  0  0  0  2  0  0  0  0  0  0
  160.7860  208.7860  155.6580 C   0  0  0  0  0  0  0  0  0  0  0  0
  160.9020  211.5800  155.8570 C   0  0  0  0  0  3  0  0  0  0  0  0
  159.6640  209.5670  155.3360 C   0  0  0  0  0  3  0  0  0  0  0  0
  159.7230  210.9590  155.4340 C   0  0  0  0  0  3  0  0  0  0  0  0
  162.0210  210.8070  156.1810 C   0  0  0  0  0  3  0  0  0  0  0  0
  161.9620  209.4140  156.0810 C   0  0  0  0  0  3  0  0  0  0  0  0
  1 13  1  0  0  0  0
  2 26  1  0  0  0  0
  3  8  1  0  0  0  0
  3 11  2  0  0  0  0
  4  2  1  0  0  0  0
  5  9  2  0  0  0  0
  6  4  2  0  0  0  0
  7  1  2  0  0  0  0
  7  3  1  0  0  0  0
  8 14  2  0  0  0  0
  9 12  1  0  0  0  0
 10 12  2  0  0  0  0
 10  4  1  0  0  0  0
 11 10  1  0  0  0  0
 12 15  1  0  0  0  0
 13  5  1  6  0  0  0
 13 11  1  0  0  0  0
 14  6  1  0  0  0  0
 16 17  1  0  0  0  0
 17 21  1  0  0  0  0
 18 19  2  0  0  0  0
 18 20  1  0  0  0  0
 19 16  1  0  0  0  0
 20 14  1  0  0  0  0
 20 17  2  0  0  0  0
 22 19  1  0  0  0  0
 24 25  2  0  0  0  0
 25 22  1  0  0  0  0
 25 23  1  0  0  0  0
 26 27  1  0  0  0  0
 27 28  1  0  0  0  0
 28 29  1  0  0  0  0
 29 34  1  0  0  0  0
 30 33  1  0  0  0  0
 31 32  1  0  0  0  0
 31 29  2  0  0  0  0
 32 30  2  0  0  0  0
 34 33  2  0  0  0  0
M  END
>  <MODEL>
1

>  <REMARK>
 VINA RESULT:      -9.4      0.000      0.000
  Name = 
  7 active torsions:
  status: ('A' for Active; 'I' for Inactive)
    1  A    between atoms: C_2  and  C_18
    2  A    between atoms: C_2  and  C_33
    3  A    between atoms: C_5  and  N_12
    4  A    between atoms: N_6  and  C_26
    5  A    between atoms: C_10  and  N_12
    6  A    between atoms: C_10  and  C_26
    7  A    between atoms: C_28  and  C_32
                            x       y       z     vdW  Elec       q    Type
                         _______ _______ _______ _____ _____    ______ ____

>  <TORSDO>
F 7

$$$$
=
 OpenBabel11042422293D

 34 38  0  0  1  0  0  0  0  0999 V2000
  160.8090  207.1270  154.8380 N   0  0  0  0  0  0  0  0  0  0  0  0
  161.8930  210.6610  150.0820 N   0  0  0  0  0  2  0  0  0  0  0  0
  161.2620  206.9410  152.5880 C   0  0  0  0  0  0  0  0  0  0  0  0
  161.5790  209.3890  150.6680 C   0  0  0  0  0  0  0  0  0  0  0  0
  160.5410  209.4730  154.8930 C   0  0  0  0  0  3  0  0  0  0  0  0
  161.7130  208.3380  149.9080 N   0  0  0  0  0  0  0  0  0  0  0  0
  161.1010  206.1220  153.8260 C   0  0  0  0  0  3  0  0  0  0  0  0
  161.3850  206.3330  151.2730 C   0  0  0  0  0  3  0  0  0  0  0  0
  160.5400  210.6390  154.1300 C   0  0  0  0  0  3  0  0  0  0  0  0
  161.1450  209.3730  152.1000 C   0  0  1  0  0  3  0  0  0  0  0  0
  161.1000  208.2130  152.9010 C   0  0  0  0  0  0  0  0  0  0  0  0
  160.8280  210.6010  152.7570 C   0  0  0  0  0  0  0  0  0  0  0  0
  160.8220  208.2750  154.2530 C   0  0  0  0  0  0  0  0  0  0  0  0
  161.5500  206.9240  150.0920 C   0  0  0  0  0  0  0  0  0  0  0  0
  160.7810  211.7780  152.0850 F   0  0  0  0  0  0  0  0  0  0  0  0
  161.5110  204.2850  147.5770 O   0  0  0  0  0  0  0  0  0  0  0  0
  161.2730  204.7130  148.7910 C   0  0  0  0  0  0  0  0  0  0  0  0
  162.1340  206.4200  147.6550 C   0  0  0  0  0  3  0  0  0  0  0  0
  162.0240  205.2760  146.8870 C   0  0  0  0  0  0  0  0  0  0  0  0
  161.6440  206.0460  148.9010 C   0  0  0  0  0  0  0  0  0  0  0  0
  160.6750  203.8530  149.8500 C   0  0  0  0  0  1  0  0  0  0  0  0
  162.4090  205.1730  145.4520 C   0  0  0  0  0  2  0  0  0  0  0  0
  161.3820  205.5440  143.3340 O   0  0  0  0  0  0  0  0  0  0  0  0
  160.1030  206.0750  145.1600 O   0  0  0  0  0  1  0  0  0  0  0  0
  161.2810  205.6160  144.5860 C   0  0  0  0  0  0  0  0  0  0  0  0
  162.1930  210.8540  148.6690 C   0  0  0  0  0  2  0  0  0  0  0  0
  162.2330  212.3400  148.3360 C   0  0  0  0  0  2  0  0  0  0  0  0
  161.5620  212.5990  147.0680 N   0  0  0  0  0  2  0  0  0  0  0  0
  160.1440  212.7260  146.9310 C   0  0  0  0  0  0  0  0  0  0  0  0
  157.3690  212.9650  146.6150 C   0  0  0  0  0  3  0  0  0  0  0  0
  159.3460  213.1750  147.9960 C   0  0  0  0  0  3  0  0  0  0  0  0
  157.9630  213.2940  147.8380 C   0  0  0  0  0  3  0  0  0  0  0  0
  158.1600  212.5190  145.5520 C   0  0  0  0  0  3  0  0  0  0  0  0
  159.5440  212.4010  145.7110 C   0  0  0  0  0  3  0  0  0  0  0  0
  2  4  1  0  0  0  0
  3 11  2  0  0  0  0
  3  7  1  0  0  0  0
  6 14  1  0  0  0  0
  6  4  2  0  0  0  0
  7  1  2  0  0  0  0
  8  3  1  0  0  0  0
  9  5  1  0  0  0  0
 10  4  1  1  0  0  0
 10 12  1  0  0  0  0
 10 11  1  0  0  0  0
 11 13  1  0  0  0  0
 12  9  2  0  0  0  0
 13  1  1  0  0  0  0
 13  5  2  0  0  0  0
 14  8  2  0  0  0  0
 15 12  1  0  0  0  0
 16 17  1  0  0  0  0
 17 20  2  0  0  0  0
 17 21  1  0  0  0  0
 18 20  1  0  0  0  0
 19 16  1  0  0  0  0
 19 18  2  0  0  0  0
 20 14  1  0  0  0  0
 22 19  1  0  0  0  0
 23 25  2  0  0  0  0
 25 24  1  0  0  0  0
 25 22  1  0  0  0  0
 26  2  1  0  0  0  0
 27 26  1  0  0  0  0
 28 27  1  0  0  0  0
 29 28  1  0  0  0  0
 29 31  1  0  0  0  0
 30 32  1  0  0  0  0
 32 31  2  0  0  0  0
 33 34  1  0  0  0  0
 33 30  2  0  0  0  0
 34 29  2  0  0  0  0
M  END
>  <MODEL>
2

>  <REMARK>
 VINA RESULT:      -9.3      3.268      7.413
  Name = 
  7 active torsions:
  status: ('A' for Active; 'I' for Inactive)
    1  A    between atoms: C_2  and  C_18
    2  A    between atoms: C_2  and  C_33
    3  A    between atoms: C_5  and  N_12
    4  A    between atoms: N_6  and  C_26
    5  A    between atoms: C_10  and  N_12
    6  A    between atoms: C_10  and  C_26
    7  A    between atoms: C_28  and  C_32
                            x       y       z     vdW  Elec       q    Type
                         _______ _______ _______ _____ _____    ______ ____

>  <TORSDO>
F 7

$$$$
=
 OpenBabel11042422293D

 34 38  0  0  1  0  0  0  0  0999 V2000
  160.4570  209.3060  154.7700 N   0  0  0  0  0  0  0  0  0  0  0  0
  161.9430  207.0150  149.4010 N   0  0  0  0  0  2  0  0  0  0  0  0
  160.8400  210.0120  152.6120 C   0  0  0  0  0  0  0  0  0  0  0  0
  161.7550  208.1200  150.2970 C   0  0  0  0  0  0  0  0  0  0  0  0
  161.1530  207.0680  154.4770 C   0  0  0  0  0  3  0  0  0  0  0  0
  161.7020  209.3100  149.7660 N   0  0  0  0  0  0  0  0  0  0  0  0
  160.3630  210.4980  153.9420 C   0  0  0  0  0  3  0  0  0  0  0  0
  161.0910  210.9210  151.5050 C   0  0  0  0  0  3  0  0  0  0  0  0
  161.6720  206.1440  153.5710 C   0  0  0  0  0  3  0  0  0  0  0  0
  161.6170  207.8150  151.7560 C   0  0  1  0  0  3  0  0  0  0  0  0
  161.1280  208.7280  152.7130 C   0  0  0  0  0  0  0  0  0  0  0  0
  161.9100  206.5020  152.2340 C   0  0  0  0  0  0  0  0  0  0  0  0
  160.8930  208.3520  154.0220 C   0  0  0  0  0  0  0  0  0  0  0  0
  161.4970  210.6380  150.2690 C   0  0  0  0  0  0  0  0  0  0  0  0
  162.4380  205.5490  151.4270 F   0  0  0  0  0  0  0  0  0  0  0  0
  161.4450  213.7410  148.3570 O   0  0  0  0  0  0  0  0  0  0  0  0
  161.0110  212.9970  149.3430 C   0  0  0  0  0  0  0  0  0  0  0  0
  162.5600  211.8180  148.2670 C   0  0  0  0  0  3  0  0  0  0  0  0
  162.3590  213.0640  147.7040 C   0  0  0  0  0  0  0  0  0  0  0  0
  161.6740  211.7770  149.3360 C   0  0  0  0  0  0  0  0  0  0  0  0
  159.9710  213.4540  150.3050 C   0  0  0  0  0  1  0  0  0  0  0  0
  163.0980  213.5950  146.5250 C   0  0  0  0  0  2  0  0  0  0  0  0
  163.0700  212.9840  144.2210 O   0  0  0  0  0  0  0  0  0  0  0  0
  161.0240  213.0460  145.2540 O   0  0  0  0  0  1  0  0  0  0  0  0
  162.4040  213.2040  145.2660 C   0  0  0  0  0  0  0  0  0  0  0  0
  162.2320  207.1590  147.9800 C   0  0  0  0  0  2  0  0  0  0  0  0
  161.4090  206.1680  147.1690 C   0  0  0  0  0  2  0  0  0  0  0  0
  162.0260  204.8470  147.1950 N   0  0  0  0  0  2  0  0  0  0  0  0
  161.4780  203.7280  147.8980 C   0  0  0  0  0  0  0  0  0  0  0  0
  160.4030  201.5090  149.2320 C   0  0  0  0  0  3  0  0  0  0  0  0
  161.0960  203.8290  149.2450 C   0  0  0  0  0  3  0  0  0  0  0  0
  160.5610  202.7230  149.9100 C   0  0  0  0  0  3  0  0  0  0  0  0
  160.7810  201.4050  147.8900 C   0  0  0  0  0  3  0  0  0  0  0  0
  161.3170  202.5120  147.2250 C   0  0  0  0  0  3  0  0  0  0  0  0
  2  4  1  0  0  0  0
  3 11  2  0  0  0  0
  3  7  1  0  0  0  0
  6 14  1  0  0  0  0
  6  4  2  0  0  0  0
  7  1  2  0  0  0  0
  8  3  1  0  0  0  0
  9  5  1  0  0  0  0
 10  4  1  6  0  0  0
 10 12  1  0  0  0  0
 10 11  1  0  0  0  0
 11 13  1  0  0  0  0
 12  9  2  0  0  0  0
 13  5  2  0  0  0  0
 13  1  1  0  0  0  0
 14  8  2  0  0  0  0
 15 12  1  0  0  0  0
 16 17  1  0  0  0  0
 17 21  1  0  0  0  0
 18 20  1  0  0  0  0
 19 18  2  0  0  0  0
 19 16  1  0  0  0  0
 20 17  2  0  0  0  0
 20 14  1  0  0  0  0
 22 19  1  0  0  0  0
 23 25  2  0  0  0  0
 24 25  1  0  0  0  0
 25 22  1  0  0  0  0
 26  2  1  0  0  0  0
 27 28  1  0  0  0  0
 27 26  1  0  0  0  0
 28 29  1  0  0  0  0
 29 31  1  0  0  0  0
 30 32  1  0  0  0  0
 31 32  2  0  0  0  0
 33 30  2  0  0  0  0
 34 33  1  0  0  0  0
 34 29  2  0  0  0  0
M  END
>  <MODEL>
3

>  <REMARK>
 VINA RESULT:      -8.9      1.741      6.585
  Name = 
  7 active torsions:
  status: ('A' for Active; 'I' for Inactive)
    1  A    between atoms: C_2  and  C_18
    2  A    between atoms: C_2  and  C_33
    3  A    between atoms: C_5  and  N_12
    4  A    between atoms: N_6  and  C_26
    5  A    between atoms: C_10  and  N_12
    6  A    between atoms: C_10  and  C_26
    7  A    between atoms: C_28  and  C_32
                            x       y       z     vdW  Elec       q    Type
                         _______ _______ _______ _____ _____    ______ ____

>  <TORSDO>
F 7

$$$$
=
 OpenBabel11042422293D

 34 38  0  0  1  0  0  0  0  0999 V2000
  159.7700  211.9490  153.9600 N   0  0  0  0  0  0  0  0  0  0  0  0
  161.1770  206.0930  153.9760 N   0  0  0  0  0  2  0  0  0  0  0  0
  160.4150  210.3010  152.4870 C   0  0  0  0  0  0  0  0  0  0  0  0
  161.1300  207.3810  153.3460 C   0  0  0  0  0  0  0  0  0  0  0  0
  160.0730  210.7070  155.9460 C   0  0  0  0  0  3  0  0  0  0  0  0
  161.3260  207.4170  152.0570 N   0  0  0  0  0  0  0  0  0  0  0  0
  159.9460  211.7190  152.5340 C   0  0  0  0  0  3  0  0  0  0  0  0
  160.8980  209.6910  151.2590 C   0  0  0  0  0  3  0  0  0  0  0  0
  160.4770  209.4830  156.4750 C   0  0  0  0  0  3  0  0  0  0  0  0
  160.8430  208.5670  154.2120 C   0  0  1  0  0  3  0  0  0  0  0  0
  160.4620  209.8330  153.7200 C   0  0  0  0  0  0  0  0  0  0  0  0
  160.8640  208.4270  155.6330 C   0  0  0  0  0  0  0  0  0  0  0  0
  160.0770  210.8550  154.5670 C   0  0  0  0  0  0  0  0  0  0  0  0
  161.3280  208.4470  151.0590 C   0  0  0  0  0  0  0  0  0  0  0  0
  161.2660  207.2790  156.2310 F   0  0  0  0  0  0  0  0  0  0  0  0
  162.4490  208.2610  147.5950 O   0  0  0  0  0  0  0  0  0  0  0  0
  162.1170  208.9540  148.6540 C   0  0  0  0  0  0  0  0  0  0  0  0
  161.9100  206.8050  149.1890 C   0  0  0  0  0  3  0  0  0  0  0  0
  162.3310  206.9870  147.8850 C   0  0  0  0  0  0  0  0  0  0  0  0
  161.7680  208.0940  149.6870 C   0  0  0  0  0  0  0  0  0  0  0  0
  162.1450  210.4420  148.6900 C   0  0  0  0  0  1  0  0  0  0  0  0
  162.6420  205.8880  146.9290 C   0  0  0  0  0  2  0  0  0  0  0  0
  161.9240  205.4310  144.7040 O   0  0  0  0  0  0  0  0  0  0  0  0
  160.3030  206.2040  146.1280 O   0  0  0  0  0  1  0  0  0  0  0  0
  161.6130  205.8370  145.8530 C   0  0  0  0  0  0  0  0  0  0  0  0
  161.5810  204.8680  153.2980 C   0  0  0  0  0  2  0  0  0  0  0  0
  160.4560  204.3610  152.4070 C   0  0  0  0  0  2  0  0  0  0  0  0
  160.7390  203.0080  151.9430 N   0  0  0  0  0  2  0  0  0  0  0  0
  160.8320  202.6440  150.5630 C   0  0  0  0  0  0  0  0  0  0  0  0
  161.0250  201.8840  147.8720 C   0  0  0  0  0  3  0  0  0  0  0  0
  160.8320  203.6170  149.5510 C   0  0  0  0  0  3  0  0  0  0  0  0
  160.9270  203.2380  148.2100 C   0  0  0  0  0  3  0  0  0  0  0  0
  161.0280  200.9120  148.8770 C   0  0  0  0  0  3  0  0  0  0  0  0
  160.9320  201.2930  150.2190 C   0  0  0  0  0  3  0  0  0  0  0  0
  1 13  1  0  0  0  0
  3  7  1  0  0  0  0
  3 11  2  0  0  0  0
  4  2  1  0  0  0  0
  5  9  1  0  0  0  0
  6  4  2  0  0  0  0
  7  1  2  0  0  0  0
  8  3  1  0  0  0  0
 10  4  1  6  0  0  0
 10 12  1  0  0  0  0
 11 10  1  0  0  0  0
 11 13  1  0  0  0  0
 12 15  1  0  0  0  0
 12  9  2  0  0  0  0
 13  5  2  0  0  0  0
 14  8  2  0  0  0  0
 14  6  1  0  0  0  0
 16 19  1  0  0  0  0
 16 17  1  0  0  0  0
 17 21  1  0  0  0  0
 17 20  2  0  0  0  0
 18 20  1  0  0  0  0
 19 18  2  0  0  0  0
 20 14  1  0  0  0  0
 22 19  1  0  0  0  0
 23 25  2  0  0  0  0
 25 24  1  0  0  0  0
 25 22  1  0  0  0  0
 26  2  1  0  0  0  0
 27 26  1  0  0  0  0
 28 27  1  0  0  0  0
 29 28  1  0  0  0  0
 30 32  2  0  0  0  0
 30 33  1  0  0  0  0
 31 29  2  0  0  0  0
 32 31  1  0  0  0  0
 33 34  2  0  0  0  0
 34 29  1  0  0  0  0
M  END
>  <MODEL>
4

>  <REMARK>
 VINA RESULT:      -8.1      2.514      7.171
  Name = 
  7 active torsions:
  status: ('A' for Active; 'I' for Inactive)
    1  A    between atoms: C_2  and  C_18
    2  A    between atoms: C_2  and  C_33
    3  A    between atoms: C_5  and  N_12
    4  A    between atoms: N_6  and  C_26
    5  A    between atoms: C_10  and  N_12
    6  A    between atoms: C_10  and  C_26
    7  A    between atoms: C_28  and  C_32
                            x       y       z     vdW  Elec       q    Type
                         _______ _______ _______ _____ _____    ______ ____

>  <TORSDO>
F 7

$$$$
=
 OpenBabel11042422293D

 34 38  0  0  0  0  0  0  0  0999 V2000
  160.7380  203.3190  149.8530 N   0  0  0  0  0  0  0  0  0  0  0  0
  161.8320  209.1260  148.6860 N   0  0  0  0  0  2  0  0  0  0  0  0
  160.8310  205.3380  150.9570 C   0  0  0  0  0  0  0  0  0  0  0  0
  161.6490  208.0310  149.5950 C   0  0  0  0  0  0  0  0  0  0  0  0
  161.5820  204.0760  147.7810 C   0  0  0  0  0  3  0  0  0  0  0  0
  161.4420  208.3290  150.8480 N   0  0  0  0  0  0  0  0  0  0  0  0
  160.4590  203.9050  151.1560 C   0  0  0  0  0  2  0  0  0  0  0  0
  160.8890  206.2780  152.0640 C   0  0  0  0  0  3  0  0  0  0  0  0
  162.0760  205.1770  147.0840 C   0  0  0  0  0  3  0  0  0  0  0  0
  161.6920  206.6450  149.0300 C   0  0  0  0  0  0  0  0  0  0  0  0
  161.2330  205.4990  149.7100 C   0  0  0  0  0  0  0  0  0  0  0  0
  162.1400  206.4420  147.6900 C   0  0  0  0  0  0  0  0  0  0  0  0
  161.1700  204.2640  149.0920 C   0  0  0  0  0  0  0  0  0  0  0  0
  161.1830  207.5760  152.0410 C   0  0  0  0  0  0  0  0  0  0  0  0
  162.6570  207.4530  146.9490 F   0  0  0  0  0  0  0  0  0  0  0  0
  160.9490  208.7440  155.4870 O   0  0  0  0  0  0  0  0  0  0  0  0
  160.8490  207.7950  154.5910 C   0  0  0  0  0  0  0  0  0  0  0  0
  161.4750  209.6410  153.5190 C   0  0  0  0  0  3  0  0  0  0  0  0
  161.3150  209.8470  154.8770 C   0  0  0  0  0  0  0  0  0  0  0  0
  161.1660  208.2980  153.3370 C   0  0  0  0  0  0  0  0  0  0  0  0
  160.4630  206.3980  154.9310 C   0  0  0  0  0  1  0  0  0  0  0  0
  161.5500  211.1400  155.5760 C   0  0  0  0  0  2  0  0  0  0  0  0
  159.6070  211.5120  156.9050 O   0  0  0  0  0  1  0  0  0  0  0  0
  159.7700  212.7910  155.0090 O   0  0  0  0  0  0  0  0  0  0  0  0
  160.2520  211.8110  155.8660 C   0  0  0  0  0  0  0  0  0  0  0  0
  161.9560  210.5170  149.1020 C   0  0  0  0  0  2  0  0  0  0  0  0
  162.0530  211.4270  147.8850 C   0  0  0  0  0  2  0  0  0  0  0  0
  161.1740  212.5800  148.0350 N   0  0  0  0  0  2  0  0  0  0  0  0
  159.9170  212.7140  147.3660 C   0  0  0  0  0  0  0  0  0  0  0  0
  157.4770  212.9720  146.0100 C   0  0  0  0  0  3  0  0  0  0  0  0
  158.7620  213.1110  148.0570 C   0  0  0  0  0  3  0  0  0  0  0  0
  157.5450  213.2380  147.3810 C   0  0  0  0  0  3  0  0  0  0  0  0
  158.6260  212.5790  145.3170 C   0  0  0  0  0  3  0  0  0  0  0  0
  159.8430  212.4510  145.9940 C   0  0  0  0  0  3  0  0  0  0  0  0
  1  7  1  0  0  0  0
  2 26  1  0  0  0  0
  2  4  1  0  0  0  0
  3  7  1  0  0  0  0
  3  8  1  0  0  0  0
  4  6  2  0  0  0  0
  5 13  1  0  0  0  0
  6 14  1  0  0  0  0
  9 12  1  0  0  0  0
  9  5  2  0  0  0  0
 10  4  1  0  0  0  0
 10 11  1  0  0  0  0
 11  3  2  0  0  0  0
 12 10  2  0  0  0  0
 13 11  1  0  0  0  0
 13  1  2  0  0  0  0
 14  8  2  0  0  0  0
 14 20  1  0  0  0  0
 15 12  1  0  0  0  0
 17 21  1  0  0  0  0
 17 16  1  0  0  0  0
 18 19  2  0  0  0  0
 19 16  1  0  0  0  0
 19 22  1  0  0  0  0
 20 18  1  0  0  0  0
 20 17  2  0  0  0  0
 22 25  1  0  0  0  0
 24 25  2  0  0  0  0
 25 23  1  0  0  0  0
 27 28  1  0  0  0  0
 27 26  1  0  0  0  0
 29 28  1  0  0  0  0
 29 31  1  0  0  0  0
 30 32  1  0  0  0  0
 32 31  2  0  0  0  0
 33 34  1  0  0  0  0
 33 30  2  0  0  0  0
 34 29  2  0  0  0  0
M  END
>  <MODEL>
5

>  <REMARK>
 VINA RESULT:      -8.1      2.980      6.472
  Name = 
  7 active torsions:
  status: ('A' for Active; 'I' for Inactive)
    1  A    between atoms: C_2  and  C_18
    2  A    between atoms: C_2  and  C_33
    3  A    between atoms: C_5  and  N_12
    4  A    between atoms: N_6  and  C_26
    5  A    between atoms: C_10  and  N_12
    6  A    between atoms: C_10  and  C_26
    7  A    between atoms: C_28  and  C_32
                            x       y       z     vdW  Elec       q    Type
                         _______ _______ _______ _____ _____    ______ ____

>  <TORSDO>
F 7

$$$$
=
 OpenBabel11042422293D

 34 38  0  0  0  0  0  0  0  0999 V2000
  160.5370  208.1860  155.9980 N   0  0  0  0  0  0  0  0  0  0  0  0
  161.7530  210.3060  150.4920 N   0  0  0  0  0  2  0  0  0  0  0  0
  160.8850  207.4050  153.8600 C   0  0  0  0  0  0  0  0  0  0  0  0
  161.3480  209.2570  151.3830 C   0  0  0  0  0  0  0  0  0  0  0  0
  160.4840  210.4870  155.4670 C   0  0  0  0  0  3  0  0  0  0  0  0
  161.3570  208.0420  150.9090 N   0  0  0  0  0  0  0  0  0  0  0  0
  160.6980  206.9380  155.2660 C   0  0  0  0  0  2  0  0  0  0  0  0
  160.9010  206.4800  152.7380 C   0  0  0  0  0  3  0  0  0  0  0  0
  160.5590  211.4210  154.4360 C   0  0  0  0  0  3  0  0  0  0  0  0
  160.9690  209.6390  152.7800 C   0  0  0  0  0  0  0  0  0  0  0  0
  160.8500  208.7240  153.8460 C   0  0  0  0  0  0  0  0  0  0  0  0
  160.7900  211.0160  153.1120 C   0  0  0  0  0  0  0  0  0  0  0  0
  160.6310  209.1460  155.1440 C   0  0  0  0  0  0  0  0  0  0  0  0
  161.0740  206.7410  151.4440 C   0  0  0  0  0  0  0  0  0  0  0  0
  160.8230  211.9880  152.1670 F   0  0  0  0  0  0  0  0  0  0  0  0
  161.2410  204.3610  148.6880 O   0  0  0  0  0  0  0  0  0  0  0  0
  161.4130  205.5640  149.1720 C   0  0  0  0  0  0  0  0  0  0  0  0
  160.6260  204.3020  150.8250 C   0  0  0  0  0  3  0  0  0  0  0  0
  160.7730  203.5960  149.6450 C   0  0  0  0  0  0  0  0  0  0  0  0
  161.0430  205.5890  150.5100 C   0  0  0  0  0  0  0  0  0  0  0  0
  161.9460  206.6950  148.3630 C   0  0  0  0  0  1  0  0  0  0  0  0
  160.4690  202.1490  149.4750 C   0  0  0  0  0  2  0  0  0  0  0  0
  161.7540  200.5820  148.2210 O   0  0  0  0  0  1  0  0  0  0  0  0
  160.8620  202.3190  147.0190 O   0  0  0  0  0  0  0  0  0  0  0  0
  161.0760  201.6420  148.2130 C   0  0  0  0  0  0  0  0  0  0  0  0
  162.0140  210.1130  149.0720 C   0  0  0  0  0  2  0  0  0  0  0  0
  162.2690  211.4530  148.3940 C   0  0  0  0  0  2  0  0  0  0  0  0
  161.2650  211.7080  147.3690 N   0  0  0  0  0  2  0  0  0  0  0  0
  160.1850  212.6330  147.5280 C   0  0  0  0  0  0  0  0  0  0  0  0
  158.0810  214.4500  147.8850 C   0  0  0  0  0  3  0  0  0  0  0  0
  159.2380  212.8280  146.5100 C   0  0  0  0  0  3  0  0  0  0  0  0
  158.1900  213.7350  146.6880 C   0  0  0  0  0  3  0  0  0  0  0  0
  159.0200  214.2560  148.9020 C   0  0  0  0  0  3  0  0  0  0  0  0
  160.0690  213.3490  148.7230 C   0  0  0  0  0  3  0  0  0  0  0  0
  2  4  1  0  0  0  0
  3  7  1  0  0  0  0
  4 10  1  0  0  0  0
  6  4  2  0  0  0  0
  6 14  1  0  0  0  0
  7  1  1  0  0  0  0
  8  3  1  0  0  0  0
  9  5  2  0  0  0  0
 10 12  2  0  0  0  0
 10 11  1  0  0  0  0
 11  3  2  0  0  0  0
 11 13  1  0  0  0  0
 12  9  1  0  0  0  0
 13  5  1  0  0  0  0
 13  1  2  0  0  0  0
 14  8  2  0  0  0  0
 15 12  1  0  0  0  0
 16 17  1  0  0  0  0
 16 19  1  0  0  0  0
 17 20  2  0  0  0  0
 19 18  2  0  0  0  0
 20 18  1  0  0  0  0
 20 14  1  0  0  0  0
 21 17  1  0  0  0  0
 22 19  1  0  0  0  0
 24 25  2  0  0  0  0
 25 23  1  0  0  0  0
 25 22  1  0  0  0  0
 26  2  1  0  0  0  0
 27 26  1  0  0  0  0
 28 29  1  0  0  0  0
 28 27  1  0  0  0  0
 29 34  1  0  0  0  0
 30 33  1  0  0  0  0
 31 32  1  0  0  0  0
 31 29  2  0  0  0  0
 32 30  2  0  0  0  0
 34 33  2  0  0  0  0
M  END
>  <MODEL>
6

>  <REMARK>
 VINA RESULT:      -8.0      3.600      7.999
  Name = 
  7 active torsions:
  status: ('A' for Active; 'I' for Inactive)
    1  A    between atoms: C_2  and  C_18
    2  A    between atoms: C_2  and  C_33
    3  A    between atoms: C_5  and  N_12
    4  A    between atoms: N_6  and  C_26
    5  A    between atoms: C_10  and  N_12
    6  A    between atoms: C_10  and  C_26
    7  A    between atoms: C_28  and  C_32
                            x       y       z     vdW  Elec       q    Type
                         _______ _______ _______ _____ _____    ______ ____

>  <TORSDO>
F 7

$$$$
=
 OpenBabel11042422293D

 34 38  0  0  0  0  0  0  0  0999 V2000
  161.2020  205.4330  153.8600 N   0  0  0  0  0  0  0  0  0  0  0  0
  160.7250  205.6600  147.8590 N   0  0  0  0  0  2  0  0  0  0  0  0
  161.2510  206.9840  152.1580 C   0  0  0  0  0  0  0  0  0  0  0  0
  161.0570  206.2480  149.1250 C   0  0  0  0  0  0  0  0  0  0  0  0
  161.1780  203.5020  152.5000 C   0  0  0  0  0  3  0  0  0  0  0  0
  161.2070  207.5440  149.1550 N   0  0  0  0  0  0  0  0  0  0  0  0
  161.2460  206.8730  153.6480 C   0  0  0  0  0  2  0  0  0  0  0  0
  161.4760  208.2520  151.4830 C   0  0  0  0  0  3  0  0  0  0  0  0
  161.2020  203.0310  151.1890 C   0  0  0  0  0  3  0  0  0  0  0  0
  161.1830  205.3350  150.3040 C   0  0  0  0  0  0  0  0  0  0  0  0
  161.1960  205.7690  151.6450 C   0  0  0  0  0  0  0  0  0  0  0  0
  161.2110  203.9210  150.1030 C   0  0  0  0  0  0  0  0  0  0  0  0
  161.1780  204.8750  152.6990 C   0  0  0  0  0  0  0  0  0  0  0  0
  161.4920  208.5100  150.1770 C   0  0  0  0  0  0  0  0  0  0  0  0
  161.2590  203.3780  148.8610 F   0  0  0  0  0  0  0  0  0  0  0  0
  161.8500  212.1150  149.7750 O   0  0  0  0  0  0  0  0  0  0  0  0
  161.4760  211.0730  150.4730 C   0  0  0  0  0  0  0  0  0  0  0  0
  162.3300  210.3090  148.5670 C   0  0  0  0  0  3  0  0  0  0  0  0
  162.3550  211.6900  148.6410 C   0  0  0  0  0  0  0  0  0  0  0  0
  161.7510  209.9110  149.7650 C   0  0  0  0  0  0  0  0  0  0  0  0
  160.8660  211.1820  151.8260 C   0  0  0  0  0  1  0  0  0  0  0  0
  162.9070  212.5890  147.5910 C   0  0  0  0  0  2  0  0  0  0  0  0
  161.9920  214.1250  146.0150 O   0  0  0  0  0  0  0  0  0  0  0  0
  160.5920  212.4350  146.6780 O   0  0  0  0  0  1  0  0  0  0  0  0
  161.8080  213.1040  146.7260 C   0  0  0  0  0  0  0  0  0  0  0  0
  160.7050  206.3940  146.6010 C   0  0  0  0  0  2  0  0  0  0  0  0
  161.7700  205.8540  145.6560 C   0  0  0  0  0  2  0  0  0  0  0  0
  161.1910  204.8930  144.7260 N   0  0  0  0  0  2  0  0  0  0  0  0
  160.8300  203.5570  145.0860 C   0  0  0  0  0  0  0  0  0  0  0  0
  160.0810  200.9420  145.7660 C   0  0  0  0  0  3  0  0  0  0  0  0
  161.5790  202.8270  146.0230 C   0  0  0  0  0  3  0  0  0  0  0  0
  161.2050  201.5230  146.3610 C   0  0  0  0  0  3  0  0  0  0  0  0
  159.3310  201.6670  144.8340 C   0  0  0  0  0  3  0  0  0  0  0  0
  159.7060  202.9710  144.4960 C   0  0  0  0  0  3  0  0  0  0  0  0
  2  4  1  0  0  0  0
  3  7  1  0  0  0  0
  4  6  2  0  0  0  0
  4 10  1  0  0  0  0
  5 13  1  0  0  0  0
  6 14  1  0  0  0  0
  7  1  1  0  0  0  0
  8  3  1  0  0  0  0
  9  5  2  0  0  0  0
 10 11  1  0  0  0  0
 11  3  2  0  0  0  0
 11 13  1  0  0  0  0
 12 10  2  0  0  0  0
 12  9  1  0  0  0  0
 13  1  2  0  0  0  0
 14  8  2  0  0  0  0
 15 12  1  0  0  0  0
 16 17  1  0  0  0  0
 17 21  1  0  0  0  0
 18 19  2  0  0  0  0
 18 20  1  0  0  0  0
 19 16  1  0  0  0  0
 20 14  1  0  0  0  0
 20 17  2  0  0  0  0
 22 19  1  0  0  0  0
 23 25  2  0  0  0  0
 24 25  1  0  0  0  0
 25 22  1  0  0  0  0
 26  2  1  0  0  0  0
 27 26  1  0  0  0  0
 28 29  1  0  0  0  0
 28 27  1  0  0  0  0
 29 31  1  0  0  0  0
 30 32  1  0  0  0  0
 31 32  2  0  0  0  0
 33 30  2  0  0  0  0
 34 33  1  0  0  0  0
 34 29  2  0  0  0  0
M  END
>  <MODEL>
7

>  <REMARK>
 VINA RESULT:      -7.9      2.112      6.806
  Name = 
  7 active torsions:
  status: ('A' for Active; 'I' for Inactive)
    1  A    between atoms: C_2  and  C_18
    2  A    between atoms: C_2  and  C_33
    3  A    between atoms: C_5  and  N_12
    4  A    between atoms: N_6  and  C_26
    5  A    between atoms: C_10  and  N_12
    6  A    between atoms: C_10  and  C_26
    7  A    between atoms: C_28  and  C_32
                            x       y       z     vdW  Elec       q    Type
                         _______ _______ _______ _____ _____    ______ ____

>  <TORSDO>
F 7

$$$$
=
 OpenBabel11042422293D

 34 38  0  0  0  0  0  0  0  0999 V2000
  160.3770  208.6450  155.9950 N   0  0  0  0  0  0  0  0  0  0  0  0
  161.9090  209.7070  150.2670 N   0  0  0  0  0  2  0  0  0  0  0  0
  160.8140  207.4820  154.0560 C   0  0  0  0  0  0  0  0  0  0  0  0
  161.4380  208.8430  151.3110 C   0  0  0  0  0  0  0  0  0  0  0  0
  160.4000  210.8110  155.0520 C   0  0  0  0  0  3  0  0  0  0  0  0
  161.4450  207.5620  151.0680 N   0  0  0  0  0  0  0  0  0  0  0  0
  160.5480  207.2830  155.5120 C   0  0  0  0  0  2  0  0  0  0  0  0
  160.8660  206.3670  153.1240 C   0  0  0  0  0  3  0  0  0  0  0  0
  160.5450  211.5400  153.8730 C   0  0  0  0  0  3  0  0  0  0  0  0
  160.9990  209.4790  152.5930 C   0  0  0  0  0  0  0  0  0  0  0  0
  160.8080  208.7770  153.8010 C   0  0  0  0  0  0  0  0  0  0  0  0
  160.8330  210.8960  152.6590 C   0  0  0  0  0  0  0  0  0  0  0  0
  160.5340  209.4310  154.9870 C   0  0  0  0  0  0  0  0  0  0  0  0
  161.1080  206.3840  151.8150 C   0  0  0  0  0  0  0  0  0  0  0  0
  160.9340  211.6780  151.5560 F   0  0  0  0  0  0  0  0  0  0  0  0
  161.0180  202.9140  150.7030 O   0  0  0  0  0  0  0  0  0  0  0  0
  160.9850  203.8120  151.6550 C   0  0  0  0  0  0  0  0  0  0  0  0
  161.2030  204.9080  149.7320 C   0  0  0  0  0  3  0  0  0  0  0  0
  161.1500  203.5370  149.5560 C   0  0  0  0  0  0  0  0  0  0  0  0
  161.0980  205.0820  151.1060 C   0  0  0  0  0  0  0  0  0  0  0  0
  160.8310  203.4610  153.0930 C   0  0  0  0  0  1  0  0  0  0  0  0
  161.2060  202.8450  148.2390 C   0  0  0  0  0  2  0  0  0  0  0  0
  161.2060  200.4900  147.8740 O   0  0  0  0  0  0  0  0  0  0  0  0
  159.3900  201.3170  149.0010 O   0  0  0  0  0  1  0  0  0  0  0  0
  160.6020  201.4870  148.3460 C   0  0  0  0  0  0  0  0  0  0  0  0
  162.2360  209.2550  148.9210 C   0  0  0  0  0  2  0  0  0  0  0  0
  161.9710  207.7610  148.7860 C   0  0  0  0  0  2  0  0  0  0  0  0
  161.1760  207.4880  147.5950 N   0  0  0  0  0  2  0  0  0  0  0  0
  161.4540  206.4240  146.6810 C   0  0  0  0  0  0  0  0  0  0  0  0
  161.9530  204.3400  144.8740 C   0  0  0  0  0  3  0  0  0  0  0  0
  162.6800  205.7400  146.7100 C   0  0  0  0  0  3  0  0  0  0  0  0
  162.9280  204.7020  145.8080 C   0  0  0  0  0  3  0  0  0  0  0  0
  160.7300  205.0160  144.8430 C   0  0  0  0  0  3  0  0  0  0  0  0
  160.4820  206.0560  145.7450 C   0  0  0  0  0  3  0  0  0  0  0  0
  2  4  1  0  0  0  0
  3  7  1  0  0  0  0
  4 10  1  0  0  0  0
  6  4  2  0  0  0  0
  6 14  1  0  0  0  0
  7  1  1  0  0  0  0
  8  3  1  0  0  0  0
  9  5  2  0  0  0  0
 10 12  2  0  0  0  0
 10 11  1  0  0  0  0
 11  3  2  0  0  0  0
 11 13  1  0  0  0  0
 12  9  1  0  0  0  0
 13  5  1  0  0  0  0
 13  1  2  0  0  0  0
 14  8  2  0  0  0  0
 15 12  1  0  0  0  0
 16 17  1  0  0  0  0
 17 21  1  0  0  0  0
 18 20  1  0  0  0  0
 19 18  2  0  0  0  0
 19 16  1  0  0  0  0
 20 17  2  0  0  0  0
 20 14  1  0  0  0  0
 22 25  1  0  0  0  0
 22 19  1  0  0  0  0
 23 25  2  0  0  0  0
 25 24  1  0  0  0  0
 26  2  1  0  0  0  0
 27 26  1  0  0  0  0
 28 27  1  0  0  0  0
 29 31  1  0  0  0  0
 29 28  1  0  0  0  0
 30 32  1  0  0  0  0
 32 31  2  0  0  0  0
 33 30  2  0  0  0  0
 33 34  1  0  0  0  0
 34 29  2  0  0  0  0
M  END
>  <MODEL>
8

>  <REMARK>
 VINA RESULT:      -7.8      3.636      8.546
  Name = 
  7 active torsions:
  status: ('A' for Active; 'I' for Inactive)
    1  A    between atoms: C_2  and  C_18
    2  A    between atoms: C_2  and  C_33
    3  A    between atoms: C_5  and  N_12
    4  A    between atoms: N_6  and  C_26
    5  A    between atoms: C_10  and  N_12
    6  A    between atoms: C_10  and  C_26
    7  A    between atoms: C_28  and  C_32
                            x       y       z     vdW  Elec       q    Type
                         _______ _______ _______ _____ _____    ______ ____

>  <TORSDO>
F 7

$$$$
=
 OpenBabel11042422293D

 34 38  0  0  0  0  0  0  0  0999 V2000
  160.6870  203.2700  149.8260 N   0  0  0  0  0  0  0  0  0  0  0  0
  161.8620  209.0190  148.4610 N   0  0  0  0  0  2  0  0  0  0  0  0
  160.8000  205.3260  150.8590 C   0  0  0  0  0  0  0  0  0  0  0  0
  161.6600  207.9590  149.4070 C   0  0  0  0  0  0  0  0  0  0  0  0
  161.5510  203.9430  147.7330 C   0  0  0  0  0  3  0  0  0  0  0  0
  161.4500  208.3030  150.6470 N   0  0  0  0  0  0  0  0  0  0  0  0
  160.4090  203.9060  151.1060 C   0  0  0  0  0  2  0  0  0  0  0  0
  160.8640  206.3040  151.9320 C   0  0  0  0  0  3  0  0  0  0  0  0
  162.0630  205.0120  147.0010 C   0  0  0  0  0  3  0  0  0  0  0  0
  161.6880  206.5530  148.8920 C   0  0  0  0  0  0  0  0  0  0  0  0
  161.2110  205.4370  149.6090 C   0  0  0  0  0  0  0  0  0  0  0  0
  162.1410  206.2970  147.5620 C   0  0  0  0  0  0  0  0  0  0  0  0
  161.1350  204.1830  149.0350 C   0  0  0  0  0  0  0  0  0  0  0  0
  161.1750  207.5970  151.8650 C   0  0  0  0  0  0  0  0  0  0  0  0
  162.6750  207.2750  146.7890 F   0  0  0  0  0  0  0  0  0  0  0  0
  161.0130  208.8730  155.2760 O   0  0  0  0  0  0  0  0  0  0  0  0
  160.9500  207.8850  154.4200 C   0  0  0  0  0  0  0  0  0  0  0  0
  161.3620  209.7340  153.2540 C   0  0  0  0  0  3  0  0  0  0  0  0
  161.2520  209.9780  154.6110 C   0  0  0  0  0  0  0  0  0  0  0  0
  161.1610  208.3650  153.1340 C   0  0  0  0  0  0  0  0  0  0  0  0
  160.7030  206.4750  154.8270 C   0  0  0  0  0  1  0  0  0  0  0  0
  161.4100  211.3130  155.2510 C   0  0  0  0  0  2  0  0  0  0  0  0
  159.3520  211.4300  156.4470 O   0  0  0  0  0  1  0  0  0  0  0  0
  159.6400  213.0130  154.8150 O   0  0  0  0  0  0  0  0  0  0  0  0
  160.0740  211.9080  155.5340 C   0  0  0  0  0  0  0  0  0  0  0  0
  162.0020  210.4220  148.8280 C   0  0  0  0  0  2  0  0  0  0  0  0
  161.0750  211.2850  147.9830 C   0  0  0  0  0  2  0  0  0  0  0  0
  161.7610  212.4920  147.5400 N   0  0  0  0  0  2  0  0  0  0  0  0
  161.7730  212.9460  146.1840 C   0  0  0  0  0  0  0  0  0  0  0  0
  161.7490  213.8330  143.5240 C   0  0  0  0  0  3  0  0  0  0  0  0
  162.9780  213.1120  145.4810 C   0  0  0  0  0  3  0  0  0  0  0  0
  162.9650  213.5550  144.1560 C   0  0  0  0  0  3  0  0  0  0  0  0
  160.5470  213.6680  144.2190 C   0  0  0  0  0  3  0  0  0  0  0  0
  160.5610  213.2250  145.5460 C   0  0  0  0  0  3  0  0  0  0  0  0
  1  7  1  0  0  0  0
  2 26  1  0  0  0  0
  2  4  1  0  0  0  0
  3  7  1  0  0  0  0
  3  8  1  0  0  0  0
  4  6  2  0  0  0  0
  5 13  1  0  0  0  0
  6 14  1  0  0  0  0
  9 12  1  0  0  0  0
  9  5  2  0  0  0  0
 10  4  1  0  0  0  0
 10 11  1  0  0  0  0
 11  3  2  0  0  0  0
 12 10  2  0  0  0  0
 13 11  1  0  0  0  0
 13  1  2  0  0  0  0
 14  8  2  0  0  0  0
 14 20  1  0  0  0  0
 15 12  1  0  0  0  0
 17 21  1  0  0  0  0
 17 16  1  0  0  0  0
 18 19  2  0  0  0  0
 19 22  1  0  0  0  0
 19 16  1  0  0  0  0
 20 18  1  0  0  0  0
 20 17  2  0  0  0  0
 22 25  1  0  0  0  0
 24 25  2  0  0  0  0
 25 23  1  0  0  0  0
 27 26  1  0  0  0  0
 28 27  1  0  0  0  0
 29 28  1  0  0  0  0
 30 32  2  0  0  0  0
 30 33  1  0  0  0  0
 31 29  2  0  0  0  0
 32 31  1  0  0  0  0
 33 34  2  0  0  0  0
 34 29  1  0  0  0  0
M  END
>  <MODEL>
9

>  <REMARK>
 VINA RESULT:      -7.6      3.049      6.902
  Name = 
  7 active torsions:
  status: ('A' for Active; 'I' for Inactive)
    1  A    between atoms: C_2  and  C_18
    2  A    between atoms: C_2  and  C_33
    3  A    between atoms: C_5  and  N_12
    4  A    between atoms: N_6  and  C_26
    5  A    between atoms: C_10  and  N_12
    6  A    between atoms: C_10  and  C_26
    7  A    between atoms: C_28  and  C_32
                            x       y       z     vdW  Elec       q    Type
                         _______ _______ _______ _____ _____    ______ ____

>  <TORSDO>
F 7

$$$$
