=
 OpenBabel11052411233D

 41 44  0  0  1  0  0  0  0  0999 V2000
  160.8650  203.0890  150.9500 C   0  0  0  0  0  0  0  0  0  0  0  0
  161.3440  204.7770  152.6930 C   0  0  0  0  0  3  0  0  0  0  0  0
  160.5890  203.9360  149.8570 C   0  0  0  0  0  0  0  0  0  0  0  0
  160.6330  203.4140  148.5650 C   0  0  0  0  0  3  0  0  0  0  0  0
  161.1330  201.7740  150.7280 N   0  0  0  0  0  0  0  0  0  0  0  0
  160.9560  202.0710  148.3590 C   0  0  0  0  0  0  0  0  0  0  0  0
  160.8490  203.5890  152.3380 C   0  0  0  0  0  3  0  0  0  0  0  0
  161.1500  206.2890  150.6480 C   0  0  2  0  0  3  0  0  0  0  0  0
  160.0990  205.3390  150.0630 C   0  0  0  0  0  2  0  0  0  0  0  0
  161.1820  201.2530  149.4740 C   0  0  0  0  0  3  0  0  0  0  0  0
  162.0590  205.6740  151.7230 C   0  0  0  0  0  2  0  0  0  0  0  0
  160.9610  201.5210  146.9580 C   0  0  1  0  0  3  0  0  0  0  0  0
  161.4430  200.1290  146.8430 C   0  0  0  0  0  0  0  0  0  0  0  0
  161.8330  198.9920  146.7520 C   0  0  0  0  0  3  0  0  0  0  0  0
  159.7660  201.7670  146.2420 O   0  0  0  0  0  0  0  0  0  0  0  0
  160.0700  201.9980  144.8880 C   0  0  0  0  0  2  0  0  0  0  0  0
  159.3530  203.2490  144.4010 C   0  0  0  0  0  2  0  0  0  0  0  0
  160.3420  204.2970  143.9060 C   0  0  0  0  0  2  0  0  0  0  0  0
  162.3490  204.4640  145.3990 C   0  0  0  0  0  3  0  0  0  0  0  0
  163.0350  205.0510  146.4680 C   0  0  0  0  0  3  0  0  0  0  0  0
  160.4910  205.9780  145.7610 C   0  0  0  0  0  3  0  0  0  0  0  0
  162.4490  206.1010  147.1850 C   0  0  0  0  0  3  0  0  0  0  0  0
  161.1760  206.5640  146.8310 C   0  0  0  0  0  3  0  0  0  0  0  0
  161.0780  204.9290  145.0410 C   0  0  0  0  0  0  0  0  0  0  0  0
  160.5090  207.4200  151.1620 O   0  0  0  0  0  0  0  0  0  0  0  0
  161.5380  208.3050  151.5150 C   0  0  1  0  0  3  0  0  0  0  0  0
  161.3950  208.6160  149.1420 O   0  0  0  0  0  1  0  0  0  0  0  0
  162.1670  208.9240  150.2650 C   0  0  1  0  0  3  0  0  0  0  0  0
  162.2690  210.4360  150.4100 C   0  0  0  0  0  2  0  0  0  0  0  0
  162.2100  211.1170  149.0500 C   0  0  0  0  0  2  0  0  0  0  0  0
  161.3440  212.3630  149.1210 C   0  0  0  0  0  2  0  0  0  0  0  0
  161.5390  213.2110  147.8780 C   0  0  0  0  0  2  0  0  0  0  0  0
  161.1520  212.4930  146.7450 O   0  0  0  0  0  1  0  0  0  0  0  0
  161.0080  209.3810  152.4720 C   0  0  0  0  0  2  0  0  0  0  0  0
  161.8960  209.9060  154.7630 C   0  0  0  0  0  3  0  0  0  0  0  0
  162.0640  209.5830  156.1130 C   0  0  0  0  0  0  0  0  0  0  0  0
  160.7020  207.8270  154.4160 C   0  0  0  0  0  3  0  0  0  0  0  0
  162.7360  210.4560  156.9570 O   0  0  0  0  0  1  0  0  0  0  0  0
  160.8710  207.5040  155.7650 C   0  0  0  0  0  3  0  0  0  0  0  0
  161.2160  209.0270  153.9110 C   0  0  0  0  0  0  0  0  0  0  0  0
  161.5520  208.3830  156.6140 C   0  0  0  0  0  3  0  0  0  0  0  0
  1  7  1  0  0  0  0
  3  9  1  0  0  0  0
  3  1  2  0  0  0  0
  4  3  1  0  0  0  0
  5  1  1  0  0  0  0
  6  4  2  0  0  0  0
  6 10  1  0  0  0  0
  7  2  2  0  0  0  0
  8 25  1  1  0  0  0
  8 11  1  0  0  0  0
  9  8  1  0  0  0  0
 10  5  2  0  0  0  0
 11  2  1  0  0  0  0
 12 13  1  1  0  0  0
 12  6  1  0  0  0  0
 14 13  3  0  0  0  0
 15 12  1  0  0  0  0
 16 15  1  0  0  0  0
 17 16  1  0  0  0  0
 18 17  1  0  0  0  0
 18 24  1  0  0  0  0
 19 20  1  0  0  0  0
 20 22  2  0  0  0  0
 21 23  2  0  0  0  0
 23 22  1  0  0  0  0
 24 19  2  0  0  0  0
 24 21  1  0  0  0  0
 25 26  1  0  0  0  0
 26 34  1  1  0  0  0
 28 27  1  6  0  0  0
 28 29  1  0  0  0  0
 28 26  1  0  0  0  0
 30 31  1  0  0  0  0
 30 29  1  0  0  0  0
 32 31  1  0  0  0  0
 33 32  1  0  0  0  0
 34 40  1  0  0  0  0
 35 36  1  0  0  0  0
 36 41  2  0  0  0  0
 36 38  1  0  0  0  0
 37 39  2  0  0  0  0
 39 41  1  0  0  0  0
 40 37  1  0  0  0  0
 40 35  2  0  0  0  0
M  END
>  <MODEL>
1

>  <REMARK>
 VINA RESULT:      -7.3      0.000      0.000
  Name = 
  16 active torsions:
  status: ('A' for Active; 'I' for Inactive)
    1  A    between atoms: C_5  and  C_28
    2  A    between atoms: C_5  and  C_35
    3  A    between atoms: C_7  and  C_11
    4  A    between atoms: C_7  and  C_37
    5  A    between atoms: O_9  and  C_11
    6  A    between atoms: O_9  and  C_31
    7  A    between atoms: C_10  and  O_12
    8  A    between atoms: C_10  and  C_28
    9  A    between atoms: C_11  and  C_39
   10  A    between atoms: O_12  and  C_23
   11  A    between atoms: C_15  and  C_17
   12  A    between atoms: C_15  and  C_39
   13  A    between atoms: C_17  and  C_30
   14  A    between atoms: C_21  and  C_23
   15  A    between atoms: C_23  and  C_26
   16  A    between atoms: C_29  and  C_30
                            x       y       z     vdW  Elec       q    Type
                         _______ _______ _______ _____ _____    ______ ____

>  <TORSDO>
F 16

$$$$
=
 OpenBabel11052411233D

 41 44  0  0  1  0  0  0  0  0999 V2000
  160.3650  208.8930  154.4120 C   0  0  0  0  0  0  0  0  0  0  0  0
  160.2870  210.9290  155.8140 C   0  0  0  0  0  3  0  0  0  0  0  0
  160.2070  209.4670  153.1340 C   0  0  0  0  0  0  0  0  0  0  0  0
  160.5660  208.7280  152.0080 C   0  0  0  0  0  3  0  0  0  0  0  0
  160.8290  207.6180  154.5210 N   0  0  0  0  0  0  0  0  0  0  0  0
  161.0830  207.4380  152.1480 C   0  0  0  0  0  0  0  0  0  0  0  0
  160.0180  209.6320  155.6400 C   0  0  0  0  0  3  0  0  0  0  0  0
  160.3140  211.9850  153.4920 C   0  0  2  0  0  3  0  0  0  0  0  0
  159.5200  210.7880  152.9550 C   0  0  0  0  0  2  0  0  0  0  0  0
  161.1850  206.8880  153.4320 C   0  0  0  0  0  3  0  0  0  0  0  0
  161.0630  211.7320  154.8080 C   0  0  0  0  0  2  0  0  0  0  0  0
  161.4270  206.6450  150.9150 C   0  0  1  0  0  3  0  0  0  0  0  0
  161.4340  205.1810  151.1060 C   0  0  0  0  0  0  0  0  0  0  0  0
  161.4400  203.9850  151.2580 C   0  0  0  0  0  3  0  0  0  0  0  0
  160.7350  207.0620  149.7550 O   0  0  0  0  0  0  0  0  0  0  0  0
  161.6610  207.3590  148.7380 C   0  0  0  0  0  2  0  0  0  0  0  0
  161.2810  206.6280  147.4590 C   0  0  0  0  0  2  0  0  0  0  0  0
  162.3550  205.6260  147.0530 C   0  0  0  0  0  2  0  0  0  0  0  0
  161.4240  203.8430  145.5550 C   0  0  0  0  0  3  0  0  0  0  0  0
  160.8740  202.5710  145.3600 C   0  0  0  0  0  3  0  0  0  0  0  0
  161.5720  203.4130  147.9360 C   0  0  0  0  0  3  0  0  0  0  0  0
  160.6730  201.7200  146.4520 C   0  0  0  0  0  3  0  0  0  0  0  0
  161.0220  202.1410  147.7410 C   0  0  0  0  0  3  0  0  0  0  0  0
  161.7770  204.2650  146.8430 C   0  0  0  0  0  0  0  0  0  0  0  0
  159.4520  213.0760  153.6410 O   0  0  0  0  0  0  0  0  0  0  0  0
  158.9130  213.3020  152.3660 C   0  0  1  0  0  3  0  0  0  0  0  0
  156.6100  213.3040  151.6970 O   0  0  0  0  0  1  0  0  0  0  0  0
  157.5490  213.9870  152.4740 C   0  0  1  0  0  3  0  0  0  0  0  0
  157.0790  214.0210  153.9230 C   0  0  0  0  0  2  0  0  0  0  0  0
  156.1310  212.8670  154.2120 C   0  0  0  0  0  2  0  0  0  0  0  0
  156.7510  211.9140  155.2210 C   0  0  0  0  0  2  0  0  0  0  0  0
  155.6780  211.0560  155.8630 C   0  0  0  0  0  2  0  0  0  0  0  0
  155.1650  210.1540  154.9280 O   0  0  0  0  0  1  0  0  0  0  0  0
  159.8890  214.1240  151.5140 C   0  0  0  0  0  2  0  0  0  0  0  0
  161.0950  212.9580  149.6420 C   0  0  0  0  0  3  0  0  0  0  0  0
  161.1470  212.4900  148.3260 C   0  0  0  0  0  0  0  0  0  0  0  0
  158.8830  213.8590  149.2320 C   0  0  0  0  0  3  0  0  0  0  0  0
  162.2680  211.8070  147.8770 O   0  0  0  0  0  1  0  0  0  0  0  0
  158.9370  213.3920  147.9150 C   0  0  0  0  0  3  0  0  0  0  0  0
  159.9630  213.6450  150.0970 C   0  0  0  0  0  0  0  0  0  0  0  0
  160.0690  212.7070  147.4630 C   0  0  0  0  0  3  0  0  0  0  0  0
  1  5  1  0  0  0  0
  1  7  1  0  0  0  0
  3  1  2  0  0  0  0
  4  6  2  0  0  0  0
  4  3  1  0  0  0  0
  6 10  1  0  0  0  0
  7  2  2  0  0  0  0
  8 25  1  1  0  0  0
  8 11  1  0  0  0  0
  9  3  1  0  0  0  0
  9  8  1  0  0  0  0
 10  5  2  0  0  0  0
 11  2  1  0  0  0  0
 12 13  1  1  0  0  0
 12  6  1  0  0  0  0
 13 14  3  0  0  0  0
 15 12  1  0  0  0  0
 16 15  1  0  0  0  0
 17 16  1  0  0  0  0
 18 17  1  0  0  0  0
 19 24  1  0  0  0  0
 20 19  2  0  0  0  0
 20 22  1  0  0  0  0
 22 23  2  0  0  0  0
 23 21  1  0  0  0  0
 24 18  1  0  0  0  0
 24 21  2  0  0  0  0
 26 34  1  6  0  0  0
 26 28  1  0  0  0  0
 26 25  1  0  0  0  0
 28 27  1  6  0  0  0
 28 29  1  0  0  0  0
 29 30  1  0  0  0  0
 30 31  1  0  0  0  0
 31 32  1  0  0  0  0
 33 32  1  0  0  0  0
 35 40  1  0  0  0  0
 36 35  2  0  0  0  0
 37 40  2  0  0  0  0
 38 36  1  0  0  0  0
 39 37  1  0  0  0  0
 40 34  1  0  0  0  0
 41 39  2  0  0  0  0
 41 36  1  0  0  0  0
M  END
>  <MODEL>
2

>  <REMARK>
 VINA RESULT:      -7.2      3.317      6.825
  Name = 
  16 active torsions:
  status: ('A' for Active; 'I' for Inactive)
    1  A    between atoms: C_5  and  C_28
    2  A    between atoms: C_5  and  C_35
    3  A    between atoms: C_7  and  C_11
    4  A    between atoms: C_7  and  C_37
    5  A    between atoms: O_9  and  C_11
    6  A    between atoms: O_9  and  C_31
    7  A    between atoms: C_10  and  O_12
    8  A    between atoms: C_10  and  C_28
    9  A    between atoms: C_11  and  C_39
   10  A    between atoms: O_12  and  C_23
   11  A    between atoms: C_15  and  C_17
   12  A    between atoms: C_15  and  C_39
   13  A    between atoms: C_17  and  C_30
   14  A    between atoms: C_21  and  C_23
   15  A    between atoms: C_23  and  C_26
   16  A    between atoms: C_29  and  C_30
                            x       y       z     vdW  Elec       q    Type
                         _______ _______ _______ _____ _____    ______ ____

>  <TORSDO>
F 16

$$$$
=
 OpenBabel11052411233D

 41 44  0  0  1  0  0  0  0  0999 V2000
  160.6500  209.5170  154.6300 C   0  0  0  0  0  0  0  0  0  0  0  0
  161.2030  207.2170  155.3520 C   0  0  0  0  0  3  0  0  0  0  0  0
  160.8010  209.3800  153.2350 C   0  0  0  0  0  0  0  0  0  0  0  0
  160.2250  210.3300  152.3920 C   0  0  0  0  0  3  0  0  0  0  0  0
  159.9800  210.5900  155.1290 N   0  0  0  0  0  0  0  0  0  0  0  0
  159.5020  211.3990  152.9270 C   0  0  0  0  0  0  0  0  0  0  0  0
  161.2230  208.5350  155.5690 C   0  0  0  0  0  3  0  0  0  0  0  0
  161.1690  206.8960  152.8220 C   0  0  2  0  0  3  0  0  0  0  0  0
  161.6920  208.3260  152.6480 C   0  0  0  0  0  2  0  0  0  0  0  0
  159.4120  211.5230  154.3200 C   0  0  0  0  0  3  0  0  0  0  0  0
  160.5000  206.6060  154.1730 C   0  0  0  0  0  2  0  0  0  0  0  0
  158.9210  212.4330  151.9990 C   0  0  1  0  0  3  0  0  0  0  0  0
  158.0450  213.4250  152.6530 C   0  0  0  0  0  0  0  0  0  0  0  0
  157.3270  214.2360  153.1840 C   0  0  0  0  0  3  0  0  0  0  0  0
  159.8670  213.0060  151.1180 O   0  0  0  0  0  0  0  0  0  0  0  0
  159.2020  213.5350  149.9960 C   0  0  0  0  0  2  0  0  0  0  0  0
  160.2120  214.1190  149.0200 C   0  0  0  0  0  2  0  0  0  0  0  0
  161.1730  213.0510  148.5120 C   0  0  0  0  0  2  0  0  0  0  0  0
  162.2020  213.3140  146.2400 C   0  0  0  0  0  3  0  0  0  0  0  0
  162.1380  213.2040  144.8460 C   0  0  0  0  0  3  0  0  0  0  0  0
  159.9500  212.4330  146.4120 C   0  0  0  0  0  3  0  0  0  0  0  0
  160.9800  212.7090  144.2350 C   0  0  0  0  0  3  0  0  0  0  0  0
  159.8860  212.3250  145.0180 C   0  0  0  0  0  3  0  0  0  0  0  0
  161.1090  212.9250  147.0260 C   0  0  0  0  0  0  0  0  0  0  0  0
  162.2190  205.9960  152.6130 O   0  0  0  0  0  0  0  0  0  0  0  0
  161.7740  205.1300  151.6040 C   0  0  1  0  0  3  0  0  0  0  0  0
  159.7900  203.8820  152.1110 O   0  0  0  0  0  1  0  0  0  0  0  0
  161.1840  203.8560  152.2120 C   0  0  1  0  0  3  0  0  0  0  0  0
  161.7190  202.6230  151.4980 C   0  0  0  0  0  2  0  0  0  0  0  0
  160.6930  202.0730  150.5190 C   0  0  0  0  0  2  0  0  0  0  0  0
  161.3100  200.9760  149.6670 C   0  0  0  0  0  2  0  0  0  0  0  0
  160.9990  201.2110  148.2010 C   0  0  0  0  0  2  0  0  0  0  0  0
  161.3730  200.0940  147.4500 O   0  0  0  0  0  1  0  0  0  0  0  0
  160.7610  205.8440  150.7000 C   0  0  0  0  0  2  0  0  0  0  0  0
  161.1330  204.8700  148.4130 C   0  0  0  0  0  3  0  0  0  0  0  0
  161.5510  204.9930  147.0850 C   0  0  0  0  0  0  0  0  0  0  0  0
  161.7490  207.1770  148.8200 C   0  0  0  0  0  3  0  0  0  0  0  0
  161.4490  203.9110  146.2230 O   0  0  0  0  0  1  0  0  0  0  0  0
  162.1680  207.3000  147.4920 C   0  0  0  0  0  3  0  0  0  0  0  0
  161.2330  205.9620  149.2840 C   0  0  0  0  0  0  0  0  0  0  0  0
  162.0680  206.2070  146.6240 C   0  0  0  0  0  3  0  0  0  0  0  0
  1  5  1  0  0  0  0
  1  7  1  0  0  0  0
  2  7  2  0  0  0  0
  3  1  2  0  0  0  0
  4  6  2  0  0  0  0
  4  3  1  0  0  0  0
  6 10  1  0  0  0  0
  8 25  1  1  0  0  0
  8 11  1  0  0  0  0
  9  8  1  0  0  0  0
  9  3  1  0  0  0  0
 10  5  2  0  0  0  0
 11  2  1  0  0  0  0
 12 13  1  1  0  0  0
 12  6  1  0  0  0  0
 13 14  3  0  0  0  0
 15 12  1  0  0  0  0
 16 15  1  0  0  0  0
 17 16  1  0  0  0  0
 18 17  1  0  0  0  0
 19 24  1  0  0  0  0
 20 19  2  0  0  0  0
 21 24  2  0  0  0  0
 22 20  1  0  0  0  0
 22 23  2  0  0  0  0
 23 21  1  0  0  0  0
 24 18  1  0  0  0  0
 26 34  1  1  0  0  0
 26 28  1  0  0  0  0
 26 25  1  0  0  0  0
 28 27  1  6  0  0  0
 29 28  1  0  0  0  0
 30 29  1  0  0  0  0
 31 30  1  0  0  0  0
 32 31  1  0  0  0  0
 33 32  1  0  0  0  0
 35 40  1  0  0  0  0
 36 35  2  0  0  0  0
 37 40  2  0  0  0  0
 38 36  1  0  0  0  0
 39 37  1  0  0  0  0
 40 34  1  0  0  0  0
 41 36  1  0  0  0  0
 41 39  2  0  0  0  0
M  END
>  <MODEL>
3

>  <REMARK>
 VINA RESULT:      -7.1      2.832      9.089
  Name = 
  16 active torsions:
  status: ('A' for Active; 'I' for Inactive)
    1  A    between atoms: C_5  and  C_28
    2  A    between atoms: C_5  and  C_35
    3  A    between atoms: C_7  and  C_11
    4  A    between atoms: C_7  and  C_37
    5  A    between atoms: O_9  and  C_11
    6  A    between atoms: O_9  and  C_31
    7  A    between atoms: C_10  and  O_12
    8  A    between atoms: C_10  and  C_28
    9  A    between atoms: C_11  and  C_39
   10  A    between atoms: O_12  and  C_23
   11  A    between atoms: C_15  and  C_17
   12  A    between atoms: C_15  and  C_39
   13  A    between atoms: C_17  and  C_30
   14  A    between atoms: C_21  and  C_23
   15  A    between atoms: C_23  and  C_26
   16  A    between atoms: C_29  and  C_30
                            x       y       z     vdW  Elec       q    Type
                         _______ _______ _______ _____ _____    ______ ____

>  <TORSDO>
F 16

$$$$
=
 OpenBabel11052411233D

 41 44  0  0  1  0  0  0  0  0999 V2000
  159.9510  210.4840  154.6890 C   0  0  0  0  0  0  0  0  0  0  0  0
  161.3670  208.4850  154.3510 C   0  0  0  0  0  3  0  0  0  0  0  0
  159.6990  210.8370  153.3470 C   0  0  0  0  0  0  0  0  0  0  0  0
  158.6330  211.6880  153.0570 C   0  0  0  0  0  3  0  0  0  0  0  0
  159.1750  211.0070  155.6760 N   0  0  0  0  0  0  0  0  0  0  0  0
  157.8220  212.1760  154.0840 C   0  0  0  0  0  0  0  0  0  0  0  0
  161.0530  209.5760  155.0550 C   0  0  0  0  0  3  0  0  0  0  0  0
  160.6560  208.9420  151.9440 C   0  0  2  0  0  3  0  0  0  0  0  0
  160.6420  210.4440  152.2490 C   0  0  0  0  0  2  0  0  0  0  0  0
  158.1310  211.8360  155.4070 C   0  0  0  0  0  3  0  0  0  0  0  0
  160.5550  208.0260  153.1730 C   0  0  0  0  0  2  0  0  0  0  0  0
  156.7000  213.1230  153.7490 C   0  0  1  0  0  3  0  0  0  0  0  0
  155.8870  213.5470  154.9060 C   0  0  0  0  0  0  0  0  0  0  0  0
  155.2210  213.8900  155.8520 C   0  0  0  0  0  3  0  0  0  0  0  0
  157.0850  214.1900  152.9050 O   0  0  0  0  0  0  0  0  0  0  0  0
  156.1520  214.3210  151.8600 C   0  0  0  0  0  2  0  0  0  0  0  0
  156.8700  214.3200  150.5190 C   0  0  0  0  0  2  0  0  0  0  0  0
  158.3810  214.3910  150.6990 C   0  0  0  0  0  2  0  0  0  0  0  0
  160.4610  213.4860  149.6310 C   0  0  0  0  0  3  0  0  0  0  0  0
  161.1330  212.9230  148.5390 C   0  0  0  0  0  3  0  0  0  0  0  0
  158.4050  213.5210  148.3470 C   0  0  0  0  0  3  0  0  0  0  0  0
  160.4410  212.6600  147.3510 C   0  0  0  0  0  3  0  0  0  0  0  0
  159.0770  212.9600  147.2550 C   0  0  0  0  0  3  0  0  0  0  0  0
  159.0960  213.7820  149.5380 C   0  0  0  0  0  0  0  0  0  0  0  0
  161.8110  208.6330  151.2190 O   0  0  0  0  0  0  0  0  0  0  0  0
  161.4740  207.5190  150.4370 C   0  0  1  0  0  3  0  0  0  0  0  0
  162.7740  207.9040  148.4590 O   0  0  0  0  0  1  0  0  0  0  0  0
  161.4660  207.8880  148.9520 C   0  0  1  0  0  3  0  0  0  0  0  0
  160.6380  206.8890  148.1550 C   0  0  0  0  0  2  0  0  0  0  0  0
  161.4040  206.3990  146.9350 C   0  0  0  0  0  2  0  0  0  0  0  0
  160.4620  206.2200  145.7570 C   0  0  0  0  0  2  0  0  0  0  0  0
  161.1190  205.3780  144.6800 C   0  0  0  0  0  2  0  0  0  0  0  0
  161.5610  204.1690  145.2230 O   0  0  0  0  0  1  0  0  0  0  0  0
  162.4350  206.3570  150.7230 C   0  0  0  0  0  2  0  0  0  0  0  0
  161.3780  204.2620  149.8250 C   0  0  0  0  0  3  0  0  0  0  0  0
  160.7380  203.0340  150.0210 C   0  0  0  0  0  0  0  0  0  0  0  0
  161.4300  204.6150  152.2210 C   0  0  0  0  0  3  0  0  0  0  0  0
  160.3980  202.2480  148.9300 O   0  0  0  0  0  1  0  0  0  0  0  0
  160.7880  203.3890  152.4160 C   0  0  0  0  0  3  0  0  0  0  0  0
  161.7240  205.0560  150.9260 C   0  0  0  0  0  0  0  0  0  0  0  0
  160.4430  202.5980  151.3150 C   0  0  0  0  0  3  0  0  0  0  0  0
  1  7  1  0  0  0  0
  1  5  1  0  0  0  0
  2  7  2  0  0  0  0
  3  1  2  0  0  0  0
  4  3  1  0  0  0  0
  4  6  2  0  0  0  0
  6 10  1  0  0  0  0
  8 25  1  1  0  0  0
  8  9  1  0  0  0  0
  8 11  1  0  0  0  0
  9  3  1  0  0  0  0
 10  5  2  0  0  0  0
 11  2  1  0  0  0  0
 12  6  1  0  0  0  0
 12 13  1  1  0  0  0
 13 14  3  0  0  0  0
 15 12  1  0  0  0  0
 16 15  1  0  0  0  0
 17 18  1  0  0  0  0
 17 16  1  0  0  0  0
 20 19  2  0  0  0  0
 21 24  2  0  0  0  0
 22 20  1  0  0  0  0
 23 22  2  0  0  0  0
 23 21  1  0  0  0  0
 24 19  1  0  0  0  0
 24 18  1  0  0  0  0
 26 34  1  6  0  0  0
 26 25  1  0  0  0  0
 28 27  1  6  0  0  0
 28 26  1  0  0  0  0
 29 28  1  0  0  0  0
 30 29  1  0  0  0  0
 31 30  1  0  0  0  0
 32 33  1  0  0  0  0
 32 31  1  0  0  0  0
 34 40  1  0  0  0  0
 35 36  2  0  0  0  0
 35 40  1  0  0  0  0
 36 41  1  0  0  0  0
 37 39  1  0  0  0  0
 38 36  1  0  0  0  0
 40 37  2  0  0  0  0
 41 39  2  0  0  0  0
M  END
>  <MODEL>
4

>  <REMARK>
 VINA RESULT:      -6.9      3.578      9.133
  Name = 
  16 active torsions:
  status: ('A' for Active; 'I' for Inactive)
    1  A    between atoms: C_5  and  C_28
    2  A    between atoms: C_5  and  C_35
    3  A    between atoms: C_7  and  C_11
    4  A    between atoms: C_7  and  C_37
    5  A    between atoms: O_9  and  C_11
    6  A    between atoms: O_9  and  C_31
    7  A    between atoms: C_10  and  O_12
    8  A    between atoms: C_10  and  C_28
    9  A    between atoms: C_11  and  C_39
   10  A    between atoms: O_12  and  C_23
   11  A    between atoms: C_15  and  C_17
   12  A    between atoms: C_15  and  C_39
   13  A    between atoms: C_17  and  C_30
   14  A    between atoms: C_21  and  C_23
   15  A    between atoms: C_23  and  C_26
   16  A    between atoms: C_29  and  C_30
                            x       y       z     vdW  Elec       q    Type
                         _______ _______ _______ _____ _____    ______ ____

>  <TORSDO>
F 16

$$$$
=
 OpenBabel11052411233D

 41 44  0  0  1  0  0  0  0  0999 V2000
  160.3240  209.8580  155.0220 C   0  0  0  0  0  0  0  0  0  0  0  0
  161.4450  207.6530  155.0680 C   0  0  0  0  0  3  0  0  0  0  0  0
  160.1120  209.9960  153.6350 C   0  0  0  0  0  0  0  0  0  0  0  0
  159.1710  210.9210  153.1810 C   0  0  0  0  0  3  0  0  0  0  0  0
  159.6380  210.6520  155.8880 N   0  0  0  0  0  0  0  0  0  0  0  0
  158.4460  211.6920  154.0910 C   0  0  0  0  0  0  0  0  0  0  0  0
  161.2930  208.8860  155.5620 C   0  0  0  0  0  3  0  0  0  0  0  0
  160.7820  207.7660  152.6080 C   0  0  2  0  0  3  0  0  0  0  0  0
  160.9800  209.2860  152.6390 C   0  0  0  0  0  2  0  0  0  0  0  0
  158.7180  211.5550  155.4590 C   0  0  0  0  0  3  0  0  0  0  0  0
  160.5660  207.1090  153.9790 C   0  0  0  0  0  2  0  0  0  0  0  0
  157.4640  212.7100  153.5750 C   0  0  1  0  0  3  0  0  0  0  0  0
  156.4570  213.1500  154.5620 C   0  0  0  0  0  0  0  0  0  0  0  0
  155.6340  213.5040  155.3690 C   0  0  0  0  0  3  0  0  0  0  0  0
  158.0650  213.7770  152.8660 O   0  0  0  0  0  0  0  0  0  0  0  0
  157.2850  214.0840  151.7360 C   0  0  0  0  0  2  0  0  0  0  0  0
  158.0700  213.7850  150.4670 C   0  0  0  0  0  2  0  0  0  0  0  0
  157.1630  213.2400  149.3700 C   0  0  0  0  0  2  0  0  0  0  0  0
  157.2840  212.5550  146.9610 C   0  0  0  0  0  3  0  0  0  0  0  0
  157.9400  212.5330  145.7240 C   0  0  0  0  0  3  0  0  0  0  0  0
  159.0950  213.8670  147.8980 C   0  0  0  0  0  3  0  0  0  0  0  0
  159.1730  213.1780  145.5750 C   0  0  0  0  0  3  0  0  0  0  0  0
  159.7510  213.8440  146.6620 C   0  0  0  0  0  3  0  0  0  0  0  0
  157.8590  213.2250  148.0480 C   0  0  0  0  0  0  0  0  0  0  0  0
  161.8750  207.1750  151.9680 O   0  0  0  0  0  0  0  0  0  0  0  0
  161.3270  206.2390  151.0790 C   0  0  1  0  0  3  0  0  0  0  0  0
  160.4100  206.9770  148.9900 O   0  0  0  0  0  1  0  0  0  0  0  0
  161.6070  206.6450  149.6310 C   0  0  1  0  0  3  0  0  0  0  0  0
  162.5550  207.8360  149.5810 C   0  0  0  0  0  2  0  0  0  0  0  0
  162.0060  208.9300  148.6780 C   0  0  0  0  0  2  0  0  0  0  0  0
  162.1280  210.2840  149.3550 C   0  0  0  0  0  2  0  0  0  0  0  0
  161.9010  211.3980  148.3500 C   0  0  0  0  0  2  0  0  0  0  0  0
  163.1110  212.0280  148.0540 O   0  0  0  0  0  1  0  0  0  0  0  0
  161.8680  204.8360  151.3860 C   0  0  0  0  0  2  0  0  0  0  0  0
  161.5530  203.9680  149.0490 C   0  0  0  0  0  3  0  0  0  0  0  0
  161.1070  202.9870  148.1580 C   0  0  0  0  0  0  0  0  0  0  0  0
  160.7360  202.6490  150.9100 C   0  0  0  0  0  3  0  0  0  0  0  0
  161.2940  203.1510  146.7940 O   0  0  0  0  0  1  0  0  0  0  0  0
  160.2890  201.6690  150.0190 C   0  0  0  0  0  3  0  0  0  0  0  0
  161.3660  203.8020  150.4270 C   0  0  0  0  0  0  0  0  0  0  0  0
  160.4750  201.8380  148.6430 C   0  0  0  0  0  3  0  0  0  0  0  0
  1  7  1  0  0  0  0
  1  5  1  0  0  0  0
  2  7  2  0  0  0  0
  3  1  2  0  0  0  0
  4  3  1  0  0  0  0
  4  6  2  0  0  0  0
  6 10  1  0  0  0  0
  8 25  1  1  0  0  0
  8  9  1  0  0  0  0
  8 11  1  0  0  0  0
  9  3  1  0  0  0  0
 10  5  2  0  0  0  0
 11  2  1  0  0  0  0
 12  6  1  0  0  0  0
 12 13  1  1  0  0  0
 13 14  3  0  0  0  0
 15 12  1  0  0  0  0
 16 15  1  0  0  0  0
 17 16  1  0  0  0  0
 18 17  1  0  0  0  0
 19 24  1  0  0  0  0
 20 19  2  0  0  0  0
 21 24  2  0  0  0  0
 22 20  1  0  0  0  0
 22 23  2  0  0  0  0
 23 21  1  0  0  0  0
 24 18  1  0  0  0  0
 26 34  1  1  0  0  0
 26 25  1  0  0  0  0
 28 27  1  1  0  0  0
 28 26  1  0  0  0  0
 29 28  1  0  0  0  0
 30 31  1  0  0  0  0
 30 29  1  0  0  0  0
 32 31  1  0  0  0  0
 33 32  1  0  0  0  0
 35 40  1  0  0  0  0
 36 41  1  0  0  0  0
 36 35  2  0  0  0  0
 38 36  1  0  0  0  0
 39 37  1  0  0  0  0
 40 37  2  0  0  0  0
 40 34  1  0  0  0  0
 41 39  2  0  0  0  0
M  END
>  <MODEL>
5

>  <REMARK>
 VINA RESULT:      -6.7      3.418      8.831
  Name = 
  16 active torsions:
  status: ('A' for Active; 'I' for Inactive)
    1  A    between atoms: C_5  and  C_28
    2  A    between atoms: C_5  and  C_35
    3  A    between atoms: C_7  and  C_11
    4  A    between atoms: C_7  and  C_37
    5  A    between atoms: O_9  and  C_11
    6  A    between atoms: O_9  and  C_31
    7  A    between atoms: C_10  and  O_12
    8  A    between atoms: C_10  and  C_28
    9  A    between atoms: C_11  and  C_39
   10  A    between atoms: O_12  and  C_23
   11  A    between atoms: C_15  and  C_17
   12  A    between atoms: C_15  and  C_39
   13  A    between atoms: C_17  and  C_30
   14  A    between atoms: C_21  and  C_23
   15  A    between atoms: C_23  and  C_26
   16  A    between atoms: C_29  and  C_30
                            x       y       z     vdW  Elec       q    Type
                         _______ _______ _______ _____ _____    ______ ____

>  <TORSDO>
F 16

$$$$
=
 OpenBabel11052411233D

 41 44  0  0  1  0  0  0  0  0999 V2000
  160.8900  208.0250  154.3650 C   0  0  0  0  0  0  0  0  0  0  0  0
  161.5610  205.8400  153.4200 C   0  0  0  0  0  3  0  0  0  0  0  0
  160.8270  208.7940  153.1850 C   0  0  0  0  0  0  0  0  0  0  0  0
  160.1220  209.9980  153.1960 C   0  0  0  0  0  3  0  0  0  0  0  0
  160.2970  208.4860  155.4990 N   0  0  0  0  0  0  0  0  0  0  0  0
  159.4830  210.4280  154.3600 C   0  0  0  0  0  0  0  0  0  0  0  0
  161.6070  206.7360  154.4100 C   0  0  0  0  0  3  0  0  0  0  0  0
  161.1430  207.1480  151.2710 C   0  0  2  0  0  3  0  0  0  0  0  0
  161.6240  208.4240  151.9700 C   0  0  0  0  0  2  0  0  0  0  0  0
  159.6060  209.6560  155.5230 C   0  0  0  0  0  3  0  0  0  0  0  0
  160.6900  206.0200  152.2100 C   0  0  0  0  0  2  0  0  0  0  0  0
  158.7610  211.7490  154.3580 C   0  0  1  0  0  3  0  0  0  0  0  0
  159.3110  212.7540  155.2900 C   0  0  0  0  0  0  0  0  0  0  0  0
  159.7630  213.5720  156.0520 C   0  0  0  0  0  3  0  0  0  0  0  0
  158.5030  212.2580  153.0640 O   0  0  0  0  0  0  0  0  0  0  0  0
  158.8150  213.6300  153.0290 C   0  0  0  0  0  2  0  0  0  0  0  0
  159.7000  213.9320  151.8290 C   0  0  0  0  0  2  0  0  0  0  0  0
  159.4010  212.9900  150.6690 C   0  0  0  0  0  2  0  0  0  0  0  0
  161.3810  211.9310  149.5530 C   0  0  0  0  0  3  0  0  0  0  0  0
  162.4140  211.9550  148.6090 C   0  0  0  0  0  3  0  0  0  0  0  0
  160.6530  214.1220  148.8140 C   0  0  0  0  0  3  0  0  0  0  0  0
  162.5670  213.0630  147.7670 C   0  0  0  0  0  3  0  0  0  0  0  0
  161.6860  214.1470  147.8710 C   0  0  0  0  0  3  0  0  0  0  0  0
  160.4970  213.0120  149.6550 C   0  0  0  0  0  0  0  0  0  0  0  0
  162.1540  206.6800  150.4250 O   0  0  0  0  0  0  0  0  0  0  0  0
  161.4920  206.1290  149.3190 C   0  0  1  0  0  3  0  0  0  0  0  0
  162.3690  208.0110  148.1210 O   0  0  0  0  0  1  0  0  0  0  0  0
  161.2400  207.1990  148.2560 C   0  0  1  0  0  3  0  0  0  0  0  0
  160.9170  206.5560  146.9140 C   0  0  0  0  0  2  0  0  0  0  0  0
  162.1870  206.2810  146.1230 C   0  0  0  0  0  2  0  0  0  0  0  0
  161.9580  205.1530  145.1310 C   0  0  0  0  0  2  0  0  0  0  0  0
  160.4790  205.0140  144.8250 C   0  0  0  0  0  2  0  0  0  0  0  0
  160.1900  203.6990  144.4540 O   0  0  0  0  0  1  0  0  0  0  0  0
  162.2940  204.9490  148.7530 C   0  0  0  0  0  2  0  0  0  0  0  0
  161.5270  202.8200  147.6600 C   0  0  0  0  0  3  0  0  0  0  0  0
  160.8310  201.6090  147.6980 C   0  0  0  0  0  0  0  0  0  0  0  0
  160.8300  203.2890  149.9330 C   0  0  0  0  0  3  0  0  0  0  0  0
  160.8340  200.7730  146.5910 O   0  0  0  0  0  1  0  0  0  0  0  0
  160.1330  202.0780  149.9700 C   0  0  0  0  0  3  0  0  0  0  0  0
  161.5260  203.6640  148.7780 C   0  0  0  0  0  0  0  0  0  0  0  0
  160.1340  201.2380  148.8520 C   0  0  0  0  0  3  0  0  0  0  0  0
  1  7  1  0  0  0  0
  1  5  1  0  0  0  0
  2  7  2  0  0  0  0
  3  4  1  0  0  0  0
  3  1  2  0  0  0  0
  4  6  2  0  0  0  0
  5 10  2  0  0  0  0
  6 10  1  0  0  0  0
  8 25  1  1  0  0  0
  8  9  1  0  0  0  0
  8 11  1  0  0  0  0
  9  3  1  0  0  0  0
 11  2  1  0  0  0  0
 12  6  1  0  0  0  0
 12 13  1  1  0  0  0
 13 14  3  0  0  0  0
 15 12  1  0  0  0  0
 16 15  1  0  0  0  0
 17 16  1  0  0  0  0
 18 17  1  0  0  0  0
 19 24  1  0  0  0  0
 20 19  2  0  0  0  0
 21 24  2  0  0  0  0
 22 23  2  0  0  0  0
 22 20  1  0  0  0  0
 23 21  1  0  0  0  0
 24 18  1  0  0  0  0
 26 34  1  6  0  0  0
 26 25  1  0  0  0  0
 28 27  1  6  0  0  0
 28 26  1  0  0  0  0
 29 28  1  0  0  0  0
 30 29  1  0  0  0  0
 31 30  1  0  0  0  0
 32 31  1  0  0  0  0
 33 32  1  0  0  0  0
 34 40  1  0  0  0  0
 35 36  2  0  0  0  0
 35 40  1  0  0  0  0
 36 41  1  0  0  0  0
 37 39  1  0  0  0  0
 38 36  1  0  0  0  0
 40 37  2  0  0  0  0
 41 39  2  0  0  0  0
M  END
>  <MODEL>
6

>  <REMARK>
 VINA RESULT:      -6.3      2.472      8.936
  Name = 
  16 active torsions:
  status: ('A' for Active; 'I' for Inactive)
    1  A    between atoms: C_5  and  C_28
    2  A    between atoms: C_5  and  C_35
    3  A    between atoms: C_7  and  C_11
    4  A    between atoms: C_7  and  C_37
    5  A    between atoms: O_9  and  C_11
    6  A    between atoms: O_9  and  C_31
    7  A    between atoms: C_10  and  O_12
    8  A    between atoms: C_10  and  C_28
    9  A    between atoms: C_11  and  C_39
   10  A    between atoms: O_12  and  C_23
   11  A    between atoms: C_15  and  C_17
   12  A    between atoms: C_15  and  C_39
   13  A    between atoms: C_17  and  C_30
   14  A    between atoms: C_21  and  C_23
   15  A    between atoms: C_23  and  C_26
   16  A    between atoms: C_29  and  C_30
                            x       y       z     vdW  Elec       q    Type
                         _______ _______ _______ _____ _____    ______ ____

>  <TORSDO>
F 16

$$$$
=
 OpenBabel11052411233D

 41 44  0  0  1  0  0  0  0  0999 V2000
  160.6220  208.0900  154.6530 C   0  0  0  0  0  0  0  0  0  0  0  0
  160.2810  210.2050  155.8910 C   0  0  0  0  0  3  0  0  0  0  0  0
  160.4210  208.5430  153.3330 C   0  0  0  0  0  0  0  0  0  0  0  0
  160.8840  207.7670  152.2710 C   0  0  0  0  0  3  0  0  0  0  0  0
  161.2300  206.8920  154.8660 N   0  0  0  0  0  0  0  0  0  0  0  0
  161.5460  206.5620  152.5160 C   0  0  0  0  0  0  0  0  0  0  0  0
  160.1690  208.8750  155.8170 C   0  0  0  0  0  3  0  0  0  0  0  0
  160.2260  211.0750  153.4940 C   0  0  2  0  0  3  0  0  0  0  0  0
  159.5880  209.7560  153.0440 C   0  0  0  0  0  2  0  0  0  0  0  0
  161.6880  206.1270  153.8400 C   0  0  0  0  0  3  0  0  0  0  0  0
  160.9760  211.0140  154.8330 C   0  0  0  0  0  2  0  0  0  0  0  0
  162.0030  205.7230  151.3510 C   0  0  1  0  0  3  0  0  0  0  0  0
  161.5180  204.3280  151.3690 C   0  0  0  0  0  0  0  0  0  0  0  0
  161.1260  203.1880  151.3810 C   0  0  0  0  0  3  0  0  0  0  0  0
  161.8560  206.3580  150.0960 O   0  0  0  0  0  0  0  0  0  0  0  0
  160.9090  205.6590  149.3250 C   0  0  0  0  0  2  0  0  0  0  0  0
  160.9870  206.1080  147.8740 C   0  0  0  0  0  2  0  0  0  0  0  0
  162.0090  205.2910  147.0940 C   0  0  0  0  0  2  0  0  0  0  0  0
  161.0540  203.5560  145.5550 C   0  0  0  0  0  3  0  0  0  0  0  0
  160.5810  202.2620  145.3110 C   0  0  0  0  0  3  0  0  0  0  0  0
  161.4890  202.9620  147.8650 C   0  0  0  0  0  3  0  0  0  0  0  0
  160.5610  201.3170  146.3450 C   0  0  0  0  0  3  0  0  0  0  0  0
  161.0140  201.6680  147.6220 C   0  0  0  0  0  3  0  0  0  0  0  0
  161.5130  203.9070  146.8310 C   0  0  0  0  0  0  0  0  0  0  0  0
  159.2410  212.0650  153.5490 O   0  0  0  0  0  0  0  0  0  0  0  0
  159.7460  213.1380  152.8010 C   0  0  1  0  0  3  0  0  0  0  0  0
  158.2720  212.5690  150.9970 O   0  0  0  0  0  1  0  0  0  0  0  0
  159.6040  212.8620  151.3030 C   0  0  1  0  0  3  0  0  0  0  0  0
  160.0560  214.0670  150.4900 C   0  0  0  0  0  2  0  0  0  0  0  0
  159.9870  213.7730  148.9980 C   0  0  0  0  0  2  0  0  0  0  0  0
  160.9790  212.6840  148.6290 C   0  0  0  0  0  2  0  0  0  0  0  0
  161.7380  213.0670  147.3720 C   0  0  0  0  0  2  0  0  0  0  0  0
  163.0760  213.3220  147.6810 O   0  0  0  0  0  1  0  0  0  0  0  0
  159.0450  214.4430  153.2020 C   0  0  0  0  0  2  0  0  0  0  0  0
  156.5390  214.2620  153.2260 C   0  0  0  0  0  3  0  0  0  0  0  0
  155.3370  214.0150  153.8960 C   0  0  0  0  0  0  0  0  0  0  0  0
  157.7610  213.8990  155.2860 C   0  0  0  0  0  3  0  0  0  0  0  0
  154.1340  214.0680  153.2070 O   0  0  0  0  0  1  0  0  0  0  0  0
  156.5590  213.6530  155.9560 C   0  0  0  0  0  3  0  0  0  0  0  0
  157.7530  214.2070  153.9210 C   0  0  0  0  0  0  0  0  0  0  0  0
  155.3470  213.7110  155.2610 C   0  0  0  0  0  3  0  0  0  0  0  0
  1  5  1  0  0  0  0
  1  7  1  0  0  0  0
  3  1  2  0  0  0  0
  4  6  2  0  0  0  0
  4  3  1  0  0  0  0
  6 10  1  0  0  0  0
  7  2  2  0  0  0  0
  8 25  1  1  0  0  0
  8 11  1  0  0  0  0
  9  3  1  0  0  0  0
  9  8  1  0  0  0  0
 10  5  2  0  0  0  0
 11  2  1  0  0  0  0
 12 13  1  6  0  0  0
 12  6  1  0  0  0  0
 13 14  3  0  0  0  0
 15 12  1  0  0  0  0
 16 15  1  0  0  0  0
 17 16  1  0  0  0  0
 18 17  1  0  0  0  0
 19 24  1  0  0  0  0
 20 19  2  0  0  0  0
 20 22  1  0  0  0  0
 22 23  2  0  0  0  0
 23 21  1  0  0  0  0
 24 18  1  0  0  0  0
 24 21  2  0  0  0  0
 26 34  1  1  0  0  0
 26 25  1  0  0  0  0
 28 27  1  1  0  0  0
 28 26  1  0  0  0  0
 29 28  1  0  0  0  0
 30 29  1  0  0  0  0
 31 30  1  0  0  0  0
 32 33  1  0  0  0  0
 32 31  1  0  0  0  0
 34 40  1  0  0  0  0
 35 36  2  0  0  0  0
 35 40  1  0  0  0  0
 36 41  1  0  0  0  0
 37 39  1  0  0  0  0
 38 36  1  0  0  0  0
 40 37  2  0  0  0  0
 41 39  2  0  0  0  0
M  END
>  <MODEL>
7

>  <REMARK>
 VINA RESULT:      -6.0      3.703      5.699
  Name = 
  16 active torsions:
  status: ('A' for Active; 'I' for Inactive)
    1  A    between atoms: C_5  and  C_28
    2  A    between atoms: C_5  and  C_35
    3  A    between atoms: C_7  and  C_11
    4  A    between atoms: C_7  and  C_37
    5  A    between atoms: O_9  and  C_11
    6  A    between atoms: O_9  and  C_31
    7  A    between atoms: C_10  and  O_12
    8  A    between atoms: C_10  and  C_28
    9  A    between atoms: C_11  and  C_39
   10  A    between atoms: O_12  and  C_23
   11  A    between atoms: C_15  and  C_17
   12  A    between atoms: C_15  and  C_39
   13  A    between atoms: C_17  and  C_30
   14  A    between atoms: C_21  and  C_23
   15  A    between atoms: C_23  and  C_26
   16  A    between atoms: C_29  and  C_30
                            x       y       z     vdW  Elec       q    Type
                         _______ _______ _______ _____ _____    ______ ____

>  <TORSDO>
F 16

$$$$
=
 OpenBabel11052411233D

 41 44  0  0  1  0  0  0  0  0999 V2000
  160.6740  209.0890  154.4040 C   0  0  0  0  0  0  0  0  0  0  0  0
  161.5190  206.8000  153.9980 C   0  0  0  0  0  3  0  0  0  0  0  0
  160.7160  209.6020  153.0910 C   0  0  0  0  0  0  0  0  0  0  0  0
  159.9740  210.7440  152.7840 C   0  0  0  0  0  3  0  0  0  0  0  0
  159.9430  209.7340  155.3530 N   0  0  0  0  0  0  0  0  0  0  0  0
  159.1950  211.3610  153.7650 C   0  0  0  0  0  0  0  0  0  0  0  0
  161.4240  207.8770  154.7830 C   0  0  0  0  0  3  0  0  0  0  0  0
  161.2980  207.6280  151.5960 C   0  0  2  0  0  3  0  0  0  0  0  0
  161.6560  209.0430  152.0650 C   0  0  0  0  0  2  0  0  0  0  0  0
  159.2150  210.8450  155.0670 C   0  0  0  0  0  3  0  0  0  0  0  0
  160.7820  206.6870  152.6940 C   0  0  0  0  0  2  0  0  0  0  0  0
  158.4340  212.6130  153.4190 C   0  0  1  0  0  3  0  0  0  0  0  0
  158.2990  213.5790  154.5290 C   0  0  0  0  0  0  0  0  0  0  0  0
  158.1930  214.3660  155.4360 C   0  0  0  0  0  3  0  0  0  0  0  0
  158.8310  213.2060  152.1980 O   0  0  0  0  0  0  0  0  0  0  0  0
  157.7120  213.7880  151.5740 C   0  0  0  0  0  2  0  0  0  0  0  0
  157.6120  213.3070  150.1340 C   0  0  0  0  0  2  0  0  0  0  0  0
  158.3070  214.2690  149.1780 C   0  0  0  0  0  2  0  0  0  0  0  0
  157.7830  213.2220  146.9610 C   0  0  0  0  0  3  0  0  0  0  0  0
  158.1820  212.5660  145.7910 C   0  0  0  0  0  3  0  0  0  0  0  0
  160.0850  213.2680  147.7200 C   0  0  0  0  0  3  0  0  0  0  0  0
  159.5320  212.2600  145.5850 C   0  0  0  0  0  3  0  0  0  0  0  0
  160.4840  212.6100  146.5500 C   0  0  0  0  0  3  0  0  0  0  0  0
  158.7340  213.5770  147.9260 C   0  0  0  0  0  0  0  0  0  0  0  0
  162.4120  207.0580  150.9710 O   0  0  0  0  0  0  0  0  0  0  0  0
  161.8970  206.2760  149.9280 C   0  0  1  0  0  3  0  0  0  0  0  0
  159.6110  205.6200  149.6220 O   0  0  0  0  0  1  0  0  0  0  0  0
  160.7350  205.4140  150.4270 C   0  0  1  0  0  3  0  0  0  0  0  0
  161.1120  203.9390  150.4020 C   0  0  0  0  0  2  0  0  0  0  0  0
  161.0240  203.3800  148.9890 C   0  0  0  0  0  2  0  0  0  0  0  0
  161.4730  201.9290  148.9680 C   0  0  0  0  0  2  0  0  0  0  0  0
  160.3370  201.0340  148.5080 C   0  0  0  0  0  2  0  0  0  0  0  0
  159.3520  200.9680  149.4950 O   0  0  0  0  0  1  0  0  0  0  0  0
  161.4730  207.1680  148.7540 C   0  0  0  0  0  2  0  0  0  0  0  0
  162.6740  205.6700  147.1340 C   0  0  0  0  0  3  0  0  0  0  0  0
  162.7420  204.9960  145.9100 C   0  0  0  0  0  0  0  0  0  0  0  0
  160.5200  206.5860  146.5080 C   0  0  0  0  0  3  0  0  0  0  0  0
  163.8420  204.2040  145.6150 O   0  0  0  0  0  1  0  0  0  0  0  0
  160.5890  205.9130  145.2850 C   0  0  0  0  0  3  0  0  0  0  0  0
  161.5630  206.4680  147.4340 C   0  0  0  0  0  0  0  0  0  0  0  0
  161.7000  205.1180  144.9860 C   0  0  0  0  0  3  0  0  0  0  0  0
  1  7  1  0  0  0  0
  1  5  1  0  0  0  0
  2  7  2  0  0  0  0
  3  1  2  0  0  0  0
  4  3  1  0  0  0  0
  4  6  2  0  0  0  0
  6 10  1  0  0  0  0
  8 25  1  1  0  0  0
  8  9  1  0  0  0  0
  8 11  1  0  0  0  0
  9  3  1  0  0  0  0
 10  5  2  0  0  0  0
 11  2  1  0  0  0  0
 12  6  1  0  0  0  0
 12 13  1  1  0  0  0
 13 14  3  0  0  0  0
 15 12  1  0  0  0  0
 16 15  1  0  0  0  0
 17 16  1  0  0  0  0
 18 17  1  0  0  0  0
 19 24  1  0  0  0  0
 20 19  2  0  0  0  0
 21 24  2  0  0  0  0
 22 20  1  0  0  0  0
 22 23  2  0  0  0  0
 23 21  1  0  0  0  0
 24 18  1  0  0  0  0
 26 34  1  6  0  0  0
 26 28  1  0  0  0  0
 26 25  1  0  0  0  0
 28 27  1  6  0  0  0
 29 28  1  0  0  0  0
 30 29  1  0  0  0  0
 31 30  1  0  0  0  0
 32 31  1  0  0  0  0
 32 33  1  0  0  0  0
 35 40  1  0  0  0  0
 36 35  2  0  0  0  0
 37 40  2  0  0  0  0
 38 36  1  0  0  0  0
 39 37  1  0  0  0  0
 40 34  1  0  0  0  0
 41 39  2  0  0  0  0
 41 36  1  0  0  0  0
M  END
>  <MODEL>
8

>  <REMARK>
 VINA RESULT:      -5.7      3.080      9.423
  Name = 
  16 active torsions:
  status: ('A' for Active; 'I' for Inactive)
    1  A    between atoms: C_5  and  C_28
    2  A    between atoms: C_5  and  C_35
    3  A    between atoms: C_7  and  C_11
    4  A    between atoms: C_7  and  C_37
    5  A    between atoms: O_9  and  C_11
    6  A    between atoms: O_9  and  C_31
    7  A    between atoms: C_10  and  O_12
    8  A    between atoms: C_10  and  C_28
    9  A    between atoms: C_11  and  C_39
   10  A    between atoms: O_12  and  C_23
   11  A    between atoms: C_15  and  C_17
   12  A    between atoms: C_15  and  C_39
   13  A    between atoms: C_17  and  C_30
   14  A    between atoms: C_21  and  C_23
   15  A    between atoms: C_23  and  C_26
   16  A    between atoms: C_29  and  C_30
                            x       y       z     vdW  Elec       q    Type
                         _______ _______ _______ _____ _____    ______ ____

>  <TORSDO>
F 16

$$$$
=
 OpenBabel11052411233D

 41 44  0  0  1  0  0  0  0  0999 V2000
  161.6990  210.0710  151.4390 C   0  0  0  0  0  0  0  0  0  0  0  0
  162.2910  209.9460  149.0400 C   0  0  0  0  0  3  0  0  0  0  0  0
  161.0730  208.8190  151.6030 C   0  0  0  0  0  0  0  0  0  0  0  0
  160.9140  208.3020  152.8890 C   0  0  0  0  0  3  0  0  0  0  0  0
  162.1040  210.7680  152.5350 N   0  0  0  0  0  0  0  0  0  0  0  0
  161.3780  209.0150  153.9960 C   0  0  0  0  0  0  0  0  0  0  0  0
  161.9100  210.6610  150.1030 C   0  0  0  0  0  3  0  0  0  0  0  0
  161.4400  207.5710  149.4160 C   0  0  2  0  0  3  0  0  0  0  0  0
  160.4390  208.1080  150.4450 C   0  0  0  0  0  2  0  0  0  0  0  0
  161.9560  210.2750  153.7930 C   0  0  0  0  0  3  0  0  0  0  0  0
  162.6390  208.4880  149.1330 C   0  0  0  0  0  2  0  0  0  0  0  0
  161.1610  208.4550  155.3760 C   0  0  1  0  0  3  0  0  0  0  0  0
  162.0500  209.0130  156.4150 C   0  0  0  0  0  0  0  0  0  0  0  0
  162.7760  209.4730  157.2610 C   0  0  0  0  0  3  0  0  0  0  0  0
  159.8020  208.3990  155.7650 O   0  0  0  0  0  0  0  0  0  0  0  0
  159.4750  209.5590  156.4920 C   0  0  0  0  0  2  0  0  0  0  0  0
  158.4820  210.4030  155.7060 C   0  0  0  0  0  2  0  0  0  0  0  0
  158.9760  211.8350  155.5470 C   0  0  0  0  0  2  0  0  0  0  0  0
  159.2380  212.4190  153.1220 C   0  0  0  0  0  3  0  0  0  0  0  0
  158.7590  213.0020  151.9440 C   0  0  0  0  0  3  0  0  0  0  0  0
  157.2070  213.0740  154.2720 C   0  0  0  0  0  3  0  0  0  0  0  0
  157.5050  213.6230  151.9290 C   0  0  0  0  0  3  0  0  0  0  0  0
  156.7290  213.6590  153.0940 C   0  0  0  0  0  3  0  0  0  0  0  0
  158.4610  212.4500  154.2870 C   0  0  0  0  0  0  0  0  0  0  0  0
  160.7660  207.2940  148.2230 O   0  0  0  0  0  0  0  0  0  0  0  0
  160.7660  205.8960  148.1090 C   0  0  1  0  0  3  0  0  0  0  0  0
  160.4590  206.5320  145.8170 O   0  0  0  0  0  1  0  0  0  0  0  0
  160.8620  205.4770  146.6410 C   0  0  1  0  0  3  0  0  0  0  0  0
  162.2880  205.0770  146.2890 C   0  0  0  0  0  2  0  0  0  0  0  0
  162.3010  204.0020  145.2120 C   0  0  0  0  0  2  0  0  0  0  0  0
  160.9200  203.3840  145.0670 C   0  0  0  0  0  2  0  0  0  0  0  0
  160.8920  202.0050  145.7000 C   0  0  0  0  0  2  0  0  0  0  0  0
  159.9030  201.2240  145.0980 O   0  0  0  0  0  1  0  0  0  0  0  0
  161.9070  205.2960  148.9420 C   0  0  0  0  0  2  0  0  0  0  0  0
  161.0750  202.9940  149.5110 C   0  0  0  0  0  3  0  0  0  0  0  0
  160.6520  202.0430  150.4440 C   0  0  0  0  0  0  0  0  0  0  0  0
  161.3570  204.6130  151.2910 C   0  0  0  0  0  3  0  0  0  0  0  0
  160.3060  200.7660  150.0250 O   0  0  0  0  0  1  0  0  0  0  0  0
  160.9330  203.6620  152.2240 C   0  0  0  0  0  3  0  0  0  0  0  0
  161.4260  204.2820  149.9330 C   0  0  0  0  0  0  0  0  0  0  0  0
  160.5810  202.3760  151.8000 C   0  0  0  0  0  3  0  0  0  0  0  0
  1  3  2  0  0  0  0
  1  5  1  0  0  0  0
  2 11  1  0  0  0  0
  2  7  2  0  0  0  0
  3  4  1  0  0  0  0
  4  6  2  0  0  0  0
  5 10  2  0  0  0  0
  6 12  1  0  0  0  0
  7  1  1  0  0  0  0
  8 25  1  6  0  0  0
  8  9  1  0  0  0  0
  9  3  1  0  0  0  0
 10  6  1  0  0  0  0
 11  8  1  0  0  0  0
 12 15  1  0  0  0  0
 12 13  1  1  0  0  0
 13 14  3  0  0  0  0
 15 16  1  0  0  0  0
 17 16  1  0  0  0  0
 18 17  1  0  0  0  0
 19 24  1  0  0  0  0
 20 19  2  0  0  0  0
 21 24  2  0  0  0  0
 22 20  1  0  0  0  0
 22 23  2  0  0  0  0
 23 21  1  0  0  0  0
 24 18  1  0  0  0  0
 26 25  1  0  0  0  0
 26 34  1  1  0  0  0
 28 27  1  6  0  0  0
 28 26  1  0  0  0  0
 29 28  1  0  0  0  0
 30 29  1  0  0  0  0
 31 30  1  0  0  0  0
 31 32  1  0  0  0  0
 33 32  1  0  0  0  0
 34 40  1  0  0  0  0
 35 40  2  0  0  0  0
 35 36  1  0  0  0  0
 36 41  2  0  0  0  0
 37 39  2  0  0  0  0
 38 36  1  0  0  0  0
 40 37  1  0  0  0  0
 41 39  1  0  0  0  0
M  END
>  <MODEL>
9

>  <REMARK>
 VINA RESULT:      -5.6      2.885      9.228
  Name = 
  16 active torsions:
  status: ('A' for Active; 'I' for Inactive)
    1  A    between atoms: C_5  and  C_28
    2  A    between atoms: C_5  and  C_35
    3  A    between atoms: C_7  and  C_11
    4  A    between atoms: C_7  and  C_37
    5  A    between atoms: O_9  and  C_11
    6  A    between atoms: O_9  and  C_31
    7  A    between atoms: C_10  and  O_12
    8  A    between atoms: C_10  and  C_28
    9  A    between atoms: C_11  and  C_39
   10  A    between atoms: O_12  and  C_23
   11  A    between atoms: C_15  and  C_17
   12  A    between atoms: C_15  and  C_39
   13  A    between atoms: C_17  and  C_30
   14  A    between atoms: C_21  and  C_23
   15  A    between atoms: C_23  and  C_26
   16  A    between atoms: C_29  and  C_30
                            x       y       z     vdW  Elec       q    Type
                         _______ _______ _______ _____ _____    ______ ____

>  <TORSDO>
F 16

$$$$
