=
 OpenBabel11042423103D

 29 30  0  0  1  0  0  0  0  0999 V2000
  158.3620  213.1820  153.3850 N   0  0  0  0  0  0  0  0  0  0  0  0
  161.6350  209.0660  152.5330 C   0  0  2  0  0  3  0  0  0  0  0  0
  160.7680  209.8270  153.5480 C   0  0  2  0  0  3  0  0  0  0  0  0
  159.6110  210.5910  152.8610 C   0  0  2  0  0  3  0  0  0  0  0  0
  157.8220  211.9950  153.9690 C   0  0  0  0  0  0  0  0  0  0  0  0
  160.0040  211.8810  152.1750 C   0  0  0  0  0  0  0  0  0  0  0  0
  161.4810  210.6690  150.5640 C   0  0  1  0  0  3  0  0  0  0  0  0
  159.3660  213.1490  152.5640 C   0  0  0  0  0  3  0  0  0  0  0  0
  162.4010  209.9850  151.5730 C   0  0  0  0  0  2  0  0  0  0  0  0
  156.8060  212.0640  154.7080 O   0  0  0  0  0  0  0  0  0  0  0  0
  158.4530  210.7330  153.7420 N   0  0  0  0  0  2  0  0  0  0  0  0
  160.8540  211.8980  151.1470 C   0  0  0  0  0  3  0  0  0  0  0  0
  161.0680  211.8140  154.8920 F   0  0  0  0  0  0  0  0  0  0  0  0
  161.6290  210.5830  154.5970 C   0  0  0  0  0  0  0  0  0  0  0  0
  162.8810  210.8090  154.0460 F   0  0  0  0  0  0  0  0  0  0  0  0
  161.8360  209.7940  155.8990 C   0  0  0  0  0  0  0  0  0  0  0  0
  161.7380  208.4340  155.6650 F   0  0  0  0  0  0  0  0  0  0  0  0
  163.0930  210.0640  156.4090 F   0  0  0  0  0  0  0  0  0  0  0  0
  160.9040  210.1670  156.8470 F   0  0  0  0  0  0  0  0  0  0  0  0
  161.6810  212.3050  148.6950 C   0  0  0  0  0  1  0  0  0  0  0  0
  162.2690  211.0570  149.3260 C   0  0  0  0  0  2  0  0  0  0  0  0
  160.8450  208.0780  151.8120 N   0  0  0  0  0  2  0  0  0  0  0  0
  160.9200  206.8330  152.5570 C   0  0  0  0  0  2  0  0  0  0  0  0
  161.7530  205.8320  151.7840 C   0  0  0  0  0  2  0  0  0  0  0  0
  160.8970  205.1240  150.7320 C   0  0  0  0  0  2  0  0  0  0  0  0
  160.2590  206.3180  148.8750 O   0  0  0  0  0  1  0  0  0  0  0  0
  161.2280  205.4990  149.3510 N   0  0  0  0  0  0  0  0  0  0  0  0
  160.7950  203.1040  149.3070 C   0  0  0  0  0  1  0  0  0  0  0  0
  161.2500  204.3100  148.5090 C   0  0  0  0  0  2  0  0  0  0  0  0
  1  5  1  0  0  0  0
  2 22  1  6  0  0  0
  2  3  1  0  0  0  0
  3 14  1  6  0  0  0
  4  6  1  1  0  0  0
  4  3  1  0  0  0  0
  4 11  1  0  0  0  0
  5 10  2  0  0  0  0
  6  8  1  0  0  0  0
  7 21  1  6  0  0  0
  7 12  1  0  0  0  0
  7  9  1  0  0  0  0
  8  1  2  0  0  0  0
  9  2  1  0  0  0  0
 11  5  1  0  0  0  0
 12  6  2  0  0  0  0
 14 13  1  0  0  0  0
 14 16  1  0  0  0  0
 15 14  1  0  0  0  0
 16 18  1  0  0  0  0
 16 19  1  0  0  0  0
 17 16  1  0  0  0  0
 20 21  1  0  0  0  0
 22 23  1  0  0  0  0
 24 23  1  0  0  0  0
 25 24  1  0  0  0  0
 26 27  1  0  0  0  0
 27 25  1  0  0  0  0
 29 28  1  0  0  0  0
 29 27  1  0  0  0  0
M  END
>  <MODEL>
1

>  <REMARK>
 VINA RESULT:      -5.3      0.000      0.000
  Name = 
  9 active torsions:
  status: ('A' for Active; 'I' for Inactive)
    1  A    between atoms: C_4  and  N_29
    2  A    between atoms: C_5  and  C_8
    3  A    between atoms: C_5  and  C_16
    4  A    between atoms: C_7  and  C_17
    5  A    between atoms: C_10  and  N_11
    6  A    between atoms: C_10  and  C_21
    7  A    between atoms: N_11  and  C_27
    8  A    between atoms: C_21  and  C_24
    9  A    between atoms: C_24  and  N_29
                            x       y       z     vdW  Elec       q    Type
                         _______ _______ _______ _____ _____    ______ ____

>  <TORSDO>
F 9

$$$$
=
 OpenBabel11042423103D

 29 30  0  0  1  0  0  0  0  0999 V2000
  162.1280  209.5240  157.2020 N   0  0  0  0  0  0  0  0  0  0  0  0
  160.9360  209.5110  152.0090 C   0  0  2  0  0  3  0  0  0  0  0  0
  161.0070  210.3300  153.3070 C   0  0  2  0  0  3  0  0  0  0  0  0
  162.0620  209.7670  154.2890 C   0  0  2  0  0  3  0  0  0  0  0  0
  162.6860  210.6750  156.5660 C   0  0  0  0  0  0  0  0  0  0  0  0
  161.6430  208.5290  155.0500 C   0  0  0  0  0  0  0  0  0  0  0  0
  161.4470  207.2000  152.9420 C   0  0  1  0  0  3  0  0  0  0  0  0
  161.6410  208.5320  156.5220 C   0  0  0  0  0  3  0  0  0  0  0  0
  160.4300  208.0780  152.2170 C   0  0  0  0  0  2  0  0  0  0  0  0
  163.2090  211.5850  157.2600 O   0  0  0  0  0  0  0  0  0  0  0  0
  162.6220  210.8110  155.1450 N   0  0  0  0  0  2  0  0  0  0  0  0
  161.3630  207.3830  154.4260 C   0  0  0  0  0  3  0  0  0  0  0  0
  159.2680  209.8250  154.9080 F   0  0  0  0  0  0  0  0  0  0  0  0
  159.5940  210.6680  153.8580 C   0  0  0  0  0  0  0  0  0  0  0  0
  158.6730  210.4570  152.8440 F   0  0  0  0  0  0  0  0  0  0  0  0
  159.4500  212.1270  154.3150 C   0  0  0  0  0  0  0  0  0  0  0  0
  158.1220  212.5140  154.2990 F   0  0  0  0  0  0  0  0  0  0  0  0
  159.9330  212.2580  155.6050 F   0  0  0  0  0  0  0  0  0  0  0  0
  160.1850  212.9670  153.5010 F   0  0  0  0  0  0  0  0  0  0  0  0
  160.9470  205.5720  151.1230 C   0  0  0  0  0  1  0  0  0  0  0  0
  161.2000  205.7400  152.6100 C   0  0  0  0  0  2  0  0  0  0  0  0
  162.2150  209.5300  151.3110 N   0  0  0  0  0  2  0  0  0  0  0  0
  162.0590  208.7520  150.0950 C   0  0  0  0  0  2  0  0  0  0  0  0
  162.2040  209.6620  148.8930 C   0  0  0  0  0  2  0  0  0  0  0  0
  161.9510  211.1170  149.2900 C   0  0  0  0  0  2  0  0  0  0  0  0
  163.0070  212.8720  148.2470 O   0  0  0  0  0  1  0  0  0  0  0  0
  161.9370  212.0460  148.1520 N   0  0  0  0  0  0  0  0  0  0  0  0
  160.8260  213.8340  149.3750 C   0  0  0  0  0  1  0  0  0  0  0  0
  160.7370  212.8730  148.2060 C   0  0  0  0  0  2  0  0  0  0  0  0
  2 22  1  1  0  0  0
  2  9  1  0  0  0  0
  2  3  1  0  0  0  0
  3 14  1  1  0  0  0
  3  4  1  0  0  0  0
  4  6  1  1  0  0  0
  4 11  1  0  0  0  0
  5  1  1  0  0  0  0
  5 10  2  0  0  0  0
  6  8  1  0  0  0  0
  7 21  1  1  0  0  0
  7 12  1  0  0  0  0
  8  1  2  0  0  0  0
  9  7  1  0  0  0  0
 11  5  1  0  0  0  0
 12  6  2  0  0  0  0
 14 16  1  0  0  0  0
 14 13  1  0  0  0  0
 15 14  1  0  0  0  0
 16 18  1  0  0  0  0
 17 16  1  0  0  0  0
 19 16  1  0  0  0  0
 20 21  1  0  0  0  0
 23 22  1  0  0  0  0
 24 25  1  0  0  0  0
 24 23  1  0  0  0  0
 27 29  1  0  0  0  0
 27 26  1  0  0  0  0
 27 25  1  0  0  0  0
 29 28  1  0  0  0  0
M  END
>  <MODEL>
2

>  <REMARK>
 VINA RESULT:      -4.8      3.011      5.376
  Name = 
  9 active torsions:
  status: ('A' for Active; 'I' for Inactive)
    1  A    between atoms: C_4  and  N_29
    2  A    between atoms: C_5  and  C_8
    3  A    between atoms: C_5  and  C_16
    4  A    between atoms: C_7  and  C_17
    5  A    between atoms: C_10  and  N_11
    6  A    between atoms: C_10  and  C_21
    7  A    between atoms: N_11  and  C_27
    8  A    between atoms: C_21  and  C_24
    9  A    between atoms: C_24  and  N_29
                            x       y       z     vdW  Elec       q    Type
                         _______ _______ _______ _____ _____    ______ ____

>  <TORSDO>
F 9

$$$$
=
 OpenBabel11042423103D

 29 30  0  0  1  0  0  0  0  0999 V2000
  158.5260  212.2370  157.2600 N   0  0  0  0  0  0  0  0  0  0  0  0
  160.8060  210.2270  152.8840 C   0  0  2  0  0  3  0  0  0  0  0  0
  160.0790  211.4230  153.5180 C   0  0  2  0  0  3  0  0  0  0  0  0
  160.2850  211.4780  155.0500 C   0  0  2  0  0  3  0  0  0  0  0  0
  159.3880  213.2080  156.6630 C   0  0  0  0  0  0  0  0  0  0  0  0
  159.4530  210.5010  155.8510 C   0  0  0  0  0  0  0  0  0  0  0  0
  160.5700  208.5420  154.7750 C   0  0  1  0  0  3  0  0  0  0  0  0
  158.5400  210.9920  156.8960 C   0  0  0  0  0  3  0  0  0  0  0  0
  160.2430  208.8680  153.3190 C   0  0  0  0  0  2  0  0  0  0  0  0
  159.3920  214.3920  157.0900 O   0  0  0  0  0  0  0  0  0  0  0  0
  160.2210  212.8470  155.5600 N   0  0  0  0  0  2  0  0  0  0  0  0
  159.5890  209.1820  155.7080 C   0  0  0  0  0  3  0  0  0  0  0  0
  157.7030  211.3470  153.9550 F   0  0  0  0  0  0  0  0  0  0  0  0
  158.6380  211.5880  152.9620 C   0  0  0  0  0  0  0  0  0  0  0  0
  158.4490  210.6440  151.9650 F   0  0  0  0  0  0  0  0  0  0  0  0
  158.3770  212.9700  152.3430 C   0  0  0  0  0  0  0  0  0  0  0  0
  159.5630  213.6650  152.1860 F   0  0  0  0  0  0  0  0  0  0  0  0
  157.7870  212.8160  151.1010 F   0  0  0  0  0  0  0  0  0  0  0  0
  157.5150  213.7020  153.1340 F   0  0  0  0  0  0  0  0  0  0  0  0
  161.2040  206.3300  153.8180 C   0  0  0  0  0  1  0  0  0  0  0  0
  160.5430  207.0390  154.9850 C   0  0  0  0  0  2  0  0  0  0  0  0
  162.2430  210.3100  153.1150 N   0  0  0  0  0  2  0  0  0  0  0  0
  162.9010  210.1120  151.8360 C   0  0  0  0  0  2  0  0  0  0  0  0
  161.8580  210.0380  150.7390 C   0  0  0  0  0  2  0  0  0  0  0  0
  162.1480  208.8610  149.8050 C   0  0  0  0  0  2  0  0  0  0  0  0
  162.1400  206.7850  150.7910 O   0  0  0  0  0  1  0  0  0  0  0  0
  161.3600  207.6590  150.1090 N   0  0  0  0  0  0  0  0  0  0  0  0
  162.0600  207.1310  147.8370 C   0  0  0  0  0  1  0  0  0  0  0  0
  160.9550  207.0090  148.8680 C   0  0  0  0  0  2  0  0  0  0  0  0
  2 22  1  1  0  0  0
  2  9  1  0  0  0  0
  2  3  1  0  0  0  0
  3 14  1  1  0  0  0
  3  4  1  0  0  0  0
  4 11  1  1  0  0  0
  4  6  1  0  0  0  0
  5 10  2  0  0  0  0
  5  1  1  0  0  0  0
  6  8  1  0  0  0  0
  7 21  1  6  0  0  0
  7 12  1  0  0  0  0
  8  1  2  0  0  0  0
  9  7  1  0  0  0  0
 11  5  1  0  0  0  0
 12  6  2  0  0  0  0
 14 13  1  0  0  0  0
 15 14  1  0  0  0  0
 16 14  1  0  0  0  0
 16 19  1  0  0  0  0
 17 16  1  0  0  0  0
 18 16  1  0  0  0  0
 20 21  1  0  0  0  0
 23 22  1  0  0  0  0
 24 23  1  0  0  0  0
 25 27  1  0  0  0  0
 25 24  1  0  0  0  0
 27 26  1  0  0  0  0
 28 29  1  0  0  0  0
 29 27  1  0  0  0  0
M  END
>  <MODEL>
3

>  <REMARK>
 VINA RESULT:      -4.2      2.898      4.589
  Name = 
  9 active torsions:
  status: ('A' for Active; 'I' for Inactive)
    1  A    between atoms: C_4  and  N_29
    2  A    between atoms: C_5  and  C_8
    3  A    between atoms: C_5  and  C_16
    4  A    between atoms: C_7  and  C_17
    5  A    between atoms: C_10  and  N_11
    6  A    between atoms: C_10  and  C_21
    7  A    between atoms: N_11  and  C_27
    8  A    between atoms: C_21  and  C_24
    9  A    between atoms: C_24  and  N_29
                            x       y       z     vdW  Elec       q    Type
                         _______ _______ _______ _____ _____    ______ ____

>  <TORSDO>
F 9

$$$$
=
 OpenBabel11042423103D

 29 30  0  0  1  0  0  0  0  0999 V2000
  161.6180  204.3790  151.5970 N   0  0  0  0  0  0  0  0  0  0  0  0
  160.7010  209.5710  152.3680 C   0  0  2  0  0  3  0  0  0  0  0  0
  160.9380  208.4470  151.3460 C   0  0  2  0  0  3  0  0  0  0  0  0
  160.5060  207.0670  151.8960 C   0  0  2  0  0  3  0  0  0  0  0  0
  160.6010  204.8370  150.7040 C   0  0  0  0  0  0  0  0  0  0  0  0
  161.4670  206.4290  152.8740 C   0  0  0  0  0  0  0  0  0  0  0  0
  161.1560  208.2870  154.5170 C   0  0  1  0  0  3  0  0  0  0  0  0
  162.0310  205.0980  152.5950 C   0  0  0  0  0  3  0  0  0  0  0  0
  161.5760  209.4510  153.6220 C   0  0  0  0  0  2  0  0  0  0  0  0
  160.1820  204.0830  149.7890 O   0  0  0  0  0  0  0  0  0  0  0  0
  160.0830  206.1630  150.8270 N   0  0  0  0  0  2  0  0  0  0  0  0
  161.7540  206.9970  154.0470 C   0  0  0  0  0  3  0  0  0  0  0  0
  163.1640  207.5430  151.0800 F   0  0  0  0  0  0  0  0  0  0  0  0
  162.3280  208.5660  150.6640 C   0  0  0  0  0  0  0  0  0  0  0  0
  162.9000  209.7670  151.0560 F   0  0  0  0  0  0  0  0  0  0  0  0
  162.2560  208.5700  149.1290 C   0  0  0  0  0  0  0  0  0  0  0  0
  163.2520  207.7720  148.5930 F   0  0  0  0  0  0  0  0  0  0  0  0
  161.0290  208.0770  148.7230 F   0  0  0  0  0  0  0  0  0  0  0  0
  162.3800  209.8550  148.6390 F   0  0  0  0  0  0  0  0  0  0  0  0
  161.9610  210.0080  156.1280 C   0  0  0  0  0  1  0  0  0  0  0  0
  161.6000  208.5460  155.9450 C   0  0  0  0  0  2  0  0  0  0  0  0
  159.2890  209.6740  152.7090 N   0  0  0  0  0  2  0  0  0  0  0  0
  158.9570  211.0870  152.7630 C   0  0  0  0  0  2  0  0  0  0  0  0
  158.5080  211.4470  154.1640 C   0  0  0  0  0  2  0  0  0  0  0  0
  157.5350  212.6280  154.1280 C   0  0  0  0  0  2  0  0  0  0  0  0
  155.9850  213.3190  155.6770 O   0  0  0  0  0  1  0  0  0  0  0  0
  156.2430  212.3480  154.7670 N   0  0  0  0  0  0  0  0  0  0  0  0
  155.2070  210.1580  155.0100 C   0  0  0  0  0  1  0  0  0  0  0  0
  156.3120  211.0810  155.4850 C   0  0  0  0  0  2  0  0  0  0  0  0
  1  8  2  0  0  0  0
  2 22  1  1  0  0  0
  2  9  1  0  0  0  0
  3 14  1  1  0  0  0
  3  4  1  0  0  0  0
  3  2  1  0  0  0  0
  4 11  1  6  0  0  0
  4  6  1  0  0  0  0
  5 11  1  0  0  0  0
  5  1  1  0  0  0  0
  6 12  2  0  0  0  0
  7 21  1  1  0  0  0
  8  6  1  0  0  0  0
  9  7  1  0  0  0  0
 10  5  2  0  0  0  0
 12  7  1  0  0  0  0
 14 15  1  0  0  0  0
 14 13  1  0  0  0  0
 16 14  1  0  0  0  0
 17 16  1  0  0  0  0
 18 16  1  0  0  0  0
 19 16  1  0  0  0  0
 21 20  1  0  0  0  0
 22 23  1  0  0  0  0
 23 24  1  0  0  0  0
 25 24  1  0  0  0  0
 25 27  1  0  0  0  0
 27 29  1  0  0  0  0
 27 26  1  0  0  0  0
 28 29  1  0  0  0  0
M  END
>  <MODEL>
4

>  <REMARK>
 VINA RESULT:      -4.1      2.696      7.182
  Name = 
  9 active torsions:
  status: ('A' for Active; 'I' for Inactive)
    1  A    between atoms: C_4  and  N_29
    2  A    between atoms: C_5  and  C_8
    3  A    between atoms: C_5  and  C_16
    4  A    between atoms: C_7  and  C_17
    5  A    between atoms: C_10  and  N_11
    6  A    between atoms: C_10  and  C_21
    7  A    between atoms: N_11  and  C_27
    8  A    between atoms: C_21  and  C_24
    9  A    between atoms: C_24  and  N_29
                            x       y       z     vdW  Elec       q    Type
                         _______ _______ _______ _____ _____    ______ ____

>  <TORSDO>
F 9

$$$$
=
 OpenBabel11042423103D

 29 30  0  0  1  0  0  0  0  0999 V2000
  161.5770  204.3740  151.4020 N   0  0  0  0  0  0  0  0  0  0  0  0
  160.7450  209.5460  152.3750 C   0  0  2  0  0  3  0  0  0  0  0  0
  160.9720  208.4610  151.3110 C   0  0  2  0  0  3  0  0  0  0  0  0
  160.5100  207.0670  151.7990 C   0  0  2  0  0  3  0  0  0  0  0  0
  160.5770  204.8870  150.5190 C   0  0  0  0  0  0  0  0  0  0  0  0
  161.4500  206.3730  152.7600 C   0  0  0  0  0  0  0  0  0  0  0  0
  161.1550  208.1680  154.4740 C   0  0  1  0  0  3  0  0  0  0  0  0
  161.9920  205.0440  152.4320 C   0  0  0  0  0  3  0  0  0  0  0  0
  161.6050  209.3590  153.6310 C   0  0  0  0  0  2  0  0  0  0  0  0
  160.1540  204.1770  149.5690 O   0  0  0  0  0  0  0  0  0  0  0  0
  160.0820  206.2160  150.6910 N   0  0  0  0  0  2  0  0  0  0  0  0
  161.7350  206.8870  153.9570 C   0  0  0  0  0  3  0  0  0  0  0  0
  163.2070  207.5670  151.0830 F   0  0  0  0  0  0  0  0  0  0  0  0
  162.3710  208.5820  150.6470 C   0  0  0  0  0  0  0  0  0  0  0  0
  162.9310  209.7880  151.0370 F   0  0  0  0  0  0  0  0  0  0  0  0
  162.3210  208.5730  149.1110 C   0  0  0  0  0  0  0  0  0  0  0  0
  161.0970  208.1030  148.6670 F   0  0  0  0  0  0  0  0  0  0  0  0
  162.4980  209.8600  148.6350 F   0  0  0  0  0  0  0  0  0  0  0  0
  163.3320  207.7860  148.5960 F   0  0  0  0  0  0  0  0  0  0  0  0
  160.6550  207.6170  156.8520 C   0  0  0  0  0  1  0  0  0  0  0  0
  161.5890  208.3600  155.9150 C   0  0  0  0  0  2  0  0  0  0  0  0
  159.3310  209.6610  152.7070 N   0  0  0  0  0  2  0  0  0  0  0  0
  159.0130  211.0770  152.7640 C   0  0  0  0  0  2  0  0  0  0  0  0
  158.0520  211.3310  153.9070 C   0  0  0  0  0  2  0  0  0  0  0  0
  158.6520  210.8460  155.2280 C   0  0  0  0  0  2  0  0  0  0  0  0
  157.2540  212.4640  156.0700 O   0  0  0  0  0  1  0  0  0  0  0  0
  158.3420  211.7140  156.3720 N   0  0  0  0  0  0  0  0  0  0  0  0
  160.7680  211.8820  156.4980 C   0  0  0  0  0  1  0  0  0  0  0  0
  159.4530  212.6280  156.6110 C   0  0  0  0  0  2  0  0  0  0  0  0
  1  8  2  0  0  0  0
  2 22  1  1  0  0  0
  2  9  1  0  0  0  0
  3 14  1  1  0  0  0
  3  4  1  0  0  0  0
  3  2  1  0  0  0  0
  4 11  1  6  0  0  0
  4  6  1  0  0  0  0
  5 11  1  0  0  0  0
  5  1  1  0  0  0  0
  6 12  2  0  0  0  0
  7 21  1  1  0  0  0
  8  6  1  0  0  0  0
  9  7  1  0  0  0  0
 10  5  2  0  0  0  0
 12  7  1  0  0  0  0
 14 15  1  0  0  0  0
 14 13  1  0  0  0  0
 16 14  1  0  0  0  0
 17 16  1  0  0  0  0
 18 16  1  0  0  0  0
 19 16  1  0  0  0  0
 21 20  1  0  0  0  0
 22 23  1  0  0  0  0
 23 24  1  0  0  0  0
 24 25  1  0  0  0  0
 25 27  1  0  0  0  0
 26 27  1  0  0  0  0
 27 29  1  0  0  0  0
 28 29  1  0  0  0  0
M  END
>  <MODEL>
5

>  <REMARK>
 VINA RESULT:      -4.0      2.741      7.249
  Name = 
  9 active torsions:
  status: ('A' for Active; 'I' for Inactive)
    1  A    between atoms: C_4  and  N_29
    2  A    between atoms: C_5  and  C_8
    3  A    between atoms: C_5  and  C_16
    4  A    between atoms: C_7  and  C_17
    5  A    between atoms: C_10  and  N_11
    6  A    between atoms: C_10  and  C_21
    7  A    between atoms: N_11  and  C_27
    8  A    between atoms: C_21  and  C_24
    9  A    between atoms: C_24  and  N_29
                            x       y       z     vdW  Elec       q    Type
                         _______ _______ _______ _____ _____    ______ ____

>  <TORSDO>
F 9

$$$$
=
 OpenBabel11042423103D

 29 30  0  0  1  0  0  0  0  0999 V2000
  161.5790  204.4180  151.4260 N   0  0  0  0  0  0  0  0  0  0  0  0
  160.7400  209.5940  152.3700 C   0  0  2  0  0  3  0  0  0  0  0  0
  160.9690  208.5030  151.3120 C   0  0  2  0  0  3  0  0  0  0  0  0
  160.5080  207.1120  151.8070 C   0  0  2  0  0  3  0  0  0  0  0  0
  160.5790  204.9250  150.5390 C   0  0  0  0  0  0  0  0  0  0  0  0
  161.4480  206.4240  152.7730 C   0  0  0  0  0  0  0  0  0  0  0  0
  161.1490  208.2280  154.4770 C   0  0  1  0  0  3  0  0  0  0  0  0
  161.9920  205.0940  152.4530 C   0  0  0  0  0  3  0  0  0  0  0  0
  161.5990  209.4150  153.6290 C   0  0  0  0  0  2  0  0  0  0  0  0
  160.1580  204.2100  149.5930 O   0  0  0  0  0  0  0  0  0  0  0  0
  160.0820  206.2540  150.7030 N   0  0  0  0  0  2  0  0  0  0  0  0
  161.7310  206.9450  153.9680 C   0  0  0  0  0  3  0  0  0  0  0  0
  163.2010  207.6030  151.0820 F   0  0  0  0  0  0  0  0  0  0  0  0
  162.3690  208.6220  150.6490 C   0  0  0  0  0  0  0  0  0  0  0  0
  162.9330  209.8260  151.0440 F   0  0  0  0  0  0  0  0  0  0  0  0
  162.3190  208.6190  149.1140 C   0  0  0  0  0  0  0  0  0  0  0  0
  161.1070  208.1220  148.6670 F   0  0  0  0  0  0  0  0  0  0  0  0
  162.4640  209.9130  148.6430 F   0  0  0  0  0  0  0  0  0  0  0  0
  163.3490  207.8610  148.5940 F   0  0  0  0  0  0  0  0  0  0  0  0
  160.6860  207.6380  156.8530 C   0  0  0  0  0  1  0  0  0  0  0  0
  161.5820  208.4280  155.9180 C   0  0  0  0  0  2  0  0  0  0  0  0
  159.3260  209.7100  152.7000 N   0  0  0  0  0  2  0  0  0  0  0  0
  159.0920  211.0740  153.1400 C   0  0  0  0  0  2  0  0  0  0  0  0
  159.5470  212.0360  152.0610 C   0  0  0  0  0  2  0  0  0  0  0  0
  158.3980  212.9560  151.6460 C   0  0  0  0  0  2  0  0  0  0  0  0
  157.9150  213.3330  149.4310 O   0  0  0  0  0  1  0  0  0  0  0  0
  158.6900  213.7660  150.4560 N   0  0  0  0  0  0  0  0  0  0  0  0
  160.1700  213.3650  148.5650 C   0  0  0  0  0  1  0  0  0  0  0  0
  160.0820  213.5790  150.0630 C   0  0  0  0  0  2  0  0  0  0  0  0
  1  8  2  0  0  0  0
  2 22  1  1  0  0  0
  2  9  1  0  0  0  0
  3 14  1  1  0  0  0
  3  4  1  0  0  0  0
  3  2  1  0  0  0  0
  4 11  1  6  0  0  0
  4  6  1  0  0  0  0
  5 11  1  0  0  0  0
  5  1  1  0  0  0  0
  6 12  2  0  0  0  0
  7 21  1  1  0  0  0
  8  6  1  0  0  0  0
  9  7  1  0  0  0  0
 10  5  2  0  0  0  0
 12  7  1  0  0  0  0
 14 15  1  0  0  0  0
 14 13  1  0  0  0  0
 16 14  1  0  0  0  0
 17 16  1  0  0  0  0
 18 16  1  0  0  0  0
 19 16  1  0  0  0  0
 21 20  1  0  0  0  0
 22 23  1  0  0  0  0
 24 23  1  0  0  0  0
 25 24  1  0  0  0  0
 26 27  1  0  0  0  0
 27 25  1  0  0  0  0
 28 29  1  0  0  0  0
 29 27  1  0  0  0  0
M  END
>  <MODEL>
6

>  <REMARK>
 VINA RESULT:      -4.0      2.849      6.917
  Name = 
  9 active torsions:
  status: ('A' for Active; 'I' for Inactive)
    1  A    between atoms: C_4  and  N_29
    2  A    between atoms: C_5  and  C_8
    3  A    between atoms: C_5  and  C_16
    4  A    between atoms: C_7  and  C_17
    5  A    between atoms: C_10  and  N_11
    6  A    between atoms: C_10  and  C_21
    7  A    between atoms: N_11  and  C_27
    8  A    between atoms: C_21  and  C_24
    9  A    between atoms: C_24  and  N_29
                            x       y       z     vdW  Elec       q    Type
                         _______ _______ _______ _____ _____    ______ ____

>  <TORSDO>
F 9

$$$$
=
 OpenBabel11042423103D

 29 30  0  0  1  0  0  0  0  0999 V2000
  160.8350  200.6000  146.4520 N   0  0  0  0  0  0  0  0  0  0  0  0
  161.3620  205.4250  148.6490 C   0  0  2  0  0  3  0  0  0  0  0  0
  161.4290  204.5860  147.3630 C   0  0  2  0  0  3  0  0  0  0  0  0
  160.5250  203.3340  147.4430 C   0  0  2  0  0  3  0  0  0  0  0  0
  160.1640  201.5800  145.6560 C   0  0  0  0  0  0  0  0  0  0  0  0
  161.0760  202.1880  148.2620 C   0  0  0  0  0  0  0  0  0  0  0  0
  161.0470  203.5600  150.3510 C   0  0  1  0  0  3  0  0  0  0  0  0
  161.2640  200.8630  147.6480 C   0  0  0  0  0  3  0  0  0  0  0  0
  161.9370  204.7080  149.8780 C   0  0  0  0  0  2  0  0  0  0  0  0
  159.7040  201.2650  144.5280 O   0  0  0  0  0  0  0  0  0  0  0  0
  160.0440  202.9240  146.1240 N   0  0  0  0  0  2  0  0  0  0  0  0
  161.3120  202.3100  149.5690 C   0  0  0  0  0  3  0  0  0  0  0  0
  163.3800  203.1660  147.2190 F   0  0  0  0  0  0  0  0  0  0  0  0
  162.8880  204.4110  146.8600 C   0  0  0  0  0  0  0  0  0  0  0  0
  163.6760  205.3710  147.4760 F   0  0  0  0  0  0  0  0  0  0  0  0
  163.0370  204.5980  145.3430 C   0  0  0  0  0  0  0  0  0  0  0  0
  161.9470  204.0650  144.6770 F   0  0  0  0  0  0  0  0  0  0  0  0
  163.1170  205.9480  145.0480 F   0  0  0  0  0  0  0  0  0  0  0  0
  164.1940  203.9950  144.8890 F   0  0  0  0  0  0  0  0  0  0  0  0
  161.1910  204.5680  152.6250 C   0  0  0  0  0  1  0  0  0  0  0  0
  161.2980  203.2850  151.8220 C   0  0  0  0  0  2  0  0  0  0  0  0
  160.0050  205.8980  148.8920 N   0  0  0  0  0  2  0  0  0  0  0  0
  160.0790  206.9200  149.9210 C   0  0  0  0  0  2  0  0  0  0  0  0
  161.2550  207.8320  149.6420 C   0  0  0  0  0  2  0  0  0  0  0  0
  161.9610  208.2080  150.9460 C   0  0  0  0  0  2  0  0  0  0  0  0
  162.7230  210.0990  152.0080 O   0  0  0  0  0  1  0  0  0  0  0  0
  161.6230  209.5520  151.4340 N   0  0  0  0  0  0  0  0  0  0  0  0
  160.8700  208.2710  153.3620 C   0  0  0  0  0  1  0  0  0  0  0  0
  160.5930  209.4580  152.4610 C   0  0  0  0  0  2  0  0  0  0  0  0
  1  8  2  0  0  0  0
  2 22  1  1  0  0  0
  2  9  1  0  0  0  0
  3 14  1  1  0  0  0
  3  4  1  0  0  0  0
  3  2  1  0  0  0  0
  4 11  1  6  0  0  0
  4  6  1  0  0  0  0
  5 11  1  0  0  0  0
  5  1  1  0  0  0  0
  6 12  2  0  0  0  0
  7 21  1  1  0  0  0
  8  6  1  0  0  0  0
  9  7  1  0  0  0  0
 10  5  2  0  0  0  0
 12  7  1  0  0  0  0
 14 13  1  0  0  0  0
 14 15  1  0  0  0  0
 16 14  1  0  0  0  0
 17 16  1  0  0  0  0
 18 16  1  0  0  0  0
 19 16  1  0  0  0  0
 21 20  1  0  0  0  0
 22 23  1  0  0  0  0
 24 23  1  0  0  0  0
 24 25  1  0  0  0  0
 25 27  1  0  0  0  0
 27 26  1  0  0  0  0
 27 29  1  0  0  0  0
 29 28  1  0  0  0  0
M  END
>  <MODEL>
7

>  <REMARK>
 VINA RESULT:      -3.3      5.113      9.540
  Name = 
  9 active torsions:
  status: ('A' for Active; 'I' for Inactive)
    1  A    between atoms: C_4  and  N_29
    2  A    between atoms: C_5  and  C_8
    3  A    between atoms: C_5  and  C_16
    4  A    between atoms: C_7  and  C_17
    5  A    between atoms: C_10  and  N_11
    6  A    between atoms: C_10  and  C_21
    7  A    between atoms: N_11  and  C_27
    8  A    between atoms: C_21  and  C_24
    9  A    between atoms: C_24  and  N_29
                            x       y       z     vdW  Elec       q    Type
                         _______ _______ _______ _____ _____    ______ ____

>  <TORSDO>
F 9

$$$$
=
 OpenBabel11042423103D

 29 30  0  0  1  0  0  0  0  0999 V2000
  160.4170  211.7470  152.4960 N   0  0  0  0  0  0  0  0  0  0  0  0
  161.2780  206.5050  152.0900 C   0  0  2  0  0  3  0  0  0  0  0  0
  160.8210  207.6640  152.9890 C   0  0  2  0  0  3  0  0  0  0  0  0
  160.2570  208.8460  152.1650 C   0  0  2  0  0  3  0  0  0  0  0  0
  159.3130  211.0220  153.0430 C   0  0  0  0  0  0  0  0  0  0  0  0
  161.2930  209.7240  151.4980 C   0  0  0  0  0  0  0  0  0  0  0  0
  162.1030  207.8310  150.0810 C   0  0  1  0  0  3  0  0  0  0  0  0
  161.3360  211.1660  151.7890 C   0  0  0  0  0  3  0  0  0  0  0  0
  162.4760  206.8580  151.1980 C   0  0  0  0  0  2  0  0  0  0  0  0
  158.4070  211.6340  153.6670 O   0  0  0  0  0  0  0  0  0  0  0  0
  159.2530  209.6010  152.9130 N   0  0  0  0  0  2  0  0  0  0  0  0
  162.1210  209.2480  150.5670 C   0  0  0  0  0  3  0  0  0  0  0  0
  162.6300  209.0680  153.7660 F   0  0  0  0  0  0  0  0  0  0  0  0
  161.8530  207.9730  154.1080 C   0  0  0  0  0  0  0  0  0  0  0  0
  162.6960  206.8790  154.2320 F   0  0  0  0  0  0  0  0  0  0  0  0
  161.2100  208.2160  155.4810 C   0  0  0  0  0  0  0  0  0  0  0  0
  161.0050  209.5690  155.6900 F   0  0  0  0  0  0  0  0  0  0  0  0
  159.9870  207.5710  155.5400 F   0  0  0  0  0  0  0  0  0  0  0  0
  162.0050  207.7090  156.4890 F   0  0  0  0  0  0  0  0  0  0  0  0
  162.3790  207.1230  147.7080 C   0  0  0  0  0  1  0  0  0  0  0  0
  163.0790  207.6920  148.9270 C   0  0  0  0  0  2  0  0  0  0  0  0
  160.1650  205.9820  151.3080 N   0  0  0  0  0  2  0  0  0  0  0  0
  160.4460  204.5840  151.0330 C   0  0  0  0  0  2  0  0  0  0  0  0
  160.8190  204.4240  149.5730 C   0  0  0  0  0  2  0  0  0  0  0  0
  160.7240  202.9550  149.1560 C   0  0  0  0  0  2  0  0  0  0  0  0
  161.6020  203.7330  147.1800 O   0  0  0  0  0  1  0  0  0  0  0  0
  161.5140  202.6280  147.9610 N   0  0  0  0  0  0  0  0  0  0  0  0
  160.7210  202.0290  145.7380 C   0  0  0  0  0  1  0  0  0  0  0  0
  160.8330  201.5970  147.1870 C   0  0  0  0  0  2  0  0  0  0  0  0
  1  5  1  0  0  0  0
  2 22  1  6  0  0  0
  2  3  1  0  0  0  0
  3 14  1  6  0  0  0
  4  6  1  1  0  0  0
  4 11  1  0  0  0  0
  4  3  1  0  0  0  0
  5 10  2  0  0  0  0
  6  8  1  0  0  0  0
  7 21  1  6  0  0  0
  7 12  1  0  0  0  0
  7  9  1  0  0  0  0
  8  1  2  0  0  0  0
  9  2  1  0  0  0  0
 11  5  1  0  0  0  0
 12  6  2  0  0  0  0
 13 14  1  0  0  0  0
 14 15  1  0  0  0  0
 14 16  1  0  0  0  0
 16 18  1  0  0  0  0
 16 17  1  0  0  0  0
 16 19  1  0  0  0  0
 20 21  1  0  0  0  0
 23 22  1  0  0  0  0
 24 23  1  0  0  0  0
 25 24  1  0  0  0  0
 26 27  1  0  0  0  0
 27 25  1  0  0  0  0
 28 29  1  0  0  0  0
 29 27  1  0  0  0  0
M  END
>  <MODEL>
8

>  <REMARK>
 VINA RESULT:      -2.9      2.054      2.947
  Name = 
  9 active torsions:
  status: ('A' for Active; 'I' for Inactive)
    1  A    between atoms: C_4  and  N_29
    2  A    between atoms: C_5  and  C_8
    3  A    between atoms: C_5  and  C_16
    4  A    between atoms: C_7  and  C_17
    5  A    between atoms: C_10  and  N_11
    6  A    between atoms: C_10  and  C_21
    7  A    between atoms: N_11  and  C_27
    8  A    between atoms: C_21  and  C_24
    9  A    between atoms: C_24  and  N_29
                            x       y       z     vdW  Elec       q    Type
                         _______ _______ _______ _____ _____    ______ ____

>  <TORSDO>
F 9

$$$$
=
 OpenBabel11042423103D

 29 30  0  0  1  0  0  0  0  0999 V2000
  162.0150  209.4210  157.2020 N   0  0  0  0  0  0  0  0  0  0  0  0
  161.0270  209.3950  151.9670 C   0  0  2  0  0  3  0  0  0  0  0  0
  161.1250  210.2350  153.2500 C   0  0  2  0  0  3  0  0  0  0  0  0
  162.0840  209.5990  154.2840 C   0  0  2  0  0  3  0  0  0  0  0  0
  162.7050  210.4990  156.5650 C   0  0  0  0  0  0  0  0  0  0  0  0
  161.5210  208.4240  155.0530 C   0  0  0  0  0  0  0  0  0  0  0  0
  161.2800  207.0690  152.9670 C   0  0  1  0  0  3  0  0  0  0  0  0
  161.4630  208.4630  156.5230 C   0  0  0  0  0  3  0  0  0  0  0  0
  160.3790  208.0210  152.1830 C   0  0  0  0  0  2  0  0  0  0  0  0
  163.2840  211.3730  157.2610 O   0  0  0  0  0  0  0  0  0  0  0  0
  162.7080  210.6060  155.1400 N   0  0  0  0  0  2  0  0  0  0  0  0
  161.1570  207.2960  154.4420 C   0  0  0  0  0  3  0  0  0  0  0  0
  159.3690  210.0610  154.9010 F   0  0  0  0  0  0  0  0  0  0  0  0
  159.7310  210.7170  153.7360 C   0  0  0  0  0  0  0  0  0  0  0  0
  158.7990  210.3970  152.7620 F   0  0  0  0  0  0  0  0  0  0  0  0
  159.6560  212.2340  153.9640 C   0  0  0  0  0  0  0  0  0  0  0  0
  160.3710  212.5930  155.0940 F   0  0  0  0  0  0  0  0  0  0  0  0
  160.1960  212.8930  152.8740 F   0  0  0  0  0  0  0  0  0  0  0  0
  158.3440  212.6420  154.1000 F   0  0  0  0  0  0  0  0  0  0  0  0
  161.9730  204.9860  151.7890 C   0  0  0  0  0  1  0  0  0  0  0  0
  160.9080  205.6310  152.6550 C   0  0  0  0  0  2  0  0  0  0  0  0
  162.3280  209.2760  151.3210 N   0  0  0  0  0  2  0  0  0  0  0  0
  162.1030  209.2850  149.8860 C   0  0  0  0  0  2  0  0  0  0  0  0
  162.3660  207.9020  149.3260 C   0  0  0  0  0  2  0  0  0  0  0  0
  161.5740  207.6880  148.0350 C   0  0  0  0  0  2  0  0  0  0  0  0
  160.1440  206.2140  149.0660 O   0  0  0  0  0  1  0  0  0  0  0  0
  160.9090  206.3810  147.9600 N   0  0  0  0  0  0  0  0  0  0  0  0
  161.2480  203.9870  148.2480 C   0  0  0  0  0  1  0  0  0  0  0  0
  161.9090  205.3200  147.9530 C   0  0  0  0  0  2  0  0  0  0  0  0
  2 22  1  1  0  0  0
  2  9  1  0  0  0  0
  2  3  1  0  0  0  0
  3 14  1  1  0  0  0
  3  4  1  0  0  0  0
  4  6  1  1  0  0  0
  4 11  1  0  0  0  0
  5  1  1  0  0  0  0
  5 10  2  0  0  0  0
  6  8  1  0  0  0  0
  7 21  1  1  0  0  0
  7 12  1  0  0  0  0
  8  1  2  0  0  0  0
  9  7  1  0  0  0  0
 11  5  1  0  0  0  0
 12  6  2  0  0  0  0
 14 16  1  0  0  0  0
 14 13  1  0  0  0  0
 15 14  1  0  0  0  0
 16 19  1  0  0  0  0
 16 17  1  0  0  0  0
 18 16  1  0  0  0  0
 20 21  1  0  0  0  0
 23 22  1  0  0  0  0
 24 23  1  0  0  0  0
 25 24  1  0  0  0  0
 27 25  1  0  0  0  0
 27 26  1  0  0  0  0
 29 27  1  0  0  0  0
 29 28  1  0  0  0  0
M  END
>  <MODEL>
9

>  <REMARK>
 VINA RESULT:      -2.3      2.582      4.338
  Name = 
  9 active torsions:
  status: ('A' for Active; 'I' for Inactive)
    1  A    between atoms: C_4  and  N_29
    2  A    between atoms: C_5  and  C_8
    3  A    between atoms: C_5  and  C_16
    4  A    between atoms: C_7  and  C_17
    5  A    between atoms: C_10  and  N_11
    6  A    between atoms: C_10  and  C_21
    7  A    between atoms: N_11  and  C_27
    8  A    between atoms: C_21  and  C_24
    9  A    between atoms: C_24  and  N_29
                            x       y       z     vdW  Elec       q    Type
                         _______ _______ _______ _____ _____    ______ ____

>  <TORSDO>
F 9

$$$$
