=
 OpenBabel11052412083D

 50 55  0  0  1  0  0  0  0  0999 V2000
  162.4590  208.6650  148.8460 C   0  0  0  0  0  2  0  0  0  0  0  0
  162.6040  207.1570  150.6750 C   0  0  0  0  0  3  0  0  0  0  0  0
  161.8730  207.8150  149.8510 N   0  0  0  0  0  0  0  0  0  0  0  0
  161.9740  206.2970  151.7250 C   0  0  2  0  0  3  0  0  0  0  0  0
  161.4990  204.9980  151.1480 C   0  0  0  0  0  0  0  0  0  0  0  0
  160.9000  202.6750  151.4770 C   0  0  0  0  0  3  0  0  0  0  0  0
  160.2110  201.3330  149.5950 O   0  0  0  0  0  1  0  0  0  0  0  0
  160.6370  202.5460  150.1100 C   0  0  0  0  0  0  0  0  0  0  0  0
  161.3300  203.8980  151.9950 C   0  0  0  0  0  3  0  0  0  0  0  0
  160.8070  203.6420  149.2570 C   0  0  0  0  0  3  0  0  0  0  0  0
  161.2360  204.8660  149.7750 C   0  0  0  0  0  3  0  0  0  0  0  0
  160.8640  207.0040  152.3450 N   0  0  0  0  0  2  0  0  0  0  0  0
  161.3940  209.0000  153.6180 C   0  0  0  0  0  2  0  0  0  0  0  0
  160.3170  207.1470  154.7170 C   0  0  0  0  0  2  0  0  0  0  0  0
  160.9180  209.4770  154.9810 C   0  0  2  0  0  3  0  0  0  0  0  0
  161.3200  207.4910  153.6390 C   0  0  1  0  0  3  0  0  0  0  0  0
  160.4360  208.2530  155.7420 C   0  0  0  0  0  2  0  0  0  0  0  0
  158.3560  213.1030  153.2280 C   0  0  0  0  0  1  0  0  0  0  0  0
  158.9360  210.8610  155.8860 C   0  0  0  0  0  2  0  0  0  0  0  0
  159.8830  210.5950  152.4850 O   0  0  0  0  0  0  0  0  0  0  0  0
  158.1060  211.6850  153.7000 C   0  0  1  0  0  3  0  0  0  0  0  0
  159.3400  210.8870  153.5820 C   0  0  0  0  0  0  0  0  0  0  0  0
  157.8320  211.6910  155.2080 C   0  0  1  0  0  3  0  0  0  0  0  0
  159.8370  210.4460  154.8280 N   0  0  0  0  0  0  0  0  0  0  0  0
  155.6200  212.1640  155.7840 C   0  0  0  0  0  1  0  0  0  0  0  0
  156.5360  211.0850  155.4640 N   0  0  0  0  0  2  0  0  0  0  0  0
  161.6380  209.8530  148.6310 N   0  0  0  0  0  2  0  0  0  0  0  0
  161.9650  210.8170  149.6630 C   0  0  0  0  0  2  0  0  0  0  0  0
  161.9220  212.2360  149.1160 C   0  0  2  0  0  3  0  0  0  0  0  0
  160.3770  213.0090  149.5490 Cl  0  0  0  0  0  0  0  0  0  0  0  0
  162.1490  212.2860  147.6070 C   0  0  0  0  0  2  0  0  0  0  0  0
  160.9510  212.8620  146.8610 C   0  0  0  0  0  2  0  0  0  0  0  0
  162.4270  214.4420  143.7550 C   0  0  2  0  0  3  0  0  0  0  0  0
  160.4500  211.4620  140.8770 C   0  0  0  0  0  3  0  0  0  0  0  0
  160.9560  212.4940  143.1680 C   0  0  0  0  0  0  0  0  0  0  0  0
  161.6020  213.7240  142.7840 N   0  0  0  0  0  0  0  0  0  0  0  0
  163.8180  214.0670  143.5860 N   0  0  0  0  0  1  0  0  0  0  0  0
  160.3890  211.5180  142.2130 C   0  0  0  0  0  3  0  0  0  0  0  0
  162.1390  213.3110  140.4750 C   0  0  0  0  0  2  0  0  0  0  0  0
  162.0100  214.1570  145.1260 N   0  0  0  0  0  0  0  0  0  0  0  0
  161.3130  213.1080  145.4420 C   0  0  0  0  0  0  0  0  0  0  0  0
  161.5100  214.2750  141.4460 C   0  0  0  0  0  2  0  0  0  0  0  0
  161.1340  212.3750  140.0020 N   0  0  0  0  0  0  0  0  0  0  0  0
  160.8250  212.2260  144.4290 N   0  0  0  0  0  0  0  0  0  0  0  0
  159.6470  211.6180  138.2170 C   0  0  2  0  0  3  0  0  0  0  0  0
  159.9980  213.0590  137.9450 C   0  0  0  0  0  2  0  0  0  0  0  0
  161.0310  212.1410  138.5650 C   0  0  1  0  0  3  0  0  0  0  0  0
  159.7260  210.8890  137.0300 O   0  0  0  0  0  0  0  0  0  0  0  0
  158.4400  209.7930  138.2350 O   0  0  0  0  0  1  0  0  0  0  0  0
  159.4150  209.6560  137.3670 O   0  0  0  0  0  0  0  0  0  0  0  0
  1  3  1  0  0  0  0
  3  2  2  0  0  0  0
  4  2  1  6  0  0  0
  4 12  1  0  0  0  0
  5  4  1  0  0  0  0
  5  9  1  0  0  0  0
  6  9  2  0  0  0  0
  7  8  1  0  0  0  0
  8  6  1  0  0  0  0
 10 11  1  0  0  0  0
 10  8  2  0  0  0  0
 11  5  2  0  0  0  0
 13 16  1  0  0  0  0
 14 17  1  0  0  0  0
 15 13  1  6  0  0  0
 15 17  1  0  0  0  0
 16 12  1  6  0  0  0
 16 14  1  0  0  0  0
 20 22  2  0  0  0  0
 21 18  1  1  0  0  0
 21 23  1  0  0  0  0
 22 21  1  0  0  0  0
 22 24  1  0  0  0  0
 23 26  1  6  0  0  0
 23 19  1  0  0  0  0
 24 15  1  0  0  0  0
 24 19  1  0  0  0  0
 26 25  1  0  0  0  0
 27  1  1  0  0  0  0
 27 28  1  0  0  0  0
 29 30  1  6  0  0  0
 29 28  1  0  0  0  0
 31 29  1  0  0  0  0
 32 31  1  0  0  0  0
 33 37  1  1  0  0  0
 33 40  1  0  0  0  0
 34 38  2  0  0  0  0
 35 44  2  0  0  0  0
 36 35  1  0  0  0  0
 36 33  1  0  0  0  0
 38 35  1  0  0  0  0
 39 42  1  0  0  0  0
 40 41  2  0  0  0  0
 41 32  1  0  0  0  0
 42 36  1  0  0  0  0
 43 39  1  0  0  0  0
 43 34  1  0  0  0  0
 44 41  1  0  0  0  0
 45 48  1  6  0  0  0
 45 47  1  0  0  0  0
 46 45  1  0  0  0  0
 47 46  1  6  0  0  0
 47 43  1  0  0  0  0
 48 50  1  0  0  0  0
 50 49  1  0  0  0  0
M  END
>  <MODEL>
1

>  <REMARK>
 VINA RESULT:      -6.7      0.000      0.000
  Name = 
  16 active torsions:
  status: ('A' for Active; 'I' for Inactive)
    1  A    between atoms: C_2  and  C_43
    2  A    between atoms: C_8  and  O_44
    3  A    between atoms: N_13  and  C_32
    4  A    between atoms: N_13  and  C_38
    5  A    between atoms: N_20  and  C_39
    6  A    between atoms: C_25  and  C_35
    7  A    between atoms: C_25  and  C_38
    8  A    between atoms: C_27  and  C_43
    9  A    between atoms: C_28  and  N_42
   10  A    between atoms: C_29  and  N_46
   11  A    between atoms: C_31  and  C_50
   12  A    between atoms: C_32  and  N_48
   13  A    between atoms: C_35  and  C_50
   14  A    between atoms: N_40  and  C_41
   15  A    between atoms: C_43  and  N_46
   16  A    between atoms: O_44  and  O_49
                            x       y       z     vdW  Elec       q    Type
                         _______ _______ _______ _____ _____    ______ ____

>  <TORSDO>
F 16

$$$$
=
 OpenBabel11052412083D

 50 55  0  0  1  0  0  0  0  0999 V2000
  162.8260  211.0570  149.6300 C   0  0  0  0  0  2  0  0  0  0  0  0
  162.1490  209.0410  150.6880 C   0  0  0  0  0  3  0  0  0  0  0  0
  161.8230  210.1380  150.1060 N   0  0  0  0  0  0  0  0  0  0  0  0
  161.0910  208.1110  151.1940 C   0  0  2  0  0  3  0  0  0  0  0  0
  161.0560  208.0950  152.6920 C   0  0  0  0  0  0  0  0  0  0  0  0
  160.7730  206.8490  154.7500 C   0  0  0  0  0  3  0  0  0  0  0  0
  160.9110  207.9870  156.8720 O   0  0  0  0  0  1  0  0  0  0  0  0
  160.9590  208.0220  155.4880 C   0  0  0  0  0  0  0  0  0  0  0  0
  160.8210  206.8860  153.3550 C   0  0  0  0  0  3  0  0  0  0  0  0
  161.1920  209.2350  154.8310 C   0  0  0  0  0  3  0  0  0  0  0  0
  161.2400  209.2710  153.4360 C   0  0  0  0  0  3  0  0  0  0  0  0
  161.3240  206.7690  150.6850 N   0  0  0  0  0  2  0  0  0  0  0  0
  162.4360  205.6040  148.8700 C   0  0  0  0  0  2  0  0  0  0  0  0
  160.6090  207.0940  148.3760 C   0  0  0  0  0  2  0  0  0  0  0  0
  162.0300  205.3820  147.4230 C   0  0  2  0  0  3  0  0  0  0  0  0
  161.7820  206.8940  149.3090 C   0  0  1  0  0  3  0  0  0  0  0  0
  161.0280  206.4680  147.0640 C   0  0  0  0  0  2  0  0  0  0  0  0
  159.8740  201.6500  145.3710 C   0  0  0  0  0  1  0  0  0  0  0  0
  160.8890  203.2550  148.3410 C   0  0  0  0  0  2  0  0  0  0  0  0
  162.0850  203.6920  145.0380 O   0  0  0  0  0  0  0  0  0  0  0  0
  161.0640  201.8920  146.2770 C   0  0  1  0  0  3  0  0  0  0  0  0
  161.5630  203.2680  146.1010 C   0  0  0  0  0  0  0  0  0  0  0  0
  160.6030  201.8680  147.7390 C   0  0  1  0  0  3  0  0  0  0  0  0
  161.4320  204.0590  147.2630 N   0  0  0  0  0  0  0  0  0  0  0  0
  161.1070  201.0760  149.8760 C   0  0  0  0  0  1  0  0  0  0  0  0
  161.3540  200.8560  148.4630 N   0  0  0  0  0  2  0  0  0  0  0  0
  162.2630  211.9640  148.6340 N   0  0  0  0  0  2  0  0  0  0  0  0
  160.8590  212.1520  148.9410 C   0  0  0  0  0  2  0  0  0  0  0  0
  160.4830  213.6260  148.8900 C   0  0  2  0  0  3  0  0  0  0  0  0
  158.7440  213.8220  149.2160 Cl  0  0  0  0  0  0  0  0  0  0  0  0
  160.8630  214.2780  147.5620 C   0  0  0  0  0  2  0  0  0  0  0  0
  159.9180  213.8830  146.4330 C   0  0  0  0  0  2  0  0  0  0  0  0
  162.5070  214.2810  143.7010 C   0  0  2  0  0  3  0  0  0  0  0  0
  160.6680  211.0490  141.0090 C   0  0  0  0  0  3  0  0  0  0  0  0
  160.7990  212.5470  143.0850 C   0  0  0  0  0  0  0  0  0  0  0  0
  161.8120  213.4910  142.6850 N   0  0  0  0  0  0  0  0  0  0  0  0
  163.7520  213.6280  144.0590 N   0  0  0  0  0  1  0  0  0  0  0  0
  160.2740  211.4700  142.2180 C   0  0  0  0  0  3  0  0  0  0  0  0
  162.8140  212.3840  140.7980 C   0  0  0  0  0  2  0  0  0  0  0  0
  161.6860  214.4530  144.8990 N   0  0  0  0  0  0  0  0  0  0  0  0
  160.6890  213.6710  145.1820 C   0  0  0  0  0  0  0  0  0  0  0  0
  162.2170  213.6710  141.3050 C   0  0  0  0  0  2  0  0  0  0  0  0
  161.7660  211.5540  140.2300 N   0  0  0  0  0  0  0  0  0  0  0  0
  160.2780  212.6530  144.2670 N   0  0  0  0  0  0  0  0  0  0  0  0
  160.8070  211.2610  138.0020 C   0  0  2  0  0  3  0  0  0  0  0  0
  162.0860  212.0460  137.8540 C   0  0  0  0  0  2  0  0  0  0  0  0
  161.9870  210.9670  138.9130 C   0  0  1  0  0  3  0  0  0  0  0  0
  160.7470  210.2790  137.0110 O   0  0  0  0  0  0  0  0  0  0  0  0
  159.5130  208.9250  137.9860 O   0  0  0  0  0  1  0  0  0  0  0  0
  159.5090  209.8390  137.0430 O   0  0  0  0  0  0  0  0  0  0  0  0
  1  3  1  0  0  0  0
  3  2  2  0  0  0  0
  4  2  1  1  0  0  0
  4  5  1  0  0  0  0
  5  9  2  0  0  0  0
  5 11  1  0  0  0  0
  6  8  2  0  0  0  0
  8  7  1  0  0  0  0
  9  6  1  0  0  0  0
 10  8  1  0  0  0  0
 11 10  2  0  0  0  0
 12  4  1  0  0  0  0
 13 16  1  0  0  0  0
 14 16  1  0  0  0  0
 15 17  1  1  0  0  0
 15 13  1  0  0  0  0
 16 12  1  1  0  0  0
 17 14  1  0  0  0  0
 20 22  2  0  0  0  0
 21 18  1  6  0  0  0
 21 23  1  0  0  0  0
 22 21  1  0  0  0  0
 22 24  1  0  0  0  0
 23 19  1  0  0  0  0
 23 26  1  1  0  0  0
 24 15  1  0  0  0  0
 24 19  1  0  0  0  0
 26 25  1  0  0  0  0
 27 28  1  0  0  0  0
 27  1  1  0  0  0  0
 29 28  1  0  0  0  0
 29 30  1  6  0  0  0
 31 29  1  0  0  0  0
 32 31  1  0  0  0  0
 33 37  1  1  0  0  0
 33 40  1  0  0  0  0
 34 38  2  0  0  0  0
 35 44  2  0  0  0  0
 36 35  1  0  0  0  0
 36 33  1  0  0  0  0
 38 35  1  0  0  0  0
 39 42  1  0  0  0  0
 40 41  2  0  0  0  0
 41 32  1  0  0  0  0
 42 36  1  0  0  0  0
 43 39  1  0  0  0  0
 43 34  1  0  0  0  0
 44 41  1  0  0  0  0
 45 48  1  6  0  0  0
 45 47  1  0  0  0  0
 46 45  1  0  0  0  0
 47 46  1  6  0  0  0
 47 43  1  0  0  0  0
 48 50  1  0  0  0  0
 50 49  1  0  0  0  0
M  END
>  <MODEL>
2

>  <REMARK>
 VINA RESULT:      -6.6      2.559      6.235
  Name = 
  16 active torsions:
  status: ('A' for Active; 'I' for Inactive)
    1  A    between atoms: C_2  and  C_43
    2  A    between atoms: C_8  and  O_44
    3  A    between atoms: N_13  and  C_32
    4  A    between atoms: N_13  and  C_38
    5  A    between atoms: N_20  and  C_39
    6  A    between atoms: C_25  and  C_35
    7  A    between atoms: C_25  and  C_38
    8  A    between atoms: C_27  and  C_43
    9  A    between atoms: C_28  and  N_42
   10  A    between atoms: C_29  and  N_46
   11  A    between atoms: C_31  and  C_50
   12  A    between atoms: C_32  and  N_48
   13  A    between atoms: C_35  and  C_50
   14  A    between atoms: N_40  and  C_41
   15  A    between atoms: C_43  and  N_46
   16  A    between atoms: O_44  and  O_49
                            x       y       z     vdW  Elec       q    Type
                         _______ _______ _______ _____ _____    ______ ____

>  <TORSDO>
F 16

$$$$
=
 OpenBabel11052412083D

 50 55  0  0  1  0  0  0  0  0999 V2000
  162.0900  212.1510  148.5230 C   0  0  0  0  0  2  0  0  0  0  0  0
  162.1720  210.1980  149.8720 C   0  0  0  0  0  3  0  0  0  0  0  0
  161.4970  211.1920  149.4210 N   0  0  0  0  0  0  0  0  0  0  0  0
  161.5430  209.2260  150.8210 C   0  0  2  0  0  3  0  0  0  0  0  0
  161.3270  209.8460  152.1680 C   0  0  0  0  0  0  0  0  0  0  0  0
  162.2570  210.6850  154.2410 C   0  0  0  0  0  3  0  0  0  0  0  0
  160.7920  211.5430  155.9550 O   0  0  0  0  0  1  0  0  0  0  0  0
  160.9700  210.9810  154.7010 C   0  0  0  0  0  0  0  0  0  0  0  0
  162.4340  210.1180  152.9770 C   0  0  0  0  0  3  0  0  0  0  0  0
  159.8580  210.7080  153.8970 C   0  0  0  0  0  3  0  0  0  0  0  0
  160.0360  210.1420  152.6330 C   0  0  0  0  0  3  0  0  0  0  0  0
  162.3780  208.0410  150.9440 N   0  0  0  0  0  2  0  0  0  0  0  0
  160.6710  206.3640  150.5420 C   0  0  0  0  0  2  0  0  0  0  0  0
  162.4620  205.8850  152.0800 C   0  0  0  0  0  2  0  0  0  0  0  0
  160.6300  204.8790  150.8590 C   0  0  2  0  0  3  0  0  0  0  0  0
  161.5760  207.0010  151.5710 C   0  0  1  0  0  3  0  0  0  0  0  0
  161.6210  204.6310  151.9850 C   0  0  0  0  0  2  0  0  0  0  0  0
  161.9090  201.1590  148.1540 C   0  0  0  0  0  1  0  0  0  0  0  0
  161.5280  204.6520  148.4490 C   0  0  0  0  0  2  0  0  0  0  0  0
  160.0200  202.0670  150.3400 O   0  0  0  0  0  0  0  0  0  0  0  0
  160.8910  202.2800  148.1010 C   0  0  1  0  0  3  0  0  0  0  0  0
  160.5950  202.7610  149.4630 C   0  0  0  0  0  0  0  0  0  0  0  0
  161.5180  203.5050  147.4230 C   0  0  1  0  0  3  0  0  0  0  0  0
  160.9890  204.1000  149.6770 N   0  0  0  0  0  0  0  0  0  0  0  0
  161.4050  203.3970  145.0940 C   0  0  0  0  0  1  0  0  0  0  0  0
  160.7120  203.8820  146.2730 N   0  0  0  0  0  2  0  0  0  0  0  0
  161.0660  212.7920  147.7030 N   0  0  0  0  0  2  0  0  0  0  0  0
  161.7210  213.7580  146.8430 C   0  0  0  0  0  2  0  0  0  0  0  0
  161.8080  213.2430  145.4130 C   0  0  2  0  0  3  0  0  0  0  0  0
  163.5090  212.9550  144.9720 Cl  0  0  0  0  0  0  0  0  0  0  0  0
  161.1400  214.1850  144.4140 C   0  0  0  0  0  2  0  0  0  0  0  0
  162.0180  214.4530  143.1970 C   0  0  0  0  0  2  0  0  0  0  0  0
  162.1360  212.1410  140.2030 C   0  0  2  0  0  3  0  0  0  0  0  0
  157.5890  212.1620  139.5700 C   0  0  0  0  0  3  0  0  0  0  0  0
  159.7800  212.8510  140.7070 C   0  0  0  0  0  0  0  0  0  0  0  0
  160.7530  212.3420  139.7720 N   0  0  0  0  0  0  0  0  0  0  0  0
  162.3240  210.7630  140.6120 N   0  0  0  0  0  1  0  0  0  0  0  0
  158.3170  212.7810  140.5080 C   0  0  0  0  0  3  0  0  0  0  0  0
  159.4320  210.8300  138.4460 C   0  0  0  0  0  2  0  0  0  0  0  0
  162.4850  213.0290  141.3100 N   0  0  0  0  0  0  0  0  0  0  0  0
  161.5910  213.5880  142.0680 C   0  0  0  0  0  0  0  0  0  0  0  0
  160.4150  211.9710  138.4120 C   0  0  0  0  0  2  0  0  0  0  0  0
  158.0780  211.3570  138.4830 N   0  0  0  0  0  0  0  0  0  0  0  0
  160.1990  213.4410  141.7820 N   0  0  0  0  0  0  0  0  0  0  0  0
  156.3420  209.6620  138.1990 C   0  0  2  0  0  3  0  0  0  0  0  0
  155.6900  211.0160  138.0730 C   0  0  0  0  0  2  0  0  0  0  0  0
  157.0980  210.8110  137.5520 C   0  0  1  0  0  3  0  0  0  0  0  0
  155.8590  208.8200  137.1960 O   0  0  0  0  0  0  0  0  0  0  0  0
  154.9520  207.3330  138.3250 O   0  0  0  0  0  1  0  0  0  0  0  0
  154.6860  208.4140  137.6280 O   0  0  0  0  0  0  0  0  0  0  0  0
  1  3  1  0  0  0  0
  3  2  2  0  0  0  0
  4  2  1  6  0  0  0
  4 12  1  0  0  0  0
  4  5  1  0  0  0  0
  5 11  2  0  0  0  0
  5  9  1  0  0  0  0
  6  8  1  0  0  0  0
  8  7  1  0  0  0  0
  9  6  2  0  0  0  0
 10  8  2  0  0  0  0
 11 10  1  0  0  0  0
 13 15  1  0  0  0  0
 13 16  1  0  0  0  0
 15 24  1  6  0  0  0
 15 17  1  0  0  0  0
 16 12  1  6  0  0  0
 16 14  1  0  0  0  0
 17 14  1  0  0  0  0
 19 24  1  0  0  0  0
 21 18  1  1  0  0  0
 21 22  1  0  0  0  0
 22 24  1  0  0  0  0
 22 20  2  0  0  0  0
 23 26  1  6  0  0  0
 23 21  1  0  0  0  0
 23 19  1  0  0  0  0
 25 26  1  0  0  0  0
 27  1  1  0  0  0  0
 28 27  1  0  0  0  0
 29 30  1  6  0  0  0
 29 28  1  0  0  0  0
 31 29  1  0  0  0  0
 32 31  1  0  0  0  0
 33 37  1  1  0  0  0
 33 40  1  0  0  0  0
 34 38  2  0  0  0  0
 35 44  2  0  0  0  0
 36 33  1  0  0  0  0
 36 35  1  0  0  0  0
 38 35  1  0  0  0  0
 39 43  1  0  0  0  0
 40 41  2  0  0  0  0
 41 32  1  0  0  0  0
 42 39  1  0  0  0  0
 42 36  1  0  0  0  0
 43 34  1  0  0  0  0
 44 41  1  0  0  0  0
 45 48  1  6  0  0  0
 46 45  1  0  0  0  0
 47 46  1  1  0  0  0
 47 45  1  0  0  0  0
 47 43  1  0  0  0  0
 48 50  1  0  0  0  0
 50 49  1  0  0  0  0
M  END
>  <MODEL>
3

>  <REMARK>
 VINA RESULT:      -6.4      2.551      6.600
  Name = 
  16 active torsions:
  status: ('A' for Active; 'I' for Inactive)
    1  A    between atoms: C_2  and  C_43
    2  A    between atoms: C_8  and  O_44
    3  A    between atoms: N_13  and  C_32
    4  A    between atoms: N_13  and  C_38
    5  A    between atoms: N_20  and  C_39
    6  A    between atoms: C_25  and  C_35
    7  A    between atoms: C_25  and  C_38
    8  A    between atoms: C_27  and  C_43
    9  A    between atoms: C_28  and  N_42
   10  A    between atoms: C_29  and  N_46
   11  A    between atoms: C_31  and  C_50
   12  A    between atoms: C_32  and  N_48
   13  A    between atoms: C_35  and  C_50
   14  A    between atoms: N_40  and  C_41
   15  A    between atoms: C_43  and  N_46
   16  A    between atoms: O_44  and  O_49
                            x       y       z     vdW  Elec       q    Type
                         _______ _______ _______ _____ _____    ______ ____

>  <TORSDO>
F 16

$$$$
=
 OpenBabel11052412083D

 50 55  0  0  1  0  0  0  0  0999 V2000
  162.2650  209.4440  148.7590 C   0  0  0  0  0  2  0  0  0  0  0  0
  161.9710  211.7350  148.2060 C   0  0  0  0  0  3  0  0  0  0  0  0
  161.4820  210.5500  148.2700 N   0  0  0  0  0  0  0  0  0  0  0  0
  161.1460  212.8650  147.6740 C   0  0  2  0  0  3  0  0  0  0  0  0
  160.0950  213.2790  148.6590 C   0  0  0  0  0  0  0  0  0  0  0  0
  159.5270  214.2150  150.8190 C   0  0  0  0  0  3  0  0  0  0  0  0
  157.2120  214.4220  151.4680 O   0  0  0  0  0  1  0  0  0  0  0  0
  158.1680  214.0440  150.5380 C   0  0  0  0  0  0  0  0  0  0  0  0
  160.4880  213.8320  149.8810 C   0  0  0  0  0  3  0  0  0  0  0  0
  157.7680  213.4880  149.3180 C   0  0  0  0  0  3  0  0  0  0  0  0
  158.7300  213.1070  148.3800 C   0  0  0  0  0  3  0  0  0  0  0  0
  160.5280  212.4790  146.4160 N   0  0  0  0  0  2  0  0  0  0  0  0
  161.3210  213.7790  144.5270 C   0  0  0  0  0  2  0  0  0  0  0  0
  158.9550  213.6470  144.9630 C   0  0  0  0  0  2  0  0  0  0  0  0
  160.5900  214.3400  143.3180 C   0  0  2  0  0  3  0  0  0  0  0  0
  160.3060  213.6920  145.6430 C   0  0  1  0  0  3  0  0  0  0  0  0
  159.1200  214.4480  143.6910 C   0  0  0  0  0  2  0  0  0  0  0  0
  161.6590  210.4520  140.7640 C   0  0  0  0  0  1  0  0  0  0  0  0
  160.9460  213.9040  140.7990 C   0  0  0  0  0  2  0  0  0  0  0  0
  160.2140  211.4420  143.2350 O   0  0  0  0  0  0  0  0  0  0  0  0
  160.5310  211.4600  140.8430 C   0  0  1  0  0  3  0  0  0  0  0  0
  160.4930  212.0740  142.1840 C   0  0  0  0  0  0  0  0  0  0  0  0
  160.8410  212.6450  139.9210 C   0  0  1  0  0  3  0  0  0  0  0  0
  160.7650  213.4590  142.1670 N   0  0  0  0  0  0  0  0  0  0  0  0
  160.3710  213.1140  137.6840 C   0  0  0  0  0  1  0  0  0  0  0  0
  159.7600  212.8030  138.9620 N   0  0  0  0  0  2  0  0  0  0  0  0
  161.7090  208.1750  148.3010 N   0  0  0  0  0  2  0  0  0  0  0  0
  160.9560  207.5940  149.3950 C   0  0  0  0  0  2  0  0  0  0  0  0
  161.5390  206.2480  149.8030 C   0  0  2  0  0  3  0  0  0  0  0  0
  161.1800  205.0270  148.5580 Cl  0  0  0  0  0  0  0  0  0  0  0  0
  161.0420  205.7890  151.1720 C   0  0  0  0  0  2  0  0  0  0  0  0
  162.0660  206.0400  152.2720 C   0  0  0  0  0  2  0  0  0  0  0  0
  160.7610  207.7300  155.3970 C   0  0  2  0  0  3  0  0  0  0  0  0
  160.1150  211.7890  153.3510 C   0  0  0  0  0  3  0  0  0  0  0  0
  160.7600  209.3100  153.4450 C   0  0  0  0  0  0  0  0  0  0  0  0
  160.2590  208.9390  154.7450 N   0  0  0  0  0  0  0  0  0  0  0  0
  161.8440  208.0750  156.2980 N   0  0  0  0  0  1  0  0  0  0  0  0
  160.5970  210.6490  152.8390 C   0  0  0  0  0  3  0  0  0  0  0  0
  159.9100  211.0840  155.7790 C   0  0  0  0  0  2  0  0  0  0  0  0
  161.2350  206.7530  154.4180 N   0  0  0  0  0  0  0  0  0  0  0  0
  161.5600  207.0790  153.2050 C   0  0  0  0  0  0  0  0  0  0  0  0
  159.2970  209.7420  155.4740 C   0  0  0  0  0  2  0  0  0  0  0  0
  159.6330  212.0030  154.6890 N   0  0  0  0  0  0  0  0  0  0  0  0
  161.3660  208.4140  152.7320 N   0  0  0  0  0  0  0  0  0  0  0  0
  157.6560  213.2270  155.4410 C   0  0  2  0  0  3  0  0  0  0  0  0
  158.7330  213.4070  156.4800 C   0  0  0  0  0  2  0  0  0  0  0  0
  159.1120  213.3260  155.0160 C   0  0  1  0  0  3  0  0  0  0  0  0
  157.0330  214.4530  155.2010 O   0  0  0  0  0  0  0  0  0  0  0  0
  155.8080  213.0460  154.2920 O   0  0  0  0  0  1  0  0  0  0  0  0
  155.7690  214.1560  154.9910 O   0  0  0  0  0  0  0  0  0  0  0  0
  2  3  2  0  0  0  0
  3  1  1  0  0  0  0
  4  2  1  1  0  0  0
  4  5  1  0  0  0  0
  5  9  1  0  0  0  0
  8  6  1  0  0  0  0
  8  7  1  0  0  0  0
  9  6  2  0  0  0  0
 10  8  2  0  0  0  0
 11  5  2  0  0  0  0
 11 10  1  0  0  0  0
 12  4  1  0  0  0  0
 13 16  1  0  0  0  0
 14 16  1  0  0  0  0
 15 24  1  6  0  0  0
 15 17  1  0  0  0  0
 15 13  1  0  0  0  0
 16 12  1  6  0  0  0
 17 14  1  0  0  0  0
 19 24  1  0  0  0  0
 21 18  1  1  0  0  0
 21 22  1  0  0  0  0
 22 20  2  0  0  0  0
 23 26  1  6  0  0  0
 23 19  1  0  0  0  0
 23 21  1  0  0  0  0
 24 22  1  0  0  0  0
 25 26  1  0  0  0  0
 27  1  1  0  0  0  0
 27 28  1  0  0  0  0
 28 29  1  0  0  0  0
 29 30  1  6  0  0  0
 29 31  1  0  0  0  0
 31 32  1  0  0  0  0
 32 41  1  0  0  0  0
 33 37  1  1  0  0  0
 34 43  1  0  0  0  0
 35 36  1  0  0  0  0
 36 33  1  0  0  0  0
 36 42  1  0  0  0  0
 38 34  2  0  0  0  0
 38 35  1  0  0  0  0
 40 33  1  0  0  0  0
 41 40  2  0  0  0  0
 42 39  1  0  0  0  0
 43 39  1  0  0  0  0
 44 41  1  0  0  0  0
 44 35  2  0  0  0  0
 45 48  1  6  0  0  0
 45 46  1  0  0  0  0
 47 43  1  1  0  0  0
 47 45  1  0  0  0  0
 47 46  1  0  0  0  0
 49 50  1  0  0  0  0
 50 48  1  0  0  0  0
M  END
>  <MODEL>
4

>  <REMARK>
 VINA RESULT:      -6.1      3.055     12.346
  Name = 
  16 active torsions:
  status: ('A' for Active; 'I' for Inactive)
    1  A    between atoms: C_2  and  C_43
    2  A    between atoms: C_8  and  O_44
    3  A    between atoms: N_13  and  C_32
    4  A    between atoms: N_13  and  C_38
    5  A    between atoms: N_20  and  C_39
    6  A    between atoms: C_25  and  C_35
    7  A    between atoms: C_25  and  C_38
    8  A    between atoms: C_27  and  C_43
    9  A    between atoms: C_28  and  N_42
   10  A    between atoms: C_29  and  N_46
   11  A    between atoms: C_31  and  C_50
   12  A    between atoms: C_32  and  N_48
   13  A    between atoms: C_35  and  C_50
   14  A    between atoms: N_40  and  C_41
   15  A    between atoms: C_43  and  N_46
   16  A    between atoms: O_44  and  O_49
                            x       y       z     vdW  Elec       q    Type
                         _______ _______ _______ _____ _____    ______ ____

>  <TORSDO>
F 16

$$$$
=
 OpenBabel11052412083D

 50 55  0  0  1  0  0  0  0  0999 V2000
  160.2900  209.8370  152.7270 C   0  0  0  0  0  2  0  0  0  0  0  0
  161.1520  208.1830  151.2560 C   0  0  0  0  0  3  0  0  0  0  0  0
  161.3640  209.2050  152.0030 N   0  0  0  0  0  0  0  0  0  0  0  0
  162.2790  207.5560  150.4960 C   0  0  2  0  0  3  0  0  0  0  0  0
  161.8590  207.1980  149.1030 C   0  0  0  0  0  0  0  0  0  0  0  0
  160.0850  206.8670  147.4890 C   0  0  0  0  0  3  0  0  0  0  0  0
  160.6180  206.1750  145.2400 O   0  0  0  0  0  1  0  0  0  0  0  0
  161.0290  206.5140  146.5190 C   0  0  0  0  0  0  0  0  0  0  0  0
  160.5000  207.2080  148.7770 C   0  0  0  0  0  3  0  0  0  0  0  0
  162.3900  206.4990  146.8390 C   0  0  0  0  0  3  0  0  0  0  0  0
  162.8050  206.8410  148.1280 C   0  0  0  0  0  3  0  0  0  0  0  0
  162.7510  206.3710  151.1960 N   0  0  0  0  0  2  0  0  0  0  0  0
  160.8410  205.2090  150.2530 C   0  0  0  0  0  2  0  0  0  0  0  0
  162.0150  204.2370  152.1180 C   0  0  0  0  0  2  0  0  0  0  0  0
  160.3590  203.7770  150.4140 C   0  0  2  0  0  3  0  0  0  0  0  0
  161.5880  205.5590  151.5190 C   0  0  1  0  0  3  0  0  0  0  0  0
  160.9440  203.2480  151.7140 C   0  0  0  0  0  2  0  0  0  0  0  0
  161.5900  199.9400  147.8550 C   0  0  0  0  0  1  0  0  0  0  0  0
  161.5800  203.4520  148.1630 C   0  0  0  0  0  2  0  0  0  0  0  0
  159.5090  201.0590  149.7500 O   0  0  0  0  0  0  0  0  0  0  0  0
  160.7300  201.1750  147.6730 C   0  0  1  0  0  3  0  0  0  0  0  0
  160.2880  201.6830  148.9850 C   0  0  0  0  0  0  0  0  0  0  0  0
  161.5920  202.3180  147.1230 C   0  0  1  0  0  3  0  0  0  0  0  0
  160.8000  202.9640  149.2840 N   0  0  0  0  0  0  0  0  0  0  0  0
  160.1870  201.7220  145.3560 C   0  0  0  0  0  1  0  0  0  0  0  0
  161.0200  202.7920  145.8730 N   0  0  0  0  0  2  0  0  0  0  0  0
  160.2070  211.2550  152.3940 N   0  0  0  0  0  2  0  0  0  0  0  0
  158.8140  211.6520  152.4670 C   0  0  0  0  0  2  0  0  0  0  0  0
  158.6850  213.1120  152.8780 C   0  0  2  0  0  3  0  0  0  0  0  0
  157.0840  213.4010  153.6020 Cl  0  0  0  0  0  0  0  0  0  0  0  0
  158.9360  214.0690  151.7150 C   0  0  0  0  0  2  0  0  0  0  0  0
  158.2150  213.6350  150.4440 C   0  0  0  0  0  2  0  0  0  0  0  0
  161.4530  213.6760  148.4850 C   0  0  2  0  0  3  0  0  0  0  0  0
  159.4260  212.8420  144.4510 C   0  0  0  0  0  3  0  0  0  0  0  0
  159.4850  213.2840  146.9750 C   0  0  0  0  0  0  0  0  0  0  0  0
  160.8500  213.7100  147.1520 N   0  0  0  0  0  0  0  0  0  0  0  0
  162.1850  212.4360  148.6560 N   0  0  0  0  0  1  0  0  0  0  0  0
  158.8780  212.9540  145.6670 C   0  0  0  0  0  3  0  0  0  0  0  0
  161.8740  212.9880  145.0980 C   0  0  0  0  0  2  0  0  0  0  0  0
  160.4400  213.7910  149.5330 N   0  0  0  0  0  0  0  0  0  0  0  0
  159.1860  213.5290  149.3250 C   0  0  0  0  0  0  0  0  0  0  0  0
  161.6880  214.1400  146.0500 C   0  0  0  0  0  2  0  0  0  0  0  0
  160.8130  213.0020  144.1060 N   0  0  0  0  0  0  0  0  0  0  0  0
  158.7140  213.2110  148.0140 N   0  0  0  0  0  0  0  0  0  0  0  0
  160.8410  211.4800  142.1950 C   0  0  2  0  0  3  0  0  0  0  0  0
  159.9510  212.6450  141.8440 C   0  0  0  0  0  2  0  0  0  0  0  0
  161.1800  212.8730  142.7000 C   0  0  1  0  0  3  0  0  0  0  0  0
  161.6660  211.1820  141.1090 O   0  0  0  0  0  0  0  0  0  0  0  0
  161.9160  209.7990  139.5820 O   0  0  0  0  0  1  0  0  0  0  0  0
  161.0350  210.2340  140.4530 O   0  0  0  0  0  0  0  0  0  0  0  0
  2  3  2  0  0  0  0
  3  1  1  0  0  0  0
  4 12  1  0  0  0  0
  4  2  1  1  0  0  0
  5  4  1  0  0  0  0
  6  9  2  0  0  0  0
  7  8  1  0  0  0  0
  8 10  2  0  0  0  0
  8  6  1  0  0  0  0
  9  5  1  0  0  0  0
 10 11  1  0  0  0  0
 11  5  2  0  0  0  0
 13 15  1  0  0  0  0
 13 16  1  0  0  0  0
 15 24  1  6  0  0  0
 15 17  1  0  0  0  0
 16 12  1  6  0  0  0
 16 14  1  0  0  0  0
 17 14  1  0  0  0  0
 19 24  1  0  0  0  0
 21 18  1  1  0  0  0
 21 22  1  0  0  0  0
 22 24  1  0  0  0  0
 22 20  2  0  0  0  0
 23 26  1  6  0  0  0
 23 21  1  0  0  0  0
 23 19  1  0  0  0  0
 25 26  1  0  0  0  0
 27 28  1  0  0  0  0
 27  1  1  0  0  0  0
 28 29  1  0  0  0  0
 29 30  1  6  0  0  0
 31 29  1  0  0  0  0
 32 31  1  0  0  0  0
 33 37  1  1  0  0  0
 33 40  1  0  0  0  0
 34 38  2  0  0  0  0
 35 36  1  0  0  0  0
 35 44  2  0  0  0  0
 36 33  1  0  0  0  0
 38 35  1  0  0  0  0
 39 42  1  0  0  0  0
 41 40  2  0  0  0  0
 41 32  1  0  0  0  0
 42 36  1  0  0  0  0
 43 34  1  0  0  0  0
 43 39  1  0  0  0  0
 44 41  1  0  0  0  0
 45 48  1  6  0  0  0
 45 47  1  0  0  0  0
 46 45  1  0  0  0  0
 47 46  1  6  0  0  0
 47 43  1  0  0  0  0
 49 50  1  0  0  0  0
 50 48  1  0  0  0  0
M  END
>  <MODEL>
5

>  <REMARK>
 VINA RESULT:      -5.8      2.806      6.632
  Name = 
  16 active torsions:
  status: ('A' for Active; 'I' for Inactive)
    1  A    between atoms: C_2  and  C_43
    2  A    between atoms: C_8  and  O_44
    3  A    between atoms: N_13  and  C_32
    4  A    between atoms: N_13  and  C_38
    5  A    between atoms: N_20  and  C_39
    6  A    between atoms: C_25  and  C_35
    7  A    between atoms: C_25  and  C_38
    8  A    between atoms: C_27  and  C_43
    9  A    between atoms: C_28  and  N_42
   10  A    between atoms: C_29  and  N_46
   11  A    between atoms: C_31  and  C_50
   12  A    between atoms: C_32  and  N_48
   13  A    between atoms: C_35  and  C_50
   14  A    between atoms: N_40  and  C_41
   15  A    between atoms: C_43  and  N_46
   16  A    between atoms: O_44  and  O_49
                            x       y       z     vdW  Elec       q    Type
                         _______ _______ _______ _____ _____    ______ ____

>  <TORSDO>
F 16

$$$$
=
 OpenBabel11052412083D

 50 55  0  0  1  0  0  0  0  0999 V2000
  162.4520  211.2240  148.6430 C   0  0  0  0  0  2  0  0  0  0  0  0
  161.8360  209.6350  150.2970 C   0  0  0  0  0  3  0  0  0  0  0  0
  161.9990  209.9200  149.0560 N   0  0  0  0  0  0  0  0  0  0  0  0
  161.3430  208.2810  150.7020 C   0  0  2  0  0  3  0  0  0  0  0  0
  161.1730  208.1890  152.1880 C   0  0  0  0  0  0  0  0  0  0  0  0
  160.9120  209.3050  154.3210 C   0  0  0  0  0  3  0  0  0  0  0  0
  160.7320  208.0030  156.3440 O   0  0  0  0  0  1  0  0  0  0  0  0
  160.8780  208.0650  154.9680 C   0  0  0  0  0  0  0  0  0  0  0  0
  161.0600  209.3660  152.9340 C   0  0  0  0  0  3  0  0  0  0  0  0
  160.9930  206.8840  154.2270 C   0  0  0  0  0  3  0  0  0  0  0  0
  161.1400  206.9460  152.8400 C   0  0  0  0  0  3  0  0  0  0  0  0
  162.2680  207.2580  150.2410 N   0  0  0  0  0  2  0  0  0  0  0  0
  162.7680  205.8360  148.3390 C   0  0  0  0  0  2  0  0  0  0  0  0
  160.5880  206.8440  148.5230 C   0  0  0  0  0  2  0  0  0  0  0  0
  161.8610  205.1780  147.3130 C   0  0  2  0  0  3  0  0  0  0  0  0
  162.0530  207.0810  148.8120 C   0  0  1  0  0  3  0  0  0  0  0  0
  160.5590  205.9640  147.2930 C   0  0  0  0  0  2  0  0  0  0  0  0
  161.3090  201.2690  149.9960 C   0  0  0  0  0  1  0  0  0  0  0  0
  161.7930  202.6510  146.7890 C   0  0  0  0  0  2  0  0  0  0  0  0
  160.5350  204.1840  149.7210 O   0  0  0  0  0  0  0  0  0  0  0  0
  160.5950  201.9390  148.8400 C   0  0  1  0  0  3  0  0  0  0  0  0
  160.8990  203.3820  148.8240 C   0  0  0  0  0  0  0  0  0  0  0  0
  161.1870  201.4390  147.5170 C   0  0  1  0  0  3  0  0  0  0  0  0
  161.6140  203.7850  147.6750 N   0  0  0  0  0  0  0  0  0  0  0  0
  160.0720  201.6250  145.4750 C   0  0  0  0  0  1  0  0  0  0  0  0
  160.1280  200.8590  146.7060 N   0  0  0  0  0  2  0  0  0  0  0  0
  161.3200  212.1200  148.4270 N   0  0  0  0  0  2  0  0  0  0  0  0
  161.3000  212.4860  147.0240 C   0  0  0  0  0  2  0  0  0  0  0  0
  160.2500  213.5550  146.7550 C   0  0  2  0  0  3  0  0  0  0  0  0
  158.6610  212.7950  146.4950 Cl  0  0  0  0  0  0  0  0  0  0  0  0
  160.6220  214.4530  145.5780 C   0  0  0  0  0  2  0  0  0  0  0  0
  159.6240  214.3440  144.4310 C   0  0  0  0  0  2  0  0  0  0  0  0
  162.0890  213.9380  141.5870 C   0  0  2  0  0  3  0  0  0  0  0  0
  159.8170  210.4480  139.6560 C   0  0  0  0  0  3  0  0  0  0  0  0
  160.1960  212.3000  141.3870 C   0  0  0  0  0  0  0  0  0  0  0  0
  161.2700  213.0410  140.7730 N   0  0  0  0  0  0  0  0  0  0  0  0
  163.2850  213.2450  142.0240 N   0  0  0  0  0  1  0  0  0  0  0  0
  159.5290  211.1340  140.7690 C   0  0  0  0  0  3  0  0  0  0  0  0
  162.0620  211.4930  139.1090 C   0  0  0  0  0  2  0  0  0  0  0  0
  161.3530  214.4230  142.7530 N   0  0  0  0  0  0  0  0  0  0  0  0
  160.3050  213.8160  143.2210 C   0  0  0  0  0  0  0  0  0  0  0  0
  161.6150  212.9070  139.3710 C   0  0  0  0  0  2  0  0  0  0  0  0
  160.9130  210.6780  138.7540 N   0  0  0  0  0  0  0  0  0  0  0  0
  159.7520  212.6870  142.5400 N   0  0  0  0  0  0  0  0  0  0  0  0
  160.7600  208.3760  137.9520 C   0  0  2  0  0  3  0  0  0  0  0  0
  159.6740  209.1730  137.2750 C   0  0  0  0  0  2  0  0  0  0  0  0
  161.0080  209.8270  137.5740 C   0  0  1  0  0  3  0  0  0  0  0  0
  161.3850  207.5530  137.0130 O   0  0  0  0  0  0  0  0  0  0  0  0
  161.9600  206.7720  138.8480 O   0  0  0  0  0  1  0  0  0  0  0  0
  162.4160  207.0380  137.6460 O   0  0  0  0  0  0  0  0  0  0  0  0
  1  3  1  0  0  0  0
  3  2  2  0  0  0  0
  4  2  1  1  0  0  0
  4  5  1  0  0  0  0
  5 11  2  0  0  0  0
  5  9  1  0  0  0  0
  6  8  1  0  0  0  0
  8  7  1  0  0  0  0
  9  6  2  0  0  0  0
 10  8  2  0  0  0  0
 11 10  1  0  0  0  0
 12  4  1  0  0  0  0
 13 16  1  0  0  0  0
 14 16  1  0  0  0  0
 15 17  1  1  0  0  0
 15 24  1  0  0  0  0
 15 13  1  0  0  0  0
 16 12  1  1  0  0  0
 17 14  1  0  0  0  0
 19 23  1  0  0  0  0
 19 24  1  0  0  0  0
 21 18  1  1  0  0  0
 22 21  1  0  0  0  0
 22 20  2  0  0  0  0
 23 26  1  6  0  0  0
 23 21  1  0  0  0  0
 24 22  1  0  0  0  0
 25 26  1  0  0  0  0
 27  1  1  0  0  0  0
 28 27  1  0  0  0  0
 29 30  1  6  0  0  0
 29 28  1  0  0  0  0
 31 29  1  0  0  0  0
 32 31  1  0  0  0  0
 33 37  1  1  0  0  0
 33 40  1  0  0  0  0
 34 38  2  0  0  0  0
 35 44  2  0  0  0  0
 36 35  1  0  0  0  0
 36 33  1  0  0  0  0
 38 35  1  0  0  0  0
 39 42  1  0  0  0  0
 40 41  2  0  0  0  0
 41 32  1  0  0  0  0
 42 36  1  0  0  0  0
 43 39  1  0  0  0  0
 43 34  1  0  0  0  0
 44 41  1  0  0  0  0
 45 48  1  6  0  0  0
 46 45  1  0  0  0  0
 47 46  1  6  0  0  0
 47 45  1  0  0  0  0
 47 43  1  0  0  0  0
 48 50  1  0  0  0  0
 50 49  1  0  0  0  0
M  END
>  <MODEL>
6

>  <REMARK>
 VINA RESULT:      -5.8      2.769      6.410
  Name = 
  16 active torsions:
  status: ('A' for Active; 'I' for Inactive)
    1  A    between atoms: C_2  and  C_43
    2  A    between atoms: C_8  and  O_44
    3  A    between atoms: N_13  and  C_32
    4  A    between atoms: N_13  and  C_38
    5  A    between atoms: N_20  and  C_39
    6  A    between atoms: C_25  and  C_35
    7  A    between atoms: C_25  and  C_38
    8  A    between atoms: C_27  and  C_43
    9  A    between atoms: C_28  and  N_42
   10  A    between atoms: C_29  and  N_46
   11  A    between atoms: C_31  and  C_50
   12  A    between atoms: C_32  and  N_48
   13  A    between atoms: C_35  and  C_50
   14  A    between atoms: N_40  and  C_41
   15  A    between atoms: C_43  and  N_46
   16  A    between atoms: O_44  and  O_49
                            x       y       z     vdW  Elec       q    Type
                         _______ _______ _______ _____ _____    ______ ____

>  <TORSDO>
F 16

$$$$
=
 OpenBabel11052412083D

 50 55  0  0  1  0  0  0  0  0999 V2000
  162.0000  211.3020  149.3750 C   0  0  0  0  0  2  0  0  0  0  0  0
  161.8620  209.0880  150.2230 C   0  0  0  0  0  3  0  0  0  0  0  0
  161.4390  210.3000  150.2450 N   0  0  0  0  0  0  0  0  0  0  0  0
  161.2800  208.0680  151.1520 C   0  0  2  0  0  3  0  0  0  0  0  0
  161.0870  208.6340  152.5260 C   0  0  0  0  0  0  0  0  0  0  0  0
  161.1150  208.3150  154.9260 C   0  0  0  0  0  3  0  0  0  0  0  0
  160.5300  210.1420  156.3890 O   0  0  0  0  0  1  0  0  0  0  0  0
  160.7150  209.6420  155.1100 C   0  0  0  0  0  0  0  0  0  0  0  0
  161.3000  207.8120  153.6370 C   0  0  0  0  0  3  0  0  0  0  0  0
  160.4970  210.4680  154.0020 C   0  0  0  0  0  3  0  0  0  0  0  0
  160.6830  209.9650  152.7130 C   0  0  0  0  0  3  0  0  0  0  0  0
  162.1440  206.9000  151.2090 N   0  0  0  0  0  2  0  0  0  0  0  0
  160.4790  205.3020  150.4600 C   0  0  0  0  0  2  0  0  0  0  0  0
  162.2020  204.5880  151.9840 C   0  0  0  0  0  2  0  0  0  0  0  0
  160.4410  203.7850  150.5300 C   0  0  2  0  0  3  0  0  0  0  0  0
  161.3280  205.7680  151.6210 C   0  0  1  0  0  3  0  0  0  0  0  0
  161.3820  203.3620  151.6470 C   0  0  0  0  0  2  0  0  0  0  0  0
  161.5810  200.5220  147.2380 C   0  0  0  0  0  1  0  0  0  0  0  0
  161.6610  203.8960  148.2570 C   0  0  0  0  0  2  0  0  0  0  0  0
  159.5240  201.2830  149.3260 O   0  0  0  0  0  0  0  0  0  0  0  0
  160.7540  201.7890  147.3140 C   0  0  1  0  0  3  0  0  0  0  0  0
  160.3220  202.0300  148.7030 C   0  0  0  0  0  0  0  0  0  0  0  0
  161.6460  202.9980  147.0070 C   0  0  1  0  0  3  0  0  0  0  0  0
  160.8650  203.2090  149.2560 N   0  0  0  0  0  0  0  0  0  0  0  0
  162.1380  204.6090  145.3920 C   0  0  0  0  0  1  0  0  0  0  0  0
  161.0910  203.7320  145.8820 N   0  0  0  0  0  2  0  0  0  0  0  0
  161.2300  212.5400  149.4500 N   0  0  0  0  0  2  0  0  0  0  0  0
  161.6420  213.3910  148.3510 C   0  0  0  0  0  2  0  0  0  0  0  0
  162.0350  212.5610  147.1370 C   0  0  2  0  0  3  0  0  0  0  0  0
  163.8070  212.5170  146.9770 Cl  0  0  0  0  0  0  0  0  0  0  0  0
  161.3870  213.0670  145.8510 C   0  0  0  0  0  2  0  0  0  0  0  0
  162.4180  213.4940  144.8130 C   0  0  0  0  0  2  0  0  0  0  0  0
  162.2990  212.5640  141.1460 C   0  0  2  0  0  3  0  0  0  0  0  0
  157.8060  213.4050  140.7210 C   0  0  0  0  0  3  0  0  0  0  0  0
  160.0450  213.3050  141.9660 C   0  0  0  0  0  0  0  0  0  0  0  0
  160.9620  213.0910  140.8750 N   0  0  0  0  0  0  0  0  0  0  0  0
  162.3010  211.1240  140.9710 N   0  0  0  0  0  1  0  0  0  0  0  0
  158.5880  213.5040  141.8030 C   0  0  0  0  0  3  0  0  0  0  0  0
  159.4860  212.4070  139.1020 C   0  0  0  0  0  2  0  0  0  0  0  0
  162.7370  212.8880  142.5030 N   0  0  0  0  0  0  0  0  0  0  0  0
  161.9070  213.2090  143.4480 C   0  0  0  0  0  0  0  0  0  0  0  0
  160.6070  213.3350  139.4910 C   0  0  0  0  0  2  0  0  0  0  0  0
  158.2110  213.0420  139.3890 N   0  0  0  0  0  0  0  0  0  0  0  0
  160.5130  213.3630  143.1730 N   0  0  0  0  0  0  0  0  0  0  0  0
  155.9060  213.6670  138.8720 C   0  0  2  0  0  3  0  0  0  0  0  0
  156.8130  214.4530  137.9600 C   0  0  0  0  0  2  0  0  0  0  0  0
  157.1870  213.0380  138.3500 C   0  0  1  0  0  3  0  0  0  0  0  0
  154.8280  213.1690  138.1380 O   0  0  0  0  0  0  0  0  0  0  0  0
  153.9930  213.0780  140.0360 O   0  0  0  0  0  1  0  0  0  0  0  0
  153.7610  213.5190  138.8210 O   0  0  0  0  0  0  0  0  0  0  0  0
  1 27  1  0  0  0  0
  1  3  1  0  0  0  0
  2  3  2  0  0  0  0
  4  2  1  6  0  0  0
  4 12  1  0  0  0  0
  4  5  1  0  0  0  0
  5 11  2  0  0  0  0
  5  9  1  0  0  0  0
  6  8  1  0  0  0  0
  8  7  1  0  0  0  0
  9  6  2  0  0  0  0
 10  8  2  0  0  0  0
 11 10  1  0  0  0  0
 13 15  1  0  0  0  0
 13 16  1  0  0  0  0
 15 24  1  6  0  0  0
 15 17  1  0  0  0  0
 16 12  1  6  0  0  0
 16 14  1  0  0  0  0
 17 14  1  0  0  0  0
 19 24  1  0  0  0  0
 21 18  1  1  0  0  0
 21 22  1  0  0  0  0
 22 24  1  0  0  0  0
 22 20  2  0  0  0  0
 23 26  1  6  0  0  0
 23 21  1  0  0  0  0
 23 19  1  0  0  0  0
 25 26  1  0  0  0  0
 28 27  1  0  0  0  0
 29 30  1  6  0  0  0
 29 28  1  0  0  0  0
 31 29  1  0  0  0  0
 32 31  1  0  0  0  0
 33 37  1  1  0  0  0
 33 40  1  0  0  0  0
 34 38  2  0  0  0  0
 35 44  2  0  0  0  0
 36 33  1  0  0  0  0
 36 35  1  0  0  0  0
 38 35  1  0  0  0  0
 39 43  1  0  0  0  0
 39 42  1  0  0  0  0
 40 41  2  0  0  0  0
 41 32  1  0  0  0  0
 42 36  1  0  0  0  0
 43 34  1  0  0  0  0
 44 41  1  0  0  0  0
 45 48  1  6  0  0  0
 46 45  1  0  0  0  0
 47 46  1  6  0  0  0
 47 45  1  0  0  0  0
 47 43  1  0  0  0  0
 48 50  1  0  0  0  0
 50 49  1  0  0  0  0
M  END
>  <MODEL>
7

>  <REMARK>
 VINA RESULT:      -5.7      2.656      6.533
  Name = 
  16 active torsions:
  status: ('A' for Active; 'I' for Inactive)
    1  A    between atoms: C_2  and  C_43
    2  A    between atoms: C_8  and  O_44
    3  A    between atoms: N_13  and  C_32
    4  A    between atoms: N_13  and  C_38
    5  A    between atoms: N_20  and  C_39
    6  A    between atoms: C_25  and  C_35
    7  A    between atoms: C_25  and  C_38
    8  A    between atoms: C_27  and  C_43
    9  A    between atoms: C_28  and  N_42
   10  A    between atoms: C_29  and  N_46
   11  A    between atoms: C_31  and  C_50
   12  A    between atoms: C_32  and  N_48
   13  A    between atoms: C_35  and  C_50
   14  A    between atoms: N_40  and  C_41
   15  A    between atoms: C_43  and  N_46
   16  A    between atoms: O_44  and  O_49
                            x       y       z     vdW  Elec       q    Type
                         _______ _______ _______ _____ _____    ______ ____

>  <TORSDO>
F 16

$$$$
=
 OpenBabel11052412083D

 50 55  0  0  1  0  0  0  0  0999 V2000
  161.3220  211.4650  150.1800 C   0  0  0  0  0  2  0  0  0  0  0  0
  161.0400  209.3680  151.2580 C   0  0  0  0  0  3  0  0  0  0  0  0
  161.1800  210.6400  151.3530 N   0  0  0  0  0  0  0  0  0  0  0  0
  160.9150  208.5270  152.4910 C   0  0  2  0  0  3  0  0  0  0  0  0
  160.8760  209.3770  153.7240 C   0  0  0  0  0  0  0  0  0  0  0  0
  159.5950  210.3620  155.5270 C   0  0  0  0  0  3  0  0  0  0  0  0
  160.6910  211.7680  157.1530 O   0  0  0  0  0  1  0  0  0  0  0  0
  160.7520  210.9760  156.0180 C   0  0  0  0  0  0  0  0  0  0  0  0
  159.6570  209.5650  154.3830 C   0  0  0  0  0  3  0  0  0  0  0  0
  161.9740  210.7940  155.3610 C   0  0  0  0  0  3  0  0  0  0  0  0
  162.0360  209.9960  154.2170 C   0  0  0  0  0  3  0  0  0  0  0  0
  162.0240  207.5890  152.5650 N   0  0  0  0  0  2  0  0  0  0  0  0
  160.5860  206.0820  151.3200 C   0  0  0  0  0  2  0  0  0  0  0  0
  162.5660  205.2180  152.3860 C   0  0  0  0  0  2  0  0  0  0  0  0
  160.8190  204.6730  150.8000 C   0  0  2  0  0  3  0  0  0  0  0  0
  161.4660  206.2450  152.5380 C   0  0  1  0  0  3  0  0  0  0  0  0
  161.9380  204.0660  151.6330 C   0  0  0  0  0  2  0  0  0  0  0  0
  162.4480  203.2350  146.5500 C   0  0  0  0  0  1  0  0  0  0  0  0
  161.5080  205.9120  148.6430 C   0  0  0  0  0  2  0  0  0  0  0  0
  160.6490  202.4850  148.8690 O   0  0  0  0  0  0  0  0  0  0  0  0
  161.2540  203.9970  147.0890 C   0  0  1  0  0  3  0  0  0  0  0  0
  161.0120  203.6310  148.4960 C   0  0  0  0  0  0  0  0  0  0  0  0
  161.5950  205.4900  147.1660 C   0  0  1  0  0  3  0  0  0  0  0  0
  161.1910  204.7100  149.3890 N   0  0  0  0  0  0  0  0  0  0  0  0
  160.9800  206.0550  144.9870 C   0  0  0  0  0  1  0  0  0  0  0  0
  160.6310  206.2450  146.3820 N   0  0  0  0  0  2  0  0  0  0  0  0
  160.7980  212.8060  150.4250 N   0  0  0  0  0  2  0  0  0  0  0  0
  160.4710  213.4000  149.1440 C   0  0  0  0  0  2  0  0  0  0  0  0
  161.2020  212.6910  148.0130 C   0  0  2  0  0  3  0  0  0  0  0  0
  162.6160  213.6470  147.5080 Cl  0  0  0  0  0  0  0  0  0  0  0  0
  160.2900  212.4010  146.8230 C   0  0  0  0  0  2  0  0  0  0  0  0
  160.0690  213.6310  145.9510 C   0  0  0  0  0  2  0  0  0  0  0  0
  162.5380  214.1310  143.1260 C   0  0  2  0  0  3  0  0  0  0  0  0
  160.5660  211.0180  140.3880 C   0  0  0  0  0  3  0  0  0  0  0  0
  160.7950  212.4290  142.5150 C   0  0  0  0  0  0  0  0  0  0  0  0
  161.7950  213.3850  142.1100 N   0  0  0  0  0  0  0  0  0  0  0  0
  163.7940  213.4590  143.4020 N   0  0  0  0  0  1  0  0  0  0  0  0
  160.2280  211.3900  141.6290 C   0  0  0  0  0  3  0  0  0  0  0  0
  162.7080  212.3540  140.1370 C   0  0  0  0  0  2  0  0  0  0  0  0
  161.7710  214.2570  144.3640 N   0  0  0  0  0  0  0  0  0  0  0  0
  160.7840  213.4680  144.6590 C   0  0  0  0  0  0  0  0  0  0  0  0
  162.1400  213.6200  140.7220 C   0  0  0  0  0  2  0  0  0  0  0  0
  161.6320  211.5510  139.5820 N   0  0  0  0  0  0  0  0  0  0  0  0
  160.3270  212.4900  143.7220 N   0  0  0  0  0  0  0  0  0  0  0  0
  161.3390  209.5670  138.1870 C   0  0  2  0  0  3  0  0  0  0  0  0
  160.4480  210.6520  137.6380 C   0  0  0  0  0  2  0  0  0  0  0  0
  161.7920  211.0170  138.2340 C   0  0  1  0  0  3  0  0  0  0  0  0
  161.9920  208.9260  137.1320 O   0  0  0  0  0  0  0  0  0  0  0  0
  162.5030  207.0220  137.7840 O   0  0  0  0  0  1  0  0  0  0  0  0
  161.5540  207.6870  137.1650 O   0  0  0  0  0  0  0  0  0  0  0  0
  1 27  1  0  0  0  0
  1  3  1  0  0  0  0
  2  3  2  0  0  0  0
  4  2  1  6  0  0  0
  4 12  1  0  0  0  0
  4  5  1  0  0  0  0
  5 11  2  0  0  0  0
  5  9  1  0  0  0  0
  6  8  1  0  0  0  0
  8  7  1  0  0  0  0
  9  6  2  0  0  0  0
 10  8  2  0  0  0  0
 11 10  1  0  0  0  0
 13 16  1  0  0  0  0
 14 16  1  0  0  0  0
 15 24  1  6  0  0  0
 15 13  1  0  0  0  0
 15 17  1  0  0  0  0
 16 12  1  6  0  0  0
 17 14  1  0  0  0  0
 19 24  1  0  0  0  0
 21 18  1  1  0  0  0
 21 23  1  0  0  0  0
 21 22  1  0  0  0  0
 22 20  2  0  0  0  0
 22 24  1  0  0  0  0
 23 26  1  6  0  0  0
 23 19  1  0  0  0  0
 25 26  1  0  0  0  0
 28 27  1  0  0  0  0
 29 30  1  6  0  0  0
 29 28  1  0  0  0  0
 31 29  1  0  0  0  0
 32 31  1  0  0  0  0
 33 37  1  1  0  0  0
 33 40  1  0  0  0  0
 34 38  2  0  0  0  0
 35 44  2  0  0  0  0
 36 35  1  0  0  0  0
 36 33  1  0  0  0  0
 38 35  1  0  0  0  0
 39 42  1  0  0  0  0
 40 41  2  0  0  0  0
 41 32  1  0  0  0  0
 42 36  1  0  0  0  0
 43 39  1  0  0  0  0
 43 34  1  0  0  0  0
 44 41  1  0  0  0  0
 45 48  1  6  0  0  0
 45 47  1  0  0  0  0
 46 45  1  0  0  0  0
 47 46  1  6  0  0  0
 47 43  1  0  0  0  0
 48 50  1  0  0  0  0
 50 49  1  0  0  0  0
M  END
>  <MODEL>
8

>  <REMARK>
 VINA RESULT:      -5.3      2.227      6.012
  Name = 
  16 active torsions:
  status: ('A' for Active; 'I' for Inactive)
    1  A    between atoms: C_2  and  C_43
    2  A    between atoms: C_8  and  O_44
    3  A    between atoms: N_13  and  C_32
    4  A    between atoms: N_13  and  C_38
    5  A    between atoms: N_20  and  C_39
    6  A    between atoms: C_25  and  C_35
    7  A    between atoms: C_25  and  C_38
    8  A    between atoms: C_27  and  C_43
    9  A    between atoms: C_28  and  N_42
   10  A    between atoms: C_29  and  N_46
   11  A    between atoms: C_31  and  C_50
   12  A    between atoms: C_32  and  N_48
   13  A    between atoms: C_35  and  C_50
   14  A    between atoms: N_40  and  C_41
   15  A    between atoms: C_43  and  N_46
   16  A    between atoms: O_44  and  O_49
                            x       y       z     vdW  Elec       q    Type
                         _______ _______ _______ _____ _____    ______ ____

>  <TORSDO>
F 16

$$$$
=
 OpenBabel11052412083D

 50 55  0  0  1  0  0  0  0  0999 V2000
  162.3310  210.0620  148.7600 C   0  0  0  0  0  2  0  0  0  0  0  0
  161.2950  211.7940  147.5080 C   0  0  0  0  0  3  0  0  0  0  0  0
  161.8270  211.4030  148.6090 N   0  0  0  0  0  0  0  0  0  0  0  0
  160.7590  213.1860  147.3800 C   0  0  2  0  0  3  0  0  0  0  0  0
  159.4420  213.3260  148.0810 C   0  0  0  0  0  0  0  0  0  0  0  0
  158.2070  213.8780  150.0900 C   0  0  0  0  0  3  0  0  0  0  0  0
  155.8010  213.7010  150.1080 O   0  0  0  0  0  1  0  0  0  0  0  0
  157.0070  213.5770  149.4380 C   0  0  0  0  0  0  0  0  0  0  0  0
  159.4220  213.7510  149.4130 C   0  0  0  0  0  3  0  0  0  0  0  0
  157.0210  213.1480  148.1060 C   0  0  0  0  0  3  0  0  0  0  0  0
  158.2360  213.0230  147.4290 C   0  0  0  0  0  3  0  0  0  0  0  0
  160.6170  213.5350  145.9750 N   0  0  0  0  0  2  0  0  0  0  0  0
  161.2540  212.3060  143.9830 C   0  0  0  0  0  2  0  0  0  0  0  0
  162.7130  214.0270  144.8290 C   0  0  0  0  0  2  0  0  0  0  0  0
  162.3080  212.5880  142.9250 C   0  0  2  0  0  3  0  0  0  0  0  0
  161.7420  212.9510  145.2600 C   0  0  1  0  0  3  0  0  0  0  0  0
  163.3390  213.5130  143.5510 C   0  0  0  0  0  2  0  0  0  0  0  0
  161.7780  214.2230  138.4720 C   0  0  0  0  0  1  0  0  0  0  0  0
  160.6180  214.1830  141.8010 C   0  0  0  0  0  2  0  0  0  0  0  0
  162.6840  211.8500  140.1210 O   0  0  0  0  0  0  0  0  0  0  0  0
  160.9700  213.4170  139.4690 C   0  0  1  0  0  3  0  0  0  0  0  0
  161.8680  212.7550  140.4320 C   0  0  0  0  0  0  0  0  0  0  0  0
  160.1490  214.3690  140.3470 C   0  0  1  0  0  3  0  0  0  0  0  0
  161.6970  213.2150  141.7560 N   0  0  0  0  0  0  0  0  0  0  0  0
  158.2680  213.7520  141.5820 C   0  0  0  0  0  1  0  0  0  0  0  0
  158.7400  214.0290  140.2390 N   0  0  0  0  0  2  0  0  0  0  0  0
  161.6130  209.1400  147.8850 N   0  0  0  0  0  2  0  0  0  0  0  0
  162.1930  207.8210  148.0520 C   0  0  0  0  0  2  0  0  0  0  0  0
  161.8480  206.9220  146.8730 C   0  0  2  0  0  3  0  0  0  0  0  0
  160.0810  206.8160  146.6850 Cl  0  0  0  0  0  0  0  0  0  0  0  0
  162.4640  205.5310  147.0030 C   0  0  0  0  0  2  0  0  0  0  0  0
  161.4570  204.4950  147.4870 C   0  0  0  0  0  2  0  0  0  0  0  0
  160.8550  203.4800  151.0830 C   0  0  2  0  0  3  0  0  0  0  0  0
  161.5980  207.6880  152.7600 C   0  0  0  0  0  3  0  0  0  0  0  0
  161.3610  205.9330  150.9070 C   0  0  0  0  0  0  0  0  0  0  0  0
  160.7850  204.8310  151.6370 N   0  0  0  0  0  0  0  0  0  0  0  0
  162.0050  202.7870  151.6310 N   0  0  0  0  0  1  0  0  0  0  0  0
  161.6540  207.2590  151.4930 C   0  0  0  0  0  3  0  0  0  0  0  0
  161.2040  205.4670  153.9200 C   0  0  0  0  0  2  0  0  0  0  0  0
  160.9520  203.5040  149.6250 N   0  0  0  0  0  0  0  0  0  0  0  0
  161.3490  204.5500  148.9670 C   0  0  0  0  0  0  0  0  0  0  0  0
  160.1660  204.9900  152.9380 C   0  0  0  0  0  2  0  0  0  0  0  0
  161.2390  206.9190  153.9210 N   0  0  0  0  0  0  0  0  0  0  0  0
  161.6140  205.7800  149.6460 N   0  0  0  0  0  0  0  0  0  0  0  0
  160.0760  208.6270  155.2250 C   0  0  2  0  0  3  0  0  0  0  0  0
  159.9170  207.3110  155.9430 C   0  0  0  0  0  2  0  0  0  0  0  0
  161.2060  207.6100  155.2050 C   0  0  1  0  0  3  0  0  0  0  0  0
  160.3860  209.6250  156.1510 O   0  0  0  0  0  0  0  0  0  0  0  0
  159.6300  210.6840  154.5340 O   0  0  0  0  0  1  0  0  0  0  0  0
  160.5900  210.7060  155.4300 O   0  0  0  0  0  0  0  0  0  0  0  0
  2  3  2  0  0  0  0
  3  1  1  0  0  0  0
  4  2  1  6  0  0  0
  4  5  1  0  0  0  0
  5  9  1  0  0  0  0
  8  6  1  0  0  0  0
  8  7  1  0  0  0  0
  9  6  2  0  0  0  0
 10  8  2  0  0  0  0
 11  5  2  0  0  0  0
 11 10  1  0  0  0  0
 12  4  1  0  0  0  0
 13 16  1  0  0  0  0
 14 16  1  0  0  0  0
 15 24  1  6  0  0  0
 15 17  1  0  0  0  0
 15 13  1  0  0  0  0
 16 12  1  6  0  0  0
 17 14  1  0  0  0  0
 20 22  2  0  0  0  0
 21 18  1  6  0  0  0
 21 23  1  0  0  0  0
 21 22  1  0  0  0  0
 22 24  1  0  0  0  0
 23 26  1  1  0  0  0
 23 19  1  0  0  0  0
 24 19  1  0  0  0  0
 26 25  1  0  0  0  0
 27 28  1  0  0  0  0
 27  1  1  0  0  0  0
 29 30  1  1  0  0  0
 29 31  1  0  0  0  0
 29 28  1  0  0  0  0
 31 32  1  0  0  0  0
 32 41  1  0  0  0  0
 33 37  1  1  0  0  0
 33 36  1  0  0  0  0
 34 43  1  0  0  0  0
 35 38  1  0  0  0  0
 35 36  1  0  0  0  0
 36 42  1  0  0  0  0
 38 34  2  0  0  0  0
 39 43  1  0  0  0  0
 40 33  1  0  0  0  0
 41 40  2  0  0  0  0
 41 44  1  0  0  0  0
 42 39  1  0  0  0  0
 44 35  2  0  0  0  0
 45 46  1  0  0  0  0
 45 48  1  1  0  0  0
 47 43  1  6  0  0  0
 47 45  1  0  0  0  0
 47 46  1  0  0  0  0
 49 50  1  0  0  0  0
 50 48  1  0  0  0  0
M  END
>  <MODEL>
9

>  <REMARK>
 VINA RESULT:      -4.9      3.011     12.320
  Name = 
  16 active torsions:
  status: ('A' for Active; 'I' for Inactive)
    1  A    between atoms: C_2  and  C_43
    2  A    between atoms: C_8  and  O_44
    3  A    between atoms: N_13  and  C_32
    4  A    between atoms: N_13  and  C_38
    5  A    between atoms: N_20  and  C_39
    6  A    between atoms: C_25  and  C_35
    7  A    between atoms: C_25  and  C_38
    8  A    between atoms: C_27  and  C_43
    9  A    between atoms: C_28  and  N_42
   10  A    between atoms: C_29  and  N_46
   11  A    between atoms: C_31  and  C_50
   12  A    between atoms: C_32  and  N_48
   13  A    between atoms: C_35  and  C_50
   14  A    between atoms: N_40  and  C_41
   15  A    between atoms: C_43  and  N_46
   16  A    between atoms: O_44  and  O_49
                            x       y       z     vdW  Elec       q    Type
                         _______ _______ _______ _____ _____    ______ ____

>  <TORSDO>
F 16

$$$$
