=
 OpenBabel11042423133D

 29 32  0  0  1  0  0  0  0  0999 V2000
  160.2240  211.2280  152.4720 C   0  0  2  0  0  3  0  0  0  0  0  0
  159.4780  212.0090  151.4210 C   0  0  0  0  0  2  0  0  0  0  0  0
  158.9710  213.3540  151.9310 C   0  0  0  0  0  2  0  0  0  0  0  0
  161.1390  207.5870  152.3480 C   0  0  0  0  0  0  0  0  0  0  0  0
  160.9910  209.0610  154.2940 C   0  0  0  0  0  0  0  0  0  0  0  0
  161.1890  210.7170  154.9660 S   0  0  0  0  0  0  0  0  0  0  0  0
  161.0690  208.8900  152.9000 C   0  0  0  0  0  0  0  0  0  0  0  0
  159.2510  212.6450  154.2890 C   0  0  0  0  0  2  0  0  0  0  0  0
  160.9250  206.6590  154.5910 C   0  0  0  0  0  3  0  0  0  0  0  0
  160.8880  210.0300  152.0450 N   0  0  0  0  0  2  0  0  0  0  0  0
  160.0880  211.4980  153.7860 C   0  0  1  0  0  3  0  0  0  0  0  0
  158.2480  213.1450  153.2500 C   0  0  1  0  0  3  0  0  0  0  0  0
  160.8890  207.9440  155.1420 C   0  0  0  0  0  0  0  0  0  0  0  0
  161.0560  206.4850  153.2140 C   0  0  0  0  0  3  0  0  0  0  0  0
  162.3210  207.7640  148.7380 C   0  0  0  0  0  3  0  0  0  0  0  0
  161.2600  207.3360  150.8870 C   0  0  0  0  0  0  0  0  0  0  0  0
  161.5060  206.8070  148.1260 C   0  0  0  0  0  0  0  0  0  0  0  0
  160.5700  206.1120  148.9000 C   0  0  0  0  0  3  0  0  0  0  0  0
  160.4510  206.3720  150.2680 C   0  0  0  0  0  3  0  0  0  0  0  0
  162.2030  208.0220  150.1050 C   0  0  0  0  0  3  0  0  0  0  0  0
  161.8150  205.3030  146.0750 C   0  0  0  0  0  0  0  0  0  0  0  0
  161.8690  205.2390  144.5920 C   0  0  0  0  0  1  0  0  0  0  0  0
  161.9260  204.2410  146.7430 O   0  0  0  0  0  0  0  0  0  0  0  0
  161.6520  206.5730  146.7180 N   0  0  0  0  0  2  0  0  0  0  0  0
  160.7980  208.1120  156.6300 C   0  0  2  0  0  3  0  0  0  0  0  0
  162.1550  208.4530  157.2180 C   0  0  0  0  0  1  0  0  0  0  0  0
  160.3000  206.9530  157.2260 O   0  0  0  0  0  1  0  0  0  0  0  0
  157.6320  214.4530  153.7050 C   0  0  0  0  0  2  0  0  0  0  0  0
  156.2850  214.2240  154.1980 N   0  0  0  0  0  1  0  0  0  0  0  0
  1  2  1  1  0  0  0
  1 11  1  0  0  0  0
  2  3  1  0  0  0  0
  3 12  1  0  0  0  0
  4  7  2  0  0  0  0
  4 14  1  0  0  0  0
  5  6  1  0  0  0  0
  5 13  2  0  0  0  0
  7  5  1  0  0  0  0
  9 13  1  0  0  0  0
 10  1  1  0  0  0  0
 10  7  1  0  0  0  0
 11  8  1  6  0  0  0
 11  6  1  0  0  0  0
 12 28  1  1  0  0  0
 12  8  1  0  0  0  0
 13 25  1  0  0  0  0
 14  9  2  0  0  0  0
 15 20  1  0  0  0  0
 16  4  1  0  0  0  0
 17 15  2  0  0  0  0
 17 18  1  0  0  0  0
 18 19  2  0  0  0  0
 19 16  1  0  0  0  0
 20 16  2  0  0  0  0
 21 24  1  0  0  0  0
 21 23  2  0  0  0  0
 22 21  1  0  0  0  0
 24 17  1  0  0  0  0
 25 26  1  1  0  0  0
 25 27  1  0  0  0  0
 28 29  1  0  0  0  0
M  END
>  <MODEL>
1

>  <REMARK>
 VINA RESULT:      -8.1      0.000      0.000
  Name = 
  4 active torsions:
  status: ('A' for Active; 'I' for Inactive)
    1  A    between atoms: C_1  and  C_24
    2  A    between atoms: C_4  and  C_25
    3  A    between atoms: C_8  and  C_10
    4  A    between atoms: C_14  and  N_29
                            x       y       z     vdW  Elec       q    Type
                         _______ _______ _______ _____ _____    ______ ____

>  <TORSDO>
F 4

$$$$
=
 OpenBabel11042423133D

 29 32  0  0  1  0  0  0  0  0999 V2000
  162.0580  208.9820  150.2290 C   0  0  2  0  0  3  0  0  0  0  0  0
  161.8070  209.0510  148.7450 C   0  0  0  0  0  2  0  0  0  0  0  0
  162.0230  210.4470  148.1710 C   0  0  0  0  0  2  0  0  0  0  0  0
  161.0610  206.2100  152.5590 C   0  0  0  0  0  0  0  0  0  0  0  0
  161.6370  208.5250  153.0960 C   0  0  0  0  0  0  0  0  0  0  0  0
  162.6190  209.9790  152.7010 S   0  0  0  0  0  0  0  0  0  0  0  0
  161.6360  207.4500  152.1890 C   0  0  0  0  0  0  0  0  0  0  0  0
  161.8900  211.4700  150.4250 C   0  0  0  0  0  2  0  0  0  0  0  0
  160.3930  207.1900  154.6870 C   0  0  0  0  0  3  0  0  0  0  0  0
  162.0510  207.6810  150.8330 N   0  0  0  0  0  2  0  0  0  0  0  0
  162.0590  210.0890  151.0010 C   0  0  1  0  0  3  0  0  0  0  0  0
  161.2760  211.4560  149.0260 C   0  0  1  0  0  3  0  0  0  0  0  0
  160.9890  208.4060  154.3380 C   0  0  0  0  0  0  0  0  0  0  0  0
  160.4360  206.1060  153.8120 C   0  0  0  0  0  3  0  0  0  0  0  0
  161.1930  202.6150  151.3230 C   0  0  0  0  0  3  0  0  0  0  0  0
  161.0600  205.0220  151.6630 C   0  0  0  0  0  0  0  0  0  0  0  0
  161.0040  202.7810  149.9480 C   0  0  0  0  0  0  0  0  0  0  0  0
  160.8370  204.0720  149.4330 C   0  0  0  0  0  3  0  0  0  0  0  0
  160.8620  205.1810  150.2830 C   0  0  0  0  0  3  0  0  0  0  0  0
  161.2170  203.7240  152.1720 C   0  0  0  0  0  3  0  0  0  0  0  0
  161.1400  201.5950  147.6810 C   0  0  0  0  0  0  0  0  0  0  0  0
  161.1860  200.2880  146.9770 C   0  0  0  0  0  1  0  0  0  0  0  0
  161.2190  202.6600  147.0130 O   0  0  0  0  0  0  0  0  0  0  0  0
  160.9910  201.6200  149.1070 N   0  0  0  0  0  2  0  0  0  0  0  0
  160.9760  209.5470  155.3120 C   0  0  2  0  0  3  0  0  0  0  0  0
  161.8950  209.2640  156.4860 C   0  0  0  0  0  1  0  0  0  0  0  0
  159.6790  209.7860  155.7710 O   0  0  0  0  0  1  0  0  0  0  0  0
  161.3800  212.8320  148.3960 C   0  0  0  0  0  2  0  0  0  0  0  0
  162.7130  213.0320  147.8550 N   0  0  0  0  0  1  0  0  0  0  0  0
  1  2  1  6  0  0  0
  1 10  1  0  0  0  0
  1 11  1  0  0  0  0
  3  2  1  0  0  0  0
  3 12  1  0  0  0  0
  4 14  1  0  0  0  0
  5 13  2  0  0  0  0
  6  5  1  0  0  0  0
  7  4  2  0  0  0  0
  7  5  1  0  0  0  0
 10  7  1  0  0  0  0
 11  8  1  6  0  0  0
 11  6  1  0  0  0  0
 12 28  1  6  0  0  0
 12  8  1  0  0  0  0
 13  9  1  0  0  0  0
 13 25  1  0  0  0  0
 14  9  2  0  0  0  0
 15 20  1  0  0  0  0
 16 20  2  0  0  0  0
 16  4  1  0  0  0  0
 17 15  2  0  0  0  0
 18 17  1  0  0  0  0
 18 19  2  0  0  0  0
 19 16  1  0  0  0  0
 21 24  1  0  0  0  0
 22 21  1  0  0  0  0
 23 21  2  0  0  0  0
 24 17  1  0  0  0  0
 25 27  1  0  0  0  0
 25 26  1  1  0  0  0
 29 28  1  0  0  0  0
M  END
>  <MODEL>
2

>  <REMARK>
 VINA RESULT:      -7.5      3.218      4.041
  Name = 
  4 active torsions:
  status: ('A' for Active; 'I' for Inactive)
    1  A    between atoms: C_1  and  C_24
    2  A    between atoms: C_4  and  C_25
    3  A    between atoms: C_8  and  C_10
    4  A    between atoms: C_14  and  N_29
                            x       y       z     vdW  Elec       q    Type
                         _______ _______ _______ _____ _____    ______ ____

>  <TORSDO>
F 4

$$$$
=
 OpenBabel11042423133D

 29 32  0  0  1  0  0  0  0  0999 V2000
  160.8490  207.6390  152.9540 C   0  0  2  0  0  3  0  0  0  0  0  0
  161.1230  206.5500  153.9590 C   0  0  0  0  0  2  0  0  0  0  0  0
  161.0210  207.0350  155.4010 C   0  0  0  0  0  2  0  0  0  0  0  0
  161.6040  207.5530  149.2750 C   0  0  0  0  0  0  0  0  0  0  0  0
  161.2000  209.4930  150.7080 C   0  0  0  0  0  0  0  0  0  0  0  0
  160.3380  210.1830  152.1270 S   0  0  0  0  0  0  0  0  0  0  0  0
  161.1300  208.1050  150.4910 C   0  0  0  0  0  0  0  0  0  0  0  0
  161.2040  209.4030  154.6910 C   0  0  0  0  0  2  0  0  0  0  0  0
  162.3200  209.7760  148.5800 C   0  0  0  0  0  3  0  0  0  0  0  0
  160.7500  207.2460  151.5770 N   0  0  0  0  0  2  0  0  0  0  0  0
  160.9240  208.9440  153.2840 C   0  0  1  0  0  3  0  0  0  0  0  0
  161.8320  208.3100  155.5550 C   0  0  1  0  0  3  0  0  0  0  0  0
  161.8230  210.3290  149.7640 C   0  0  0  0  0  0  0  0  0  0  0  0
  162.2040  208.4070  148.3370 C   0  0  0  0  0  3  0  0  0  0  0  0
  160.8930  203.8280  149.5710 C   0  0  0  0  0  3  0  0  0  0  0  0
  161.5260  206.1000  148.9650 C   0  0  0  0  0  0  0  0  0  0  0  0
  161.3430  203.3550  148.3360 C   0  0  0  0  0  0  0  0  0  0  0  0
  161.8810  204.2590  147.4130 C   0  0  0  0  0  3  0  0  0  0  0  0
  161.9690  205.6190  147.7240 C   0  0  0  0  0  3  0  0  0  0  0  0
  160.9800  205.1870  149.8820 C   0  0  0  0  0  3  0  0  0  0  0  0
  161.0150  201.3500  146.7740 C   0  0  0  0  0  0  0  0  0  0  0  0
  161.0230  199.8690  146.6540 C   0  0  0  0  0  1  0  0  0  0  0  0
  160.7950  202.0520  145.7520 O   0  0  0  0  0  0  0  0  0  0  0  0
  161.2430  201.9510  148.0550 N   0  0  0  0  0  2  0  0  0  0  0  0
  161.9110  211.8100  149.9870 C   0  0  2  0  0  3  0  0  0  0  0  0
  160.5390  212.4520  149.8950 C   0  0  0  0  0  1  0  0  0  0  0  0
  162.7730  212.3960  149.0580 O   0  0  0  0  0  1  0  0  0  0  0  0
  161.8410  208.7350  157.0100 C   0  0  0  0  0  2  0  0  0  0  0  0
  162.6430  209.9350  157.1730 N   0  0  0  0  0  1  0  0  0  0  0  0
  1 11  1  0  0  0  0
  1  2  1  6  0  0  0
  2  3  1  0  0  0  0
  3 12  1  0  0  0  0
  4  7  1  0  0  0  0
  5  6  1  0  0  0  0
  6 11  1  0  0  0  0
  7  5  2  0  0  0  0
  7 10  1  0  0  0  0
  8 12  1  0  0  0  0
  9 13  2  0  0  0  0
 10  1  1  0  0  0  0
 11  8  1  1  0  0  0
 12 28  1  1  0  0  0
 13 25  1  0  0  0  0
 13  5  1  0  0  0  0
 14  9  1  0  0  0  0
 14  4  2  0  0  0  0
 15 20  1  0  0  0  0
 16  4  1  0  0  0  0
 16 20  2  0  0  0  0
 17 15  2  0  0  0  0
 18 19  2  0  0  0  0
 18 17  1  0  0  0  0
 19 16  1  0  0  0  0
 21 24  1  0  0  0  0
 22 21  1  0  0  0  0
 23 21  2  0  0  0  0
 24 17  1  0  0  0  0
 25 26  1  6  0  0  0
 27 25  1  0  0  0  0
 28 29  1  0  0  0  0
M  END
>  <MODEL>
3

>  <REMARK>
 VINA RESULT:      -6.0      3.337      5.369
  Name = 
  4 active torsions:
  status: ('A' for Active; 'I' for Inactive)
    1  A    between atoms: C_1  and  C_24
    2  A    between atoms: C_4  and  C_25
    3  A    between atoms: C_8  and  C_10
    4  A    between atoms: C_14  and  N_29
                            x       y       z     vdW  Elec       q    Type
                         _______ _______ _______ _____ _____    ______ ____

>  <TORSDO>
F 4

$$$$
=
 OpenBabel11042423133D

 29 32  0  0  1  0  0  0  0  0999 V2000
  160.7880  206.7900  151.6030 C   0  0  2  0  0  3  0  0  0  0  0  0
  161.1380  206.1760  150.2720 C   0  0  0  0  0  2  0  0  0  0  0  0
  161.1060  204.6520  150.2960 C   0  0  0  0  0  2  0  0  0  0  0  0
  161.3400  210.3530  152.6580 C   0  0  0  0  0  0  0  0  0  0  0  0
  160.9780  208.3820  154.0600 C   0  0  0  0  0  0  0  0  0  0  0  0
  160.1820  206.7820  154.2580 S   0  0  0  0  0  0  0  0  0  0  0  0
  160.9230  209.0060  152.8000 C   0  0  0  0  0  0  0  0  0  0  0  0
  161.2040  204.6180  152.7720 C   0  0  0  0  0  2  0  0  0  0  0  0
  161.9730  210.3730  155.0100 C   0  0  0  0  0  3  0  0  0  0  0  0
  160.6210  208.2140  151.6410 N   0  0  0  0  0  2  0  0  0  0  0  0
  160.8550  206.0830  152.7500 C   0  0  1  0  0  3  0  0  0  0  0  0
  161.9000  204.1570  151.4920 C   0  0  1  0  0  3  0  0  0  0  0  0
  161.5320  209.0550  155.1630 C   0  0  0  0  0  0  0  0  0  0  0  0
  161.8710  211.0140  153.7760 C   0  0  0  0  0  3  0  0  0  0  0  0
  160.4540  212.9320  150.0070 C   0  0  0  0  0  3  0  0  0  0  0  0
  161.2730  211.0840  151.3640 C   0  0  0  0  0  0  0  0  0  0  0  0
  161.2010  212.4830  148.9140 C   0  0  0  0  0  0  0  0  0  0  0  0
  161.9890  211.3350  149.0510 C   0  0  0  0  0  3  0  0  0  0  0  0
  162.0260  210.6440  150.2650 C   0  0  0  0  0  3  0  0  0  0  0  0
  160.4930  212.2430  151.2210 C   0  0  0  0  0  3  0  0  0  0  0  0
  160.0860  213.1430  146.7040 C   0  0  0  0  0  0  0  0  0  0  0  0
  160.1360  214.0380  145.5190 C   0  0  0  0  0  1  0  0  0  0  0  0
  159.1340  212.3270  146.8220 O   0  0  0  0  0  0  0  0  0  0  0  0
  161.1310  213.2150  147.6820 N   0  0  0  0  0  2  0  0  0  0  0  0
  161.6030  208.3980  156.5090 C   0  0  2  0  0  3  0  0  0  0  0  0
  160.2950  208.5650  157.2610 C   0  0  0  0  0  1  0  0  0  0  0  0
  162.6530  208.9300  157.2600 O   0  0  0  0  0  1  0  0  0  0  0  0
  161.9810  202.6430  151.4580 C   0  0  0  0  0  2  0  0  0  0  0  0
  160.9310  202.1080  150.6080 N   0  0  0  0  0  1  0  0  0  0  0  0
  1  2  1  1  0  0  0
  1 10  1  0  0  0  0
  1 11  1  0  0  0  0
  2  3  1  0  0  0  0
  3 12  1  0  0  0  0
  4  7  2  0  0  0  0
  4 14  1  0  0  0  0
  5  6  1  0  0  0  0
  5 13  2  0  0  0  0
  7  5  1  0  0  0  0
  9 13  1  0  0  0  0
 10  7  1  0  0  0  0
 11  8  1  6  0  0  0
 11  6  1  0  0  0  0
 12 28  1  1  0  0  0
 12  8  1  0  0  0  0
 13 25  1  0  0  0  0
 14  9  2  0  0  0  0
 15 20  1  0  0  0  0
 16  4  1  0  0  0  0
 17 18  1  0  0  0  0
 17 15  2  0  0  0  0
 18 19  2  0  0  0  0
 19 16  1  0  0  0  0
 20 16  2  0  0  0  0
 21 23  2  0  0  0  0
 21 24  1  0  0  0  0
 22 21  1  0  0  0  0
 24 17  1  0  0  0  0
 25 27  1  0  0  0  0
 25 26  1  1  0  0  0
 29 28  1  0  0  0  0
M  END
>  <MODEL>
4

>  <REMARK>
 VINA RESULT:      -5.8      3.336      6.383
  Name = 
  4 active torsions:
  status: ('A' for Active; 'I' for Inactive)
    1  A    between atoms: C_1  and  C_24
    2  A    between atoms: C_4  and  C_25
    3  A    between atoms: C_8  and  C_10
    4  A    between atoms: C_14  and  N_29
                            x       y       z     vdW  Elec       q    Type
                         _______ _______ _______ _____ _____    ______ ____

>  <TORSDO>
F 4

$$$$
