=
 OpenBabel11052409563D

 29 33  0  0  1  0  0  0  0  0999 V2000
  160.0390  210.1730  156.9360 C   0  0  0  0  0  2  0  0  0  0  0  0
  160.3950  209.1390  154.9380 C   0  0  0  0  0  0  0  0  0  0  0  0
  159.7060  209.0350  156.1290 O   0  0  0  0  0  0  0  0  0  0  0  0
  161.7860  208.9990  149.6970 N   0  0  0  0  0  0  0  0  0  0  0  0
  161.1710  208.5950  152.7300 C   0  0  0  0  0  0  0  0  0  0  0  0
  161.9490  210.6250  153.8710 C   0  0  0  0  0  3  0  0  0  0  0  0
  161.1610  207.6790  151.6250 N   0  0  0  0  0  2  0  0  0  0  0  0
  162.0890  210.1720  150.4040 N   0  0  0  0  0  0  0  0  0  0  0  0
  161.1420  210.2690  154.9450 C   0  0  0  0  0  0  0  0  0  0  0  0
  161.4580  207.8530  150.2240 C   0  0  0  0  0  0  0  0  0  0  0  0
  160.9610  210.9340  156.1420 O   0  0  0  0  0  0  0  0  0  0  0  0
  161.9640  209.7730  152.7500 C   0  0  0  0  0  0  0  0  0  0  0  0
  162.8610  210.1100  151.6260 C   0  0  0  0  0  2  0  0  0  0  0  0
  160.3850  208.2690  153.8530 C   0  0  0  0  0  3  0  0  0  0  0  0
  161.2670  206.6980  149.3200 C   0  0  0  0  0  0  0  0  0  0  0  0
  162.2320  206.1650  147.1190 C   0  0  0  0  0  3  0  0  0  0  0  0
  160.9410  204.2280  149.0590 C   0  0  0  0  0  3  0  0  0  0  0  0
  161.2110  202.6710  147.3000 N   0  0  0  0  0  1  0  0  0  0  0  0
  161.4250  203.9700  147.8360 C   0  0  0  0  0  0  0  0  0  0  0  0
  162.2910  204.8670  147.1200 N   0  0  0  0  0  0  0  0  0  0  0  0
  161.1710  206.9220  147.8430 C   0  0  0  0  0  2  0  0  0  0  0  0
  161.0980  205.4740  149.8340 C   0  0  0  0  0  3  0  0  0  0  0  0
  161.9140  211.4680  149.7650 C   0  0  1  0  0  3  0  0  0  0  0  0
  161.1050  212.0690  147.4780 C   0  0  0  0  0  3  0  0  0  0  0  0
  160.0800  213.0190  148.0420 C   0  0  1  0  0  3  0  0  0  0  0  0
  161.9050  211.3280  148.2610 C   0  0  0  0  0  3  0  0  0  0  0  0
  160.6690  212.1710  150.3070 C   0  0  0  0  0  2  0  0  0  0  0  0
  160.3920  213.4220  149.4820 C   0  0  0  0  0  2  0  0  0  0  0  0
  159.9930  214.1440  147.2450 F   0  0  0  0  0  0  0  0  0  0  0  0
  2  9  1  0  0  0  0
  2  3  1  0  0  0  0
  3  1  1  0  0  0  0
  4 10  2  0  0  0  0
  4  8  1  0  0  0  0
  5 12  2  0  0  0  0
  5 14  1  0  0  0  0
  6  9  2  0  0  0  0
  7  5  1  0  0  0  0
  8 13  1  0  0  0  0
  9 11  1  0  0  0  0
 10  7  1  0  0  0  0
 11  1  1  0  0  0  0
 12  6  1  0  0  0  0
 13 12  1  0  0  0  0
 14  2  2  0  0  0  0
 15 22  2  0  0  0  0
 15 10  1  0  0  0  0
 16 20  2  0  0  0  0
 16 21  1  0  0  0  0
 17 22  1  0  0  0  0
 18 19  1  0  0  0  0
 19 17  2  0  0  0  0
 20 19  1  0  0  0  0
 21 15  1  0  0  0  0
 23 26  1  6  0  0  0
 23 27  1  0  0  0  0
 23  8  1  0  0  0  0
 24 25  1  0  0  0  0
 24 26  2  0  0  0  0
 25 29  1  6  0  0  0
 25 28  1  0  0  0  0
 28 27  1  0  0  0  0
M  END
>  <MODEL>
1

>  <REMARK>
 VINA RESULT:      -8.0      0.000      0.000
  Name = 
  2 active torsions:
  status: ('A' for Active; 'I' for Inactive)
    1  A    between atoms: C_1  and  N_17
    2  A    between atoms: C_3  and  C_23
                            x       y       z     vdW  Elec       q    Type
                         _______ _______ _______ _____ _____    ______ ____

>  <TORSDO>
F 2

$$$$
=
 OpenBabel11052409563D

 29 33  0  0  1  0  0  0  0  0999 V2000
  160.4220  209.7640  156.1930 C   0  0  0  0  0  2  0  0  0  0  0  0
  160.6850  208.7700  154.1600 C   0  0  0  0  0  0  0  0  0  0  0  0
  160.1190  208.6020  155.4090 O   0  0  0  0  0  0  0  0  0  0  0  0
  161.5990  208.7660  148.8140 N   0  0  0  0  0  0  0  0  0  0  0  0
  161.3010  208.3030  151.8860 C   0  0  0  0  0  0  0  0  0  0  0  0
  161.9970  210.3910  152.9730 C   0  0  0  0  0  3  0  0  0  0  0  0
  161.2720  207.3920  150.7780 N   0  0  0  0  0  2  0  0  0  0  0  0
  161.8590  209.9610  149.5030 N   0  0  0  0  0  0  0  0  0  0  0  0
  161.3260  209.9630  154.1120 C   0  0  0  0  0  0  0  0  0  0  0  0
  161.4230  207.5940  149.3560 C   0  0  0  0  0  0  0  0  0  0  0  0
  161.1960  210.6060  155.3270 O   0  0  0  0  0  0  0  0  0  0  0  0
  161.9850  209.5470  151.8470 C   0  0  0  0  0  0  0  0  0  0  0  0
  162.7430  209.9640  150.6490 C   0  0  0  0  0  2  0  0  0  0  0  0
  160.6530  207.9050  153.0720 C   0  0  0  0  0  3  0  0  0  0  0  0
  161.2540  206.4290  148.4620 C   0  0  0  0  0  0  0  0  0  0  0  0
  162.2050  205.9110  146.2510 C   0  0  0  0  0  3  0  0  0  0  0  0
  160.9950  203.9490  148.2200 C   0  0  0  0  0  3  0  0  0  0  0  0
  161.2870  202.3900  146.4660 N   0  0  0  0  0  1  0  0  0  0  0  0
  161.4700  203.6980  146.9920 C   0  0  0  0  0  0  0  0  0  0  0  0
  162.3010  204.6150  146.2590 N   0  0  0  0  0  0  0  0  0  0  0  0
  161.1320  206.6410  146.9850 C   0  0  0  0  0  2  0  0  0  0  0  0
  161.1260  205.2040  148.9850 C   0  0  0  0  0  3  0  0  0  0  0  0
  161.5120  211.2370  148.8950 C   0  0  1  0  0  3  0  0  0  0  0  0
  162.9480  212.9950  147.8500 C   0  0  0  0  0  3  0  0  0  0  0  0
  162.1120  212.9940  146.5960 C   0  0  1  0  0  3  0  0  0  0  0  0
  162.7060  212.1640  148.8750 C   0  0  0  0  0  3  0  0  0  0  0  0
  160.8970  211.0250  147.5120 C   0  0  0  0  0  2  0  0  0  0  0  0
  160.7350  212.3700  146.8160 C   0  0  0  0  0  2  0  0  0  0  0  0
  161.9750  214.2840  146.1200 F   0  0  0  0  0  0  0  0  0  0  0  0
  2  3  1  0  0  0  0
  3  1  1  0  0  0  0
  4 10  2  0  0  0  0
  4  8  1  0  0  0  0
  5 14  1  0  0  0  0
  6  9  2  0  0  0  0
  7  5  1  0  0  0  0
  8 13  1  0  0  0  0
  9  2  1  0  0  0  0
  9 11  1  0  0  0  0
 10  7  1  0  0  0  0
 11  1  1  0  0  0  0
 12  5  2  0  0  0  0
 12  6  1  0  0  0  0
 13 12  1  0  0  0  0
 14  2  2  0  0  0  0
 15 22  2  0  0  0  0
 15 10  1  0  0  0  0
 16 20  2  0  0  0  0
 16 21  1  0  0  0  0
 17 22  1  0  0  0  0
 18 19  1  0  0  0  0
 19 17  2  0  0  0  0
 20 19  1  0  0  0  0
 21 15  1  0  0  0  0
 23 27  1  6  0  0  0
 23  8  1  0  0  0  0
 24 26  2  0  0  0  0
 25 29  1  1  0  0  0
 25 28  1  0  0  0  0
 25 24  1  0  0  0  0
 26 23  1  0  0  0  0
 28 27  1  0  0  0  0
M  END
>  <MODEL>
2

>  <REMARK>
 VINA RESULT:      -7.3      1.124      1.370
  Name = 
  2 active torsions:
  status: ('A' for Active; 'I' for Inactive)
    1  A    between atoms: C_1  and  N_17
    2  A    between atoms: C_3  and  C_23
                            x       y       z     vdW  Elec       q    Type
                         _______ _______ _______ _____ _____    ______ ____

>  <TORSDO>
F 2

$$$$
=
 OpenBabel11052409563D

 29 33  0  0  1  0  0  0  0  0999 V2000
  160.8390  203.2210  149.3140 C   0  0  0  0  0  2  0  0  0  0  0  0
  161.1670  205.4450  148.9420 C   0  0  0  0  0  0  0  0  0  0  0  0
  160.8290  204.2580  148.3230 O   0  0  0  0  0  0  0  0  0  0  0  0
  161.4220  210.6540  150.4310 N   0  0  0  0  0  0  0  0  0  0  0  0
  161.6360  207.7840  149.2250 C   0  0  0  0  0  0  0  0  0  0  0  0
  161.7600  206.2390  151.1280 C   0  0  0  0  0  3  0  0  0  0  0  0
  161.7690  209.0820  148.6260 N   0  0  0  0  0  2  0  0  0  0  0  0
  161.3700  209.7010  151.4590 N   0  0  0  0  0  0  0  0  0  0  0  0
  161.3910  205.2190  150.2590 C   0  0  0  0  0  0  0  0  0  0  0  0
  161.6860  210.4130  149.1780 C   0  0  0  0  0  0  0  0  0  0  0  0
  161.2050  203.8790  150.5350 O   0  0  0  0  0  0  0  0  0  0  0  0
  161.8850  207.5380  150.6010 C   0  0  0  0  0  0  0  0  0  0  0  0
  162.3320  208.6200  151.5020 C   0  0  0  0  0  2  0  0  0  0  0  0
  161.2850  206.7120  148.3810 C   0  0  0  0  0  3  0  0  0  0  0  0
  161.7910  211.5610  148.2520 C   0  0  0  0  0  0  0  0  0  0  0  0
  163.6980  212.4810  146.9960 C   0  0  0  0  0  3  0  0  0  0  0  0
  160.7550  212.9280  146.4270 C   0  0  0  0  0  3  0  0  0  0  0  0
  161.5530  214.4530  144.8060 N   0  0  0  0  0  1  0  0  0  0  0  0
  161.8070  213.4590  145.7900 C   0  0  0  0  0  0  0  0  0  0  0  0
  163.1490  212.9580  145.9190 N   0  0  0  0  0  0  0  0  0  0  0  0
  162.9940  212.4500  148.3100 C   0  0  0  0  0  2  0  0  0  0  0  0
  160.7750  211.8460  147.4300 C   0  0  0  0  0  3  0  0  0  0  0  0
  160.5730  209.9610  152.6490 C   0  0  1  0  0  3  0  0  0  0  0  0
  161.1490  209.7870  155.0750 C   0  0  0  0  0  3  0  0  0  0  0  0
  160.6760  211.1950  155.3330 C   0  0  1  0  0  3  0  0  0  0  0  0
  161.1480  209.2430  153.8480 C   0  0  0  0  0  3  0  0  0  0  0  0
  160.4160  211.4660  152.8730 C   0  0  0  0  0  2  0  0  0  0  0  0
  159.7610  211.7120  154.2250 C   0  0  0  0  0  2  0  0  0  0  0  0
  160.0270  211.2570  156.5500 F   0  0  0  0  0  0  0  0  0  0  0  0
  1 11  1  0  0  0  0
  2  9  1  0  0  0  0
  3  2  1  0  0  0  0
  3  1  1  0  0  0  0
  4  8  1  0  0  0  0
  5 12  2  0  0  0  0
  7 10  1  0  0  0  0
  7  5  1  0  0  0  0
  8 13  1  0  0  0  0
  9 11  1  0  0  0  0
  9  6  2  0  0  0  0
 10  4  2  0  0  0  0
 12  6  1  0  0  0  0
 12 13  1  0  0  0  0
 14  2  2  0  0  0  0
 14  5  1  0  0  0  0
 15 21  1  0  0  0  0
 15 10  1  0  0  0  0
 16 21  1  0  0  0  0
 17 22  1  0  0  0  0
 18 19  1  0  0  0  0
 19 20  1  0  0  0  0
 19 17  2  0  0  0  0
 20 16  2  0  0  0  0
 22 15  2  0  0  0  0
 23  8  1  6  0  0  0
 23 27  1  0  0  0  0
 23 26  1  0  0  0  0
 24 25  1  0  0  0  0
 25 29  1  1  0  0  0
 26 24  2  0  0  0  0
 27 28  1  0  0  0  0
 28 25  1  0  0  0  0
M  END
>  <MODEL>
3

>  <REMARK>
 VINA RESULT:      -7.2      3.538      6.732
  Name = 
  2 active torsions:
  status: ('A' for Active; 'I' for Inactive)
    1  A    between atoms: C_1  and  N_17
    2  A    between atoms: C_3  and  C_23
                            x       y       z     vdW  Elec       q    Type
                         _______ _______ _______ _____ _____    ______ ____

>  <TORSDO>
F 2

$$$$
=
 OpenBabel11052409563D

 29 33  0  0  1  0  0  0  0  0999 V2000
  161.0350  214.1550  145.9760 C   0  0  0  0  0  2  0  0  0  0  0  0
  160.6460  213.3500  148.0720 C   0  0  0  0  0  0  0  0  0  0  0  0
  160.1740  214.2320  147.1210 O   0  0  0  0  0  0  0  0  0  0  0  0
  161.0050  209.6470  152.0190 N   0  0  0  0  0  0  0  0  0  0  0  0
  160.7900  212.1240  150.1330 C   0  0  0  0  0  0  0  0  0  0  0  0
  162.4460  211.7870  148.3520 C   0  0  0  0  0  3  0  0  0  0  0  0
  160.2580  211.8740  151.4420 N   0  0  0  0  0  2  0  0  0  0  0  0
  161.8360  209.4690  150.9020 N   0  0  0  0  0  0  0  0  0  0  0  0
  161.7520  212.7260  147.5980 C   0  0  0  0  0  0  0  0  0  0  0  0
  160.3640  210.7390  152.3270 C   0  0  0  0  0  0  0  0  0  0  0  0
  162.0300  213.1830  146.3260 O   0  0  0  0  0  0  0  0  0  0  0  0
  161.9570  211.4850  149.6380 C   0  0  0  0  0  0  0  0  0  0  0  0
  162.7180  210.5320  150.4710 C   0  0  0  0  0  2  0  0  0  0  0  0
  160.1340  213.0840  149.3370 C   0  0  0  0  0  3  0  0  0  0  0  0
  159.6100  210.7710  153.5990 C   0  0  0  0  0  0  0  0  0  0  0  0
  160.3580  210.8330  155.9440 C   0  0  0  0  0  3  0  0  0  0  0  0
  157.6290  211.6110  154.8810 C   0  0  0  0  0  3  0  0  0  0  0  0
  157.0730  211.8280  157.1690 N   0  0  0  0  0  1  0  0  0  0  0  0
  158.0410  211.5870  156.1560 C   0  0  0  0  0  0  0  0  0  0  0  0
  159.4240  211.5100  156.5420 N   0  0  0  0  0  0  0  0  0  0  0  0
  160.0900  209.9630  154.7640 C   0  0  0  0  0  2  0  0  0  0  0  0
  158.4630  211.4540  153.6730 C   0  0  0  0  0  3  0  0  0  0  0  0
  162.0560  208.1320  150.3700 C   0  0  1  0  0  3  0  0  0  0  0  0
  160.8310  205.9900  150.7670 C   0  0  0  0  0  3  0  0  0  0  0  0
  160.6550  205.7650  149.2880 C   0  0  1  0  0  3  0  0  0  0  0  0
  161.4240  207.0880  151.2610 C   0  0  0  0  0  3  0  0  0  0  0  0
  161.5800  208.0460  148.9190 C   0  0  0  0  0  2  0  0  0  0  0  0
  161.6280  206.5970  148.4540 C   0  0  0  0  0  2  0  0  0  0  0  0
  160.8070  204.4240  148.9940 F   0  0  0  0  0  0  0  0  0  0  0  0
  1 11  1  0  0  0  0
  1  3  1  0  0  0  0
  2 14  1  0  0  0  0
  3  2  1  0  0  0  0
  4 10  2  0  0  0  0
  5  7  1  0  0  0  0
  6 12  2  0  0  0  0
  7 10  1  0  0  0  0
  8  4  1  0  0  0  0
  9  2  2  0  0  0  0
  9  6  1  0  0  0  0
 10 15  1  0  0  0  0
 11  9  1  0  0  0  0
 12  5  1  0  0  0  0
 12 13  1  0  0  0  0
 13  8  1  0  0  0  0
 14  5  2  0  0  0  0
 15 22  2  0  0  0  0
 15 21  1  0  0  0  0
 16 20  2  0  0  0  0
 17 19  2  0  0  0  0
 19 20  1  0  0  0  0
 19 18  1  0  0  0  0
 21 16  1  0  0  0  0
 22 17  1  0  0  0  0
 23 27  1  6  0  0  0
 23  8  1  0  0  0  0
 23 26  1  0  0  0  0
 24 26  2  0  0  0  0
 25 29  1  1  0  0  0
 25 24  1  0  0  0  0
 28 27  1  0  0  0  0
 28 25  1  0  0  0  0
M  END
>  <MODEL>
4

>  <REMARK>
 VINA RESULT:      -6.6      4.018      7.800
  Name = 
  2 active torsions:
  status: ('A' for Active; 'I' for Inactive)
    1  A    between atoms: C_1  and  N_17
    2  A    between atoms: C_3  and  C_23
                            x       y       z     vdW  Elec       q    Type
                         _______ _______ _______ _____ _____    ______ ____

>  <TORSDO>
F 2

$$$$
=
 OpenBabel11052409563D

 29 33  0  0  1  0  0  0  0  0999 V2000
  162.3830  209.4940  157.0760 C   0  0  0  0  0  2  0  0  0  0  0  0
  162.2420  209.9910  154.8570 C   0  0  0  0  0  0  0  0  0  0  0  0
  162.7240  210.4530  156.0660 O   0  0  0  0  0  0  0  0  0  0  0  0
  161.6760  208.7510  149.6070 N   0  0  0  0  0  0  0  0  0  0  0  0
  161.7690  209.9110  152.5030 C   0  0  0  0  0  0  0  0  0  0  0  0
  161.0260  208.1090  153.9960 C   0  0  0  0  0  3  0  0  0  0  0  0
  161.8600  210.5450  151.2190 N   0  0  0  0  0  2  0  0  0  0  0  0
  161.3840  207.7390  150.5350 N   0  0  0  0  0  0  0  0  0  0  0  0
  161.6180  208.8030  155.0450 C   0  0  0  0  0  0  0  0  0  0  0  0
  161.8040  210.0200  149.8760 C   0  0  0  0  0  0  0  0  0  0  0  0
  161.6750  208.4580  156.3800 O   0  0  0  0  0  0  0  0  0  0  0  0
  161.1030  208.6740  152.7090 C   0  0  0  0  0  0  0  0  0  0  0  0
  160.4280  207.9750  151.5960 C   0  0  0  0  0  2  0  0  0  0  0  0
  162.3350  210.5850  153.6030 C   0  0  0  0  0  3  0  0  0  0  0  0
  162.0190  210.9540  148.7500 C   0  0  0  0  0  0  0  0  0  0  0  0
  160.4390  212.2350  147.3630 C   0  0  0  0  0  3  0  0  0  0  0  0
  163.3980  212.7780  147.7290 C   0  0  0  0  0  3  0  0  0  0  0  0
  163.0500  214.4180  146.0600 N   0  0  0  0  0  1  0  0  0  0  0  0
  162.5310  213.4290  146.9400 C   0  0  0  0  0  0  0  0  0  0  0  0
  161.1040  213.3100  147.0610 N   0  0  0  0  0  0  0  0  0  0  0  0
  161.0980  210.9140  147.5700 C   0  0  0  0  0  2  0  0  0  0  0  0
  163.0800  211.7680  148.7570 C   0  0  0  0  0  3  0  0  0  0  0  0
  161.7820  206.3670  150.2590 C   0  0  1  0  0  3  0  0  0  0  0  0
  161.4760  204.2740  151.5900 C   0  0  0  0  0  3  0  0  0  0  0  0
  160.8540  203.5650  150.4150 C   0  0  1  0  0  3  0  0  0  0  0  0
  161.8530  205.5610  151.5350 C   0  0  0  0  0  3  0  0  0  0  0  0
  160.8650  205.7410  149.2070 C   0  0  0  0  0  2  0  0  0  0  0  0
  161.1700  204.2540  149.0880 C   0  0  0  0  0  2  0  0  0  0  0  0
  161.2810  202.2520  150.3780 F   0  0  0  0  0  0  0  0  0  0  0  0
  2  9  1  0  0  0  0
  2  3  1  0  0  0  0
  3  1  1  0  0  0  0
  4 10  2  0  0  0  0
  4  8  1  0  0  0  0
  5 12  2  0  0  0  0
  5 14  1  0  0  0  0
  6  9  2  0  0  0  0
  7  5  1  0  0  0  0
  8 13  1  0  0  0  0
  9 11  1  0  0  0  0
 10  7  1  0  0  0  0
 11  1  1  0  0  0  0
 12  6  1  0  0  0  0
 13 12  1  0  0  0  0
 14  2  2  0  0  0  0
 15 22  2  0  0  0  0
 15 10  1  0  0  0  0
 16 21  1  0  0  0  0
 17 22  1  0  0  0  0
 18 19  1  0  0  0  0
 19 20  1  0  0  0  0
 19 17  2  0  0  0  0
 20 16  2  0  0  0  0
 21 15  1  0  0  0  0
 23 27  1  6  0  0  0
 23  8  1  0  0  0  0
 23 26  1  0  0  0  0
 25 29  1  6  0  0  0
 25 24  1  0  0  0  0
 26 24  2  0  0  0  0
 28 27  1  0  0  0  0
 28 25  1  0  0  0  0
M  END
>  <MODEL>
5

>  <REMARK>
 VINA RESULT:      -6.6      3.004      6.196
  Name = 
  2 active torsions:
  status: ('A' for Active; 'I' for Inactive)
    1  A    between atoms: C_1  and  N_17
    2  A    between atoms: C_3  and  C_23
                            x       y       z     vdW  Elec       q    Type
                         _______ _______ _______ _____ _____    ______ ____

>  <TORSDO>
F 2

$$$$
=
 OpenBabel11052409563D

 29 33  0  0  1  0  0  0  0  0999 V2000
  161.8920  208.6580  156.4870 C   0  0  0  0  0  2  0  0  0  0  0  0
  161.8150  209.5280  154.3830 C   0  0  0  0  0  0  0  0  0  0  0  0
  162.1570  209.8200  155.6880 O   0  0  0  0  0  0  0  0  0  0  0  0
  161.7310  209.2030  148.9690 N   0  0  0  0  0  0  0  0  0  0  0  0
  161.4960  209.8190  152.0200 C   0  0  0  0  0  0  0  0  0  0  0  0
  160.9200  207.6980  153.1140 C   0  0  0  0  0  3  0  0  0  0  0  0
  161.5740  210.6830  150.8760 N   0  0  0  0  0  2  0  0  0  0  0  0
  161.5270  208.0110  149.6810 N   0  0  0  0  0  0  0  0  0  0  0  0
  161.3490  208.2580  154.3110 C   0  0  0  0  0  0  0  0  0  0  0  0
  161.6680  210.4070  149.4620 C   0  0  0  0  0  0  0  0  0  0  0  0
  161.3750  207.6860  155.5670 O   0  0  0  0  0  0  0  0  0  0  0  0
  160.9940  208.4930  151.9540 C   0  0  0  0  0  0  0  0  0  0  0  0
  160.4880  207.9290  150.6850 C   0  0  0  0  0  2  0  0  0  0  0  0
  161.8990  210.3470  153.2620 C   0  0  0  0  0  3  0  0  0  0  0  0
  161.8180  211.5500  148.5360 C   0  0  0  0  0  0  0  0  0  0  0  0
  163.7660  212.4080  147.2990 C   0  0  0  0  0  3  0  0  0  0  0  0
  160.8440  212.9460  146.6980 C   0  0  0  0  0  3  0  0  0  0  0  0
  161.7070  214.4430  145.0830 N   0  0  0  0  0  1  0  0  0  0  0  0
  161.9200  213.4420  146.0710 C   0  0  0  0  0  0  0  0  0  0  0  0
  163.2430  212.9000  146.2150 N   0  0  0  0  0  0  0  0  0  0  0  0
  163.0480  212.4020  148.6050 C   0  0  0  0  0  2  0  0  0  0  0  0
  160.8210  211.8650  147.7030 C   0  0  0  0  0  3  0  0  0  0  0  0
  162.1250  206.7720  149.2060 C   0  0  1  0  0  3  0  0  0  0  0  0
  161.2320  204.4390  149.1530 C   0  0  0  0  0  3  0  0  0  0  0  0
  161.5460  204.3060  147.6850 C   0  0  1  0  0  3  0  0  0  0  0  0
  161.4500  205.5750  149.8330 C   0  0  0  0  0  3  0  0  0  0  0  0
  162.1250  206.7260  147.6780 C   0  0  0  0  0  2  0  0  0  0  0  0
  162.5620  205.3440  147.2110 C   0  0  0  0  0  2  0  0  0  0  0  0
  162.0110  203.0330  147.4170 F   0  0  0  0  0  0  0  0  0  0  0  0
  2  3  1  0  0  0  0
  3  1  1  0  0  0  0
  4 10  2  0  0  0  0
  4  8  1  0  0  0  0
  5 14  1  0  0  0  0
  6  9  2  0  0  0  0
  7  5  1  0  0  0  0
  8 13  1  0  0  0  0
  9  2  1  0  0  0  0
  9 11  1  0  0  0  0
 10  7  1  0  0  0  0
 11  1  1  0  0  0  0
 12  5  2  0  0  0  0
 12  6  1  0  0  0  0
 13 12  1  0  0  0  0
 14  2  2  0  0  0  0
 15 21  1  0  0  0  0
 15 10  1  0  0  0  0
 16 21  1  0  0  0  0
 17 22  1  0  0  0  0
 18 19  1  0  0  0  0
 19 20  1  0  0  0  0
 19 17  2  0  0  0  0
 20 16  2  0  0  0  0
 22 15  2  0  0  0  0
 23 27  1  6  0  0  0
 23  8  1  0  0  0  0
 23 26  1  0  0  0  0
 24 26  2  0  0  0  0
 25 29  1  1  0  0  0
 25 24  1  0  0  0  0
 28 27  1  0  0  0  0
 28 25  1  0  0  0  0
M  END
>  <MODEL>
6

>  <REMARK>
 VINA RESULT:      -6.2      2.879      6.035
  Name = 
  2 active torsions:
  status: ('A' for Active; 'I' for Inactive)
    1  A    between atoms: C_1  and  N_17
    2  A    between atoms: C_3  and  C_23
                            x       y       z     vdW  Elec       q    Type
                         _______ _______ _______ _____ _____    ______ ____

>  <TORSDO>
F 2

$$$$
=
 OpenBabel11052409563D

 29 33  0  0  1  0  0  0  0  0999 V2000
  160.3640  208.3330  156.0640 C   0  0  0  0  0  2  0  0  0  0  0  0
  160.7690  207.8510  153.8750 C   0  0  0  0  0  0  0  0  0  0  0  0
  160.1440  207.3820  155.0130 O   0  0  0  0  0  0  0  0  0  0  0  0
  161.9650  209.1240  148.7400 N   0  0  0  0  0  0  0  0  0  0  0  0
  161.5210  207.9450  151.5950 C   0  0  0  0  0  0  0  0  0  0  0  0
  162.0840  209.7340  153.1790 C   0  0  0  0  0  3  0  0  0  0  0  0
  161.5830  207.3200  150.3050 N   0  0  0  0  0  2  0  0  0  0  0  0
  162.1460  210.1290  149.7030 N   0  0  0  0  0  0  0  0  0  0  0  0
  161.3690  209.0350  154.1450 C   0  0  0  0  0  0  0  0  0  0  0  0
  161.8020  207.8540  148.9820 C   0  0  0  0  0  0  0  0  0  0  0  0
  161.1520  209.3710  155.4660 O   0  0  0  0  0  0  0  0  0  0  0  0
  162.1610  209.1780  151.8880 C   0  0  0  0  0  0  0  0  0  0  0  0
  162.9670  209.8820  150.8690 C   0  0  0  0  0  2  0  0  0  0  0  0
  160.8250  207.2660  152.6140 C   0  0  0  0  0  3  0  0  0  0  0  0
  161.7210  206.9280  147.8320 C   0  0  0  0  0  0  0  0  0  0  0  0
  162.2150  204.5250  147.6290 C   0  0  0  0  0  3  0  0  0  0  0  0
  160.5100  206.1990  145.7640 C   0  0  0  0  0  3  0  0  0  0  0  0
  160.4570  204.2340  144.4490 N   0  0  0  0  0  1  0  0  0  0  0  0
  160.8340  204.9040  145.6450 C   0  0  0  0  0  0  0  0  0  0  0  0
  161.3790  204.1200  146.7200 N   0  0  0  0  0  0  0  0  0  0  0  0
  162.7910  205.9000  147.6340 C   0  0  0  0  0  2  0  0  0  0  0  0
  160.7410  207.0710  146.9330 C   0  0  0  0  0  3  0  0  0  0  0  0
  161.7870  211.5040  149.3910 C   0  0  1  0  0  3  0  0  0  0  0  0
  160.4700  212.4620  147.4960 C   0  0  0  0  0  3  0  0  0  0  0  0
  159.5630  213.2040  148.4430 C   0  0  1  0  0  3  0  0  0  0  0  0
  161.4500  211.6520  147.9260 C   0  0  0  0  0  3  0  0  0  0  0  0
  160.6690  211.9910  150.3140 C   0  0  0  0  0  2  0  0  0  0  0  0
  160.1720  213.3490  149.8370 C   0  0  0  0  0  2  0  0  0  0  0  0
  159.2600  214.4490  147.9270 F   0  0  0  0  0  0  0  0  0  0  0  0
  2  9  1  0  0  0  0
  2  3  1  0  0  0  0
  3  1  1  0  0  0  0
  4 10  2  0  0  0  0
  4  8  1  0  0  0  0
  5 12  2  0  0  0  0
  5 14  1  0  0  0  0
  6  9  2  0  0  0  0
  7  5  1  0  0  0  0
  8 13  1  0  0  0  0
  9 11  1  0  0  0  0
 10  7  1  0  0  0  0
 11  1  1  0  0  0  0
 12  6  1  0  0  0  0
 13 12  1  0  0  0  0
 14  2  2  0  0  0  0
 15 10  1  0  0  0  0
 16 21  1  0  0  0  0
 17 22  1  0  0  0  0
 18 19  1  0  0  0  0
 19 17  2  0  0  0  0
 19 20  1  0  0  0  0
 20 16  2  0  0  0  0
 21 15  1  0  0  0  0
 22 15  2  0  0  0  0
 23 26  1  6  0  0  0
 23  8  1  0  0  0  0
 23 27  1  0  0  0  0
 24 26  2  0  0  0  0
 24 25  1  0  0  0  0
 25 29  1  6  0  0  0
 25 28  1  0  0  0  0
 28 27  1  0  0  0  0
M  END
>  <MODEL>
7

>  <REMARK>
 VINA RESULT:      -5.9      1.318      1.723
  Name = 
  2 active torsions:
  status: ('A' for Active; 'I' for Inactive)
    1  A    between atoms: C_1  and  N_17
    2  A    between atoms: C_3  and  C_23
                            x       y       z     vdW  Elec       q    Type
                         _______ _______ _______ _____ _____    ______ ____

>  <TORSDO>
F 2

$$$$
=
 OpenBabel11052409563D

 29 33  0  0  1  0  0  0  0  0999 V2000
  159.3070  213.1280  144.4320 C   0  0  0  0  0  2  0  0  0  0  0  0
  159.4120  213.0970  146.7080 C   0  0  0  0  0  0  0  0  0  0  0  0
  158.6360  213.5070  145.6420 O   0  0  0  0  0  0  0  0  0  0  0  0
  161.0890  211.1580  151.4870 N   0  0  0  0  0  0  0  0  0  0  0  0
  160.1090  212.7330  148.9780 C   0  0  0  0  0  0  0  0  0  0  0  0
  161.5000  211.9810  147.1000 C   0  0  0  0  0  3  0  0  0  0  0  0
  159.8450  212.9100  150.3770 N   0  0  0  0  0  2  0  0  0  0  0  0
  161.7540  210.6910  150.3430 N   0  0  0  0  0  0  0  0  0  0  0  0
  160.5300  212.4870  146.2440 C   0  0  0  0  0  0  0  0  0  0  0  0
  160.3050  212.1970  151.5450 C   0  0  0  0  0  0  0  0  0  0  0  0
  160.5130  212.4820  144.8640 O   0  0  0  0  0  0  0  0  0  0  0  0
  161.2850  212.1090  148.4850 C   0  0  0  0  0  0  0  0  0  0  0  0
  162.3360  211.6270  149.4050 C   0  0  0  0  0  2  0  0  0  0  0  0
  159.1650  213.2480  148.0680 C   0  0  0  0  0  3  0  0  0  0  0  0
  159.7660  212.5940  152.8630 C   0  0  0  0  0  0  0  0  0  0  0  0
  157.4870  213.1750  153.5930 C   0  0  0  0  0  3  0  0  0  0  0  0
  159.7990  212.3110  155.3520 C   0  0  0  0  0  3  0  0  0  0  0  0
  158.3170  212.8180  157.1240 N   0  0  0  0  0  1  0  0  0  0  0  0
  158.5680  212.6800  155.7310 C   0  0  0  0  0  0  0  0  0  0  0  0
  157.4530  212.7720  154.8280 N   0  0  0  0  0  0  0  0  0  0  0  0
  158.7330  213.6750  152.9450 C   0  0  0  0  0  2  0  0  0  0  0  0
  160.2650  212.0450  153.9760 C   0  0  0  0  0  3  0  0  0  0  0  0
  162.1410  209.2910  150.2510 C   0  0  1  0  0  3  0  0  0  0  0  0
  161.0240  207.2250  151.1030 C   0  0  0  0  0  3  0  0  0  0  0  0
  161.0810  206.5800  149.7420 C   0  0  1  0  0  3  0  0  0  0  0  0
  161.4610  208.4740  151.3250 C   0  0  0  0  0  3  0  0  0  0  0  0
  161.8890  208.7550  148.8420 C   0  0  0  0  0  2  0  0  0  0  0  0
  162.1050  207.2470  148.8260 C   0  0  0  0  0  2  0  0  0  0  0  0
  161.3680  205.2350  149.8710 F   0  0  0  0  0  0  0  0  0  0  0  0
  1 11  1  0  0  0  0
  1  3  1  0  0  0  0
  2 14  1  0  0  0  0
  3  2  1  0  0  0  0
  4 10  2  0  0  0  0
  5  7  1  0  0  0  0
  6 12  2  0  0  0  0
  7 10  1  0  0  0  0
  8  4  1  0  0  0  0
  9  2  2  0  0  0  0
  9  6  1  0  0  0  0
 10 15  1  0  0  0  0
 11  9  1  0  0  0  0
 12  5  1  0  0  0  0
 12 13  1  0  0  0  0
 13  8  1  0  0  0  0
 14  5  2  0  0  0  0
 15 21  1  0  0  0  0
 15 22  2  0  0  0  0
 16 20  2  0  0  0  0
 17 19  2  0  0  0  0
 19 18  1  0  0  0  0
 20 19  1  0  0  0  0
 21 16  1  0  0  0  0
 22 17  1  0  0  0  0
 23 27  1  6  0  0  0
 23  8  1  0  0  0  0
 23 26  1  0  0  0  0
 24 26  2  0  0  0  0
 25 29  1  1  0  0  0
 25 24  1  0  0  0  0
 28 27  1  0  0  0  0
 28 25  1  0  0  0  0
M  END
>  <MODEL>
8

>  <REMARK>
 VINA RESULT:      -5.4      4.414      8.267
  Name = 
  2 active torsions:
  status: ('A' for Active; 'I' for Inactive)
    1  A    between atoms: C_1  and  N_17
    2  A    between atoms: C_3  and  C_23
                            x       y       z     vdW  Elec       q    Type
                         _______ _______ _______ _____ _____    ______ ____

>  <TORSDO>
F 2

$$$$
