=
 OpenBabel11042420103D

 30 34  0  0  1  0  0  0  0  0999 V2000
  161.8360  209.4800  151.1190 C   0  0  0  0  0  0  0  0  0  0  0  0
  161.8260  209.4240  148.7260 C   0  0  0  0  0  0  0  0  0  0  0  0
  160.5300  209.2440  153.1850 C   0  0  0  0  0  3  0  0  0  0  0  0
  162.1520  210.7360  148.6150 N   0  0  0  0  0  0  0  0  0  0  0  0
  161.4780  207.2590  148.4610 N   0  0  0  0  0  0  0  0  0  0  0  0
  162.3130  211.4630  149.7710 C   0  0  0  0  0  3  0  0  0  0  0  0
  161.4500  207.5440  149.7600 N   0  0  0  0  0  0  0  0  0  0  0  0
  161.7030  208.4200  147.7760 C   0  0  0  0  0  3  0  0  0  0  0  0
  161.6780  208.6960  152.4000 C   0  0  0  0  0  0  0  0  0  0  0  0
  161.5300  207.1840  152.1840 C   0  0  0  0  0  0  0  0  0  0  0  0
  161.5630  206.3640  153.2430 C   0  0  0  0  0  3  0  0  0  0  0  0
  161.4020  206.6370  150.8350 N   0  0  0  0  0  0  0  0  0  0  0  0
  161.0430  207.8770  155.1760 C   0  0  0  0  0  3  0  0  0  0  0  0
  161.6100  206.7810  154.6570 C   0  0  0  0  0  3  0  0  0  0  0  0
  161.6660  208.8340  149.9220 C   0  0  0  0  0  0  0  0  0  0  0  0
  160.2530  208.8940  154.4430 C   0  0  1  0  0  3  0  0  0  0  0  0
  162.1650  210.8490  151.0460 C   0  0  0  0  0  3  0  0  0  0  0  0
  160.8900  202.4860  150.0460 C   0  0  0  0  0  0  0  0  0  0  0  0
  161.0870  202.9360  151.3590 C   0  0  0  0  0  3  0  0  0  0  0  0
  160.8630  203.4180  149.0000 C   0  0  0  0  0  3  0  0  0  0  0  0
  161.2130  205.2320  150.5750 C   0  0  0  0  0  0  0  0  0  0  0  0
  161.0260  204.7800  149.2620 C   0  0  0  0  0  3  0  0  0  0  0  0
  161.2500  204.2980  151.6210 C   0  0  0  0  0  3  0  0  0  0  0  0
  161.2740  200.4690  148.5920 N   0  0  0  0  0  1  0  0  0  0  0  0
  160.0750  200.3180  150.5700 O   0  0  0  0  0  0  0  0  0  0  0  0
  160.7170  201.0490  149.7680 C   0  0  0  0  0  0  0  0  0  0  0  0
  159.2630  210.8810  155.7280 C   0  0  0  0  0  0  0  0  0  0  0  0
  160.3460  211.5190  155.7890 O   0  0  0  0  0  0  0  0  0  0  0  0
  159.1870  209.5970  155.0960 N   0  0  0  0  0  2  0  0  0  0  0  0
  158.0370  211.4690  156.3290 C   0  0  0  0  0  1  0  0  0  0  0  0
  1  9  1  0  0  0  0
  2 15  1  0  0  0  0
  3 16  1  0  0  0  0
  4  2  2  0  0  0  0
  4  6  1  0  0  0  0
  5  7  1  0  0  0  0
  6 17  2  0  0  0  0
  7 15  1  0  0  0  0
  7 12  1  0  0  0  0
  8  5  2  0  0  0  0
  8  2  1  0  0  0  0
  9  3  2  0  0  0  0
 10  9  1  0  0  0  0
 10 11  2  0  0  0  0
 11 14  1  0  0  0  0
 12 10  1  0  0  0  0
 14 13  2  0  0  0  0
 15  1  2  0  0  0  0
 16 29  1  1  0  0  0
 16 13  1  0  0  0  0
 17  1  1  0  0  0  0
 18 19  1  0  0  0  0
 19 23  2  0  0  0  0
 20 22  1  0  0  0  0
 20 18  2  0  0  0  0
 21 12  1  0  0  0  0
 21 23  1  0  0  0  0
 22 21  2  0  0  0  0
 24 26  1  0  0  0  0
 26 18  1  0  0  0  0
 26 25  2  0  0  0  0
 27 28  2  0  0  0  0
 27 30  1  0  0  0  0
 29 27  1  0  0  0  0
M  END
>  <MODEL>
1

>  <REMARK>
 VINA RESULT:      -7.6      0.000      0.000
  Name = 
  3 active torsions:
  status: ('A' for Active; 'I' for Inactive)
    1  A    between atoms: C_5  and  C_22
    2  A    between atoms: N_16  and  C_27
    3  A    between atoms: N_20  and  C_21
                            x       y       z     vdW  Elec       q    Type
                         _______ _______ _______ _____ _____    ______ ____

>  <TORSDO>
F 3

$$$$
=
 OpenBabel11042420103D

 30 34  0  0  1  0  0  0  0  0999 V2000
  161.9940  207.0350  148.1830 C   0  0  0  0  0  0  0  0  0  0  0  0
  161.2590  204.8030  148.6400 C   0  0  0  0  0  0  0  0  0  0  0  0
  161.3670  209.3980  147.9550 C   0  0  0  0  0  3  0  0  0  0  0  0
  161.5760  204.3600  147.3980 N   0  0  0  0  0  0  0  0  0  0  0  0
  160.7820  205.0600  150.7820 N   0  0  0  0  0  0  0  0  0  0  0  0
  162.1010  205.2620  146.5020 C   0  0  0  0  0  3  0  0  0  0  0  0
  161.1570  206.2330  150.2800 N   0  0  0  0  0  0  0  0  0  0  0  0
  160.8250  204.1340  149.7760 C   0  0  0  0  0  3  0  0  0  0  0  0
  162.2080  208.4290  148.7220 C   0  0  1  0  0  3  0  0  0  0  0  0
  161.9550  208.5510  150.2320 C   0  0  0  0  0  0  0  0  0  0  0  0
  162.2820  209.6870  150.8610 C   0  0  0  0  0  3  0  0  0  0  0  0
  161.4090  207.4250  150.9850 N   0  0  0  0  0  0  0  0  0  0  0  0
  162.4170  211.3710  149.0050 C   0  0  0  0  0  3  0  0  0  0  0  0
  162.7670  210.9230  150.2170 C   0  0  0  0  0  3  0  0  0  0  0  0
  161.4510  206.0820  149.0050 C   0  0  0  0  0  0  0  0  0  0  0  0
  161.4730  210.7240  148.0630 C   0  0  0  0  0  0  0  0  0  0  0  0
  162.3270  206.6150  146.8780 C   0  0  0  0  0  3  0  0  0  0  0  0
  160.5700  207.6370  155.1530 C   0  0  0  0  0  0  0  0  0  0  0  0
  160.4260  208.7730  154.3450 C   0  0  0  0  0  3  0  0  0  0  0  0
  160.9930  206.4330  154.5720 C   0  0  0  0  0  3  0  0  0  0  0  0
  161.1080  207.4980  152.3930 C   0  0  0  0  0  0  0  0  0  0  0  0
  161.2620  206.3650  153.2030 C   0  0  0  0  0  3  0  0  0  0  0  0
  160.6950  208.7050  152.9760 C   0  0  0  0  0  3  0  0  0  0  0  0
  160.2250  208.9680  157.2600 N   0  0  0  0  0  1  0  0  0  0  0  0
  160.0940  206.6540  157.2610 O   0  0  0  0  0  0  0  0  0  0  0  0
  160.2860  207.7080  156.5970 C   0  0  0  0  0  0  0  0  0  0  0  0
  161.1300  212.5850  146.3320 C   0  0  0  0  0  0  0  0  0  0  0  0
  162.3330  212.9560  146.3320 O   0  0  0  0  0  0  0  0  0  0  0  0
  160.6770  211.5170  147.1720 N   0  0  0  0  0  2  0  0  0  0  0  0
  160.1570  213.2760  145.4450 C   0  0  0  0  0  1  0  0  0  0  0  0
  1  9  1  0  0  0  0
  1 15  2  0  0  0  0
  2 15  1  0  0  0  0
  2  8  1  0  0  0  0
  3 16  2  0  0  0  0
  4  2  2  0  0  0  0
  6 17  2  0  0  0  0
  6  4  1  0  0  0  0
  7  5  1  0  0  0  0
  7 12  1  0  0  0  0
  8  5  2  0  0  0  0
  9  3  1  6  0  0  0
  9 10  1  0  0  0  0
 10 11  2  0  0  0  0
 10 12  1  0  0  0  0
 12 21  1  0  0  0  0
 13 14  2  0  0  0  0
 14 11  1  0  0  0  0
 15  7  1  0  0  0  0
 16 13  1  0  0  0  0
 17  1  1  0  0  0  0
 18 26  1  0  0  0  0
 19 18  2  0  0  0  0
 20 18  1  0  0  0  0
 21 23  2  0  0  0  0
 21 22  1  0  0  0  0
 22 20  2  0  0  0  0
 23 19  1  0  0  0  0
 26 24  1  0  0  0  0
 26 25  2  0  0  0  0
 27 29  1  0  0  0  0
 28 27  2  0  0  0  0
 29 16  1  0  0  0  0
 30 27  1  0  0  0  0
M  END
>  <MODEL>
2

>  <REMARK>
 VINA RESULT:      -7.3      2.684      6.591
  Name = 
  3 active torsions:
  status: ('A' for Active; 'I' for Inactive)
    1  A    between atoms: C_5  and  C_22
    2  A    between atoms: N_16  and  C_27
    3  A    between atoms: N_20  and  C_21
                            x       y       z     vdW  Elec       q    Type
                         _______ _______ _______ _____ _____    ______ ____

>  <TORSDO>
F 3

$$$$
=
 OpenBabel11042420103D

 30 34  0  0  1  0  0  0  0  0999 V2000
  161.8500  209.8430  151.0800 C   0  0  0  0  0  0  0  0  0  0  0  0
  161.8820  209.7030  148.6900 C   0  0  0  0  0  0  0  0  0  0  0  0
  160.5020  209.7070  153.1280 C   0  0  0  0  0  3  0  0  0  0  0  0
  162.2390  211.0040  148.5400 N   0  0  0  0  0  0  0  0  0  0  0  0
  161.4920  207.5380  148.4940 N   0  0  0  0  0  0  0  0  0  0  0  0
  162.3940  211.7670  149.6730 C   0  0  0  0  0  3  0  0  0  0  0  0
  161.4470  207.8690  149.7810 N   0  0  0  0  0  0  0  0  0  0  0  0
  161.7550  208.6700  147.7730 C   0  0  0  0  0  3  0  0  0  0  0  0
  161.6520  209.1080  152.3840 C   0  0  0  0  0  0  0  0  0  0  0  0
  161.4750  207.5920  152.2180 C   0  0  0  0  0  0  0  0  0  0  0  0
  161.4710  206.8100  153.3050 C   0  0  0  0  0  3  0  0  0  0  0  0
  161.3600  207.0020  150.8860 N   0  0  0  0  0  0  0  0  0  0  0  0
  160.9490  208.4000  155.1740 C   0  0  0  0  0  3  0  0  0  0  0  0
  161.5010  207.2750  154.7040 C   0  0  0  0  0  3  0  0  0  0  0  0
  161.6880  209.1590  149.9030 C   0  0  0  0  0  0  0  0  0  0  0  0
  160.1940  209.4070  154.3910 C   0  0  1  0  0  3  0  0  0  0  0  0
  162.2100  211.2010  150.9660 C   0  0  0  0  0  3  0  0  0  0  0  0
  160.6770  202.8460  150.2650 C   0  0  0  0  0  0  0  0  0  0  0  0
  160.9430  203.6880  149.1770 C   0  0  0  0  0  3  0  0  0  0  0  0
  160.6400  203.3890  151.5570 C   0  0  0  0  0  3  0  0  0  0  0  0
  161.1450  205.5920  150.6720 C   0  0  0  0  0  0  0  0  0  0  0  0
  160.8700  204.7520  151.7590 C   0  0  0  0  0  3  0  0  0  0  0  0
  161.1720  205.0510  149.3780 C   0  0  0  0  0  3  0  0  0  0  0  0
  159.3530  200.9700  149.2360 N   0  0  0  0  0  1  0  0  0  0  0  0
  161.1830  200.5500  150.5950 O   0  0  0  0  0  0  0  0  0  0  0  0
  160.4350  201.4080  150.0540 C   0  0  0  0  0  0  0  0  0  0  0  0
  159.2470  211.4010  155.6980 C   0  0  0  0  0  0  0  0  0  0  0  0
  160.3640  211.9570  155.8700 O   0  0  0  0  0  0  0  0  0  0  0  0
  159.1330  210.1550  155.0000 N   0  0  0  0  0  2  0  0  0  0  0  0
  158.0220  212.0470  156.2360 C   0  0  0  0  0  1  0  0  0  0  0  0
  1  9  1  0  0  0  0
  2 15  1  0  0  0  0
  3 16  1  0  0  0  0
  4  2  2  0  0  0  0
  4  6  1  0  0  0  0
  5  7  1  0  0  0  0
  6 17  2  0  0  0  0
  7 15  1  0  0  0  0
  7 12  1  0  0  0  0
  8  5  2  0  0  0  0
  8  2  1  0  0  0  0
  9  3  2  0  0  0  0
 10  9  1  0  0  0  0
 10 11  2  0  0  0  0
 11 14  1  0  0  0  0
 12 10  1  0  0  0  0
 14 13  2  0  0  0  0
 15  1  2  0  0  0  0
 16 29  1  1  0  0  0
 16 13  1  0  0  0  0
 17  1  1  0  0  0  0
 18 20  1  0  0  0  0
 19 23  1  0  0  0  0
 19 18  2  0  0  0  0
 20 22  2  0  0  0  0
 21 12  1  0  0  0  0
 21 22  1  0  0  0  0
 23 21  2  0  0  0  0
 24 26  1  0  0  0  0
 26 18  1  0  0  0  0
 26 25  2  0  0  0  0
 27 28  2  0  0  0  0
 27 30  1  0  0  0  0
 29 27  1  0  0  0  0
M  END
>  <MODEL>
3

>  <REMARK>
 VINA RESULT:      -6.6      0.608      1.062
  Name = 
  3 active torsions:
  status: ('A' for Active; 'I' for Inactive)
    1  A    between atoms: C_5  and  C_22
    2  A    between atoms: N_16  and  C_27
    3  A    between atoms: N_20  and  C_21
                            x       y       z     vdW  Elec       q    Type
                         _______ _______ _______ _____ _____    ______ ____

>  <TORSDO>
F 3

$$$$
=
 OpenBabel11042420103D

 30 34  0  0  1  0  0  0  0  0999 V2000
  161.4770  210.6790  150.7930 C   0  0  0  0  0  0  0  0  0  0  0  0
  161.9830  210.1430  148.5160 C   0  0  0  0  0  0  0  0  0  0  0  0
  159.7810  210.7100  152.5680 C   0  0  0  0  0  3  0  0  0  0  0  0
  162.2260  211.4350  148.1820 N   0  0  0  0  0  0  0  0  0  0  0  0
  161.8640  207.9420  148.6750 N   0  0  0  0  0  0  0  0  0  0  0  0
  162.0800  212.3940  149.1570 C   0  0  0  0  0  3  0  0  0  0  0  0
  161.5380  208.4780  149.8470 N   0  0  0  0  0  0  0  0  0  0  0  0
  162.1430  208.9610  147.8060 C   0  0  0  0  0  3  0  0  0  0  0  0
  161.1090  210.1570  152.1600 C   0  0  0  0  0  0  0  0  0  0  0  0
  161.1240  208.6250  152.2600 C   0  0  0  0  0  0  0  0  0  0  0  0
  160.9920  208.0450  153.4600 C   0  0  0  0  0  3  0  0  0  0  0  0
  161.3290  207.8070  151.0670 N   0  0  0  0  0  0  0  0  0  0  0  0
  159.9580  209.8420  154.8730 C   0  0  0  0  0  3  0  0  0  0  0  0
  160.7030  208.7400  154.7290 C   0  0  0  0  0  3  0  0  0  0  0  0
  161.6160  209.7900  149.7590 C   0  0  0  0  0  0  0  0  0  0  0  0
  159.2680  210.5890  153.7940 C   0  0  1  0  0  3  0  0  0  0  0  0
  161.7100  212.0350  150.4830 C   0  0  0  0  0  3  0  0  0  0  0  0
  161.2880  203.5500  151.1020 C   0  0  0  0  0  0  0  0  0  0  0  0
  162.0830  204.2560  152.0150 C   0  0  0  0  0  3  0  0  0  0  0  0
  160.5080  204.2630  150.1800 C   0  0  0  0  0  3  0  0  0  0  0  0
  161.3070  206.3650  151.0940 C   0  0  0  0  0  0  0  0  0  0  0  0
  160.5200  205.6590  150.1750 C   0  0  0  0  0  3  0  0  0  0  0  0
  162.0950  205.6530  152.0090 C   0  0  0  0  0  3  0  0  0  0  0  0
  160.4150  201.3590  150.2260 N   0  0  0  0  0  1  0  0  0  0  0  0
  162.0240  201.4360  151.8920 O   0  0  0  0  0  0  0  0  0  0  0  0
  161.2750  202.0770  151.1070 C   0  0  0  0  0  0  0  0  0  0  0  0
  157.8860  212.6280  154.5090 C   0  0  0  0  0  0  0  0  0  0  0  0
  158.8850  213.3540  154.7550 O   0  0  0  0  0  0  0  0  0  0  0  0
  158.0370  211.2780  154.0580 N   0  0  0  0  0  2  0  0  0  0  0  0
  156.5200  213.1830  154.6970 C   0  0  0  0  0  1  0  0  0  0  0  0
  1  9  1  0  0  0  0
  2 15  1  0  0  0  0
  3 16  1  0  0  0  0
  4  2  2  0  0  0  0
  4  6  1  0  0  0  0
  5  7  1  0  0  0  0
  6 17  2  0  0  0  0
  7 12  1  0  0  0  0
  8  2  1  0  0  0  0
  8  5  2  0  0  0  0
  9 10  1  0  0  0  0
  9  3  2  0  0  0  0
 10 11  2  0  0  0  0
 11 14  1  0  0  0  0
 12 21  1  0  0  0  0
 12 10  1  0  0  0  0
 14 13  2  0  0  0  0
 15  7  1  0  0  0  0
 15  1  2  0  0  0  0
 16 29  1  1  0  0  0
 16 13  1  0  0  0  0
 17  1  1  0  0  0  0
 18 26  1  0  0  0  0
 18 19  1  0  0  0  0
 20 18  2  0  0  0  0
 21 23  1  0  0  0  0
 22 20  1  0  0  0  0
 22 21  2  0  0  0  0
 23 19  2  0  0  0  0
 24 26  1  0  0  0  0
 26 25  2  0  0  0  0
 27 30  1  0  0  0  0
 27 28  2  0  0  0  0
 29 27  1  0  0  0  0
M  END
>  <MODEL>
4

>  <REMARK>
 VINA RESULT:      -6.2      1.470      1.731
  Name = 
  3 active torsions:
  status: ('A' for Active; 'I' for Inactive)
    1  A    between atoms: C_5  and  C_22
    2  A    between atoms: N_16  and  C_27
    3  A    between atoms: N_20  and  C_21
                            x       y       z     vdW  Elec       q    Type
                         _______ _______ _______ _____ _____    ______ ____

>  <TORSDO>
F 3

$$$$
=
 OpenBabel11042420103D

 30 34  0  0  1  0  0  0  0  0999 V2000
  161.6190  207.6450  151.9610 C   0  0  0  0  0  0  0  0  0  0  0  0
  160.8370  209.4860  153.2760 C   0  0  0  0  0  0  0  0  0  0  0  0
  161.1400  206.0760  150.1340 C   0  0  0  0  0  3  0  0  0  0  0  0
  160.8310  208.7650  154.4250 N   0  0  0  0  0  0  0  0  0  0  0  0
  160.8780  211.0380  151.7040 N   0  0  0  0  0  0  0  0  0  0  0  0
  161.2070  207.4440  154.3620 C   0  0  0  0  0  3  0  0  0  0  0  0
  161.2180  209.8700  151.1660 N   0  0  0  0  0  0  0  0  0  0  0  0
  160.6210  210.8350  153.0320 C   0  0  0  0  0  3  0  0  0  0  0  0
  162.0550  207.1630  150.5980 C   0  0  1  0  0  3  0  0  0  0  0  0
  162.1600  208.2820  149.5520 C   0  0  0  0  0  0  0  0  0  0  0  0
  162.7070  208.0150  148.3590 C   0  0  0  0  0  3  0  0  0  0  0  0
  161.7140  209.6370  149.8700 N   0  0  0  0  0  0  0  0  0  0  0  0
  162.5470  205.5170  148.1840 C   0  0  0  0  0  3  0  0  0  0  0  0
  163.1270  206.6850  147.8790 C   0  0  0  0  0  3  0  0  0  0  0  0
  161.2040  208.9440  152.1020 C   0  0  0  0  0  0  0  0  0  0  0  0
  161.3680  205.3180  149.0590 C   0  0  0  0  0  0  0  0  0  0  0  0
  161.6150  206.8590  153.1310 C   0  0  0  0  0  3  0  0  0  0  0  0
  161.8430  212.7940  147.0180 C   0  0  0  0  0  0  0  0  0  0  0  0
  160.7200  211.9590  147.0950 C   0  0  0  0  0  3  0  0  0  0  0  0
  162.9190  212.5780  147.8900 C   0  0  0  0  0  3  0  0  0  0  0  0
  161.7450  210.7150  148.9130 C   0  0  0  0  0  0  0  0  0  0  0  0
  162.8720  211.5440  148.8280 C   0  0  0  0  0  3  0  0  0  0  0  0
  160.6730  210.9250  148.0340 C   0  0  0  0  0  3  0  0  0  0  0  0
  160.7080  214.3110  145.3620 N   0  0  0  0  0  1  0  0  0  0  0  0
  162.9860  214.4530  145.7620 O   0  0  0  0  0  0  0  0  0  0  0  0
  161.8930  213.8860  146.0280 C   0  0  0  0  0  0  0  0  0  0  0  0
  160.5200  202.9160  149.3570 C   0  0  0  0  0  0  0  0  0  0  0  0
  161.4610  202.5620  150.1150 O   0  0  0  0  0  0  0  0  0  0  0  0
  160.4540  204.2400  148.8150 N   0  0  0  0  0  2  0  0  0  0  0  0
  159.4570  201.9360  149.0130 C   0  0  0  0  0  1  0  0  0  0  0  0
  1 15  1  0  0  0  0
  1 17  2  0  0  0  0
  2  4  1  0  0  0  0
  5  8  2  0  0  0  0
  6  4  2  0  0  0  0
  7  5  1  0  0  0  0
  7 15  1  0  0  0  0
  8  2  1  0  0  0  0
  9  3  1  6  0  0  0
  9  1  1  0  0  0  0
 10 12  1  0  0  0  0
 10  9  1  0  0  0  0
 11 10  2  0  0  0  0
 12  7  1  0  0  0  0
 13 16  1  0  0  0  0
 14 13  2  0  0  0  0
 14 11  1  0  0  0  0
 15  2  2  0  0  0  0
 16  3  2  0  0  0  0
 17  6  1  0  0  0  0
 18 19  2  0  0  0  0
 18 20  1  0  0  0  0
 19 23  1  0  0  0  0
 20 22  2  0  0  0  0
 21 12  1  0  0  0  0
 22 21  1  0  0  0  0
 23 21  2  0  0  0  0
 24 26  1  0  0  0  0
 25 26  2  0  0  0  0
 26 18  1  0  0  0  0
 27 28  2  0  0  0  0
 29 16  1  0  0  0  0
 29 27  1  0  0  0  0
 30 27  1  0  0  0  0
M  END
>  <MODEL>
5

>  <REMARK>
 VINA RESULT:      -6.0      2.940      7.981
  Name = 
  3 active torsions:
  status: ('A' for Active; 'I' for Inactive)
    1  A    between atoms: C_5  and  C_22
    2  A    between atoms: N_16  and  C_27
    3  A    between atoms: N_20  and  C_21
                            x       y       z     vdW  Elec       q    Type
                         _______ _______ _______ _____ _____    ______ ____

>  <TORSDO>
F 3

$$$$
=
 OpenBabel11042420103D

 30 34  0  0  1  0  0  0  0  0999 V2000
  161.8310  208.0360  148.6160 C   0  0  0  0  0  0  0  0  0  0  0  0
  161.2070  206.0820  149.8490 C   0  0  0  0  0  0  0  0  0  0  0  0
  161.1020  210.1670  147.6370 C   0  0  0  0  0  3  0  0  0  0  0  0
  161.4770  205.2470  148.8150 N   0  0  0  0  0  0  0  0  0  0  0  0
  160.8310  207.0450  151.8010 N   0  0  0  0  0  0  0  0  0  0  0  0
  161.9200  205.7980  147.6350 C   0  0  0  0  0  3  0  0  0  0  0  0
  161.1340  207.9830  150.9080 N   0  0  0  0  0  0  0  0  0  0  0  0
  160.8580  205.8330  151.1690 C   0  0  0  0  0  3  0  0  0  0  0  0
  162.0180  209.5340  148.6360 C   0  0  1  0  0  3  0  0  0  0  0  0
  161.8390  210.1600  150.0260 C   0  0  0  0  0  0  0  0  0  0  0  0
  162.1530  211.4490  150.2100 C   0  0  0  0  0  3  0  0  0  0  0  0
  161.3760  209.3490  151.1500 N   0  0  0  0  0  0  0  0  0  0  0  0
  162.1270  212.4000  147.8880 C   0  0  0  0  0  3  0  0  0  0  0  0
  162.5560  212.3990  149.1560 C   0  0  0  0  0  3  0  0  0  0  0  0
  161.3680  207.4120  149.7450 C   0  0  0  0  0  0  0  0  0  0  0  0
  161.1620  211.4520  147.2820 C   0  0  0  0  0  0  0  0  0  0  0  0
  162.1130  207.2030  147.5140 C   0  0  0  0  0  3  0  0  0  0  0  0
  160.6660  210.9150  155.0430 C   0  0  0  0  0  0  0  0  0  0  0  0
  161.9440  210.4620  154.6870 C   0  0  0  0  0  3  0  0  0  0  0  0
  159.6290  210.8470  154.1030 C   0  0  0  0  0  3  0  0  0  0  0  0
  161.1450  209.8930  152.4640 C   0  0  0  0  0  0  0  0  0  0  0  0
  159.8660  210.3370  152.8250 C   0  0  0  0  0  3  0  0  0  0  0  0
  162.1810  209.9520  153.4080 C   0  0  0  0  0  3  0  0  0  0  0  0
  159.1810  211.1920  157.0560 N   0  0  0  0  0  1  0  0  0  0  0  0
  161.2900  212.1500  156.9720 O   0  0  0  0  0  0  0  0  0  0  0  0
  160.4150  211.4530  156.3920 C   0  0  0  0  0  0  0  0  0  0  0  0
  159.0740  212.6220  146.3590 C   0  0  0  0  0  0  0  0  0  0  0  0
  158.6290  212.9540  147.4890 O   0  0  0  0  0  0  0  0  0  0  0  0
  160.2910  211.8780  146.2250 N   0  0  0  0  0  2  0  0  0  0  0  0
  158.3160  213.0030  145.1380 C   0  0  0  0  0  1  0  0  0  0  0  0
  1  9  1  0  0  0  0
  1 15  2  0  0  0  0
  2  8  1  0  0  0  0
  4  2  2  0  0  0  0
  6  4  1  0  0  0  0
  7 12  1  0  0  0  0
  7  5  1  0  0  0  0
  8  5  2  0  0  0  0
  9  3  1  6  0  0  0
  9 10  1  0  0  0  0
 10 11  2  0  0  0  0
 10 12  1  0  0  0  0
 12 21  1  0  0  0  0
 13 14  2  0  0  0  0
 14 11  1  0  0  0  0
 15  2  1  0  0  0  0
 15  7  1  0  0  0  0
 16  3  2  0  0  0  0
 16 13  1  0  0  0  0
 17  6  2  0  0  0  0
 17  1  1  0  0  0  0
 18 26  1  0  0  0  0
 19 18  1  0  0  0  0
 20 18  2  0  0  0  0
 21 22  2  0  0  0  0
 21 23  1  0  0  0  0
 22 20  1  0  0  0  0
 23 19  2  0  0  0  0
 26 25  2  0  0  0  0
 26 24  1  0  0  0  0
 27 28  2  0  0  0  0
 29 27  1  0  0  0  0
 29 16  1  0  0  0  0
 30 27  1  0  0  0  0
M  END
>  <MODEL>
6

>  <REMARK>
 VINA RESULT:      -5.7      3.305      7.539
  Name = 
  3 active torsions:
  status: ('A' for Active; 'I' for Inactive)
    1  A    between atoms: C_5  and  C_22
    2  A    between atoms: N_16  and  C_27
    3  A    between atoms: N_20  and  C_21
                            x       y       z     vdW  Elec       q    Type
                         _______ _______ _______ _____ _____    ______ ____

>  <TORSDO>
F 3

$$$$
=
 OpenBabel11042420103D

 30 34  0  0  1  0  0  0  0  0999 V2000
  161.7500  206.3830  151.6520 C   0  0  0  0  0  0  0  0  0  0  0  0
  160.8310  205.5970  153.7180 C   0  0  0  0  0  0  0  0  0  0  0  0
  161.3000  207.3520  149.4400 C   0  0  0  0  0  3  0  0  0  0  0  0
  161.2500  204.3240  153.5110 N   0  0  0  0  0  0  0  0  0  0  0  0
  160.1460  207.5390  154.5190 N   0  0  0  0  0  0  0  0  0  0  0  0
  161.9220  204.0440  152.3440 C   0  0  0  0  0  3  0  0  0  0  0  0
  160.6450  207.7270  153.3010 N   0  0  0  0  0  0  0  0  0  0  0  0
  160.2380  206.2070  154.8140 C   0  0  0  0  0  3  0  0  0  0  0  0
  161.9920  207.5680  150.7480 C   0  0  1  0  0  3  0  0  0  0  0  0
  161.5880  208.9120  151.3720 C   0  0  0  0  0  0  0  0  0  0  0  0
  161.9180  210.0500  150.7470 C   0  0  0  0  0  3  0  0  0  0  0  0
  160.8960  208.9540  152.6580 N   0  0  0  0  0  0  0  0  0  0  0  0
  162.3540  209.3200  148.3860 C   0  0  0  0  0  3  0  0  0  0  0  0
  162.5440  210.1540  149.4150 C   0  0  0  0  0  3  0  0  0  0  0  0
  161.0630  206.5720  152.8230 C   0  0  0  0  0  0  0  0  0  0  0  0
  161.4770  208.1260  148.3680 C   0  0  0  0  0  0  0  0  0  0  0  0
  162.1920  205.0690  151.3950 C   0  0  0  0  0  3  0  0  0  0  0  0
  159.5440  212.5580  154.4750 C   0  0  0  0  0  0  0  0  0  0  0  0
  160.6610  211.8840  154.9890 C   0  0  0  0  0  3  0  0  0  0  0  0
  158.8810  212.0320  153.3580 C   0  0  0  0  0  3  0  0  0  0  0  0
  160.4520  210.1820  153.2670 C   0  0  0  0  0  0  0  0  0  0  0  0
  159.3300  210.8510  152.7610 C   0  0  0  0  0  3  0  0  0  0  0  0
  161.1100  210.7040  154.3910 C   0  0  0  0  0  3  0  0  0  0  0  0
  159.7060  214.3070  156.2760 N   0  0  0  0  0  1  0  0  0  0  0  0
  158.0960  214.4350  154.6130 O   0  0  0  0  0  0  0  0  0  0  0  0
  159.0700  213.8030  155.1050 C   0  0  0  0  0  0  0  0  0  0  0  0
  160.9520  206.4470  146.5000 C   0  0  0  0  0  0  0  0  0  0  0  0
  161.7060  205.5450  146.9510 O   0  0  0  0  0  0  0  0  0  0  0  0
  160.8310  207.7160  147.1540 N   0  0  0  0  0  2  0  0  0  0  0  0
  160.1750  206.1920  145.2590 C   0  0  0  0  0  1  0  0  0  0  0  0
  1 15  1  0  0  0  0
  2  8  1  0  0  0  0
  4  2  1  0  0  0  0
  5  8  2  0  0  0  0
  6  4  2  0  0  0  0
  7  5  1  0  0  0  0
  9  3  1  6  0  0  0
  9 10  1  0  0  0  0
  9  1  1  0  0  0  0
 10 12  1  0  0  0  0
 11 10  2  0  0  0  0
 12 21  1  0  0  0  0
 12  7  1  0  0  0  0
 13 14  2  0  0  0  0
 14 11  1  0  0  0  0
 15  7  1  0  0  0  0
 15  2  2  0  0  0  0
 16 13  1  0  0  0  0
 16  3  2  0  0  0  0
 17  1  2  0  0  0  0
 17  6  1  0  0  0  0
 18 19  1  0  0  0  0
 18 26  1  0  0  0  0
 20 18  2  0  0  0  0
 21 23  1  0  0  0  0
 22 21  2  0  0  0  0
 22 20  1  0  0  0  0
 23 19  2  0  0  0  0
 25 26  2  0  0  0  0
 26 24  1  0  0  0  0
 27 28  2  0  0  0  0
 27 29  1  0  0  0  0
 29 16  1  0  0  0  0
 30 27  1  0  0  0  0
M  END
>  <MODEL>
7

>  <REMARK>
 VINA RESULT:      -5.6      2.642      8.322
  Name = 
  3 active torsions:
  status: ('A' for Active; 'I' for Inactive)
    1  A    between atoms: C_5  and  C_22
    2  A    between atoms: N_16  and  C_27
    3  A    between atoms: N_20  and  C_21
                            x       y       z     vdW  Elec       q    Type
                         _______ _______ _______ _____ _____    ______ ____

>  <TORSDO>
F 3

$$$$
=
 OpenBabel11042420103D

 30 34  0  0  1  0  0  0  0  0999 V2000
  161.5980  204.2980  150.2550 C   0  0  0  0  0  0  0  0  0  0  0  0
  160.8130  205.1240  152.3600 C   0  0  0  0  0  0  0  0  0  0  0  0
  161.1260  203.9890  147.8650 C   0  0  0  0  0  3  0  0  0  0  0  0
  160.7950  203.8920  152.9270 N   0  0  0  0  0  0  0  0  0  0  0  0
  160.8720  207.2840  151.8960 N   0  0  0  0  0  0  0  0  0  0  0  0
  161.1660  202.8180  152.1530 C   0  0  0  0  0  3  0  0  0  0  0  0
  161.2120  206.5980  150.8070 N   0  0  0  0  0  0  0  0  0  0  0  0
  160.6050  206.3880  152.8940 C   0  0  0  0  0  3  0  0  0  0  0  0
  162.0420  204.6380  148.8530 C   0  0  1  0  0  3  0  0  0  0  0  0
  162.1600  206.1460  148.5910 C   0  0  0  0  0  0  0  0  0  0  0  0
  162.7150  206.5710  147.4490 C   0  0  0  0  0  3  0  0  0  0  0  0
  161.7170  207.1090  149.5970 N   0  0  0  0  0  0  0  0  0  0  0  0
  162.5470  204.5790  145.9340 C   0  0  0  0  0  3  0  0  0  0  0  0
  163.1330  205.7180  146.3210 C   0  0  0  0  0  3  0  0  0  0  0  0
  161.1870  205.3100  151.0830 C   0  0  0  0  0  0  0  0  0  0  0  0
  161.3600  203.9420  146.5520 C   0  0  0  0  0  0  0  0  0  0  0  0
  161.5810  202.9990  150.8040 C   0  0  0  0  0  3  0  0  0  0  0  0
  161.8960  211.3180  148.9830 C   0  0  0  0  0  0  0  0  0  0  0  0
  161.6150  210.4590  147.9110 C   0  0  0  0  0  3  0  0  0  0  0  0
  162.1150  210.7740  150.2560 C   0  0  0  0  0  3  0  0  0  0  0  0
  161.7600  208.5350  149.3870 C   0  0  0  0  0  0  0  0  0  0  0  0
  162.0510  209.3930  150.4560 C   0  0  0  0  0  3  0  0  0  0  0  0
  161.5510  209.0780  148.1110 C   0  0  0  0  0  3  0  0  0  0  0  0
  162.9410  213.3340  147.9000 N   0  0  0  0  0  1  0  0  0  0  0  0
  161.1570  213.5410  149.3660 O   0  0  0  0  0  0  0  0  0  0  0  0
  161.9630  212.7750  148.7740 C   0  0  0  0  0  0  0  0  0  0  0  0
  160.3750  201.7540  145.6440 C   0  0  0  0  0  0  0  0  0  0  0  0
  161.1860  201.0100  146.2560 O   0  0  0  0  0  0  0  0  0  0  0  0
  160.4440  203.1810  145.7530 N   0  0  0  0  0  2  0  0  0  0  0  0
  159.3300  201.1400  144.7860 C   0  0  0  0  0  1  0  0  0  0  0  0
  1 17  2  0  0  0  0
  1 15  1  0  0  0  0
  2  8  1  0  0  0  0
  2  4  1  0  0  0  0
  5  8  2  0  0  0  0
  6  4  2  0  0  0  0
  7 15  1  0  0  0  0
  7  5  1  0  0  0  0
  9  3  1  6  0  0  0
  9  1  1  0  0  0  0
 10  9  1  0  0  0  0
 10 12  1  0  0  0  0
 11 10  2  0  0  0  0
 12  7  1  0  0  0  0
 13 14  2  0  0  0  0
 13 16  1  0  0  0  0
 14 11  1  0  0  0  0
 15  2  2  0  0  0  0
 16  3  2  0  0  0  0
 17  6  1  0  0  0  0
 18 20  1  0  0  0  0
 19 23  1  0  0  0  0
 19 18  2  0  0  0  0
 20 22  2  0  0  0  0
 21 12  1  0  0  0  0
 21 22  1  0  0  0  0
 23 21  2  0  0  0  0
 24 26  1  0  0  0  0
 26 18  1  0  0  0  0
 26 25  2  0  0  0  0
 27 29  1  0  0  0  0
 27 28  2  0  0  0  0
 29 16  1  0  0  0  0
 30 27  1  0  0  0  0
M  END
>  <MODEL>
8

>  <REMARK>
 VINA RESULT:      -5.6      2.807      8.663
  Name = 
  3 active torsions:
  status: ('A' for Active; 'I' for Inactive)
    1  A    between atoms: C_5  and  C_22
    2  A    between atoms: N_16  and  C_27
    3  A    between atoms: N_20  and  C_21
                            x       y       z     vdW  Elec       q    Type
                         _______ _______ _______ _____ _____    ______ ____

>  <TORSDO>
F 3

$$$$
