=
 OpenBabel11052411223D

 41 46  0  0  1  0  0  0  0  0999 V2000
  162.0060  210.1690  148.2560 C   0  0  0  0  0  3  0  0  0  0  0  0
  162.1330  209.3140  149.2680 C   0  0  0  0  0  3  0  0  0  0  0  0
  161.1160  206.2700  147.3900 C   0  0  0  0  0  0  0  0  0  0  0  0
  160.8860  207.4290  148.3270 C   0  0  2  0  0  3  0  0  0  0  0  0
  162.1750  207.8500  149.0010 C   0  0  2  0  0  3  0  0  0  0  0  0
  160.8520  205.4510  145.0140 C   0  0  0  0  0  2  0  0  0  0  0  0
  161.0050  203.5240  149.6640 O   0  0  0  0  0  0  0  0  0  0  0  0
  161.2120  204.7010  149.2590 C   0  0  0  0  0  0  0  0  0  0  0  0
  161.1010  207.1620  149.8220 C   0  0  2  0  0  3  0  0  0  0  0  0
  161.2120  206.6170  145.9260 C   0  0  0  0  0  2  0  0  0  0  0  0
  161.6370  204.2260  145.4480 C   0  0  0  0  0  2  0  0  0  0  0  0
  161.2020  204.9920  147.8200 C   0  0  0  0  0  0  0  0  0  0  0  0
  161.2000  203.8300  146.8540 C   0  0  0  0  0  2  0  0  0  0  0  0
  161.6180  205.7770  150.2250 C   0  0  1  0  0  3  0  0  0  0  0  0
  161.1660  205.4570  151.6450 C   0  0  0  0  0  2  0  0  0  0  0  0
  161.8890  206.3450  152.6440 C   0  0  0  0  0  2  0  0  0  0  0  0
  160.9340  207.3760  153.2330 C   0  0  1  0  0  3  0  0  0  0  0  0
  161.3520  207.8230  155.5240 O   0  0  0  0  0  0  0  0  0  0  0  0
  160.7680  207.1340  154.7000 C   0  0  0  0  0  3  0  0  0  0  0  0
  161.4410  208.7940  152.9960 C   0  0  0  0  0  2  0  0  0  0  0  0
  160.3170  209.6990  152.5310 C   0  0  0  0  0  1  0  0  0  0  0  0
  161.9600  211.6450  148.4980 C   0  0  1  0  0  3  0  0  0  0  0  0
  163.3600  212.2000  148.6980 C   0  0  0  0  0  1  0  0  0  0  0  0
  159.7900  212.8660  145.7470 C   0  0  2  0  0  3  0  0  0  0  0  0
  161.7250  213.6460  144.3510 C   0  0  1  0  0  3  0  0  0  0  0  0
  163.0700  213.4340  144.6170 C   0  0  0  0  0  3  0  0  0  0  0  0
  161.0590  213.4880  143.0620 C   0  0  0  0  0  2  0  0  0  0  0  0
  160.0620  212.1150  146.9830 N   0  0  0  0  0  0  0  0  0  0  0  0
  161.9340  213.2250  146.4140 C   0  0  2  0  0  3  0  0  0  0  0  0
  159.9240  212.7840  142.9960 C   0  0  2  0  0  3  0  0  0  0  0  0
  161.2900  212.3390  147.3580 C   0  0  0  0  0  0  0  0  0  0  0  0
  159.4330  211.6960  144.3800 S   0  0  0  0  0  0  0  0  0  0  0  0
  161.0480  213.5480  145.4950 N   0  0  2  0  0  0  0  0  0  0  0  0
  163.1940  213.1360  145.9380 N   0  0  0  0  0  0  0  0  0  0  0  0
  159.6980  210.5290  138.0870 O   0  0  0  0  0  0  0  0  0  0  0  0
  158.7240  212.2040  139.4090 N   0  0  0  0  0  2  0  0  0  0  0  0
  159.4750  211.9730  140.6060 C   0  0  0  0  0  0  0  0  0  0  0  0
  160.3390  211.0580  140.6510 O   0  0  0  0  0  0  0  0  0  0  0  0
  158.0230  211.8260  137.0200 C   0  0  0  0  0  1  0  0  0  0  0  0
  158.8670  211.4700  138.1880 C   0  0  0  0  0  0  0  0  0  0  0  0
  159.2050  212.7830  141.7560 N   0  0  0  0  0  2  0  0  0  0  0  0
  1 22  1  0  0  0  0
  1  2  2  0  0  0  0
  3 12  2  0  0  0  0
  4  3  1  6  0  0  0
  4  5  1  0  0  0  0
  4  9  1  0  0  0  0
  5  2  1  1  0  0  0
  5  9  1  0  0  0  0
  6 11  1  0  0  0  0
  6 10  1  0  0  0  0
  8  7  2  0  0  0  0
  8 14  1  0  0  0  0
  9 14  1  0  0  0  0
 10  3  1  0  0  0  0
 11 13  1  0  0  0  0
 12  8  1  0  0  0  0
 13 12  1  0  0  0  0
 14 15  1  0  0  0  0
 15 16  1  0  0  0  0
 16 17  1  0  0  0  0
 17 19  1  0  0  0  0
 19 18  2  0  0  0  0
 20 17  1  0  0  0  0
 21 20  1  0  0  0  0
 22 23  1  0  0  0  0
 24 28  1  0  0  0  0
 25 26  1  0  0  0  0
 25 33  1  0  0  0  0
 26 34  2  0  0  0  0
 27 25  1  0  0  0  0
 28 31  2  0  0  0  0
 29 31  1  0  0  0  0
 30 27  1  0  0  0  0
 30 32  1  0  0  0  0
 31 22  1  0  0  0  0
 32 24  1  0  0  0  0
 33 24  1  0  0  0  0
 33 29  1  0  0  0  0
 34 29  1  0  0  0  0
 35 40  2  0  0  0  0
 36 37  1  0  0  0  0
 37 38  2  0  0  0  0
 37 41  1  0  0  0  0
 39 40  1  0  0  0  0
 40 36  1  0  0  0  0
 41 30  1  0  0  0  0
M  END
>  <MODEL>
1

>  <REMARK>
 VINA RESULT:      -7.7      0.000      0.000
  Name = 
  9 active torsions:
  status: ('A' for Active; 'I' for Inactive)
    1  A    between atoms: C_4  and  C_6
    2  A    between atoms: C_6  and  C_31
    3  A    between atoms: C_7  and  C_13
    4  A    between atoms: C_10  and  C_26
    5  A    between atoms: C_11  and  C_25
    6  A    between atoms: C_11  and  C_38
    7  A    between atoms: C_25  and  C_26
    8  A    between atoms: C_26  and  C_40
    9  A    between atoms: C_27  and  N_41
                            x       y       z     vdW  Elec       q    Type
                         _______ _______ _______ _____ _____    ______ ____

>  <TORSDO>
F 9

$$$$
=
 OpenBabel11052411223D

 41 46  0  0  1  0  0  0  0  0999 V2000
  160.9040  208.6720  152.6530 C   0  0  0  0  0  3  0  0  0  0  0  0
  161.4780  209.8650  152.7920 C   0  0  0  0  0  3  0  0  0  0  0  0
  158.3970  211.4560  154.1360 C   0  0  0  0  0  0  0  0  0  0  0  0
  159.1870  210.6590  153.1280 C   0  0  2  0  0  3  0  0  0  0  0  0
  160.6500  211.0500  153.1470 C   0  0  2  0  0  3  0  0  0  0  0  0
  156.8460  211.3130  156.1260 C   0  0  0  0  0  2  0  0  0  0  0  0
  157.7820  214.4530  152.3010 O   0  0  0  0  0  0  0  0  0  0  0  0
  158.3900  213.4110  152.6720 C   0  0  0  0  0  0  0  0  0  0  0  0
  159.7960  211.4370  151.9550 C   0  0  2  0  0  3  0  0  0  0  0  0
  158.0780  210.7500  155.4290 C   0  0  0  0  0  2  0  0  0  0  0  0
  156.9810  212.8220  156.2210 C   0  0  0  0  0  2  0  0  0  0  0  0
  157.9710  212.7160  153.8950 C   0  0  0  0  0  0  0  0  0  0  0  0
  156.9920  213.4090  154.8140 C   0  0  0  0  0  2  0  0  0  0  0  0
  159.6310  212.9610  151.9570 C   0  0  1  0  0  3  0  0  0  0  0  0
  159.6760  213.4800  150.5250 C   0  0  0  0  0  2  0  0  0  0  0  0
  160.7350  212.7400  149.7250 C   0  0  0  0  0  2  0  0  0  0  0  0
  161.2380  213.6040  148.5760 C   0  0  1  0  0  3  0  0  0  0  0  0
  163.0060  212.0520  148.2810 O   0  0  0  0  0  0  0  0  0  0  0  0
  162.2270  212.8350  147.7580 C   0  0  0  0  0  3  0  0  0  0  0  0
  160.0860  214.0700  147.6920 C   0  0  0  0  0  2  0  0  0  0  0  0
  159.9600  213.1930  146.4620 C   0  0  0  0  0  1  0  0  0  0  0  0
  161.7150  207.4660  152.2960 C   0  0  1  0  0  3  0  0  0  0  0  0
  161.7900  206.5020  153.4680 C   0  0  0  0  0  1  0  0  0  0  0  0
  160.2800  205.1780  149.7530 C   0  0  2  0  0  3  0  0  0  0  0  0
  161.3590  206.3780  147.8300 C   0  0  1  0  0  3  0  0  0  0  0  0
  162.2840  207.4080  147.9180 C   0  0  0  0  0  3  0  0  0  0  0  0
  161.4310  205.2190  146.9460 C   0  0  0  0  0  2  0  0  0  0  0  0
  160.6250  205.5800  151.1260 N   0  0  0  0  0  0  0  0  0  0  0  0
  161.1830  207.2650  149.7440 C   0  0  2  0  0  3  0  0  0  0  0  0
  161.2360  203.9980  147.4530 C   0  0  0  0  0  0  0  0  0  0  0  0
  161.1310  206.7810  151.1050 C   0  0  0  0  0  0  0  0  0  0  0  0
  161.2950  203.7300  149.2600 S   0  0  0  0  0  0  0  0  0  0  0  0
  160.6630  206.3380  148.9660 N   0  0  2  0  0  0  0  0  0  0  0  0
  162.1860  207.9550  149.1590 N   0  0  0  0  0  0  0  0  0  0  0  0
  161.4370  198.6080  147.0860 O   0  0  0  0  0  0  0  0  0  0  0  0
  161.2710  200.5530  145.7870 N   0  0  0  0  0  2  0  0  0  0  0  0
  161.2590  201.5050  146.8570 C   0  0  0  0  0  0  0  0  0  0  0  0
  161.3240  201.1200  148.0550 O   0  0  0  0  0  0  0  0  0  0  0  0
  161.3700  198.2650  144.7390 C   0  0  0  0  0  1  0  0  0  0  0  0
  161.3620  199.1330  145.9440 C   0  0  0  0  0  0  0  0  0  0  0  0
  161.1480  202.8970  146.5400 N   0  0  0  0  0  0  0  0  0  0  0  0
  1  2  2  0  0  0  0
  3 10  1  0  0  0  0
  4  5  1  0  0  0  0
  4  3  1  1  0  0  0
  5  2  1  6  0  0  0
  6 11  1  0  0  0  0
  7  8  2  0  0  0  0
  8 12  1  0  0  0  0
  9 14  1  0  0  0  0
  9  4  1  0  0  0  0
  9  5  1  0  0  0  0
 10  6  1  0  0  0  0
 12  3  2  0  0  0  0
 12 13  1  0  0  0  0
 13 11  1  0  0  0  0
 14  8  1  0  0  0  0
 15 14  1  0  0  0  0
 16 15  1  0  0  0  0
 17 16  1  0  0  0  0
 19 18  2  0  0  0  0
 19 17  1  0  0  0  0
 20 17  1  0  0  0  0
 21 20  1  0  0  0  0
 22  1  1  0  0  0  0
 22 23  1  0  0  0  0
 24 28  1  0  0  0  0
 25 26  1  0  0  0  0
 25 33  1  0  0  0  0
 26 34  2  0  0  0  0
 27 30  1  0  0  0  0
 27 25  1  0  0  0  0
 29 31  1  0  0  0  0
 30 32  1  0  0  0  0
 31 28  2  0  0  0  0
 31 22  1  0  0  0  0
 32 24  1  0  0  0  0
 33 29  1  0  0  0  0
 33 24  1  0  0  0  0
 34 29  1  0  0  0  0
 36 40  1  0  0  0  0
 36 37  1  0  0  0  0
 37 38  2  0  0  0  0
 39 40  1  0  0  0  0
 40 35  2  0  0  0  0
 41 37  1  0  0  0  0
 41 30  2  0  0  0  0
M  END
>  <MODEL>
2

>  <REMARK>
 VINA RESULT:      -6.5      4.860      9.679
  Name = 
  9 active torsions:
  status: ('A' for Active; 'I' for Inactive)
    1  A    between atoms: C_4  and  C_6
    2  A    between atoms: C_6  and  C_31
    3  A    between atoms: C_7  and  C_13
    4  A    between atoms: C_10  and  C_26
    5  A    between atoms: C_11  and  C_25
    6  A    between atoms: C_11  and  C_38
    7  A    between atoms: C_25  and  C_26
    8  A    between atoms: C_26  and  C_40
    9  A    between atoms: C_27  and  N_41
                            x       y       z     vdW  Elec       q    Type
                         _______ _______ _______ _____ _____    ______ ____

>  <TORSDO>
F 9

$$$$
=
 OpenBabel11052411223D

 41 46  0  0  1  0  0  0  0  0999 V2000
  159.7930  209.5020  154.6600 C   0  0  0  0  0  3  0  0  0  0  0  0
  159.7740  210.5350  155.4980 C   0  0  0  0  0  3  0  0  0  0  0  0
  156.5250  212.3400  155.6240 C   0  0  0  0  0  0  0  0  0  0  0  0
  157.4580  211.2510  155.1560 C   0  0  2  0  0  3  0  0  0  0  0  0
  158.9010  211.7070  155.2110 C   0  0  2  0  0  3  0  0  0  0  0  0
  154.6920  212.9280  157.2610 C   0  0  0  0  0  2  0  0  0  0  0  0
  156.1890  214.2720  152.6440 O   0  0  0  0  0  0  0  0  0  0  0  0
  156.7360  213.5160  153.4930 C   0  0  0  0  0  0  0  0  0  0  0  0
  158.2360  211.5150  153.8610 C   0  0  2  0  0  3  0  0  0  0  0  0
  156.0150  212.2080  157.0360 C   0  0  0  0  0  2  0  0  0  0  0  0
  154.8090  214.3480  156.7380 C   0  0  0  0  0  2  0  0  0  0  0  0
  156.1380  213.3590  154.8250 C   0  0  0  0  0  0  0  0  0  0  0  0
  155.0310  214.3050  155.2300 C   0  0  0  0  0  2  0  0  0  0  0  0
  158.0710  212.8920  153.2080 C   0  0  1  0  0  3  0  0  0  0  0  0
  158.3300  212.7790  151.7100 C   0  0  0  0  0  2  0  0  0  0  0  0
  159.4120  213.7570  151.2840 C   0  0  0  0  0  2  0  0  0  0  0  0
  159.1500  214.2620  149.8710 C   0  0  1  0  0  3  0  0  0  0  0  0
  161.0810  213.0920  149.1470 O   0  0  0  0  0  0  0  0  0  0  0  0
  160.3770  214.0840  149.0330 C   0  0  0  0  0  3  0  0  0  0  0  0
  157.9760  213.5280  149.2330 C   0  0  0  0  0  2  0  0  0  0  0  0
  157.8370  213.9010  147.7690 C   0  0  0  0  0  1  0  0  0  0  0  0
  160.6630  208.3140  154.9250 C   0  0  1  0  0  3  0  0  0  0  0  0
  159.8320  207.1340  155.4010 C   0  0  0  0  0  1  0  0  0  0  0  0
  162.4200  208.0650  151.6660 C   0  0  2  0  0  3  0  0  0  0  0  0
  161.8350  205.6440  151.3540 C   0  0  1  0  0  3  0  0  0  0  0  0
  160.9850  204.8930  152.1520 C   0  0  0  0  0  3  0  0  0  0  0  0
  161.8630  205.6660  149.8950 C   0  0  0  0  0  2  0  0  0  0  0  0
  161.8340  208.7980  152.8010 N   0  0  0  0  0  0  0  0  0  0  0  0
  161.6830  206.5960  153.2380 C   0  0  2  0  0  3  0  0  0  0  0  0
  161.8670  206.8430  149.2590 C   0  0  2  0  0  3  0  0  0  0  0  0
  161.4260  207.9420  153.6960 C   0  0  0  0  0  0  0  0  0  0  0  0
  161.4270  208.3740  150.1540 S   0  0  0  0  0  0  0  0  0  0  0  0
  162.2840  206.6760  152.0690 N   0  0  2  0  0  0  0  0  0  0  0  0
  160.8690  205.5240  153.3510 N   0  0  0  0  0  0  0  0  0  0  0  0
  160.1400  204.6510  144.6280 O   0  0  0  0  0  0  0  0  0  0  0  0
  161.7670  206.0940  145.5080 N   0  0  0  0  0  2  0  0  0  0  0  0
  161.3440  206.0580  146.8760 C   0  0  0  0  0  0  0  0  0  0  0  0
  160.3470  205.3690  147.2180 O   0  0  0  0  0  0  0  0  0  0  0  0
  161.6990  205.5100  143.0590 C   0  0  0  0  0  1  0  0  0  0  0  0
  161.1470  205.3840  144.4320 C   0  0  0  0  0  0  0  0  0  0  0  0
  162.0610  206.8380  147.8400 N   0  0  0  0  0  2  0  0  0  0  0  0
  1 22  1  0  0  0  0
  1  2  2  0  0  0  0
  3 10  1  0  0  0  0
  4  5  1  0  0  0  0
  4  3  1  1  0  0  0
  5  2  1  6  0  0  0
  7  8  2  0  0  0  0
  8 12  1  0  0  0  0
  9  4  1  0  0  0  0
  9  5  1  0  0  0  0
 10  6  1  0  0  0  0
 11  6  1  0  0  0  0
 12 13  1  0  0  0  0
 12  3  2  0  0  0  0
 13 11  1  0  0  0  0
 14  8  1  0  0  0  0
 14  9  1  0  0  0  0
 15 14  1  0  0  0  0
 16 15  1  0  0  0  0
 17 16  1  0  0  0  0
 19 18  2  0  0  0  0
 19 17  1  0  0  0  0
 20 17  1  0  0  0  0
 21 20  1  0  0  0  0
 22 23  1  0  0  0  0
 24 33  1  0  0  0  0
 24 28  1  0  0  0  0
 25 33  1  0  0  0  0
 25 26  1  0  0  0  0
 26 34  2  0  0  0  0
 27 25  1  0  0  0  0
 28 31  2  0  0  0  0
 29 34  1  0  0  0  0
 29 31  1  0  0  0  0
 30 27  1  0  0  0  0
 30 32  1  0  0  0  0
 31 22  1  0  0  0  0
 32 24  1  0  0  0  0
 33 29  1  0  0  0  0
 36 37  1  0  0  0  0
 37 38  2  0  0  0  0
 37 41  1  0  0  0  0
 39 40  1  0  0  0  0
 40 35  2  0  0  0  0
 40 36  1  0  0  0  0
 41 30  1  0  0  0  0
M  END
>  <MODEL>
3

>  <REMARK>
 VINA RESULT:      -5.6      4.921      9.738
  Name = 
  9 active torsions:
  status: ('A' for Active; 'I' for Inactive)
    1  A    between atoms: C_4  and  C_6
    2  A    between atoms: C_6  and  C_31
    3  A    between atoms: C_7  and  C_13
    4  A    between atoms: C_10  and  C_26
    5  A    between atoms: C_11  and  C_25
    6  A    between atoms: C_11  and  C_38
    7  A    between atoms: C_25  and  C_26
    8  A    between atoms: C_26  and  C_40
    9  A    between atoms: C_27  and  N_41
                            x       y       z     vdW  Elec       q    Type
                         _______ _______ _______ _____ _____    ______ ____

>  <TORSDO>
F 9

$$$$
=
 OpenBabel11052411223D

 41 46  0  0  1  0  0  0  0  0999 V2000
  160.6950  209.9560  153.6280 C   0  0  0  0  0  3  0  0  0  0  0  0
  160.8610  211.2220  154.0050 C   0  0  0  0  0  3  0  0  0  0  0  0
  157.4760  212.6340  153.3900 C   0  0  0  0  0  0  0  0  0  0  0  0
  158.5990  211.6510  153.1720 C   0  0  2  0  0  3  0  0  0  0  0  0
  159.9410  212.2750  153.4930 C   0  0  2  0  0  3  0  0  0  0  0  0
  155.2930  213.0430  154.5960 C   0  0  0  0  0  2  0  0  0  0  0  0
  157.5470  214.4410  150.3140 O   0  0  0  0  0  0  0  0  0  0  0  0
  157.9880  213.7750  151.2920 C   0  0  0  0  0  0  0  0  0  0  0  0
  159.5920  211.9740  152.0480 C   0  0  2  0  0  3  0  0  0  0  0  0
  156.7060  212.4780  154.6760 C   0  0  0  0  0  2  0  0  0  0  0  0
  155.3580  214.4530  154.0400 C   0  0  0  0  0  2  0  0  0  0  0  0
  157.1510  213.5820  152.4820 C   0  0  0  0  0  0  0  0  0  0  0  0
  155.8870  214.4000  152.6110 C   0  0  0  0  0  2  0  0  0  0  0  0
  159.4140  213.3050  151.3100 C   0  0  1  0  0  3  0  0  0  0  0  0
  159.9850  213.1870  149.9010 C   0  0  0  0  0  2  0  0  0  0  0  0
  161.3730  212.5690  149.9420 C   0  0  0  0  0  2  0  0  0  0  0  0
  161.9760  212.5170  148.5440 C   0  0  1  0  0  3  0  0  0  0  0  0
  162.1000  210.1580  148.3340 O   0  0  0  0  0  0  0  0  0  0  0  0
  161.6490  211.2080  147.8980 C   0  0  0  0  0  3  0  0  0  0  0  0
  161.4630  213.6630  147.6800 C   0  0  0  0  0  2  0  0  0  0  0  0
  162.3340  213.8460  146.4520 C   0  0  0  0  0  1  0  0  0  0  0  0
  161.6060  208.8810  154.1280 C   0  0  1  0  0  3  0  0  0  0  0  0
  160.9670  208.1260  155.2810 C   0  0  0  0  0  1  0  0  0  0  0  0
  162.2520  207.0690  150.9550 C   0  0  2  0  0  3  0  0  0  0  0  0
  161.6410  204.8330  151.9190 C   0  0  1  0  0  3  0  0  0  0  0  0
  161.1000  204.5990  153.1750 C   0  0  0  0  0  3  0  0  0  0  0  0
  161.2080  204.2360  150.6600 C   0  0  0  0  0  2  0  0  0  0  0  0
  162.0400  208.2770  151.7690 N   0  0  0  0  0  0  0  0  0  0  0  0
  162.0730  206.5010  153.1490 C   0  0  2  0  0  3  0  0  0  0  0  0
  160.9910  205.0250  149.6030 C   0  0  0  0  0  0  0  0  0  0  0  0
  161.9500  207.9350  153.0240 C   0  0  0  0  0  0  0  0  0  0  0  0
  160.8280  206.8320  149.8210 S   0  0  0  0  0  0  0  0  0  0  0  0
  162.2740  206.0070  151.9450 N   0  0  2  0  0  0  0  0  0  0  0  0
  161.3560  205.6860  153.9510 N   0  0  0  0  0  0  0  0  0  0  0  0
  160.9370  200.2780  147.0160 O   0  0  0  0  0  0  0  0  0  0  0  0
  160.6540  202.5820  146.6780 N   0  0  0  0  0  2  0  0  0  0  0  0
  160.8340  203.0040  148.0340 C   0  0  0  0  0  0  0  0  0  0  0  0
  161.0600  202.1600  148.9410 O   0  0  0  0  0  0  0  0  0  0  0  0
  160.5130  200.9360  144.7760 C   0  0  0  0  0  1  0  0  0  0  0  0
  160.7140  201.2270  146.2190 C   0  0  0  0  0  0  0  0  0  0  0  0
  160.7290  204.3990  148.3410 N   0  0  0  0  0  0  0  0  0  0  0  0
  1  2  2  0  0  0  0
  1 22  1  0  0  0  0
  3 10  1  0  0  0  0
  4  3  1  6  0  0  0
  4  5  1  0  0  0  0
  5  2  1  1  0  0  0
  6 10  1  0  0  0  0
  7  8  2  0  0  0  0
  8 14  1  0  0  0  0
  8 12  1  0  0  0  0
  9  4  1  0  0  0  0
  9  5  1  0  0  0  0
 11  6  1  0  0  0  0
 12 13  1  0  0  0  0
 12  3  2  0  0  0  0
 13 11  1  0  0  0  0
 14  9  1  0  0  0  0
 15 16  1  0  0  0  0
 15 14  1  0  0  0  0
 17 16  1  0  0  0  0
 19 18  2  0  0  0  0
 19 17  1  0  0  0  0
 20 17  1  0  0  0  0
 21 20  1  0  0  0  0
 22 23  1  0  0  0  0
 24 28  1  0  0  0  0
 24 33  1  0  0  0  0
 25 33  1  0  0  0  0
 25 26  1  0  0  0  0
 26 34  2  0  0  0  0
 27 25  1  0  0  0  0
 28 31  2  0  0  0  0
 29 34  1  0  0  0  0
 30 32  1  0  0  0  0
 30 27  1  0  0  0  0
 31 29  1  0  0  0  0
 31 22  1  0  0  0  0
 32 24  1  0  0  0  0
 33 29  1  0  0  0  0
 36 37  1  0  0  0  0
 37 41  1  0  0  0  0
 37 38  2  0  0  0  0
 39 40  1  0  0  0  0
 40 36  1  0  0  0  0
 40 35  2  0  0  0  0
 41 30  2  0  0  0  0
M  END
>  <MODEL>
4

>  <REMARK>
 VINA RESULT:      -5.5      5.171      9.920
  Name = 
  9 active torsions:
  status: ('A' for Active; 'I' for Inactive)
    1  A    between atoms: C_4  and  C_6
    2  A    between atoms: C_6  and  C_31
    3  A    between atoms: C_7  and  C_13
    4  A    between atoms: C_10  and  C_26
    5  A    between atoms: C_11  and  C_25
    6  A    between atoms: C_11  and  C_38
    7  A    between atoms: C_25  and  C_26
    8  A    between atoms: C_26  and  C_40
    9  A    between atoms: C_27  and  N_41
                            x       y       z     vdW  Elec       q    Type
                         _______ _______ _______ _____ _____    ______ ____

>  <TORSDO>
F 9

$$$$
=
 OpenBabel11052411223D

 41 46  0  0  1  0  0  0  0  0999 V2000
  161.5850  209.6110  150.7890 C   0  0  0  0  0  3  0  0  0  0  0  0
  161.0800  210.6760  151.4060 C   0  0  0  0  0  3  0  0  0  0  0  0
  160.3350  209.2560  154.7620 C   0  0  0  0  0  0  0  0  0  0  0  0
  159.9670  209.8400  153.4200 C   0  0  2  0  0  3  0  0  0  0  0  0
  161.0690  210.7360  152.8940 C   0  0  2  0  0  3  0  0  0  0  0  0
  160.6260  207.1160  156.0730 C   0  0  0  0  0  2  0  0  0  0  0  0
  159.4160  211.9270  156.9400 O   0  0  0  0  0  0  0  0  0  0  0  0
  159.8170  211.3610  155.8860 C   0  0  0  0  0  0  0  0  0  0  0  0
  159.7670  211.3590  153.3590 C   0  0  2  0  0  3  0  0  0  0  0  0
  160.8320  207.8330  154.7450 C   0  0  0  0  0  2  0  0  0  0  0  0
  161.1680  207.9850  157.1920 C   0  0  0  0  0  2  0  0  0  0  0  0
  160.2020  209.9450  155.9170 C   0  0  0  0  0  0  0  0  0  0  0  0
  160.3530  209.2710  157.2610 C   0  0  0  0  0  2  0  0  0  0  0  0
  160.0470  212.1600  154.6350 C   0  0  1  0  0  3  0  0  0  0  0  0
  159.2190  213.4400  154.6250 C   0  0  0  0  0  2  0  0  0  0  0  0
  157.9350  213.2350  153.8400 C   0  0  0  0  0  2  0  0  0  0  0  0
  156.7280  213.2800  154.7680 C   0  0  1  0  0  3  0  0  0  0  0  0
  155.0340  213.7260  153.1690 O   0  0  0  0  0  0  0  0  0  0  0  0
  155.6460  214.1120  154.1550 C   0  0  0  0  0  3  0  0  0  0  0  0
  156.2020  211.8780  155.0550 C   0  0  0  0  0  2  0  0  0  0  0  0
  155.7810  211.7460  156.5060 C   0  0  0  0  0  1  0  0  0  0  0  0
  161.6070  209.5270  149.2950 C   0  0  1  0  0  3  0  0  0  0  0  0
  162.5820  210.5370  148.7140 C   0  0  0  0  0  1  0  0  0  0  0  0
  162.4340  206.3640  147.5410 C   0  0  2  0  0  3  0  0  0  0  0  0
  161.4390  204.9200  149.3370 C   0  0  1  0  0  3  0  0  0  0  0  0
  160.7150  205.3560  150.4370 C   0  0  0  0  0  3  0  0  0  0  0  0
  161.1030  203.7990  148.4650 C   0  0  0  0  0  2  0  0  0  0  0  0
  162.2660  207.8240  147.6280 N   0  0  0  0  0  0  0  0  0  0  0  0
  161.9060  206.9570  149.6720 C   0  0  2  0  0  3  0  0  0  0  0  0
  161.1210  203.9740  147.1400 C   0  0  2  0  0  3  0  0  0  0  0  0
  161.9740  208.1480  148.8560 C   0  0  0  0  0  0  0  0  0  0  0  0
  161.1510  205.6600  146.4340 S   0  0  0  0  0  0  0  0  0  0  0  0
  162.2000  205.9260  148.9070 N   0  0  2  0  0  0  0  0  0  0  0  0
  160.9970  206.6730  150.6300 N   0  0  0  0  0  0  0  0  0  0  0  0
  161.5860  198.5900  147.0020 O   0  0  0  0  0  0  0  0  0  0  0  0
  161.0910  200.4470  145.6580 N   0  0  0  0  0  2  0  0  0  0  0  0
  161.1970  201.4560  146.6680 C   0  0  0  0  0  0  0  0  0  0  0  0
  161.4810  201.1440  147.8550 O   0  0  0  0  0  0  0  0  0  0  0  0
  161.1550  198.1110  144.7180 C   0  0  0  0  0  1  0  0  0  0  0  0
  161.2930  199.0450  145.8650 C   0  0  0  0  0  0  0  0  0  0  0  0
  160.9510  202.8200  146.3080 N   0  0  0  0  0  2  0  0  0  0  0  0
  1  2  2  0  0  0  0
  3 12  2  0  0  0  0
  4  3  1  1  0  0  0
  5  2  1  6  0  0  0
  5  9  1  0  0  0  0
  5  4  1  0  0  0  0
  6 11  1  0  0  0  0
  8 12  1  0  0  0  0
  8  7  2  0  0  0  0
  9  4  1  0  0  0  0
  9 14  1  0  0  0  0
 10  3  1  0  0  0  0
 10  6  1  0  0  0  0
 11 13  1  0  0  0  0
 12 13  1  0  0  0  0
 14  8  1  0  0  0  0
 15 14  1  0  0  0  0
 16 15  1  0  0  0  0
 16 17  1  0  0  0  0
 17 20  1  0  0  0  0
 18 19  2  0  0  0  0
 19 17  1  0  0  0  0
 20 21  1  0  0  0  0
 22  1  1  0  0  0  0
 23 22  1  0  0  0  0
 24 28  1  0  0  0  0
 24 33  1  0  0  0  0
 25 26  1  0  0  0  0
 26 34  2  0  0  0  0
 27 25  1  0  0  0  0
 28 31  2  0  0  0  0
 29 34  1  0  0  0  0
 30 27  1  0  0  0  0
 31 22  1  0  0  0  0
 31 29  1  0  0  0  0
 32 30  1  0  0  0  0
 32 24  1  0  0  0  0
 33 25  1  0  0  0  0
 33 29  1  0  0  0  0
 36 40  1  0  0  0  0
 36 37  1  0  0  0  0
 37 38  2  0  0  0  0
 39 40  1  0  0  0  0
 40 35  2  0  0  0  0
 41 37  1  0  0  0  0
 41 30  1  0  0  0  0
M  END
>  <MODEL>
5

>  <REMARK>
 VINA RESULT:      -5.1      5.557      9.291
  Name = 
  9 active torsions:
  status: ('A' for Active; 'I' for Inactive)
    1  A    between atoms: C_4  and  C_6
    2  A    between atoms: C_6  and  C_31
    3  A    between atoms: C_7  and  C_13
    4  A    between atoms: C_10  and  C_26
    5  A    between atoms: C_11  and  C_25
    6  A    between atoms: C_11  and  C_38
    7  A    between atoms: C_25  and  C_26
    8  A    between atoms: C_26  and  C_40
    9  A    between atoms: C_27  and  N_41
                            x       y       z     vdW  Elec       q    Type
                         _______ _______ _______ _____ _____    ______ ____

>  <TORSDO>
F 9

$$$$
=
 OpenBabel11052411223D

 41 46  0  0  1  0  0  0  0  0999 V2000
  161.0450  205.2580  151.4310 C   0  0  0  0  0  3  0  0  0  0  0  0
  162.1240  205.7090  152.0660 C   0  0  0  0  0  3  0  0  0  0  0  0
  160.8430  207.9540  154.7400 C   0  0  0  0  0  0  0  0  0  0  0  0
  160.7270  207.1490  153.4700 C   0  0  2  0  0  3  0  0  0  0  0  0
  162.0720  207.0110  152.7860 C   0  0  2  0  0  3  0  0  0  0  0  0
  160.4090  207.9600  157.2300 C   0  0  0  0  0  2  0  0  0  0  0  0
  160.7030  211.2780  153.4530 O   0  0  0  0  0  0  0  0  0  0  0  0
  160.9530  210.0410  153.4760 C   0  0  0  0  0  0  0  0  0  0  0  0
  161.0070  207.8880  152.1550 C   0  0  2  0  0  3  0  0  0  0  0  0
  160.8800  207.1600  156.0210 C   0  0  0  0  0  2  0  0  0  0  0  0
  161.1470  209.2850  157.2610 C   0  0  0  0  0  2  0  0  0  0  0  0
  160.8820  209.3050  154.7450 C   0  0  0  0  0  0  0  0  0  0  0  0
  160.7640  210.0950  156.0270 C   0  0  0  0  0  2  0  0  0  0  0  0
  161.4670  209.3460  152.2490 C   0  0  1  0  0  3  0  0  0  0  0  0
  161.0750  210.0880  150.9770 C   0  0  0  0  0  2  0  0  0  0  0  0
  162.2750  210.8150  150.3950 C   0  0  0  0  0  2  0  0  0  0  0  0
  162.3620  210.5860  148.8910 C   0  0  1  0  0  3  0  0  0  0  0  0
  162.7480  208.3870  148.0930 O   0  0  0  0  0  0  0  0  0  0  0  0
  161.9520  209.1840  148.5670 C   0  0  0  0  0  3  0  0  0  0  0  0
  161.4810  211.5720  148.1320 C   0  0  0  0  0  2  0  0  0  0  0  0
  161.7350  212.9930  148.5990 C   0  0  0  0  0  1  0  0  0  0  0  0
  161.0740  203.9530  150.7000 C   0  0  1  0  0  3  0  0  0  0  0  0
  159.7140  203.2770  150.7540 C   0  0  0  0  0  1  0  0  0  0  0  0
  161.9150  205.1530  147.2910 C   0  0  2  0  0  3  0  0  0  0  0  0
  161.2620  202.9920  146.1950 C   0  0  1  0  0  3  0  0  0  0  0  0
  160.6480  201.9100  146.8090 C   0  0  0  0  0  3  0  0  0  0  0  0
  160.9070  203.5740  144.9050 C   0  0  0  0  0  2  0  0  0  0  0  0
  161.6490  205.3310  148.7280 N   0  0  0  0  0  0  0  0  0  0  0  0
  161.6110  203.1270  148.2780 C   0  0  2  0  0  3  0  0  0  0  0  0
  160.7480  204.8980  144.8080 C   0  0  2  0  0  3  0  0  0  0  0  0
  161.4870  204.1610  149.2800 C   0  0  0  0  0  0  0  0  0  0  0  0
  160.5620  205.9160  146.3140 S   0  0  0  0  0  0  0  0  0  0  0  0
  161.8850  203.7100  147.1290 N   0  0  2  0  0  0  0  0  0  0  0  0
  160.8520  202.0180  148.1500 N   0  0  0  0  0  0  0  0  0  0  0  0
  163.3550  206.8760  140.5040 O   0  0  0  0  0  0  0  0  0  0  0  0
  161.2060  206.5440  141.3840 N   0  0  0  0  0  2  0  0  0  0  0  0
  161.5890  205.8890  142.5980 C   0  0  0  0  0  0  0  0  0  0  0  0
  162.8040  205.6780  142.8550 O   0  0  0  0  0  0  0  0  0  0  0  0
  161.5690  207.6850  139.1680 C   0  0  0  0  0  1  0  0  0  0  0  0
  162.1090  207.0160  140.3790 C   0  0  0  0  0  0  0  0  0  0  0  0
  160.5640  205.4590  143.5020 N   0  0  0  0  0  2  0  0  0  0  0  0
  1  2  2  0  0  0  0
  3 12  2  0  0  0  0
  3 10  1  0  0  0  0
  4  3  1  1  0  0  0
  5  2  1  6  0  0  0
  5  4  1  0  0  0  0
  6 11  1  0  0  0  0
  7  8  2  0  0  0  0
  8 12  1  0  0  0  0
  9 14  1  0  0  0  0
  9  5  1  0  0  0  0
  9  4  1  0  0  0  0
 10  6  1  0  0  0  0
 12 13  1  0  0  0  0
 13 11  1  0  0  0  0
 14  8  1  0  0  0  0
 15 14  1  0  0  0  0
 16 15  1  0  0  0  0
 17 16  1  0  0  0  0
 18 19  2  0  0  0  0
 19 17  1  0  0  0  0
 20 21  1  0  0  0  0
 20 17  1  0  0  0  0
 22 23  1  0  0  0  0
 22  1  1  0  0  0  0
 24 28  1  0  0  0  0
 25 26  1  0  0  0  0
 25 33  1  0  0  0  0
 26 34  2  0  0  0  0
 27 25  1  0  0  0  0
 28 31  2  0  0  0  0
 29 31  1  0  0  0  0
 30 27  1  0  0  0  0
 30 32  1  0  0  0  0
 31 22  1  0  0  0  0
 32 24  1  0  0  0  0
 33 24  1  0  0  0  0
 33 29  1  0  0  0  0
 34 29  1  0  0  0  0
 36 37  1  0  0  0  0
 37 38  2  0  0  0  0
 37 41  1  0  0  0  0
 39 40  1  0  0  0  0
 40 35  2  0  0  0  0
 40 36  1  0  0  0  0
 41 30  1  0  0  0  0
M  END
>  <MODEL>
6

>  <REMARK>
 VINA RESULT:      -4.8      3.956      7.957
  Name = 
  9 active torsions:
  status: ('A' for Active; 'I' for Inactive)
    1  A    between atoms: C_4  and  C_6
    2  A    between atoms: C_6  and  C_31
    3  A    between atoms: C_7  and  C_13
    4  A    between atoms: C_10  and  C_26
    5  A    between atoms: C_11  and  C_25
    6  A    between atoms: C_11  and  C_38
    7  A    between atoms: C_25  and  C_26
    8  A    between atoms: C_26  and  C_40
    9  A    between atoms: C_27  and  N_41
                            x       y       z     vdW  Elec       q    Type
                         _______ _______ _______ _____ _____    ______ ____

>  <TORSDO>
F 9

$$$$
