=
 OpenBabel11042421083D

 28 29  0  0  1  0  0  0  0  0999 V2000
  161.3140  206.6520  150.8230 C   0  0  2  0  0  3  0  0  0  0  0  0
  160.5570  205.4220  150.6530 N   0  0  0  0  0  2  0  0  0  0  0  0
  160.8860  204.9210  149.3870 N   0  0  0  0  0  2  0  0  0  0  0  0
  161.4130  203.1360  147.9130 N   0  0  0  0  0  0  0  0  0  0  0  0
  161.0590  203.5240  149.1040 C   0  0  0  0  0  0  0  0  0  0  0  0
  160.5380  202.5010  145.2240 N   0  0  0  0  0  1  0  0  0  0  0  0
  162.4180  205.7120  145.3640 N   0  0  0  0  0  0  0  0  0  0  0  0
  162.4150  205.2530  146.7580 C   0  0  0  0  0  2  0  0  0  0  0  0
  161.6870  204.7020  144.5910 C   0  0  0  0  0  3  0  0  0  0  0  0
  161.2750  203.6720  145.5620 C   0  0  0  0  0  0  0  0  0  0  0  0
  161.6750  203.9680  146.7700 C   0  0  0  0  0  0  0  0  0  0  0  0
  161.3910  202.6580  151.4410 N   0  0  0  0  0  1  0  0  0  0  0  0
  160.1870  201.4040  149.8750 N   0  0  0  0  0  2  0  0  0  0  0  0
  160.8460  202.4840  150.1370 C   0  0  0  0  0  0  0  0  0  0  0  0
  161.0130  207.2730  152.1870 C   0  0  1  0  0  3  0  0  0  0  0  0
  160.6230  206.7120  154.6230 C   0  0  0  0  0  1  0  0  0  0  0  0
  161.3150  206.3020  153.3320 C   0  0  0  0  0  2  0  0  0  0  0  0
  161.7490  208.4830  152.3500 O   0  0  0  0  0  0  0  0  0  0  0  0
  161.7060  210.4160  153.9890 C   0  0  0  0  0  3  0  0  0  0  0  0
  159.8010  211.3220  153.2490 C   0  0  0  0  0  2  0  0  0  0  0  0
  160.0800  210.1380  152.4460 N   0  0  0  0  0  0  0  0  0  0  0  0
  161.1780  209.6370  152.8890 C   0  0  0  0  0  0  0  0  0  0  0  0
  160.9040  211.4030  154.2030 N   0  0  0  0  0  0  0  0  0  0  0  0
  160.9570  207.5850  149.7640 N   0  0  0  0  0  2  0  0  0  0  0  0
  162.9790  207.5100  148.6040 O   0  0  0  0  0  1  0  0  0  0  0  0
  162.1630  208.3150  149.3990 C   0  0  1  0  0  3  0  0  0  0  0  0
  161.8160  209.6090  148.6640 C   0  0  0  0  0  2  0  0  0  0  0  0
  162.1290  210.8370  149.5030 C   0  0  0  0  0  1  0  0  0  0  0  0
  1 24  1  6  0  0  0
  1 15  1  0  0  0  0
  2  1  1  0  0  0  0
  3  2  1  0  0  0  0
  4  5  2  0  0  0  0
  5  3  1  0  0  0  0
  5 14  1  0  0  0  0
  6 10  1  0  0  0  0
  7  8  1  0  0  0  0
  8 11  1  0  0  0  0
  9  7  2  0  0  0  0
  9 10  1  0  0  0  0
 10 11  2  0  0  0  0
 11  4  1  0  0  0  0
 13 14  2  0  0  0  0
 14 12  1  0  0  0  0
 15 18  1  0  0  0  0
 15 17  1  1  0  0  0
 17 16  1  0  0  0  0
 18 22  1  0  0  0  0
 19 23  2  0  0  0  0
 20 23  1  0  0  0  0
 21 22  2  0  0  0  0
 21 20  1  0  0  0  0
 22 19  1  0  0  0  0
 26 25  1  6  0  0  0
 26 24  1  0  0  0  0
 27 26  1  0  0  0  0
 27 28  1  0  0  0  0
M  END
>  <MODEL>
1

>  <REMARK>
 VINA RESULT:      -7.1      0.000      0.000
  Name = 
  11 active torsions:
  status: ('A' for Active; 'I' for Inactive)
    1  A    between atoms: O_5  and  C_16
    2  A    between atoms: O_5  and  C_23
    3  A    between atoms: C_10  and  C_15
    4  A    between atoms: C_10  and  N_22
    5  A    between atoms: N_11  and  C_14
    6  A    between atoms: N_11  and  N_17
    7  A    between atoms: C_13  and  C_16
    8  A    between atoms: C_14  and  C_16
    9  A    between atoms: C_14  and  N_22
   10  A    between atoms: N_20  and  C_26
   11  A    between atoms: C_24  and  C_27
                            x       y       z     vdW  Elec       q    Type
                         _______ _______ _______ _____ _____    ______ ____

>  <TORSDO>
F 11

$$$$
=
 OpenBabel11042421083D

 28 29  0  0  1  0  0  0  0  0999 V2000
  161.5800  207.8900  149.8170 C   0  0  2  0  0  3  0  0  0  0  0  0
  161.8460  207.3850  148.4800 N   0  0  0  0  0  2  0  0  0  0  0  0
  161.6120  206.0040  148.5190 N   0  0  0  0  0  2  0  0  0  0  0  0
  161.1270  203.9310  147.4680 N   0  0  0  0  0  0  0  0  0  0  0  0
  161.3860  205.2010  147.3500 C   0  0  0  0  0  0  0  0  0  0  0  0
  161.0670  201.0350  147.5660 N   0  0  0  0  0  1  0  0  0  0  0  0
  160.8480  202.5560  150.9580 N   0  0  0  0  0  0  0  0  0  0  0  0
  160.9360  203.7160  150.0650 C   0  0  0  0  0  3  0  0  0  0  0  0
  160.8900  201.3660  150.1010 C   0  0  0  0  0  2  0  0  0  0  0  0
  161.0000  201.8680  148.7190 C   0  0  0  0  0  0  0  0  0  0  0  0
  161.0260  203.1740  148.6870 C   0  0  0  0  0  0  0  0  0  0  0  0
  160.2470  206.2750  145.3840 N   0  0  0  0  0  1  0  0  0  0  0  0
  162.5400  205.8130  145.3140 N   0  0  0  0  0  2  0  0  0  0  0  0
  161.4370  205.7740  145.9850 C   0  0  0  0  0  0  0  0  0  0  0  0
  161.5740  209.4190  149.8130 C   0  0  1  0  0  3  0  0  0  0  0  0
  161.1920  210.5740  152.0310 C   0  0  0  0  0  1  0  0  0  0  0  0
  162.2240  209.9910  151.0760 C   0  0  0  0  0  2  0  0  0  0  0  0
  162.2280  209.9110  148.6470 O   0  0  0  0  0  0  0  0  0  0  0  0
  163.1220  212.2420  148.2120 C   0  0  0  0  0  3  0  0  0  0  0  0
  161.2140  213.0910  147.4130 C   0  0  0  0  0  2  0  0  0  0  0  0
  160.9780  211.6950  147.7580 N   0  0  0  0  0  0  0  0  0  0  0  0
  162.0870  211.2300  148.2130 C   0  0  0  0  0  0  0  0  0  0  0  0
  162.6160  213.3320  147.7450 N   0  0  0  0  0  0  0  0  0  0  0  0
  162.6060  207.4010  150.7270 N   0  0  0  0  0  2  0  0  0  0  0  0
  162.9580  205.8200  152.4040 O   0  0  0  0  0  1  0  0  0  0  0  0
  161.9880  206.4030  151.5890 C   0  0  1  0  0  3  0  0  0  0  0  0
  160.8840  207.0270  152.4410 C   0  0  0  0  0  2  0  0  0  0  0  0
  161.0840  206.7440  153.9210 C   0  0  0  0  0  1  0  0  0  0  0  0
  1  2  1  6  0  0  0
  1 24  1  0  0  0  0
  2  3  1  0  0  0  0
  4 11  1  0  0  0  0
  5  4  2  0  0  0  0
  5  3  1  0  0  0  0
  6 10  1  0  0  0  0
  8  7  2  0  0  0  0
  9  7  1  0  0  0  0
 10  9  1  0  0  0  0
 11 10  2  0  0  0  0
 11  8  1  0  0  0  0
 12 14  1  0  0  0  0
 13 14  2  0  0  0  0
 14  5  1  0  0  0  0
 15  1  1  0  0  0  0
 15 17  1  1  0  0  0
 17 16  1  0  0  0  0
 18 15  1  0  0  0  0
 19 22  1  0  0  0  0
 20 23  1  0  0  0  0
 20 21  1  0  0  0  0
 21 22  2  0  0  0  0
 22 18  1  0  0  0  0
 23 19  2  0  0  0  0
 24 26  1  0  0  0  0
 26 25  1  1  0  0  0
 26 27  1  0  0  0  0
 27 28  1  0  0  0  0
M  END
>  <MODEL>
2

>  <REMARK>
 VINA RESULT:      -7.0      2.138      4.660
  Name = 
  11 active torsions:
  status: ('A' for Active; 'I' for Inactive)
    1  A    between atoms: O_5  and  C_16
    2  A    between atoms: O_5  and  C_23
    3  A    between atoms: C_10  and  C_15
    4  A    between atoms: C_10  and  N_22
    5  A    between atoms: N_11  and  C_14
    6  A    between atoms: N_11  and  N_17
    7  A    between atoms: C_13  and  C_16
    8  A    between atoms: C_14  and  C_16
    9  A    between atoms: C_14  and  N_22
   10  A    between atoms: N_20  and  C_26
   11  A    between atoms: C_24  and  C_27
                            x       y       z     vdW  Elec       q    Type
                         _______ _______ _______ _____ _____    ______ ____

>  <TORSDO>
F 11

$$$$
=
 OpenBabel11042421083D

 28 29  0  0  1  0  0  0  0  0999 V2000
  161.2150  207.1010  151.8220 C   0  0  2  0  0  3  0  0  0  0  0  0
  161.1770  207.1470  153.2740 N   0  0  0  0  0  2  0  0  0  0  0  0
  160.6910  208.4140  153.6230 N   0  0  0  0  0  2  0  0  0  0  0  0
  159.9950  210.0230  155.2240 N   0  0  0  0  0  0  0  0  0  0  0  0
  160.4970  208.8470  154.9780 C   0  0  0  0  0  0  0  0  0  0  0  0
  157.2790  211.0090  155.0020 N   0  0  0  0  0  1  0  0  0  0  0  0
  159.5510  212.5870  152.5100 N   0  0  0  0  0  0  0  0  0  0  0  0
  160.4310  211.6730  153.2470 C   0  0  0  0  0  2  0  0  0  0  0  0
  158.2150  212.4470  153.0990 C   0  0  0  0  0  3  0  0  0  0  0  0
  158.3510  211.4450  154.1720 C   0  0  0  0  0  0  0  0  0  0  0  0
  159.5790  211.0080  154.2640 C   0  0  0  0  0  0  0  0  0  0  0  0
  159.9370  206.9990  156.5870 N   0  0  0  0  0  2  0  0  0  0  0  0
  161.9760  208.1340  156.7540 N   0  0  0  0  0  1  0  0  0  0  0  0
  160.8530  207.9900  156.1320 C   0  0  0  0  0  0  0  0  0  0  0  0
  161.2940  205.6520  151.3400 C   0  0  1  0  0  3  0  0  0  0  0  0
  161.0190  203.2230  151.9940 C   0  0  0  0  0  1  0  0  0  0  0  0
  161.0800  204.6610  152.4880 C   0  0  0  0  0  2  0  0  0  0  0  0
  160.3450  205.4260  150.3010 O   0  0  0  0  0  0  0  0  0  0  0  0
  161.4010  204.2190  148.3390 C   0  0  0  0  0  3  0  0  0  0  0  0
  161.0090  205.8190  146.8280 C   0  0  0  0  0  2  0  0  0  0  0  0
  160.4800  206.2680  148.1090 N   0  0  0  0  0  0  0  0  0  0  0  0
  160.7160  205.3330  148.9590 C   0  0  0  0  0  0  0  0  0  0  0  0
  161.5750  204.4980  147.0920 N   0  0  0  0  0  0  0  0  0  0  0  0
  162.3730  207.8440  151.3480 N   0  0  0  0  0  2  0  0  0  0  0  0
  162.5590  210.1670  151.2680 O   0  0  0  0  0  1  0  0  0  0  0  0
  161.8850  209.0700  150.7320 C   0  0  1  0  0  3  0  0  0  0  0  0
  162.0620  209.0280  149.2150 C   0  0  0  0  0  2  0  0  0  0  0  0
  162.0720  210.4220  148.6080 C   0  0  0  0  0  1  0  0  0  0  0  0
  1 24  1  1  0  0  0
  1  2  1  0  0  0  0
  2  3  1  0  0  0  0
  3  5  1  0  0  0  0
  5  4  2  0  0  0  0
  5 14  1  0  0  0  0
  7  9  2  0  0  0  0
  7  8  1  0  0  0  0
  8 11  1  0  0  0  0
  9 10  1  0  0  0  0
 10 11  2  0  0  0  0
 10  6  1  0  0  0  0
 11  4  1  0  0  0  0
 14 12  2  0  0  0  0
 14 13  1  0  0  0  0
 15  1  1  0  0  0  0
 15 17  1  1  0  0  0
 16 17  1  0  0  0  0
 18 15  1  0  0  0  0
 19 22  1  0  0  0  0
 20 23  1  0  0  0  0
 20 21  1  0  0  0  0
 21 22  2  0  0  0  0
 22 18  1  0  0  0  0
 23 19  2  0  0  0  0
 26 25  1  1  0  0  0
 26 24  1  0  0  0  0
 27 26  1  0  0  0  0
 28 27  1  0  0  0  0
M  END
>  <MODEL>
3

>  <REMARK>
 VINA RESULT:      -7.0      2.310      7.469
  Name = 
  11 active torsions:
  status: ('A' for Active; 'I' for Inactive)
    1  A    between atoms: O_5  and  C_16
    2  A    between atoms: O_5  and  C_23
    3  A    between atoms: C_10  and  C_15
    4  A    between atoms: C_10  and  N_22
    5  A    between atoms: N_11  and  C_14
    6  A    between atoms: N_11  and  N_17
    7  A    between atoms: C_13  and  C_16
    8  A    between atoms: C_14  and  C_16
    9  A    between atoms: C_14  and  N_22
   10  A    between atoms: N_20  and  C_26
   11  A    between atoms: C_24  and  C_27
                            x       y       z     vdW  Elec       q    Type
                         _______ _______ _______ _____ _____    ______ ____

>  <TORSDO>
F 11

$$$$
=
 OpenBabel11042421083D

 28 29  0  0  1  0  0  0  0  0999 V2000
  161.1770  204.8490  148.9170 C   0  0  2  0  0  3  0  0  0  0  0  0
  160.4590  206.1130  148.8870 N   0  0  0  0  0  2  0  0  0  0  0  0
  160.7550  206.7710  150.0880 N   0  0  0  0  0  2  0  0  0  0  0  0
  161.8460  208.4780  151.3280 N   0  0  0  0  0  0  0  0  0  0  0  0
  161.5730  207.9480  150.1700 C   0  0  0  0  0  0  0  0  0  0  0  0
  160.4510  210.1350  153.2520 N   0  0  0  0  0  1  0  0  0  0  0  0
  160.9950  206.6760  154.5180 N   0  0  0  0  0  0  0  0  0  0  0  0
  161.6000  206.6530  153.1810 C   0  0  0  0  0  3  0  0  0  0  0  0
  160.4700  208.0310  154.7150 C   0  0  0  0  0  2  0  0  0  0  0  0
  160.7860  208.7700  153.4780 C   0  0  0  0  0  0  0  0  0  0  0  0
  161.4150  208.0130  152.6180 C   0  0  0  0  0  0  0  0  0  0  0  0
  161.8430  209.9680  148.6970 N   0  0  0  0  0  1  0  0  0  0  0  0
  162.8660  207.9430  148.1260 N   0  0  0  0  0  2  0  0  0  0  0  0
  162.1320  208.5990  148.9620 C   0  0  0  0  0  0  0  0  0  0  0  0
  161.4090  204.3390  147.4950 C   0  0  1  0  0  3  0  0  0  0  0  0
  162.2740  205.6300  145.4990 C   0  0  0  0  0  1  0  0  0  0  0  0
  162.6220  205.0090  146.8440 C   0  0  0  0  0  2  0  0  0  0  0  0
  161.5620  202.9220  147.4990 O   0  0  0  0  0  0  0  0  0  0  0  0
  160.3400  202.5620  145.3080 C   0  0  0  0  0  3  0  0  0  0  0  0
  160.3570  200.3270  145.3830 C   0  0  0  0  0  2  0  0  0  0  0  0
  161.0280  200.8250  146.5780 N   0  0  0  0  0  0  0  0  0  0  0  0
  161.0050  202.1090  146.5110 C   0  0  0  0  0  0  0  0  0  0  0  0
  159.9590  201.5230  144.6460 N   0  0  0  0  0  0  0  0  0  0  0  0
  160.4030  203.8750  149.6730 N   0  0  0  0  0  2  0  0  0  0  0  0
  160.5190  203.8630  152.0030 O   0  0  0  0  0  1  0  0  0  0  0  0
  161.1920  203.4970  150.8370 C   0  0  1  0  0  3  0  0  0  0  0  0
  161.4770  201.9960  150.8390 C   0  0  0  0  0  2  0  0  0  0  0  0
  160.4120  201.2170  150.0850 C   0  0  0  0  0  1  0  0  0  0  0  0
  1  2  1  6  0  0  0
  1 24  1  0  0  0  0
  2  3  1  0  0  0  0
  3  5  1  0  0  0  0
  4 11  1  0  0  0  0
  5  4  2  0  0  0  0
  6 10  1  0  0  0  0
  7  9  1  0  0  0  0
  8  7  2  0  0  0  0
 10  9  1  0  0  0  0
 11  8  1  0  0  0  0
 11 10  2  0  0  0  0
 12 14  1  0  0  0  0
 13 14  2  0  0  0  0
 14  5  1  0  0  0  0
 15 17  1  1  0  0  0
 15 18  1  0  0  0  0
 15  1  1  0  0  0  0
 16 17  1  0  0  0  0
 19 22  1  0  0  0  0
 20 21  1  0  0  0  0
 22 21  2  0  0  0  0
 22 18  1  0  0  0  0
 23 19  2  0  0  0  0
 23 20  1  0  0  0  0
 24 26  1  0  0  0  0
 26 27  1  0  0  0  0
 26 25  1  1  0  0  0
 28 27  1  0  0  0  0
M  END
>  <MODEL>
4

>  <REMARK>
 VINA RESULT:      -6.8      2.117      8.275
  Name = 
  11 active torsions:
  status: ('A' for Active; 'I' for Inactive)
    1  A    between atoms: O_5  and  C_16
    2  A    between atoms: O_5  and  C_23
    3  A    between atoms: C_10  and  C_15
    4  A    between atoms: C_10  and  N_22
    5  A    between atoms: N_11  and  C_14
    6  A    between atoms: N_11  and  N_17
    7  A    between atoms: C_13  and  C_16
    8  A    between atoms: C_14  and  C_16
    9  A    between atoms: C_14  and  N_22
   10  A    between atoms: N_20  and  C_26
   11  A    between atoms: C_24  and  C_27
                            x       y       z     vdW  Elec       q    Type
                         _______ _______ _______ _____ _____    ______ ____

>  <TORSDO>
F 11

$$$$
=
 OpenBabel11042421083D

 28 29  0  0  1  0  0  0  0  0999 V2000
  161.8940  206.3420  151.5600 C   0  0  2  0  0  3  0  0  0  0  0  0
  162.4800  207.5160  150.9360 N   0  0  0  0  0  2  0  0  0  0  0  0
  161.9640  208.6300  151.6130 N   0  0  0  0  0  2  0  0  0  0  0  0
  161.3170  210.9120  151.7020 N   0  0  0  0  0  0  0  0  0  0  0  0
  161.7540  209.9090  150.9970 C   0  0  0  0  0  0  0  0  0  0  0  0
  158.6420  211.3100  152.7440 N   0  0  0  0  0  1  0  0  0  0  0  0
  161.1430  210.8130  155.4580 N   0  0  0  0  0  0  0  0  0  0  0  0
  161.9430  210.7240  154.2310 C   0  0  0  0  0  3  0  0  0  0  0  0
  159.7580  211.0500  155.0360 C   0  0  0  0  0  2  0  0  0  0  0  0
  159.7870  211.0950  153.5620 C   0  0  0  0  0  0  0  0  0  0  0  0
  160.9980  210.9140  153.1040 C   0  0  0  0  0  0  0  0  0  0  0  0
  162.0610  209.0340  148.6600 N   0  0  0  0  0  2  0  0  0  0  0  0
  162.2430  211.3250  149.0980 N   0  0  0  0  0  1  0  0  0  0  0  0
  162.0220  210.1390  149.5580 C   0  0  0  0  0  0  0  0  0  0  0  0
  161.5230  205.3080  150.4970 C   0  0  1  0  0  3  0  0  0  0  0  0
  161.3530  203.0400  151.6050 C   0  0  0  0  0  1  0  0  0  0  0  0
  160.5860  204.2330  151.0560 C   0  0  0  0  0  2  0  0  0  0  0  0
  160.9320  205.9500  149.3700 O   0  0  0  0  0  0  0  0  0  0  0  0
  160.7840  206.2170  146.8540 C   0  0  0  0  0  3  0  0  0  0  0  0
  161.7440  204.2640  146.3440 C   0  0  0  0  0  2  0  0  0  0  0  0
  161.6980  204.3790  147.7960 N   0  0  0  0  0  0  0  0  0  0  0  0
  161.1440  205.5080  148.0640 C   0  0  0  0  0  0  0  0  0  0  0  0
  161.1330  205.4930  145.8460 N   0  0  0  0  0  0  0  0  0  0  0  0
  160.7070  206.7350  152.3050 N   0  0  0  0  0  2  0  0  0  0  0  0
  162.2450  205.9840  153.8880 O   0  0  0  0  0  1  0  0  0  0  0  0
  160.9130  206.3500  153.6940 C   0  0  1  0  0  3  0  0  0  0  0  0
  160.5340  207.4900  154.6380 C   0  0  0  0  0  2  0  0  0  0  0  0
  160.2230  206.9850  156.0380 C   0  0  0  0  0  1  0  0  0  0  0  0
  1  2  1  6  0  0  0
  1 24  1  0  0  0  0
  2  3  1  0  0  0  0
  4 11  1  0  0  0  0
  5  3  1  0  0  0  0
  5  4  2  0  0  0  0
  6 10  1  0  0  0  0
  8  7  2  0  0  0  0
  9  7  1  0  0  0  0
 10  9  1  0  0  0  0
 11 10  2  0  0  0  0
 11  8  1  0  0  0  0
 12 14  2  0  0  0  0
 13 14  1  0  0  0  0
 14  5  1  0  0  0  0
 15 17  1  1  0  0  0
 15  1  1  0  0  0  0
 17 16  1  0  0  0  0
 18 15  1  0  0  0  0
 19 22  1  0  0  0  0
 20 21  1  0  0  0  0
 21 22  2  0  0  0  0
 22 18  1  0  0  0  0
 23 20  1  0  0  0  0
 23 19  2  0  0  0  0
 24 26  1  0  0  0  0
 26 25  1  6  0  0  0
 26 27  1  0  0  0  0
 27 28  1  0  0  0  0
M  END
>  <MODEL>
5

>  <REMARK>
 VINA RESULT:      -6.5      1.909      7.727
  Name = 
  11 active torsions:
  status: ('A' for Active; 'I' for Inactive)
    1  A    between atoms: O_5  and  C_16
    2  A    between atoms: O_5  and  C_23
    3  A    between atoms: C_10  and  C_15
    4  A    between atoms: C_10  and  N_22
    5  A    between atoms: N_11  and  C_14
    6  A    between atoms: N_11  and  N_17
    7  A    between atoms: C_13  and  C_16
    8  A    between atoms: C_14  and  C_16
    9  A    between atoms: C_14  and  N_22
   10  A    between atoms: N_20  and  C_26
   11  A    between atoms: C_24  and  C_27
                            x       y       z     vdW  Elec       q    Type
                         _______ _______ _______ _____ _____    ______ ____

>  <TORSDO>
F 11

$$$$
=
 OpenBabel11042421083D

 28 29  0  0  1  0  0  0  0  0999 V2000
  161.6080  207.0950  150.9510 C   0  0  2  0  0  3  0  0  0  0  0  0
  160.8460  205.8570  150.9420 N   0  0  0  0  0  2  0  0  0  0  0  0
  161.0600  205.2620  149.6920 N   0  0  0  0  0  2  0  0  0  0  0  0
  161.3750  203.3630  148.3020 N   0  0  0  0  0  0  0  0  0  0  0  0
  161.1230  203.8430  149.4860 C   0  0  0  0  0  0  0  0  0  0  0  0
  160.8580  202.3360  145.6420 N   0  0  0  0  0  1  0  0  0  0  0  0
  162.2260  205.7980  145.5650 N   0  0  0  0  0  0  0  0  0  0  0  0
  162.1600  205.4860  146.9970 C   0  0  0  0  0  2  0  0  0  0  0  0
  161.7270  204.6160  144.8560 C   0  0  0  0  0  3  0  0  0  0  0  0
  161.3810  203.6350  145.9020 C   0  0  0  0  0  0  0  0  0  0  0  0
  161.6180  204.1080  147.0970 C   0  0  0  0  0  0  0  0  0  0  0  0
  160.4980  201.5480  150.3000 N   0  0  0  0  0  2  0  0  0  0  0  0
  161.0630  203.2300  151.8250 N   0  0  0  0  0  1  0  0  0  0  0  0
  160.9070  202.8810  150.5910 C   0  0  0  0  0  0  0  0  0  0  0  0
  161.4820  207.7840  152.3090 C   0  0  1  0  0  3  0  0  0  0  0  0
  161.3380  210.2730  152.7350 C   0  0  0  0  0  1  0  0  0  0  0  0
  160.6070  209.0380  152.2290 C   0  0  0  0  0  2  0  0  0  0  0  0
  160.9650  206.8740  153.2770 O   0  0  0  0  0  0  0  0  0  0  0  0
  159.6440  206.9950  155.4370 C   0  0  0  0  0  3  0  0  0  0  0  0
  161.2380  207.9970  156.6420 C   0  0  0  0  0  2  0  0  0  0  0  0
  161.7510  207.7960  155.2930 N   0  0  0  0  0  0  0  0  0  0  0  0
  160.8190  207.2190  154.6220 C   0  0  0  0  0  0  0  0  0  0  0  0
  159.8840  207.4480  156.6200 N   0  0  0  0  0  0  0  0  0  0  0  0
  161.1100  207.9730  149.9020 N   0  0  0  0  0  2  0  0  0  0  0  0
  162.9770  207.8060  148.5150 O   0  0  0  0  0  1  0  0  0  0  0  0
  162.2540  208.6720  149.3360 C   0  0  1  0  0  3  0  0  0  0  0  0
  161.8070  209.9010  148.5450 C   0  0  0  0  0  2  0  0  0  0  0  0
  162.0970  211.1910  149.2950 C   0  0  0  0  0  1  0  0  0  0  0  0
  1 24  1  6  0  0  0
  1 15  1  0  0  0  0
  2  1  1  0  0  0  0
  3  2  1  0  0  0  0
  4  5  2  0  0  0  0
  5  3  1  0  0  0  0
  5 14  1  0  0  0  0
  6 10  1  0  0  0  0
  7  8  1  0  0  0  0
  8 11  1  0  0  0  0
  9  7  2  0  0  0  0
  9 10  1  0  0  0  0
 10 11  2  0  0  0  0
 11  4  1  0  0  0  0
 12 14  2  0  0  0  0
 14 13  1  0  0  0  0
 15 17  1  6  0  0  0
 15 18  1  0  0  0  0
 17 16  1  0  0  0  0
 18 22  1  0  0  0  0
 19 23  2  0  0  0  0
 21 20  1  0  0  0  0
 22 21  2  0  0  0  0
 22 19  1  0  0  0  0
 23 20  1  0  0  0  0
 26 25  1  6  0  0  0
 26 24  1  0  0  0  0
 27 28  1  0  0  0  0
 27 26  1  0  0  0  0
M  END
>  <MODEL>
6

>  <REMARK>
 VINA RESULT:      -6.4      1.412      2.201
  Name = 
  11 active torsions:
  status: ('A' for Active; 'I' for Inactive)
    1  A    between atoms: O_5  and  C_16
    2  A    between atoms: O_5  and  C_23
    3  A    between atoms: C_10  and  C_15
    4  A    between atoms: C_10  and  N_22
    5  A    between atoms: N_11  and  C_14
    6  A    between atoms: N_11  and  N_17
    7  A    between atoms: C_13  and  C_16
    8  A    between atoms: C_14  and  C_16
    9  A    between atoms: C_14  and  N_22
   10  A    between atoms: N_20  and  C_26
   11  A    between atoms: C_24  and  C_27
                            x       y       z     vdW  Elec       q    Type
                         _______ _______ _______ _____ _____    ______ ____

>  <TORSDO>
F 11

$$$$
=
 OpenBabel11042421083D

 28 29  0  0  1  0  0  0  0  0999 V2000
  162.1000  207.5120  149.8460 C   0  0  2  0  0  3  0  0  0  0  0  0
  162.1130  208.8060  149.1830 N   0  0  0  0  0  2  0  0  0  0  0  0
  161.5810  209.7280  150.0940 N   0  0  0  0  0  2  0  0  0  0  0  0
  161.0430  211.9430  150.7600 N   0  0  0  0  0  0  0  0  0  0  0  0
  161.5060  211.1400  149.8450 C   0  0  0  0  0  0  0  0  0  0  0  0
  158.3740  212.5300  151.7210 N   0  0  0  0  0  1  0  0  0  0  0  0
  160.4230  210.7550  154.2730 N   0  0  0  0  0  0  0  0  0  0  0  0
  161.3320  210.8830  153.1290 C   0  0  0  0  0  3  0  0  0  0  0  0
  159.1570  211.3780  153.8720 C   0  0  0  0  0  2  0  0  0  0  0  0
  159.3630  211.8570  152.4920 C   0  0  0  0  0  0  0  0  0  0  0  0
  160.5700  211.5870  152.0690 C   0  0  0  0  0  0  0  0  0  0  0  0
  161.0160  211.8670  147.4890 N   0  0  0  0  0  2  0  0  0  0  0  0
  163.1650  212.1170  148.3800 N   0  0  0  0  0  1  0  0  0  0  0  0
  161.9450  211.7330  148.5600 C   0  0  0  0  0  0  0  0  0  0  0  0
  161.8600  206.3980  148.8270 C   0  0  1  0  0  3  0  0  0  0  0  0
  160.8880  204.1050  149.2670 C   0  0  0  0  0  1  0  0  0  0  0  0
  160.5980  205.5940  149.1520 C   0  0  0  0  0  2  0  0  0  0  0  0
  161.7810  206.9430  147.5120 O   0  0  0  0  0  0  0  0  0  0  0  0
  162.5390  205.1250  145.9170 C   0  0  0  0  0  3  0  0  0  0  0  0
  160.7780  205.2530  144.5460 C   0  0  0  0  0  2  0  0  0  0  0  0
  160.5970  206.2350  145.6070 N   0  0  0  0  0  0  0  0  0  0  0  0
  161.6190  206.1410  146.3810 C   0  0  0  0  0  0  0  0  0  0  0  0
  162.0520  204.6030  144.8430 N   0  0  0  0  0  0  0  0  0  0  0  0
  161.0470  207.4980  150.8510 N   0  0  0  0  0  2  0  0  0  0  0  0
  160.7490  207.5390  153.1640 O   0  0  0  0  0  1  0  0  0  0  0  0
  161.6830  207.3280  152.1500 C   0  0  1  0  0  3  0  0  0  0  0  0
  162.2980  205.9350  152.2770 C   0  0  0  0  0  2  0  0  0  0  0  0
  161.2880  204.9140  152.7760 C   0  0  0  0  0  1  0  0  0  0  0  0
  1  2  1  6  0  0  0
  1 24  1  0  0  0  0
  2  3  1  0  0  0  0
  4 11  1  0  0  0  0
  5  3  1  0  0  0  0
  5  4  2  0  0  0  0
  6 10  1  0  0  0  0
  8  7  2  0  0  0  0
  9  7  1  0  0  0  0
 10  9  1  0  0  0  0
 11 10  2  0  0  0  0
 11  8  1  0  0  0  0
 12 14  2  0  0  0  0
 13 14  1  0  0  0  0
 14  5  1  0  0  0  0
 15 17  1  1  0  0  0
 15  1  1  0  0  0  0
 17 16  1  0  0  0  0
 18 15  1  0  0  0  0
 19 22  1  0  0  0  0
 20 23  1  0  0  0  0
 20 21  1  0  0  0  0
 21 22  2  0  0  0  0
 22 18  1  0  0  0  0
 23 19  2  0  0  0  0
 24 26  1  0  0  0  0
 26 27  1  0  0  0  0
 26 25  1  1  0  0  0
 27 28  1  0  0  0  0
M  END
>  <MODEL>
7

>  <REMARK>
 VINA RESULT:      -6.4      2.243      8.099
  Name = 
  11 active torsions:
  status: ('A' for Active; 'I' for Inactive)
    1  A    between atoms: O_5  and  C_16
    2  A    between atoms: O_5  and  C_23
    3  A    between atoms: C_10  and  C_15
    4  A    between atoms: C_10  and  N_22
    5  A    between atoms: N_11  and  C_14
    6  A    between atoms: N_11  and  N_17
    7  A    between atoms: C_13  and  C_16
    8  A    between atoms: C_14  and  C_16
    9  A    between atoms: C_14  and  N_22
   10  A    between atoms: N_20  and  C_26
   11  A    between atoms: C_24  and  C_27
                            x       y       z     vdW  Elec       q    Type
                         _______ _______ _______ _____ _____    ______ ____

>  <TORSDO>
F 11

$$$$
=
 OpenBabel11042421083D

 28 29  0  0  1  0  0  0  0  0999 V2000
  161.9590  206.8930  148.8560 C   0  0  2  0  0  3  0  0  0  0  0  0
  162.0690  208.2890  148.4650 N   0  0  0  0  0  2  0  0  0  0  0  0
  161.7650  209.0490  149.6030 N   0  0  0  0  0  2  0  0  0  0  0  0
  161.5220  211.1230  150.7330 N   0  0  0  0  0  0  0  0  0  0  0  0
  161.7670  210.4840  149.6250 C   0  0  0  0  0  0  0  0  0  0  0  0
  159.1750  211.7840  152.2990 N   0  0  0  0  0  1  0  0  0  0  0  0
  161.3450  209.2890  154.0120 N   0  0  0  0  0  0  0  0  0  0  0  0
  162.0530  209.5560  152.7540 C   0  0  0  0  0  3  0  0  0  0  0  0
  160.1360  210.1200  153.9940 C   0  0  0  0  0  2  0  0  0  0  0  0
  160.1710  210.8560  152.7170 C   0  0  0  0  0  0  0  0  0  0  0  0
  161.2330  210.5500  152.0190 C   0  0  0  0  0  0  0  0  0  0  0  0
  163.3460  211.8280  148.2020 N   0  0  0  0  0  1  0  0  0  0  0  0
  161.1230  211.5240  147.5380 N   0  0  0  0  0  2  0  0  0  0  0  0
  162.0450  211.2860  148.4110 C   0  0  0  0  0  0  0  0  0  0  0  0
  161.2950  206.0830  147.7420 C   0  0  1  0  0  3  0  0  0  0  0  0
  160.2070  206.1860  145.4610 C   0  0  0  0  0  1  0  0  0  0  0  0
  161.0050  206.9460  146.5100 C   0  0  0  0  0  2  0  0  0  0  0  0
  162.1100  204.9680  147.3910 O   0  0  0  0  0  0  0  0  0  0  0  0
  161.3460  202.9420  146.0730 C   0  0  0  0  0  3  0  0  0  0  0  0
  160.7960  201.6920  147.8420 C   0  0  0  0  0  2  0  0  0  0  0  0
  161.2910  202.9730  148.3310 N   0  0  0  0  0  0  0  0  0  0  0  0
  161.6000  203.6720  147.2970 C   0  0  0  0  0  0  0  0  0  0  0  0
  160.8760  201.7840  146.3870 N   0  0  0  0  0  0  0  0  0  0  0  0
  161.1710  206.7970  150.0760 N   0  0  0  0  0  2  0  0  0  0  0  0
  162.3320  206.1380  151.9880 O   0  0  0  0  0  1  0  0  0  0  0  0
  161.6860  205.6720  150.8430 C   0  0  1  0  0  3  0  0  0  0  0  0
  160.5620  204.7100  151.2230 C   0  0  0  0  0  2  0  0  0  0  0  0
  161.0870  203.4910  151.9650 C   0  0  0  0  0  1  0  0  0  0  0  0
  1  2  1  6  0  0  0
  1 24  1  0  0  0  0
  2  3  1  0  0  0  0
  3  5  1  0  0  0  0
  4 11  1  0  0  0  0
  5  4  2  0  0  0  0
  6 10  1  0  0  0  0
  8  7  2  0  0  0  0
  9  7  1  0  0  0  0
 10  9  1  0  0  0  0
 11 10  2  0  0  0  0
 11  8  1  0  0  0  0
 12 14  1  0  0  0  0
 13 14  2  0  0  0  0
 14  5  1  0  0  0  0
 15 17  1  6  0  0  0
 15  1  1  0  0  0  0
 16 17  1  0  0  0  0
 18 15  1  0  0  0  0
 19 23  2  0  0  0  0
 19 22  1  0  0  0  0
 20 21  1  0  0  0  0
 22 18  1  0  0  0  0
 22 21  2  0  0  0  0
 23 20  1  0  0  0  0
 24 26  1  0  0  0  0
 26 27  1  0  0  0  0
 26 25  1  1  0  0  0
 27 28  1  0  0  0  0
M  END
>  <MODEL>
8

>  <REMARK>
 VINA RESULT:      -6.3      2.097      8.157
  Name = 
  11 active torsions:
  status: ('A' for Active; 'I' for Inactive)
    1  A    between atoms: O_5  and  C_16
    2  A    between atoms: O_5  and  C_23
    3  A    between atoms: C_10  and  C_15
    4  A    between atoms: C_10  and  N_22
    5  A    between atoms: N_11  and  C_14
    6  A    between atoms: N_11  and  N_17
    7  A    between atoms: C_13  and  C_16
    8  A    between atoms: C_14  and  C_16
    9  A    between atoms: C_14  and  N_22
   10  A    between atoms: N_20  and  C_26
   11  A    between atoms: C_24  and  C_27
                            x       y       z     vdW  Elec       q    Type
                         _______ _______ _______ _____ _____    ______ ____

>  <TORSDO>
F 11

$$$$
=
 OpenBabel11042421083D

 28 29  0  0  1  0  0  0  0  0999 V2000
  161.3630  204.5670  149.5530 C   0  0  2  0  0  3  0  0  0  0  0  0
  160.6870  205.8150  149.2400 N   0  0  0  0  0  2  0  0  0  0  0  0
  160.8610  206.6540  150.3490 N   0  0  0  0  0  2  0  0  0  0  0  0
  161.7300  208.6080  151.3820 N   0  0  0  0  0  0  0  0  0  0  0  0
  161.5660  207.9040  150.2980 C   0  0  0  0  0  0  0  0  0  0  0  0
  160.7850  210.5730  153.2900 N   0  0  0  0  0  1  0  0  0  0  0  0
  160.6900  207.1180  154.6750 N   0  0  0  0  0  0  0  0  0  0  0  0
  161.2140  206.9310  153.3170 C   0  0  0  0  0  3  0  0  0  0  0  0
  160.4540  208.5570  154.8360 C   0  0  0  0  0  2  0  0  0  0  0  0
  160.8520  209.1770  153.5590 C   0  0  0  0  0  0  0  0  0  0  0  0
  161.2760  208.2810  152.7060 C   0  0  0  0  0  0  0  0  0  0  0  0
  161.8420  209.7770  148.6450 N   0  0  0  0  0  1  0  0  0  0  0  0
  162.8540  207.7030  148.2610 N   0  0  0  0  0  2  0  0  0  0  0  0
  162.1250  208.4370  149.0350 C   0  0  0  0  0  0  0  0  0  0  0  0
  161.7240  203.8240  148.2670 C   0  0  1  0  0  3  0  0  0  0  0  0
  160.8320  201.8150  147.0130 C   0  0  0  0  0  1  0  0  0  0  0  0
  160.4960  203.1660  147.6290 C   0  0  0  0  0  2  0  0  0  0  0  0
  162.3510  204.7120  147.3450 O   0  0  0  0  0  0  0  0  0  0  0  0
  160.5930  206.0470  146.0990 C   0  0  0  0  0  3  0  0  0  0  0  0
  161.2060  205.4050  144.0480 C   0  0  0  0  0  2  0  0  0  0  0  0
  162.0910  204.7570  145.0070 N   0  0  0  0  0  0  0  0  0  0  0  0
  161.7200  205.1420  146.1760 C   0  0  0  0  0  0  0  0  0  0  0  0
  160.2890  206.2040  144.8560 N   0  0  0  0  0  0  0  0  0  0  0  0
  160.4890  203.7400  150.3740 N   0  0  0  0  0  2  0  0  0  0  0  0
  160.4570  203.6320  152.7030 O   0  0  0  0  0  1  0  0  0  0  0  0
  161.2310  203.3740  151.5720 C   0  0  1  0  0  3  0  0  0  0  0  0
  161.6390  201.9030  151.5330 C   0  0  0  0  0  2  0  0  0  0  0  0
  160.8320  201.1190  150.5110 C   0  0  0  0  0  1  0  0  0  0  0  0
  1  2  1  6  0  0  0
  1 24  1  0  0  0  0
  2  3  1  0  0  0  0
  4 11  1  0  0  0  0
  5  3  1  0  0  0  0
  5  4  2  0  0  0  0
  6 10  1  0  0  0  0
  7  9  1  0  0  0  0
  8  7  2  0  0  0  0
 10  9  1  0  0  0  0
 11  8  1  0  0  0  0
 11 10  2  0  0  0  0
 12 14  1  0  0  0  0
 13 14  2  0  0  0  0
 14  5  1  0  0  0  0
 15 17  1  6  0  0  0
 15  1  1  0  0  0  0
 16 17  1  0  0  0  0
 18 15  1  0  0  0  0
 19 22  1  0  0  0  0
 20 23  1  0  0  0  0
 20 21  1  0  0  0  0
 21 22  2  0  0  0  0
 22 18  1  0  0  0  0
 23 19  2  0  0  0  0
 24 26  1  0  0  0  0
 26 25  1  1  0  0  0
 27 26  1  0  0  0  0
 28 27  1  0  0  0  0
M  END
>  <MODEL>
9

>  <REMARK>
 VINA RESULT:      -6.3      1.991      7.732
  Name = 
  11 active torsions:
  status: ('A' for Active; 'I' for Inactive)
    1  A    between atoms: O_5  and  C_16
    2  A    between atoms: O_5  and  C_23
    3  A    between atoms: C_10  and  C_15
    4  A    between atoms: C_10  and  N_22
    5  A    between atoms: N_11  and  C_14
    6  A    between atoms: N_11  and  N_17
    7  A    between atoms: C_13  and  C_16
    8  A    between atoms: C_14  and  C_16
    9  A    between atoms: C_14  and  N_22
   10  A    between atoms: N_20  and  C_26
   11  A    between atoms: C_24  and  C_27
                            x       y       z     vdW  Elec       q    Type
                         _______ _______ _______ _____ _____    ______ ____

>  <TORSDO>
F 11

$$$$
