=
 OpenBabel11052409443D

 31 34  0  0  1  0  0  0  0  0999 V2000
  162.5040  206.7730  147.9600 C   0  0  0  0  0  2  0  0  0  0  0  0
  160.2670  206.4330  149.6960 C   0  0  0  0  0  2  0  0  0  0  0  0
  161.7940  208.4830  149.7190 C   0  0  0  0  0  0  0  0  0  0  0  0
  161.1030  207.4100  150.4050 N   0  0  0  0  0  0  0  0  0  0  0  0
  160.7950  211.5200  151.8300 C   0  0  2  0  0  3  0  0  0  0  0  0
  161.2180  210.1200  151.5290 C   0  0  0  0  0  0  0  0  0  0  0  0
  160.6880  210.2130  153.7690 C   0  0  0  0  0  3  0  0  0  0  0  0
  161.4550  207.0930  151.7570 C   0  0  0  0  0  0  0  0  0  0  0  0
  162.0220  205.8570  153.6730 N   0  0  0  0  0  0  0  0  0  0  0  0
  160.6040  211.5880  153.2800 N   0  0  0  0  0  0  0  0  0  0  0  0
  161.7200  205.7230  152.2470 C   0  0  0  0  0  3  0  0  0  0  0  0
  162.5800  210.8130  149.5040 C   0  0  0  0  0  1  0  0  0  0  0  0
  161.1250  206.1720  147.6420 C   0  0  1  0  0  3  0  0  0  0  0  0
  161.8580  209.7270  150.2450 C   0  0  0  0  0  0  0  0  0  0  0  0
  161.4560  207.9530  152.7450 C   0  0  0  0  0  0  0  0  0  0  0  0
  162.4090  208.2450  148.3510 C   0  0  0  0  0  2  0  0  0  0  0  0
  160.0860  206.7970  148.3550 O   0  0  0  0  0  0  0  0  0  0  0  0
  161.1210  209.3840  152.6210 C   0  0  0  0  0  0  0  0  0  0  0  0
  161.7180  207.2480  154.0290 C   0  0  1  0  0  3  0  0  0  0  0  0
  159.4710  211.8420  151.1490 C   0  0  0  0  0  2  0  0  0  0  0  0
  158.2160  213.7800  152.3910 N   0  0  0  0  0  0  0  0  0  0  0  0
  158.7680  212.9250  151.8430 C   0  0  0  0  0  0  0  0  0  0  0  0
  160.4820  207.2850  154.9220 C   0  0  0  0  0  2  0  0  0  0  0  0
  160.8710  207.3250  156.3930 C   0  0  2  0  0  3  0  0  0  0  0  0
  159.7440  206.7930  157.2610 C   0  0  0  0  0  1  0  0  0  0  0  0
  160.1380  209.6770  157.1610 C   0  0  0  0  0  1  0  0  0  0  0  0
  162.3880  209.0870  156.8410 O   0  0  0  0  0  0  0  0  0  0  0  0
  161.2230  208.7220  156.7990 C   0  0  0  0  0  0  0  0  0  0  0  0
  160.8350  206.1970  146.1440 C   0  0  0  0  0  2  0  0  0  0  0  0
  161.5630  203.8410  145.9050 C   0  0  0  0  0  1  0  0  0  0  0  0
  161.7360  205.2470  145.3700 C   0  0  0  0  0  2  0  0  0  0  0  0
  1 16  1  0  0  0  0
  2  4  1  0  0  0  0
  3 14  2  0  0  0  0
  3  4  1  0  0  0  0
  4  8  1  0  0  0  0
  5 20  1  6  0  0  0
  5 10  1  0  0  0  0
  6  5  1  0  0  0  0
  6 18  2  0  0  0  0
  8 11  1  0  0  0  0
  8 15  2  0  0  0  0
  9 19  1  0  0  0  0
 10  7  2  0  0  0  0
 11  9  2  0  0  0  0
 12 14  1  0  0  0  0
 13 29  1  6  0  0  0
 13  1  1  0  0  0  0
 13 17  1  0  0  0  0
 14  6  1  0  0  0  0
 15 19  1  0  0  0  0
 16  3  1  0  0  0  0
 17  2  1  0  0  0  0
 18 15  1  0  0  0  0
 18  7  1  0  0  0  0
 19 23  1  1  0  0  0
 20 22  1  0  0  0  0
 22 21  3  0  0  0  0
 23 24  1  0  0  0  0
 24 28  1  0  0  0  0
 24 25  1  1  0  0  0
 28 27  2  0  0  0  0
 28 26  1  0  0  0  0
 31 30  1  0  0  0  0
 31 29  1  0  0  0  0
M  END
>  <MODEL>
1

>  <REMARK>
 VINA RESULT:      -5.5      0.000      0.000
  Name = 
  7 active torsions:
  status: ('A' for Active; 'I' for Inactive)
    1  A    between atoms: C_2  and  C_13
    2  A    between atoms: C_7  and  C_21
    3  A    between atoms: C_7  and  C_22
    4  A    between atoms: C_9  and  C_13
    5  A    between atoms: C_16  and  C_30
    6  A    between atoms: C_21  and  C_31
    7  A    between atoms: C_24  and  C_30
                            x       y       z     vdW  Elec       q    Type
                         _______ _______ _______ _____ _____    ______ ____

>  <TORSDO>
F 7

$$$$
=
 OpenBabel11052409443D

 31 34  0  0  1  0  0  0  0  0999 V2000
  162.8020  207.1150  148.6490 C   0  0  0  0  0  2  0  0  0  0  0  0
  160.4010  206.9770  150.1800 C   0  0  0  0  0  2  0  0  0  0  0  0
  161.7940  209.1010  149.8980 C   0  0  0  0  0  0  0  0  0  0  0  0
  161.0910  208.1490  150.7330 N   0  0  0  0  0  0  0  0  0  0  0  0
  160.3830  212.4310  151.1630 C   0  0  2  0  0  3  0  0  0  0  0  0
  160.9180  211.0380  151.2270 C   0  0  0  0  0  0  0  0  0  0  0  0
  160.1250  211.5700  153.3240 C   0  0  0  0  0  3  0  0  0  0  0  0
  161.2990  208.1620  152.1500 C   0  0  0  0  0  0  0  0  0  0  0  0
  161.7080  207.4210  154.3420 N   0  0  0  0  0  0  0  0  0  0  0  0
  160.0200  212.7950  152.5330 N   0  0  0  0  0  0  0  0  0  0  0  0
  161.5840  206.9570  152.9590 C   0  0  0  0  0  3  0  0  0  0  0  0
  162.4650  211.3860  149.2470 C   0  0  0  0  0  1  0  0  0  0  0  0
  161.5060  206.3480  148.3340 C   0  0  1  0  0  3  0  0  0  0  0  0
  161.7250  210.4300  150.1360 C   0  0  0  0  0  0  0  0  0  0  0  0
  161.1360  209.2130  152.9160 C   0  0  0  0  0  0  0  0  0  0  0  0
  162.5780  208.6240  148.6880 C   0  0  0  0  0  2  0  0  0  0  0  0
  160.3570  207.0260  148.7810 O   0  0  0  0  0  0  0  0  0  0  0  0
  160.7360  210.5500  152.4400 C   0  0  0  0  0  0  0  0  0  0  0  0
  161.2860  208.8260  154.3450 C   0  0  1  0  0  3  0  0  0  0  0  0
  159.1310  212.4890  150.2960 C   0  0  0  0  0  2  0  0  0  0  0  0
  159.3990  214.2400  148.3640 N   0  0  0  0  0  0  0  0  0  0  0  0
  159.2790  213.4680  149.2160 C   0  0  0  0  0  0  0  0  0  0  0  0
  159.9540  208.9540  155.0770 C   0  0  0  0  0  2  0  0  0  0  0  0
  160.1480  209.5450  156.4660 C   0  0  2  0  0  3  0  0  0  0  0  0
  159.0760  210.5790  156.7630 C   0  0  0  0  0  1  0  0  0  0  0  0
  162.6000  209.4020  157.2560 C   0  0  0  0  0  1  0  0  0  0  0  0
  161.7320  211.2720  156.1320 O   0  0  0  0  0  0  0  0  0  0  0  0
  161.5080  210.1590  156.5840 C   0  0  0  0  0  0  0  0  0  0  0  0
  161.3930  206.0250  146.8480 C   0  0  0  0  0  2  0  0  0  0  0  0
  161.5350  203.7850  147.8960 C   0  0  0  0  0  1  0  0  0  0  0  0
  161.4590  204.5300  146.5800 C   0  0  0  0  0  2  0  0  0  0  0  0
  1 16  1  0  0  0  0
  2  4  1  0  0  0  0
  3 14  2  0  0  0  0
  3  4  1  0  0  0  0
  4  8  1  0  0  0  0
  5 20  1  6  0  0  0
  5  6  1  0  0  0  0
  5 10  1  0  0  0  0
  6 18  2  0  0  0  0
  8 15  2  0  0  0  0
  8 11  1  0  0  0  0
  9 19  1  0  0  0  0
 10  7  2  0  0  0  0
 11  9  2  0  0  0  0
 12 14  1  0  0  0  0
 13 29  1  6  0  0  0
 13  1  1  0  0  0  0
 13 17  1  0  0  0  0
 14  6  1  0  0  0  0
 15 19  1  0  0  0  0
 16  3  1  0  0  0  0
 17  2  1  0  0  0  0
 18 15  1  0  0  0  0
 18  7  1  0  0  0  0
 19 23  1  1  0  0  0
 21 22  3  0  0  0  0
 22 20  1  0  0  0  0
 23 24  1  0  0  0  0
 24 28  1  0  0  0  0
 24 25  1  6  0  0  0
 27 28  2  0  0  0  0
 28 26  1  0  0  0  0
 31 29  1  0  0  0  0
 31 30  1  0  0  0  0
M  END
>  <MODEL>
2

>  <REMARK>
 VINA RESULT:      -4.1      1.467      1.751
  Name = 
  7 active torsions:
  status: ('A' for Active; 'I' for Inactive)
    1  A    between atoms: C_2  and  C_13
    2  A    between atoms: C_7  and  C_21
    3  A    between atoms: C_7  and  C_22
    4  A    between atoms: C_9  and  C_13
    5  A    between atoms: C_16  and  C_30
    6  A    between atoms: C_21  and  C_31
    7  A    between atoms: C_24  and  C_30
                            x       y       z     vdW  Elec       q    Type
                         _______ _______ _______ _____ _____    ______ ____

>  <TORSDO>
F 7

$$$$
=
 OpenBabel11052409443D

 31 34  0  0  1  0  0  0  0  0999 V2000
  160.6470  206.6290  146.6290 C   0  0  0  0  0  2  0  0  0  0  0  0
  162.8760  207.4110  148.2250 C   0  0  0  0  0  2  0  0  0  0  0  0
  160.8370  206.1650  149.1330 C   0  0  0  0  0  0  0  0  0  0  0  0
  161.7950  207.2490  149.2060 N   0  0  0  0  0  0  0  0  0  0  0  0
  160.9320  204.8060  152.7140 C   0  0  2  0  0  3  0  0  0  0  0  0
  160.9200  205.8160  151.6140 C   0  0  0  0  0  0  0  0  0  0  0  0
  161.3850  206.9350  153.5730 C   0  0  0  0  0  3  0  0  0  0  0  0
  161.5360  208.3640  150.0660 C   0  0  0  0  0  0  0  0  0  0  0  0
  161.3230  210.5750  150.8340 N   0  0  0  0  0  0  0  0  0  0  0  0
  161.0850  205.5570  153.9600 N   0  0  0  0  0  0  0  0  0  0  0  0
  161.6600  209.7790  149.6520 C   0  0  0  0  0  3  0  0  0  0  0  0
  159.4330  204.3950  150.1290 C   0  0  0  0  0  1  0  0  0  0  0  0
  162.1410  206.6050  146.2670 C   0  0  1  0  0  3  0  0  0  0  0  0
  160.4250  205.5150  150.2450 C   0  0  0  0  0  0  0  0  0  0  0  0
  161.2870  208.2710  151.3490 C   0  0  0  0  0  0  0  0  0  0  0  0
  160.3240  205.6880  147.7850 C   0  0  0  0  0  2  0  0  0  0  0  0
  162.9590  206.3030  147.3720 O   0  0  0  0  0  0  0  0  0  0  0  0
  161.2100  207.0070  152.1050 C   0  0  0  0  0  0  0  0  0  0  0  0
  161.2230  209.6300  151.9520 C   0  0  1  0  0  3  0  0  0  0  0  0
  162.1190  203.8620  152.5650 C   0  0  0  0  0  2  0  0  0  0  0  0
  161.4730  201.7370  151.1710 N   0  0  0  0  0  0  0  0  0  0  0  0
  161.7570  202.6750  151.7850 C   0  0  0  0  0  0  0  0  0  0  0  0
  162.3920  209.8480  152.9060 C   0  0  0  0  0  2  0  0  0  0  0  0
  161.9990  210.7700  154.0520 C   0  0  2  0  0  3  0  0  0  0  0  0
  162.7810  210.4270  155.3090 C   0  0  0  0  0  1  0  0  0  0  0  0
  159.6310  211.7790  153.8750 C   0  0  0  0  0  1  0  0  0  0  0  0
  160.0560  209.7000  154.8790 O   0  0  0  0  0  0  0  0  0  0  0  0
  160.5290  210.6740  154.3140 C   0  0  0  0  0  0  0  0  0  0  0  0
  162.4240  205.6460  145.1140 C   0  0  0  0  0  2  0  0  0  0  0  0
  161.5030  203.3710  145.4460 C   0  0  0  0  0  1  0  0  0  0  0  0
  162.7330  204.2400  145.6020 C   0  0  0  0  0  2  0  0  0  0  0  0
  1 16  1  0  0  0  0
  2  4  1  0  0  0  0
  3  4  1  0  0  0  0
  3 14  2  0  0  0  0
  4  8  1  0  0  0  0
  5 20  1  6  0  0  0
  5 10  1  0  0  0  0
  6 18  2  0  0  0  0
  6  5  1  0  0  0  0
  7 10  2  0  0  0  0
  8 15  2  0  0  0  0
  9 19  1  0  0  0  0
 11  8  1  0  0  0  0
 11  9  2  0  0  0  0
 12 14  1  0  0  0  0
 13 29  1  6  0  0  0
 13  1  1  0  0  0  0
 13 17  1  0  0  0  0
 14  6  1  0  0  0  0
 15 19  1  0  0  0  0
 15 18  1  0  0  0  0
 16  3  1  0  0  0  0
 17  2  1  0  0  0  0
 18  7  1  0  0  0  0
 19 23  1  1  0  0  0
 21 22  3  0  0  0  0
 22 20  1  0  0  0  0
 23 24  1  0  0  0  0
 24 28  1  0  0  0  0
 24 25  1  1  0  0  0
 26 28  1  0  0  0  0
 28 27  2  0  0  0  0
 29 31  1  0  0  0  0
 30 31  1  0  0  0  0
M  END
>  <MODEL>
3

>  <REMARK>
 VINA RESULT:      -3.3      2.012      4.930
  Name = 
  7 active torsions:
  status: ('A' for Active; 'I' for Inactive)
    1  A    between atoms: C_2  and  C_13
    2  A    between atoms: C_7  and  C_21
    3  A    between atoms: C_7  and  C_22
    4  A    between atoms: C_9  and  C_13
    5  A    between atoms: C_16  and  C_30
    6  A    between atoms: C_21  and  C_31
    7  A    between atoms: C_24  and  C_30
                            x       y       z     vdW  Elec       q    Type
                         _______ _______ _______ _____ _____    ______ ____

>  <TORSDO>
F 7

$$$$
=
 OpenBabel11052409443D

 31 34  0  0  1  0  0  0  0  0999 V2000
  160.1290  208.1110  155.5550 C   0  0  0  0  0  2  0  0  0  0  0  0
  162.2630  206.8330  154.1620 C   0  0  0  0  0  2  0  0  0  0  0  0
  160.6730  208.5270  153.0950 C   0  0  0  0  0  0  0  0  0  0  0  0
  161.3540  207.2480  153.0860 N   0  0  0  0  0  0  0  0  0  0  0  0
  161.4410  209.8380  149.5780 C   0  0  2  0  0  3  0  0  0  0  0  0
  161.0830  208.8550  150.6440 C   0  0  0  0  0  0  0  0  0  0  0  0
  161.4690  207.6650  148.7090 C   0  0  0  0  0  3  0  0  0  0  0  0
  160.9290  206.2280  152.1740 C   0  0  0  0  0  0  0  0  0  0  0  0
  160.2840  204.1320  151.3300 N   0  0  0  0  0  0  0  0  0  0  0  0
  161.5390  209.0760  148.3320 N   0  0  0  0  0  0  0  0  0  0  0  0
  160.6770  204.8220  152.5600 C   0  0  0  0  0  3  0  0  0  0  0  0
  159.8280  210.5800  152.0160 C   0  0  0  0  0  1  0  0  0  0  0  0
  161.5440  207.7820  156.0600 C   0  0  1  0  0  3  0  0  0  0  0  0
  160.5360  209.2590  151.9660 C   0  0  0  0  0  0  0  0  0  0  0  0
  160.8390  206.3810  150.8770 C   0  0  0  0  0  0  0  0  0  0  0  0
  160.1520  209.1060  154.3990 C   0  0  0  0  0  2  0  0  0  0  0  0
  162.5160  207.8880  155.0490 O   0  0  0  0  0  0  0  0  0  0  0  0
  161.1350  207.6300  150.1520 C   0  0  0  0  0  0  0  0  0  0  0  0
  160.5200  205.0780  150.2340 C   0  0  1  0  0  3  0  0  0  0  0  0
  162.7940  210.4760  149.8660 C   0  0  0  0  0  2  0  0  0  0  0  0
  163.3720  212.3110  148.0840 N   0  0  0  0  0  0  0  0  0  0  0  0
  163.1180  211.5030  148.8710 C   0  0  0  0  0  0  0  0  0  0  0  0
  161.6960  204.5940  149.3920 C   0  0  0  0  0  2  0  0  0  0  0  0
  161.2140  203.8370  148.1630 C   0  0  2  0  0  3  0  0  0  0  0  0
  161.3300  202.3380  148.3760 C   0  0  0  0  0  1  0  0  0  0  0  0
  161.6290  203.7130  145.6190 C   0  0  0  0  0  1  0  0  0  0  0  0
  162.9360  205.0290  147.0580 O   0  0  0  0  0  0  0  0  0  0  0  0
  161.9990  204.2520  146.9570 C   0  0  0  0  0  0  0  0  0  0  0  0
  161.9250  208.6440  157.2600 C   0  0  0  0  0  2  0  0  0  0  0  0
  161.8790  211.1170  157.1310 C   0  0  0  0  0  1  0  0  0  0  0  0
  162.7080  209.8810  156.8520 C   0  0  0  0  0  2  0  0  0  0  0  0
  1 13  1  0  0  0  0
  2 17  1  0  0  0  0
  3 16  1  0  0  0  0
  4  3  1  0  0  0  0
  4  2  1  0  0  0  0
  5 20  1  1  0  0  0
  5  6  1  0  0  0  0
  6 14  1  0  0  0  0
  7 18  1  0  0  0  0
  8 11  1  0  0  0  0
  8  4  1  0  0  0  0
  9 11  2  0  0  0  0
 10  7  2  0  0  0  0
 10  5  1  0  0  0  0
 13 29  1  1  0  0  0
 14 12  1  0  0  0  0
 14  3  2  0  0  0  0
 15  8  2  0  0  0  0
 16  1  1  0  0  0  0
 17 13  1  0  0  0  0
 18  6  2  0  0  0  0
 18 15  1  0  0  0  0
 19 23  1  1  0  0  0
 19 15  1  0  0  0  0
 19  9  1  0  0  0  0
 21 22  3  0  0  0  0
 22 20  1  0  0  0  0
 24 25  1  1  0  0  0
 24 23  1  0  0  0  0
 26 28  1  0  0  0  0
 28 27  2  0  0  0  0
 28 24  1  0  0  0  0
 31 30  1  0  0  0  0
 31 29  1  0  0  0  0
M  END
>  <MODEL>
4

>  <REMARK>
 VINA RESULT:      -2.9      2.158      7.182
  Name = 
  7 active torsions:
  status: ('A' for Active; 'I' for Inactive)
    1  A    between atoms: C_2  and  C_13
    2  A    between atoms: C_7  and  C_21
    3  A    between atoms: C_7  and  C_22
    4  A    between atoms: C_9  and  C_13
    5  A    between atoms: C_16  and  C_30
    6  A    between atoms: C_21  and  C_31
    7  A    between atoms: C_24  and  C_30
                            x       y       z     vdW  Elec       q    Type
                         _______ _______ _______ _____ _____    ______ ____

>  <TORSDO>
F 7

$$$$
=
 OpenBabel11052409443D

 31 34  0  0  1  0  0  0  0  0999 V2000
  159.6510  211.0470  155.8140 C   0  0  0  0  0  2  0  0  0  0  0  0
  162.0220  209.5590  155.2730 C   0  0  0  0  0  2  0  0  0  0  0  0
  160.4500  210.4480  153.4640 C   0  0  0  0  0  0  0  0  0  0  0  0
  161.2180  209.3730  154.0580 N   0  0  0  0  0  0  0  0  0  0  0  0
  161.5310  210.2340  149.7950 C   0  0  2  0  0  3  0  0  0  0  0  0
  161.1220  209.7570  151.1500 C   0  0  0  0  0  0  0  0  0  0  0  0
  161.8190  207.9170  149.9520 C   0  0  0  0  0  3  0  0  0  0  0  0
  160.9790  208.0220  153.6470 C   0  0  0  0  0  0  0  0  0  0  0  0
  160.5920  205.7060  153.7420 N   0  0  0  0  0  0  0  0  0  0  0  0
  161.8300  209.0350  149.0100 N   0  0  0  0  0  0  0  0  0  0  0  0
  160.7870  206.8900  154.5800 C   0  0  0  0  0  3  0  0  0  0  0  0
  159.5910  211.7420  151.5450 C   0  0  0  0  0  1  0  0  0  0  0  0
  161.0160  211.1290  156.5170 C   0  0  1  0  0  3  0  0  0  0  0  0
  160.3950  210.6150  152.1240 C   0  0  0  0  0  0  0  0  0  0  0  0
  161.0320  207.6030  152.4070 C   0  0  0  0  0  0  0  0  0  0  0  0
  159.7380  211.4570  154.3480 C   0  0  0  0  0  2  0  0  0  0  0  0
  162.0910  210.9100  155.6360 O   0  0  0  0  0  0  0  0  0  0  0  0
  161.3200  208.4550  151.2390 C   0  0  0  0  0  0  0  0  0  0  0  0
  160.8870  206.1220  152.3670 C   0  0  1  0  0  3  0  0  0  0  0  0
  162.7900  211.0870  149.8810 C   0  0  0  0  0  2  0  0  0  0  0  0
  162.8610  212.8650  147.9550 N   0  0  0  0  0  0  0  0  0  0  0  0
  162.8320  212.0820  148.8050 C   0  0  0  0  0  0  0  0  0  0  0  0
  162.1860  205.4690  151.9060 C   0  0  0  0  0  2  0  0  0  0  0  0
  161.9180  204.3850  150.8730 C   0  0  2  0  0  3  0  0  0  0  0  0
  160.8940  204.8550  149.8550 C   0  0  0  0  0  1  0  0  0  0  0  0
  162.3130  201.9260  151.5480 C   0  0  0  0  0  1  0  0  0  0  0  0
  160.3520  203.0950  152.0950 O   0  0  0  0  0  0  0  0  0  0  0  0
  161.4430  203.1340  151.5460 C   0  0  0  0  0  0  0  0  0  0  0  0
  161.1890  212.4540  157.2540 C   0  0  0  0  0  2  0  0  0  0  0  0
  159.0260  213.6600  157.2500 C   0  0  0  0  0  1  0  0  0  0  0  0
  160.3950  213.5770  156.6070 C   0  0  0  0  0  2  0  0  0  0  0  0
  1 13  1  0  0  0  0
  2 17  1  0  0  0  0
  3  4  1  0  0  0  0
  3 16  1  0  0  0  0
  4  2  1  0  0  0  0
  5 20  1  1  0  0  0
  5  6  1  0  0  0  0
  6 18  2  0  0  0  0
  6 14  1  0  0  0  0
  7 18  1  0  0  0  0
  8  4  1  0  0  0  0
  8 11  1  0  0  0  0
  9 11  2  0  0  0  0
 10  5  1  0  0  0  0
 10  7  2  0  0  0  0
 12 14  1  0  0  0  0
 13 29  1  6  0  0  0
 14  3  2  0  0  0  0
 15  8  2  0  0  0  0
 16  1  1  0  0  0  0
 17 13  1  0  0  0  0
 18 15  1  0  0  0  0
 19 23  1  1  0  0  0
 19 15  1  0  0  0  0
 19  9  1  0  0  0  0
 21 22  3  0  0  0  0
 22 20  1  0  0  0  0
 24 25  1  6  0  0  0
 24 28  1  0  0  0  0
 24 23  1  0  0  0  0
 28 26  1  0  0  0  0
 28 27  2  0  0  0  0
 31 30  1  0  0  0  0
 31 29  1  0  0  0  0
M  END
>  <MODEL>
5

>  <REMARK>
 VINA RESULT:      -2.9      2.399      6.963
  Name = 
  7 active torsions:
  status: ('A' for Active; 'I' for Inactive)
    1  A    between atoms: C_2  and  C_13
    2  A    between atoms: C_7  and  C_21
    3  A    between atoms: C_7  and  C_22
    4  A    between atoms: C_9  and  C_13
    5  A    between atoms: C_16  and  C_30
    6  A    between atoms: C_21  and  C_31
    7  A    between atoms: C_24  and  C_30
                            x       y       z     vdW  Elec       q    Type
                         _______ _______ _______ _____ _____    ______ ____

>  <TORSDO>
F 7

$$$$
=
 OpenBabel11052409443D

 31 34  0  0  1  0  0  0  0  0999 V2000
  162.3150  213.1950  146.7390 C   0  0  0  0  0  2  0  0  0  0  0  0
  160.5130  211.0330  147.1960 C   0  0  0  0  0  2  0  0  0  0  0  0
  161.2660  212.6710  149.0080 C   0  0  0  0  0  0  0  0  0  0  0  0
  161.0470  211.3200  148.5340 N   0  0  0  0  0  0  0  0  0  0  0  0
  159.5430  212.5800  152.4290 C   0  0  2  0  0  3  0  0  0  0  0  0
  160.3730  212.1050  151.2810 C   0  0  0  0  0  0  0  0  0  0  0  0
  160.0800  210.3190  152.7050 C   0  0  0  0  0  3  0  0  0  0  0  0
  161.6230  210.2190  149.2450 C   0  0  0  0  0  0  0  0  0  0  0  0
  162.7660  208.2130  149.6870 N   0  0  0  0  0  0  0  0  0  0  0  0
  159.4940  211.4730  153.3850 N   0  0  0  0  0  0  0  0  0  0  0  0
  162.3790  209.1200  148.6040 C   0  0  0  0  0  3  0  0  0  0  0  0
  161.2070  214.4370  150.7320 C   0  0  0  0  0  1  0  0  0  0  0  0
  161.1880  212.6770  145.8300 C   0  0  1  0  0  3  0  0  0  0  0  0
  160.9690  213.0270  150.2780 C   0  0  0  0  0  0  0  0  0  0  0  0
  161.4430  209.9820  150.5210 C   0  0  0  0  0  0  0  0  0  0  0  0
  161.7780  213.7410  148.0590 C   0  0  0  0  0  2  0  0  0  0  0  0
  160.0810  212.2040  146.5590 O   0  0  0  0  0  0  0  0  0  0  0  0
  160.6410  210.8210  151.4300 C   0  0  0  0  0  0  0  0  0  0  0  0
  162.0570  208.6770  150.8850 C   0  0  1  0  0  3  0  0  0  0  0  0
  158.1230  212.8940  151.9740 C   0  0  0  0  0  2  0  0  0  0  0  0
  156.7170  213.9400  153.9240 N   0  0  0  0  0  0  0  0  0  0  0  0
  157.3360  213.4780  153.0630 C   0  0  0  0  0  0  0  0  0  0  0  0
  160.9800  207.6640  151.2600 C   0  0  0  0  0  2  0  0  0  0  0  0
  161.4170  206.2480  150.9170 C   0  0  2  0  0  3  0  0  0  0  0  0
  160.5330  205.6610  149.8300 C   0  0  0  0  0  1  0  0  0  0  0  0
  161.2110  206.0100  153.4780 C   0  0  0  0  0  1  0  0  0  0  0  0
  161.4830  204.1680  152.0480 O   0  0  0  0  0  0  0  0  0  0  0  0
  161.3800  205.3820  152.1380 C   0  0  0  0  0  0  0  0  0  0  0  0
  160.7510  213.7340  144.8200 C   0  0  0  0  0  2  0  0  0  0  0  0
  161.5310  212.3220  142.9410 C   0  0  0  0  0  1  0  0  0  0  0  0
  161.5960  213.7040  143.5560 C   0  0  0  0  0  2  0  0  0  0  0  0
  1 16  1  0  0  0  0
  2  4  1  0  0  0  0
  3 14  2  0  0  0  0
  4  3  1  0  0  0  0
  4  8  1  0  0  0  0
  5 20  1  6  0  0  0
  5 10  1  0  0  0  0
  6 18  2  0  0  0  0
  6  5  1  0  0  0  0
  7 10  2  0  0  0  0
  8 15  2  0  0  0  0
  9 19  1  0  0  0  0
 11  8  1  0  0  0  0
 11  9  2  0  0  0  0
 13 29  1  6  0  0  0
 13 17  1  0  0  0  0
 13  1  1  0  0  0  0
 14 12  1  0  0  0  0
 14  6  1  0  0  0  0
 15 19  1  0  0  0  0
 15 18  1  0  0  0  0
 16  3  1  0  0  0  0
 17  2  1  0  0  0  0
 18  7  1  0  0  0  0
 19 23  1  6  0  0  0
 20 22  1  0  0  0  0
 22 21  3  0  0  0  0
 24 25  1  6  0  0  0
 24 23  1  0  0  0  0
 24 28  1  0  0  0  0
 27 28  2  0  0  0  0
 28 26  1  0  0  0  0
 30 31  1  0  0  0  0
 31 29  1  0  0  0  0
M  END
>  <MODEL>
6

>  <REMARK>
 VINA RESULT:      -2.8      3.102      5.018
  Name = 
  7 active torsions:
  status: ('A' for Active; 'I' for Inactive)
    1  A    between atoms: C_2  and  C_13
    2  A    between atoms: C_7  and  C_21
    3  A    between atoms: C_7  and  C_22
    4  A    between atoms: C_9  and  C_13
    5  A    between atoms: C_16  and  C_30
    6  A    between atoms: C_21  and  C_31
    7  A    between atoms: C_24  and  C_30
                            x       y       z     vdW  Elec       q    Type
                         _______ _______ _______ _____ _____    ______ ____

>  <TORSDO>
F 7

$$$$
=
 OpenBabel11052409443D

 31 34  0  0  1  0  0  0  0  0999 V2000
  160.1930  212.9030  155.1790 C   0  0  0  0  0  2  0  0  0  0  0  0
  158.7870  211.4480  153.1700 C   0  0  0  0  0  2  0  0  0  0  0  0
  160.7120  210.4840  154.5480 C   0  0  0  0  0  0  0  0  0  0  0  0
  160.0660  210.7340  153.2760 N   0  0  0  0  0  0  0  0  0  0  0  0
  161.4800  206.7380  154.3020 C   0  0  2  0  0  3  0  0  0  0  0  0
  161.3480  208.1590  153.8590 C   0  0  0  0  0  0  0  0  0  0  0  0
  161.7610  206.8870  151.9830 C   0  0  0  0  0  3  0  0  0  0  0  0
  160.8030  210.5540  152.0610 C   0  0  0  0  0  0  0  0  0  0  0  0
  161.6900  210.9500  149.9210 N   0  0  0  0  0  0  0  0  0  0  0  0
  161.8830  205.9750  153.1190 N   0  0  0  0  0  0  0  0  0  0  0  0
  160.8430  211.5400  150.9590 C   0  0  0  0  0  3  0  0  0  0  0  0
  161.9710  209.0780  156.1400 C   0  0  0  0  0  1  0  0  0  0  0  0
  158.6880  212.9150  154.8620 C   0  0  1  0  0  3  0  0  0  0  0  0
  161.3150  209.3020  154.8090 C   0  0  0  0  0  0  0  0  0  0  0  0
  161.4200  209.4480  151.7230 C   0  0  0  0  0  0  0  0  0  0  0  0
  160.6670  211.5300  155.6470 C   0  0  0  0  0  2  0  0  0  0  0  0
  158.2170  211.6600  154.4320 O   0  0  0  0  0  0  0  0  0  0  0  0
  161.4750  208.2270  152.5460 C   0  0  0  0  0  0  0  0  0  0  0  0
  161.9440  209.5650  150.3350 C   0  0  1  0  0  3  0  0  0  0  0  0
  160.1420  206.2010  154.7950 C   0  0  0  0  0  2  0  0  0  0  0  0
  159.6700  206.9600  157.2600 N   0  0  0  0  0  0  0  0  0  0  0  0
  159.8760  206.6250  156.1720 C   0  0  0  0  0  0  0  0  0  0  0  0
  161.2050  208.6120  149.4020 C   0  0  0  0  0  2  0  0  0  0  0  0
  162.0300  207.3620  149.1300 C   0  0  2  0  0  3  0  0  0  0  0  0
  163.2240  207.6880  148.2490 C   0  0  0  0  0  1  0  0  0  0  0  0
  161.2060  204.9200  149.0190 C   0  0  0  0  0  1  0  0  0  0  0  0
  160.4680  206.5800  147.5320 O   0  0  0  0  0  0  0  0  0  0  0  0
  161.1820  206.3100  148.4870 C   0  0  0  0  0  0  0  0  0  0  0  0
  157.8690  213.4160  156.0470 C   0  0  0  0  0  2  0  0  0  0  0  0
  155.6240  213.6160  157.0750 C   0  0  0  0  0  1  0  0  0  0  0  0
  156.3730  213.3170  155.7940 C   0  0  0  0  0  2  0  0  0  0  0  0
  1 16  1  0  0  0  0
  2  4  1  0  0  0  0
  2 17  1  0  0  0  0
  3 14  2  0  0  0  0
  3 16  1  0  0  0  0
  4  3  1  0  0  0  0
  5 20  1  6  0  0  0
  6  5  1  0  0  0  0
  6 14  1  0  0  0  0
  7 18  1  0  0  0  0
  7 10  2  0  0  0  0
  8  4  1  0  0  0  0
  9 19  1  0  0  0  0
  9 11  2  0  0  0  0
 10  5  1  0  0  0  0
 11  8  1  0  0  0  0
 13  1  1  0  0  0  0
 13 29  1  1  0  0  0
 14 12  1  0  0  0  0
 15  8  2  0  0  0  0
 15 18  1  0  0  0  0
 17 13  1  0  0  0  0
 18  6  2  0  0  0  0
 19 23  1  6  0  0  0
 19 15  1  0  0  0  0
 20 22  1  0  0  0  0
 22 21  3  0  0  0  0
 24 25  1  6  0  0  0
 24 23  1  0  0  0  0
 27 28  2  0  0  0  0
 28 26  1  0  0  0  0
 28 24  1  0  0  0  0
 31 29  1  0  0  0  0
 31 30  1  0  0  0  0
M  END
>  <MODEL>
7

>  <REMARK>
 VINA RESULT:      -2.8      2.449      7.878
  Name = 
  7 active torsions:
  status: ('A' for Active; 'I' for Inactive)
    1  A    between atoms: C_2  and  C_13
    2  A    between atoms: C_7  and  C_21
    3  A    between atoms: C_7  and  C_22
    4  A    between atoms: C_9  and  C_13
    5  A    between atoms: C_16  and  C_30
    6  A    between atoms: C_21  and  C_31
    7  A    between atoms: C_24  and  C_30
                            x       y       z     vdW  Elec       q    Type
                         _______ _______ _______ _____ _____    ______ ____

>  <TORSDO>
F 7

$$$$
=
 OpenBabel11052409443D

 31 34  0  0  1  0  0  0  0  0999 V2000
  163.2550  211.7880  148.0770 C   0  0  0  0  0  2  0  0  0  0  0  0
  160.8330  210.2900  147.9260 C   0  0  0  0  0  2  0  0  0  0  0  0
  162.3680  210.3220  149.9690 C   0  0  0  0  0  0  0  0  0  0  0  0
  161.5940  209.6040  148.9780 N   0  0  0  0  0  0  0  0  0  0  0  0
  161.1680  208.6870  153.2200 C   0  0  2  0  0  3  0  0  0  0  0  0
  161.6080  208.7820  151.7960 C   0  0  0  0  0  0  0  0  0  0  0  0
  160.8300  206.6400  152.1360 C   0  0  0  0  0  3  0  0  0  0  0  0
  161.7870  208.1940  148.8140 C   0  0  0  0  0  0  0  0  0  0  0  0
  162.1220  206.1000  147.8010 N   0  0  0  0  0  0  0  0  0  0  0  0
  160.8150  207.2850  153.4480 N   0  0  0  0  0  0  0  0  0  0  0  0
  161.9820  207.5280  147.5080 C   0  0  0  0  0  3  0  0  0  0  0  0
  163.1970  210.7040  152.2640 C   0  0  0  0  0  1  0  0  0  0  0  0
  161.9140  212.1920  147.4400 C   0  0  1  0  0  3  0  0  0  0  0  0
  162.3850  209.9330  151.2650 C   0  0  0  0  0  0  0  0  0  0  0  0
  161.6860  207.3130  149.7790 C   0  0  0  0  0  0  0  0  0  0  0  0
  163.1310  211.5760  149.5820 C   0  0  0  0  0  2  0  0  0  0  0  0
  160.8080  211.6750  148.1380 O   0  0  0  0  0  0  0  0  0  0  0  0
  161.3810  207.6330  151.1860 C   0  0  0  0  0  0  0  0  0  0  0  0
  161.7940  205.9380  149.2220 C   0  0  1  0  0  3  0  0  0  0  0  0
  159.9320  209.5450  153.4610 C   0  0  0  0  0  2  0  0  0  0  0  0
  160.4690  211.5490  155.0650 N   0  0  0  0  0  0  0  0  0  0  0  0
  160.2320  210.6660  154.3560 C   0  0  0  0  0  0  0  0  0  0  0  0
  160.4660  205.2000  149.3550 C   0  0  0  0  0  2  0  0  0  0  0  0
  160.6560  203.8480  150.0270 C   0  0  2  0  0  3  0  0  0  0  0  0
  161.8510  203.8780  150.9640 C   0  0  0  0  0  1  0  0  0  0  0  0
  160.4450  201.3750  149.3220 C   0  0  0  0  0  1  0  0  0  0  0  0
  161.2840  203.0380  147.8930 O   0  0  0  0  0  0  0  0  0  0  0  0
  160.8310  202.7760  148.9970 C   0  0  0  0  0  0  0  0  0  0  0  0
  161.7960  213.7070  147.2970 C   0  0  0  0  0  2  0  0  0  0  0  0
  162.3180  213.3280  144.9050 C   0  0  0  0  0  1  0  0  0  0  0  0
  161.4680  214.1250  145.8720 C   0  0  0  0  0  2  0  0  0  0  0  0
  1 16  1  0  0  0  0
  2 17  1  0  0  0  0
  2  4  1  0  0  0  0
  3 14  2  0  0  0  0
  4  3  1  0  0  0  0
  5 10  1  0  0  0  0
  5 20  1  6  0  0  0
  6  5  1  0  0  0  0
  7 10  2  0  0  0  0
  8  4  1  0  0  0  0
  8 15  2  0  0  0  0
  9 19  1  0  0  0  0
 11  9  2  0  0  0  0
 11  8  1  0  0  0  0
 13 29  1  1  0  0  0
 13  1  1  0  0  0  0
 13 17  1  0  0  0  0
 14  6  1  0  0  0  0
 14 12  1  0  0  0  0
 15 18  1  0  0  0  0
 16  3  1  0  0  0  0
 18  6  2  0  0  0  0
 18  7  1  0  0  0  0
 19 23  1  6  0  0  0
 19 15  1  0  0  0  0
 20 22  1  0  0  0  0
 22 21  3  0  0  0  0
 23 24  1  0  0  0  0
 24 25  1  1  0  0  0
 27 28  2  0  0  0  0
 28 26  1  0  0  0  0
 28 24  1  0  0  0  0
 30 31  1  0  0  0  0
 31 29  1  0  0  0  0
M  END
>  <MODEL>
8

>  <REMARK>
 VINA RESULT:      -2.7      2.916      5.822
  Name = 
  7 active torsions:
  status: ('A' for Active; 'I' for Inactive)
    1  A    between atoms: C_2  and  C_13
    2  A    between atoms: C_7  and  C_21
    3  A    between atoms: C_7  and  C_22
    4  A    between atoms: C_9  and  C_13
    5  A    between atoms: C_16  and  C_30
    6  A    between atoms: C_21  and  C_31
    7  A    between atoms: C_24  and  C_30
                            x       y       z     vdW  Elec       q    Type
                         _______ _______ _______ _____ _____    ______ ____

>  <TORSDO>
F 7

$$$$
