=
 OpenBabel11052410213D

 55 59  0  0  1  0  0  0  0  0999 V2000
  161.2490  212.0130  149.7370 C   0  0  0  0  0  3  0  0  0  0  0  0
  160.8370  212.6110  148.5410 C   0  0  0  0  0  3  0  0  0  0  0  0
  160.8750  211.8870  147.3420 C   0  0  0  0  0  0  0  0  0  0  0  0
  161.7440  209.9670  148.5730 C   0  0  0  0  0  3  0  0  0  0  0  0
  161.3370  210.5640  147.3700 C   0  0  0  0  0  3  0  0  0  0  0  0
  161.6830  210.6790  149.7680 C   0  0  0  0  0  0  0  0  0  0  0  0
  161.5810  213.0650  145.2860 C   0  0  0  0  0  3  0  0  0  0  0  0
  159.0510  214.1450  143.8900 C   0  0  0  0  0  0  0  0  0  0  0  0
  162.9100  213.8240  142.0090 C   0  0  0  0  0  2  0  0  0  0  0  0
  162.7440  214.0400  143.4380 N   0  0  0  0  0  0  0  0  0  0  0  0
  160.4230  212.5160  146.0510 C   0  0  2  0  0  3  0  0  0  0  0  0
  163.9120  214.4250  144.2200 C   0  0  0  0  0  1  0  0  0  0  0  0
  161.6480  213.9900  141.2880 N   0  0  0  0  0  0  0  0  0  0  0  0
  160.4430  213.9290  141.8050 C   0  0  0  0  0  0  0  0  0  0  0  0
  159.4350  213.5890  146.3260 C   0  0  0  0  0  3  0  0  0  0  0  0
  157.9340  214.4510  143.1140 O   0  0  0  0  0  1  0  0  0  0  0  0
  160.2560  213.8340  143.2980 C   0  0  0  0  0  0  0  0  0  0  0  0
  159.3530  214.1280  140.9040 N   0  0  0  0  0  2  0  0  0  0  0  0
  158.8280  214.2800  145.3520 C   0  0  0  0  0  3  0  0  0  0  0  0
  161.5150  213.6410  144.0740 C   0  0  0  0  0  0  0  0  0  0  0  0
  160.1850  210.7000  138.4570 C   0  0  0  0  0  0  0  0  0  0  0  0
  156.9190  209.0110  138.2320 C   0  0  0  0  0  1  0  0  0  0  0  0
  162.6400  211.1820  138.7800 C   0  0  0  0  0  1  0  0  0  0  0  0
  157.4440  211.3000  139.2610 C   0  0  0  0  0  0  0  0  0  0  0  0
  158.4350  212.3390  139.5460 C   0  0  0  0  0  0  0  0  0  0  0  0
  159.8320  212.4750  138.3960 S   0  0  0  0  0  0  0  0  0  0  0  0
  159.2050  209.8440  138.4000 N   0  0  0  0  0  0  0  0  0  0  0  0
  158.3650  213.1140  140.6390 C   0  0  0  0  0  3  0  0  0  0  0  0
  157.8190  210.2530  138.2290 C   0  0  1  0  0  3  0  0  0  0  0  0
  156.1800  211.4100  139.7150 C   0  0  0  0  0  2  0  0  0  0  0  0
  161.8750  208.8850  138.1900 C   0  0  0  0  0  1  0  0  0  0  0  0
  161.5440  210.2360  138.6270 N   0  0  0  0  0  0  0  0  0  0  0  0
  161.8400  208.6270  151.3260 C   0  0  0  0  0  0  0  0  0  0  0  0
  161.9470  210.8750  152.1370 O   0  0  0  0  0  0  0  0  0  0  0  0
  161.8170  210.0440  153.2580 C   0  0  2  0  0  3  0  0  0  0  0  0
  162.8020  207.7730  150.8060 F   0  0  0  0  0  0  0  0  0  0  0  0
  161.9030  208.5810  152.8340 C   0  0  1  0  0  3  0  0  0  0  0  0
  160.9050  207.7710  153.3960 O   0  0  0  0  0  1  0  0  0  0  0  0
  162.2140  210.0710  151.0250 C   0  0  2  0  0  3  0  0  0  0  0  0
  160.5690  208.2990  150.8420 F   0  0  0  0  0  0  0  0  0  0  0  0
  160.6150  210.4740  154.1300 C   0  0  2  0  0  3  0  0  0  0  0  0
  159.6340  211.4890  153.5050 C   0  0  0  0  0  2  0  0  0  0  0  0
  158.6930  210.8570  152.6770 O   0  0  0  0  0  1  0  0  0  0  0  0
  160.9980  210.7250  155.6060 C   0  0  2  0  0  3  0  0  0  0  0  0
  162.5820  209.0220  156.5320 O   0  0  0  0  0  0  0  0  0  0  0  0
  160.3250  208.6350  156.5750 O   0  0  0  0  0  1  0  0  0  0  0  0
  161.2730  209.4050  156.2690 C   0  0  0  0  0  0  0  0  0  0  0  0
  159.9790  213.0380  156.0180 C   0  0  0  0  0  1  0  0  0  0  0  0
  159.9580  211.5660  156.3940 C   0  0  1  0  0  3  0  0  0  0  0  0
  158.5430  211.0410  156.2070 C   0  0  0  0  0  2  0  0  0  0  0  0
  157.5420  212.2030  156.1700 C   0  0  0  0  0  2  0  0  0  0  0  0
  155.8440  212.3750  154.4940 F   0  0  0  0  0  0  0  0  0  0  0  0
  156.1650  211.7350  155.6810 C   0  0  0  0  0  0  0  0  0  0  0  0
  155.2080  212.0520  156.6300 F   0  0  0  0  0  0  0  0  0  0  0  0
  156.1800  210.3620  155.4710 F   0  0  0  0  0  0  0  0  0  0  0  0
  1  6  1  0  0  0  0
  2  1  2  0  0  0  0
  3  5  2  0  0  0  0
  3  2  1  0  0  0  0
  4  6  2  0  0  0  0
  5  4  1  0  0  0  0
  7 11  1  0  0  0  0
  8 19  1  0  0  0  0
  9 10  1  0  0  0  0
 10 20  1  0  0  0  0
 10 12  1  0  0  0  0
 11 15  1  0  0  0  0
 11  3  1  1  0  0  0
 13 14  2  0  0  0  0
 13  9  1  0  0  0  0
 14 17  1  0  0  0  0
 16  8  1  0  0  0  0
 17  8  2  0  0  0  0
 17 20  1  0  0  0  0
 18 14  1  0  0  0  0
 19 15  2  0  0  0  0
 20  7  2  0  0  0  0
 21 32  1  0  0  0  0
 24 25  1  0  0  0  0
 24 30  2  0  0  0  0
 25 28  2  0  0  0  0
 26 21  1  0  0  0  0
 26 25  1  0  0  0  0
 27 21  2  0  0  0  0
 28 18  1  0  0  0  0
 29 22  1  1  0  0  0
 29 27  1  0  0  0  0
 29 24  1  0  0  0  0
 31 32  1  0  0  0  0
 32 23  1  0  0  0  0
 33 37  1  0  0  0  0
 34 35  1  0  0  0  0
 35 41  1  6  0  0  0
 36 33  1  0  0  0  0
 37 35  1  0  0  0  0
 37 38  1  1  0  0  0
 39  6  1  6  0  0  0
 39 33  1  0  0  0  0
 39 34  1  0  0  0  0
 40 33  1  0  0  0  0
 41 42  1  6  0  0  0
 41 44  1  0  0  0  0
 43 42  1  0  0  0  0
 44 47  1  1  0  0  0
 44 49  1  0  0  0  0
 47 45  2  0  0  0  0
 47 46  1  0  0  0  0
 49 48  1  6  0  0  0
 50 49  1  0  0  0  0
 51 50  1  0  0  0  0
 52 53  1  0  0  0  0
 53 51  1  0  0  0  0
 53 54  1  0  0  0  0
 55 53  1  0  0  0  0
M  END
>  <MODEL>
1

>  <REMARK>
 VINA RESULT:      -4.8      0.000      0.000
  Name = 
  11 active torsions:
  status: ('A' for Active; 'I' for Inactive)
    1  A    between atoms: C_8  and  C_35
    2  A    between atoms: C_13  and  C_34
    3  A    between atoms: C_16  and  C_34
    4  A    between atoms: C_23  and  C_34
    5  A    between atoms: C_23  and  C_50
    6  A    between atoms: C_23  and  C_53
    7  A    between atoms: C_28  and  N_44
    8  A    between atoms: C_37  and  C_39
    9  A    between atoms: C_37  and  C_47
   10  A    between atoms: C_41  and  C_46
   11  A    between atoms: C_47  and  C_53
                            x       y       z     vdW  Elec       q    Type
                         _______ _______ _______ _____ _____    ______ ____

>  <TORSDO>
F 11

$$$$
=
 OpenBabel11052410213D

 55 59  0  0  1  0  0  0  0  0999 V2000
  160.3050  212.0240  149.3650 C   0  0  0  0  0  3  0  0  0  0  0  0
  159.9300  212.5220  148.1120 C   0  0  0  0  0  3  0  0  0  0  0  0
  160.6920  212.2190  146.9770 C   0  0  0  0  0  0  0  0  0  0  0  0
  162.1990  210.9130  148.3830 C   0  0  0  0  0  3  0  0  0  0  0  0
  161.8310  211.4150  147.1260 C   0  0  0  0  0  3  0  0  0  0  0  0
  161.4280  211.1950  149.5080 C   0  0  0  0  0  0  0  0  0  0  0  0
  161.4820  213.2110  144.8530 C   0  0  0  0  0  3  0  0  0  0  0  0
  159.0150  214.1910  143.2830 C   0  0  0  0  0  0  0  0  0  0  0  0
  162.9310  213.6750  141.5720 C   0  0  0  0  0  2  0  0  0  0  0  0
  162.7190  214.0130  142.9710 N   0  0  0  0  0  0  0  0  0  0  0  0
  160.2920  212.7400  145.6220 C   0  0  2  0  0  3  0  0  0  0  0  0
  163.8650  214.4530  143.7580 C   0  0  0  0  0  1  0  0  0  0  0  0
  161.6960  213.7900  140.7960 N   0  0  0  0  0  0  0  0  0  0  0  0
  160.4740  213.7850  141.2740 C   0  0  0  0  0  0  0  0  0  0  0  0
  159.3080  213.8420  145.7700 C   0  0  0  0  0  3  0  0  0  0  0  0
  157.9290  214.4410  142.4460 O   0  0  0  0  0  1  0  0  0  0  0  0
  160.2350  213.8190  142.7620 C   0  0  0  0  0  0  0  0  0  0  0  0
  159.4180  213.9170  140.3220 N   0  0  0  0  0  2  0  0  0  0  0  0
  158.7430  214.4530  144.7200 C   0  0  0  0  0  3  0  0  0  0  0  0
  161.4640  213.6820  143.5960 C   0  0  0  0  0  0  0  0  0  0  0  0
  160.1100  210.5570  137.7420 C   0  0  0  0  0  0  0  0  0  0  0  0
  156.8600  208.8210  137.7260 C   0  0  0  0  0  1  0  0  0  0  0  0
  162.5740  211.0700  137.8890 C   0  0  0  0  0  1  0  0  0  0  0  0
  157.4300  211.0950  138.7640 C   0  0  0  0  0  0  0  0  0  0  0  0
  158.4250  212.1430  138.9970 C   0  0  0  0  0  0  0  0  0  0  0  0
  159.7280  212.3260  137.7480 S   0  0  0  0  0  0  0  0  0  0  0  0
  159.1400  209.6860  137.7400 N   0  0  0  0  0  0  0  0  0  0  0  0
  158.4270  212.8930  140.1090 C   0  0  0  0  0  3  0  0  0  0  0  0
  157.7390  210.0760  137.6840 C   0  0  1  0  0  3  0  0  0  0  0  0
  156.2020  211.1750  139.3150 C   0  0  0  0  0  2  0  0  0  0  0  0
  161.8000  208.7740  137.3060 C   0  0  0  0  0  1  0  0  0  0  0  0
  161.4840  210.1110  137.7970 N   0  0  0  0  0  0  0  0  0  0  0  0
  161.9080  209.2460  151.1300 C   0  0  0  0  0  0  0  0  0  0  0  0
  161.1970  211.4040  151.8790 O   0  0  0  0  0  0  0  0  0  0  0  0
  161.1220  210.5450  152.9840 C   0  0  2  0  0  3  0  0  0  0  0  0
  163.1570  208.7290  150.8140 F   0  0  0  0  0  0  0  0  0  0  0  0
  161.7130  209.1840  152.6260 C   0  0  1  0  0  3  0  0  0  0  0  0
  160.9180  208.1010  153.0270 O   0  0  0  0  0  1  0  0  0  0  0  0
  161.8830  210.7430  150.8570 C   0  0  2  0  0  3  0  0  0  0  0  0
  160.8990  208.5660  150.4400 F   0  0  0  0  0  0  0  0  0  0  0  0
  159.7130  210.5760  153.6170 C   0  0  2  0  0  3  0  0  0  0  0  0
  158.5840  211.1930  152.7630 C   0  0  0  0  0  2  0  0  0  0  0  0
  157.5110  211.6250  153.5580 O   0  0  0  0  0  1  0  0  0  0  0  0
  159.7280  210.9790  155.1090 C   0  0  2  0  0  3  0  0  0  0  0  0
  158.5620  212.8980  156.2160 O   0  0  0  0  0  1  0  0  0  0  0  0
  159.9180  213.2670  154.4070 O   0  0  0  0  0  0  0  0  0  0  0  0
  159.4180  212.4450  155.2200 C   0  0  0  0  0  0  0  0  0  0  0  0
  161.7690  211.8140  156.4130 C   0  0  0  0  0  1  0  0  0  0  0  0
  161.0390  210.6040  155.8510 C   0  0  1  0  0  3  0  0  0  0  0  0
  160.7890  209.6230  156.9860 C   0  0  0  0  0  2  0  0  0  0  0  0
  161.3690  208.2460  156.6390 C   0  0  0  0  0  2  0  0  0  0  0  0
  159.0420  207.9120  156.1980 F   0  0  0  0  0  0  0  0  0  0  0  0
  160.2580  207.2510  156.2770 C   0  0  0  0  0  0  0  0  0  0  0  0
  160.1730  206.2790  157.2590 F   0  0  0  0  0  0  0  0  0  0  0  0
  160.5360  206.6570  155.0520 F   0  0  0  0  0  0  0  0  0  0  0  0
  1  6  1  0  0  0  0
  2  1  2  0  0  0  0
  3  5  2  0  0  0  0
  3  2  1  0  0  0  0
  4  6  2  0  0  0  0
  5  4  1  0  0  0  0
  7 11  1  0  0  0  0
  8 19  1  0  0  0  0
  9 10  1  0  0  0  0
 10 20  1  0  0  0  0
 10 12  1  0  0  0  0
 11 15  1  0  0  0  0
 11  3  1  1  0  0  0
 13 14  2  0  0  0  0
 13  9  1  0  0  0  0
 14 17  1  0  0  0  0
 16  8  1  0  0  0  0
 17  8  2  0  0  0  0
 17 20  1  0  0  0  0
 18 14  1  0  0  0  0
 19 15  2  0  0  0  0
 20  7  2  0  0  0  0
 21 26  1  0  0  0  0
 21 32  1  0  0  0  0
 24 25  1  0  0  0  0
 24 30  2  0  0  0  0
 25 28  2  0  0  0  0
 26 25  1  0  0  0  0
 27 21  2  0  0  0  0
 28 18  1  0  0  0  0
 29 22  1  1  0  0  0
 29 27  1  0  0  0  0
 29 24  1  0  0  0  0
 31 32  1  0  0  0  0
 32 23  1  0  0  0  0
 33 37  1  0  0  0  0
 34 35  1  0  0  0  0
 35 41  1  6  0  0  0
 36 33  1  0  0  0  0
 37 35  1  0  0  0  0
 37 38  1  6  0  0  0
 39  6  1  6  0  0  0
 39 33  1  0  0  0  0
 39 34  1  0  0  0  0
 40 33  1  0  0  0  0
 41 42  1  6  0  0  0
 41 44  1  0  0  0  0
 42 43  1  0  0  0  0
 44 47  1  6  0  0  0
 44 49  1  0  0  0  0
 46 47  2  0  0  0  0
 47 45  1  0  0  0  0
 49 48  1  1  0  0  0
 49 50  1  0  0  0  0
 51 50  1  0  0  0  0
 52 53  1  0  0  0  0
 53 51  1  0  0  0  0
 53 54  1  0  0  0  0
 55 53  1  0  0  0  0
M  END
>  <MODEL>
2

>  <REMARK>
 VINA RESULT:      -4.0      1.681      2.356
  Name = 
  11 active torsions:
  status: ('A' for Active; 'I' for Inactive)
    1  A    between atoms: C_8  and  C_35
    2  A    between atoms: C_13  and  C_34
    3  A    between atoms: C_16  and  C_34
    4  A    between atoms: C_23  and  C_34
    5  A    between atoms: C_23  and  C_50
    6  A    between atoms: C_23  and  C_53
    7  A    between atoms: C_28  and  N_44
    8  A    between atoms: C_37  and  C_39
    9  A    between atoms: C_37  and  C_47
   10  A    between atoms: C_41  and  C_46
   11  A    between atoms: C_47  and  C_53
                            x       y       z     vdW  Elec       q    Type
                         _______ _______ _______ _____ _____    ______ ____

>  <TORSDO>
F 11

$$$$
=
 OpenBabel11052410213D

 55 59  0  0  1  0  0  0  0  0999 V2000
  160.6530  203.2970  151.8350 C   0  0  0  0  0  3  0  0  0  0  0  0
  160.7750  204.5140  152.5140 C   0  0  0  0  0  3  0  0  0  0  0  0
  160.5030  205.7200  151.8530 C   0  0  0  0  0  0  0  0  0  0  0  0
  159.9860  204.4520  149.8330 C   0  0  0  0  0  3  0  0  0  0  0  0
  160.1130  205.6760  150.5080 C   0  0  0  0  0  3  0  0  0  0  0  0
  160.2340  203.2530  150.4970 C   0  0  0  0  0  0  0  0  0  0  0  0
  161.0860  208.1150  151.6580 C   0  0  0  0  0  3  0  0  0  0  0  0
  161.2550  209.2910  154.5050 C   0  0  0  0  0  0  0  0  0  0  0  0
  160.9990  211.6540  150.9150 C   0  0  0  0  0  2  0  0  0  0  0  0
  161.6170  210.3370  150.9510 N   0  0  0  0  0  0  0  0  0  0  0  0
  160.6200  207.0350  152.5770 C   0  0  2  0  0  3  0  0  0  0  0  0
  162.4090  209.9120  149.8030 C   0  0  0  0  0  1  0  0  0  0  0  0
  160.7270  212.1590  152.2610 N   0  0  0  0  0  0  0  0  0  0  0  0
  160.6340  211.4420  153.3560 C   0  0  0  0  0  0  0  0  0  0  0  0
  161.5500  206.9040  153.7260 C   0  0  0  0  0  3  0  0  0  0  0  0
  161.1210  209.9120  155.7450 O   0  0  0  0  0  1  0  0  0  0  0  0
  160.9760  209.9740  153.3410 C   0  0  0  0  0  0  0  0  0  0  0  0
  160.3650  212.1560  154.5630 N   0  0  0  0  0  2  0  0  0  0  0  0
  161.7980  207.9090  154.5750 C   0  0  0  0  0  3  0  0  0  0  0  0
  161.2400  209.4080  151.9860 C   0  0  0  0  0  0  0  0  0  0  0  0
  156.6250  214.0170  153.5760 C   0  0  0  0  0  0  0  0  0  0  0  0
  154.4320  213.0380  156.3700 C   0  0  0  0  0  1  0  0  0  0  0  0
  157.5570  214.4530  151.2740 C   0  0  0  0  0  1  0  0  0  0  0  0
  156.9560  212.6520  156.1340 C   0  0  0  0  0  0  0  0  0  0  0  0
  158.1770  212.8470  155.3520 C   0  0  0  0  0  0  0  0  0  0  0  0
  158.2510  214.3280  154.3070 S   0  0  0  0  0  0  0  0  0  0  0  0
  155.6350  213.6450  154.3370 N   0  0  0  0  0  0  0  0  0  0  0  0
  159.1730  211.9480  155.3440 C   0  0  0  0  0  3  0  0  0  0  0  0
  155.7630  213.5200  155.7810 C   0  0  1  0  0  3  0  0  0  0  0  0
  156.9690  211.9110  157.2610 C   0  0  0  0  0  2  0  0  0  0  0  0
  155.0930  214.3590  151.6370 C   0  0  0  0  0  1  0  0  0  0  0  0
  156.4390  214.1240  152.1460 N   0  0  0  0  0  0  0  0  0  0  0  0
  161.5150  201.2400  149.5130 C   0  0  0  0  0  0  0  0  0  0  0  0
  159.5050  202.0930  148.5370 O   0  0  0  0  0  0  0  0  0  0  0  0
  160.0460  201.1810  147.6210 C   0  0  2  0  0  3  0  0  0  0  0  0
  161.7470  200.3400  150.5440 F   0  0  0  0  0  0  0  0  0  0  0  0
  161.2480  200.4740  148.2400 C   0  0  1  0  0  3  0  0  0  0  0  0
  162.3650  200.4150  147.3950 O   0  0  0  0  0  1  0  0  0  0  0  0
  160.1960  201.9630  149.7440 C   0  0  2  0  0  3  0  0  0  0  0  0
  162.5880  202.1280  149.3770 F   0  0  0  0  0  0  0  0  0  0  0  0
  160.2290  201.8330  146.2310 C   0  0  2  0  0  3  0  0  0  0  0  0
  160.9730  200.9960  145.1670 C   0  0  0  0  0  2  0  0  0  0  0  0
  160.3660  199.7450  144.9760 O   0  0  0  0  0  1  0  0  0  0  0  0
  160.6190  203.3260  146.3090 C   0  0  2  0  0  3  0  0  0  0  0  0
  159.3980  203.3180  144.1240 O   0  0  0  0  0  0  0  0  0  0  0  0
  160.2470  205.2750  144.9580 O   0  0  0  0  0  1  0  0  0  0  0  0
  160.0770  204.0350  145.1010 C   0  0  0  0  0  0  0  0  0  0  0  0
  162.8320  204.0020  145.2100 C   0  0  0  0  0  1  0  0  0  0  0  0
  162.1400  203.5740  146.4950 C   0  0  1  0  0  3  0  0  0  0  0  0
  162.4200  204.6190  147.5640 C   0  0  0  0  0  2  0  0  0  0  0  0
  162.3360  206.0300  146.9660 C   0  0  0  0  0  2  0  0  0  0  0  0
  163.0970  208.1340  147.8120 F   0  0  0  0  0  0  0  0  0  0  0  0
  162.2180  207.0920  148.0670 C   0  0  0  0  0  0  0  0  0  0  0  0
  162.5410  206.5270  149.2890 F   0  0  0  0  0  0  0  0  0  0  0  0
  160.9210  207.5890  148.1090 F   0  0  0  0  0  0  0  0  0  0  0  0
  1  2  1  0  0  0  0
  3  2  2  0  0  0  0
  4  6  1  0  0  0  0
  4  5  2  0  0  0  0
  5  3  1  0  0  0  0
  6  1  2  0  0  0  0
  7 20  2  0  0  0  0
  7 11  1  0  0  0  0
  8 19  1  0  0  0  0
  8 16  1  0  0  0  0
  9 10  1  0  0  0  0
  9 13  1  0  0  0  0
 10 20  1  0  0  0  0
 11  3  1  6  0  0  0
 11 15  1  0  0  0  0
 12 10  1  0  0  0  0
 13 14  2  0  0  0  0
 14 18  1  0  0  0  0
 15 19  2  0  0  0  0
 17 14  1  0  0  0  0
 17  8  2  0  0  0  0
 18 28  1  0  0  0  0
 20 17  1  0  0  0  0
 21 26  1  0  0  0  0
 21 27  2  0  0  0  0
 23 32  1  0  0  0  0
 24 30  2  0  0  0  0
 25 24  1  0  0  0  0
 26 25  1  0  0  0  0
 27 29  1  0  0  0  0
 28 25  2  0  0  0  0
 29 24  1  0  0  0  0
 29 22  1  6  0  0  0
 31 32  1  0  0  0  0
 32 21  1  0  0  0  0
 33 39  1  0  0  0  0
 33 36  1  0  0  0  0
 34 39  1  0  0  0  0
 35 41  1  6  0  0  0
 35 37  1  0  0  0  0
 35 34  1  0  0  0  0
 37 38  1  6  0  0  0
 37 33  1  0  0  0  0
 39  6  1  6  0  0  0
 40 33  1  0  0  0  0
 41 42  1  1  0  0  0
 41 44  1  0  0  0  0
 43 42  1  0  0  0  0
 44 47  1  6  0  0  0
 44 49  1  0  0  0  0
 45 47  2  0  0  0  0
 46 47  1  0  0  0  0
 49 48  1  6  0  0  0
 49 50  1  0  0  0  0
 51 50  1  0  0  0  0
 51 53  1  0  0  0  0
 52 53  1  0  0  0  0
 53 55  1  0  0  0  0
 53 54  1  0  0  0  0
M  END
>  <MODEL>
3

>  <REMARK>
 VINA RESULT:      -3.7      7.015     12.055
  Name = 
  11 active torsions:
  status: ('A' for Active; 'I' for Inactive)
    1  A    between atoms: C_8  and  C_35
    2  A    between atoms: C_13  and  C_34
    3  A    between atoms: C_16  and  C_34
    4  A    between atoms: C_23  and  C_34
    5  A    between atoms: C_23  and  C_50
    6  A    between atoms: C_23  and  C_53
    7  A    between atoms: C_28  and  N_44
    8  A    between atoms: C_37  and  C_39
    9  A    between atoms: C_37  and  C_47
   10  A    between atoms: C_41  and  C_46
   11  A    between atoms: C_47  and  C_53
                            x       y       z     vdW  Elec       q    Type
                         _______ _______ _______ _____ _____    ______ ____

>  <TORSDO>
F 11

$$$$
=
 OpenBabel11052410213D

 55 59  0  0  1  0  0  0  0  0999 V2000
  161.2930  211.8930  145.7970 C   0  0  0  0  0  3  0  0  0  0  0  0
  160.8740  211.8830  144.4630 C   0  0  0  0  0  3  0  0  0  0  0  0
  160.9100  213.0610  143.7040 C   0  0  0  0  0  0  0  0  0  0  0  0
  161.7920  214.2420  145.6500 C   0  0  0  0  0  3  0  0  0  0  0  0
  161.3680  214.2380  144.3120 C   0  0  0  0  0  3  0  0  0  0  0  0
  161.7780  213.0660  146.3960 C   0  0  0  0  0  0  0  0  0  0  0  0
  160.8000  211.7610  141.6040 C   0  0  0  0  0  3  0  0  0  0  0  0
  159.9730  213.6820  139.3360 C   0  0  0  0  0  0  0  0  0  0  0  0
  159.8570  209.3890  139.0420 C   0  0  0  0  0  2  0  0  0  0  0  0
  160.8060  210.0960  139.8870 N   0  0  0  0  0  0  0  0  0  0  0  0
  160.4730  213.0590  142.2640 C   0  0  2  0  0  3  0  0  0  0  0  0
  161.9250  209.3490  140.4480 C   0  0  0  0  0  1  0  0  0  0  0  0
  159.1540  210.3000  138.1390 N   0  0  0  0  0  0  0  0  0  0  0  0
  159.0290  211.5980  138.2880 C   0  0  0  0  0  0  0  0  0  0  0  0
  161.1170  214.1810  141.5340 C   0  0  0  0  0  3  0  0  0  0  0  0
  159.3890  214.4530  138.3340 O   0  0  0  0  0  1  0  0  0  0  0  0
  159.7780  212.3180  139.3800 C   0  0  0  0  0  0  0  0  0  0  0  0
  158.2990  212.2870  137.2720 N   0  0  0  0  0  2  0  0  0  0  0  0
  160.8640  214.4470  140.2460 C   0  0  0  0  0  3  0  0  0  0  0  0
  160.4930  211.4270  140.3390 C   0  0  0  0  0  0  0  0  0  0  0  0
  154.6940  210.2820  138.4570 C   0  0  0  0  0  0  0  0  0  0  0  0
  152.2070  212.9980  138.5460 C   0  0  0  0  0  1  0  0  0  0  0  0
  156.1120  208.2830  139.0520 C   0  0  0  0  0  1  0  0  0  0  0  0
  154.6250  213.1000  137.7020 C   0  0  0  0  0  0  0  0  0  0  0  0
  155.8810  212.3970  137.4330 C   0  0  0  0  0  0  0  0  0  0  0  0
  155.7590  210.6300  137.0360 S   0  0  0  0  0  0  0  0  0  0  0  0
  153.7120  211.0890  138.7420 N   0  0  0  0  0  0  0  0  0  0  0  0
  157.0750  212.9980  137.5380 C   0  0  0  0  0  3  0  0  0  0  0  0
  153.3900  212.2480  137.9230 C   0  0  1  0  0  3  0  0  0  0  0  0
  154.5300  214.4330  137.5260 C   0  0  0  0  0  2  0  0  0  0  0  0
  153.8750  208.5980  140.1060 C   0  0  0  0  0  1  0  0  0  0  0  0
  154.9660  209.1440  139.3070 N   0  0  0  0  0  0  0  0  0  0  0  0
  162.3350  211.7690  148.5560 C   0  0  0  0  0  0  0  0  0  0  0  0
  161.2480  213.9000  148.5730 O   0  0  0  0  0  0  0  0  0  0  0  0
  161.1680  213.3920  149.8770 C   0  0  2  0  0  3  0  0  0  0  0  0
  163.6720  211.4000  148.4960 F   0  0  0  0  0  0  0  0  0  0  0  0
  161.9790  212.1040  149.9850 C   0  0  1  0  0  3  0  0  0  0  0  0
  161.3030  211.0630  150.6370 O   0  0  0  0  0  1  0  0  0  0  0  0
  162.1340  213.0990  147.8460 C   0  0  2  0  0  3  0  0  0  0  0  0
  161.5170  210.7620  148.0340 F   0  0  0  0  0  0  0  0  0  0  0  0
  159.7040  213.3660  150.3730 C   0  0  2  0  0  3  0  0  0  0  0  0
  158.6670  214.1160  149.5080 C   0  0  0  0  0  2  0  0  0  0  0  0
  158.0450  213.2590  148.5870 O   0  0  0  0  0  1  0  0  0  0  0  0
  159.5790  213.5630  151.9000 C   0  0  2  0  0  3  0  0  0  0  0  0
  160.5170  211.9270  153.5460 O   0  0  0  0  0  1  0  0  0  0  0  0
  158.7350  211.3410  152.2320 O   0  0  0  0  0  0  0  0  0  0  0  0
  159.5760  212.2170  152.5670 C   0  0  0  0  0  0  0  0  0  0  0  0
  157.0840  214.0540  151.5940 C   0  0  0  0  0  1  0  0  0  0  0  0
  158.3610  214.4260  152.3290 C   0  0  1  0  0  3  0  0  0  0  0  0
  158.1000  214.3380  153.8240 C   0  0  0  0  0  2  0  0  0  0  0  0
  156.7300  213.7010  154.0910 C   0  0  0  0  0  2  0  0  0  0  0  0
  155.6660  212.6160  155.9380 F   0  0  0  0  0  0  0  0  0  0  0  0
  156.8230  212.6190  155.1750 C   0  0  0  0  0  0  0  0  0  0  0  0
  157.9000  212.8890  156.0030 F   0  0  0  0  0  0  0  0  0  0  0  0
  156.9860  211.3710  154.5860 F   0  0  0  0  0  0  0  0  0  0  0  0
  1  6  1  0  0  0  0
  2  1  2  0  0  0  0
  3  5  2  0  0  0  0
  3  2  1  0  0  0  0
  4  6  2  0  0  0  0
  5  4  1  0  0  0  0
  7 11  1  0  0  0  0
  8 17  2  0  0  0  0
  8 19  1  0  0  0  0
  9 10  1  0  0  0  0
 10 20  1  0  0  0  0
 10 12  1  0  0  0  0
 11  3  1  1  0  0  0
 13 14  2  0  0  0  0
 13  9  1  0  0  0  0
 14 17  1  0  0  0  0
 15 11  1  0  0  0  0
 16  8  1  0  0  0  0
 17 20  1  0  0  0  0
 18 28  1  0  0  0  0
 18 14  1  0  0  0  0
 19 15  2  0  0  0  0
 20  7  2  0  0  0  0
 21 27  2  0  0  0  0
 21 32  1  0  0  0  0
 23 32  1  0  0  0  0
 24 29  1  0  0  0  0
 25 28  2  0  0  0  0
 25 24  1  0  0  0  0
 26 25  1  0  0  0  0
 26 21  1  0  0  0  0
 29 22  1  1  0  0  0
 29 27  1  0  0  0  0
 30 24  2  0  0  0  0
 32 31  1  0  0  0  0
 33 37  1  0  0  0  0
 34 35  1  0  0  0  0
 35 37  1  0  0  0  0
 35 41  1  6  0  0  0
 36 33  1  0  0  0  0
 37 38  1  6  0  0  0
 39  6  1  6  0  0  0
 39 33  1  0  0  0  0
 39 34  1  0  0  0  0
 40 33  1  0  0  0  0
 41 42  1  6  0  0  0
 41 44  1  0  0  0  0
 43 42  1  0  0  0  0
 44 49  1  0  0  0  0
 44 47  1  1  0  0  0
 46 47  2  0  0  0  0
 47 45  1  0  0  0  0
 49 48  1  6  0  0  0
 49 50  1  0  0  0  0
 50 51  1  0  0  0  0
 51 53  1  0  0  0  0
 53 52  1  0  0  0  0
 53 54  1  0  0  0  0
 55 53  1  0  0  0  0
M  END
>  <MODEL>
4

>  <REMARK>
 VINA RESULT:      -1.8      2.781      4.763
  Name = 
  11 active torsions:
  status: ('A' for Active; 'I' for Inactive)
    1  A    between atoms: C_8  and  C_35
    2  A    between atoms: C_13  and  C_34
    3  A    between atoms: C_16  and  C_34
    4  A    between atoms: C_23  and  C_34
    5  A    between atoms: C_23  and  C_50
    6  A    between atoms: C_23  and  C_53
    7  A    between atoms: C_28  and  N_44
    8  A    between atoms: C_37  and  C_39
    9  A    between atoms: C_37  and  C_47
   10  A    between atoms: C_41  and  C_46
   11  A    between atoms: C_47  and  C_53
                            x       y       z     vdW  Elec       q    Type
                         _______ _______ _______ _____ _____    ______ ____

>  <TORSDO>
F 11

$$$$
