=
 OpenBabel11042421373D

 45 47  0  0  1  0  0  0  0  0999 V2000
  159.9530  210.9460  154.6530 C   0  0  2  0  0  3  0  0  0  0  0  0
  160.9620  212.1240  156.5720 C   0  0  0  0  0  3  0  0  0  0  0  0
  161.8510  210.9320  156.7540 C   0  0  0  0  0  2  0  0  0  0  0  0
  160.0720  212.1320  155.5750 C   0  0  0  0  0  3  0  0  0  0  0  0
  161.3540  210.3810  154.2970 C   0  0  1  0  0  3  0  0  0  0  0  0
  162.4250  210.5030  155.4030 C   0  0  0  0  0  2  0  0  0  0  0  0
  161.2970  209.0110  153.7690 N   0  0  0  0  0  0  0  0  0  0  0  0
  160.6430  206.7950  154.2130 O   0  0  0  0  0  0  0  0  0  0  0  0
  161.6810  208.7220  152.4030 C   0  0  0  0  0  0  0  0  0  0  0  0
  161.9830  207.5480  152.0600 O   0  0  0  0  0  0  0  0  0  0  0  0
  160.8230  207.9660  154.6440 C   0  0  0  0  0  0  0  0  0  0  0  0
  159.8570  207.0340  156.7130 C   0  0  0  0  0  1  0  0  0  0  0  0
  160.4980  208.2510  156.0770 C   0  0  0  0  0  2  0  0  0  0  0  0
  161.7460  209.8020  151.3700 C   0  0  0  0  0  2  0  0  0  0  0  0
  162.4520  209.3160  150.1140 C   0  0  0  0  0  2  0  0  0  0  0  0
  161.5180  209.0400  149.1140 O   0  0  0  0  0  0  0  0  0  0  0  0
  162.1130  208.0500  148.3320 C   0  0  0  0  0  2  0  0  0  0  0  0
  161.2350  206.9750  148.1920 O   0  0  0  0  0  0  0  0  0  0  0  0
  161.7830  205.9630  148.9810 C   0  0  0  0  0  2  0  0  0  0  0  0
  160.7190  204.0510  150.1540 C   0  0  0  0  0  1  0  0  0  0  0  0
  160.9930  204.6780  148.8000 C   0  0  2  0  0  3  0  0  0  0  0  0
  161.7990  203.7040  147.9550 C   0  0  0  0  0  2  0  0  0  0  0  0
  161.0690  203.2690  146.6830 C   0  0  1  0  0  3  0  0  0  0  0  0
  161.7890  203.6230  145.5380 O   0  0  0  0  0  1  0  0  0  0  0  0
  160.6950  201.7880  146.6740 C   0  0  0  0  0  2  0  0  0  0  0  0
  160.3950  201.3330  145.3260 N   0  0  0  0  0  1  0  0  0  0  0  0
  157.7930  211.3980  153.6900 O   0  0  0  0  0  1  0  0  0  0  0  0
  159.1580  211.3340  153.4020 C   0  0  1  0  0  3  0  0  0  0  0  0
  159.6030  212.6350  152.9160 N   0  0  0  0  0  2  0  0  0  0  0  0
  159.9120  213.3730  150.5790 C   0  0  0  0  0  3  0  0  0  0  0  0
  157.3140  214.2980  150.5500 N   0  0  0  0  0  0  0  0  0  0  0  0
  159.4030  213.9720  149.4250 C   0  0  0  0  0  0  0  0  0  0  0  0
  159.1100  213.2410  151.7190 C   0  0  0  0  0  0  0  0  0  0  0  0
  157.7980  213.7180  151.6810 C   0  0  0  0  0  3  0  0  0  0  0  0
  158.0800  214.4330  149.4350 C   0  0  0  0  0  3  0  0  0  0  0  0
  161.1200  213.5520  146.0290 N   0  0  0  0  0  2  0  0  0  0  0  0
  159.3290  212.3840  146.9560 O   0  0  0  0  0  0  0  0  0  0  0  0
  160.2470  214.0920  148.2720 N   0  0  0  0  0  2  0  0  0  0  0  0
  160.1900  213.2940  147.0840 C   0  0  0  0  0  0  0  0  0  0  0  0
  159.9170  213.1440  143.9390 C   0  0  0  0  0  2  0  0  0  0  0  0
  161.3270  213.6950  141.9190 C   0  0  0  0  0  2  0  0  0  0  0  0
  161.1420  212.7850  144.7930 C   0  0  0  0  0  3  0  0  0  0  0  0
  162.4770  213.0040  144.0640 C   0  0  0  0  0  2  0  0  0  0  0  0
  162.3360  212.7380  142.5690 C   0  0  0  0  0  2  0  0  0  0  0  0
  160.2490  214.1990  142.8880 C   0  0  0  0  0  2  0  0  0  0  0  0
  1 28  1  6  0  0  0
  1  4  1  0  0  0  0
  2  3  1  0  0  0  0
  4  2  2  0  0  0  0
  5  7  1  1  0  0  0
  5  1  1  0  0  0  0
  5  6  1  0  0  0  0
  6  3  1  0  0  0  0
  7 11  1  0  0  0  0
  8 11  2  0  0  0  0
  9  7  1  0  0  0  0
 10  9  2  0  0  0  0
 11 13  1  0  0  0  0
 13 12  1  0  0  0  0
 14  9  1  0  0  0  0
 15 14  1  0  0  0  0
 16 15  1  0  0  0  0
 17 16  1  0  0  0  0
 18 17  1  0  0  0  0
 18 19  1  0  0  0  0
 21 19  1  0  0  0  0
 21 20  1  1  0  0  0
 22 21  1  0  0  0  0
 23 24  1  6  0  0  0
 23 22  1  0  0  0  0
 25 23  1  0  0  0  0
 26 25  1  0  0  0  0
 28 27  1  1  0  0  0
 29 28  1  0  0  0  0
 30 33  1  0  0  0  0
 31 34  1  0  0  0  0
 32 35  1  0  0  0  0
 32 30  2  0  0  0  0
 33 29  1  0  0  0  0
 34 33  2  0  0  0  0
 35 31  2  0  0  0  0
 36 39  1  0  0  0  0
 37 39  2  0  0  0  0
 38 32  1  0  0  0  0
 39 38  1  0  0  0  0
 40 42  1  0  0  0  0
 41 44  1  0  0  0  0
 41 45  1  0  0  0  0
 42 36  1  0  0  0  0
 43 42  1  0  0  0  0
 44 43  1  0  0  0  0
 45 40  1  0  0  0  0
M  END
>  <MODEL>
1

>  <REMARK>
 VINA RESULT:      -6.7      0.000      0.000
  Name = 
  17 active torsions:
  status: ('A' for Active; 'I' for Inactive)
    1  A    between atoms: N_1  and  C_10
    2  A    between atoms: N_2  and  C_29
    3  A    between atoms: C_3  and  C_26
    4  A    between atoms: C_5  and  C_11
    5  A    between atoms: C_5  and  O_21
    6  A    between atoms: C_8  and  C_9
    7  A    between atoms: C_8  and  C_13
    8  A    between atoms: C_9  and  C_42
    9  A    between atoms: C_11  and  C_34
   10  A    between atoms: C_19  and  O_21
   11  A    between atoms: C_19  and  O_33
   12  A    between atoms: C_26  and  N_30
   13  A    between atoms: N_30  and  C_37
   14  A    between atoms: N_32  and  C_35
   15  A    between atoms: O_33  and  C_45
   16  A    between atoms: C_39  and  C_44
   17  A    between atoms: C_42  and  C_45
                            x       y       z     vdW  Elec       q    Type
                         _______ _______ _______ _____ _____    ______ ____

>  <TORSDO>
F 17

$$$$
=
 OpenBabel11042421373D

 45 47  0  0  1  0  0  0  0  0999 V2000
  160.7450  203.7180  149.2600 C   0  0  2  0  0  3  0  0  0  0  0  0
  160.8100  201.4070  150.1230 C   0  0  0  0  0  3  0  0  0  0  0  0
  161.0920  200.9600  148.7220 C   0  0  0  0  0  2  0  0  0  0  0  0
  160.6540  202.7100  150.3770 C   0  0  0  0  0  3  0  0  0  0  0  0
  161.8970  203.3570  148.2840 C   0  0  1  0  0  3  0  0  0  0  0  0
  162.1710  201.8480  148.1020 C   0  0  0  0  0  2  0  0  0  0  0  0
  161.7710  204.0300  146.9840 N   0  0  0  0  0  0  0  0  0  0  0  0
  160.7990  203.9310  144.8430 O   0  0  0  0  0  0  0  0  0  0  0  0
  162.3450  205.3410  146.7630 C   0  0  0  0  0  0  0  0  0  0  0  0
  162.5620  205.7540  145.5930 O   0  0  0  0  0  0  0  0  0  0  0  0
  161.0370  203.3550  145.9390 C   0  0  0  0  0  0  0  0  0  0  0  0
  159.8450  201.4800  144.8710 C   0  0  0  0  0  1  0  0  0  0  0  0
  160.5100  201.9700  146.1420 C   0  0  0  0  0  2  0  0  0  0  0  0
  162.7090  206.2310  147.9100 C   0  0  0  0  0  2  0  0  0  0  0  0
  162.0330  207.5870  147.7860 C   0  0  0  0  0  2  0  0  0  0  0  0
  162.4430  208.4250  148.8240 O   0  0  0  0  0  0  0  0  0  0  0  0
  161.7770  209.6290  148.5950 C   0  0  0  0  0  2  0  0  0  0  0  0
  162.7080  210.6370  148.3390 O   0  0  0  0  0  0  0  0  0  0  0  0
  162.0310  211.8260  148.6140 C   0  0  0  0  0  2  0  0  0  0  0  0
  162.3160  214.2470  148.1520 C   0  0  0  0  0  1  0  0  0  0  0  0
  162.3380  212.8580  147.5430 C   0  0  2  0  0  3  0  0  0  0  0  0
  161.2870  212.7780  146.4470 C   0  0  0  0  0  2  0  0  0  0  0  0
  161.7390  213.4240  145.1370 C   0  0  1  0  0  3  0  0  0  0  0  0
  163.0890  213.1630  144.8820 O   0  0  0  0  0  1  0  0  0  0  0  0
  160.8620  213.0520  143.9420 C   0  0  0  0  0  2  0  0  0  0  0  0
  161.6000  212.2470  142.9830 N   0  0  0  0  0  1  0  0  0  0  0  0
  159.7120  205.8420  149.7280 O   0  0  0  0  0  1  0  0  0  0  0  0
  160.9060  205.1270  149.8390 C   0  0  1  0  0  3  0  0  0  0  0  0
  161.2820  205.0450  151.2460 N   0  0  0  0  0  2  0  0  0  0  0  0
  161.2470  207.4750  151.6840 C   0  0  0  0  0  3  0  0  0  0  0  0
  161.0700  206.9630  154.3880 N   0  0  0  0  0  0  0  0  0  0  0  0
  161.1860  208.5380  152.5880 C   0  0  0  0  0  0  0  0  0  0  0  0
  161.2190  206.1540  152.1460 C   0  0  0  0  0  0  0  0  0  0  0  0
  161.1300  205.9200  153.5190 C   0  0  0  0  0  3  0  0  0  0  0  0
  161.0950  208.2520  153.9560 C   0  0  0  0  0  3  0  0  0  0  0  0
  160.4340  212.1950  151.7440 N   0  0  0  0  0  2  0  0  0  0  0  0
  159.2450  210.6890  153.0650 O   0  0  0  0  0  0  0  0  0  0  0  0
  161.2160  209.8810  152.0870 N   0  0  0  0  0  2  0  0  0  0  0  0
  160.2460  210.9070  152.3320 C   0  0  0  0  0  0  0  0  0  0  0  0
  159.8020  214.4110  150.9240 C   0  0  0  0  0  2  0  0  0  0  0  0
  157.4340  214.4520  150.0520 C   0  0  0  0  0  2  0  0  0  0  0  0
  159.4950  213.2920  151.9300 C   0  0  0  0  0  3  0  0  0  0  0  0
  158.0530  212.7690  151.8360 C   0  0  0  0  0  2  0  0  0  0  0  0
  157.0900  213.8820  151.4360 C   0  0  0  0  0  2  0  0  0  0  0  0
  158.9170  214.3180  149.6850 C   0  0  0  0  0  2  0  0  0  0  0  0
  1 28  1  1  0  0  0
  1  4  1  0  0  0  0
  2  4  2  0  0  0  0
  3  2  1  0  0  0  0
  5  7  1  6  0  0  0
  5  1  1  0  0  0  0
  6  5  1  0  0  0  0
  6  3  1  0  0  0  0
  8 11  2  0  0  0  0
  9  7  1  0  0  0  0
  9 14  1  0  0  0  0
 10  9  2  0  0  0  0
 11 13  1  0  0  0  0
 11  7  1  0  0  0  0
 12 13  1  0  0  0  0
 15 14  1  0  0  0  0
 15 16  1  0  0  0  0
 17 16  1  0  0  0  0
 18 17  1  0  0  0  0
 18 19  1  0  0  0  0
 21 20  1  1  0  0  0
 21 19  1  0  0  0  0
 22 21  1  0  0  0  0
 23 24  1  6  0  0  0
 23 22  1  0  0  0  0
 25 23  1  0  0  0  0
 26 25  1  0  0  0  0
 28 27  1  1  0  0  0
 28 29  1  0  0  0  0
 29 33  1  0  0  0  0
 30 33  2  0  0  0  0
 30 32  1  0  0  0  0
 32 35  2  0  0  0  0
 33 34  1  0  0  0  0
 34 31  2  0  0  0  0
 35 31  1  0  0  0  0
 36 42  1  0  0  0  0
 36 39  1  0  0  0  0
 38 39  1  0  0  0  0
 38 32  1  0  0  0  0
 39 37  2  0  0  0  0
 40 42  1  0  0  0  0
 41 44  1  0  0  0  0
 43 42  1  0  0  0  0
 44 43  1  0  0  0  0
 45 41  1  0  0  0  0
 45 40  1  0  0  0  0
M  END
>  <MODEL>
2

>  <REMARK>
 VINA RESULT:      -6.1      2.283      8.565
  Name = 
  17 active torsions:
  status: ('A' for Active; 'I' for Inactive)
    1  A    between atoms: N_1  and  C_10
    2  A    between atoms: N_2  and  C_29
    3  A    between atoms: C_3  and  C_26
    4  A    between atoms: C_5  and  C_11
    5  A    between atoms: C_5  and  O_21
    6  A    between atoms: C_8  and  C_9
    7  A    between atoms: C_8  and  C_13
    8  A    between atoms: C_9  and  C_42
    9  A    between atoms: C_11  and  C_34
   10  A    between atoms: C_19  and  O_21
   11  A    between atoms: C_19  and  O_33
   12  A    between atoms: C_26  and  N_30
   13  A    between atoms: N_30  and  C_37
   14  A    between atoms: N_32  and  C_35
   15  A    between atoms: O_33  and  C_45
   16  A    between atoms: C_39  and  C_44
   17  A    between atoms: C_42  and  C_45
                            x       y       z     vdW  Elec       q    Type
                         _______ _______ _______ _____ _____    ______ ____

>  <TORSDO>
F 17

$$$$
=
 OpenBabel11042421373D

 45 47  0  0  1  0  0  0  0  0999 V2000
  160.7350  203.6980  149.0940 C   0  0  2  0  0  3  0  0  0  0  0  0
  160.7060  201.4050  150.0070 C   0  0  0  0  0  3  0  0  0  0  0  0
  160.8610  200.9120  148.6010 C   0  0  0  0  0  2  0  0  0  0  0  0
  160.6550  202.7200  150.2390 C   0  0  0  0  0  3  0  0  0  0  0  0
  161.7900  203.2400  148.0520 C   0  0  1  0  0  3  0  0  0  0  0  0
  161.9510  201.7130  147.8890 C   0  0  0  0  0  2  0  0  0  0  0  0
  161.6200  203.8940  146.7470 N   0  0  0  0  0  0  0  0  0  0  0  0
  160.5050  203.8150  144.6770 O   0  0  0  0  0  0  0  0  0  0  0  0
  162.2560  205.1630  146.4600 C   0  0  0  0  0  0  0  0  0  0  0  0
  162.4200  205.5400  145.2690 O   0  0  0  0  0  0  0  0  0  0  0  0
  160.7800  203.2460  145.7680 C   0  0  0  0  0  0  0  0  0  0  0  0
  159.8910  201.1960  144.7270 C   0  0  0  0  0  1  0  0  0  0  0  0
  160.1850  201.9000  146.0360 C   0  0  0  0  0  2  0  0  0  0  0  0
  162.7480  206.0510  147.5600 C   0  0  0  0  0  2  0  0  0  0  0  0
  162.0790  207.4150  147.5020 C   0  0  0  0  0  2  0  0  0  0  0  0
  162.7370  208.3090  148.3480 O   0  0  0  0  0  0  0  0  0  0  0  0
  161.7770  209.2690  148.6700 C   0  0  0  0  0  2  0  0  0  0  0  0
  162.3620  210.2740  149.4410 O   0  0  0  0  0  0  0  0  0  0  0  0
  161.5880  211.4090  149.1950 C   0  0  0  0  0  2  0  0  0  0  0  0
  163.4690  212.4070  147.9190 C   0  0  0  0  0  1  0  0  0  0  0  0
  161.9970  212.0410  147.8760 C   0  0  2  0  0  3  0  0  0  0  0  0
  161.1770  213.3000  147.6430 C   0  0  0  0  0  2  0  0  0  0  0  0
  160.6410  213.4100  146.2150 C   0  0  1  0  0  3  0  0  0  0  0  0
  161.6680  213.6890  145.3080 O   0  0  0  0  0  1  0  0  0  0  0  0
  159.8220  212.1970  145.7780 C   0  0  0  0  0  2  0  0  0  0  0  0
  158.5380  212.6020  145.2300 N   0  0  0  0  0  1  0  0  0  0  0  0
  159.8570  205.8590  149.6880 O   0  0  0  0  0  1  0  0  0  0  0  0
  161.0290  205.1030  149.6270 C   0  0  1  0  0  3  0  0  0  0  0  0
  161.6080  205.0170  150.9630 N   0  0  0  0  0  2  0  0  0  0  0  0
  161.1860  207.3400  151.6880 C   0  0  0  0  0  3  0  0  0  0  0  0
  161.1270  206.4880  154.3100 N   0  0  0  0  0  0  0  0  0  0  0  0
  160.9640  208.2640  152.7110 C   0  0  0  0  0  0  0  0  0  0  0  0
  161.3770  205.9860  151.9880 C   0  0  0  0  0  0  0  0  0  0  0  0
  161.3440  205.5790  153.3230 C   0  0  0  0  0  3  0  0  0  0  0  0
  160.9380  207.8060  154.0350 C   0  0  0  0  0  3  0  0  0  0  0  0
  159.9900  211.9650  152.6670 N   0  0  0  0  0  2  0  0  0  0  0  0
  159.6090  210.3360  154.2890 O   0  0  0  0  0  0  0  0  0  0  0  0
  160.7700  209.6440  152.3740 N   0  0  0  0  0  2  0  0  0  0  0  0
  160.0950  210.6300  153.1650 C   0  0  0  0  0  0  0  0  0  0  0  0
  157.8170  213.0230  153.0460 C   0  0  0  0  0  2  0  0  0  0  0  0
  157.1200  212.8990  155.4690 C   0  0  0  0  0  2  0  0  0  0  0  0
  159.3120  213.0280  153.3960 C   0  0  0  0  0  3  0  0  0  0  0  0
  159.5850  212.8870  154.9010 C   0  0  0  0  0  2  0  0  0  0  0  0
  158.4870  213.5520  155.7230 C   0  0  0  0  0  2  0  0  0  0  0  0
  156.9960  212.2590  154.0800 C   0  0  0  0  0  2  0  0  0  0  0  0
  1 28  1  1  0  0  0
  1  4  1  0  0  0  0
  2  4  2  0  0  0  0
  3  2  1  0  0  0  0
  5  7  1  6  0  0  0
  5  1  1  0  0  0  0
  6  5  1  0  0  0  0
  6  3  1  0  0  0  0
  8 11  2  0  0  0  0
  9  7  1  0  0  0  0
  9 14  1  0  0  0  0
 10  9  2  0  0  0  0
 11 13  1  0  0  0  0
 11  7  1  0  0  0  0
 12 13  1  0  0  0  0
 15 14  1  0  0  0  0
 15 16  1  0  0  0  0
 16 17  1  0  0  0  0
 17 18  1  0  0  0  0
 19 18  1  0  0  0  0
 21 20  1  1  0  0  0
 21 19  1  0  0  0  0
 22 21  1  0  0  0  0
 23 24  1  6  0  0  0
 23 22  1  0  0  0  0
 25 23  1  0  0  0  0
 26 25  1  0  0  0  0
 28 27  1  1  0  0  0
 28 29  1  0  0  0  0
 29 33  1  0  0  0  0
 30 33  2  0  0  0  0
 30 32  1  0  0  0  0
 32 35  2  0  0  0  0
 33 34  1  0  0  0  0
 34 31  2  0  0  0  0
 35 31  1  0  0  0  0
 36 39  1  0  0  0  0
 36 42  1  0  0  0  0
 38 32  1  0  0  0  0
 38 39  1  0  0  0  0
 39 37  2  0  0  0  0
 40 42  1  0  0  0  0
 40 45  1  0  0  0  0
 41 44  1  0  0  0  0
 42 43  1  0  0  0  0
 43 44  1  0  0  0  0
 45 41  1  0  0  0  0
M  END
>  <MODEL>
3

>  <REMARK>
 VINA RESULT:      -5.8      2.432      9.163
  Name = 
  17 active torsions:
  status: ('A' for Active; 'I' for Inactive)
    1  A    between atoms: N_1  and  C_10
    2  A    between atoms: N_2  and  C_29
    3  A    between atoms: C_3  and  C_26
    4  A    between atoms: C_5  and  C_11
    5  A    between atoms: C_5  and  O_21
    6  A    between atoms: C_8  and  C_9
    7  A    between atoms: C_8  and  C_13
    8  A    between atoms: C_9  and  C_42
    9  A    between atoms: C_11  and  C_34
   10  A    between atoms: C_19  and  O_21
   11  A    between atoms: C_19  and  O_33
   12  A    between atoms: C_26  and  N_30
   13  A    between atoms: N_30  and  C_37
   14  A    between atoms: N_32  and  C_35
   15  A    between atoms: O_33  and  C_45
   16  A    between atoms: C_39  and  C_44
   17  A    between atoms: C_42  and  C_45
                            x       y       z     vdW  Elec       q    Type
                         _______ _______ _______ _____ _____    ______ ____

>  <TORSDO>
F 17

$$$$
=
 OpenBabel11042421373D

 45 47  0  0  1  0  0  0  0  0999 V2000
  159.3380  213.5200  149.5450 C   0  0  2  0  0  3  0  0  0  0  0  0
  157.0210  213.3720  148.7110 C   0  0  0  0  0  3  0  0  0  0  0  0
  157.5920  213.2730  147.3300 C   0  0  0  0  0  2  0  0  0  0  0  0
  157.8460  213.4820  149.7560 C   0  0  0  0  0  3  0  0  0  0  0  0
  159.7670  212.5040  148.4530 C   0  0  1  0  0  3  0  0  0  0  0  0
  158.7460  212.2700  147.3190 C   0  0  0  0  0  2  0  0  0  0  0  0
  161.1040  212.7840  147.9110 N   0  0  0  0  0  0  0  0  0  0  0  0
  163.3550  212.1000  147.8720 O   0  0  0  0  0  0  0  0  0  0  0  0
  161.3040  213.8160  146.9140 C   0  0  0  0  0  0  0  0  0  0  0  0
  162.4490  214.3030  146.7220 O   0  0  0  0  0  0  0  0  0  0  0  0
  162.2090  211.9840  148.3840 C   0  0  0  0  0  0  0  0  0  0  0  0
  161.7410  209.6110  148.8590 C   0  0  0  0  0  1  0  0  0  0  0  0
  162.0160  210.9710  149.4680 C   0  0  0  0  0  2  0  0  0  0  0  0
  160.1620  214.3400  146.1010 C   0  0  0  0  0  2  0  0  0  0  0  0
  160.4690  214.2600  144.6140 C   0  0  0  0  0  2  0  0  0  0  0  0
  159.8810  213.1200  144.0630 O   0  0  0  0  0  0  0  0  0  0  0  0
  159.9390  213.3200  142.6830 C   0  0  0  0  0  2  0  0  0  0  0  0
  160.8670  212.4420  142.1230 O   0  0  0  0  0  0  0  0  0  0  0  0
  160.1290  211.6670  141.2280 C   0  0  0  0  0  2  0  0  0  0  0  0
  162.4870  211.3520  140.5210 C   0  0  0  0  0  1  0  0  0  0  0  0
  161.0640  210.8570  140.3470 C   0  0  2  0  0  3  0  0  0  0  0  0
  160.6550  211.0190  138.8910 C   0  0  0  0  0  2  0  0  0  0  0  0
  161.0800  209.8410  138.0150 C   0  0  1  0  0  3  0  0  0  0  0  0
  162.2530  210.1290  137.3110 O   0  0  0  0  0  1  0  0  0  0  0  0
  161.1970  208.5240  138.7820 C   0  0  0  0  0  2  0  0  0  0  0  0
  161.7080  207.4650  137.9270 N   0  0  0  0  0  1  0  0  0  0  0  0
  160.1390  214.4530  151.6150 O   0  0  0  0  0  1  0  0  0  0  0  0
  160.0600  213.2730  150.8730 C   0  0  1  0  0  3  0  0  0  0  0  0
  159.3390  212.2710  151.6510 N   0  0  0  0  0  2  0  0  0  0  0  0
  159.9100  209.9600  152.3090 C   0  0  0  0  0  3  0  0  0  0  0  0
  161.3030  210.9440  154.4760 N   0  0  0  0  0  0  0  0  0  0  0  0
  160.5440  209.0760  153.1840 C   0  0  0  0  0  0  0  0  0  0  0  0
  159.9790  211.3410  152.5270 C   0  0  0  0  0  0  0  0  0  0  0  0
  160.6890  211.8150  153.6320 C   0  0  0  0  0  3  0  0  0  0  0  0
  161.2460  209.6010  154.2770 C   0  0  0  0  0  3  0  0  0  0  0  0
  160.9820  205.5160  151.8480 N   0  0  0  0  0  2  0  0  0  0  0  0
  162.0490  207.4910  151.2230 O   0  0  0  0  0  0  0  0  0  0  0  0
  160.4570  207.6660  152.9350 N   0  0  0  0  0  2  0  0  0  0  0  0
  161.2020  206.9230  151.9620 C   0  0  0  0  0  0  0  0  0  0  0  0
  161.8050  203.2520  151.4220 C   0  0  0  0  0  2  0  0  0  0  0  0
  160.7660  202.2460  149.3540 C   0  0  0  0  0  2  0  0  0  0  0  0
  161.6840  204.6840  150.8810 C   0  0  0  0  0  3  0  0  0  0  0  0
  160.9830  204.7610  149.5160 C   0  0  0  0  0  2  0  0  0  0  0  0
  161.2800  203.5240  148.6750 C   0  0  0  0  0  2  0  0  0  0  0  0
  160.7010  202.3480  150.8830 C   0  0  0  0  0  2  0  0  0  0  0  0
  1  4  1  0  0  0  0
  1 28  1  1  0  0  0
  2  4  2  0  0  0  0
  3  2  1  0  0  0  0
  5  7  1  6  0  0  0
  5  1  1  0  0  0  0
  6  3  1  0  0  0  0
  6  5  1  0  0  0  0
  7 11  1  0  0  0  0
  8 11  2  0  0  0  0
  9  7  1  0  0  0  0
 10  9  2  0  0  0  0
 11 13  1  0  0  0  0
 12 13  1  0  0  0  0
 14  9  1  0  0  0  0
 15 14  1  0  0  0  0
 16 15  1  0  0  0  0
 17 16  1  0  0  0  0
 18 17  1  0  0  0  0
 19 18  1  0  0  0  0
 21 20  1  6  0  0  0
 21 19  1  0  0  0  0
 22 21  1  0  0  0  0
 23 24  1  1  0  0  0
 23 25  1  0  0  0  0
 23 22  1  0  0  0  0
 26 25  1  0  0  0  0
 28 27  1  1  0  0  0
 28 29  1  0  0  0  0
 29 33  1  0  0  0  0
 30 33  2  0  0  0  0
 30 32  1  0  0  0  0
 32 35  2  0  0  0  0
 33 34  1  0  0  0  0
 34 31  2  0  0  0  0
 35 31  1  0  0  0  0
 36 39  1  0  0  0  0
 37 39  2  0  0  0  0
 38 32  1  0  0  0  0
 39 38  1  0  0  0  0
 41 45  1  0  0  0  0
 42 40  1  0  0  0  0
 42 36  1  0  0  0  0
 43 42  1  0  0  0  0
 44 41  1  0  0  0  0
 44 43  1  0  0  0  0
 45 40  1  0  0  0  0
M  END
>  <MODEL>
4

>  <REMARK>
 VINA RESULT:      -5.7      3.256      8.680
  Name = 
  17 active torsions:
  status: ('A' for Active; 'I' for Inactive)
    1  A    between atoms: N_1  and  C_10
    2  A    between atoms: N_2  and  C_29
    3  A    between atoms: C_3  and  C_26
    4  A    between atoms: C_5  and  C_11
    5  A    between atoms: C_5  and  O_21
    6  A    between atoms: C_8  and  C_9
    7  A    between atoms: C_8  and  C_13
    8  A    between atoms: C_9  and  C_42
    9  A    between atoms: C_11  and  C_34
   10  A    between atoms: C_19  and  O_21
   11  A    between atoms: C_19  and  O_33
   12  A    between atoms: C_26  and  N_30
   13  A    between atoms: N_30  and  C_37
   14  A    between atoms: N_32  and  C_35
   15  A    between atoms: O_33  and  C_45
   16  A    between atoms: C_39  and  C_44
   17  A    between atoms: C_42  and  C_45
                            x       y       z     vdW  Elec       q    Type
                         _______ _______ _______ _____ _____    ______ ____

>  <TORSDO>
F 17

$$$$
=
 OpenBabel11042421373D

 45 47  0  0  1  0  0  0  0  0999 V2000
  160.1360  212.3490  140.8040 C   0  0  2  0  0  3  0  0  0  0  0  0
  157.8790  213.2310  140.3400 C   0  0  0  0  0  3  0  0  0  0  0  0
  158.1780  213.0510  138.8830 C   0  0  0  0  0  2  0  0  0  0  0  0
  158.8010  212.8920  141.2450 C   0  0  0  0  0  3  0  0  0  0  0  0
  159.9650  211.3630  139.6170 C   0  0  1  0  0  3  0  0  0  0  0  0
  158.8030  211.6760  138.6490 C   0  0  0  0  0  2  0  0  0  0  0  0
  161.2170  211.1360  138.8830 N   0  0  0  0  0  0  0  0  0  0  0  0
  163.1850  212.1330  138.0660 O   0  0  0  0  0  0  0  0  0  0  0  0
  161.6170  209.8020  138.4850 C   0  0  0  0  0  0  0  0  0  0  0  0
  162.4640  209.6370  137.5670 O   0  0  0  0  0  0  0  0  0  0  0  0
  162.0480  212.2800  138.5900 C   0  0  0  0  0  0  0  0  0  0  0  0
  161.3410  214.4530  137.6660 C   0  0  0  0  0  1  0  0  0  0  0  0
  161.5990  213.6650  138.9340 C   0  0  0  0  0  2  0  0  0  0  0  0
  161.0310  208.5890  139.1360 C   0  0  0  0  0  2  0  0  0  0  0  0
  162.0160  207.9610  140.1090 C   0  0  0  0  0  2  0  0  0  0  0  0
  161.8050  206.5830  140.1820 O   0  0  0  0  0  0  0  0  0  0  0  0
  162.3370  206.2050  141.4150 C   0  0  0  0  0  2  0  0  0  0  0  0
  161.2990  205.9050  142.2980 O   0  0  0  0  0  0  0  0  0  0  0  0
  161.9260  205.6970  143.5280 C   0  0  0  0  0  2  0  0  0  0  0  0
  160.0950  205.8590  145.1950 C   0  0  0  0  0  1  0  0  0  0  0  0
  161.0130  204.9090  144.4500 C   0  0  2  0  0  3  0  0  0  0  0  0
  161.8550  204.1390  145.4560 C   0  0  0  0  0  2  0  0  0  0  0  0
  161.6300  204.5950  146.8980 C   0  0  1  0  0  3  0  0  0  0  0  0
  161.4450  203.5040  147.7530 O   0  0  0  0  0  1  0  0  0  0  0  0
  162.7180  205.5330  147.4160 C   0  0  0  0  0  2  0  0  0  0  0  0
  162.1750  206.8470  147.7220 N   0  0  0  0  0  1  0  0  0  0  0  0
  162.1810  212.1260  142.0550 O   0  0  0  0  0  1  0  0  0  0  0  0
  160.8530  211.6980  141.9900 C   0  0  1  0  0  3  0  0  0  0  0  0
  160.1790  212.0530  143.2330 N   0  0  0  0  0  2  0  0  0  0  0  0
  160.6290  212.2660  145.6520 C   0  0  0  0  0  3  0  0  0  0  0  0
  162.3280  214.3750  145.1280 N   0  0  0  0  0  0  0  0  0  0  0  0
  161.2820  212.9090  146.7070 C   0  0  0  0  0  0  0  0  0  0  0  0
  160.8340  212.6880  144.3340 C   0  0  0  0  0  0  0  0  0  0  0  0
  161.6980  213.7580  144.0930 C   0  0  0  0  0  3  0  0  0  0  0  0
  162.1410  213.9760  146.4150 C   0  0  0  0  0  3  0  0  0  0  0  0
  161.4330  211.1250  150.0910 N   0  0  0  0  0  2  0  0  0  0  0  0
  162.7940  210.8920  148.2140 O   0  0  0  0  0  0  0  0  0  0  0  0
  161.0540  212.4540  148.0480 N   0  0  0  0  0  2  0  0  0  0  0  0
  161.8070  211.4600  148.7530 C   0  0  0  0  0  0  0  0  0  0  0  0
  161.7720  210.2820  152.3610 C   0  0  0  0  0  2  0  0  0  0  0  0
  161.0670  207.8690  152.5840 C   0  0  0  0  0  2  0  0  0  0  0  0
  162.1330  210.1210  150.8780 C   0  0  0  0  0  3  0  0  0  0  0  0
  161.8300  208.7190  150.3270 C   0  0  0  0  0  2  0  0  0  0  0  0
  162.0220  207.6530  151.4010 C   0  0  0  0  0  2  0  0  0  0  0  0
  160.6520  209.3330  152.7790 C   0  0  0  0  0  2  0  0  0  0  0  0
  1  4  1  0  0  0  0
  1 28  1  1  0  0  0
  2  4  2  0  0  0  0
  3  2  1  0  0  0  0
  5  7  1  6  0  0  0
  5  1  1  0  0  0  0
  6  3  1  0  0  0  0
  6  5  1  0  0  0  0
  8 11  2  0  0  0  0
  9  7  1  0  0  0  0
  9 14  1  0  0  0  0
 10  9  2  0  0  0  0
 11  7  1  0  0  0  0
 11 13  1  0  0  0  0
 12 13  1  0  0  0  0
 14 15  1  0  0  0  0
 15 16  1  0  0  0  0
 16 17  1  0  0  0  0
 17 18  1  0  0  0  0
 18 19  1  0  0  0  0
 19 21  1  0  0  0  0
 21 20  1  1  0  0  0
 21 22  1  0  0  0  0
 22 23  1  0  0  0  0
 23 25  1  0  0  0  0
 23 24  1  1  0  0  0
 25 26  1  0  0  0  0
 28 27  1  1  0  0  0
 28 29  1  0  0  0  0
 29 33  1  0  0  0  0
 30 32  1  0  0  0  0
 31 35  1  0  0  0  0
 32 38  1  0  0  0  0
 33 30  2  0  0  0  0
 34 33  1  0  0  0  0
 34 31  2  0  0  0  0
 35 32  2  0  0  0  0
 36 42  1  0  0  0  0
 37 39  2  0  0  0  0
 38 39  1  0  0  0  0
 39 36  1  0  0  0  0
 40 45  1  0  0  0  0
 41 45  1  0  0  0  0
 42 40  1  0  0  0  0
 43 42  1  0  0  0  0
 43 44  1  0  0  0  0
 44 41  1  0  0  0  0
M  END
>  <MODEL>
5

>  <REMARK>
 VINA RESULT:      -5.4      4.025     10.849
  Name = 
  17 active torsions:
  status: ('A' for Active; 'I' for Inactive)
    1  A    between atoms: N_1  and  C_10
    2  A    between atoms: N_2  and  C_29
    3  A    between atoms: C_3  and  C_26
    4  A    between atoms: C_5  and  C_11
    5  A    between atoms: C_5  and  O_21
    6  A    between atoms: C_8  and  C_9
    7  A    between atoms: C_8  and  C_13
    8  A    between atoms: C_9  and  C_42
    9  A    between atoms: C_11  and  C_34
   10  A    between atoms: C_19  and  O_21
   11  A    between atoms: C_19  and  O_33
   12  A    between atoms: C_26  and  N_30
   13  A    between atoms: N_30  and  C_37
   14  A    between atoms: N_32  and  C_35
   15  A    between atoms: O_33  and  C_45
   16  A    between atoms: C_39  and  C_44
   17  A    between atoms: C_42  and  C_45
                            x       y       z     vdW  Elec       q    Type
                         _______ _______ _______ _____ _____    ______ ____

>  <TORSDO>
F 17

$$$$
=
 OpenBabel11042421373D

 45 47  0  0  1  0  0  0  0  0999 V2000
  161.5170  203.7310  146.4070 C   0  0  2  0  0  3  0  0  0  0  0  0
  160.2080  203.8440  144.3190 C   0  0  0  0  0  3  0  0  0  0  0  0
  159.7680  202.4390  144.5940 C   0  0  0  0  0  2  0  0  0  0  0  0
  161.0270  204.4550  145.1790 C   0  0  0  0  0  3  0  0  0  0  0  0
  160.3760  202.8940  147.0450 C   0  0  1  0  0  3  0  0  0  0  0  0
  159.3450  202.3070  146.0570 C   0  0  0  0  0  2  0  0  0  0  0  0
  160.8760  201.8600  147.9620 N   0  0  0  0  0  0  0  0  0  0  0  0
  161.9520  199.7740  148.1190 O   0  0  0  0  0  0  0  0  0  0  0  0
  160.8600  202.0630  149.3960 C   0  0  0  0  0  0  0  0  0  0  0  0
  160.9330  201.0810  150.1800 O   0  0  0  0  0  0  0  0  0  0  0  0
  161.4050  200.6450  147.3900 C   0  0  0  0  0  0  0  0  0  0  0  0
  161.2010  198.9200  145.6400 C   0  0  0  0  0  1  0  0  0  0  0  0
  161.3530  200.4030  145.9140 C   0  0  0  0  0  2  0  0  0  0  0  0
  160.7410  203.4340  149.9830 C   0  0  0  0  0  2  0  0  0  0  0  0
  160.8480  203.3910  151.4990 C   0  0  0  0  0  2  0  0  0  0  0  0
  161.7060  204.3950  151.9490 O   0  0  0  0  0  0  0  0  0  0  0  0
  161.2010  204.7640  153.1970 C   0  0  0  0  0  2  0  0  0  0  0  0
  161.6910  206.0230  153.5440 O   0  0  0  0  0  0  0  0  0  0  0  0
  160.6150  206.6680  154.1560 C   0  0  0  0  0  2  0  0  0  0  0  0
  160.3540  207.6020  156.4410 C   0  0  0  0  0  1  0  0  0  0  0  0
  161.1230  207.7100  155.1380 C   0  0  2  0  0  3  0  0  0  0  0  0
  160.9180  209.0980  154.5520 C   0  0  0  0  0  2  0  0  0  0  0  0
  161.5860  210.2000  155.3770 C   0  0  1  0  0  3  0  0  0  0  0  0
  162.7180  210.7030  154.7290 O   0  0  0  0  0  1  0  0  0  0  0  0
  160.6290  211.3190  155.7820 C   0  0  0  0  0  2  0  0  0  0  0  0
  159.3580  211.1980  155.0870 N   0  0  0  0  0  1  0  0  0  0  0  0
  163.4370  205.0300  147.0580 O   0  0  0  0  0  1  0  0  0  0  0  0
  162.1160  204.7320  147.3990 C   0  0  1  0  0  3  0  0  0  0  0  0
  161.3350  205.9640  147.3950 N   0  0  0  0  0  2  0  0  0  0  0  0
  161.9550  208.2410  148.1220 C   0  0  0  0  0  3  0  0  0  0  0  0
  161.1250  207.6280  150.6790 N   0  0  0  0  0  0  0  0  0  0  0  0
  162.0490  209.2030  149.1300 C   0  0  0  0  0  0  0  0  0  0  0  0
  161.4420  206.9700  148.4050 C   0  0  0  0  0  0  0  0  0  0  0  0
  161.0290  206.6820  149.7070 C   0  0  0  0  0  3  0  0  0  0  0  0
  161.6190  208.8670  150.4200 C   0  0  0  0  0  3  0  0  0  0  0  0
  162.6310  212.7390  147.7830 N   0  0  0  0  0  2  0  0  0  0  0  0
  160.8150  211.3070  147.4940 O   0  0  0  0  0  0  0  0  0  0  0  0
  162.5770  210.4970  148.8110 N   0  0  0  0  0  2  0  0  0  0  0  0
  161.9520  211.5000  148.0010 C   0  0  0  0  0  0  0  0  0  0  0  0
  162.6000  213.6850  145.5280 C   0  0  0  0  0  2  0  0  0  0  0  0
  160.2760  213.6980  144.5440 C   0  0  0  0  0  2  0  0  0  0  0  0
  162.0760  213.8090  146.9660 C   0  0  0  0  0  3  0  0  0  0  0  0
  160.5430  213.7970  147.0570 C   0  0  0  0  0  2  0  0  0  0  0  0
  159.9140  214.4520  145.8320 C   0  0  0  0  0  2  0  0  0  0  0  0
  161.6120  212.9500  144.6260 C   0  0  0  0  0  2  0  0  0  0  0  0
  1  5  1  0  0  0  0
  1 28  1  1  0  0  0
  2  3  1  0  0  0  0
  2  4  2  0  0  0  0
  3  6  1  0  0  0  0
  4  1  1  0  0  0  0
  5  7  1  6  0  0  0
  6  5  1  0  0  0  0
  7  9  1  0  0  0  0
  9 14  1  0  0  0  0
  9 10  2  0  0  0  0
 11  7  1  0  0  0  0
 11  8  2  0  0  0  0
 12 13  1  0  0  0  0
 13 11  1  0  0  0  0
 14 15  1  0  0  0  0
 15 16  1  0  0  0  0
 16 17  1  0  0  0  0
 17 18  1  0  0  0  0
 18 19  1  0  0  0  0
 19 21  1  0  0  0  0
 21 20  1  1  0  0  0
 22 21  1  0  0  0  0
 22 23  1  0  0  0  0
 23 24  1  6  0  0  0
 23 25  1  0  0  0  0
 26 25  1  0  0  0  0
 28 27  1  6  0  0  0
 29 28  1  0  0  0  0
 29 33  1  0  0  0  0
 30 33  2  0  0  0  0
 30 32  1  0  0  0  0
 32 35  2  0  0  0  0
 33 34  1  0  0  0  0
 34 31  2  0  0  0  0
 35 31  1  0  0  0  0
 36 39  1  0  0  0  0
 37 39  2  0  0  0  0
 38 32  1  0  0  0  0
 39 38  1  0  0  0  0
 40 42  1  0  0  0  0
 41 45  1  0  0  0  0
 41 44  1  0  0  0  0
 42 43  1  0  0  0  0
 42 36  1  0  0  0  0
 44 43  1  0  0  0  0
 45 40  1  0  0  0  0
M  END
>  <MODEL>
6

>  <REMARK>
 VINA RESULT:      -4.8      2.446      8.722
  Name = 
  17 active torsions:
  status: ('A' for Active; 'I' for Inactive)
    1  A    between atoms: N_1  and  C_10
    2  A    between atoms: N_2  and  C_29
    3  A    between atoms: C_3  and  C_26
    4  A    between atoms: C_5  and  C_11
    5  A    between atoms: C_5  and  O_21
    6  A    between atoms: C_8  and  C_9
    7  A    between atoms: C_8  and  C_13
    8  A    between atoms: C_9  and  C_42
    9  A    between atoms: C_11  and  C_34
   10  A    between atoms: C_19  and  O_21
   11  A    between atoms: C_19  and  O_33
   12  A    between atoms: C_26  and  N_30
   13  A    between atoms: N_30  and  C_37
   14  A    between atoms: N_32  and  C_35
   15  A    between atoms: O_33  and  C_45
   16  A    between atoms: C_39  and  C_44
   17  A    between atoms: C_42  and  C_45
                            x       y       z     vdW  Elec       q    Type
                         _______ _______ _______ _____ _____    ______ ____

>  <TORSDO>
F 17

$$$$
=
 OpenBabel11042421373D

 45 47  0  0  1  0  0  0  0  0999 V2000
  160.1880  212.1830  140.7110 C   0  0  2  0  0  3  0  0  0  0  0  0
  157.9230  213.0700  140.2990 C   0  0  0  0  0  3  0  0  0  0  0  0
  158.1520  212.8040  138.8440 C   0  0  0  0  0  2  0  0  0  0  0  0
  158.8820  212.7700  141.1800 C   0  0  0  0  0  3  0  0  0  0  0  0
  159.9510  211.1340  139.5930 C   0  0  1  0  0  3  0  0  0  0  0  0
  158.7500  211.4080  138.6610 C   0  0  0  0  0  2  0  0  0  0  0  0
  161.1650  210.8470  138.8170 N   0  0  0  0  0  0  0  0  0  0  0  0
  163.0900  211.7710  137.8300 O   0  0  0  0  0  0  0  0  0  0  0  0
  161.5450  209.4850  138.5020 C   0  0  0  0  0  0  0  0  0  0  0  0
  162.3460  209.2480  137.5590 O   0  0  0  0  0  0  0  0  0  0  0  0
  161.9810  211.9620  138.3970 C   0  0  0  0  0  0  0  0  0  0  0  0
  161.3570  214.1010  137.3420 C   0  0  0  0  0  1  0  0  0  0  0  0
  161.5490  213.3700  138.6550 C   0  0  0  0  0  2  0  0  0  0  0  0
  160.9920  208.3280  139.2720 C   0  0  0  0  0  2  0  0  0  0  0  0
  162.0610  207.6900  140.1440 C   0  0  0  0  0  2  0  0  0  0  0  0
  161.6450  206.4260  140.5680 O   0  0  0  0  0  0  0  0  0  0  0  0
  162.2940  206.2260  141.7870 C   0  0  0  0  0  2  0  0  0  0  0  0
  161.4230  205.6050  142.6820 O   0  0  0  0  0  0  0  0  0  0  0  0
  162.0680  205.6820  143.9180 C   0  0  0  0  0  2  0  0  0  0  0  0
  160.0770  206.2350  145.2930 C   0  0  0  0  0  1  0  0  0  0  0  0
  161.1430  205.1920  145.0180 C   0  0  2  0  0  3  0  0  0  0  0  0
  161.9480  204.9570  146.2870 C   0  0  0  0  0  2  0  0  0  0  0  0
  161.3520  205.6530  147.5110 C   0  0  1  0  0  3  0  0  0  0  0  0
  160.9220  204.7240  148.4640 O   0  0  0  0  0  1  0  0  0  0  0  0
  162.2800  206.6980  148.1270 C   0  0  0  0  0  2  0  0  0  0  0  0
  161.5700  207.9410  148.3840 N   0  0  0  0  0  1  0  0  0  0  0  0
  162.2280  212.1500  141.9900 O   0  0  0  0  0  1  0  0  0  0  0  0
  160.9510  211.5910  141.8990 C   0  0  1  0  0  3  0  0  0  0  0  0
  160.2270  211.8570  143.1370 N   0  0  0  0  0  2  0  0  0  0  0  0
  160.0530  212.8110  145.4090 C   0  0  0  0  0  3  0  0  0  0  0  0
  162.6760  213.6470  145.2350 N   0  0  0  0  0  0  0  0  0  0  0  0
  160.6350  213.4940  146.4790 C   0  0  0  0  0  0  0  0  0  0  0  0
  160.7950  212.5510  144.2510 C   0  0  0  0  0  0  0  0  0  0  0  0
  162.1210  212.9850  144.1860 C   0  0  0  0  0  3  0  0  0  0  0  0
  161.9690  213.9060  146.3670 C   0  0  0  0  0  3  0  0  0  0  0  0
  159.2890  213.7310  150.0550 N   0  0  0  0  0  2  0  0  0  0  0  0
  161.2950  212.8460  149.2660 O   0  0  0  0  0  0  0  0  0  0  0  0
  159.8510  213.7450  147.6530 N   0  0  0  0  0  2  0  0  0  0  0  0
  160.1990  213.4080  149.0020 C   0  0  0  0  0  0  0  0  0  0  0  0
  158.8690  214.4530  152.3540 C   0  0  0  0  0  2  0  0  0  0  0  0
  157.6690  212.6810  153.6920 C   0  0  0  0  0  2  0  0  0  0  0  0
  159.5550  213.4170  151.4510 C   0  0  0  0  0  3  0  0  0  0  0  0
  159.1300  211.9710  151.7530 C   0  0  0  0  0  2  0  0  0  0  0  0
  158.8300  211.7850  153.2360 C   0  0  0  0  0  2  0  0  0  0  0  0
  157.5160  213.9580  152.8570 C   0  0  0  0  0  2  0  0  0  0  0  0
  1  4  1  0  0  0  0
  1 28  1  1  0  0  0
  2  4  2  0  0  0  0
  3  2  1  0  0  0  0
  5  7  1  6  0  0  0
  5  1  1  0  0  0  0
  6  3  1  0  0  0  0
  6  5  1  0  0  0  0
  8 11  2  0  0  0  0
  9  7  1  0  0  0  0
  9 14  1  0  0  0  0
 10  9  2  0  0  0  0
 11 13  1  0  0  0  0
 11  7  1  0  0  0  0
 12 13  1  0  0  0  0
 14 15  1  0  0  0  0
 15 16  1  0  0  0  0
 16 17  1  0  0  0  0
 17 18  1  0  0  0  0
 18 19  1  0  0  0  0
 19 21  1  0  0  0  0
 21 20  1  1  0  0  0
 21 22  1  0  0  0  0
 22 23  1  0  0  0  0
 23 25  1  0  0  0  0
 23 24  1  1  0  0  0
 25 26  1  0  0  0  0
 28 27  1  1  0  0  0
 28 29  1  0  0  0  0
 29 33  1  0  0  0  0
 30 32  1  0  0  0  0
 31 35  1  0  0  0  0
 32 38  1  0  0  0  0
 33 30  2  0  0  0  0
 34 33  1  0  0  0  0
 34 31  2  0  0  0  0
 35 32  2  0  0  0  0
 36 42  1  0  0  0  0
 38 39  1  0  0  0  0
 39 37  2  0  0  0  0
 39 36  1  0  0  0  0
 40 45  1  0  0  0  0
 42 43  1  0  0  0  0
 42 40  1  0  0  0  0
 43 44  1  0  0  0  0
 44 41  1  0  0  0  0
 45 41  1  0  0  0  0
M  END
>  <MODEL>
7

>  <REMARK>
 VINA RESULT:      -4.6      3.980     10.897
  Name = 
  17 active torsions:
  status: ('A' for Active; 'I' for Inactive)
    1  A    between atoms: N_1  and  C_10
    2  A    between atoms: N_2  and  C_29
    3  A    between atoms: C_3  and  C_26
    4  A    between atoms: C_5  and  C_11
    5  A    between atoms: C_5  and  O_21
    6  A    between atoms: C_8  and  C_9
    7  A    between atoms: C_8  and  C_13
    8  A    between atoms: C_9  and  C_42
    9  A    between atoms: C_11  and  C_34
   10  A    between atoms: C_19  and  O_21
   11  A    between atoms: C_19  and  O_33
   12  A    between atoms: C_26  and  N_30
   13  A    between atoms: N_30  and  C_37
   14  A    between atoms: N_32  and  C_35
   15  A    between atoms: O_33  and  C_45
   16  A    between atoms: C_39  and  C_44
   17  A    between atoms: C_42  and  C_45
                            x       y       z     vdW  Elec       q    Type
                         _______ _______ _______ _____ _____    ______ ____

>  <TORSDO>
F 17

$$$$
=
 OpenBabel11042421373D

 45 47  0  0  1  0  0  0  0  0999 V2000
  160.7130  204.4690  149.6240 C   0  0  2  0  0  3  0  0  0  0  0  0
  161.2260  203.5560  151.8580 C   0  0  0  0  0  3  0  0  0  0  0  0
  161.1710  202.1920  151.2430 C   0  0  0  0  0  2  0  0  0  0  0  0
  161.0170  204.6300  151.0920 C   0  0  0  0  0  3  0  0  0  0  0  0
  161.5950  203.3570  148.9970 C   0  0  1  0  0  3  0  0  0  0  0  0
  161.9570  202.1830  149.9320 C   0  0  0  0  0  2  0  0  0  0  0  0
  161.0660  202.8680  147.7170 N   0  0  0  0  0  0  0  0  0  0  0  0
  159.4310  201.5240  146.6890 O   0  0  0  0  0  0  0  0  0  0  0  0
  161.5810  203.3650  146.4570 C   0  0  0  0  0  0  0  0  0  0  0  0
  161.4090  202.7110  145.3950 O   0  0  0  0  0  0  0  0  0  0  0  0
  160.0010  201.8930  147.7510 C   0  0  0  0  0  0  0  0  0  0  0  0
  158.0180  201.1410  149.0070 C   0  0  0  0  0  1  0  0  0  0  0  0
  159.5220  201.3230  149.0480 C   0  0  0  0  0  2  0  0  0  0  0  0
  162.3400  204.6520  146.3840 C   0  0  0  0  0  2  0  0  0  0  0  0
  161.4680  205.7710  145.8360 C   0  0  0  0  0  2  0  0  0  0  0  0
  160.8520  205.3630  144.6520 O   0  0  0  0  0  0  0  0  0  0  0  0
  161.8380  205.4940  143.6730 C   0  0  0  0  0  2  0  0  0  0  0  0
  161.2550  205.9100  142.4760 O   0  0  0  0  0  0  0  0  0  0  0  0
  162.3310  206.2410  141.6520 C   0  0  0  0  0  2  0  0  0  0  0  0
  162.6180  206.2020  139.1870 C   0  0  0  0  0  1  0  0  0  0  0  0
  161.8240  206.7980  140.3330 C   0  0  2  0  0  3  0  0  0  0  0  0
  161.9950  208.3100  140.3240 C   0  0  0  0  0  2  0  0  0  0  0  0
  161.5370  208.9560  139.0150 C   0  0  1  0  0  3  0  0  0  0  0  0
  160.2890  208.4660  138.6170 O   0  0  0  0  0  1  0  0  0  0  0  0
  161.5530  210.4820  139.0530 C   0  0  0  0  0  2  0  0  0  0  0  0
  162.7790  211.0070  138.4750 N   0  0  0  0  0  1  0  0  0  0  0  0
  159.7290  206.5850  149.0320 O   0  0  0  0  0  1  0  0  0  0  0  0
  160.8840  205.8100  148.9050 C   0  0  1  0  0  3  0  0  0  0  0  0
  162.0100  206.5390  149.4750 N   0  0  0  0  0  2  0  0  0  0  0  0
  161.9970  208.4560  151.0330 C   0  0  0  0  0  3  0  0  0  0  0  0
  161.9520  210.1780  148.8790 N   0  0  0  0  0  0  0  0  0  0  0  0
  161.9770  209.8350  151.2490 C   0  0  0  0  0  0  0  0  0  0  0  0
  161.9930  207.9460  149.7290 C   0  0  0  0  0  0  0  0  0  0  0  0
  161.9700  208.8370  148.6550 C   0  0  0  0  0  3  0  0  0  0  0  0
  161.9560  210.6890  150.1390 C   0  0  0  0  0  3  0  0  0  0  0  0
  161.0330  211.1780  154.7070 N   0  0  0  0  0  2  0  0  0  0  0  0
  159.6740  210.5870  152.9090 O   0  0  0  0  0  0  0  0  0  0  0  0
  161.9830  210.3300  152.5950 N   0  0  0  0  0  2  0  0  0  0  0  0
  160.8390  210.6960  153.3760 C   0  0  0  0  0  0  0  0  0  0  0  0
  159.6250  213.0720  155.3480 C   0  0  0  0  0  2  0  0  0  0  0  0
  157.1840  212.6320  154.8780 C   0  0  0  0  0  2  0  0  0  0  0  0
  159.9300  211.5840  155.5670 C   0  0  0  0  0  3  0  0  0  0  0  0
  158.7170  210.6720  155.3290 C   0  0  0  0  0  2  0  0  0  0  0  0
  157.4190  211.3710  155.7210 C   0  0  0  0  0  2  0  0  0  0  0  0
  158.4780  213.2750  154.3630 C   0  0  0  0  0  2  0  0  0  0  0  0
  1 28  1  6  0  0  0
  1  4  1  0  0  0  0
  3  2  1  0  0  0  0
  4  2  2  0  0  0  0
  5  7  1  6  0  0  0
  5  1  1  0  0  0  0
  5  6  1  0  0  0  0
  6  3  1  0  0  0  0
  7 11  1  0  0  0  0
  8 11  2  0  0  0  0
  9  7  1  0  0  0  0
 10  9  2  0  0  0  0
 11 13  1  0  0  0  0
 12 13  1  0  0  0  0
 14  9  1  0  0  0  0
 15 14  1  0  0  0  0
 16 15  1  0  0  0  0
 17 16  1  0  0  0  0
 18 17  1  0  0  0  0
 19 18  1  0  0  0  0
 21 20  1  6  0  0  0
 21 19  1  0  0  0  0
 22 21  1  0  0  0  0
 23 24  1  1  0  0  0
 23 25  1  0  0  0  0
 23 22  1  0  0  0  0
 26 25  1  0  0  0  0
 28 27  1  1  0  0  0
 28 29  1  0  0  0  0
 29 33  1  0  0  0  0
 30 32  1  0  0  0  0
 31 35  1  0  0  0  0
 32 38  1  0  0  0  0
 33 30  2  0  0  0  0
 34 31  2  0  0  0  0
 34 33  1  0  0  0  0
 35 32  2  0  0  0  0
 36 42  1  0  0  0  0
 37 39  2  0  0  0  0
 38 39  1  0  0  0  0
 39 36  1  0  0  0  0
 40 42  1  0  0  0  0
 41 44  1  0  0  0  0
 43 42  1  0  0  0  0
 43 44  1  0  0  0  0
 45 41  1  0  0  0  0
 45 40  1  0  0  0  0
M  END
>  <MODEL>
8

>  <REMARK>
 VINA RESULT:      -3.9      3.460      8.889
  Name = 
  17 active torsions:
  status: ('A' for Active; 'I' for Inactive)
    1  A    between atoms: N_1  and  C_10
    2  A    between atoms: N_2  and  C_29
    3  A    between atoms: C_3  and  C_26
    4  A    between atoms: C_5  and  C_11
    5  A    between atoms: C_5  and  O_21
    6  A    between atoms: C_8  and  C_9
    7  A    between atoms: C_8  and  C_13
    8  A    between atoms: C_9  and  C_42
    9  A    between atoms: C_11  and  C_34
   10  A    between atoms: C_19  and  O_21
   11  A    between atoms: C_19  and  O_33
   12  A    between atoms: C_26  and  N_30
   13  A    between atoms: N_30  and  C_37
   14  A    between atoms: N_32  and  C_35
   15  A    between atoms: O_33  and  C_45
   16  A    between atoms: C_39  and  C_44
   17  A    between atoms: C_42  and  C_45
                            x       y       z     vdW  Elec       q    Type
                         _______ _______ _______ _____ _____    ______ ____

>  <TORSDO>
F 17

$$$$
