=
 OpenBabel11042421413D

 47 53  0  0  1  0  0  0  0  0999 V2000
  159.9260  205.8180  150.3820 F   0  0  0  0  0  0  0  0  0  0  0  0
  160.6360  209.8700  151.9330 C   0  0  1  0  0  3  0  0  0  0  0  0
  161.2140  207.8350  150.3680 C   0  0  0  0  0  0  0  0  0  0  0  0
  162.4730  210.0890  150.2130 C   0  0  1  0  0  3  0  0  0  0  0  0
  162.4990  208.3920  148.3820 C   0  0  0  0  0  3  0  0  0  0  0  0
  162.0350  210.3990  151.6460 C   0  0  0  0  0  2  0  0  0  0  0  0
  160.7790  208.0760  152.0990 S   0  0  0  0  0  0  0  0  0  0  0  0
  160.7470  206.6770  149.7230 C   0  0  0  0  0  0  0  0  0  0  0  0
  162.0710  208.7270  149.6750 C   0  0  0  0  0  0  0  0  0  0  0  0
  161.1670  206.3770  148.4190 C   0  0  0  0  0  0  0  0  0  0  0  0
  162.0580  207.2240  147.7620 C   0  0  0  0  0  3  0  0  0  0  0  0
  160.2570  210.7950  155.5670 N   0  0  0  0  0  0  0  0  0  0  0  0
  157.2760  212.6270  154.6860 C   0  0  0  0  0  2  0  0  0  0  0  0
  157.4620  212.7790  156.1810 C   0  0  0  0  0  3  0  0  0  0  0  0
  160.0540  210.4520  153.1860 C   0  0  0  0  0  0  0  0  0  0  0  0
  158.8930  211.2530  153.1670 C   0  0  0  0  0  3  0  0  0  0  0  0
  158.5140  212.1690  156.6410 N   0  0  0  0  0  0  0  0  0  0  0  0
  160.7300  210.2450  154.4100 C   0  0  0  0  0  3  0  0  0  0  0  0
  159.1320  211.5510  155.5300 C   0  0  0  0  0  0  0  0  0  0  0  0
  158.4540  211.7840  154.3750 C   0  0  0  0  0  0  0  0  0  0  0  0
  162.8870  211.8840  148.5880 C   0  0  0  0  0  3  0  0  0  0  0  0
  162.0070  211.1790  149.2960 C   0  0  0  0  0  3  0  0  0  0  0  0
  162.3260  213.1730  147.4820 S   0  0  0  0  0  0  0  0  0  0  0  0
  158.3950  212.5610  146.7860 N   0  0  0  0  0  0  0  0  0  0  0  0
  158.3650  213.6310  147.7820 C   0  0  0  0  0  2  0  0  0  0  0  0
  159.8100  212.3840  146.4160 C   0  0  2  0  0  3  0  0  0  0  0  0
  159.7630  213.7740  148.3660 C   0  0  0  0  0  2  0  0  0  0  0  0
  160.5760  212.6930  147.6940 C   0  0  2  0  0  3  0  0  0  0  0  0
  162.2240  212.7800  142.2870 C   0  0  0  0  0  1  0  0  0  0  0  0
  160.7300  212.6690  142.5140 C   0  0  0  0  0  0  0  0  0  0  0  0
  159.7720  213.5180  141.7050 C   0  0  0  0  0  1  0  0  0  0  0  0
  160.2560  213.2340  145.2420 C   0  0  0  0  0  0  0  0  0  0  0  0
  160.3770  212.6380  143.9570 N   0  0  0  0  0  0  0  0  0  0  0  0
  160.2530  211.4790  143.0150 C   0  0  0  0  0  2  0  0  0  0  0  0
  160.5430  214.4520  145.3950 O   0  0  0  0  0  0  0  0  0  0  0  0
  157.5230  212.9270  145.6720 C   0  0  0  0  0  2  0  0  0  0  0  0
  156.5450  213.9030  146.1160 N   0  0  0  0  0  1  0  0  0  0  0  0
  160.7300  205.1170  147.7430 C   0  0  0  0  0  2  0  0  0  0  0  0
  161.8700  204.2310  147.5390 N   0  0  0  0  0  2  0  0  0  0  0  0
  160.9310  202.5930  150.6680 C   0  0  0  0  0  0  0  0  0  0  0  0
  160.5830  201.2140  150.1900 C   0  0  0  0  0  2  0  0  0  0  0  0
  159.8140  201.3160  148.8690 C   0  0  0  0  0  2  0  0  0  0  0  0
  160.6650  202.9630  151.9470 F   0  0  0  0  0  0  0  0  0  0  0  0
  161.6730  203.0590  148.3770 C   0  0  2  0  0  3  0  0  0  0  0  0
  160.5250  202.1950  147.8200 C   0  0  1  0  0  3  0  0  0  0  0  0
  161.0040  201.3940  146.7830 O   0  0  0  0  0  1  0  0  0  0  0  0
  161.4220  203.4810  149.8000 C   0  0  0  0  0  3  0  0  0  0  0  0
  2  7  1  0  0  0  0
  2 15  1  1  0  0  0
  3  7  1  0  0  0  0
  4 22  1  6  0  0  0
  4  6  1  0  0  0  0
  5  9  1  0  0  0  0
  6  2  1  0  0  0  0
  8  3  1  0  0  0  0
  8  1  1  0  0  0  0
  9  4  1  0  0  0  0
  9  3  2  0  0  0  0
 10  8  2  0  0  0  0
 11  5  2  0  0  0  0
 11 10  1  0  0  0  0
 13 14  1  0  0  0  0
 14 17  2  0  0  0  0
 15 18  2  0  0  0  0
 16 15  1  0  0  0  0
 16 20  2  0  0  0  0
 18 12  1  0  0  0  0
 19 12  2  0  0  0  0
 19 17  1  0  0  0  0
 20 13  1  0  0  0  0
 20 19  1  0  0  0  0
 21 22  2  0  0  0  0
 23 21  1  0  0  0  0
 24 25  1  0  0  0  0
 25 27  1  0  0  0  0
 26 32  1  6  0  0  0
 26 24  1  0  0  0  0
 26 28  1  0  0  0  0
 28 23  1  6  0  0  0
 28 27  1  0  0  0  0
 29 30  1  0  0  0  0
 30 34  1  0  0  0  0
 30 33  1  0  0  0  0
 31 30  1  0  0  0  0
 32 35  2  0  0  0  0
 33 32  1  0  0  0  0
 34 33  1  0  0  0  0
 36 37  1  0  0  0  0
 36 24  1  0  0  0  0
 38 10  1  0  0  0  0
 39 38  1  0  0  0  0
 40 43  1  0  0  0  0
 41 40  1  0  0  0  0
 42 41  1  0  0  0  0
 44 39  1  6  0  0  0
 44 47  1  0  0  0  0
 45 46  1  6  0  0  0
 45 44  1  0  0  0  0
 45 42  1  0  0  0  0
 47 40  2  0  0  0  0
M  END
>  <MODEL>
1

>  <REMARK>
 VINA RESULT:      -8.7      0.000      0.000
  Name = 
  9 active torsions:
  status: ('A' for Active; 'I' for Inactive)
    1  A    between atoms: C_2  and  S_16
    2  A    between atoms: C_7  and  C_17
    3  A    between atoms: C_10  and  C_21
    4  A    between atoms: S_16  and  C_46
    5  A    between atoms: C_19  and  N_29
    6  A    between atoms: C_19  and  C_37
    7  A    between atoms: N_20  and  C_30
    8  A    between atoms: C_22  and  C_31
    9  A    between atoms: C_26  and  N_29
                            x       y       z     vdW  Elec       q    Type
                         _______ _______ _______ _____ _____    ______ ____

>  <TORSDO>
F 9

$$$$
=
 OpenBabel11042421413D

 47 53  0  0  1  0  0  0  0  0999 V2000
  161.5810  209.7110  147.9080 F   0  0  0  0  0  0  0  0  0  0  0  0
  161.4050  206.1290  150.4520 C   0  0  1  0  0  3  0  0  0  0  0  0
  161.9410  208.6720  150.0340 C   0  0  0  0  0  0  0  0  0  0  0  0
  162.1340  207.5940  152.3770 C   0  0  1  0  0  3  0  0  0  0  0  0
  161.9780  210.0610  152.0270 C   0  0  0  0  0  3  0  0  0  0  0  0
  162.2650  206.2260  151.7050 C   0  0  0  0  0  2  0  0  0  0  0  0
  162.2260  207.1130  149.1770 S   0  0  0  0  0  0  0  0  0  0  0  0
  161.6860  209.8160  149.2590 C   0  0  0  0  0  0  0  0  0  0  0  0
  162.0500  208.7880  151.4430 C   0  0  0  0  0  0  0  0  0  0  0  0
  161.5900  211.0750  149.8680 C   0  0  0  0  0  0  0  0  0  0  0  0
  161.7580  211.1960  151.2470 C   0  0  0  0  0  3  0  0  0  0  0  0
  160.7210  202.4240  150.5280 N   0  0  0  0  0  0  0  0  0  0  0  0
  161.1930  202.3660  146.9510 C   0  0  0  0  0  2  0  0  0  0  0  0
  160.8770  200.9480  147.3780 C   0  0  0  0  0  3  0  0  0  0  0  0
  161.2440  204.7160  149.9800 C   0  0  0  0  0  0  0  0  0  0  0  0
  161.3420  204.3700  148.6150 C   0  0  0  0  0  3  0  0  0  0  0  0
  160.6740  200.8200  148.6550 N   0  0  0  0  0  0  0  0  0  0  0  0
  160.9180  203.7160  150.9240 C   0  0  0  0  0  3  0  0  0  0  0  0
  160.8320  202.1090  149.2140 C   0  0  0  0  0  0  0  0  0  0  0  0
  161.1350  203.0400  148.2690 C   0  0  0  0  0  0  0  0  0  0  0  0
  161.1680  207.7580  154.6300 C   0  0  0  0  0  3  0  0  0  0  0  0
  160.9730  207.5820  153.3250 C   0  0  0  0  0  3  0  0  0  0  0  0
  159.7790  207.7590  155.7570 S   0  0  0  0  0  0  0  0  0  0  0  0
  160.5410  211.4350  157.2440 N   0  0  0  0  0  0  0  0  0  0  0  0
  161.7730  211.1410  156.5120 C   0  0  0  0  0  2  0  0  0  0  0  0
  159.6010  210.3480  156.9190 C   0  0  2  0  0  3  0  0  0  0  0  0
  161.7600  209.6660  156.1380 C   0  0  0  0  0  2  0  0  0  0  0  0
  160.4870  209.1240  156.7430 C   0  0  2  0  0  3  0  0  0  0  0  0
  155.2540  210.3660  154.8890 C   0  0  0  0  0  1  0  0  0  0  0  0
  156.0680  211.5320  155.4130 C   0  0  0  0  0  0  0  0  0  0  0  0
  156.1210  212.8320  154.6400 C   0  0  0  0  0  1  0  0  0  0  0  0
  158.7270  210.6210  155.7120 C   0  0  0  0  0  0  0  0  0  0  0  0
  157.4060  211.1100  155.9040 N   0  0  0  0  0  0  0  0  0  0  0  0
  156.2830  211.5920  156.7710 C   0  0  0  0  0  2  0  0  0  0  0  0
  159.1470  210.3990  154.5430 O   0  0  0  0  0  0  0  0  0  0  0  0
  160.0730  212.7670  156.8660 C   0  0  0  0  0  2  0  0  0  0  0  0
  161.0540  213.7610  157.2610 N   0  0  0  0  0  1  0  0  0  0  0  0
  161.3830  212.3100  149.0510 C   0  0  0  0  0  2  0  0  0  0  0  0
  162.5190  212.5250  148.1630 N   0  0  0  0  0  2  0  0  0  0  0  0
  162.5970  213.3090  144.5940 C   0  0  0  0  0  0  0  0  0  0  0  0
  161.1870  213.7640  144.3580 C   0  0  0  0  0  2  0  0  0  0  0  0
  160.2270  212.8640  145.1430 C   0  0  0  0  0  2  0  0  0  0  0  0
  163.4370  213.1070  143.5470 F   0  0  0  0  0  0  0  0  0  0  0  0
  162.0290  213.2120  146.9790 C   0  0  2  0  0  3  0  0  0  0  0  0
  160.6110  212.7190  146.6290 C   0  0  1  0  0  3  0  0  0  0  0  0
  159.6760  213.3860  147.4220 O   0  0  0  0  0  1  0  0  0  0  0  0
  162.9900  213.0160  145.8370 C   0  0  0  0  0  3  0  0  0  0  0  0
  1  8  1  0  0  0  0
  2 15  1  6  0  0  0
  2  6  1  0  0  0  0
  3  9  1  0  0  0  0
  4 22  1  6  0  0  0
  6  4  1  0  0  0  0
  7  3  1  0  0  0  0
  7  2  1  0  0  0  0
  8 10  1  0  0  0  0
  8  3  2  0  0  0  0
  9  5  2  0  0  0  0
  9  4  1  0  0  0  0
 10 11  2  0  0  0  0
 11  5  1  0  0  0  0
 12 18  1  0  0  0  0
 13 14  1  0  0  0  0
 13 20  1  0  0  0  0
 14 17  2  0  0  0  0
 15 18  2  0  0  0  0
 16 15  1  0  0  0  0
 17 19  1  0  0  0  0
 19 12  2  0  0  0  0
 20 16  2  0  0  0  0
 20 19  1  0  0  0  0
 21 23  1  0  0  0  0
 22 21  2  0  0  0  0
 25 24  1  0  0  0  0
 26 32  1  6  0  0  0
 26 24  1  0  0  0  0
 27 25  1  0  0  0  0
 27 28  1  0  0  0  0
 28 23  1  6  0  0  0
 28 26  1  0  0  0  0
 29 30  1  0  0  0  0
 30 33  1  0  0  0  0
 30 34  1  0  0  0  0
 31 30  1  0  0  0  0
 32 33  1  0  0  0  0
 33 34  1  0  0  0  0
 35 32  2  0  0  0  0
 36 24  1  0  0  0  0
 36 37  1  0  0  0  0
 38 10  1  0  0  0  0
 39 38  1  0  0  0  0
 40 47  2  0  0  0  0
 41 40  1  0  0  0  0
 41 42  1  0  0  0  0
 42 45  1  0  0  0  0
 43 40  1  0  0  0  0
 44 39  1  1  0  0  0
 45 44  1  0  0  0  0
 45 46  1  1  0  0  0
 47 44  1  0  0  0  0
M  END
>  <MODEL>
2

>  <REMARK>
 VINA RESULT:      -8.3      3.256      9.995
  Name = 
  9 active torsions:
  status: ('A' for Active; 'I' for Inactive)
    1  A    between atoms: C_2  and  S_16
    2  A    between atoms: C_7  and  C_17
    3  A    between atoms: C_10  and  C_21
    4  A    between atoms: S_16  and  C_46
    5  A    between atoms: C_19  and  N_29
    6  A    between atoms: C_19  and  C_37
    7  A    between atoms: N_20  and  C_30
    8  A    between atoms: C_22  and  C_31
    9  A    between atoms: C_26  and  N_29
                            x       y       z     vdW  Elec       q    Type
                         _______ _______ _______ _____ _____    ______ ____

>  <TORSDO>
F 9

$$$$
=
 OpenBabel11042421413D

 47 53  0  0  1  0  0  0  0  0999 V2000
  160.0990  205.4110  150.3430 F   0  0  0  0  0  0  0  0  0  0  0  0
  160.5860  209.5470  151.7540 C   0  0  1  0  0  3  0  0  0  0  0  0
  161.2950  207.4840  150.2820 C   0  0  0  0  0  0  0  0  0  0  0  0
  162.4530  209.7860  150.0700 C   0  0  1  0  0  3  0  0  0  0  0  0
  162.6030  208.0250  148.3070 C   0  0  0  0  0  3  0  0  0  0  0  0
  161.9660  210.1280  151.4800 C   0  0  0  0  0  2  0  0  0  0  0  0
  160.8060  207.7680  151.9920 S   0  0  0  0  0  0  0  0  0  0  0  0
  160.8970  206.2820  149.6710 C   0  0  0  0  0  0  0  0  0  0  0  0
  162.1280  208.3880  149.5760 C   0  0  0  0  0  0  0  0  0  0  0  0
  161.3630  205.9530  148.3900 C   0  0  0  0  0  0  0  0  0  0  0  0
  162.2310  206.8160  147.7220 C   0  0  0  0  0  3  0  0  0  0  0  0
  159.9310  210.3660  155.3750 N   0  0  0  0  0  0  0  0  0  0  0  0
  157.3090  212.5950  154.2910 C   0  0  0  0  0  2  0  0  0  0  0  0
  157.3490  212.6620  155.8030 C   0  0  0  0  0  3  0  0  0  0  0  0
  159.9470  210.1470  152.9700 C   0  0  0  0  0  0  0  0  0  0  0  0
  158.9010  211.0890  152.8750 C   0  0  0  0  0  3  0  0  0  0  0  0
  158.2620  211.9060  156.3360 N   0  0  0  0  0  0  0  0  0  0  0  0
  160.4560  209.8070  154.2440 C   0  0  0  0  0  3  0  0  0  0  0  0
  158.9170  211.2590  155.2630 C   0  0  0  0  0  0  0  0  0  0  0  0
  158.4020  211.6230  154.0580 C   0  0  0  0  0  0  0  0  0  0  0  0
  162.7530  211.8210  148.7280 C   0  0  0  0  0  3  0  0  0  0  0  0
  161.9620  210.8180  149.1020 C   0  0  0  0  0  3  0  0  0  0  0  0
  162.1680  213.0420  147.5590 S   0  0  0  0  0  0  0  0  0  0  0  0
  158.2010  212.5070  147.0240 N   0  0  0  0  0  0  0  0  0  0  0  0
  158.2320  213.5330  148.0650 C   0  0  0  0  0  2  0  0  0  0  0  0
  159.5950  212.3300  146.5800 C   0  0  2  0  0  3  0  0  0  0  0  0
  159.6580  213.6340  148.5880 C   0  0  0  0  0  2  0  0  0  0  0  0
  160.4240  212.5740  147.8330 C   0  0  2  0  0  3  0  0  0  0  0  0
  161.9820  212.9300  142.4610 C   0  0  0  0  0  1  0  0  0  0  0  0
  160.4960  212.7410  142.6850 C   0  0  0  0  0  0  0  0  0  0  0  0
  159.4970  213.5570  141.8940 C   0  0  0  0  0  1  0  0  0  0  0  0
  159.9980  213.2240  145.4240 C   0  0  0  0  0  0  0  0  0  0  0  0
  160.1470  212.6620  144.1270 N   0  0  0  0  0  0  0  0  0  0  0  0
  160.0790  211.5180  143.1610 C   0  0  0  0  0  2  0  0  0  0  0  0
  160.2240  214.4520  145.6020 O   0  0  0  0  0  0  0  0  0  0  0  0
  157.2840  212.9310  145.9690 C   0  0  0  0  0  2  0  0  0  0  0  0
  156.7040  214.2160  146.3120 N   0  0  0  0  0  1  0  0  0  0  0  0
  161.0000  204.6500  147.7530 C   0  0  0  0  0  2  0  0  0  0  0  0
  161.2540  203.5490  148.6740 N   0  0  0  0  0  2  0  0  0  0  0  0
  160.5440  201.4510  145.7660 C   0  0  0  0  0  0  0  0  0  0  0  0
  160.5530  200.0820  146.3780 C   0  0  0  0  0  2  0  0  0  0  0  0
  161.6920  199.9900  147.3970 C   0  0  0  0  0  2  0  0  0  0  0  0
  160.4920  201.6000  144.4180 F   0  0  0  0  0  0  0  0  0  0  0  0
  160.7730  202.3290  148.0460 C   0  0  2  0  0  3  0  0  0  0  0  0
  161.6870  201.1450  148.4180 C   0  0  1  0  0  3  0  0  0  0  0  0
  161.3310  200.6580  149.6760 O   0  0  0  0  0  1  0  0  0  0  0  0
  160.6800  202.5200  146.5550 C   0  0  0  0  0  3  0  0  0  0  0  0
  2  7  1  0  0  0  0
  2 15  1  1  0  0  0
  3  7  1  0  0  0  0
  4 22  1  6  0  0  0
  4  6  1  0  0  0  0
  5  9  1  0  0  0  0
  6  2  1  0  0  0  0
  8  3  1  0  0  0  0
  8  1  1  0  0  0  0
  9  4  1  0  0  0  0
  9  3  2  0  0  0  0
 10  8  2  0  0  0  0
 11  5  2  0  0  0  0
 11 10  1  0  0  0  0
 13 14  1  0  0  0  0
 14 17  2  0  0  0  0
 15 18  2  0  0  0  0
 16 15  1  0  0  0  0
 16 20  2  0  0  0  0
 18 12  1  0  0  0  0
 19 12  2  0  0  0  0
 19 17  1  0  0  0  0
 20 13  1  0  0  0  0
 20 19  1  0  0  0  0
 21 22  2  0  0  0  0
 23 21  1  0  0  0  0
 24 25  1  0  0  0  0
 25 27  1  0  0  0  0
 26 32  1  6  0  0  0
 26 24  1  0  0  0  0
 26 28  1  0  0  0  0
 28 23  1  6  0  0  0
 28 27  1  0  0  0  0
 29 30  1  0  0  0  0
 30 34  1  0  0  0  0
 30 33  1  0  0  0  0
 31 30  1  0  0  0  0
 32 35  2  0  0  0  0
 33 32  1  0  0  0  0
 34 33  1  0  0  0  0
 36 37  1  0  0  0  0
 36 24  1  0  0  0  0
 38 10  1  0  0  0  0
 38 39  1  0  0  0  0
 40 41  1  0  0  0  0
 40 47  2  0  0  0  0
 41 42  1  0  0  0  0
 42 45  1  0  0  0  0
 43 40  1  0  0  0  0
 44 45  1  0  0  0  0
 44 39  1  1  0  0  0
 45 46  1  1  0  0  0
 47 44  1  0  0  0  0
M  END
>  <MODEL>
3

>  <REMARK>
 VINA RESULT:      -8.3      1.404      1.727
  Name = 
  9 active torsions:
  status: ('A' for Active; 'I' for Inactive)
    1  A    between atoms: C_2  and  S_16
    2  A    between atoms: C_7  and  C_17
    3  A    between atoms: C_10  and  C_21
    4  A    between atoms: S_16  and  C_46
    5  A    between atoms: C_19  and  N_29
    6  A    between atoms: C_19  and  C_37
    7  A    between atoms: N_20  and  C_30
    8  A    between atoms: C_22  and  C_31
    9  A    between atoms: C_26  and  N_29
                            x       y       z     vdW  Elec       q    Type
                         _______ _______ _______ _____ _____    ______ ____

>  <TORSDO>
F 9

$$$$
=
 OpenBabel11042421413D

 47 53  0  0  1  0  0  0  0  0999 V2000
  158.9080  214.3440  151.8780 F   0  0  0  0  0  0  0  0  0  0  0  0
  161.0470  212.0240  148.8170 C   0  0  1  0  0  3  0  0  0  0  0  0
  160.4960  212.6450  151.3140 C   0  0  0  0  0  0  0  0  0  0  0  0
  162.0550  210.6740  150.7000 C   0  0  1  0  0  3  0  0  0  0  0  0
  160.9820  210.9060  152.9420 C   0  0  0  0  0  3  0  0  0  0  0  0
  162.2980  211.3300  149.3380 C   0  0  0  0  0  2  0  0  0  0  0  0
  160.8440  213.5350  149.7880 S   0  0  0  0  0  0  0  0  0  0  0  0
  159.5700  213.2050  152.2110 C   0  0  0  0  0  0  0  0  0  0  0  0
  161.1850  211.4560  151.6670 C   0  0  0  0  0  0  0  0  0  0  0  0
  159.3640  212.6220  153.4690 C   0  0  0  0  0  0  0  0  0  0  0  0
  160.0870  211.4880  153.8380 C   0  0  0  0  0  3  0  0  0  0  0  0
  162.5010  213.2210  145.5530 N   0  0  0  0  0  0  0  0  0  0  0  0
  159.4330  212.2270  143.9370 C   0  0  0  0  0  2  0  0  0  0  0  0
  160.3330  212.7970  142.8610 C   0  0  0  0  0  3  0  0  0  0  0  0
  161.1500  212.3650  147.3610 C   0  0  0  0  0  0  0  0  0  0  0  0
  160.1140  212.0700  146.4510 C   0  0  0  0  0  3  0  0  0  0  0  0
  161.4890  213.1940  143.3050 N   0  0  0  0  0  0  0  0  0  0  0  0
  162.3500  212.9360  146.8800 C   0  0  0  0  0  3  0  0  0  0  0  0
  161.4890  212.9430  144.6950 C   0  0  0  0  0  0  0  0  0  0  0  0
  160.3200  212.3840  145.1120 C   0  0  0  0  0  0  0  0  0  0  0  0
  162.2950  208.2300  150.7210 C   0  0  0  0  0  3  0  0  0  0  0  0
  161.5180  209.2890  150.5050 C   0  0  0  0  0  3  0  0  0  0  0  0
  161.6460  206.5780  150.5030 S   0  0  0  0  0  0  0  0  0  0  0  0
  160.7910  206.1320  146.5810 N   0  0  0  0  0  0  0  0  0  0  0  0
  161.9990  206.9560  146.5380 C   0  0  0  0  0  2  0  0  0  0  0  0
  160.6120  205.7400  147.9900 C   0  0  2  0  0  3  0  0  0  0  0  0
  162.2800  207.4580  147.9470 C   0  0  0  0  0  2  0  0  0  0  0  0
  161.1390  206.9260  148.7820 C   0  0  2  0  0  3  0  0  0  0  0  0
  161.9590  202.6030  151.3630 C   0  0  0  0  0  1  0  0  0  0  0  0
  160.8110  202.5130  150.3790 C   0  0  0  0  0  0  0  0  0  0  0  0
  160.5010  201.2030  149.6880 C   0  0  0  0  0  1  0  0  0  0  0  0
  161.2880  204.4350  148.3620 C   0  0  0  0  0  0  0  0  0  0  0  0
  160.7750  203.6680  149.4440 N   0  0  0  0  0  0  0  0  0  0  0  0
  159.7770  203.4100  150.5310 C   0  0  0  0  0  2  0  0  0  0  0  0
  162.3110  204.0340  147.7420 O   0  0  0  0  0  0  0  0  0  0  0  0
  160.9510  205.0090  145.6600 C   0  0  0  0  0  2  0  0  0  0  0  0
  161.8280  205.3920  144.5690 N   0  0  0  0  0  1  0  0  0  0  0  0
  158.4290  213.2410  154.4590 C   0  0  0  0  0  2  0  0  0  0  0  0
  157.0920  213.3530  153.8890 N   0  0  0  0  0  2  0  0  0  0  0  0
  155.2970  210.5250  155.3530 C   0  0  0  0  0  0  0  0  0  0  0  0
  154.9800  211.0500  156.7220 C   0  0  0  0  0  2  0  0  0  0  0  0
  156.1870  211.8270  157.2570 C   0  0  0  0  0  2  0  0  0  0  0  0
  155.0730  209.2210  155.0490 F   0  0  0  0  0  0  0  0  0  0  0  0
  156.1590  212.7630  154.8370 C   0  0  2  0  0  3  0  0  0  0  0  0
  156.7080  212.8910  156.2710 C   0  0  1  0  0  3  0  0  0  0  0  0
  156.4300  214.1660  156.7650 O   0  0  0  0  0  1  0  0  0  0  0  0
  155.8860  211.3300  154.4650 C   0  0  0  0  0  3  0  0  0  0  0  0
  1  8  1  0  0  0  0
  2 15  1  6  0  0  0
  2  6  1  0  0  0  0
  2  7  1  0  0  0  0
  3  9  2  0  0  0  0
  3  8  1  0  0  0  0
  4 22  1  6  0  0  0
  4  9  1  0  0  0  0
  5 11  2  0  0  0  0
  6  4  1  0  0  0  0
  7  3  1  0  0  0  0
  8 10  2  0  0  0  0
  9  5  1  0  0  0  0
 10 11  1  0  0  0  0
 10 38  1  0  0  0  0
 12 18  1  0  0  0  0
 13 20  1  0  0  0  0
 14 17  2  0  0  0  0
 14 13  1  0  0  0  0
 16 15  1  0  0  0  0
 17 19  1  0  0  0  0
 18 15  2  0  0  0  0
 19 20  1  0  0  0  0
 19 12  2  0  0  0  0
 20 16  2  0  0  0  0
 22 21  2  0  0  0  0
 23 21  1  0  0  0  0
 24 26  1  0  0  0  0
 25 24  1  0  0  0  0
 25 27  1  0  0  0  0
 26 32  1  1  0  0  0
 26 28  1  0  0  0  0
 27 28  1  0  0  0  0
 28 23  1  1  0  0  0
 30 34  1  0  0  0  0
 30 29  1  0  0  0  0
 31 30  1  0  0  0  0
 32 33  1  0  0  0  0
 33 30  1  0  0  0  0
 33 34  1  0  0  0  0
 35 32  2  0  0  0  0
 36 24  1  0  0  0  0
 37 36  1  0  0  0  0
 39 38  1  0  0  0  0
 40 41  1  0  0  0  0
 41 42  1  0  0  0  0
 43 40  1  0  0  0  0
 44 39  1  6  0  0  0
 44 45  1  0  0  0  0
 45 46  1  1  0  0  0
 45 42  1  0  0  0  0
 47 44  1  0  0  0  0
 47 40  2  0  0  0  0
M  END
>  <MODEL>
4

>  <REMARK>
 VINA RESULT:      -6.6      3.022      9.708
  Name = 
  9 active torsions:
  status: ('A' for Active; 'I' for Inactive)
    1  A    between atoms: C_2  and  S_16
    2  A    between atoms: C_7  and  C_17
    3  A    between atoms: C_10  and  C_21
    4  A    between atoms: S_16  and  C_46
    5  A    between atoms: C_19  and  N_29
    6  A    between atoms: C_19  and  C_37
    7  A    between atoms: N_20  and  C_30
    8  A    between atoms: C_22  and  C_31
    9  A    between atoms: C_26  and  N_29
                            x       y       z     vdW  Elec       q    Type
                         _______ _______ _______ _____ _____    ______ ____

>  <TORSDO>
F 9

$$$$
=
 OpenBabel11042421413D

 47 53  0  0  1  0  0  0  0  0999 V2000
  160.9380  205.4520  151.3090 F   0  0  0  0  0  0  0  0  0  0  0  0
  160.9380  209.7340  152.3040 C   0  0  1  0  0  3  0  0  0  0  0  0
  161.6080  207.6900  150.7880 C   0  0  0  0  0  0  0  0  0  0  0  0
  162.1520  210.1300  150.1250 C   0  0  1  0  0  3  0  0  0  0  0  0
  162.1520  208.2460  148.4860 C   0  0  0  0  0  3  0  0  0  0  0  0
  162.0290  210.5270  151.5980 C   0  0  0  0  0  2  0  0  0  0  0  0
  161.5820  208.0630  152.5500 S   0  0  0  0  0  0  0  0  0  0  0  0
  161.3110  206.3760  150.3850 C   0  0  0  0  0  0  0  0  0  0  0  0
  161.9960  208.6510  149.8200 C   0  0  0  0  0  0  0  0  0  0  0  0
  161.4470  206.0020  149.0410 C   0  0  0  0  0  0  0  0  0  0  0  0
  161.8880  206.9320  148.1010 C   0  0  0  0  0  3  0  0  0  0  0  0
  161.1770  210.7700  155.9200 N   0  0  0  0  0  0  0  0  0  0  0  0
  158.0000  212.4400  155.5470 C   0  0  0  0  0  2  0  0  0  0  0  0
  158.4450  212.6540  156.9780 C   0  0  0  0  0  3  0  0  0  0  0  0
  160.5640  210.3340  153.6260 C   0  0  0  0  0  0  0  0  0  0  0  0
  159.3810  211.0840  153.7970 C   0  0  0  0  0  3  0  0  0  0  0  0
  159.5910  212.1060  157.2550 N   0  0  0  0  0  0  0  0  0  0  0  0
  161.4590  210.2010  154.7110 C   0  0  0  0  0  3  0  0  0  0  0  0
  160.0280  211.4750  156.0680 C   0  0  0  0  0  0  0  0  0  0  0  0
  159.1420  211.6380  155.0490 C   0  0  0  0  0  0  0  0  0  0  0  0
  161.4530  212.2250  149.0500 C   0  0  0  0  0  3  0  0  0  0  0  0
  161.2000  210.9430  149.3010 C   0  0  0  0  0  3  0  0  0  0  0  0
  160.3220  213.1880  148.0530 S   0  0  0  0  0  0  0  0  0  0  0  0
  162.4490  214.3640  144.8280 N   0  0  0  0  0  0  0  0  0  0  0  0
  163.1310  213.1280  145.2080 C   0  0  0  0  0  2  0  0  0  0  0  0
  161.2500  214.4500  145.6800 C   0  0  2  0  0  3  0  0  0  0  0  0
  162.6320  212.7160  146.5850 C   0  0  0  0  0  2  0  0  0  0  0  0
  161.6740  213.8100  146.9930 C   0  0  2  0  0  3  0  0  0  0  0  0
  157.0560  212.2030  146.3000 C   0  0  0  0  0  1  0  0  0  0  0  0
  157.3190  213.6450  145.9170 C   0  0  0  0  0  0  0  0  0  0  0  0
  156.4770  214.3160  144.8540 C   0  0  0  0  0  1  0  0  0  0  0  0
  160.0150  213.8060  145.0830 C   0  0  0  0  0  0  0  0  0  0  0  0
  158.7680  213.9310  145.7560 N   0  0  0  0  0  0  0  0  0  0  0  0
  157.9060  214.4530  146.8650 C   0  0  0  0  0  2  0  0  0  0  0  0
  160.0830  213.1420  144.0120 O   0  0  0  0  0  0  0  0  0  0  0  0
  162.1660  214.3270  143.3940 C   0  0  0  0  0  2  0  0  0  0  0  0
  163.4100  214.2530  142.6510 N   0  0  0  0  0  1  0  0  0  0  0  0
  161.1970  204.5930  148.6070 C   0  0  0  0  0  2  0  0  0  0  0  0
  160.9470  204.5430  147.1720 N   0  0  0  0  0  2  0  0  0  0  0  0
  161.4100  200.9530  147.6780 C   0  0  0  0  0  0  0  0  0  0  0  0
  161.2430  200.4320  146.2810 C   0  0  0  0  0  2  0  0  0  0  0  0
  160.1010  201.1840  145.5930 C   0  0  0  0  0  2  0  0  0  0  0  0
  161.4790  200.0950  148.7270 F   0  0  0  0  0  0  0  0  0  0  0  0
  161.2840  203.2050  146.7130 C   0  0  2  0  0  3  0  0  0  0  0  0
  160.2400  202.7170  145.6900 C   0  0  1  0  0  3  0  0  0  0  0  0
  160.5370  203.2410  144.4320 O   0  0  0  0  0  1  0  0  0  0  0  0
  161.3990  202.2720  147.8890 C   0  0  0  0  0  3  0  0  0  0  0  0
  2  7  1  0  0  0  0
  2 15  1  1  0  0  0
  3  7  1  0  0  0  0
  4 22  1  6  0  0  0
  4  6  1  0  0  0  0
  5  9  1  0  0  0  0
  6  2  1  0  0  0  0
  8  3  1  0  0  0  0
  8  1  1  0  0  0  0
  9  4  1  0  0  0  0
  9  3  2  0  0  0  0
 10  8  2  0  0  0  0
 11  5  2  0  0  0  0
 11 10  1  0  0  0  0
 12 19  2  0  0  0  0
 13 14  1  0  0  0  0
 14 17  2  0  0  0  0
 15 16  1  0  0  0  0
 15 18  2  0  0  0  0
 16 20  2  0  0  0  0
 18 12  1  0  0  0  0
 19 17  1  0  0  0  0
 20 13  1  0  0  0  0
 20 19  1  0  0  0  0
 21 22  2  0  0  0  0
 23 21  1  0  0  0  0
 24 25  1  0  0  0  0
 24 26  1  0  0  0  0
 25 27  1  0  0  0  0
 26 32  1  6  0  0  0
 26 28  1  0  0  0  0
 27 28  1  0  0  0  0
 28 23  1  6  0  0  0
 30 29  1  0  0  0  0
 30 34  1  0  0  0  0
 31 30  1  0  0  0  0
 32 33  1  0  0  0  0
 33 30  1  0  0  0  0
 33 34  1  0  0  0  0
 35 32  2  0  0  0  0
 36 24  1  0  0  0  0
 37 36  1  0  0  0  0
 38 10  1  0  0  0  0
 39 38  1  0  0  0  0
 40 47  2  0  0  0  0
 40 43  1  0  0  0  0
 41 40  1  0  0  0  0
 42 45  1  0  0  0  0
 42 41  1  0  0  0  0
 44 39  1  1  0  0  0
 44 47  1  0  0  0  0
 45 46  1  6  0  0  0
 45 44  1  0  0  0  0
M  END
>  <MODEL>
5

>  <REMARK>
 VINA RESULT:      -6.0      1.676      2.910
  Name = 
  9 active torsions:
  status: ('A' for Active; 'I' for Inactive)
    1  A    between atoms: C_2  and  S_16
    2  A    between atoms: C_7  and  C_17
    3  A    between atoms: C_10  and  C_21
    4  A    between atoms: S_16  and  C_46
    5  A    between atoms: C_19  and  N_29
    6  A    between atoms: C_19  and  C_37
    7  A    between atoms: N_20  and  C_30
    8  A    between atoms: C_22  and  C_31
    9  A    between atoms: C_26  and  N_29
                            x       y       z     vdW  Elec       q    Type
                         _______ _______ _______ _____ _____    ______ ____

>  <TORSDO>
F 9

$$$$
=
 OpenBabel11042421413D

 47 53  0  0  1  0  0  0  0  0999 V2000
  160.0550  205.6140  151.4910 F   0  0  0  0  0  0  0  0  0  0  0  0
  160.6780  209.8440  152.5150 C   0  0  1  0  0  3  0  0  0  0  0  0
  161.3180  207.6320  151.2410 C   0  0  0  0  0  0  0  0  0  0  0  0
  162.5500  209.8670  150.8190 C   0  0  1  0  0  3  0  0  0  0  0  0
  162.6390  207.9460  149.2250 C   0  0  0  0  0  3  0  0  0  0  0  0
  162.0760  210.3530  152.1900 C   0  0  0  0  0  2  0  0  0  0  0  0
  160.8410  208.0890  152.9160 S   0  0  0  0  0  0  0  0  0  0  0  0
  160.8800  206.3930  150.7430 C   0  0  0  0  0  0  0  0  0  0  0  0
  162.1780  208.4400  150.4550 C   0  0  0  0  0  0  0  0  0  0  0  0
  161.3330  205.9320  149.4980 C   0  0  0  0  0  0  0  0  0  0  0  0
  162.2270  206.7000  148.7550 C   0  0  0  0  0  3  0  0  0  0  0  0
  160.3790  211.7060  155.7780 N   0  0  0  0  0  0  0  0  0  0  0  0
  156.8540  212.0950  155.1170 C   0  0  0  0  0  2  0  0  0  0  0  0
  157.1300  212.7680  156.4440 C   0  0  0  0  0  3  0  0  0  0  0  0
  160.0610  210.5750  153.6690 C   0  0  0  0  0  0  0  0  0  0  0  0
  158.6900  210.9080  153.6940 C   0  0  0  0  0  3  0  0  0  0  0  0
  158.3770  212.7110  156.8090 N   0  0  0  0  0  0  0  0  0  0  0  0
  160.8940  211.0000  154.7290 C   0  0  0  0  0  3  0  0  0  0  0  0
  159.0570  212.0050  155.7900 C   0  0  0  0  0  0  0  0  0  0  0  0
  158.2190  211.6250  154.7880 C   0  0  0  0  0  0  0  0  0  0  0  0
  162.9730  211.4060  148.9520 C   0  0  0  0  0  3  0  0  0  0  0  0
  162.0910  210.8200  149.7580 C   0  0  0  0  0  3  0  0  0  0  0  0
  162.4200  212.5310  147.6760 S   0  0  0  0  0  0  0  0  0  0  0  0
  158.3880  212.7500  147.7220 N   0  0  0  0  0  0  0  0  0  0  0  0
  158.7560  213.7030  148.7680 C   0  0  0  0  0  2  0  0  0  0  0  0
  159.6480  212.3450  147.0730 C   0  0  2  0  0  3  0  0  0  0  0  0
  160.2350  213.5180  149.0770 C   0  0  0  0  0  2  0  0  0  0  0  0
  160.6750  212.3740  148.1940 C   0  0  2  0  0  3  0  0  0  0  0  0
  161.9500  212.8040  142.8890 C   0  0  0  0  0  1  0  0  0  0  0  0
  160.4650  212.6530  143.1500 C   0  0  0  0  0  0  0  0  0  0  0  0
  159.4670  213.4750  142.3650 C   0  0  0  0  0  1  0  0  0  0  0  0
  160.0420  213.2050  145.8900 C   0  0  0  0  0  0  0  0  0  0  0  0
  160.1490  212.6120  144.6020 N   0  0  0  0  0  0  0  0  0  0  0  0
  160.0340  211.4500  143.6620 C   0  0  0  0  0  2  0  0  0  0  0  0
  160.3000  214.4310  146.0360 O   0  0  0  0  0  0  0  0  0  0  0  0
  157.4260  213.3840  146.8220 C   0  0  0  0  0  2  0  0  0  0  0  0
  157.0820  212.4680  145.7500 N   0  0  0  0  0  1  0  0  0  0  0  0
  160.9270  204.5880  148.9840 C   0  0  0  0  0  2  0  0  0  0  0  0
  162.0260  203.9770  148.2460 N   0  0  0  0  0  2  0  0  0  0  0  0
  160.2090  205.4240  145.4230 C   0  0  0  0  0  0  0  0  0  0  0  0
  161.1720  205.1880  144.2970 C   0  0  0  0  0  2  0  0  0  0  0  0
  162.5980  205.4580  144.7860 C   0  0  0  0  0  2  0  0  0  0  0  0
  159.1110  206.2010  145.2370 F   0  0  0  0  0  0  0  0  0  0  0  0
  161.7320  204.1090  146.8280 C   0  0  2  0  0  3  0  0  0  0  0  0
  162.9440  204.7090  146.0890 C   0  0  1  0  0  3  0  0  0  0  0  0
  163.8720  203.7030  145.8200 O   0  0  0  0  0  1  0  0  0  0  0  0
  160.4890  204.9370  146.6350 C   0  0  0  0  0  3  0  0  0  0  0  0
  2  7  1  0  0  0  0
  2 15  1  1  0  0  0
  3  7  1  0  0  0  0
  4 22  1  6  0  0  0
  4  6  1  0  0  0  0
  5  9  1  0  0  0  0
  6  2  1  0  0  0  0
  8  3  1  0  0  0  0
  8  1  1  0  0  0  0
  9  4  1  0  0  0  0
  9  3  2  0  0  0  0
 10  8  2  0  0  0  0
 11  5  2  0  0  0  0
 11 10  1  0  0  0  0
 12 19  2  0  0  0  0
 13 14  1  0  0  0  0
 14 17  2  0  0  0  0
 15 16  1  0  0  0  0
 15 18  2  0  0  0  0
 16 20  2  0  0  0  0
 18 12  1  0  0  0  0
 19 17  1  0  0  0  0
 20 13  1  0  0  0  0
 20 19  1  0  0  0  0
 21 22  2  0  0  0  0
 23 21  1  0  0  0  0
 24 25  1  0  0  0  0
 25 27  1  0  0  0  0
 26 32  1  6  0  0  0
 26 24  1  0  0  0  0
 26 28  1  0  0  0  0
 28 23  1  6  0  0  0
 28 27  1  0  0  0  0
 29 30  1  0  0  0  0
 30 34  1  0  0  0  0
 30 33  1  0  0  0  0
 31 30  1  0  0  0  0
 32 35  2  0  0  0  0
 33 32  1  0  0  0  0
 34 33  1  0  0  0  0
 36 24  1  0  0  0  0
 37 36  1  0  0  0  0
 38 10  1  0  0  0  0
 39 38  1  0  0  0  0
 40 47  2  0  0  0  0
 41 42  1  0  0  0  0
 41 40  1  0  0  0  0
 42 45  1  0  0  0  0
 43 40  1  0  0  0  0
 44 39  1  1  0  0  0
 45 46  1  6  0  0  0
 45 44  1  0  0  0  0
 47 44  1  0  0  0  0
M  END
>  <MODEL>
6

>  <REMARK>
 VINA RESULT:      -5.9      1.539      2.354
  Name = 
  9 active torsions:
  status: ('A' for Active; 'I' for Inactive)
    1  A    between atoms: C_2  and  S_16
    2  A    between atoms: C_7  and  C_17
    3  A    between atoms: C_10  and  C_21
    4  A    between atoms: S_16  and  C_46
    5  A    between atoms: C_19  and  N_29
    6  A    between atoms: C_19  and  C_37
    7  A    between atoms: N_20  and  C_30
    8  A    between atoms: C_22  and  C_31
    9  A    between atoms: C_26  and  N_29
                            x       y       z     vdW  Elec       q    Type
                         _______ _______ _______ _____ _____    ______ ____

>  <TORSDO>
F 9

$$$$
