=
 OpenBabel11052411513D

 32 33  0  0  1  0  0  0  0  0999 V2000
  160.9850  209.5570  152.1020 O   0  0  0  0  0  0  0  0  0  0  0  0
  161.5830  207.4680  151.8760 C   0  0  0  0  0  0  0  0  0  0  0  0
  161.5380  208.7050  151.2700 C   0  0  0  0  0  0  0  0  0  0  0  0
  161.0040  207.6790  153.1080 C   0  0  0  0  0  0  0  0  0  0  0  0
  160.6450  208.9750  153.2180 N   0  0  0  0  0  0  0  0  0  0  0  0
  160.7380  206.6470  154.1540 C   0  0  0  0  0  2  0  0  0  0  0  0
  160.5720  207.2910  155.5190 C   0  0  0  0  0  2  0  0  0  0  0  0
  161.7860  207.8280  155.9460 O   0  0  0  0  0  0  0  0  0  0  0  0
  161.4790  208.5080  157.1230 C   0  0  0  0  0  2  0  0  0  0  0  0
  162.3770  209.7270  157.2610 C   0  0  0  0  0  2  0  0  0  0  0  0
  161.2710  211.3180  155.9580 C   0  0  0  0  0  1  0  0  0  0  0  0
  162.4320  210.4430  155.9960 N   0  0  0  0  0  2  0  0  0  0  0  0
  162.0680  206.1810  151.3010 C   0  0  0  0  0  2  0  0  0  0  0  0
  161.1660  205.7520  150.2420 N   0  0  0  0  0  2  0  0  0  0  0  0
  161.3390  204.3140  150.1070 C   0  0  1  0  0  3  0  0  0  0  0  0
  160.2520  203.5820  150.8780 C   0  0  0  0  0  1  0  0  0  0  0  0
  161.1530  202.4810  148.3240 C   0  0  0  0  0  0  0  0  0  0  0  0
  161.3530  203.9020  148.6580 C   0  0  0  0  0  0  0  0  0  0  0  0
  160.9910  202.0870  146.9600 N   0  0  0  0  0  0  0  0  0  0  0  0
  161.4800  204.7970  147.6570 C   0  0  0  0  0  0  0  0  0  0  0  0
  161.0810  201.6140  149.2330 O   0  0  0  0  0  0  0  0  0  0  0  0
  161.1180  202.9330  145.9830 C   0  0  0  0  0  3  0  0  0  0  0  0
  161.6140  206.1530  147.9430 O   0  0  0  0  0  1  0  0  0  0  0  0
  162.8700  204.6260  145.6130 C   0  0  0  0  0  1  0  0  0  0  0  0
  161.4970  204.3740  146.2060 C   0  0  2  0  0  3  0  0  0  0  0  0
  162.0550  209.0570  149.9140 C   0  0  0  0  0  2  0  0  0  0  0  0
  161.9980  210.5620  149.7070 C   0  0  0  0  0  2  0  0  0  0  0  0
  162.3300  210.8780  148.3860 O   0  0  0  0  0  0  0  0  0  0  0  0
  162.9960  213.5400  147.9400 O   0  0  0  0  0  1  0  0  0  0  0  0
  161.7180  212.4420  148.1250 P   0  0  0  0  0  0  0  0  0  0  0  0
  160.8500  212.4620  146.8860 O   0  0  0  0  0  0  0  0  0  0  0  0
  160.7830  212.9000  149.4590 O   0  0  0  0  0  1  0  0  0  0  0  0
  1  5  1  0  0  0  0
  2  4  1  0  0  0  0
  3  2  2  0  0  0  0
  3  1  1  0  0  0  0
  4  5  2  0  0  0  0
  4  6  1  0  0  0  0
  6  7  1  0  0  0  0
  7  8  1  0  0  0  0
  8  9  1  0  0  0  0
  9 10  1  0  0  0  0
 11 12  1  0  0  0  0
 12 10  1  0  0  0  0
 13  2  1  0  0  0  0
 14 13  1  0  0  0  0
 15 14  1  0  0  0  0
 15 16  1  1  0  0  0
 17 18  1  0  0  0  0
 17 21  2  0  0  0  0
 18 15  1  0  0  0  0
 19 17  1  0  0  0  0
 20 23  1  0  0  0  0
 20 18  2  0  0  0  0
 22 25  1  0  0  0  0
 22 19  2  0  0  0  0
 25 24  1  1  0  0  0
 25 20  1  0  0  0  0
 26  3  1  0  0  0  0
 27 26  1  0  0  0  0
 28 27  1  0  0  0  0
 29 30  1  0  0  0  0
 30 28  1  0  0  0  0
 30 32  1  0  0  0  0
 31 30  2  0  0  0  0
M  END
>  <MODEL>
1

>  <REMARK>
 VINA RESULT:      -7.0      0.000      0.000
  Name = 
  14 active torsions:
  status: ('A' for Active; 'I' for Inactive)
    1  A    between atoms: O_1  and  C_10
    2  A    between atoms: O_1  and  C_28
    3  A    between atoms: C_2  and  N_27
    4  A    between atoms: C_2  and  C_28
    5  A    between atoms: C_5  and  C_15
    6  A    between atoms: C_6  and  O_11
    7  A    between atoms: C_6  and  C_32
    8  A    between atoms: C_7  and  C_17
    9  A    between atoms: C_10  and  C_13
   10  A    between atoms: O_11  and  P_26
   11  A    between atoms: C_13  and  C_22
   12  A    between atoms: C_15  and  N_25
   13  A    between atoms: C_17  and  N_25
   14  A    between atoms: C_21  and  C_32
                            x       y       z     vdW  Elec       q    Type
                         _______ _______ _______ _____ _____    ______ ____

>  <TORSDO>
F 14

$$$$
=
 OpenBabel11052411513D

 32 33  0  0  1  0  0  0  0  0999 V2000
  162.2050  208.8450  152.0760 O   0  0  0  0  0  0  0  0  0  0  0  0
  161.3870  207.9550  150.2570 C   0  0  0  0  0  0  0  0  0  0  0  0
  161.6000  207.7780  151.6060 C   0  0  0  0  0  0  0  0  0  0  0  0
  161.9270  209.1940  149.9930 C   0  0  0  0  0  0  0  0  0  0  0  0
  162.4230  209.7170  151.1330 N   0  0  0  0  0  0  0  0  0  0  0  0
  162.0270  209.8560  148.6590 C   0  0  0  0  0  2  0  0  0  0  0  0
  161.9980  211.3680  148.8010 C   0  0  0  0  0  2  0  0  0  0  0  0
  163.0120  211.9400  148.0340 O   0  0  0  0  0  0  0  0  0  0  0  0
  162.5990  213.2550  147.8250 C   0  0  0  0  0  2  0  0  0  0  0  0
  162.2350  213.4520  146.3630 C   0  0  0  0  0  2  0  0  0  0  0  0
  160.5980  212.7410  144.8580 C   0  0  0  0  0  1  0  0  0  0  0  0
  160.8000  213.2960  146.1870 N   0  0  0  0  0  2  0  0  0  0  0  0
  160.7890  206.9920  149.2880 C   0  0  0  0  0  2  0  0  0  0  0  0
  161.7490  205.9380  148.9940 N   0  0  0  0  0  2  0  0  0  0  0  0
  161.4520  205.4680  147.6510 C   0  0  1  0  0  3  0  0  0  0  0  0
  162.5630  205.8730  146.6960 C   0  0  0  0  0  1  0  0  0  0  0  0
  161.1010  203.2960  146.3330 C   0  0  0  0  0  0  0  0  0  0  0  0
  161.2340  203.9770  147.6340 C   0  0  0  0  0  0  0  0  0  0  0  0
  161.0650  201.8680  146.2790 N   0  0  0  0  0  0  0  0  0  0  0  0
  161.2170  203.2390  148.7620 C   0  0  0  0  0  0  0  0  0  0  0  0
  161.0620  203.9580  145.2650 O   0  0  0  0  0  0  0  0  0  0  0  0
  161.0400  201.1420  147.3560 C   0  0  0  0  0  3  0  0  0  0  0  0
  161.3950  203.8500  150.0010 O   0  0  0  0  0  1  0  0  0  0  0  0
  159.6600  201.4120  149.3790 C   0  0  0  0  0  1  0  0  0  0  0  0
  160.9930  201.7440  148.7360 C   0  0  2  0  0  3  0  0  0  0  0  0
  161.1900  206.6030  152.4310 C   0  0  0  0  0  2  0  0  0  0  0  0
  161.3770  206.9090  153.9080 C   0  0  0  0  0  2  0  0  0  0  0  0
  160.1470  206.8520  154.5710 O   0  0  0  0  0  0  0  0  0  0  0  0
  159.4920  209.1930  155.9190 O   0  0  0  0  0  0  0  0  0  0  0  0
  160.3600  207.7400  156.0040 P   0  0  0  0  0  0  0  0  0  0  0  0
  159.8830  206.9340  157.1920 O   0  0  0  0  0  1  0  0  0  0  0  0
  162.0050  208.0870  156.2000 O   0  0  0  0  0  1  0  0  0  0  0  0
  2  3  2  0  0  0  0
  3  1  1  0  0  0  0
  3 26  1  0  0  0  0
  4  2  1  0  0  0  0
  4  5  2  0  0  0  0
  5  1  1  0  0  0  0
  6  7  1  0  0  0  0
  6  4  1  0  0  0  0
  8  7  1  0  0  0  0
  9  8  1  0  0  0  0
 10  9  1  0  0  0  0
 11 12  1  0  0  0  0
 12 10  1  0  0  0  0
 13  2  1  0  0  0  0
 14 13  1  0  0  0  0
 15 16  1  6  0  0  0
 15 14  1  0  0  0  0
 17 18  1  0  0  0  0
 18 15  1  0  0  0  0
 18 20  2  0  0  0  0
 19 17  1  0  0  0  0
 19 22  2  0  0  0  0
 20 23  1  0  0  0  0
 21 17  2  0  0  0  0
 22 25  1  0  0  0  0
 25 20  1  0  0  0  0
 25 24  1  6  0  0  0
 26 27  1  0  0  0  0
 27 28  1  0  0  0  0
 28 30  1  0  0  0  0
 29 30  2  0  0  0  0
 30 32  1  0  0  0  0
 30 31  1  0  0  0  0
M  END
>  <MODEL>
2

>  <REMARK>
 VINA RESULT:      -6.9      3.019      6.422
  Name = 
  14 active torsions:
  status: ('A' for Active; 'I' for Inactive)
    1  A    between atoms: O_1  and  C_10
    2  A    between atoms: O_1  and  C_28
    3  A    between atoms: C_2  and  N_27
    4  A    between atoms: C_2  and  C_28
    5  A    between atoms: C_5  and  C_15
    6  A    between atoms: C_6  and  O_11
    7  A    between atoms: C_6  and  C_32
    8  A    between atoms: C_7  and  C_17
    9  A    between atoms: C_10  and  C_13
   10  A    between atoms: O_11  and  P_26
   11  A    between atoms: C_13  and  C_22
   12  A    between atoms: C_15  and  N_25
   13  A    between atoms: C_17  and  N_25
   14  A    between atoms: C_21  and  C_32
                            x       y       z     vdW  Elec       q    Type
                         _______ _______ _______ _____ _____    ______ ____

>  <TORSDO>
F 14

$$$$
=
 OpenBabel11052411513D

 32 33  0  0  1  0  0  0  0  0999 V2000
  161.4340  210.0190  150.9200 O   0  0  0  0  0  0  0  0  0  0  0  0
  161.8590  208.0830  150.0030 C   0  0  0  0  0  0  0  0  0  0  0  0
  161.8770  209.4490  149.8240 C   0  0  0  0  0  0  0  0  0  0  0  0
  161.3610  207.9200  151.2770 C   0  0  0  0  0  0  0  0  0  0  0  0
  161.1090  209.1300  151.8160 N   0  0  0  0  0  0  0  0  0  0  0  0
  161.0710  206.6250  151.9590 C   0  0  0  0  0  2  0  0  0  0  0  0
  161.9390  206.4570  153.1940 C   0  0  0  0  0  2  0  0  0  0  0  0
  161.1690  205.9960  154.2610 O   0  0  0  0  0  0  0  0  0  0  0  0
  160.4440  207.1090  154.6830 C   0  0  0  0  0  2  0  0  0  0  0  0
  161.3030  207.9620  155.6030 C   0  0  0  0  0  2  0  0  0  0  0  0
  162.0450  210.1740  155.6840 C   0  0  0  0  0  1  0  0  0  0  0  0
  160.8570  209.3450  155.5500 N   0  0  0  0  0  2  0  0  0  0  0  0
  162.2150  207.0240  149.0160 C   0  0  0  0  0  2  0  0  0  0  0  0
  161.0280  206.2470  148.6880 N   0  0  0  0  0  2  0  0  0  0  0  0
  161.2420  205.7030  147.3560 C   0  0  1  0  0  3  0  0  0  0  0  0
  162.6020  206.1320  146.8280 C   0  0  0  0  0  1  0  0  0  0  0  0
  160.9500  203.5090  146.0630 C   0  0  0  0  0  0  0  0  0  0  0  0
  161.1020  204.2040  147.3540 C   0  0  0  0  0  0  0  0  0  0  0  0
  160.9870  202.0810  146.0140 N   0  0  0  0  0  0  0  0  0  0  0  0
  161.1750  203.4720  148.4840 C   0  0  0  0  0  0  0  0  0  0  0  0
  160.8280  204.1630  144.9950 O   0  0  0  0  0  0  0  0  0  0  0  0
  161.0480  201.3610  147.0940 C   0  0  0  0  0  3  0  0  0  0  0  0
  161.3750  204.0980  149.7120 O   0  0  0  0  0  1  0  0  0  0  0  0
  159.7460  201.5690  149.1750 C   0  0  0  0  0  1  0  0  0  0  0  0
  161.0290  201.9670  148.4720 C   0  0  2  0  0  3  0  0  0  0  0  0
  162.3500  210.1880  148.6150 C   0  0  0  0  0  2  0  0  0  0  0  0
  161.9520  211.6520  148.7080 C   0  0  0  0  0  2  0  0  0  0  0  0
  161.0960  211.9850  147.6530 O   0  0  0  0  0  0  0  0  0  0  0  0
  162.5150  214.3070  148.2240 O   0  0  0  0  0  1  0  0  0  0  0  0
  161.7040  213.4390  147.0160 P   0  0  0  0  0  0  0  0  0  0  0  0
  162.6540  213.1500  145.8750 O   0  0  0  0  0  0  0  0  0  0  0  0
  160.4140  214.3690  146.4350 O   0  0  0  0  0  1  0  0  0  0  0  0
  1  5  1  0  0  0  0
  2  4  1  0  0  0  0
  3  2  2  0  0  0  0
  3  1  1  0  0  0  0
  4  5  2  0  0  0  0
  4  6  1  0  0  0  0
  6  7  1  0  0  0  0
  7  8  1  0  0  0  0
  8  9  1  0  0  0  0
  9 10  1  0  0  0  0
 12 10  1  0  0  0  0
 12 11  1  0  0  0  0
 13  2  1  0  0  0  0
 14 13  1  0  0  0  0
 15 16  1  1  0  0  0
 15 14  1  0  0  0  0
 17 18  1  0  0  0  0
 18 15  1  0  0  0  0
 18 20  2  0  0  0  0
 19 17  1  0  0  0  0
 19 22  2  0  0  0  0
 20 23  1  0  0  0  0
 21 17  2  0  0  0  0
 22 25  1  0  0  0  0
 25 20  1  0  0  0  0
 25 24  1  6  0  0  0
 26 27  1  0  0  0  0
 26  3  1  0  0  0  0
 28 27  1  0  0  0  0
 30 28  1  0  0  0  0
 30 29  1  0  0  0  0
 31 30  2  0  0  0  0
 32 30  1  0  0  0  0
M  END
>  <MODEL>
3

>  <REMARK>
 VINA RESULT:      -6.7      1.583      2.623
  Name = 
  14 active torsions:
  status: ('A' for Active; 'I' for Inactive)
    1  A    between atoms: O_1  and  C_10
    2  A    between atoms: O_1  and  C_28
    3  A    between atoms: C_2  and  N_27
    4  A    between atoms: C_2  and  C_28
    5  A    between atoms: C_5  and  C_15
    6  A    between atoms: C_6  and  O_11
    7  A    between atoms: C_6  and  C_32
    8  A    between atoms: C_7  and  C_17
    9  A    between atoms: C_10  and  C_13
   10  A    between atoms: O_11  and  P_26
   11  A    between atoms: C_13  and  C_22
   12  A    between atoms: C_15  and  N_25
   13  A    between atoms: C_17  and  N_25
   14  A    between atoms: C_21  and  C_32
                            x       y       z     vdW  Elec       q    Type
                         _______ _______ _______ _____ _____    ______ ____

>  <TORSDO>
F 14

$$$$
=
 OpenBabel11052411513D

 32 33  0  0  1  0  0  0  0  0999 V2000
  161.2770  205.3480  150.0940 O   0  0  0  0  0  0  0  0  0  0  0  0
  161.5470  207.1880  151.2390 C   0  0  0  0  0  0  0  0  0  0  0  0
  161.3450  206.6550  149.9850 C   0  0  0  0  0  0  0  0  0  0  0  0
  161.6020  206.0870  152.0650 C   0  0  0  0  0  0  0  0  0  0  0  0
  161.4320  204.9690  151.3310 N   0  0  0  0  0  0  0  0  0  0  0  0
  161.8710  206.0890  153.5330 C   0  0  0  0  0  2  0  0  0  0  0  0
  160.6900  206.6590  154.2990 C   0  0  0  0  0  2  0  0  0  0  0  0
  161.1350  207.3180  155.4450 O   0  0  0  0  0  0  0  0  0  0  0  0
  159.9720  207.6930  156.1140 C   0  0  0  0  0  2  0  0  0  0  0  0
  160.3120  208.6660  157.2290 C   0  0  0  0  0  2  0  0  0  0  0  0
  161.5520  210.6440  157.1540 C   0  0  0  0  0  1  0  0  0  0  0  0
  161.6510  209.1980  157.0280 N   0  0  0  0  0  2  0  0  0  0  0  0
  161.7480  208.6190  151.6060 C   0  0  0  0  0  2  0  0  0  0  0  0
  160.4550  209.2490  151.8330 N   0  0  0  0  0  2  0  0  0  0  0  0
  160.5680  209.9960  153.0750 C   0  0  1  0  0  3  0  0  0  0  0  0
  162.0310  210.2590  153.3960 C   0  0  0  0  0  1  0  0  0  0  0  0
  158.8530  211.6000  154.1050 C   0  0  0  0  0  0  0  0  0  0  0  0
  159.7850  211.2810  153.0080 C   0  0  0  0  0  0  0  0  0  0  0  0
  158.2260  212.8830  154.1560 N   0  0  0  0  0  0  0  0  0  0  0  0
  159.9520  212.1760  152.0140 C   0  0  0  0  0  0  0  0  0  0  0  0
  158.6350  210.7660  155.0220 O   0  0  0  0  0  0  0  0  0  0  0  0
  158.3700  213.7540  153.2030 C   0  0  0  0  0  3  0  0  0  0  0  0
  160.8670  211.9260  150.9940 O   0  0  0  0  0  1  0  0  0  0  0  0
  158.2150  213.4270  150.7650 C   0  0  0  0  0  1  0  0  0  0  0  0
  159.1580  213.4610  151.9530 C   0  0  2  0  0  3  0  0  0  0  0  0
  161.1870  207.4090  148.7060 C   0  0  0  0  0  2  0  0  0  0  0  0
  161.8600  206.6570  147.5690 C   0  0  0  0  0  2  0  0  0  0  0  0
  160.8970  206.0270  146.7730 O   0  0  0  0  0  0  0  0  0  0  0  0
  161.3910  205.0640  144.2130 O   0  0  0  0  0  0  0  0  0  0  0  0
  161.7470  204.8740  145.8590 P   0  0  0  0  0  0  0  0  0  0  0  0
  163.2350  205.0290  146.0770 O   0  0  0  0  0  1  0  0  0  0  0  0
  161.2780  203.3230  146.3510 O   0  0  0  0  0  1  0  0  0  0  0  0
  1  5  1  0  0  0  0
  2 13  1  0  0  0  0
  2  4  1  0  0  0  0
  3  1  1  0  0  0  0
  3  2  2  0  0  0  0
  4  6  1  0  0  0  0
  5  4  2  0  0  0  0
  6  7  1  0  0  0  0
  7  8  1  0  0  0  0
  8  9  1  0  0  0  0
  9 10  1  0  0  0  0
 12 11  1  0  0  0  0
 12 10  1  0  0  0  0
 13 14  1  0  0  0  0
 14 15  1  0  0  0  0
 15 16  1  6  0  0  0
 17 19  1  0  0  0  0
 17 21  2  0  0  0  0
 18 15  1  0  0  0  0
 18 17  1  0  0  0  0
 20 18  2  0  0  0  0
 22 19  2  0  0  0  0
 23 20  1  0  0  0  0
 25 24  1  6  0  0  0
 25 20  1  0  0  0  0
 25 22  1  0  0  0  0
 26  3  1  0  0  0  0
 27 26  1  0  0  0  0
 28 27  1  0  0  0  0
 29 30  2  0  0  0  0
 30 31  1  0  0  0  0
 30 32  1  0  0  0  0
 30 28  1  0  0  0  0
M  END
>  <MODEL>
4

>  <REMARK>
 VINA RESULT:      -6.6      2.970      7.061
  Name = 
  14 active torsions:
  status: ('A' for Active; 'I' for Inactive)
    1  A    between atoms: O_1  and  C_10
    2  A    between atoms: O_1  and  C_28
    3  A    between atoms: C_2  and  N_27
    4  A    between atoms: C_2  and  C_28
    5  A    between atoms: C_5  and  C_15
    6  A    between atoms: C_6  and  O_11
    7  A    between atoms: C_6  and  C_32
    8  A    between atoms: C_7  and  C_17
    9  A    between atoms: C_10  and  C_13
   10  A    between atoms: O_11  and  P_26
   11  A    between atoms: C_13  and  C_22
   12  A    between atoms: C_15  and  N_25
   13  A    between atoms: C_17  and  N_25
   14  A    between atoms: C_21  and  C_32
                            x       y       z     vdW  Elec       q    Type
                         _______ _______ _______ _____ _____    ______ ____

>  <TORSDO>
F 14

$$$$
=
 OpenBabel11052411513D

 32 33  0  0  1  0  0  0  0  0999 V2000
  161.2700  207.4070  148.1510 O   0  0  0  0  0  0  0  0  0  0  0  0
  161.7600  207.7590  150.2510 C   0  0  0  0  0  0  0  0  0  0  0  0
  161.3270  206.8310  149.3300 C   0  0  0  0  0  0  0  0  0  0  0  0
  161.9320  208.9080  149.5100 C   0  0  0  0  0  0  0  0  0  0  0  0
  161.6220  208.6600  148.2210 N   0  0  0  0  0  0  0  0  0  0  0  0
  162.3320  210.2500  150.0290 C   0  0  0  0  0  2  0  0  0  0  0  0
  161.8300  211.3550  149.1170 C   0  0  0  0  0  2  0  0  0  0  0  0
  162.8790  211.8510  148.3440 O   0  0  0  0  0  0  0  0  0  0  0  0
  162.2700  212.6990  147.4210 C   0  0  0  0  0  2  0  0  0  0  0  0
  160.8450  212.2390  147.1650 C   0  0  0  0  0  2  0  0  0  0  0  0
  158.6430  213.0120  147.2670 C   0  0  0  0  0  1  0  0  0  0  0  0
  159.9970  213.3890  146.8920 N   0  0  0  0  0  2  0  0  0  0  0  0
  161.9220  207.5860  151.7230 C   0  0  0  0  0  2  0  0  0  0  0  0
  160.8060  208.2160  152.4120 N   0  0  0  0  0  2  0  0  0  0  0  0
  160.6680  207.5330  153.6890 C   0  0  1  0  0  3  0  0  0  0  0  0
  161.7650  206.4940  153.8480 C   0  0  0  0  0  1  0  0  0  0  0  0
  160.0340  208.1260  156.1020 C   0  0  0  0  0  0  0  0  0  0  0  0
  160.6740  208.5140  154.8320 C   0  0  0  0  0  0  0  0  0  0  0  0
  160.1720  208.9620  157.2530 N   0  0  0  0  0  0  0  0  0  0  0  0
  161.2980  209.7070  154.7540 C   0  0  0  0  0  0  0  0  0  0  0  0
  159.4010  207.0430  156.1940 O   0  0  0  0  0  0  0  0  0  0  0  0
  160.7630  210.1170  157.1930 C   0  0  0  0  0  3  0  0  0  0  0  0
  161.9590  210.0760  153.5850 O   0  0  0  0  0  1  0  0  0  0  0  0
  160.4890  211.9170  155.5320 C   0  0  0  0  0  1  0  0  0  0  0  0
  161.2950  210.6870  155.9050 C   0  0  2  0  0  3  0  0  0  0  0  0
  161.0050  205.3960  149.5890 C   0  0  0  0  0  2  0  0  0  0  0  0
  160.8690  204.6450  148.2740 C   0  0  0  0  0  2  0  0  0  0  0  0
  162.1300  204.4400  147.7040 O   0  0  0  0  0  0  0  0  0  0  0  0
  160.8360  205.5770  145.5220 O   0  0  0  0  0  1  0  0  0  0  0  0
  161.8600  204.3260  146.0300 P   0  0  0  0  0  0  0  0  0  0  0  0
  163.1730  204.4110  145.2840 O   0  0  0  0  0  0  0  0  0  0  0  0
  161.1290  202.8380  145.6880 O   0  0  0  0  0  1  0  0  0  0  0  0
  1  5  1  0  0  0  0
  1  3  1  0  0  0  0
  2 13  1  0  0  0  0
  3 26  1  0  0  0  0
  3  2  2  0  0  0  0
  4  6  1  0  0  0  0
  4  2  1  0  0  0  0
  5  4  2  0  0  0  0
  7  6  1  0  0  0  0
  8  7  1  0  0  0  0
  9  8  1  0  0  0  0
 10  9  1  0  0  0  0
 12 10  1  0  0  0  0
 12 11  1  0  0  0  0
 13 14  1  0  0  0  0
 14 15  1  0  0  0  0
 15 16  1  1  0  0  0
 15 18  1  0  0  0  0
 17 21  2  0  0  0  0
 17 19  1  0  0  0  0
 18 17  1  0  0  0  0
 20 18  2  0  0  0  0
 20 25  1  0  0  0  0
 22 19  2  0  0  0  0
 23 20  1  0  0  0  0
 25 24  1  6  0  0  0
 25 22  1  0  0  0  0
 27 26  1  0  0  0  0
 28 27  1  0  0  0  0
 29 30  1  0  0  0  0
 30 28  1  0  0  0  0
 31 30  2  0  0  0  0
 32 30  1  0  0  0  0
M  END
>  <MODEL>
5

>  <REMARK>
 VINA RESULT:      -6.6      2.906      8.114
  Name = 
  14 active torsions:
  status: ('A' for Active; 'I' for Inactive)
    1  A    between atoms: O_1  and  C_10
    2  A    between atoms: O_1  and  C_28
    3  A    between atoms: C_2  and  N_27
    4  A    between atoms: C_2  and  C_28
    5  A    between atoms: C_5  and  C_15
    6  A    between atoms: C_6  and  O_11
    7  A    between atoms: C_6  and  C_32
    8  A    between atoms: C_7  and  C_17
    9  A    between atoms: C_10  and  C_13
   10  A    between atoms: O_11  and  P_26
   11  A    between atoms: C_13  and  C_22
   12  A    between atoms: C_15  and  N_25
   13  A    between atoms: C_17  and  N_25
   14  A    between atoms: C_21  and  C_32
                            x       y       z     vdW  Elec       q    Type
                         _______ _______ _______ _____ _____    ______ ____

>  <TORSDO>
F 14

$$$$
=
 OpenBabel11052411513D

 32 33  0  0  1  0  0  0  0  0999 V2000
  161.1650  209.5250  152.1510 O   0  0  0  0  0  0  0  0  0  0  0  0
  161.5340  207.3870  151.8980 C   0  0  0  0  0  0  0  0  0  0  0  0
  161.5490  208.6190  151.2820 C   0  0  0  0  0  0  0  0  0  0  0  0
  161.1010  207.6600  153.1770 C   0  0  0  0  0  0  0  0  0  0  0  0
  160.8810  208.9840  153.3020 N   0  0  0  0  0  0  0  0  0  0  0  0
  160.8400  206.6640  154.2580 C   0  0  0  0  0  2  0  0  0  0  0  0
  159.9030  207.2370  155.3070 C   0  0  0  0  0  2  0  0  0  0  0  0
  160.4380  207.0510  156.5810 O   0  0  0  0  0  0  0  0  0  0  0  0
  160.4560  208.3250  157.1470 C   0  0  0  0  0  2  0  0  0  0  0  0
  161.8590  208.9030  157.0660 C   0  0  0  0  0  2  0  0  0  0  0  0
  162.7630  210.6970  155.8760 C   0  0  0  0  0  1  0  0  0  0  0  0
  161.7890  210.3460  156.8970 N   0  0  0  0  0  2  0  0  0  0  0  0
  161.8330  206.0560  151.2960 C   0  0  0  0  0  2  0  0  0  0  0  0
  161.1000  205.9110  150.0470 N   0  0  0  0  0  2  0  0  0  0  0  0
  161.3630  204.5640  149.5650 C   0  0  1  0  0  3  0  0  0  0  0  0
  160.3420  203.5950  150.1400 C   0  0  0  0  0  1  0  0  0  0  0  0
  161.2860  205.7870  147.3130 C   0  0  0  0  0  0  0  0  0  0  0  0
  161.3730  204.5190  148.0600 C   0  0  0  0  0  0  0  0  0  0  0  0
  161.4650  205.7900  145.8950 N   0  0  0  0  0  0  0  0  0  0  0  0
  161.5190  203.3670  147.3750 C   0  0  0  0  0  0  0  0  0  0  0  0
  161.0990  206.8740  147.9170 O   0  0  0  0  0  0  0  0  0  0  0  0
  161.5990  204.6890  145.2190 C   0  0  0  0  0  3  0  0  0  0  0  0
  161.6590  202.1600  148.0570 O   0  0  0  0  0  1  0  0  0  0  0  0
  160.2870  202.6080  145.3630 C   0  0  0  0  0  1  0  0  0  0  0  0
  161.5240  203.3300  145.8640 C   0  0  2  0  0  3  0  0  0  0  0  0
  161.9630  208.9130  149.8770 C   0  0  0  0  0  2  0  0  0  0  0  0
  161.9630  210.4130  149.6350 C   0  0  0  0  0  2  0  0  0  0  0  0
  161.8980  210.6790  148.2630 O   0  0  0  0  0  0  0  0  0  0  0  0
  160.8470  212.7190  146.6940 O   0  0  0  0  0  0  0  0  0  0  0  0
  161.6630  212.3570  148.1350 P   0  0  0  0  0  0  0  0  0  0  0  0
  160.8590  212.8620  149.3130 O   0  0  0  0  0  1  0  0  0  0  0  0
  163.1700  213.1280  148.1270 O   0  0  0  0  0  1  0  0  0  0  0  0
  1  5  1  0  0  0  0
  2  4  1  0  0  0  0
  3  2  2  0  0  0  0
  3  1  1  0  0  0  0
  4  5  2  0  0  0  0
  4  6  1  0  0  0  0
  6  7  1  0  0  0  0
  7  8  1  0  0  0  0
  8  9  1  0  0  0  0
 10  9  1  0  0  0  0
 11 12  1  0  0  0  0
 12 10  1  0  0  0  0
 13  2  1  0  0  0  0
 14 13  1  0  0  0  0
 15 14  1  0  0  0  0
 15 16  1  6  0  0  0
 17 21  2  0  0  0  0
 17 18  1  0  0  0  0
 18 15  1  0  0  0  0
 19 17  1  0  0  0  0
 20 23  1  0  0  0  0
 20 18  2  0  0  0  0
 22 25  1  0  0  0  0
 22 19  2  0  0  0  0
 25 24  1  6  0  0  0
 25 20  1  0  0  0  0
 26  3  1  0  0  0  0
 27 26  1  0  0  0  0
 28 27  1  0  0  0  0
 29 30  2  0  0  0  0
 30 28  1  0  0  0  0
 30 31  1  0  0  0  0
 32 30  1  0  0  0  0
M  END
>  <MODEL>
6

>  <REMARK>
 VINA RESULT:      -6.6      1.034      1.955
  Name = 
  14 active torsions:
  status: ('A' for Active; 'I' for Inactive)
    1  A    between atoms: O_1  and  C_10
    2  A    between atoms: O_1  and  C_28
    3  A    between atoms: C_2  and  N_27
    4  A    between atoms: C_2  and  C_28
    5  A    between atoms: C_5  and  C_15
    6  A    between atoms: C_6  and  O_11
    7  A    between atoms: C_6  and  C_32
    8  A    between atoms: C_7  and  C_17
    9  A    between atoms: C_10  and  C_13
   10  A    between atoms: O_11  and  P_26
   11  A    between atoms: C_13  and  C_22
   12  A    between atoms: C_15  and  N_25
   13  A    between atoms: C_17  and  N_25
   14  A    between atoms: C_21  and  C_32
                            x       y       z     vdW  Elec       q    Type
                         _______ _______ _______ _____ _____    ______ ____

>  <TORSDO>
F 14

$$$$
=
 OpenBabel11052411513D

 32 33  0  0  1  0  0  0  0  0999 V2000
  161.9170  209.5210  151.7430 O   0  0  0  0  0  0  0  0  0  0  0  0
  162.0810  208.4170  149.8660 C   0  0  0  0  0  0  0  0  0  0  0  0
  162.0680  208.3180  151.2390 C   0  0  0  0  0  0  0  0  0  0  0  0
  161.9400  209.7660  149.6270 C   0  0  0  0  0  0  0  0  0  0  0  0
  161.8420  210.4200  150.8030 N   0  0  0  0  0  0  0  0  0  0  0  0
  161.9570  210.4410  148.2950 C   0  0  0  0  0  2  0  0  0  0  0  0
  162.5970  211.8140  148.3920 C   0  0  0  0  0  2  0  0  0  0  0  0
  161.6460  212.8040  148.1500 O   0  0  0  0  0  0  0  0  0  0  0  0
  160.8930  212.3200  147.0820 C   0  0  0  0  0  2  0  0  0  0  0  0
  161.1220  213.1890  145.8570 C   0  0  0  0  0  2  0  0  0  0  0  0
  158.9330  212.4810  145.4550 C   0  0  0  0  0  1  0  0  0  0  0  0
  159.8430  213.6060  145.3020 N   0  0  0  0  0  2  0  0  0  0  0  0
  162.2880  207.3280  148.8690 C   0  0  0  0  0  2  0  0  0  0  0  0
  161.1770  206.3900  148.9360 N   0  0  0  0  0  2  0  0  0  0  0  0
  161.4070  205.3970  147.8990 C   0  0  1  0  0  3  0  0  0  0  0  0
  162.8340  205.4980  147.3850 C   0  0  0  0  0  1  0  0  0  0  0  0
  160.9200  203.8030  149.8480 C   0  0  0  0  0  0  0  0  0  0  0  0
  161.1040  204.0090  148.4000 C   0  0  0  0  0  0  0  0  0  0  0  0
  160.4650  202.5380  150.3340 N   0  0  0  0  0  0  0  0  0  0  0  0
  160.9350  202.9630  147.5650 C   0  0  0  0  0  0  0  0  0  0  0  0
  161.1190  204.7440  150.6580 O   0  0  0  0  0  0  0  0  0  0  0  0
  160.3050  201.5190  149.5450 C   0  0  0  0  0  3  0  0  0  0  0  0
  161.0490  203.1410  146.1890 O   0  0  0  0  0  1  0  0  0  0  0  0
  161.8110  200.6570  147.7960 C   0  0  0  0  0  1  0  0  0  0  0  0
  160.6350  201.5720  148.0770 C   0  0  2  0  0  3  0  0  0  0  0  0
  162.1670  207.0660  152.0480 C   0  0  0  0  0  2  0  0  0  0  0  0
  161.0190  206.9930  153.0420 C   0  0  0  0  0  2  0  0  0  0  0  0
  161.5030  206.6660  154.3130 O   0  0  0  0  0  0  0  0  0  0  0  0
  161.9720  208.2360  156.5580 O   0  0  0  0  0  1  0  0  0  0  0  0
  160.8410  207.8250  155.3640 P   0  0  0  0  0  0  0  0  0  0  0  0
  160.4480  209.0650  154.5920 O   0  0  0  0  0  0  0  0  0  0  0  0
  159.4630  207.1790  156.1040 O   0  0  0  0  0  1  0  0  0  0  0  0
  2  3  2  0  0  0  0
  3  1  1  0  0  0  0
  3 26  1  0  0  0  0
  4  2  1  0  0  0  0
  4  5  2  0  0  0  0
  5  1  1  0  0  0  0
  6  7  1  0  0  0  0
  6  4  1  0  0  0  0
  8  7  1  0  0  0  0
  9  8  1  0  0  0  0
 10  9  1  0  0  0  0
 12 11  1  0  0  0  0
 12 10  1  0  0  0  0
 13 14  1  0  0  0  0
 13  2  1  0  0  0  0
 15 16  1  1  0  0  0
 15 18  1  0  0  0  0
 15 14  1  0  0  0  0
 17 19  1  0  0  0  0
 17 21  2  0  0  0  0
 18 17  1  0  0  0  0
 20 25  1  0  0  0  0
 20 18  2  0  0  0  0
 22 19  2  0  0  0  0
 23 20  1  0  0  0  0
 25 24  1  1  0  0  0
 25 22  1  0  0  0  0
 26 27  1  0  0  0  0
 27 28  1  0  0  0  0
 28 30  1  0  0  0  0
 30 32  1  0  0  0  0
 30 29  1  0  0  0  0
 31 30  2  0  0  0  0
M  END
>  <MODEL>
7

>  <REMARK>
 VINA RESULT:      -6.5      3.120      6.368
  Name = 
  14 active torsions:
  status: ('A' for Active; 'I' for Inactive)
    1  A    between atoms: O_1  and  C_10
    2  A    between atoms: O_1  and  C_28
    3  A    between atoms: C_2  and  N_27
    4  A    between atoms: C_2  and  C_28
    5  A    between atoms: C_5  and  C_15
    6  A    between atoms: C_6  and  O_11
    7  A    between atoms: C_6  and  C_32
    8  A    between atoms: C_7  and  C_17
    9  A    between atoms: C_10  and  C_13
   10  A    between atoms: O_11  and  P_26
   11  A    between atoms: C_13  and  C_22
   12  A    between atoms: C_15  and  N_25
   13  A    between atoms: C_17  and  N_25
   14  A    between atoms: C_21  and  C_32
                            x       y       z     vdW  Elec       q    Type
                         _______ _______ _______ _____ _____    ______ ____

>  <TORSDO>
F 14

$$$$
=
 OpenBabel11052411513D

 32 33  0  0  1  0  0  0  0  0999 V2000
  161.5410  207.5640  148.3340 O   0  0  0  0  0  0  0  0  0  0  0  0
  161.6760  208.1910  150.4220 C   0  0  0  0  0  0  0  0  0  0  0  0
  161.4110  207.1410  149.5710 C   0  0  0  0  0  0  0  0  0  0  0  0
  161.9540  209.2430  149.5780 C   0  0  0  0  0  0  0  0  0  0  0  0
  161.8630  208.8260  148.2990 N   0  0  0  0  0  0  0  0  0  0  0  0
  162.2490  210.6510  149.9780 C   0  0  0  0  0  2  0  0  0  0  0  0
  162.0510  211.5990  148.8090 C   0  0  0  0  0  2  0  0  0  0  0  0
  161.3520  212.7320  149.2230 O   0  0  0  0  0  0  0  0  0  0  0  0
  160.4330  212.9750  148.2030 C   0  0  0  0  0  2  0  0  0  0  0  0
  160.8340  212.2030  146.9580 C   0  0  0  0  0  2  0  0  0  0  0  0
  162.2150  213.5040  145.5970 C   0  0  0  0  0  1  0  0  0  0  0  0
  160.8360  213.0910  145.8060 N   0  0  0  0  0  2  0  0  0  0  0  0
  161.5970  208.2080  151.9110 C   0  0  0  0  0  2  0  0  0  0  0  0
  160.4750  209.0350  152.3290 N   0  0  0  0  0  2  0  0  0  0  0  0
  160.8140  209.5630  153.6410 C   0  0  1  0  0  3  0  0  0  0  0  0
  162.1250  210.3290  153.5740 C   0  0  0  0  0  1  0  0  0  0  0  0
  159.1080  211.4470  153.3000 C   0  0  0  0  0  0  0  0  0  0  0  0
  159.7040  210.4270  154.1810 C   0  0  0  0  0  0  0  0  0  0  0  0
  157.9450  212.1610  153.7240 N   0  0  0  0  0  0  0  0  0  0  0  0
  159.1970  210.2560  155.4190 C   0  0  0  0  0  0  0  0  0  0  0  0
  159.5880  211.6660  152.1590 O   0  0  0  0  0  0  0  0  0  0  0  0
  157.4480  212.0150  154.9160 C   0  0  0  0  0  3  0  0  0  0  0  0
  159.7040  209.2630  156.2530 O   0  0  0  0  0  1  0  0  0  0  0  0
  158.6090  211.9900  157.0890 C   0  0  0  0  0  1  0  0  0  0  0  0
  158.0860  211.1310  155.9550 C   0  0  2  0  0  3  0  0  0  0  0  0
  161.0680  205.7400  149.9560 C   0  0  0  0  0  2  0  0  0  0  0  0
  160.7710  204.9130  148.7150 C   0  0  0  0  0  2  0  0  0  0  0  0
  161.9550  204.3660  148.2090 O   0  0  0  0  0  0  0  0  0  0  0  0
  161.2050  202.9100  145.9620 O   0  0  0  0  0  1  0  0  0  0  0  0
  161.7860  204.4020  146.5180 P   0  0  0  0  0  0  0  0  0  0  0  0
  160.8280  205.5010  146.1140 O   0  0  0  0  0  1  0  0  0  0  0  0
  163.2970  204.7050  145.8180 O   0  0  0  0  0  0  0  0  0  0  0  0
  1  3  1  0  0  0  0
  2 13  1  0  0  0  0
  3 26  1  0  0  0  0
  3  2  2  0  0  0  0
  4  6  1  0  0  0  0
  4  2  1  0  0  0  0
  5  1  1  0  0  0  0
  5  4  2  0  0  0  0
  7  8  1  0  0  0  0
  7  6  1  0  0  0  0
  9  8  1  0  0  0  0
 10  9  1  0  0  0  0
 11 12  1  0  0  0  0
 12 10  1  0  0  0  0
 13 14  1  0  0  0  0
 14 15  1  0  0  0  0
 15 16  1  6  0  0  0
 15 18  1  0  0  0  0
 17 19  1  0  0  0  0
 17 18  1  0  0  0  0
 18 20  2  0  0  0  0
 19 22  2  0  0  0  0
 20 25  1  0  0  0  0
 20 23  1  0  0  0  0
 21 17  2  0  0  0  0
 22 25  1  0  0  0  0
 25 24  1  1  0  0  0
 27 26  1  0  0  0  0
 28 27  1  0  0  0  0
 29 30  1  0  0  0  0
 30 28  1  0  0  0  0
 31 30  1  0  0  0  0
 32 30  2  0  0  0  0
M  END
>  <MODEL>
8

>  <REMARK>
 VINA RESULT:      -6.5      3.288      8.611
  Name = 
  14 active torsions:
  status: ('A' for Active; 'I' for Inactive)
    1  A    between atoms: O_1  and  C_10
    2  A    between atoms: O_1  and  C_28
    3  A    between atoms: C_2  and  N_27
    4  A    between atoms: C_2  and  C_28
    5  A    between atoms: C_5  and  C_15
    6  A    between atoms: C_6  and  O_11
    7  A    between atoms: C_6  and  C_32
    8  A    between atoms: C_7  and  C_17
    9  A    between atoms: C_10  and  C_13
   10  A    between atoms: O_11  and  P_26
   11  A    between atoms: C_13  and  C_22
   12  A    between atoms: C_15  and  N_25
   13  A    between atoms: C_17  and  N_25
   14  A    between atoms: C_21  and  C_32
                            x       y       z     vdW  Elec       q    Type
                         _______ _______ _______ _____ _____    ______ ____

>  <TORSDO>
F 14

$$$$
=
 OpenBabel11052411513D

 32 33  0  0  1  0  0  0  0  0999 V2000
  161.6740  208.3830  148.4030 O   0  0  0  0  0  0  0  0  0  0  0  0
  161.4320  207.9800  150.5360 C   0  0  0  0  0  0  0  0  0  0  0  0
  161.8360  208.9040  149.5980 C   0  0  0  0  0  0  0  0  0  0  0  0
  161.0410  206.8920  149.7870 C   0  0  0  0  0  0  0  0  0  0  0  0
  161.2020  207.1710  148.4770 N   0  0  0  0  0  0  0  0  0  0  0  0
  160.5720  205.5740  150.3090 C   0  0  0  0  0  2  0  0  0  0  0  0
  161.5580  204.4730  149.9600 C   0  0  0  0  0  2  0  0  0  0  0  0
  160.8820  203.3790  149.4210 O   0  0  0  0  0  0  0  0  0  0  0  0
  161.2190  203.3830  148.0690 C   0  0  0  0  0  2  0  0  0  0  0  0
  160.9960  202.0000  147.4800 C   0  0  0  0  0  2  0  0  0  0  0  0
  161.4500  203.3610  145.6370 C   0  0  0  0  0  1  0  0  0  0  0  0
  160.8510  202.0970  146.0360 N   0  0  0  0  0  2  0  0  0  0  0  0
  161.4850  208.0960  152.0220 C   0  0  0  0  0  2  0  0  0  0  0  0
  160.3730  208.9120  152.4860 N   0  0  0  0  0  2  0  0  0  0  0  0
  160.8040  209.5360  153.7270 C   0  0  1  0  0  3  0  0  0  0  0  0
  162.0790  210.3300  153.4980 C   0  0  0  0  0  1  0  0  0  0  0  0
  159.0830  211.4140  153.4400 C   0  0  0  0  0  0  0  0  0  0  0  0
  159.7160  210.4030  154.3050 C   0  0  0  0  0  0  0  0  0  0  0  0
  157.9370  212.1320  153.9060 N   0  0  0  0  0  0  0  0  0  0  0  0
  159.2610  210.2430  155.5640 C   0  0  0  0  0  0  0  0  0  0  0  0
  159.5160  211.6240  152.2780 O   0  0  0  0  0  0  0  0  0  0  0  0
  157.4910  211.9960  155.1180 C   0  0  0  0  0  3  0  0  0  0  0  0
  159.8040  209.2580  156.3850 O   0  0  0  0  0  1  0  0  0  0  0  0
  158.7410  211.9920  157.2420 C   0  0  0  0  0  1  0  0  0  0  0  0
  158.1720  211.1220  156.1370 C   0  0  2  0  0  3  0  0  0  0  0  0
  162.3400  210.2850  149.8600 C   0  0  0  0  0  2  0  0  0  0  0  0
  162.1230  211.1620  148.6380 C   0  0  0  0  0  2  0  0  0  0  0  0
  161.6320  212.4130  149.0260 O   0  0  0  0  0  0  0  0  0  0  0  0
  162.3370  213.9200  146.7980 O   0  0  0  0  0  1  0  0  0  0  0  0
  161.0630  213.1410  147.5990 P   0  0  0  0  0  0  0  0  0  0  0  0
  160.4560  212.0960  146.6880 O   0  0  0  0  0  0  0  0  0  0  0  0
  159.8760  214.2810  147.9950 O   0  0  0  0  0  1  0  0  0  0  0  0
  1  5  1  0  0  0  0
  1  3  1  0  0  0  0
  2 13  1  0  0  0  0
  3 26  1  0  0  0  0
  3  2  2  0  0  0  0
  4  6  1  0  0  0  0
  4  2  1  0  0  0  0
  5  4  2  0  0  0  0
  7  6  1  0  0  0  0
  8  7  1  0  0  0  0
  9  8  1  0  0  0  0
 10  9  1  0  0  0  0
 11 12  1  0  0  0  0
 12 10  1  0  0  0  0
 13 14  1  0  0  0  0
 14 15  1  0  0  0  0
 15 16  1  6  0  0  0
 15 18  1  0  0  0  0
 17 19  1  0  0  0  0
 17 18  1  0  0  0  0
 18 20  2  0  0  0  0
 19 22  2  0  0  0  0
 20 25  1  0  0  0  0
 20 23  1  0  0  0  0
 21 17  2  0  0  0  0
 22 25  1  0  0  0  0
 25 24  1  1  0  0  0
 27 28  1  0  0  0  0
 27 26  1  0  0  0  0
 29 30  1  0  0  0  0
 30 32  1  0  0  0  0
 30 28  1  0  0  0  0
 31 30  2  0  0  0  0
M  END
>  <MODEL>
9

>  <REMARK>
 VINA RESULT:      -6.5      2.047      8.090
  Name = 
  14 active torsions:
  status: ('A' for Active; 'I' for Inactive)
    1  A    between atoms: O_1  and  C_10
    2  A    between atoms: O_1  and  C_28
    3  A    between atoms: C_2  and  N_27
    4  A    between atoms: C_2  and  C_28
    5  A    between atoms: C_5  and  C_15
    6  A    between atoms: C_6  and  O_11
    7  A    between atoms: C_6  and  C_32
    8  A    between atoms: C_7  and  C_17
    9  A    between atoms: C_10  and  C_13
   10  A    between atoms: O_11  and  P_26
   11  A    between atoms: C_13  and  C_22
   12  A    between atoms: C_15  and  N_25
   13  A    between atoms: C_17  and  N_25
   14  A    between atoms: C_21  and  C_32
                            x       y       z     vdW  Elec       q    Type
                         _______ _______ _______ _____ _____    ______ ____

>  <TORSDO>
F 14

$$$$
