=
 OpenBabel11042423103D

 29 31  0  0  1  0  0  0  0  0999 V2000
  160.8540  203.4420  151.1330 C   0  0  0  0  0  3  0  0  0  0  0  0
  161.3560  207.1350  150.6260 C   0  0  0  0  0  3  0  0  0  0  0  0
  161.1610  205.3120  152.6920 N   0  0  0  0  0  2  0  0  0  0  0  0
  161.3510  206.6260  152.9860 C   0  0  0  0  0  0  0  0  0  0  0  0
  161.4580  207.5670  151.9490 C   0  0  0  0  0  0  0  0  0  0  0  0
  161.0480  205.2930  148.9950 N   0  0  0  0  0  0  0  0  0  0  0  0
  161.0660  204.8700  151.4080 C   0  0  0  0  0  0  0  0  0  0  0  0
  160.7470  202.9980  149.8790 C   0  0  0  0  0  0  0  0  0  0  0  0
  160.8380  203.9180  148.7800 N   0  0  0  0  0  2  0  0  0  0  0  0
  161.1610  205.7780  150.3430 C   0  0  0  0  0  0  0  0  0  0  0  0
  161.4310  206.9870  154.1910 O   0  0  0  0  0  0  0  0  0  0  0  0
  160.2100  205.8750  146.7320 C   0  0  0  0  0  2  0  0  0  0  0  0
  163.0750  205.0370  146.5590 C   0  0  0  0  0  2  0  0  0  0  0  0
  161.9510  204.2700  145.9970 N   0  0  0  0  0  2  0  0  0  0  0  0
  161.2000  206.2010  147.8570 C   0  0  2  0  0  3  0  0  0  0  0  0
  162.6500  206.2670  147.3760 C   0  0  0  0  0  2  0  0  0  0  0  0
  160.8420  205.1240  145.5550 C   0  0  2  0  0  3  0  0  0  0  0  0
  161.2560  206.0840  144.4410 C   0  0  0  0  0  2  0  0  0  0  0  0
  161.2650  205.3860  143.0900 C   0  0  0  0  0  2  0  0  0  0  0  0
  161.8280  206.3000  142.0170 C   0  0  0  0  0  1  0  0  0  0  0  0
  161.6330  209.0220  152.2320 C   0  0  0  0  0  2  0  0  0  0  0  0
  162.2740  209.6680  151.1000 N   0  0  0  0  0  1  0  0  0  0  0  0
  159.0510  201.1970  149.7180 C   0  0  0  0  0  1  0  0  0  0  0  0
  160.5270  201.5400  149.6300 C   0  0  1  0  0  3  0  0  0  0  0  0
  161.0960  201.1240  148.3130 C   0  0  0  0  0  0  0  0  0  0  0  0
  162.1010  200.3640  148.2890 O   0  0  0  0  0  0  0  0  0  0  0  0
  160.5370  201.6040  147.1260 O   0  0  0  0  0  0  0  0  0  0  0  0
  160.7390  200.9440  145.8860 C   0  0  0  0  0  2  0  0  0  0  0  0
  159.8190  201.5400  144.8420 C   0  0  0  0  0  1  0  0  0  0  0  0
  1  7  1  0  0  0  0
  2  5  2  0  0  0  0
  3  4  1  0  0  0  0
  4 11  2  0  0  0  0
  5 21  1  0  0  0  0
  5  4  1  0  0  0  0
  6 10  1  0  0  0  0
  7  3  1  0  0  0  0
  8  1  2  0  0  0  0
  9  6  1  0  0  0  0
  9  8  1  0  0  0  0
 10  2  1  0  0  0  0
 10  7  2  0  0  0  0
 13 16  1  0  0  0  0
 14 13  1  0  0  0  0
 15 12  1  6  0  0  0
 15  6  1  0  0  0  0
 16 15  1  0  0  0  0
 17 18  1  6  0  0  0
 17 14  1  0  0  0  0
 17 12  1  0  0  0  0
 19 18  1  0  0  0  0
 20 19  1  0  0  0  0
 22 21  1  0  0  0  0
 24 23  1  6  0  0  0
 24  8  1  0  0  0  0
 25 24  1  0  0  0  0
 26 25  2  0  0  0  0
 27 25  1  0  0  0  0
 28 27  1  0  0  0  0
 29 28  1  0  0  0  0
M  END
>  <MODEL>
1

>  <REMARK>
 VINA RESULT:      -6.6      0.000      0.000
  Name = 
  8 active torsions:
  status: ('A' for Active; 'I' for Inactive)
    1  A    between atoms: C_1  and  C_5
    2  A    between atoms: C_1  and  C_25
    3  A    between atoms: C_6  and  C_15
    4  A    between atoms: O_9  and  C_10
    5  A    between atoms: O_9  and  C_16
    6  A    between atoms: C_10  and  C_18
    7  A    between atoms: C_14  and  N_19
    8  A    between atoms: C_18  and  C_21
                            x       y       z     vdW  Elec       q    Type
                         _______ _______ _______ _____ _____    ______ ____

>  <TORSDO>
F 8

$$$$
=
 OpenBabel11042423103D

 29 31  0  0  1  0  0  0  0  0999 V2000
  161.2840  211.3020  150.8070 C   0  0  0  0  0  3  0  0  0  0  0  0
  161.4650  207.8660  152.3260 C   0  0  0  0  0  3  0  0  0  0  0  0
  160.6450  210.4160  153.0040 N   0  0  0  0  0  2  0  0  0  0  0  0
  160.5200  209.4160  153.9180 C   0  0  0  0  0  0  0  0  0  0  0  0
  160.9270  208.1130  153.5900 C   0  0  0  0  0  0  0  0  0  0  0  0
  162.1350  208.6960  150.0880 N   0  0  0  0  0  0  0  0  0  0  0  0
  161.1610  210.1940  151.7650 C   0  0  0  0  0  0  0  0  0  0  0  0
  161.8000  211.1000  149.5920 C   0  0  0  0  0  0  0  0  0  0  0  0
  162.2410  209.7890  149.2070 N   0  0  0  0  0  2  0  0  0  0  0  0
  161.5840  208.9070  151.3990 C   0  0  0  0  0  0  0  0  0  0  0  0
  160.0390  209.6720  155.0540 O   0  0  0  0  0  0  0  0  0  0  0  0
  162.8600  207.3210  148.1520 C   0  0  0  0  0  2  0  0  0  0  0  0
  160.2480  206.3000  149.1910 C   0  0  0  0  0  2  0  0  0  0  0  0
  160.4240  206.9500  147.8810 N   0  0  0  0  0  2  0  0  0  0  0  0
  162.5350  207.3570  149.6500 C   0  0  2  0  0  3  0  0  0  0  0  0
  161.5120  206.2990  150.0650 C   0  0  0  0  0  2  0  0  0  0  0  0
  161.7480  206.7060  147.2960 C   0  0  2  0  0  3  0  0  0  0  0  0
  162.0040  205.2230  147.0330 C   0  0  0  0  0  2  0  0  0  0  0  0
  162.4750  204.9910  145.6060 C   0  0  0  0  0  2  0  0  0  0  0  0
  161.4010  205.3960  144.6130 C   0  0  0  0  0  1  0  0  0  0  0  0
  160.8370  206.9970  154.5770 C   0  0  0  0  0  2  0  0  0  0  0  0
  161.1910  205.7440  153.9340 N   0  0  0  0  0  1  0  0  0  0  0  0
  163.1400  212.0890  147.7560 C   0  0  0  0  0  1  0  0  0  0  0  0
  161.9170  212.2480  148.6420 C   0  0  1  0  0  3  0  0  0  0  0  0
  160.6780  212.4000  147.8220 C   0  0  0  0  0  0  0  0  0  0  0  0
  160.5980  211.8090  146.7110 O   0  0  0  0  0  0  0  0  0  0  0  0
  159.6380  213.2190  148.2690 O   0  0  0  0  0  0  0  0  0  0  0  0
  158.5720  213.6050  147.4150 C   0  0  0  0  0  2  0  0  0  0  0  0
  157.3450  212.7760  147.7340 C   0  0  0  0  0  1  0  0  0  0  0  0
  1  7  1  0  0  0  0
  2  5  2  0  0  0  0
  3  4  1  0  0  0  0
  4 11  2  0  0  0  0
  5  4  1  0  0  0  0
  5 21  1  0  0  0  0
  6 10  1  0  0  0  0
  7  3  1  0  0  0  0
  8  1  2  0  0  0  0
  9  8  1  0  0  0  0
  9  6  1  0  0  0  0
 10  7  2  0  0  0  0
 10  2  1  0  0  0  0
 13 16  1  0  0  0  0
 14 13  1  0  0  0  0
 15 12  1  6  0  0  0
 15 16  1  0  0  0  0
 15  6  1  0  0  0  0
 17 18  1  1  0  0  0
 17 14  1  0  0  0  0
 17 12  1  0  0  0  0
 19 18  1  0  0  0  0
 20 19  1  0  0  0  0
 22 21  1  0  0  0  0
 24 23  1  6  0  0  0
 24  8  1  0  0  0  0
 25 27  1  0  0  0  0
 25 24  1  0  0  0  0
 26 25  2  0  0  0  0
 28 29  1  0  0  0  0
 28 27  1  0  0  0  0
M  END
>  <MODEL>
2

>  <REMARK>
 VINA RESULT:      -6.2      3.877      6.841
  Name = 
  8 active torsions:
  status: ('A' for Active; 'I' for Inactive)
    1  A    between atoms: C_1  and  C_5
    2  A    between atoms: C_1  and  C_25
    3  A    between atoms: C_6  and  C_15
    4  A    between atoms: O_9  and  C_10
    5  A    between atoms: O_9  and  C_16
    6  A    between atoms: C_10  and  C_18
    7  A    between atoms: C_14  and  N_19
    8  A    between atoms: C_18  and  C_21
                            x       y       z     vdW  Elec       q    Type
                         _______ _______ _______ _____ _____    ______ ____

>  <TORSDO>
F 8

$$$$
=
 OpenBabel11042423103D

 29 31  0  0  1  0  0  0  0  0999 V2000
  161.8080  209.7340  148.3040 C   0  0  0  0  0  3  0  0  0  0  0  0
  161.5200  206.8570  150.7100 C   0  0  0  0  0  3  0  0  0  0  0  0
  161.4170  207.3310  147.9910 N   0  0  0  0  0  2  0  0  0  0  0  0
  161.2490  206.0600  148.4470 C   0  0  0  0  0  0  0  0  0  0  0  0
  161.3030  205.7990  149.8260 C   0  0  0  0  0  0  0  0  0  0  0  0
  161.9160  209.2740  151.0990 N   0  0  0  0  0  0  0  0  0  0  0  0
  161.6360  208.3740  148.8370 C   0  0  0  0  0  0  0  0  0  0  0  0
  162.0110  210.7670  149.1240 C   0  0  0  0  0  0  0  0  0  0  0  0
  162.0660  210.5590  150.5440 N   0  0  0  0  0  2  0  0  0  0  0  0
  161.6930  208.1570  150.2220 C   0  0  0  0  0  0  0  0  0  0  0  0
  161.0460  205.1280  147.6240 O   0  0  0  0  0  0  0  0  0  0  0  0
  160.8620  208.2710  153.1100 C   0  0  0  0  0  2  0  0  0  0  0  0
  160.9830  211.2440  153.4120 C   0  0  0  0  0  2  0  0  0  0  0  0
  159.7370  210.4750  153.2560 N   0  0  0  0  0  2  0  0  0  0  0  0
  162.0370  209.0780  152.5440 C   0  0  2  0  0  3  0  0  0  0  0  0
  162.2610  210.4010  153.2770 C   0  0  0  0  0  2  0  0  0  0  0  0
  159.8200  209.1290  153.8350 C   0  0  2  0  0  3  0  0  0  0  0  0
  160.0740  209.1580  155.3410 C   0  0  0  0  0  2  0  0  0  0  0  0
  160.8260  207.9180  155.7960 C   0  0  0  0  0  2  0  0  0  0  0  0
  159.9510  207.0550  156.6880 C   0  0  0  0  0  1  0  0  0  0  0  0
  161.0900  204.4250  150.3680 C   0  0  0  0  0  2  0  0  0  0  0  0
  161.6900  204.3190  151.6860 N   0  0  0  0  0  1  0  0  0  0  0  0
  163.5440  212.2900  147.9090 C   0  0  0  0  0  1  0  0  0  0  0  0
  162.1770  212.1380  148.5520 C   0  0  1  0  0  3  0  0  0  0  0  0
  161.0890  212.4540  147.5780 C   0  0  0  0  0  0  0  0  0  0  0  0
  161.3770  212.5950  146.3590 O   0  0  0  0  0  0  0  0  0  0  0  0
  159.7770  212.6250  148.0250 O   0  0  0  0  0  0  0  0  0  0  0  0
  158.7180  212.9320  147.1320 C   0  0  0  0  0  2  0  0  0  0  0  0
  157.4130  212.9920  147.8970 C   0  0  0  0  0  1  0  0  0  0  0  0
  1  7  1  0  0  0  0
  1  8  2  0  0  0  0
  3  4  1  0  0  0  0
  3  7  1  0  0  0  0
  4  5  1  0  0  0  0
  5 21  1  0  0  0  0
  5  2  2  0  0  0  0
  7 10  2  0  0  0  0
  8  9  1  0  0  0  0
  9  6  1  0  0  0  0
 10  2  1  0  0  0  0
 10  6  1  0  0  0  0
 11  4  2  0  0  0  0
 12 17  1  0  0  0  0
 14 13  1  0  0  0  0
 14 17  1  0  0  0  0
 15  6  1  6  0  0  0
 15 12  1  0  0  0  0
 15 16  1  0  0  0  0
 16 13  1  0  0  0  0
 17 18  1  1  0  0  0
 18 19  1  0  0  0  0
 19 20  1  0  0  0  0
 21 22  1  0  0  0  0
 24 23  1  6  0  0  0
 24  8  1  0  0  0  0
 25 27  1  0  0  0  0
 25 24  1  0  0  0  0
 26 25  2  0  0  0  0
 28 29  1  0  0  0  0
 28 27  1  0  0  0  0
M  END
>  <MODEL>
3

>  <REMARK>
 VINA RESULT:      -6.0      4.072      8.797
  Name = 
  8 active torsions:
  status: ('A' for Active; 'I' for Inactive)
    1  A    between atoms: C_1  and  C_5
    2  A    between atoms: C_1  and  C_25
    3  A    between atoms: C_6  and  C_15
    4  A    between atoms: O_9  and  C_10
    5  A    between atoms: O_9  and  C_16
    6  A    between atoms: C_10  and  C_18
    7  A    between atoms: C_14  and  N_19
    8  A    between atoms: C_18  and  C_21
                            x       y       z     vdW  Elec       q    Type
                         _______ _______ _______ _____ _____    ______ ____

>  <TORSDO>
F 8

$$$$
=
 OpenBabel11042423103D

 29 31  0  0  1  0  0  0  0  0999 V2000
  160.4840  210.3230  153.3770 C   0  0  0  0  0  3  0  0  0  0  0  0
  161.8020  210.1540  149.8580 C   0  0  0  0  0  3  0  0  0  0  0  0
  160.6540  211.9840  151.5790 N   0  0  0  0  0  2  0  0  0  0  0  0
  160.9920  212.3800  150.3220 C   0  0  0  0  0  0  0  0  0  0  0  0
  161.5800  211.4650  149.4350 C   0  0  0  0  0  0  0  0  0  0  0  0
  161.6580  208.4250  151.6290 N   0  0  0  0  0  0  0  0  0  0  0  0
  160.8680  210.7130  152.0120 C   0  0  0  0  0  0  0  0  0  0  0  0
  160.6780  209.0750  153.8100 C   0  0  0  0  0  0  0  0  0  0  0  0
  161.2670  208.0950  152.9410 N   0  0  0  0  0  2  0  0  0  0  0  0
  161.4490  209.7660  151.1550 C   0  0  0  0  0  0  0  0  0  0  0  0
  160.7710  213.5690  149.9670 O   0  0  0  0  0  0  0  0  0  0  0  0
  161.4440  207.0390  149.5810 C   0  0  0  0  0  2  0  0  0  0  0  0
  161.6370  205.2660  151.9810 C   0  0  0  0  0  2  0  0  0  0  0  0
  160.4310  205.4070  151.1480 N   0  0  0  0  0  2  0  0  0  0  0  0
  162.3130  207.4250  150.7840 C   0  0  2  0  0  3  0  0  0  0  0  0
  162.7800  206.2170  151.5960 C   0  0  0  0  0  2  0  0  0  0  0  0
  160.7390  205.6880  149.7400 C   0  0  2  0  0  3  0  0  0  0  0  0
  161.5370  204.5630  149.0840 C   0  0  0  0  0  2  0  0  0  0  0  0
  160.8130  203.2320  149.2070 C   0  0  0  0  0  2  0  0  0  0  0  0
  161.1410  202.3310  148.0310 C   0  0  0  0  0  1  0  0  0  0  0  0
  161.9340  211.8520  148.0370 C   0  0  0  0  0  2  0  0  0  0  0  0
  163.2960  212.3530  147.9960 N   0  0  0  0  0  1  0  0  0  0  0  0
  160.4680  207.2210  155.4420 C   0  0  0  0  0  1  0  0  0  0  0  0
  160.2730  208.7080  155.2010 C   0  0  1  0  0  3  0  0  0  0  0  0
  161.0160  209.5160  156.2130 C   0  0  0  0  0  0  0  0  0  0  0  0
  162.2770  209.5010  156.2080 O   0  0  0  0  0  0  0  0  0  0  0  0
  160.3170  210.2500  157.1740 O   0  0  0  0  0  0  0  0  0  0  0  0
  159.4750  211.3360  156.8180 C   0  0  0  0  0  2  0  0  0  0  0  0
  160.3240  212.5150  156.3950 C   0  0  0  0  0  1  0  0  0  0  0  0
  1  8  2  0  0  0  0
  2 10  1  0  0  0  0
  3  7  1  0  0  0  0
  4  3  1  0  0  0  0
  5  2  2  0  0  0  0
  5  4  1  0  0  0  0
  6  9  1  0  0  0  0
  7  1  1  0  0  0  0
  8 24  1  0  0  0  0
  9  8  1  0  0  0  0
 10  6  1  0  0  0  0
 10  7  2  0  0  0  0
 11  4  2  0  0  0  0
 12 17  1  0  0  0  0
 14 13  1  0  0  0  0
 15 12  1  6  0  0  0
 15 16  1  0  0  0  0
 15  6  1  0  0  0  0
 16 13  1  0  0  0  0
 17 18  1  1  0  0  0
 17 14  1  0  0  0  0
 18 19  1  0  0  0  0
 20 19  1  0  0  0  0
 21  5  1  0  0  0  0
 22 21  1  0  0  0  0
 24 23  1  1  0  0  0
 24 25  1  0  0  0  0
 25 27  1  0  0  0  0
 26 25  2  0  0  0  0
 28 27  1  0  0  0  0
 29 28  1  0  0  0  0
M  END
>  <MODEL>
4

>  <REMARK>
 VINA RESULT:      -5.9      4.356      7.793
  Name = 
  8 active torsions:
  status: ('A' for Active; 'I' for Inactive)
    1  A    between atoms: C_1  and  C_5
    2  A    between atoms: C_1  and  C_25
    3  A    between atoms: C_6  and  C_15
    4  A    between atoms: O_9  and  C_10
    5  A    between atoms: O_9  and  C_16
    6  A    between atoms: C_10  and  C_18
    7  A    between atoms: C_14  and  N_19
    8  A    between atoms: C_18  and  C_21
                            x       y       z     vdW  Elec       q    Type
                         _______ _______ _______ _____ _____    ______ ____

>  <TORSDO>
F 8

$$$$
=
 OpenBabel11042423103D

 29 31  0  0  1  0  0  0  0  0999 V2000
  161.3040  205.8860  153.1070 C   0  0  0  0  0  3  0  0  0  0  0  0
  160.8240  204.1800  149.7890 C   0  0  0  0  0  3  0  0  0  0  0  0
  161.3050  203.5270  152.4300 N   0  0  0  0  0  2  0  0  0  0  0  0
  161.1990  202.5290  151.5110 C   0  0  0  0  0  0  0  0  0  0  0  0
  160.9500  202.8410  150.1650 C   0  0  0  0  0  0  0  0  0  0  0  0
  160.8140  206.5820  150.4040 N   0  0  0  0  0  0  0  0  0  0  0  0
  161.1780  204.8370  152.0850 C   0  0  0  0  0  0  0  0  0  0  0  0
  161.1950  207.1740  152.7790 C   0  0  0  0  0  0  0  0  0  0  0  0
  160.9500  207.5520  151.4150 N   0  0  0  0  0  2  0  0  0  0  0  0
  160.9340  205.1920  150.7490 C   0  0  0  0  0  0  0  0  0  0  0  0
  161.3260  201.3310  151.8800 O   0  0  0  0  0  0  0  0  0  0  0  0
  160.5810  205.8070  148.0570 C   0  0  0  0  0  2  0  0  0  0  0  0
  162.7970  207.8070  148.2430 C   0  0  0  0  0  2  0  0  0  0  0  0
  162.9900  206.3790  147.9410 N   0  0  0  0  0  2  0  0  0  0  0  0
  160.5030  206.9880  149.0320 C   0  0  2  0  0  3  0  0  0  0  0  0
  161.3490  208.1840  148.5920 C   0  0  0  0  0  2  0  0  0  0  0  0
  161.8590  205.7900  147.2130 C   0  0  2  0  0  3  0  0  0  0  0  0
  161.6380  206.4490  145.8530 C   0  0  0  0  0  2  0  0  0  0  0  0
  160.4570  205.8250  145.1260 C   0  0  0  0  0  2  0  0  0  0  0  0
  160.8170  204.4460  144.6020 C   0  0  0  0  0  1  0  0  0  0  0  0
  160.8610  201.7780  149.1220 C   0  0  0  0  0  2  0  0  0  0  0  0
  161.2080  202.3320  147.8250 N   0  0  0  0  0  1  0  0  0  0  0  0
  160.5620  209.4720  153.4640 C   0  0  0  0  0  1  0  0  0  0  0  0
  161.3330  208.2180  153.8400 C   0  0  1  0  0  3  0  0  0  0  0  0
  160.8930  207.6990  155.1700 C   0  0  0  0  0  0  0  0  0  0  0  0
  159.7370  207.2110  155.2890 O   0  0  0  0  0  0  0  0  0  0  0  0
  161.7430  207.7910  156.2740 O   0  0  0  0  0  0  0  0  0  0  0  0
  161.6410  208.8540  157.2090 C   0  0  0  0  0  2  0  0  0  0  0  0
  162.7050  209.8900  156.9150 C   0  0  0  0  0  1  0  0  0  0  0  0
  2  5  2  0  0  0  0
  2 10  1  0  0  0  0
  4 11  2  0  0  0  0
  4  3  1  0  0  0  0
  5  4  1  0  0  0  0
  6 10  1  0  0  0  0
  6  9  1  0  0  0  0
  7  3  1  0  0  0  0
  7  1  1  0  0  0  0
  8  1  2  0  0  0  0
  8 24  1  0  0  0  0
  9  8  1  0  0  0  0
 10  7  2  0  0  0  0
 13 16  1  0  0  0  0
 14 13  1  0  0  0  0
 15 12  1  6  0  0  0
 15  6  1  0  0  0  0
 16 15  1  0  0  0  0
 17 18  1  6  0  0  0
 17 14  1  0  0  0  0
 17 12  1  0  0  0  0
 19 18  1  0  0  0  0
 20 19  1  0  0  0  0
 21  5  1  0  0  0  0
 22 21  1  0  0  0  0
 24 23  1  6  0  0  0
 24 25  1  0  0  0  0
 25 26  2  0  0  0  0
 25 27  1  0  0  0  0
 27 28  1  0  0  0  0
 29 28  1  0  0  0  0
M  END
>  <MODEL>
5

>  <REMARK>
 VINA RESULT:      -5.8      2.090      6.477
  Name = 
  8 active torsions:
  status: ('A' for Active; 'I' for Inactive)
    1  A    between atoms: C_1  and  C_5
    2  A    between atoms: C_1  and  C_25
    3  A    between atoms: C_6  and  C_15
    4  A    between atoms: O_9  and  C_10
    5  A    between atoms: O_9  and  C_16
    6  A    between atoms: C_10  and  C_18
    7  A    between atoms: C_14  and  N_19
    8  A    between atoms: C_18  and  C_21
                            x       y       z     vdW  Elec       q    Type
                         _______ _______ _______ _____ _____    ______ ____

>  <TORSDO>
F 8

$$$$
=
 OpenBabel11042423103D

 29 31  0  0  1  0  0  0  0  0999 V2000
  161.8030  206.6650  151.6370 C   0  0  0  0  0  3  0  0  0  0  0  0
  160.7770  203.7820  149.4480 C   0  0  0  0  0  3  0  0  0  0  0  0
  161.5460  204.2610  152.0580 N   0  0  0  0  0  2  0  0  0  0  0  0
  161.2500  202.9880  151.6790 C   0  0  0  0  0  0  0  0  0  0  0  0
  160.8530  202.7260  150.3580 C   0  0  0  0  0  0  0  0  0  0  0  0
  161.0190  206.2000  148.9520 N   0  0  0  0  0  0  0  0  0  0  0  0
  161.4700  205.3040  151.1880 C   0  0  0  0  0  0  0  0  0  0  0  0
  161.7450  207.6940  150.7900 C   0  0  0  0  0  0  0  0  0  0  0  0
  161.3550  207.4830  149.4250 N   0  0  0  0  0  2  0  0  0  0  0  0
  161.0830  205.0850  149.8580 C   0  0  0  0  0  0  0  0  0  0  0  0
  161.3370  202.0550  152.5200 O   0  0  0  0  0  0  0  0  0  0  0  0
  160.4580  204.5350  147.1980 C   0  0  0  0  0  2  0  0  0  0  0  0
  162.7840  206.1910  146.3090 C   0  0  0  0  0  2  0  0  0  0  0  0
  162.8620  204.7570  146.6360 N   0  0  0  0  0  2  0  0  0  0  0  0
  160.5640  206.0190  147.5730 C   0  0  2  0  0  3  0  0  0  0  0  0
  161.4130  206.8240  146.5890 C   0  0  0  0  0  2  0  0  0  0  0  0
  161.6200  204.0350  146.3350 C   0  0  2  0  0  3  0  0  0  0  0  0
  161.2690  204.0780  144.8490 C   0  0  0  0  0  2  0  0  0  0  0  0
  159.9780  203.3250  144.5680 C   0  0  0  0  0  2  0  0  0  0  0  0
  160.0980  201.8730  144.9930 C   0  0  0  0  0  1  0  0  0  0  0  0
  160.5540  201.3390  149.8940 C   0  0  0  0  0  2  0  0  0  0  0  0
  161.2070  201.0960  148.6210 N   0  0  0  0  0  1  0  0  0  0  0  0
  162.0220  210.0700  150.1380 C   0  0  0  0  0  1  0  0  0  0  0  0
  162.0940  209.0650  151.2740 C   0  0  1  0  0  3  0  0  0  0  0  0
  161.2150  209.4780  152.4100 C   0  0  0  0  0  0  0  0  0  0  0  0
  160.1080  210.0280  152.1630 O   0  0  0  0  0  0  0  0  0  0  0  0
  161.6380  209.2870  153.7280 O   0  0  0  0  0  0  0  0  0  0  0  0
  160.7180  209.0260  154.7760 C   0  0  0  0  0  2  0  0  0  0  0  0
  160.6820  207.5380  155.0570 C   0  0  0  0  0  1  0  0  0  0  0  0
  2 10  1  0  0  0  0
  2  5  2  0  0  0  0
  4  3  1  0  0  0  0
  4 11  2  0  0  0  0
  5  4  1  0  0  0  0
  6  9  1  0  0  0  0
  6 10  1  0  0  0  0
  7  1  1  0  0  0  0
  7  3  1  0  0  0  0
  8 24  1  0  0  0  0
  8  1  2  0  0  0  0
  9  8  1  0  0  0  0
 10  7  2  0  0  0  0
 12 15  1  0  0  0  0
 13 16  1  0  0  0  0
 13 14  1  0  0  0  0
 15 16  1  6  0  0  0
 15  6  1  0  0  0  0
 17 18  1  6  0  0  0
 17 14  1  0  0  0  0
 17 12  1  0  0  0  0
 19 18  1  0  0  0  0
 19 20  1  0  0  0  0
 21  5  1  0  0  0  0
 22 21  1  0  0  0  0
 24 23  1  6  0  0  0
 24 25  1  0  0  0  0
 25 27  1  0  0  0  0
 26 25  2  0  0  0  0
 27 28  1  0  0  0  0
 28 29  1  0  0  0  0
M  END
>  <MODEL>
6

>  <REMARK>
 VINA RESULT:      -5.6      2.001      6.080
  Name = 
  8 active torsions:
  status: ('A' for Active; 'I' for Inactive)
    1  A    between atoms: C_1  and  C_5
    2  A    between atoms: C_1  and  C_25
    3  A    between atoms: C_6  and  C_15
    4  A    between atoms: O_9  and  C_10
    5  A    between atoms: O_9  and  C_16
    6  A    between atoms: C_10  and  C_18
    7  A    between atoms: C_14  and  N_19
    8  A    between atoms: C_18  and  C_21
                            x       y       z     vdW  Elec       q    Type
                         _______ _______ _______ _____ _____    ______ ____

>  <TORSDO>
F 8

$$$$
=
 OpenBabel11042423103D

 29 31  0  0  1  0  0  0  0  0999 V2000
  160.9640  205.1340  152.5570 C   0  0  0  0  0  3  0  0  0  0  0  0
  160.8350  203.4950  149.1730 C   0  0  0  0  0  3  0  0  0  0  0  0
  161.1120  202.7950  151.8310 N   0  0  0  0  0  2  0  0  0  0  0  0
  161.1230  201.8170  150.8850 C   0  0  0  0  0  0  0  0  0  0  0  0
  160.9790  202.1530  149.5300 C   0  0  0  0  0  0  0  0  0  0  0  0
  160.6810  205.8790  149.8360 N   0  0  0  0  0  0  0  0  0  0  0  0
  160.9660  204.1070  151.5040 C   0  0  0  0  0  0  0  0  0  0  0  0
  160.8340  206.4260  152.2480 C   0  0  0  0  0  0  0  0  0  0  0  0
  160.6930  206.8280  150.8760 N   0  0  0  0  0  2  0  0  0  0  0  0
  160.8240  204.4860  150.1610 C   0  0  0  0  0  0  0  0  0  0  0  0
  161.2640  200.6150  151.2380 O   0  0  0  0  0  0  0  0  0  0  0  0
  160.8530  205.2080  147.4530 C   0  0  0  0  0  2  0  0  0  0  0  0
  162.6850  207.5110  147.9860 C   0  0  0  0  0  2  0  0  0  0  0  0
  163.1380  206.1480  147.6600 N   0  0  0  0  0  2  0  0  0  0  0  0
  160.4740  206.3080  148.4520 C   0  0  2  0  0  3  0  0  0  0  0  0
  161.1640  207.6410  148.1640 C   0  0  0  0  0  2  0  0  0  0  0  0
  162.2090  205.4340  146.7750 C   0  0  2  0  0  3  0  0  0  0  0  0
  162.0470  206.1250  145.4230 C   0  0  0  0  0  2  0  0  0  0  0  0
  160.6830  205.8330  144.8160 C   0  0  0  0  0  2  0  0  0  0  0  0
  160.5840  204.3800  144.3910 C   0  0  0  0  0  1  0  0  0  0  0  0
  161.0200  201.1130  148.4600 C   0  0  0  0  0  2  0  0  0  0  0  0
  160.8190  201.7350  147.1640 N   0  0  0  0  0  1  0  0  0  0  0  0
  161.4310  206.8680  154.6130 C   0  0  0  0  0  1  0  0  0  0  0  0
  160.8410  207.4470  153.3390 C   0  0  1  0  0  3  0  0  0  0  0  0
  161.5740  208.6810  152.9230 C   0  0  0  0  0  0  0  0  0  0  0  0
  162.2540  208.6630  151.8620 O   0  0  0  0  0  0  0  0  0  0  0  0
  161.5310  209.8250  153.7230 O   0  0  0  0  0  0  0  0  0  0  0  0
  160.3050  210.4580  154.0550 C   0  0  0  0  0  2  0  0  0  0  0  0
  159.6040  210.8960  152.7870 C   0  0  0  0  0  1  0  0  0  0  0  0
  2  5  2  0  0  0  0
  2 10  1  0  0  0  0
  4 11  2  0  0  0  0
  4  3  1  0  0  0  0
  5  4  1  0  0  0  0
  6 10  1  0  0  0  0
  6  9  1  0  0  0  0
  7  3  1  0  0  0  0
  7  1  1  0  0  0  0
  8  1  2  0  0  0  0
  8 24  1  0  0  0  0
  9  8  1  0  0  0  0
 10  7  2  0  0  0  0
 13 16  1  0  0  0  0
 14 13  1  0  0  0  0
 15 12  1  6  0  0  0
 15  6  1  0  0  0  0
 16 15  1  0  0  0  0
 17 18  1  6  0  0  0
 17 12  1  0  0  0  0
 17 14  1  0  0  0  0
 19 18  1  0  0  0  0
 20 19  1  0  0  0  0
 21  5  1  0  0  0  0
 22 21  1  0  0  0  0
 24 23  1  1  0  0  0
 25 24  1  0  0  0  0
 25 27  1  0  0  0  0
 26 25  2  0  0  0  0
 27 28  1  0  0  0  0
 29 28  1  0  0  0  0
M  END
>  <MODEL>
7

>  <REMARK>
 VINA RESULT:      -5.4      2.003      6.060
  Name = 
  8 active torsions:
  status: ('A' for Active; 'I' for Inactive)
    1  A    between atoms: C_1  and  C_5
    2  A    between atoms: C_1  and  C_25
    3  A    between atoms: C_6  and  C_15
    4  A    between atoms: O_9  and  C_10
    5  A    between atoms: O_9  and  C_16
    6  A    between atoms: C_10  and  C_18
    7  A    between atoms: C_14  and  N_19
    8  A    between atoms: C_18  and  C_21
                            x       y       z     vdW  Elec       q    Type
                         _______ _______ _______ _____ _____    ______ ____

>  <TORSDO>
F 8

$$$$
=
 OpenBabel11042423103D

 29 31  0  0  1  0  0  0  0  0999 V2000
  161.1230  209.0180  151.8590 C   0  0  0  0  0  3  0  0  0  0  0  0
  161.9480  208.2220  148.2760 C   0  0  0  0  0  3  0  0  0  0  0  0
  161.2800  206.9090  150.6140 N   0  0  0  0  0  2  0  0  0  0  0  0
  161.5070  206.1800  149.4870 C   0  0  0  0  0  0  0  0  0  0  0  0
  161.8430  206.8300  148.2890 C   0  0  0  0  0  0  0  0  0  0  0  0
  161.8100  210.3880  149.4740 N   0  0  0  0  0  0  0  0  0  0  0  0
  161.3710  208.2660  150.6190 C   0  0  0  0  0  0  0  0  0  0  0  0
  161.2220  210.3480  151.8810 C   0  0  0  0  0  0  0  0  0  0  0  0
  161.5720  211.0640  150.6860 N   0  0  0  0  0  2  0  0  0  0  0  0
  161.7090  208.9540  149.4440 C   0  0  0  0  0  0  0  0  0  0  0  0
  161.4120  204.9250  149.5330 O   0  0  0  0  0  0  0  0  0  0  0  0
  162.9420  212.3940  148.5500 C   0  0  0  0  0  2  0  0  0  0  0  0
  159.9980  212.5860  148.0630 C   0  0  0  0  0  2  0  0  0  0  0  0
  160.7470  213.4650  148.9760 N   0  0  0  0  0  2  0  0  0  0  0  0
  162.1050  211.1440  148.2560 C   0  0  2  0  0  3  0  0  0  0  0  0
  160.8360  211.4480  147.4590 C   0  0  0  0  0  2  0  0  0  0  0  0
  162.1310  213.6940  148.5410 C   0  0  2  0  0  3  0  0  0  0  0  0
  162.2050  214.3870  147.1820 C   0  0  0  0  0  2  0  0  0  0  0  0
  163.0790  213.6060  146.2140 C   0  0  0  0  0  2  0  0  0  0  0  0
  162.4690  213.5980  144.8240 C   0  0  0  0  0  1  0  0  0  0  0  0
  162.1320  206.0630  147.0410 C   0  0  0  0  0  2  0  0  0  0  0  0
  160.9910  206.1350  146.1460 N   0  0  0  0  0  1  0  0  0  0  0  0
  159.4920  211.4070  153.3070 C   0  0  0  0  0  1  0  0  0  0  0  0
  160.9690  211.0840  153.1570 C   0  0  1  0  0  3  0  0  0  0  0  0
  161.4700  210.3130  154.3350 C   0  0  0  0  0  0  0  0  0  0  0  0
  162.6480  210.5050  154.7400 O   0  0  0  0  0  0  0  0  0  0  0  0
  160.6500  209.3660  154.9520 O   0  0  0  0  0  0  0  0  0  0  0  0
  161.1790  208.1760  155.5170 C   0  0  0  0  0  2  0  0  0  0  0  0
  160.4650  206.9770  154.9290 C   0  0  0  0  0  1  0  0  0  0  0  0
  1  8  2  0  0  0  0
  2  5  2  0  0  0  0
  2 10  1  0  0  0  0
  3  7  1  0  0  0  0
  4 11  2  0  0  0  0
  4  3  1  0  0  0  0
  5  4  1  0  0  0  0
  6  9  1  0  0  0  0
  7  1  1  0  0  0  0
  8 24  1  0  0  0  0
  9  8  1  0  0  0  0
 10  6  1  0  0  0  0
 10  7  2  0  0  0  0
 13 14  1  0  0  0  0
 15 16  1  1  0  0  0
 15 12  1  0  0  0  0
 15  6  1  0  0  0  0
 16 13  1  0  0  0  0
 17 18  1  6  0  0  0
 17 12  1  0  0  0  0
 17 14  1  0  0  0  0
 19 18  1  0  0  0  0
 20 19  1  0  0  0  0
 21  5  1  0  0  0  0
 22 21  1  0  0  0  0
 24 23  1  1  0  0  0
 24 25  1  0  0  0  0
 25 26  2  0  0  0  0
 25 27  1  0  0  0  0
 27 28  1  0  0  0  0
 29 28  1  0  0  0  0
M  END
>  <MODEL>
8

>  <REMARK>
 VINA RESULT:      -5.3      3.893      7.873
  Name = 
  8 active torsions:
  status: ('A' for Active; 'I' for Inactive)
    1  A    between atoms: C_1  and  C_5
    2  A    between atoms: C_1  and  C_25
    3  A    between atoms: C_6  and  C_15
    4  A    between atoms: O_9  and  C_10
    5  A    between atoms: O_9  and  C_16
    6  A    between atoms: C_10  and  C_18
    7  A    between atoms: C_14  and  N_19
    8  A    between atoms: C_18  and  C_21
                            x       y       z     vdW  Elec       q    Type
                         _______ _______ _______ _____ _____    ______ ____

>  <TORSDO>
F 8

$$$$
=
 OpenBabel11042423103D

 29 31  0  0  1  0  0  0  0  0999 V2000
  162.2090  209.6210  148.5810 C   0  0  0  0  0  3  0  0  0  0  0  0
  160.9520  206.6630  150.5360 C   0  0  0  0  0  3  0  0  0  0  0  0
  162.0970  207.2200  148.0840 N   0  0  0  0  0  2  0  0  0  0  0  0
  161.7850  205.9320  148.3910 C   0  0  0  0  0  0  0  0  0  0  0  0
  161.2070  205.6290  149.6340 C   0  0  0  0  0  0  0  0  0  0  0  0
  161.0330  209.0760  151.1020 N   0  0  0  0  0  0  0  0  0  0  0  0
  161.8620  208.2410  148.9520 C   0  0  0  0  0  0  0  0  0  0  0  0
  161.9720  210.6320  149.4190 C   0  0  0  0  0  0  0  0  0  0  0  0
  161.3730  210.3810  150.7000 N   0  0  0  0  0  2  0  0  0  0  0  0
  161.2810  207.9820  150.2030 C   0  0  0  0  0  0  0  0  0  0  0  0
  162.0200  205.0210  147.5530 O   0  0  0  0  0  0  0  0  0  0  0  0
  159.5290  209.9600  152.8680 C   0  0  0  0  0  2  0  0  0  0  0  0
  162.3310  209.8270  153.9050 C   0  0  0  0  0  2  0  0  0  0  0  0
  161.5970  211.0780  153.6550 N   0  0  0  0  0  2  0  0  0  0  0  0
  160.4810  208.8380  152.4370 C   0  0  2  0  0  3  0  0  0  0  0  0
  161.5810  208.5610  153.4610 C   0  0  0  0  0  2  0  0  0  0  0  0
  160.1500  210.9440  153.8650 C   0  0  2  0  0  3  0  0  0  0  0  0
  159.8040  210.5690  155.3050 C   0  0  0  0  0  2  0  0  0  0  0  0
  159.8160  211.7920  156.2080 C   0  0  0  0  0  2  0  0  0  0  0  0
  159.2330  212.9960  155.4910 C   0  0  0  0  0  1  0  0  0  0  0  0
  160.8200  204.2330  149.9940 C   0  0  0  0  0  2  0  0  0  0  0  0
  160.9070  204.0550  151.4320 N   0  0  0  0  0  1  0  0  0  0  0  0
  163.3710  212.0090  147.9040 C   0  0  0  0  0  1  0  0  0  0  0  0
  162.3310  212.0250  149.0110 C   0  0  1  0  0  3  0  0  0  0  0  0
  161.1210  212.7970  148.5970 C   0  0  0  0  0  0  0  0  0  0  0  0
  160.4290  212.3840  147.6280 O   0  0  0  0  0  0  0  0  0  0  0  0
  160.7870  213.9820  149.2570 O   0  0  0  0  0  0  0  0  0  0  0  0
  159.5610  214.1250  149.9580 C   0  0  0  0  0  2  0  0  0  0  0  0
  159.6770  213.4700  151.3170 C   0  0  0  0  0  1  0  0  0  0  0  0
  1  7  1  0  0  0  0
  1  8  2  0  0  0  0
  3  4  1  0  0  0  0
  3  7  1  0  0  0  0
  4  5  1  0  0  0  0
  5 21  1  0  0  0  0
  5  2  2  0  0  0  0
  7 10  2  0  0  0  0
  8  9  1  0  0  0  0
  9  6  1  0  0  0  0
 10  2  1  0  0  0  0
 10  6  1  0  0  0  0
 11  4  2  0  0  0  0
 12 17  1  0  0  0  0
 14 17  1  0  0  0  0
 14 13  1  0  0  0  0
 15  6  1  6  0  0  0
 15 12  1  0  0  0  0
 15 16  1  0  0  0  0
 16 13  1  0  0  0  0
 17 18  1  1  0  0  0
 18 19  1  0  0  0  0
 20 19  1  0  0  0  0
 21 22  1  0  0  0  0
 24 23  1  6  0  0  0
 24  8  1  0  0  0  0
 25 24  1  0  0  0  0
 25 27  1  0  0  0  0
 26 25  2  0  0  0  0
 27 28  1  0  0  0  0
 28 29  1  0  0  0  0
M  END
>  <MODEL>
9

>  <REMARK>
 VINA RESULT:      -5.2      3.921      9.159
  Name = 
  8 active torsions:
  status: ('A' for Active; 'I' for Inactive)
    1  A    between atoms: C_1  and  C_5
    2  A    between atoms: C_1  and  C_25
    3  A    between atoms: C_6  and  C_15
    4  A    between atoms: O_9  and  C_10
    5  A    between atoms: O_9  and  C_16
    6  A    between atoms: C_10  and  C_18
    7  A    between atoms: C_14  and  N_19
    8  A    between atoms: C_18  and  C_21
                            x       y       z     vdW  Elec       q    Type
                         _______ _______ _______ _____ _____    ______ ____

>  <TORSDO>
F 8

$$$$
