=
 OpenBabel11052410483D

 37 41  0  0  1  0  0  0  0  0999 V2000
  161.8460  209.7220  151.8250 C   0  0  0  0  0  0  0  0  0  0  0  0
  157.6140  213.8830  152.1620 C   0  0  0  0  0  0  0  0  0  0  0  0
  157.7330  214.4370  150.7920 C   0  0  0  0  0  3  0  0  0  0  0  0
  158.5890  211.4440  154.1490 C   0  0  0  0  0  2  0  0  0  0  0  0
  160.9200  207.3840  152.2360 C   0  0  0  0  0  2  0  0  0  0  0  0
  158.8640  214.0970  150.2320 N   0  0  0  0  0  0  0  0  0  0  0  0
  162.6760  210.4350  151.2000 O   0  0  0  0  0  0  0  0  0  0  0  0
  161.4930  206.7750  153.5080 C   0  0  1  0  0  3  0  0  0  0  0  0
  160.3460  212.2850  151.0530 C   0  0  0  0  0  3  0  0  0  0  0  0
  161.0450  207.5040  154.7880 C   0  0  2  0  0  0  0  0  0  0  0  0
  160.1990  211.4870  152.2960 C   0  0  0  0  0  0  0  0  0  0  0  0
  159.1210  210.0860  154.5450 C   0  0  0  0  0  2  0  0  0  0  0  0
  158.7480  213.2540  152.3980 C   0  0  0  0  0  0  0  0  0  0  0  0
  159.1270  212.0530  153.1000 C   0  0  0  0  0  0  0  0  0  0  0  0
  159.6770  207.3560  154.9600 F   0  0  0  0  0  0  0  0  0  0  0  0
  161.1240  205.3010  153.5570 C   0  0  0  0  0  1  0  0  0  0  0  0
  159.5290  213.3280  151.2210 C   0  0  0  0  0  0  0  0  0  0  0  0
  160.8200  210.3650  152.6760 C   0  0  2  0  0  3  0  0  0  0  0  0
  161.4260  209.0040  154.7080 C   0  0  1  0  0  3  0  0  0  0  0  0
  161.6900  206.9050  155.8750 O   0  0  0  0  0  1  0  0  0  0  0  0
  161.8870  208.3030  151.6510 N   0  0  0  0  0  2  0  0  0  0  0  0
  160.4500  209.8020  153.9580 N   0  0  1  0  0  0  0  0  0  0  0  0
  160.6990  209.7340  156.9090 O   0  0  0  0  0  0  0  0  0  0  0  0
  161.8010  209.6750  156.0360 C   0  0  1  0  0  0  0  0  0  0  0  0
  161.7280  208.8360  157.2560 C   0  0  0  0  0  2  0  0  0  0  0  0
  162.5890  210.9880  156.0580 C   0  0  0  0  0  2  0  0  0  0  0  0
  163.7110  211.0000  157.0910 C   0  0  0  0  0  2  0  0  0  0  0  0
  164.2050  212.2950  157.2600 O   0  0  0  0  0  0  0  0  0  0  0  0
  165.5880  212.1690  157.1580 C   0  0  0  0  0  2  0  0  0  0  0  0
  165.9680  212.1460  155.7490 N   0  0  0  0  0  2  0  0  0  0  0  0
  166.8910  214.2060  155.0750 O   0  0  0  0  0  1  0  0  0  0  0  0
  167.1920  212.9220  155.5370 C   0  0  1  0  0  3  0  0  0  0  0  0
  168.0500  212.9980  156.7980 C   0  0  0  0  0  2  0  0  0  0  0  0
  169.3030  211.0020  156.2820 N   0  0  0  0  0  2  0  0  0  0  0  0
  169.3250  212.2360  156.6280 C   0  0  0  0  0  3  0  0  0  0  0  0
  156.3850  213.6970  152.8840 C   0  0  0  0  0  0  0  0  0  0  0  0
  155.3560  213.5430  153.4920 C   0  0  0  0  0  3  0  0  0  0  0  0
  2 13  1  0  0  0  0
  2 36  1  0  0  0  0
  3  2  2  0  0  0  0
  4 12  1  0  0  0  0
  5  8  1  0  0  0  0
  6  3  1  0  0  0  0
  6 17  2  0  0  0  0
  7  1  2  0  0  0  0
  8 16  1  1  0  0  0
  8 10  1  0  0  0  0
  9 17  1  0  0  0  0
  9 11  2  0  0  0  0
 10 15  1  1  0  0  0
 10 20  1  0  0  0  0
 11 18  1  0  0  0  0
 11 14  1  0  0  0  0
 13 14  2  0  0  0  0
 14  4  1  0  0  0  0
 17 13  1  0  0  0  0
 18  1  1  1  0  0  0
 18 22  1  0  0  0  0
 19 10  1  0  0  0  0
 19 24  1  1  0  0  0
 21  1  1  0  0  0  0
 21  5  1  0  0  0  0
 22 12  1  1  0  0  0
 22 19  1  0  0  0  0
 23 25  1  0  0  0  0
 24 26  1  6  0  0  0
 24 23  1  0  0  0  0
 24 25  1  0  0  0  0
 26 27  1  0  0  0  0
 27 28  1  0  0  0  0
 29 28  1  0  0  0  0
 30 29  1  0  0  0  0
 32 31  1  1  0  0  0
 32 30  1  0  0  0  0
 32 33  1  0  0  0  0
 34 35  2  0  0  0  0
 35 33  1  0  0  0  0
 36 37  3  0  0  0  0
M  END
>  <MODEL>
1

>  <REMARK>
 VINA RESULT:      -5.0      0.000      0.000
  Name = 
  10 active torsions:
  status: ('A' for Active; 'I' for Inactive)
    1  A    between atoms: O_3  and  C_11
    2  A    between atoms: O_3  and  C_22
    3  A    between atoms: N_4  and  C_11
    4  A    between atoms: N_4  and  C_36
    5  A    between atoms: C_5  and  C_7
    6  A    between atoms: C_14  and  C_36
    7  A    between atoms: C_14  and  C_37
    8  A    between atoms: C_22  and  C_29
    9  A    between atoms: C_29  and  C_32
   10  A    between atoms: C_30  and  C_32
                            x       y       z     vdW  Elec       q    Type
                         _______ _______ _______ _____ _____    ______ ____

>  <TORSDO>
F 10

$$$$
=
 OpenBabel11052410483D

 37 41  0  0  1  0  0  0  0  0999 V2000
  159.0590  211.7740  153.4410 C   0  0  0  0  0  0  0  0  0  0  0  0
  161.5180  212.9280  148.1540 C   0  0  0  0  0  0  0  0  0  0  0  0
  160.7010  214.1070  147.7780 C   0  0  0  0  0  3  0  0  0  0  0  0
  162.2330  210.8480  150.6060 C   0  0  0  0  0  2  0  0  0  0  0  0
  160.7640  211.8890  155.3310 C   0  0  0  0  0  2  0  0  0  0  0  0
  159.6150  214.1880  148.4980 N   0  0  0  0  0  0  0  0  0  0  0  0
  157.8700  211.9790  153.0770 O   0  0  0  0  0  0  0  0  0  0  0  0
  160.9630  210.5280  155.9840 C   0  0  1  0  0  3  0  0  0  0  0  0
  159.2350  212.9430  150.6090 C   0  0  0  0  0  3  0  0  0  0  0  0
  161.6190  209.4950  155.0510 C   0  0  2  0  0  0  0  0  0  0  0  0
  160.1030  211.9040  151.2180 C   0  0  0  0  0  0  0  0  0  0  0  0
  162.3620  210.3460  152.0260 C   0  0  0  0  0  2  0  0  0  0  0  0
  160.8330  212.2940  149.0840 C   0  0  0  0  0  0  0  0  0  0  0  0
  161.1640  211.5640  150.2830 C   0  0  0  0  0  0  0  0  0  0  0  0
  162.9140  209.8890  154.7500 F   0  0  0  0  0  0  0  0  0  0  0  0
  161.7700  210.7070  157.2600 C   0  0  0  0  0  1  0  0  0  0  0  0
  159.6730  213.0580  149.3540 C   0  0  0  0  0  0  0  0  0  0  0  0
  160.0740  211.3680  152.4440 C   0  0  2  0  0  3  0  0  0  0  0  0
  160.7820  209.3380  153.7570 C   0  0  1  0  0  3  0  0  0  0  0  0
  161.6800  208.2740  155.7310 O   0  0  0  0  0  1  0  0  0  0  0  0
  159.4070  211.9920  154.8120 N   0  0  0  0  0  2  0  0  0  0  0  0
  161.0750  210.3710  152.7570 N   0  0  1  0  0  0  0  0  0  0  0  0
  161.7330  207.1010  153.7190 O   0  0  0  0  0  0  0  0  0  0  0  0
  160.7650  207.9370  153.1310 C   0  0  1  0  0  0  0  0  0  0  0  0
  160.3880  206.8110  154.0180 C   0  0  0  0  0  2  0  0  0  0  0  0
  160.7360  207.7550  151.6100 C   0  0  0  0  0  2  0  0  0  0  0  0
  161.9430  206.9930  151.0720 C   0  0  0  0  0  2  0  0  0  0  0  0
  161.5370  205.8030  150.4640 O   0  0  0  0  0  0  0  0  0  0  0  0
  160.7540  206.2010  149.3830 C   0  0  0  0  0  2  0  0  0  0  0  0
  160.8740  205.2170  148.3110 N   0  0  0  0  0  2  0  0  0  0  0  0
  162.3380  206.8640  147.4790 O   0  0  0  0  0  1  0  0  0  0  0  0
  161.4710  205.8280  147.1220 C   0  0  1  0  0  3  0  0  0  0  0  0
  162.1950  204.8040  146.2510 C   0  0  0  0  0  2  0  0  0  0  0  0
  160.9540  203.0260  145.1930 N   0  0  0  0  0  2  0  0  0  0  0  0
  161.4850  203.4890  146.2640 C   0  0  0  0  0  3  0  0  0  0  0  0
  162.9210  212.7640  147.8880 C   0  0  0  0  0  0  0  0  0  0  0  0
  164.0970  212.6290  147.6610 C   0  0  0  0  0  3  0  0  0  0  0  0
  1 21  1  0  0  0  0
  2 13  1  0  0  0  0
  3  2  2  0  0  0  0
  3  6  1  0  0  0  0
  4 12  1  0  0  0  0
  5  8  1  0  0  0  0
  6 17  2  0  0  0  0
  7  1  2  0  0  0  0
  8 16  1  1  0  0  0
  9 11  2  0  0  0  0
 10 15  1  6  0  0  0
 10 20  1  0  0  0  0
 10  8  1  0  0  0  0
 13 17  1  0  0  0  0
 13 14  2  0  0  0  0
 14  4  1  0  0  0  0
 14 11  1  0  0  0  0
 17  9  1  0  0  0  0
 18 11  1  6  0  0  0
 18 22  1  0  0  0  0
 18  1  1  0  0  0  0
 19 24  1  6  0  0  0
 19 10  1  0  0  0  0
 21  5  1  0  0  0  0
 22 12  1  6  0  0  0
 22 19  1  0  0  0  0
 23 25  1  0  0  0  0
 24 26  1  6  0  0  0
 24 23  1  0  0  0  0
 24 25  1  0  0  0  0
 27 26  1  0  0  0  0
 28 27  1  0  0  0  0
 29 28  1  0  0  0  0
 30 29  1  0  0  0  0
 32 31  1  1  0  0  0
 32 30  1  0  0  0  0
 33 35  1  0  0  0  0
 33 32  1  0  0  0  0
 34 35  2  0  0  0  0
 36  2  1  0  0  0  0
 37 36  3  0  0  0  0
M  END
>  <MODEL>
2

>  <REMARK>
 VINA RESULT:      -4.7      3.617      7.331
  Name = 
  10 active torsions:
  status: ('A' for Active; 'I' for Inactive)
    1  A    between atoms: O_3  and  C_11
    2  A    between atoms: O_3  and  C_22
    3  A    between atoms: N_4  and  C_11
    4  A    between atoms: N_4  and  C_36
    5  A    between atoms: C_5  and  C_7
    6  A    between atoms: C_14  and  C_36
    7  A    between atoms: C_14  and  C_37
    8  A    between atoms: C_22  and  C_29
    9  A    between atoms: C_29  and  C_32
   10  A    between atoms: C_30  and  C_32
                            x       y       z     vdW  Elec       q    Type
                         _______ _______ _______ _____ _____    ______ ____

>  <TORSDO>
F 10

$$$$
=
 OpenBabel11052410483D

 37 41  0  0  1  0  0  0  0  0999 V2000
  159.0760  211.9610  156.3170 C   0  0  0  0  0  0  0  0  0  0  0  0
  157.2700  213.3370  150.8230 C   0  0  0  0  0  0  0  0  0  0  0  0
  156.3540  214.4530  151.1600 C   0  0  0  0  0  3  0  0  0  0  0  0
  159.5550  211.3000  152.0390 C   0  0  0  0  0  2  0  0  0  0  0  0
  161.6000  212.1910  156.5770 C   0  0  0  0  0  2  0  0  0  0  0  0
  156.0340  214.4460  152.4270 N   0  0  0  0  0  0  0  0  0  0  0  0
  157.9430  212.0780  156.8570 O   0  0  0  0  0  0  0  0  0  0  0  0
  162.2560  210.8440  156.8490 C   0  0  1  0  0  3  0  0  0  0  0  0
  157.2390  213.1600  154.1710 C   0  0  0  0  0  3  0  0  0  0  0  0
  162.1650  209.8710  155.6600 C   0  0  2  0  0  0  0  0  0  0  0  0
  158.3420  212.1860  153.9800 C   0  0  0  0  0  0  0  0  0  0  0  0
  160.6320  210.7980  152.9730 C   0  0  0  0  0  2  0  0  0  0  0  0
  157.4240  212.6460  151.9350 C   0  0  0  0  0  0  0  0  0  0  0  0
  158.5120  211.9350  152.5580 C   0  0  0  0  0  0  0  0  0  0  0  0
  162.8970  210.3650  154.5910 F   0  0  0  0  0  0  0  0  0  0  0  0
  163.7010  211.0750  157.2610 C   0  0  0  0  0  1  0  0  0  0  0  0
  156.7100  213.3180  152.9560 C   0  0  0  0  0  0  0  0  0  0  0  0
  159.1740  211.6400  154.8750 C   0  0  2  0  0  3  0  0  0  0  0  0
  160.6840  209.6600  155.2560 C   0  0  1  0  0  3  0  0  0  0  0  0
  162.7300  208.6540  156.0520 O   0  0  0  0  0  1  0  0  0  0  0  0
  160.2440  212.1950  157.1090 N   0  0  0  0  0  2  0  0  0  0  0  0
  160.1740  210.7200  154.3780 N   0  0  1  0  0  0  0  0  0  0  0  0
  160.8170  207.2530  155.5670 O   0  0  0  0  0  0  0  0  0  0  0  0
  160.3220  208.2670  154.7250 C   0  0  1  0  0  0  0  0  0  0  0  0
  159.4220  207.4420  155.5650 C   0  0  0  0  0  2  0  0  0  0  0  0
  160.5350  207.9070  153.2520 C   0  0  0  0  0  2  0  0  0  0  0  0
  161.6560  206.8960  153.0350 C   0  0  0  0  0  2  0  0  0  0  0  0
  161.1470  205.5960  153.0330 O   0  0  0  0  0  0  0  0  0  0  0  0
  161.6770  205.0030  151.8900 C   0  0  0  0  0  2  0  0  0  0  0  0
  160.6820  204.1110  151.3010 N   0  0  0  0  0  2  0  0  0  0  0  0
  160.7200  201.9260  150.4220 O   0  0  0  0  0  1  0  0  0  0  0  0
  161.3170  203.1880  150.3590 C   0  0  1  0  0  3  0  0  0  0  0  0
  161.2910  203.7180  148.9270 C   0  0  0  0  0  2  0  0  0  0  0  0
  161.1870  202.8350  146.6850 N   0  0  0  0  0  2  0  0  0  0  0  0
  161.3140  202.5970  147.9380 C   0  0  0  0  0  3  0  0  0  0  0  0
  158.1340  213.2830  149.6760 C   0  0  0  0  0  0  0  0  0  0  0  0
  158.8620  213.2380  148.7160 C   0  0  0  0  0  3  0  0  0  0  0  0
  1  7  2  0  0  0  0
  1 21  1  0  0  0  0
  2  3  2  0  0  0  0
  2 13  1  0  0  0  0
  3  6  1  0  0  0  0
  4 14  1  0  0  0  0
  4 12  1  0  0  0  0
  5  8  1  0  0  0  0
  5 21  1  0  0  0  0
  6 17  2  0  0  0  0
  8 16  1  6  0  0  0
 10 15  1  6  0  0  0
 10 20  1  0  0  0  0
 10  8  1  0  0  0  0
 11  9  2  0  0  0  0
 13 14  2  0  0  0  0
 13 17  1  0  0  0  0
 14 11  1  0  0  0  0
 17  9  1  0  0  0  0
 18 11  1  1  0  0  0
 18  1  1  0  0  0  0
 19 24  1  6  0  0  0
 19 10  1  0  0  0  0
 22 12  1  6  0  0  0
 22 18  1  0  0  0  0
 22 19  1  0  0  0  0
 24 26  1  6  0  0  0
 24 25  1  0  0  0  0
 24 23  1  0  0  0  0
 25 23  1  0  0  0  0
 27 26  1  0  0  0  0
 28 27  1  0  0  0  0
 29 28  1  0  0  0  0
 30 29  1  0  0  0  0
 32 31  1  6  0  0  0
 32 30  1  0  0  0  0
 33 32  1  0  0  0  0
 34 35  2  0  0  0  0
 35 33  1  0  0  0  0
 36  2  1  0  0  0  0
 37 36  3  0  0  0  0
M  END
>  <MODEL>
3

>  <REMARK>
 VINA RESULT:      -4.6      3.216      6.979
  Name = 
  10 active torsions:
  status: ('A' for Active; 'I' for Inactive)
    1  A    between atoms: O_3  and  C_11
    2  A    between atoms: O_3  and  C_22
    3  A    between atoms: N_4  and  C_11
    4  A    between atoms: N_4  and  C_36
    5  A    between atoms: C_5  and  C_7
    6  A    between atoms: C_14  and  C_36
    7  A    between atoms: C_14  and  C_37
    8  A    between atoms: C_22  and  C_29
    9  A    between atoms: C_29  and  C_32
   10  A    between atoms: C_30  and  C_32
                            x       y       z     vdW  Elec       q    Type
                         _______ _______ _______ _____ _____    ______ ____

>  <TORSDO>
F 10

$$$$
=
 OpenBabel11052410483D

 37 41  0  0  1  0  0  0  0  0999 V2000
  162.2740  209.5500  151.3530 C   0  0  0  0  0  0  0  0  0  0  0  0
  158.3580  213.9660  150.6400 C   0  0  0  0  0  0  0  0  0  0  0  0
  158.7080  214.3550  149.2520 C   0  0  0  0  0  3  0  0  0  0  0  0
  158.8640  211.7120  152.9870 C   0  0  0  0  0  2  0  0  0  0  0  0
  161.1270  207.3320  151.8620 C   0  0  0  0  0  2  0  0  0  0  0  0
  159.8760  213.8880  148.9020 N   0  0  0  0  0  0  0  0  0  0  0  0
  163.2340  210.1380  150.7870 O   0  0  0  0  0  0  0  0  0  0  0  0
  161.4710  206.8370  153.2600 C   0  0  1  0  0  3  0  0  0  0  0  0
  161.0900  212.0950  150.1120 C   0  0  0  0  0  3  0  0  0  0  0  0
  160.9060  207.7290  154.3790 C   0  0  2  0  0  0  0  0  0  0  0  0
  160.7140  211.4520  151.3960 C   0  0  0  0  0  0  0  0  0  0  0  0
  159.2320  210.3770  153.5940 C   0  0  0  0  0  2  0  0  0  0  0  0
  159.3980  213.3020  151.1030 C   0  0  0  0  0  0  0  0  0  0  0  0
  159.5850  212.1660  151.9710 C   0  0  0  0  0  0  0  0  0  0  0  0
  159.5200  207.6830  154.3630 F   0  0  0  0  0  0  0  0  0  0  0  0
  160.9900  205.4020  153.4050 C   0  0  0  0  0  1  0  0  0  0  0  0
  160.3390  213.1970  150.0500 C   0  0  0  0  0  0  0  0  0  0  0  0
  161.1900  210.3440  151.9750 C   0  0  2  0  0  3  0  0  0  0  0  0
  161.4050  209.1860  154.2020 C   0  0  1  0  0  3  0  0  0  0  0  0
  161.3470  207.2190  155.6040 O   0  0  0  0  0  1  0  0  0  0  0  0
  162.2330  208.1200  151.3330 N   0  0  0  0  0  2  0  0  0  0  0  0
  160.6050  209.9510  153.2400 N   0  0  1  0  0  0  0  0  0  0  0  0
  163.0090  210.0230  155.8260 O   0  0  0  0  0  0  0  0  0  0  0  0
  161.6410  209.9780  155.4940 C   0  0  1  0  0  0  0  0  0  0  0  0
  162.4310  211.2270  155.3800 C   0  0  0  0  0  2  0  0  0  0  0  0
  160.7840  209.7270  156.7390 C   0  0  0  0  0  2  0  0  0  0  0  0
  159.5950  210.6760  156.8520 C   0  0  0  0  0  2  0  0  0  0  0  0
  160.0350  211.9880  157.0370 O   0  0  0  0  0  0  0  0  0  0  0  0
  159.1310  212.7740  156.3250 C   0  0  0  0  0  2  0  0  0  0  0  0
  158.2230  213.4320  157.2590 N   0  0  0  0  0  2  0  0  0  0  0  0
  156.1120  214.3480  156.7520 O   0  0  0  0  0  1  0  0  0  0  0  0
  156.8310  213.1580  156.8970 C   0  0  1  0  0  3  0  0  0  0  0  0
  156.7220  212.3130  155.6290 C   0  0  0  0  0  2  0  0  0  0  0  0
  155.4330  210.4320  154.8420 N   0  0  0  0  0  2  0  0  0  0  0  0
  155.5730  211.3610  155.7140 C   0  0  0  0  0  3  0  0  0  0  0  0
  157.0310  213.9350  151.1900 C   0  0  0  0  0  0  0  0  0  0  0  0
  155.9160  213.9090  151.6480 C   0  0  0  0  0  3  0  0  0  0  0  0
  2 13  1  0  0  0  0
  2 36  1  0  0  0  0
  3  2  2  0  0  0  0
  4 12  1  0  0  0  0
  5  8  1  0  0  0  0
  6  3  1  0  0  0  0
  6 17  2  0  0  0  0
  7  1  2  0  0  0  0
  8 16  1  1  0  0  0
  8 10  1  0  0  0  0
  9 11  2  0  0  0  0
 10 15  1  6  0  0  0
 10 20  1  0  0  0  0
 11 14  1  0  0  0  0
 11 18  1  0  0  0  0
 13 14  2  0  0  0  0
 14  4  1  0  0  0  0
 17  9  1  0  0  0  0
 17 13  1  0  0  0  0
 18  1  1  1  0  0  0
 18 22  1  0  0  0  0
 19 10  1  0  0  0  0
 19 24  1  1  0  0  0
 21  1  1  0  0  0  0
 21  5  1  0  0  0  0
 22 12  1  1  0  0  0
 22 19  1  0  0  0  0
 24 23  1  0  0  0  0
 24 26  1  1  0  0  0
 25 24  1  0  0  0  0
 25 23  1  0  0  0  0
 26 27  1  0  0  0  0
 27 28  1  0  0  0  0
 29 28  1  0  0  0  0
 29 30  1  0  0  0  0
 32 31  1  6  0  0  0
 32 30  1  0  0  0  0
 33 35  1  0  0  0  0
 33 32  1  0  0  0  0
 34 35  2  0  0  0  0
 36 37  3  0  0  0  0
M  END
>  <MODEL>
4

>  <REMARK>
 VINA RESULT:      -4.3      2.964      5.036
  Name = 
  10 active torsions:
  status: ('A' for Active; 'I' for Inactive)
    1  A    between atoms: O_3  and  C_11
    2  A    between atoms: O_3  and  C_22
    3  A    between atoms: N_4  and  C_11
    4  A    between atoms: N_4  and  C_36
    5  A    between atoms: C_5  and  C_7
    6  A    between atoms: C_14  and  C_36
    7  A    between atoms: C_14  and  C_37
    8  A    between atoms: C_22  and  C_29
    9  A    between atoms: C_29  and  C_32
   10  A    between atoms: C_30  and  C_32
                            x       y       z     vdW  Elec       q    Type
                         _______ _______ _______ _____ _____    ______ ____

>  <TORSDO>
F 10

$$$$
=
 OpenBabel11052410483D

 37 41  0  0  1  0  0  0  0  0999 V2000
  158.1600  212.6250  147.7460 C   0  0  0  0  0  0  0  0  0  0  0  0
  161.8610  213.3670  143.1540 C   0  0  0  0  0  0  0  0  0  0  0  0
  160.8610  213.7020  142.1120 C   0  0  0  0  0  3  0  0  0  0  0  0
  162.2890  212.8850  146.3840 C   0  0  0  0  0  2  0  0  0  0  0  0
  158.6760  214.2310  149.6560 C   0  0  0  0  0  2  0  0  0  0  0  0
  159.6550  213.3590  142.4740 N   0  0  0  0  0  0  0  0  0  0  0  0
  157.2760  212.0030  147.0980 O   0  0  0  0  0  0  0  0  0  0  0  0
  159.1430  213.4860  150.8980 C   0  0  1  0  0  3  0  0  0  0  0  0
  158.9940  212.7990  144.7990 C   0  0  0  0  0  3  0  0  0  0  0  0
  160.5030  212.7900  150.7160 C   0  0  2  0  0  0  0  0  0  0  0  0
  159.8770  212.6690  145.9850 C   0  0  0  0  0  0  0  0  0  0  0  0
  162.0090  212.9850  147.8660 C   0  0  0  0  0  2  0  0  0  0  0  0
  161.1930  212.7610  144.1150 C   0  0  0  0  0  0  0  0  0  0  0  0
  161.2640  212.7360  145.5550 C   0  0  0  0  0  0  0  0  0  0  0  0
  161.4960  213.7400  150.5310 F   0  0  0  0  0  0  0  0  0  0  0  0
  159.1720  214.4530  152.0710 C   0  0  0  0  0  1  0  0  0  0  0  0
  159.8240  212.7710  143.7530 C   0  0  0  0  0  0  0  0  0  0  0  0
  159.5660  212.5970  147.2850 C   0  0  2  0  0  3  0  0  0  0  0  0
  160.4470  211.8170  149.5120 C   0  0  1  0  0  3  0  0  0  0  0  0
  160.7880  212.0820  151.8880 O   0  0  0  0  0  1  0  0  0  0  0  0
  157.7660  213.3900  148.8890 N   0  0  0  0  0  2  0  0  0  0  0  0
  160.6610  212.4880  148.2240 N   0  0  1  0  0  0  0  0  0  0  0  0
  162.4650  210.7800  150.3860 O   0  0  0  0  0  0  0  0  0  0  0  0
  161.2980  210.5460  149.6330 C   0  0  1  0  0  0  0  0  0  0  0  0
  161.4740  209.9830  150.9930 C   0  0  0  0  0  2  0  0  0  0  0  0
  161.6030  209.6840  148.4040 C   0  0  0  0  0  2  0  0  0  0  0  0
  161.5670  208.1870  148.6950 C   0  0  0  0  0  2  0  0  0  0  0  0
  161.8420  207.4580  147.5360 O   0  0  0  0  0  0  0  0  0  0  0  0
  161.3770  206.1720  147.8010 C   0  0  0  0  0  2  0  0  0  0  0  0
  161.1130  205.4840  146.5410 N   0  0  0  0  0  2  0  0  0  0  0  0
  163.1940  204.4070  146.3000 O   0  0  0  0  0  1  0  0  0  0  0  0
  161.8250  204.2050  146.4980 C   0  0  1  0  0  3  0  0  0  0  0  0
  161.5870  203.3720  147.7550 C   0  0  0  0  0  2  0  0  0  0  0  0
  160.7760  201.1730  148.3300 N   0  0  0  0  0  2  0  0  0  0  0  0
  161.1100  201.9980  147.4070 C   0  0  0  0  0  3  0  0  0  0  0  0
  163.1640  213.9590  143.2840 C   0  0  0  0  0  0  0  0  0  0  0  0
  164.2590  214.4520  143.3920 C   0  0  0  0  0  3  0  0  0  0  0  0
  1 21  1  0  0  0  0
  2 36  1  0  0  0  0
  2 13  1  0  0  0  0
  3  6  1  0  0  0  0
  3  2  2  0  0  0  0
  4 12  1  0  0  0  0
  5  8  1  0  0  0  0
  6 17  2  0  0  0  0
  7  1  2  0  0  0  0
  8 16  1  1  0  0  0
  9 11  2  0  0  0  0
 10 15  1  6  0  0  0
 10  8  1  0  0  0  0
 10 20  1  0  0  0  0
 13 14  2  0  0  0  0
 14 11  1  0  0  0  0
 14  4  1  0  0  0  0
 17 13  1  0  0  0  0
 17  9  1  0  0  0  0
 18 11  1  6  0  0  0
 18  1  1  0  0  0  0
 18 22  1  0  0  0  0
 19 24  1  1  0  0  0
 19 10  1  0  0  0  0
 21  5  1  0  0  0  0
 22 12  1  6  0  0  0
 22 19  1  0  0  0  0
 23 25  1  0  0  0  0
 24 26  1  6  0  0  0
 24 23  1  0  0  0  0
 24 25  1  0  0  0  0
 26 27  1  0  0  0  0
 28 29  1  0  0  0  0
 28 27  1  0  0  0  0
 30 29  1  0  0  0  0
 32 31  1  1  0  0  0
 32 30  1  0  0  0  0
 32 33  1  0  0  0  0
 35 33  1  0  0  0  0
 35 34  2  0  0  0  0
 36 37  3  0  0  0  0
M  END
>  <MODEL>
5

>  <REMARK>
 VINA RESULT:      -2.9      5.566      9.525
  Name = 
  10 active torsions:
  status: ('A' for Active; 'I' for Inactive)
    1  A    between atoms: O_3  and  C_11
    2  A    between atoms: O_3  and  C_22
    3  A    between atoms: N_4  and  C_11
    4  A    between atoms: N_4  and  C_36
    5  A    between atoms: C_5  and  C_7
    6  A    between atoms: C_14  and  C_36
    7  A    between atoms: C_14  and  C_37
    8  A    between atoms: C_22  and  C_29
    9  A    between atoms: C_29  and  C_32
   10  A    between atoms: C_30  and  C_32
                            x       y       z     vdW  Elec       q    Type
                         _______ _______ _______ _____ _____    ______ ____

>  <TORSDO>
F 10

$$$$
=
 OpenBabel11052410483D

 37 41  0  0  1  0  0  0  0  0999 V2000
  160.3600  206.9860  155.4260 C   0  0  0  0  0  0  0  0  0  0  0  0
  161.2660  204.4850  150.1100 C   0  0  0  0  0  0  0  0  0  0  0  0
  161.0720  203.0660  150.4930 C   0  0  0  0  0  3  0  0  0  0  0  0
  160.9870  207.5940  151.1590 C   0  0  0  0  0  2  0  0  0  0  0  0
  158.4130  208.6300  155.3870 C   0  0  0  0  0  2  0  0  0  0  0  0
  161.1540  202.9010  151.7860 N   0  0  0  0  0  0  0  0  0  0  0  0
  161.0010  206.1230  156.0840 O   0  0  0  0  0  0  0  0  0  0  0  0
  158.8830  210.0530  155.6490 C   0  0  1  0  0  3  0  0  0  0  0  0
  161.0300  204.7400  153.4450 C   0  0  0  0  0  3  0  0  0  0  0  0
  159.7740  210.6180  154.5280 C   0  0  2  0  0  0  0  0  0  0  0  0
  160.9770  206.1990  153.1790 C   0  0  0  0  0  0  0  0  0  0  0  0
  160.4880  208.7550  151.9890 C   0  0  0  0  0  2  0  0  0  0  0  0
  161.5230  205.1300  151.2300 C   0  0  0  0  0  0  0  0  0  0  0  0
  161.2010  206.4310  151.7600 C   0  0  0  0  0  0  0  0  0  0  0  0
  159.0370  210.7420  153.3600 F   0  0  0  0  0  0  0  0  0  0  0  0
  157.6680  210.9370  155.8830 C   0  0  0  0  0  1  0  0  0  0  0  0
  161.4240  204.1980  152.2910 C   0  0  0  0  0  0  0  0  0  0  0  0
  160.6840  207.2140  154.0000 C   0  0  2  0  0  3  0  0  0  0  0  0
  160.9980  209.6950  154.3060 C   0  0  1  0  0  3  0  0  0  0  0  0
  160.2010  211.8920  154.9150 O   0  0  0  0  0  1  0  0  0  0  0  0
  159.2910  207.6880  156.0680 N   0  0  0  0  0  2  0  0  0  0  0  0
  160.7010  208.5480  153.4400 N   0  0  1  0  0  0  0  0  0  0  0  0
  162.4140  211.6630  154.4840 O   0  0  0  0  0  0  0  0  0  0  0  0
  162.3000  210.3920  153.8890 C   0  0  1  0  0  0  0  0  0  0  0  0
  163.2870  210.6650  154.9610 C   0  0  0  0  0  2  0  0  0  0  0  0
  162.7340  210.4340  152.4210 C   0  0  0  0  0  2  0  0  0  0  0  0
  161.7220  211.1270  151.5140 C   0  0  0  0  0  2  0  0  0  0  0  0
  161.9590  210.7980  150.1780 O   0  0  0  0  0  0  0  0  0  0  0  0
  161.5400  211.9110  149.4530 C   0  0  0  0  0  2  0  0  0  0  0  0
  162.5830  212.2920  148.5050 N   0  0  0  0  0  2  0  0  0  0  0  0
  160.6620  212.1540  147.1480 O   0  0  0  0  0  1  0  0  0  0  0  0
  162.0050  212.5410  147.1830 C   0  0  1  0  0  3  0  0  0  0  0  0
  162.1500  213.9990  146.7560 C   0  0  0  0  0  2  0  0  0  0  0  0
  163.0470  213.0920  144.7080 N   0  0  0  0  0  2  0  0  0  0  0  0
  162.5460  214.1020  145.3180 C   0  0  0  0  0  3  0  0  0  0  0  0
  160.8370  205.0840  148.8770 C   0  0  0  0  0  0  0  0  0  0  0  0
  160.4750  205.5900  147.8440 C   0  0  0  0  0  3  0  0  0  0  0  0
  1 21  1  0  0  0  0
  1  7  2  0  0  0  0
  2  3  2  0  0  0  0
  2 13  1  0  0  0  0
  3  6  1  0  0  0  0
  4 14  1  0  0  0  0
  4 12  1  0  0  0  0
  5  8  1  0  0  0  0
  5 21  1  0  0  0  0
  6 17  2  0  0  0  0
  8 16  1  6  0  0  0
 10 15  1  6  0  0  0
 10 20  1  0  0  0  0
 10  8  1  0  0  0  0
 11  9  2  0  0  0  0
 13 14  2  0  0  0  0
 13 17  1  0  0  0  0
 14 11  1  0  0  0  0
 17  9  1  0  0  0  0
 18 11  1  1  0  0  0
 18  1  1  0  0  0  0
 19 24  1  6  0  0  0
 19 10  1  0  0  0  0
 22 12  1  6  0  0  0
 22 18  1  0  0  0  0
 22 19  1  0  0  0  0
 23 25  1  0  0  0  0
 24 26  1  6  0  0  0
 24 23  1  0  0  0  0
 24 25  1  0  0  0  0
 27 26  1  0  0  0  0
 28 27  1  0  0  0  0
 29 28  1  0  0  0  0
 30 29  1  0  0  0  0
 32 31  1  1  0  0  0
 32 30  1  0  0  0  0
 33 32  1  0  0  0  0
 34 35  2  0  0  0  0
 35 33  1  0  0  0  0
 36  2  1  0  0  0  0
 37 36  3  0  0  0  0
M  END
>  <MODEL>
6

>  <REMARK>
 VINA RESULT:      -2.8      3.579      7.649
  Name = 
  10 active torsions:
  status: ('A' for Active; 'I' for Inactive)
    1  A    between atoms: O_3  and  C_11
    2  A    between atoms: O_3  and  C_22
    3  A    between atoms: N_4  and  C_11
    4  A    between atoms: N_4  and  C_36
    5  A    between atoms: C_5  and  C_7
    6  A    between atoms: C_14  and  C_36
    7  A    between atoms: C_14  and  C_37
    8  A    between atoms: C_22  and  C_29
    9  A    between atoms: C_29  and  C_32
   10  A    between atoms: C_30  and  C_32
                            x       y       z     vdW  Elec       q    Type
                         _______ _______ _______ _____ _____    ______ ____

>  <TORSDO>
F 10

$$$$
=
 OpenBabel11052410483D

 37 41  0  0  1  0  0  0  0  0999 V2000
  161.5550  209.9540  149.4970 C   0  0  0  0  0  0  0  0  0  0  0  0
  160.7250  209.5590  155.3700 C   0  0  0  0  0  0  0  0  0  0  0  0
  161.3750  208.2460  155.6010 C   0  0  0  0  0  3  0  0  0  0  0  0
  160.2200  211.9310  153.1420 C   0  0  0  0  0  2  0  0  0  0  0  0
  162.9130  212.0150  148.8630 C   0  0  0  0  0  2  0  0  0  0  0  0
  161.5160  207.5770  154.4890 N   0  0  0  0  0  0  0  0  0  0  0  0
  161.2850  208.7490  149.2490 O   0  0  0  0  0  0  0  0  0  0  0  0
  162.0870  212.9930  148.0400 C   0  0  1  0  0  3  0  0  0  0  0  0
  161.3140  208.5650  152.2230 C   0  0  0  0  0  3  0  0  0  0  0  0
  160.9300  213.6300  148.8320 C   0  0  2  0  0  0  0  0  0  0  0  0
  160.9030  209.9460  151.8690 C   0  0  0  0  0  0  0  0  0  0  0  0
  160.4630  212.7730  151.9100 C   0  0  0  0  0  2  0  0  0  0  0  0
  160.4410  209.6010  154.0840 C   0  0  0  0  0  0  0  0  0  0  0  0
  160.4360  210.6240  153.0680 C   0  0  0  0  0  0  0  0  0  0  0  0
  161.4370  214.4250  149.8480 F   0  0  0  0  0  0  0  0  0  0  0  0
  163.0100  214.0560  147.4670 C   0  0  0  0  0  1  0  0  0  0  0  0
  160.9470  208.4160  153.4970 C   0  0  0  0  0  0  0  0  0  0  0  0
  160.9920  210.5990  150.7050 C   0  0  2  0  0  3  0  0  0  0  0  0
  160.0100  212.5250  149.4110 C   0  0  1  0  0  3  0  0  0  0  0  0
  160.2040  214.4450  147.9580 O   0  0  0  0  0  1  0  0  0  0  0  0
  162.4460  210.6550  148.6250 N   0  0  0  0  0  2  0  0  0  0  0  0
  160.5130  211.9650  150.6700 N   0  0  1  0  0  0  0  0  0  0  0  0
  158.1990  213.9830  148.7010 O   0  0  0  0  0  0  0  0  0  0  0  0
  158.5190  212.8720  149.5050 C   0  0  1  0  0  0  0  0  0  0  0  0
  157.7180  212.7330  148.2650 C   0  0  0  0  0  2  0  0  0  0  0  0
  157.8150  212.9580  150.8630 C   0  0  0  0  0  2  0  0  0  0  0  0
  157.4020  214.3780  151.2370 C   0  0  0  0  0  2  0  0  0  0  0  0
  157.0890  214.4530  152.5960 O   0  0  0  0  0  0  0  0  0  0  0  0
  156.7360  213.1550  152.9560 C   0  0  0  0  0  2  0  0  0  0  0  0
  155.6700  213.2020  153.9530 N   0  0  0  0  0  2  0  0  0  0  0  0
  155.6350  210.9560  154.6610 O   0  0  0  0  0  1  0  0  0  0  0  0
  155.9480  212.2640  155.0420 C   0  0  1  0  0  3  0  0  0  0  0  0
  157.3960  212.3480  155.5180 C   0  0  0  0  0  2  0  0  0  0  0  0
  156.7740  213.9470  157.2140 N   0  0  0  0  0  2  0  0  0  0  0  0
  157.4770  212.9240  156.8960 C   0  0  0  0  0  3  0  0  0  0  0  0
  160.7940  210.6920  156.2510 C   0  0  0  0  0  0  0  0  0  0  0  0
  160.8550  211.6420  156.9910 C   0  0  0  0  0  3  0  0  0  0  0  0
  2  3  1  0  0  0  0
  2 36  1  0  0  0  0
  6  3  2  0  0  0  0
  7  1  2  0  0  0  0
  8 16  1  1  0  0  0
  8 10  1  0  0  0  0
  8  5  1  0  0  0  0
  9 17  2  0  0  0  0
 10 20  1  6  0  0  0
 10 19  1  0  0  0  0
 10 15  1  0  0  0  0
 11  9  1  0  0  0  0
 11 14  2  0  0  0  0
 12  4  1  0  0  0  0
 13  2  2  0  0  0  0
 14  4  1  0  0  0  0
 14 13  1  0  0  0  0
 17 13  1  0  0  0  0
 17  6  1  0  0  0  0
 18  1  1  6  0  0  0
 18 11  1  0  0  0  0
 19 24  1  1  0  0  0
 19 22  1  0  0  0  0
 21  5  1  0  0  0  0
 21  1  1  0  0  0  0
 22 18  1  0  0  0  0
 22 12  1  1  0  0  0
 23 24  1  0  0  0  0
 24 26  1  1  0  0  0
 25 23  1  0  0  0  0
 25 24  1  0  0  0  0
 26 27  1  0  0  0  0
 27 28  1  0  0  0  0
 28 29  1  0  0  0  0
 29 30  1  0  0  0  0
 30 32  1  0  0  0  0
 32 31  1  6  0  0  0
 32 33  1  0  0  0  0
 33 35  1  0  0  0  0
 35 34  2  0  0  0  0
 36 37  3  0  0  0  0
M  END
>  <MODEL>
7

>  <REMARK>
 VINA RESULT:      -2.7      4.429      7.930
  Name = 
  10 active torsions:
  status: ('A' for Active; 'I' for Inactive)
    1  A    between atoms: O_3  and  C_11
    2  A    between atoms: O_3  and  C_22
    3  A    between atoms: N_4  and  C_11
    4  A    between atoms: N_4  and  C_36
    5  A    between atoms: C_5  and  C_7
    6  A    between atoms: C_14  and  C_36
    7  A    between atoms: C_14  and  C_37
    8  A    between atoms: C_22  and  C_29
    9  A    between atoms: C_29  and  C_32
   10  A    between atoms: C_30  and  C_32
                            x       y       z     vdW  Elec       q    Type
                         _______ _______ _______ _____ _____    ______ ____

>  <TORSDO>
F 10

$$$$
=
 OpenBabel11052410483D

 37 41  0  0  1  0  0  0  0  0999 V2000
  159.9800  207.3180  155.6760 C   0  0  0  0  0  0  0  0  0  0  0  0
  161.5340  205.7620  150.1530 C   0  0  0  0  0  0  0  0  0  0  0  0
  161.2440  204.3100  150.2380 C   0  0  0  0  0  3  0  0  0  0  0  0
  161.2100  208.6440  151.7130 C   0  0  0  0  0  2  0  0  0  0  0  0
  158.1110  209.0490  155.6880 C   0  0  0  0  0  2  0  0  0  0  0  0
  161.1420  203.9130  151.4780 N   0  0  0  0  0  0  0  0  0  0  0  0
  160.4980  206.3180  156.2410 O   0  0  0  0  0  0  0  0  0  0  0  0
  158.5840  210.3740  156.2680 C   0  0  1  0  0  3  0  0  0  0  0  0
  160.8470  205.4290  153.4180 C   0  0  0  0  0  3  0  0  0  0  0  0
  159.6380  211.0790  155.3960 C   0  0  2  0  0  0  0  0  0  0  0  0
  160.8780  206.9130  153.4220 C   0  0  0  0  0  0  0  0  0  0  0  0
  160.6380  209.6630  152.6720 C   0  0  0  0  0  2  0  0  0  0  0  0
  161.6540  206.1810  151.3970 C   0  0  0  0  0  0  0  0  0  0  0  0
  161.3020  207.3820  152.1120 C   0  0  0  0  0  0  0  0  0  0  0  0
  159.0750  211.4520  154.1860 F   0  0  0  0  0  0  0  0  0  0  0  0
  157.3760  211.2690  156.5010 C   0  0  0  0  0  1  0  0  0  0  0  0
  161.3800  205.0810  152.2450 C   0  0  0  0  0  0  0  0  0  0  0  0
  160.5060  207.7790  154.3710 C   0  0  2  0  0  3  0  0  0  0  0  0
  160.8520  210.1440  155.1690 C   0  0  1  0  0  3  0  0  0  0  0  0
  160.0470  212.2380  156.0640 O   0  0  0  0  0  1  0  0  0  0  0  0
  158.8560  207.9530  156.2920 N   0  0  0  0  0  2  0  0  0  0  0  0
  160.6410  209.1900  154.0740 N   0  0  1  0  0  0  0  0  0  0  0  0
  163.1590  210.0040  154.4140 O   0  0  0  0  0  0  0  0  0  0  0  0
  162.2200  210.8300  155.0610 C   0  0  1  0  0  0  0  0  0  0  0  0
  162.7140  211.1310  153.6960 C   0  0  0  0  0  2  0  0  0  0  0  0
  162.8470  211.5280  156.2720 C   0  0  0  0  0  2  0  0  0  0  0  0
  163.8110  210.6360  157.0480 C   0  0  0  0  0  2  0  0  0  0  0  0
  165.0440  211.2710  157.2070 O   0  0  0  0  0  0  0  0  0  0  0  0
  164.7530  212.6330  157.1820 C   0  0  0  0  0  2  0  0  0  0  0  0
  165.9960  213.3940  157.2600 N   0  0  0  0  0  2  0  0  0  0  0  0
  167.1300  213.2910  155.1970 O   0  0  0  0  0  1  0  0  0  0  0  0
  167.0470  212.7380  156.4780 C   0  0  1  0  0  3  0  0  0  0  0  0
  168.4040  212.7980  157.1740 C   0  0  0  0  0  2  0  0  0  0  0  0
  169.0600  210.8790  155.8670 N   0  0  0  0  0  2  0  0  0  0  0  0
  169.1730  211.5330  156.9630 C   0  0  0  0  0  3  0  0  0  0  0  0
  161.2990  206.5960  149.0060 C   0  0  0  0  0  0  0  0  0  0  0  0
  161.1040  207.2960  148.0450 C   0  0  0  0  0  3  0  0  0  0  0  0
  1  7  2  0  0  0  0
  1 21  1  0  0  0  0
  2  3  2  0  0  0  0
  2 13  1  0  0  0  0
  3  6  1  0  0  0  0
  4 14  1  0  0  0  0
  4 12  1  0  0  0  0
  5  8  1  0  0  0  0
  5 21  1  0  0  0  0
  6 17  2  0  0  0  0
  8 16  1  6  0  0  0
  9 11  2  0  0  0  0
 10 15  1  6  0  0  0
 10 20  1  0  0  0  0
 10  8  1  0  0  0  0
 13 14  2  0  0  0  0
 13 17  1  0  0  0  0
 14 11  1  0  0  0  0
 17  9  1  0  0  0  0
 18 11  1  1  0  0  0
 18  1  1  0  0  0  0
 19 24  1  6  0  0  0
 19 10  1  0  0  0  0
 22 12  1  6  0  0  0
 22 18  1  0  0  0  0
 22 19  1  0  0  0  0
 23 24  1  0  0  0  0
 24 26  1  1  0  0  0
 25 23  1  0  0  0  0
 25 24  1  0  0  0  0
 26 27  1  0  0  0  0
 27 28  1  0  0  0  0
 29 28  1  0  0  0  0
 29 30  1  0  0  0  0
 32 31  1  6  0  0  0
 32 33  1  0  0  0  0
 32 30  1  0  0  0  0
 34 35  2  0  0  0  0
 35 33  1  0  0  0  0
 36  2  1  0  0  0  0
 37 36  3  0  0  0  0
M  END
>  <MODEL>
8

>  <REMARK>
 VINA RESULT:      -2.5      2.669      5.442
  Name = 
  10 active torsions:
  status: ('A' for Active; 'I' for Inactive)
    1  A    between atoms: O_3  and  C_11
    2  A    between atoms: O_3  and  C_22
    3  A    between atoms: N_4  and  C_11
    4  A    between atoms: N_4  and  C_36
    5  A    between atoms: C_5  and  C_7
    6  A    between atoms: C_14  and  C_36
    7  A    between atoms: C_14  and  C_37
    8  A    between atoms: C_22  and  C_29
    9  A    between atoms: C_29  and  C_32
   10  A    between atoms: C_30  and  C_32
                            x       y       z     vdW  Elec       q    Type
                         _______ _______ _______ _____ _____    ______ ____

>  <TORSDO>
F 10

$$$$
=
 OpenBabel11052410483D

 37 41  0  0  1  0  0  0  0  0999 V2000
  160.2320  207.0060  155.4710 C   0  0  0  0  0  0  0  0  0  0  0  0
  161.2060  204.4070  150.2150 C   0  0  0  0  0  0  0  0  0  0  0  0
  160.9560  203.0000  150.6090 C   0  0  0  0  0  3  0  0  0  0  0  0
  160.9970  207.5380  151.2170 C   0  0  0  0  0  2  0  0  0  0  0  0
  158.3410  208.7100  155.3570 C   0  0  0  0  0  2  0  0  0  0  0  0
  160.9970  202.8500  151.9060 N   0  0  0  0  0  0  0  0  0  0  0  0
  160.8280  206.1330  156.1580 O   0  0  0  0  0  0  0  0  0  0  0  0
  158.8480  210.1220  155.6150 C   0  0  1  0  0  3  0  0  0  0  0  0
  160.8860  204.7140  153.5380 C   0  0  0  0  0  3  0  0  0  0  0  0
  159.7870  210.6420  154.5120 C   0  0  2  0  0  0  0  0  0  0  0  0
  160.8870  206.1710  153.2520 C   0  0  0  0  0  0  0  0  0  0  0  0
  160.5120  208.7240  152.0180 C   0  0  0  0  0  2  0  0  0  0  0  0
  161.4530  205.0590  151.3330 C   0  0  0  0  0  0  0  0  0  0  0  0
  161.1570  206.3770  151.8380 C   0  0  0  0  0  0  0  0  0  0  0  0
  159.0880  210.7750  153.3230 F   0  0  0  0  0  0  0  0  0  0  0  0
  157.6560  211.0460  155.8030 C   0  0  0  0  0  1  0  0  0  0  0  0
  161.2940  204.1450  152.4020 C   0  0  0  0  0  0  0  0  0  0  0  0
  160.6040  207.2050  154.0530 C   0  0  2  0  0  3  0  0  0  0  0  0
  160.9880  209.6790  154.3360 C   0  0  1  0  0  3  0  0  0  0  0  0
  160.2440  211.9080  154.8950 O   0  0  0  0  0  1  0  0  0  0  0  0
  159.1690  207.7500  156.0750 N   0  0  0  0  0  2  0  0  0  0  0  0
  160.6780  208.5310  153.4760 N   0  0  1  0  0  0  0  0  0  0  0  0
  162.4140  211.6440  154.4400 O   0  0  0  0  0  0  0  0  0  0  0  0
  162.3220  210.3290  153.9480 C   0  0  1  0  0  0  0  0  0  0  0  0
  163.2420  210.6850  155.0540 C   0  0  0  0  0  2  0  0  0  0  0  0
  162.8500  210.2440  152.5120 C   0  0  0  0  0  2  0  0  0  0  0  0
  162.0120  211.0380  151.5150 C   0  0  0  0  0  2  0  0  0  0  0  0
  162.4660  210.8190  150.2130 O   0  0  0  0  0  0  0  0  0  0  0  0
  161.5770  211.5180  149.3990 C   0  0  0  0  0  2  0  0  0  0  0  0
  162.2250  211.8260  148.1280 N   0  0  0  0  0  2  0  0  0  0  0  0
  161.9190  212.9570  146.0840 O   0  0  0  0  0  1  0  0  0  0  0  0
  161.4660  212.8470  147.4020 C   0  0  1  0  0  3  0  0  0  0  0  0
  159.9640  212.5730  147.4280 C   0  0  0  0  0  2  0  0  0  0  0  0
  158.3430  213.1800  145.7480 N   0  0  0  0  0  2  0  0  0  0  0  0
  159.2210  213.5690  146.5960 C   0  0  0  0  0  3  0  0  0  0  0  0
  160.8310  205.0040  148.9620 C   0  0  0  0  0  0  0  0  0  0  0  0
  160.5160  205.5000  147.9100 C   0  0  0  0  0  3  0  0  0  0  0  0
  1 21  1  0  0  0  0
  1  7  2  0  0  0  0
  2  3  2  0  0  0  0
  2 13  1  0  0  0  0
  3  6  1  0  0  0  0
  4 14  1  0  0  0  0
  4 12  1  0  0  0  0
  5  8  1  0  0  0  0
  5 21  1  0  0  0  0
  6 17  2  0  0  0  0
  8 16  1  6  0  0  0
 10 15  1  6  0  0  0
 10 20  1  0  0  0  0
 10  8  1  0  0  0  0
 11  9  2  0  0  0  0
 13 14  2  0  0  0  0
 13 17  1  0  0  0  0
 14 11  1  0  0  0  0
 17  9  1  0  0  0  0
 18 11  1  1  0  0  0
 18  1  1  0  0  0  0
 19 24  1  6  0  0  0
 19 10  1  0  0  0  0
 22 12  1  6  0  0  0
 22 18  1  0  0  0  0
 22 19  1  0  0  0  0
 23 25  1  0  0  0  0
 24 26  1  6  0  0  0
 24 23  1  0  0  0  0
 24 25  1  0  0  0  0
 27 26  1  0  0  0  0
 28 27  1  0  0  0  0
 29 28  1  0  0  0  0
 30 29  1  0  0  0  0
 32 31  1  6  0  0  0
 32 33  1  0  0  0  0
 32 30  1  0  0  0  0
 34 35  2  0  0  0  0
 35 33  1  0  0  0  0
 36  2  1  0  0  0  0
 37 36  3  0  0  0  0
M  END
>  <MODEL>
9

>  <REMARK>
 VINA RESULT:      -2.5      3.581      7.861
  Name = 
  10 active torsions:
  status: ('A' for Active; 'I' for Inactive)
    1  A    between atoms: O_3  and  C_11
    2  A    between atoms: O_3  and  C_22
    3  A    between atoms: N_4  and  C_11
    4  A    between atoms: N_4  and  C_36
    5  A    between atoms: C_5  and  C_7
    6  A    between atoms: C_14  and  C_36
    7  A    between atoms: C_14  and  C_37
    8  A    between atoms: C_22  and  C_29
    9  A    between atoms: C_29  and  C_32
   10  A    between atoms: C_30  and  C_32
                            x       y       z     vdW  Elec       q    Type
                         _______ _______ _______ _____ _____    ______ ____

>  <TORSDO>
F 10

$$$$
