=
 OpenBabel11042422373D

 33 37  0  0  1  0  0  0  0  0999 V2000
  160.9770  205.6520  149.4420 C   0  0  0  0  0  0  0  0  0  0  0  0
  161.1260  201.0910  150.0900 C   0  0  0  0  0  3  0  0  0  0  0  0
  161.0340  207.6680  151.8340 C   0  0  0  0  0  0  0  0  0  0  0  0
  161.0210  206.4020  152.5070 C   0  0  0  0  0  0  0  0  0  0  0  0
  161.0510  208.8480  152.6200 C   0  0  0  0  0  0  0  0  0  0  0  0
  160.9870  207.0290  149.4110 C   0  0  0  0  0  3  0  0  0  0  0  0
  161.0090  205.1350  151.9390 C   0  0  0  0  0  3  0  0  0  0  0  0
  161.0210  206.3750  153.9050 C   0  0  0  0  0  3  0  0  0  0  0  0
  161.0460  208.7740  154.0170 C   0  0  0  0  0  3  0  0  0  0  0  0
  161.0660  202.2860  150.8270 C   0  0  0  0  0  3  0  0  0  0  0  0
  161.0030  203.4890  150.1210 C   0  0  0  0  0  0  0  0  0  0  0  0
  160.9910  203.5170  148.7410 C   0  0  0  0  0  0  0  0  0  0  0  0
  161.0130  207.8530  150.4830 N   0  0  0  0  0  0  0  0  0  0  0  0
  161.0350  207.5440  154.6590 C   0  0  0  0  0  0  0  0  0  0  0  0
  161.1350  201.1190  148.6820 C   0  0  0  0  0  3  0  0  0  0  0  0
  160.9490  204.8370  148.3180 C   0  0  0  0  0  0  0  0  0  0  0  0
  161.0740  202.3420  147.9920 C   0  0  0  0  0  3  0  0  0  0  0  0
  160.9910  204.7840  150.6050 C   0  0  0  0  0  0  0  0  0  0  0  0
  162.0160  205.8880  144.9150 N   0  0  0  0  0  1  0  0  0  0  0  0
  161.0230  205.3140  146.9650 N   0  0  0  0  0  0  0  0  0  0  0  0
  163.3280  204.8080  146.6880 N   0  0  0  0  0  1  0  0  0  0  0  0
  162.0960  205.3650  146.2360 C   0  0  0  0  0  0  0  0  0  0  0  0
  160.0390  211.1110  152.2440 C   0  0  0  0  0  0  0  0  0  0  0  0
  161.0820  210.1460  152.0020 N   0  0  0  0  0  0  0  0  0  0  0  0
  159.0880  210.8260  153.0260 O   0  0  0  0  0  0  0  0  0  0  0  0
  162.2470  210.5040  151.2020 C   0  0  0  0  0  1  0  0  0  0  0  0
  159.1850  213.3300  152.2240 C   0  0  0  0  0  0  0  0  0  0  0  0
  158.9430  212.6980  150.8890 O   0  0  0  0  0  0  0  0  0  0  0  0
  160.0840  212.4760  151.6140 C   0  0  2  0  0  3  0  0  0  0  0  0
  158.8060  214.1090  153.2260 C   0  0  0  0  0  2  0  0  0  0  0  0
  161.0110  207.4760  156.1460 C   0  0  0  0  0  2  0  0  0  0  0  0
  160.9510  208.8740  156.7330 C   0  0  0  0  0  2  0  0  0  0  0  0
  162.3170  209.2570  157.2600 C   0  0  0  0  0  1  0  0  0  0  0  0
  1 18  1  0  0  0  0
  2 10  1  0  0  0  0
  3  4  2  0  0  0  0
  3  5  1  0  0  0  0
  4  8  1  0  0  0  0
  5  9  2  0  0  0  0
  6  1  1  0  0  0  0
  6 13  2  0  0  0  0
  7  4  1  0  0  0  0
  8 14  2  0  0  0  0
  9 14  1  0  0  0  0
 11 18  1  0  0  0  0
 11 10  2  0  0  0  0
 12 11  1  0  0  0  0
 13  3  1  0  0  0  0
 14 31  1  0  0  0  0
 15  2  2  0  0  0  0
 16 12  1  0  0  0  0
 16  1  2  0  0  0  0
 17 15  1  0  0  0  0
 17 12  2  0  0  0  0
 18  7  2  0  0  0  0
 19 22  1  0  0  0  0
 20 16  1  0  0  0  0
 22 21  1  0  0  0  0
 22 20  2  0  0  0  0
 23 25  2  0  0  0  0
 24 23  1  0  0  0  0
 24  5  1  0  0  0  0
 26 24  1  0  0  0  0
 27 30  2  0  0  0  0
 28 29  1  0  0  0  0
 28 27  1  0  0  0  0
 29 27  1  0  0  0  0
 29 23  1  1  0  0  0
 31 32  1  0  0  0  0
 32 33  1  0  0  0  0
M  END
>  <MODEL>
1

>  <REMARK>
 VINA RESULT:     -10.8      0.000      0.000
  Name = 
  5 active torsions:
  status: ('A' for Active; 'I' for Inactive)
    1  A    between atoms: C_4  and  C_30
    2  A    between atoms: C_8  and  C_14
    3  A    between atoms: N_10  and  C_27
    4  A    between atoms: C_11  and  N_16
    5  A    between atoms: C_14  and  C_23
                            x       y       z     vdW  Elec       q    Type
                         _______ _______ _______ _____ _____    ______ ____

>  <TORSDO>
F 5

$$$$
=
 OpenBabel11042422373D

 33 37  0  0  1  0  0  0  0  0999 V2000
  161.0070  208.3720  152.5710 C   0  0  0  0  0  0  0  0  0  0  0  0
  160.4850  207.7780  157.1120 C   0  0  0  0  0  3  0  0  0  0  0  0
  161.0770  205.9590  150.5820 C   0  0  0  0  0  0  0  0  0  0  0  0
  160.9780  205.3010  151.8510 C   0  0  0  0  0  0  0  0  0  0  0  0
  161.1420  205.1600  149.4120 C   0  0  0  0  0  0  0  0  0  0  0  0
  161.1070  208.3880  151.1980 C   0  0  0  0  0  3  0  0  0  0  0  0
  160.8980  205.8830  153.1090 C   0  0  0  0  0  3  0  0  0  0  0  0
  160.9560  203.9030  151.8920 C   0  0  0  0  0  3  0  0  0  0  0  0
  161.1210  203.7650  149.5000 C   0  0  0  0  0  3  0  0  0  0  0  0
  160.6300  207.0270  155.9330 C   0  0  0  0  0  3  0  0  0  0  0  0
  160.7990  207.7180  154.7320 C   0  0  0  0  0  0  0  0  0  0  0  0
  160.8330  209.0980  154.6910 C   0  0  0  0  0  0  0  0  0  0  0  0
  161.1320  207.3080  150.3850 N   0  0  0  0  0  0  0  0  0  0  0  0
  161.0250  203.1360  150.7340 C   0  0  0  0  0  0  0  0  0  0  0  0
  160.4990  209.1860  157.0690 C   0  0  0  0  0  3  0  0  0  0  0  0
  160.9860  209.5050  153.3740 C   0  0  0  0  0  0  0  0  0  0  0  0
  160.6680  209.8610  155.8480 C   0  0  0  0  0  3  0  0  0  0  0  0
  160.9080  207.2200  153.4470 C   0  0  0  0  0  0  0  0  0  0  0  0
  160.0530  212.8750  152.1120 N   0  0  0  0  0  1  0  0  0  0  0  0
  160.9700  210.8540  152.8790 N   0  0  0  0  0  0  0  0  0  0  0  0
  158.6050  211.0760  152.9450 N   0  0  0  0  0  1  0  0  0  0  0  0
  159.9080  211.5560  152.6230 C   0  0  0  0  0  0  0  0  0  0  0  0
  162.1180  205.2480  147.1040 C   0  0  0  0  0  0  0  0  0  0  0  0
  161.2230  205.7640  148.1090 N   0  0  0  0  0  0  0  0  0  0  0  0
  162.8320  204.2360  147.3570 O   0  0  0  0  0  0  0  0  0  0  0  0
  160.3060  206.8510  147.7920 C   0  0  0  0  0  1  0  0  0  0  0  0
  161.5560  205.0660  144.8010 C   0  0  0  0  0  0  0  0  0  0  0  0
  163.0440  205.1540  144.9380 O   0  0  0  0  0  0  0  0  0  0  0  0
  162.1860  205.8660  145.7340 C   0  0  2  0  0  3  0  0  0  0  0  0
  160.4700  204.5770  144.2220 C   0  0  0  0  0  2  0  0  0  0  0  0
  161.0220  201.6500  150.8180 C   0  0  0  0  0  2  0  0  0  0  0  0
  160.3340  201.0580  149.6020 C   0  0  0  0  0  2  0  0  0  0  0  0
  161.3780  200.6150  148.6000 C   0  0  0  0  0  1  0  0  0  0  0  0
  1 16  1  0  0  0  0
  1 18  1  0  0  0  0
  3  4  1  0  0  0  0
  4  8  1  0  0  0  0
  4  7  2  0  0  0  0
  5  9  2  0  0  0  0
  5  3  1  0  0  0  0
  6  1  2  0  0  0  0
  7 18  1  0  0  0  0
  9 14  1  0  0  0  0
 10  2  2  0  0  0  0
 11 10  1  0  0  0  0
 12 11  1  0  0  0  0
 12 17  1  0  0  0  0
 13  3  2  0  0  0  0
 13  6  1  0  0  0  0
 14 31  1  0  0  0  0
 14  8  2  0  0  0  0
 15  2  1  0  0  0  0
 16 12  2  0  0  0  0
 17 15  2  0  0  0  0
 18 11  2  0  0  0  0
 19 22  1  0  0  0  0
 20 16  1  0  0  0  0
 22 20  2  0  0  0  0
 22 21  1  0  0  0  0
 23 25  2  0  0  0  0
 23 24  1  0  0  0  0
 24  5  1  0  0  0  0
 26 24  1  0  0  0  0
 27 28  1  0  0  0  0
 27 29  1  0  0  0  0
 28 29  1  0  0  0  0
 29 23  1  1  0  0  0
 30 27  2  0  0  0  0
 32 31  1  0  0  0  0
 33 32  1  0  0  0  0
M  END
>  <MODEL>
2

>  <REMARK>
 VINA RESULT:      -9.7      2.752      7.983
  Name = 
  5 active torsions:
  status: ('A' for Active; 'I' for Inactive)
    1  A    between atoms: C_4  and  C_30
    2  A    between atoms: C_8  and  C_14
    3  A    between atoms: N_10  and  C_27
    4  A    between atoms: C_11  and  N_16
    5  A    between atoms: C_14  and  C_23
                            x       y       z     vdW  Elec       q    Type
                         _______ _______ _______ _____ _____    ______ ____

>  <TORSDO>
F 5

$$$$
=
 OpenBabel11042422373D

 33 37  0  0  1  0  0  0  0  0999 V2000
  160.9380  205.6770  149.2420 C   0  0  0  0  0  0  0  0  0  0  0  0
  161.1660  201.1680  150.1700 C   0  0  0  0  0  3  0  0  0  0  0  0
  161.0380  207.8400  151.4990 C   0  0  0  0  0  0  0  0  0  0  0  0
  161.0620  206.6200  152.2500 C   0  0  0  0  0  0  0  0  0  0  0  0
  161.0630  209.0680  152.2090 C   0  0  0  0  0  0  0  0  0  0  0  0
  160.9290  207.0490  149.1240 C   0  0  0  0  0  3  0  0  0  0  0  0
  161.0500  205.3190  151.7630 C   0  0  0  0  0  3  0  0  0  0  0  0
  161.1030  206.6810  153.6470 C   0  0  0  0  0  3  0  0  0  0  0  0
  161.1000  209.0830  153.6070 C   0  0  0  0  0  3  0  0  0  0  0  0
  161.1120  202.4070  150.8320 C   0  0  0  0  0  3  0  0  0  0  0  0
  161.0120  203.5620  150.0540 C   0  0  0  0  0  0  0  0  0  0  0  0
  160.9590  203.5020  148.6760 C   0  0  0  0  0  0  0  0  0  0  0  0
  160.9750  207.9400  150.1400 N   0  0  0  0  0  0  0  0  0  0  0  0
  161.1230  207.8950  154.3250 C   0  0  0  0  0  0  0  0  0  0  0  0
  161.1330  201.1080  148.7630 C   0  0  0  0  0  3  0  0  0  0  0  0
  160.8880  204.7930  148.1720 C   0  0  0  0  0  0  0  0  0  0  0  0
  161.0360  202.2830  148.0000 C   0  0  0  0  0  3  0  0  0  0  0  0
  160.9970  204.8850  150.4560 C   0  0  0  0  0  0  0  0  0  0  0  0
  161.8470  205.6850  144.6930 N   0  0  0  0  0  1  0  0  0  0  0  0
  160.9160  205.1840  146.7900 N   0  0  0  0  0  0  0  0  0  0  0  0
  163.2460  204.8090  146.5110 N   0  0  0  0  0  1  0  0  0  0  0  0
  161.9760  205.2550  146.0430 C   0  0  0  0  0  0  0  0  0  0  0  0
  161.9760  210.5770  150.4260 C   0  0  0  0  0  0  0  0  0  0  0  0
  161.0590  210.3250  151.5100 N   0  0  0  0  0  0  0  0  0  0  0  0
  162.7850  209.6770  150.0660 O   0  0  0  0  0  0  0  0  0  0  0  0
  160.0380  211.3060  151.8560 C   0  0  0  0  0  1  0  0  0  0  0  0
  161.6180  211.6900  148.3560 C   0  0  0  0  0  0  0  0  0  0  0  0
  163.0170  211.9500  148.8180 O   0  0  0  0  0  0  0  0  0  0  0  0
  161.9550  211.8840  149.6820 C   0  0  2  0  0  3  0  0  0  0  0  0
  160.7380  211.4480  147.3960 C   0  0  0  0  0  2  0  0  0  0  0  0
  161.1440  207.9210  155.8130 C   0  0  0  0  0  2  0  0  0  0  0  0
  161.2460  209.3510  156.3100 C   0  0  0  0  0  2  0  0  0  0  0  0
  162.5600  209.5390  157.0370 C   0  0  0  0  0  1  0  0  0  0  0  0
  1 18  1  0  0  0  0
  2 10  1  0  0  0  0
  3  5  2  0  0  0  0
  3  4  1  0  0  0  0
  4  8  2  0  0  0  0
  5  9  1  0  0  0  0
  6  1  1  0  0  0  0
  6 13  2  0  0  0  0
  7  4  1  0  0  0  0
  8 14  1  0  0  0  0
  9 14  2  0  0  0  0
 11 18  1  0  0  0  0
 11 10  2  0  0  0  0
 12 11  1  0  0  0  0
 13  3  1  0  0  0  0
 14 31  1  0  0  0  0
 15  2  2  0  0  0  0
 16 12  1  0  0  0  0
 16  1  2  0  0  0  0
 17 12  2  0  0  0  0
 17 15  1  0  0  0  0
 18  7  2  0  0  0  0
 19 22  1  0  0  0  0
 20 16  1  0  0  0  0
 22 21  1  0  0  0  0
 22 20  2  0  0  0  0
 23 24  1  0  0  0  0
 24 26  1  0  0  0  0
 24  5  1  0  0  0  0
 25 23  2  0  0  0  0
 27 28  1  0  0  0  0
 27 29  1  0  0  0  0
 28 29  1  0  0  0  0
 29 23  1  1  0  0  0
 30 27  2  0  0  0  0
 31 32  1  0  0  0  0
 32 33  1  0  0  0  0
M  END
>  <MODEL>
3

>  <REMARK>
 VINA RESULT:      -9.0      1.567      2.042
  Name = 
  5 active torsions:
  status: ('A' for Active; 'I' for Inactive)
    1  A    between atoms: C_4  and  C_30
    2  A    between atoms: C_8  and  C_14
    3  A    between atoms: N_10  and  C_27
    4  A    between atoms: C_11  and  N_16
    5  A    between atoms: C_14  and  C_23
                            x       y       z     vdW  Elec       q    Type
                         _______ _______ _______ _____ _____    ______ ____

>  <TORSDO>
F 5

$$$$
=
 OpenBabel11042422373D

 33 37  0  0  1  0  0  0  0  0999 V2000
  161.1390  206.0680  148.8260 C   0  0  0  0  0  0  0  0  0  0  0  0
  160.9640  201.8240  150.6150 C   0  0  0  0  0  3  0  0  0  0  0  0
  161.4090  208.6140  150.6240 C   0  0  0  0  0  0  0  0  0  0  0  0
  161.3190  207.5660  151.5980 C   0  0  0  0  0  0  0  0  0  0  0  0
  161.5350  209.9500  151.0830 C   0  0  0  0  0  0  0  0  0  0  0  0
  161.2510  207.3870  148.4450 C   0  0  0  0  0  3  0  0  0  0  0  0
  161.1980  206.2010  151.3710 C   0  0  0  0  0  3  0  0  0  0  0  0
  161.3540  207.8950  152.9570 C   0  0  0  0  0  3  0  0  0  0  0  0
  161.5610  210.2340  152.4520 C   0  0  0  0  0  3  0  0  0  0  0  0
  161.0120  203.1680  151.0230 C   0  0  0  0  0  3  0  0  0  0  0  0
  161.0210  204.1540  150.0340 C   0  0  0  0  0  0  0  0  0  0  0  0
  160.9750  203.8310  148.6930 C   0  0  0  0  0  0  0  0  0  0  0  0
  161.3660  208.4520  149.2700 N   0  0  0  0  0  0  0  0  0  0  0  0
  161.4740  209.2120  153.3870 C   0  0  0  0  0  0  0  0  0  0  0  0
  160.9380  201.4940  149.2460 C   0  0  0  0  0  3  0  0  0  0  0  0
  161.0210  205.0000  147.9470 C   0  0  0  0  0  0  0  0  0  0  0  0
  160.9500  202.5020  148.2680 C   0  0  0  0  0  3  0  0  0  0  0  0
  161.1180  205.5260  150.1720 C   0  0  0  0  0  0  0  0  0  0  0  0
  162.0970  205.2210  144.3950 N   0  0  0  0  0  1  0  0  0  0  0  0
  161.0950  205.1110  146.5160 N   0  0  0  0  0  0  0  0  0  0  0  0
  163.4450  204.7760  146.3990 N   0  0  0  0  0  1  0  0  0  0  0  0
  162.1820  205.0720  145.8080 C   0  0  0  0  0  0  0  0  0  0  0  0
  160.8380  212.2270  150.2980 C   0  0  0  0  0  0  0  0  0  0  0  0
  161.6470  211.0420  150.1550 N   0  0  0  0  0  0  0  0  0  0  0  0
  160.0300  212.3240  151.2640 O   0  0  0  0  0  0  0  0  0  0  0  0
  162.6700  210.9680  149.1190 C   0  0  0  0  0  1  0  0  0  0  0  0
  159.7320  213.8080  148.9080 C   0  0  0  0  0  0  0  0  0  0  0  0
  160.6490  212.9740  148.0700 O   0  0  0  0  0  0  0  0  0  0  0  0
  160.9720  213.3780  149.3380 C   0  0  2  0  0  3  0  0  0  0  0  0
  158.5900  214.4530  149.0880 C   0  0  0  0  0  2  0  0  0  0  0  0
  161.4840  209.5260  154.8430 C   0  0  0  0  0  2  0  0  0  0  0  0
  160.2670  208.9200  155.5170 C   0  0  0  0  0  2  0  0  0  0  0  0
  159.3140  210.0240  155.9200 C   0  0  0  0  0  1  0  0  0  0  0  0
  1 18  1  0  0  0  0
  2 10  1  0  0  0  0
  3  5  2  0  0  0  0
  3  4  1  0  0  0  0
  4  8  2  0  0  0  0
  5  9  1  0  0  0  0
  6  1  1  0  0  0  0
  6 13  2  0  0  0  0
  7  4  1  0  0  0  0
  8 14  1  0  0  0  0
  9 14  2  0  0  0  0
 11 18  1  0  0  0  0
 11 10  2  0  0  0  0
 12 11  1  0  0  0  0
 13  3  1  0  0  0  0
 14 31  1  0  0  0  0
 15  2  2  0  0  0  0
 16 12  1  0  0  0  0
 16  1  2  0  0  0  0
 17 12  2  0  0  0  0
 17 15  1  0  0  0  0
 18  7  2  0  0  0  0
 19 22  1  0  0  0  0
 20 16  1  0  0  0  0
 22 21  1  0  0  0  0
 22 20  2  0  0  0  0
 23 25  2  0  0  0  0
 24 23  1  0  0  0  0
 24  5  1  0  0  0  0
 26 24  1  0  0  0  0
 27 30  2  0  0  0  0
 27 29  1  0  0  0  0
 28 27  1  0  0  0  0
 28 29  1  0  0  0  0
 29 23  1  1  0  0  0
 31 32  1  0  0  0  0
 32 33  1  0  0  0  0
M  END
>  <MODEL>
4

>  <REMARK>
 VINA RESULT:      -8.9      1.521      1.897
  Name = 
  5 active torsions:
  status: ('A' for Active; 'I' for Inactive)
    1  A    between atoms: C_4  and  C_30
    2  A    between atoms: C_8  and  C_14
    3  A    between atoms: N_10  and  C_27
    4  A    between atoms: C_11  and  N_16
    5  A    between atoms: C_14  and  C_23
                            x       y       z     vdW  Elec       q    Type
                         _______ _______ _______ _____ _____    ______ ____

>  <TORSDO>
F 5

$$$$
