=
 OpenBabel11042421083D

 28 30  0  0  1  0  0  0  0  0999 V2000
  161.8860  205.6980  150.2010 C   0  0  2  0  0  3  0  0  0  0  0  0
  160.8130  203.6380  149.0320 C   0  0  0  0  0  0  0  0  0  0  0  0
  161.6070  204.8960  148.9480 C   0  0  0  0  0  0  0  0  0  0  0  0
  161.5550  203.5050  151.4180 C   0  0  0  0  0  2  0  0  0  0  0  0
  162.1520  205.3400  147.8050 C   0  0  0  0  0  3  0  0  0  0  0  0
  160.6070  202.9540  150.3580 C   0  0  2  0  0  3  0  0  0  0  0  0
  160.2360  203.1770  148.0110 O   0  0  0  0  0  0  0  0  0  0  0  0
  161.4110  205.0180  151.4950 C   0  0  1  0  0  3  0  0  0  0  0  0
  160.8050  201.4760  150.2250 C   0  0  0  0  0  3  0  0  0  0  0  0
  161.2740  200.9480  149.0960 C   0  0  0  0  0  2  0  0  0  0  0  0
  163.4470  204.4630  145.8880 C   0  0  0  0  0  1  0  0  0  0  0  0
  162.0600  204.6580  146.4750 C   0  0  2  0  0  3  0  0  0  0  0  0
  160.3670  206.4480  146.0330 O   0  0  0  0  0  1  0  0  0  0  0  0
  161.2860  205.2550  144.3060 O   0  0  0  0  0  0  0  0  0  0  0  0
  161.2220  205.4660  145.5440 C   0  0  0  0  0  0  0  0  0  0  0  0
  161.2490  207.0790  150.0850 C   0  0  0  0  0  2  0  0  0  0  0  0
  162.7660  210.1060  151.7060 O   0  0  0  0  0  1  0  0  0  0  0  0
  161.8000  209.4510  149.5600 C   0  0  0  0  0  2  0  0  0  0  0  0
  162.3020  208.1690  150.2290 C   0  0  1  0  0  3  0  0  0  0  0  0
  160.5380  209.2580  151.6500 O   0  0  0  0  0  1  0  0  0  0  0  0
  161.8020  209.3330  151.0610 C   0  0  0  0  0  0  0  0  0  0  0  0
  162.1760  205.5180  152.6260 N   0  0  0  0  0  2  0  0  0  0  0  0
  160.4300  206.9020  153.3080 O   0  0  0  0  0  0  0  0  0  0  0  0
  161.4720  207.1660  154.2140 C   0  0  2  0  0  3  0  0  0  0  0  0
  161.2260  205.8080  153.6870 C   0  0  2  0  0  3  0  0  0  0  0  0
  160.6300  208.5560  156.0990 C   0  0  0  0  0  3  0  0  0  0  0  0
  160.9250  207.2750  155.5520 N   0  0  0  0  0  2  0  0  0  0  0  0
  160.1580  208.6490  157.2610 O   0  0  0  0  0  0  0  0  0  0  0  0
  1 16  1  6  0  0  0
  1  8  1  0  0  0  0
  2  6  1  0  0  0  0
  3  2  1  0  0  0  0
  3  1  1  0  0  0  0
  4  8  1  0  0  0  0
  5  3  2  0  0  0  0
  6  9  1  6  0  0  0
  6  4  1  0  0  0  0
  7  2  2  0  0  0  0
  8 22  1  1  0  0  0
 10  9  2  0  0  0  0
 12 11  1  6  0  0  0
 12  5  1  0  0  0  0
 14 15  2  0  0  0  0
 15 13  1  0  0  0  0
 15 12  1  0  0  0  0
 18 19  1  0  0  0  0
 18 21  1  0  0  0  0
 19 16  1  6  0  0  0
 19 21  1  0  0  0  0
 21 20  1  0  0  0  0
 21 17  1  0  0  0  0
 23 25  1  0  0  0  0
 23 24  1  0  0  0  0
 24 27  1  1  0  0  0
 25 22  1  6  0  0  0
 25 24  1  0  0  0  0
 26 28  2  0  0  0  0
 27 26  1  0  0  0  0
M  END
>  <MODEL>
1

>  <REMARK>
 VINA RESULT:      -7.4      0.000      0.000
  Name = 
  8 active torsions:
  status: ('A' for Active; 'I' for Inactive)
    1  A    between atoms: C_1  and  C_19
    2  A    between atoms: C_2  and  C_3
    3  A    between atoms: C_2  and  C_17
    4  A    between atoms: C_11  and  N_24
    5  A    between atoms: C_14  and  C_16
    6  A    between atoms: C_16  and  C_20
    7  A    between atoms: N_22  and  C_26
    8  A    between atoms: N_22  and  C_27
                            x       y       z     vdW  Elec       q    Type
                         _______ _______ _______ _____ _____    ______ ____

>  <TORSDO>
F 8

$$$$
=
 OpenBabel11042421083D

 28 30  0  0  1  0  0  0  0  0999 V2000
  161.0650  205.6720  149.6230 C   0  0  2  0  0  3  0  0  0  0  0  0
  161.7290  204.2680  147.5370 C   0  0  0  0  0  0  0  0  0  0  0  0
  161.0530  204.3650  148.8620 C   0  0  0  0  0  0  0  0  0  0  0  0
  161.3900  206.7410  147.3520 C   0  0  0  0  0  2  0  0  0  0  0  0
  160.3680  203.3470  149.4060 C   0  0  0  0  0  3  0  0  0  0  0  0
  162.0900  205.5150  146.7740 C   0  0  2  0  0  3  0  0  0  0  0  0
  162.0810  203.1480  147.0780 O   0  0  0  0  0  0  0  0  0  0  0  0
  161.6860  206.8430  148.8410 C   0  0  1  0  0  3  0  0  0  0  0  0
  161.7360  205.3690  145.3270 C   0  0  0  0  0  3  0  0  0  0  0  0
  160.5280  205.7100  144.8810 C   0  0  0  0  0  2  0  0  0  0  0  0
  158.7770  201.4790  149.0920 C   0  0  0  0  0  1  0  0  0  0  0  0
  160.1710  202.0000  148.7850 C   0  0  2  0  0  3  0  0  0  0  0  0
  161.8380  200.1670  148.4340 O   0  0  0  0  0  0  0  0  0  0  0  0
  161.4790  201.0360  150.5230 O   0  0  0  0  0  1  0  0  0  0  0  0
  161.1950  201.0460  149.2980 C   0  0  0  0  0  0  0  0  0  0  0  0
  161.8000  205.4960  150.9480 C   0  0  0  0  0  2  0  0  0  0  0  0
  160.3090  207.7250  153.5730 O   0  0  0  0  0  1  0  0  0  0  0  0
  161.6630  205.6980  153.4270 C   0  0  0  0  0  2  0  0  0  0  0  0
  160.8760  205.7990  152.1180 C   0  0  1  0  0  3  0  0  0  0  0  0
  162.3760  207.7980  152.3860 O   0  0  0  0  0  1  0  0  0  0  0  0
  161.3000  207.0480  152.8660 C   0  0  0  0  0  0  0  0  0  0  0  0
  161.1720  208.1040  149.3500 N   0  0  0  0  0  2  0  0  0  0  0  0
  162.2350  209.9930  150.2030 O   0  0  0  0  0  0  0  0  0  0  0  0
  161.5730  210.4450  149.0480 C   0  0  2  0  0  3  0  0  0  0  0  0
  162.1960  209.1070  149.1130 C   0  0  2  0  0  3  0  0  0  0  0  0
  162.1250  212.7380  148.2530 C   0  0  0  0  0  3  0  0  0  0  0  0
  162.4410  211.3520  148.3240 N   0  0  0  0  0  2  0  0  0  0  0  0
  162.8780  213.5230  147.6220 O   0  0  0  0  0  0  0  0  0  0  0  0
  1 16  1  1  0  0  0
  2  3  1  0  0  0  0
  3  5  2  0  0  0  0
  3  1  1  0  0  0  0
  4  8  1  0  0  0  0
  6  9  1  6  0  0  0
  6  4  1  0  0  0  0
  6  2  1  0  0  0  0
  7  2  2  0  0  0  0
  8 22  1  1  0  0  0
  8  1  1  0  0  0  0
 10  9  2  0  0  0  0
 12 11  1  1  0  0  0
 12 15  1  0  0  0  0
 12  5  1  0  0  0  0
 13 15  2  0  0  0  0
 15 14  1  0  0  0  0
 19 16  1  6  0  0  0
 19 21  1  0  0  0  0
 19 18  1  0  0  0  0
 20 21  1  0  0  0  0
 21 18  1  0  0  0  0
 21 17  1  0  0  0  0
 24 27  1  6  0  0  0
 24 25  1  0  0  0  0
 24 23  1  0  0  0  0
 25 22  1  1  0  0  0
 25 23  1  0  0  0  0
 26 27  1  0  0  0  0
 28 26  2  0  0  0  0
M  END
>  <MODEL>
2

>  <REMARK>
 VINA RESULT:      -7.4      2.486      5.395
  Name = 
  8 active torsions:
  status: ('A' for Active; 'I' for Inactive)
    1  A    between atoms: C_1  and  C_19
    2  A    between atoms: C_2  and  C_3
    3  A    between atoms: C_2  and  C_17
    4  A    between atoms: C_11  and  N_24
    5  A    between atoms: C_14  and  C_16
    6  A    between atoms: C_16  and  C_20
    7  A    between atoms: N_22  and  C_26
    8  A    between atoms: N_22  and  C_27
                            x       y       z     vdW  Elec       q    Type
                         _______ _______ _______ _____ _____    ______ ____

>  <TORSDO>
F 8

$$$$
=
 OpenBabel11042421083D

 28 30  0  0  1  0  0  0  0  0999 V2000
  161.3880  204.9010  148.0330 C   0  0  2  0  0  3  0  0  0  0  0  0
  160.3360  203.1420  149.6350 C   0  0  0  0  0  0  0  0  0  0  0  0
  160.9540  203.4800  148.3210 C   0  0  0  0  0  0  0  0  0  0  0  0
  161.5500  205.1300  150.5480 C   0  0  0  0  0  2  0  0  0  0  0  0
  161.2070  202.5610  147.3770 C   0  0  0  0  0  3  0  0  0  0  0  0
  160.4760  204.0790  150.8050 C   0  0  2  0  0  3  0  0  0  0  0  0
  159.6210  202.1110  149.7590 O   0  0  0  0  0  0  0  0  0  0  0  0
  161.2580  205.8480  149.2380 C   0  0  1  0  0  3  0  0  0  0  0  0
  160.8050  203.3180  152.0520 C   0  0  0  0  0  3  0  0  0  0  0  0
  161.7810  202.4130  152.0640 C   0  0  0  0  0  2  0  0  0  0  0  0
  162.0120  200.4150  148.3080 C   0  0  0  0  0  1  0  0  0  0  0  0
  160.9270  201.0950  147.4910 C   0  0  2  0  0  3  0  0  0  0  0  0
  160.2220  201.1500  145.0900 O   0  0  0  0  0  0  0  0  0  0  0  0
  161.3590  199.3480  145.9340 O   0  0  0  0  0  1  0  0  0  0  0  0
  160.8510  200.4810  146.1350 C   0  0  0  0  0  0  0  0  0  0  0  0
  160.5920  205.4580  146.8570 C   0  0  0  0  0  2  0  0  0  0  0  0
  161.6450  205.8430  143.2750 O   0  0  0  0  0  1  0  0  0  0  0  0
  162.4260  204.7630  145.3220 C   0  0  0  0  0  2  0  0  0  0  0  0
  161.5270  205.9250  145.7500 C   0  0  1  0  0  3  0  0  0  0  0  0
  160.2210  204.2770  144.3740 O   0  0  0  0  0  1  0  0  0  0  0  0
  161.2760  205.1890  144.4490 C   0  0  0  0  0  0  0  0  0  0  0  0
  162.1740  206.9670  149.0870 N   0  0  0  0  0  2  0  0  0  0  0  0
  162.1830  209.2960  149.1390 O   0  0  0  0  0  0  0  0  0  0  0  0
  162.3410  208.9070  150.4800 C   0  0  2  0  0  3  0  0  0  0  0  0
  161.4750  208.1530  149.5500 C   0  0  2  0  0  3  0  0  0  0  0  0
  161.9320  210.0360  152.6600 C   0  0  0  0  0  3  0  0  0  0  0  0
  161.5260  209.7570  151.3240 N   0  0  0  0  0  2  0  0  0  0  0  0
  161.2220  210.7720  153.3920 O   0  0  0  0  0  0  0  0  0  0  0  0
  1 16  1  6  0  0  0
  1  3  1  0  0  0  0
  1  8  1  0  0  0  0
  2  7  2  0  0  0  0
  2  6  1  0  0  0  0
  3  2  1  0  0  0  0
  4  6  1  0  0  0  0
  5 12  1  0  0  0  0
  5  3  2  0  0  0  0
  6  9  1  1  0  0  0
  8 22  1  6  0  0  0
  8  4  1  0  0  0  0
  9 10  2  0  0  0  0
 12 11  1  1  0  0  0
 13 15  2  0  0  0  0
 14 15  1  0  0  0  0
 15 12  1  0  0  0  0
 17 21  1  0  0  0  0
 18 19  1  0  0  0  0
 19 16  1  1  0  0  0
 20 21  1  0  0  0  0
 21 18  1  0  0  0  0
 21 19  1  0  0  0  0
 23 25  1  0  0  0  0
 23 24  1  0  0  0  0
 24 27  1  1  0  0  0
 25 22  1  6  0  0  0
 25 24  1  0  0  0  0
 26 28  2  0  0  0  0
 27 26  1  0  0  0  0
M  END
>  <MODEL>
3

>  <REMARK>
 VINA RESULT:      -7.3      2.343      4.756
  Name = 
  8 active torsions:
  status: ('A' for Active; 'I' for Inactive)
    1  A    between atoms: C_1  and  C_19
    2  A    between atoms: C_2  and  C_3
    3  A    between atoms: C_2  and  C_17
    4  A    between atoms: C_11  and  N_24
    5  A    between atoms: C_14  and  C_16
    6  A    between atoms: C_16  and  C_20
    7  A    between atoms: N_22  and  C_26
    8  A    between atoms: N_22  and  C_27
                            x       y       z     vdW  Elec       q    Type
                         _______ _______ _______ _____ _____    ______ ____

>  <TORSDO>
F 8

$$$$
=
 OpenBabel11042421083D

 28 30  0  0  1  0  0  0  0  0999 V2000
  161.5000  204.9640  148.0730 C   0  0  2  0  0  3  0  0  0  0  0  0
  160.3850  203.2390  149.6670 C   0  0  0  0  0  0  0  0  0  0  0  0
  161.0100  203.5600  148.3530 C   0  0  0  0  0  0  0  0  0  0  0  0
  161.6850  205.1680  150.5880 C   0  0  0  0  0  2  0  0  0  0  0  0
  161.2190  202.6390  147.4000 C   0  0  0  0  0  3  0  0  0  0  0  0
  160.5700  204.1600  150.8440 C   0  0  2  0  0  3  0  0  0  0  0  0
  159.6280  202.2380  149.7880 O   0  0  0  0  0  0  0  0  0  0  0  0
  161.4170  205.9070  149.2850 C   0  0  1  0  0  3  0  0  0  0  0  0
  160.8730  203.3770  152.0830 C   0  0  0  0  0  3  0  0  0  0  0  0
  161.7480  202.3730  152.0610 C   0  0  0  0  0  2  0  0  0  0  0  0
  161.9160  200.4620  148.3480 C   0  0  0  0  0  1  0  0  0  0  0  0
  160.8790  201.1850  147.5060 C   0  0  2  0  0  3  0  0  0  0  0  0
  161.3410  199.3110  145.9120 O   0  0  0  0  0  1  0  0  0  0  0  0
  160.2760  201.2120  145.2040 O   0  0  0  0  0  0  0  0  0  0  0  0
  160.8130  200.5750  146.1470 C   0  0  0  0  0  0  0  0  0  0  0  0
  160.7220  205.5630  146.9050 C   0  0  0  0  0  2  0  0  0  0  0  0
  161.7070  205.8340  143.2930 O   0  0  0  0  0  1  0  0  0  0  0  0
  162.4460  204.7010  145.3260 C   0  0  0  0  0  2  0  0  0  0  0  0
  161.6640  205.9390  145.7700 C   0  0  1  0  0  3  0  0  0  0  0  0
  160.1810  204.4050  144.4410 O   0  0  0  0  0  1  0  0  0  0  0  0
  161.3140  205.2220  144.4810 C   0  0  0  0  0  0  0  0  0  0  0  0
  162.3770  206.9880  149.1360 N   0  0  0  0  0  2  0  0  0  0  0  0
  161.2530  208.7470  148.1010 O   0  0  0  0  0  0  0  0  0  0  0  0
  162.3800  209.3420  148.6950 C   0  0  2  0  0  3  0  0  0  0  0  0
  161.6540  208.2310  149.3450 C   0  0  2  0  0  3  0  0  0  0  0  0
  161.8810  211.7720  148.5040 C   0  0  0  0  0  3  0  0  0  0  0  0
  161.9920  210.5990  149.3030 N   0  0  0  0  0  2  0  0  0  0  0  0
  161.5470  212.8630  149.0340 O   0  0  0  0  0  0  0  0  0  0  0  0
  1 16  1  6  0  0  0
  1  3  1  0  0  0  0
  1  8  1  0  0  0  0
  2  7  2  0  0  0  0
  2  6  1  0  0  0  0
  3  2  1  0  0  0  0
  4  6  1  0  0  0  0
  5 12  1  0  0  0  0
  5  3  2  0  0  0  0
  6  9  1  1  0  0  0
  8 22  1  6  0  0  0
  8  4  1  0  0  0  0
 10  9  2  0  0  0  0
 12 11  1  1  0  0  0
 13 15  1  0  0  0  0
 14 15  2  0  0  0  0
 15 12  1  0  0  0  0
 17 21  1  0  0  0  0
 18 19  1  0  0  0  0
 19 16  1  1  0  0  0
 20 21  1  0  0  0  0
 21 18  1  0  0  0  0
 21 19  1  0  0  0  0
 23 24  1  0  0  0  0
 23 25  1  0  0  0  0
 24 27  1  1  0  0  0
 24 25  1  0  0  0  0
 25 22  1  6  0  0  0
 26 28  2  0  0  0  0
 26 27  1  0  0  0  0
M  END
>  <MODEL>
4

>  <REMARK>
 VINA RESULT:      -7.1      3.309      5.357
  Name = 
  8 active torsions:
  status: ('A' for Active; 'I' for Inactive)
    1  A    between atoms: C_1  and  C_19
    2  A    between atoms: C_2  and  C_3
    3  A    between atoms: C_2  and  C_17
    4  A    between atoms: C_11  and  N_24
    5  A    between atoms: C_14  and  C_16
    6  A    between atoms: C_16  and  C_20
    7  A    between atoms: N_22  and  C_26
    8  A    between atoms: N_22  and  C_27
                            x       y       z     vdW  Elec       q    Type
                         _______ _______ _______ _____ _____    ______ ____

>  <TORSDO>
F 8

$$$$
=
 OpenBabel11042421083D

 28 30  0  0  1  0  0  0  0  0999 V2000
  161.5970  206.0950  149.0270 C   0  0  2  0  0  3  0  0  0  0  0  0
  160.5470  205.2960  151.2680 C   0  0  0  0  0  0  0  0  0  0  0  0
  161.0880  204.9810  149.9150 C   0  0  0  0  0  0  0  0  0  0  0  0
  161.9610  207.3590  151.1890 C   0  0  0  0  0  2  0  0  0  0  0  0
  161.2050  203.7280  149.4500 C   0  0  0  0  0  3  0  0  0  0  0  0
  160.8380  206.6240  151.9140 C   0  0  2  0  0  3  0  0  0  0  0  0
  159.7730  204.4890  151.8500 O   0  0  0  0  0  0  0  0  0  0  0  0
  161.6230  207.4730  149.7090 C   0  0  1  0  0  3  0  0  0  0  0  0
  161.2040  206.4410  153.3540 C   0  0  0  0  0  3  0  0  0  0  0  0
  160.7970  207.3080  154.2790 C   0  0  0  0  0  2  0  0  0  0  0  0
  162.0250  201.9650  150.9810 C   0  0  0  0  0  1  0  0  0  0  0  0
  160.8330  202.4840  150.1960 C   0  0  2  0  0  3  0  0  0  0  0  0
  161.2610  200.5930  148.6130 O   0  0  0  0  0  0  0  0  0  0  0  0
  159.1260  201.3270  149.0090 O   0  0  0  0  0  1  0  0  0  0  0  0
  160.3570  201.4410  149.2440 C   0  0  0  0  0  0  0  0  0  0  0  0
  160.7570  206.1710  147.7560 C   0  0  0  0  0  2  0  0  0  0  0  0
  161.3650  205.8440  144.0660 O   0  0  0  0  0  1  0  0  0  0  0  0
  161.2620  204.4260  146.0520 C   0  0  0  0  0  2  0  0  0  0  0  0
  161.6020  205.8370  146.5350 C   0  0  1  0  0  3  0  0  0  0  0  0
  159.3710  205.8290  145.3760 O   0  0  0  0  0  1  0  0  0  0  0  0
  160.7510  205.6250  145.2980 C   0  0  0  0  0  0  0  0  0  0  0  0
  162.6010  208.3290  149.0570 N   0  0  0  0  0  2  0  0  0  0  0  0
  161.2630  210.1190  148.3990 O   0  0  0  0  0  0  0  0  0  0  0  0
  162.5820  210.5620  148.1940 C   0  0  2  0  0  3  0  0  0  0  0  0
  162.2210  209.7020  149.3400 C   0  0  2  0  0  3  0  0  0  0  0  0
  162.7360  212.9920  147.6790 C   0  0  0  0  0  3  0  0  0  0  0  0
  162.6980  211.9380  148.6350 N   0  0  0  0  0  2  0  0  0  0  0  0
  162.8390  214.1850  148.0630 O   0  0  0  0  0  0  0  0  0  0  0  0
  1 16  1  6  0  0  0
  1  8  1  0  0  0  0
  1  3  1  0  0  0  0
  2  7  2  0  0  0  0
  2  6  1  0  0  0  0
  3  2  1  0  0  0  0
  4  6  1  0  0  0  0
  5  3  2  0  0  0  0
  5 12  1  0  0  0  0
  6  9  1  1  0  0  0
  8 22  1  6  0  0  0
  8  4  1  0  0  0  0
  9 10  2  0  0  0  0
 12 11  1  6  0  0  0
 13 15  2  0  0  0  0
 14 15  1  0  0  0  0
 15 12  1  0  0  0  0
 17 21  1  0  0  0  0
 18 19  1  0  0  0  0
 19 16  1  1  0  0  0
 21 20  1  0  0  0  0
 21 18  1  0  0  0  0
 21 19  1  0  0  0  0
 23 25  1  0  0  0  0
 24 23  1  0  0  0  0
 24 27  1  1  0  0  0
 24 25  1  0  0  0  0
 25 22  1  6  0  0  0
 26 28  2  0  0  0  0
 26 27  1  0  0  0  0
M  END
>  <MODEL>
5

>  <REMARK>
 VINA RESULT:      -6.8      2.564      6.030
  Name = 
  8 active torsions:
  status: ('A' for Active; 'I' for Inactive)
    1  A    between atoms: C_1  and  C_19
    2  A    between atoms: C_2  and  C_3
    3  A    between atoms: C_2  and  C_17
    4  A    between atoms: C_11  and  N_24
    5  A    between atoms: C_14  and  C_16
    6  A    between atoms: C_16  and  C_20
    7  A    between atoms: N_22  and  C_26
    8  A    between atoms: N_22  and  C_27
                            x       y       z     vdW  Elec       q    Type
                         _______ _______ _______ _____ _____    ______ ____

>  <TORSDO>
F 8

$$$$
=
 OpenBabel11042421083D

 28 30  0  0  1  0  0  0  0  0999 V2000
  162.1270  208.1090  149.2410 C   0  0  2  0  0  3  0  0  0  0  0  0
  160.9110  205.8100  149.2060 C   0  0  0  0  0  0  0  0  0  0  0  0
  161.7720  206.8220  148.5290 C   0  0  0  0  0  0  0  0  0  0  0  0
  161.7070  206.7960  151.3640 C   0  0  0  0  0  2  0  0  0  0  0  0
  162.3090  206.6260  147.3150 C   0  0  0  0  0  3  0  0  0  0  0  0
  160.7030  205.8630  150.6960 C   0  0  2  0  0  3  0  0  0  0  0  0
  160.2830  204.9510  148.5310 O   0  0  0  0  0  0  0  0  0  0  0  0
  161.6490  208.1660  150.7020 C   0  0  1  0  0  3  0  0  0  0  0  0
  160.8150  204.4940  151.2930 C   0  0  0  0  0  3  0  0  0  0  0  0
  161.0920  204.3320  152.5850 C   0  0  0  0  0  2  0  0  0  0  0  0
  163.5020  204.8760  146.0360 C   0  0  0  0  0  1  0  0  0  0  0  0
  162.1450  205.3960  146.4780 C   0  0  2  0  0  3  0  0  0  0  0  0
  161.6650  205.2330  144.0270 O   0  0  0  0  0  0  0  0  0  0  0  0
  160.2540  206.3820  145.4210 O   0  0  0  0  0  1  0  0  0  0  0  0
  161.3020  205.6980  145.2860 C   0  0  0  0  0  0  0  0  0  0  0  0
  161.5650  209.3000  148.4720 C   0  0  0  0  0  2  0  0  0  0  0  0
  161.2400  212.9840  149.1130 O   0  0  0  0  0  1  0  0  0  0  0  0
  162.8870  211.4000  148.2500 C   0  0  0  0  0  2  0  0  0  0  0  0
  161.9420  210.6060  149.1560 C   0  0  1  0  0  3  0  0  0  0  0  0
  160.6650  211.6190  147.2430 O   0  0  0  0  0  1  0  0  0  0  0  0
  161.4450  211.8130  148.3850 C   0  0  0  0  0  0  0  0  0  0  0  0
  162.4710  209.1000  151.4540 N   0  0  0  0  0  2  0  0  0  0  0  0
  160.4820  209.6610  152.5310 O   0  0  0  0  0  0  0  0  0  0  0  0
  161.3730  210.6970  152.8610 C   0  0  2  0  0  3  0  0  0  0  0  0
  161.8240  209.2950  152.7400 C   0  0  2  0  0  3  0  0  0  0  0  0
  160.2310  211.9900  154.6540 C   0  0  0  0  0  3  0  0  0  0  0  0
  161.2130  211.0390  154.2600 N   0  0  0  0  0  2  0  0  0  0  0  0
  160.0950  212.2870  155.8680 O   0  0  0  0  0  0  0  0  0  0  0  0
  1 16  1  6  0  0  0
  1  8  1  0  0  0  0
  2  6  1  0  0  0  0
  3  2  1  0  0  0  0
  3  1  1  0  0  0  0
  5  3  2  0  0  0  0
  6  9  1  1  0  0  0
  6  4  1  0  0  0  0
  7  2  2  0  0  0  0
  8  4  1  0  0  0  0
  8 22  1  1  0  0  0
  9 10  2  0  0  0  0
 12 11  1  6  0  0  0
 12  5  1  0  0  0  0
 13 15  2  0  0  0  0
 15 14  1  0  0  0  0
 15 12  1  0  0  0  0
 18 21  1  0  0  0  0
 18 19  1  0  0  0  0
 19 16  1  6  0  0  0
 20 21  1  0  0  0  0
 21 17  1  0  0  0  0
 21 19  1  0  0  0  0
 23 25  1  0  0  0  0
 23 24  1  0  0  0  0
 24 27  1  1  0  0  0
 25 22  1  6  0  0  0
 25 24  1  0  0  0  0
 26 28  2  0  0  0  0
 27 26  1  0  0  0  0
M  END
>  <MODEL>
6

>  <REMARK>
 VINA RESULT:      -6.8      2.284      3.100
  Name = 
  8 active torsions:
  status: ('A' for Active; 'I' for Inactive)
    1  A    between atoms: C_1  and  C_19
    2  A    between atoms: C_2  and  C_3
    3  A    between atoms: C_2  and  C_17
    4  A    between atoms: C_11  and  N_24
    5  A    between atoms: C_14  and  C_16
    6  A    between atoms: C_16  and  C_20
    7  A    between atoms: N_22  and  C_26
    8  A    between atoms: N_22  and  C_27
                            x       y       z     vdW  Elec       q    Type
                         _______ _______ _______ _____ _____    ______ ____

>  <TORSDO>
F 8

$$$$
=
 OpenBabel11042421083D

 28 30  0  0  1  0  0  0  0  0999 V2000
  160.9120  205.7670  150.3810 C   0  0  2  0  0  3  0  0  0  0  0  0
  162.2370  207.4630  148.9220 C   0  0  0  0  0  0  0  0  0  0  0  0
  161.3520  206.2690  149.0230 C   0  0  0  0  0  0  0  0  0  0  0  0
  161.3260  208.1410  151.1510 C   0  0  0  0  0  2  0  0  0  0  0  0
  160.8630  205.6300  147.9480 C   0  0  0  0  0  3  0  0  0  0  0  0
  162.3950  208.3950  150.0940 C   0  0  2  0  0  3  0  0  0  0  0  0
  162.9280  207.6610  147.8860 O   0  0  0  0  0  0  0  0  0  0  0  0
  161.3400  206.6720  151.5480 C   0  0  1  0  0  3  0  0  0  0  0  0
  162.3300  209.8220  149.6450 C   0  0  0  0  0  3  0  0  0  0  0  0
  161.9560  210.7860  150.4840 C   0  0  0  0  0  2  0  0  0  0  0  0
  159.7960  206.2030  145.7910 C   0  0  0  0  0  1  0  0  0  0  0  0
  161.1130  206.0100  146.5220 C   0  0  2  0  0  3  0  0  0  0  0  0
  163.2350  204.7160  146.2300 O   0  0  0  0  0  1  0  0  0  0  0  0
  161.4080  204.2770  144.9190 O   0  0  0  0  0  0  0  0  0  0  0  0
  161.9200  204.9550  145.8460 C   0  0  0  0  0  0  0  0  0  0  0  0
  161.4410  204.3540  150.6080 C   0  0  0  0  0  2  0  0  0  0  0  0
  159.8330  200.9650  150.4880 O   0  0  0  0  0  1  0  0  0  0  0  0
  161.2060  202.4060  149.0740 C   0  0  0  0  0  2  0  0  0  0  0  0
  160.4700  203.3220  150.0540 C   0  0  1  0  0  3  0  0  0  0  0  0
  161.9450  201.7150  151.3050 O   0  0  0  0  0  1  0  0  0  0  0  0
  160.8560  201.9110  150.4510 C   0  0  0  0  0  0  0  0  0  0  0  0
  160.4510  206.4700  152.6810 N   0  0  0  0  0  2  0  0  0  0  0  0
  160.4010  206.5720  155.0080 O   0  0  0  0  0  0  0  0  0  0  0  0
  160.5970  207.9010  154.5950 C   0  0  2  0  0  3  0  0  0  0  0  0
  161.2170  206.7660  153.8800 C   0  0  2  0  0  3  0  0  0  0  0  0
  161.5760  209.9430  155.6280 C   0  0  0  0  0  3  0  0  0  0  0  0
  161.5790  208.5300  155.4550 N   0  0  0  0  0  2  0  0  0  0  0  0
  162.4300  210.4860  156.3730 O   0  0  0  0  0  0  0  0  0  0  0  0
  1 16  1  1  0  0  0
  1  8  1  0  0  0  0
  2  3  1  0  0  0  0
  2  6  1  0  0  0  0
  3  1  1  0  0  0  0
  4  8  1  0  0  0  0
  5  3  2  0  0  0  0
  6  9  1  6  0  0  0
  6  4  1  0  0  0  0
  7  2  2  0  0  0  0
  8 22  1  1  0  0  0
  9 10  2  0  0  0  0
 12 11  1  6  0  0  0
 12  5  1  0  0  0  0
 14 15  2  0  0  0  0
 15 13  1  0  0  0  0
 15 12  1  0  0  0  0
 18 19  1  0  0  0  0
 18 21  1  0  0  0  0
 19 21  1  0  0  0  0
 19 16  1  1  0  0  0
 21 17  1  0  0  0  0
 21 20  1  0  0  0  0
 24 23  1  0  0  0  0
 24 27  1  1  0  0  0
 25 22  1  6  0  0  0
 25 24  1  0  0  0  0
 25 23  1  0  0  0  0
 26 28  2  0  0  0  0
 27 26  1  0  0  0  0
M  END
>  <MODEL>
7

>  <REMARK>
 VINA RESULT:      -6.7      1.889      4.734
  Name = 
  8 active torsions:
  status: ('A' for Active; 'I' for Inactive)
    1  A    between atoms: C_1  and  C_19
    2  A    between atoms: C_2  and  C_3
    3  A    between atoms: C_2  and  C_17
    4  A    between atoms: C_11  and  N_24
    5  A    between atoms: C_14  and  C_16
    6  A    between atoms: C_16  and  C_20
    7  A    between atoms: N_22  and  C_26
    8  A    between atoms: N_22  and  C_27
                            x       y       z     vdW  Elec       q    Type
                         _______ _______ _______ _____ _____    ______ ____

>  <TORSDO>
F 8

$$$$
=
 OpenBabel11042421083D

 28 30  0  0  1  0  0  0  0  0999 V2000
  160.6530  208.1480  152.9490 C   0  0  2  0  0  3  0  0  0  0  0  0
  162.1910  208.0050  150.8570 C   0  0  0  0  0  0  0  0  0  0  0  0
  161.2450  207.3530  151.8060 C   0  0  0  0  0  0  0  0  0  0  0  0
  161.1020  210.1670  151.4910 C   0  0  0  0  0  2  0  0  0  0  0  0
  160.8320  206.0840  151.6670 C   0  0  0  0  0  3  0  0  0  0  0  0
  162.2790  209.5060  150.7810 C   0  0  2  0  0  3  0  0  0  0  0  0
  162.9870  207.3110  150.1690 O   0  0  0  0  0  0  0  0  0  0  0  0
  161.0080  209.6440  152.9170 C   0  0  1  0  0  3  0  0  0  0  0  0
  162.3250  209.9590  149.3540 C   0  0  0  0  0  3  0  0  0  0  0  0
  161.9610  211.1960  149.0170 C   0  0  0  0  0  2  0  0  0  0  0  0
  160.4540  205.4630  149.3020 C   0  0  0  0  0  1  0  0  0  0  0  0
  161.2360  205.1520  150.5670 C   0  0  2  0  0  3  0  0  0  0  0  0
  160.8180  202.7450  150.0250 O   0  0  0  0  0  0  0  0  0  0  0  0
  160.9560  203.4460  152.2020 O   0  0  0  0  0  1  0  0  0  0  0  0
  160.9970  203.7400  150.9790 C   0  0  0  0  0  0  0  0  0  0  0  0
  161.0900  207.5470  154.2810 C   0  0  0  0  0  2  0  0  0  0  0  0
  159.8860  209.5060  157.2470 O   0  0  0  0  0  1  0  0  0  0  0  0
  160.5210  207.2170  156.6830 C   0  0  0  0  0  2  0  0  0  0  0  0
  160.0930  207.8900  155.3780 C   0  0  1  0  0  3  0  0  0  0  0  0
  162.0650  209.0930  156.3700 O   0  0  0  0  0  1  0  0  0  0  0  0
  160.7310  208.6950  156.4920 C   0  0  0  0  0  0  0  0  0  0  0  0
  160.0060  210.4060  153.6450 N   0  0  0  0  0  2  0  0  0  0  0  0
  159.6070  212.6390  154.1770 O   0  0  0  0  0  0  0  0  0  0  0  0
  158.7370  212.3640  153.1080 C   0  0  2  0  0  3  0  0  0  0  0  0
  160.0920  211.7780  153.1770 C   0  0  2  0  0  3  0  0  0  0  0  0
  158.0360  213.3960  150.9550 C   0  0  0  0  0  3  0  0  0  0  0  0
  158.7370  213.4860  152.1900 N   0  0  0  0  0  2  0  0  0  0  0  0
  158.0390  214.3700  150.1590 O   0  0  0  0  0  0  0  0  0  0  0  0
  1 16  1  1  0  0  0
  2  3  1  0  0  0  0
  3  1  1  0  0  0  0
  4  8  1  0  0  0  0
  5  3  2  0  0  0  0
  6  9  1  6  0  0  0
  6  2  1  0  0  0  0
  6  4  1  0  0  0  0
  7  2  2  0  0  0  0
  8  1  1  0  0  0  0
  8 22  1  1  0  0  0
 10  9  2  0  0  0  0
 12 11  1  6  0  0  0
 12 15  1  0  0  0  0
 12  5  1  0  0  0  0
 13 15  2  0  0  0  0
 15 14  1  0  0  0  0
 19 16  1  6  0  0  0
 19 21  1  0  0  0  0
 19 18  1  0  0  0  0
 20 21  1  0  0  0  0
 21 18  1  0  0  0  0
 21 17  1  0  0  0  0
 24 27  1  6  0  0  0
 24 25  1  0  0  0  0
 24 23  1  0  0  0  0
 25 22  1  1  0  0  0
 25 23  1  0  0  0  0
 26 27  1  0  0  0  0
 28 26  2  0  0  0  0
M  END
>  <MODEL>
8

>  <REMARK>
 VINA RESULT:      -6.5      2.975      6.267
  Name = 
  8 active torsions:
  status: ('A' for Active; 'I' for Inactive)
    1  A    between atoms: C_1  and  C_19
    2  A    between atoms: C_2  and  C_3
    3  A    between atoms: C_2  and  C_17
    4  A    between atoms: C_11  and  N_24
    5  A    between atoms: C_14  and  C_16
    6  A    between atoms: C_16  and  C_20
    7  A    between atoms: N_22  and  C_26
    8  A    between atoms: N_22  and  C_27
                            x       y       z     vdW  Elec       q    Type
                         _______ _______ _______ _____ _____    ______ ____

>  <TORSDO>
F 8

$$$$
=
 OpenBabel11042421083D

 28 30  0  0  1  0  0  0  0  0999 V2000
  161.6690  207.3690  151.7740 C   0  0  2  0  0  3  0  0  0  0  0  0
  160.4500  209.4430  152.7620 C   0  0  0  0  0  0  0  0  0  0  0  0
  161.0790  208.1070  152.9570 C   0  0  0  0  0  0  0  0  0  0  0  0
  161.9020  209.6650  150.7360 C   0  0  0  0  0  2  0  0  0  0  0  0
  161.2070  207.5300  154.1620 C   0  0  0  0  0  3  0  0  0  0  0  0
  160.7180  210.2360  151.5100 C   0  0  2  0  0  3  0  0  0  0  0  0
  159.6220  209.8890  153.6010 O   0  0  0  0  0  0  0  0  0  0  0  0
  161.6720  208.1840  150.4700 C   0  0  1  0  0  3  0  0  0  0  0  0
  160.9790  211.6720  151.8410 C   0  0  0  0  0  3  0  0  0  0  0  0
  160.0420  212.5990  151.6500 C   0  0  0  0  0  2  0  0  0  0  0  0
  161.9630  208.5570  156.2820 C   0  0  0  0  0  1  0  0  0  0  0  0
  160.7610  208.1220  155.4620 C   0  0  2  0  0  3  0  0  0  0  0  0
  158.6740  206.7850  155.8110 O   0  0  0  0  0  0  0  0  0  0  0  0
  160.4390  206.5960  157.2600 O   0  0  0  0  0  1  0  0  0  0  0  0
  159.9560  207.1280  156.2270 C   0  0  0  0  0  0  0  0  0  0  0  0
  160.9230  206.0570  151.5560 C   0  0  0  0  0  2  0  0  0  0  0  0
  162.3500  202.5900  151.3940 O   0  0  0  0  0  1  0  0  0  0  0  0
  160.7820  203.8780  152.7530 C   0  0  0  0  0  2  0  0  0  0  0  0
  161.7280  204.8850  152.0970 C   0  0  1  0  0  3  0  0  0  0  0  0
  160.4670  203.6050  150.3390 O   0  0  0  0  0  1  0  0  0  0  0  0
  161.3750  203.5860  151.4000 C   0  0  0  0  0  0  0  0  0  0  0  0
  162.7090  207.6870  149.5800 N   0  0  0  0  0  2  0  0  0  0  0  0
  160.9320  206.9110  148.2880 O   0  0  0  0  0  0  0  0  0  0  0  0
  162.0590  206.2330  147.7930 C   0  0  2  0  0  3  0  0  0  0  0  0
  162.1350  207.6370  148.2460 C   0  0  2  0  0  3  0  0  0  0  0  0
  160.8130  205.7270  145.6980 C   0  0  0  0  0  3  0  0  0  0  0  0
  161.9930  206.1910  146.3450 N   0  0  0  0  0  2  0  0  0  0  0  0
  160.7590  205.6900  144.4430 O   0  0  0  0  0  0  0  0  0  0  0  0
  1 16  1  6  0  0  0
  1  3  1  0  0  0  0
  2  3  1  0  0  0  0
  2  7  2  0  0  0  0
  3  5  2  0  0  0  0
  4  6  1  0  0  0  0
  5 12  1  0  0  0  0
  6  9  1  1  0  0  0
  6  2  1  0  0  0  0
  8 22  1  6  0  0  0
  8  4  1  0  0  0  0
  8  1  1  0  0  0  0
 10  9  2  0  0  0  0
 12 15  1  0  0  0  0
 12 11  1  1  0  0  0
 13 15  2  0  0  0  0
 15 14  1  0  0  0  0
 17 21  1  0  0  0  0
 19 16  1  6  0  0  0
 19 18  1  0  0  0  0
 20 21  1  0  0  0  0
 21 19  1  0  0  0  0
 21 18  1  0  0  0  0
 24 27  1  6  0  0  0
 24 25  1  0  0  0  0
 24 23  1  0  0  0  0
 25 23  1  0  0  0  0
 25 22  1  1  0  0  0
 26 27  1  0  0  0  0
 28 26  2  0  0  0  0
M  END
>  <MODEL>
9

>  <REMARK>
 VINA RESULT:      -6.4      2.305      8.112
  Name = 
  8 active torsions:
  status: ('A' for Active; 'I' for Inactive)
    1  A    between atoms: C_1  and  C_19
    2  A    between atoms: C_2  and  C_3
    3  A    between atoms: C_2  and  C_17
    4  A    between atoms: C_11  and  N_24
    5  A    between atoms: C_14  and  C_16
    6  A    between atoms: C_16  and  C_20
    7  A    between atoms: N_22  and  C_26
    8  A    between atoms: N_22  and  C_27
                            x       y       z     vdW  Elec       q    Type
                         _______ _______ _______ _____ _____    ______ ____

>  <TORSDO>
F 8

$$$$
