=
 OpenBabel11042420023D

 42 46  0  0  1  0  0  0  0  0999 V2000
  160.0940  211.6600  155.3590 C   0  0  0  0  0  0  0  0  0  0  0  0
  161.3580  211.1290  155.6330 C   0  0  0  0  0  3  0  0  0  0  0  0
  159.3490  211.1740  154.2660 C   0  0  0  0  0  0  0  0  0  0  0  0
  159.5750  212.6470  156.1340 N   0  0  0  0  0  0  0  0  0  0  0  0
  157.6100  212.6990  154.7800 C   0  0  0  0  0  0  0  0  0  0  0  0
  161.1420  209.6410  153.7210 C   0  0  0  0  0  0  0  0  0  0  0  0
  158.1210  211.6970  154.0110 N   0  0  0  0  0  0  0  0  0  0  0  0
  159.8720  210.1650  153.4550 C   0  0  0  0  0  3  0  0  0  0  0  0
  161.8800  210.1200  154.8170 C   0  0  0  0  0  3  0  0  0  0  0  0
  158.3500  213.1740  155.8700 C   0  0  0  0  0  3  0  0  0  0  0  0
  162.2970  208.3480  149.0500 N   0  0  0  0  0  2  0  0  0  0  0  0
  160.8880  207.2560  152.9260 C   0  0  2  0  0  3  0  0  0  0  0  0
  160.8630  206.7420  154.3590 C   0  0  0  0  0  1  0  0  0  0  0  0
  160.7630  205.0800  151.9460 F   0  0  0  0  0  0  0  0  0  0  0  0
  161.5560  206.2070  152.0420 C   0  0  1  0  0  3  0  0  0  0  0  0
  161.7170  209.0620  151.3890 C   0  0  0  0  0  2  0  0  0  0  0  0
  162.0020  207.9700  150.3960 C   0  0  0  0  0  0  0  0  0  0  0  0
  161.6830  208.5620  152.8300 C   0  0  1  0  0  3  0  0  0  0  0  0
  161.8460  206.7130  150.7000 N   0  0  0  0  0  0  0  0  0  0  0  0
  162.6270  207.3770  148.0170 C   0  0  0  0  0  2  0  0  0  0  0  0
  161.4540  206.8660  147.4520 O   0  0  0  0  0  0  0  0  0  0  0  0
  160.6100  205.9450  145.5500 C   0  0  0  0  0  2  0  0  0  0  0  0
  161.1920  203.5390  145.5900 C   0  0  0  0  0  2  0  0  0  0  0  0
  162.7450  205.1990  146.5450 C   0  0  0  0  0  2  0  0  0  0  0  0
  162.0570  203.9060  146.7220 N   0  0  0  0  0  0  0  0  0  0  0  0
  161.8350  206.3300  146.2660 N   0  0  0  0  0  0  0  0  0  0  0  0
  160.8290  204.7180  144.6860 C   0  0  0  0  0  2  0  0  0  0  0  0
  161.2520  203.9350  147.9350 C   0  0  0  0  0  1  0  0  0  0  0  0
  156.2530  213.2670  154.5010 C   0  0  2  0  0  3  0  0  0  0  0  0
  155.3910  212.2210  153.8250 C   0  0  0  0  0  1  0  0  0  0  0  0
  156.3370  214.4450  153.6460 N   0  0  0  0  0  2  0  0  0  0  0  0
  156.6970  214.3540  152.2930 C   0  0  0  0  0  0  0  0  0  0  0  0
  156.9960  214.2580  151.1290 C   0  0  0  0  0  0  0  0  0  0  0  0
  160.0040  212.8590  147.6280 C   0  0  0  0  0  2  0  0  0  0  0  0
  161.1710  212.9950  148.5130 N   0  0  0  0  0  0  0  0  0  0  0  0
  161.8960  214.2240  148.2080 C   0  0  0  0  0  1  0  0  0  0  0  0
  158.9490  213.9460  147.8620 C   0  0  0  0  0  2  0  0  0  0  0  0
  160.7710  212.9770  149.9280 C   0  0  0  0  0  2  0  0  0  0  0  0
  156.1940  214.1130  148.7590 C   0  0  0  0  0  1  0  0  0  0  0  0
  158.6010  214.0120  149.3180 C   0  0  0  0  0  0  0  0  0  0  0  0
  159.7530  214.0690  150.2750 C   0  0  0  0  0  2  0  0  0  0  0  0
  157.3260  214.1200  149.7320 C   0  0  0  0  0  0  0  0  0  0  0  0
  1  2  1  0  0  0  0
  1  4  1  0  0  0  0
  3  1  2  0  0  0  0
  5 10  1  0  0  0  0
  6  9  1  0  0  0  0
  7  3  1  0  0  0  0
  7  5  2  0  0  0  0
  8  6  2  0  0  0  0
  8  3  1  0  0  0  0
  9  2  2  0  0  0  0
 10  4  2  0  0  0  0
 11 17  1  0  0  0  0
 12 13  1  1  0  0  0
 15 14  1  6  0  0  0
 15 12  1  0  0  0  0
 16 18  1  0  0  0  0
 17 19  2  0  0  0  0
 17 16  1  0  0  0  0
 18 12  1  0  0  0  0
 18  6  1  1  0  0  0
 19 15  1  0  0  0  0
 20 11  1  0  0  0  0
 21 20  1  0  0  0  0
 22 26  1  0  0  0  0
 23 25  1  0  0  0  0
 24 25  1  0  0  0  0
 25 28  1  0  0  0  0
 26 24  1  0  0  0  0
 26 21  1  0  0  0  0
 27 22  1  0  0  0  0
 27 23  1  0  0  0  0
 29 30  1  6  0  0  0
 29  5  1  0  0  0  0
 31 29  1  0  0  0  0
 32 31  1  0  0  0  0
 33 32  3  0  0  0  0
 34 37  1  0  0  0  0
 34 35  1  0  0  0  0
 35 38  1  0  0  0  0
 36 35  1  0  0  0  0
 37 40  1  0  0  0  0
 38 41  1  0  0  0  0
 39 42  1  0  0  0  0
 40 42  2  0  0  0  0
 40 41  1  0  0  0  0
 42 33  1  0  0  0  0
M  END
>  <MODEL>
1

>  <REMARK>
 VINA RESULT:      -8.6      0.000      0.000
  Name = 
  8 active torsions:
  status: ('A' for Active; 'I' for Inactive)
    1  A    between atoms: N_4  and  C_5
    2  A    between atoms: N_4  and  C_21
    3  A    between atoms: C_5  and  C_22
    4  A    between atoms: C_6  and  N_9
    5  A    between atoms: C_6  and  O_18
    6  A    between atoms: O_18  and  N_23
    7  A    between atoms: C_25  and  C_37
    8  A    between atoms: C_41  and  C_42
                            x       y       z     vdW  Elec       q    Type
                         _______ _______ _______ _____ _____    ______ ____

>  <TORSDO>
F 8

$$$$
=
 OpenBabel11042420023D

 42 46  0  0  1  0  0  0  0  0999 V2000
  160.8330  210.6690  155.1570 C   0  0  0  0  0  0  0  0  0  0  0  0
  161.6600  209.5790  155.4470 C   0  0  0  0  0  3  0  0  0  0  0  0
  160.2580  210.7940  153.8760 C   0  0  0  0  0  0  0  0  0  0  0  0
  160.5780  211.6150  156.0970 N   0  0  0  0  0  0  0  0  0  0  0  0
  159.2170  212.8130  154.5470 C   0  0  0  0  0  0  0  0  0  0  0  0
  161.3540  208.7490  153.1820 C   0  0  0  0  0  0  0  0  0  0  0  0
  159.4550  211.8560  153.6070 N   0  0  0  0  0  0  0  0  0  0  0  0
  160.5170  209.8340  152.8960 C   0  0  0  0  0  3  0  0  0  0  0  0
  161.9180  208.6210  154.4620 C   0  0  0  0  0  3  0  0  0  0  0  0
  159.7810  212.6810  155.8210 C   0  0  0  0  0  3  0  0  0  0  0  0
  161.1220  207.7550  148.3050 N   0  0  0  0  0  2  0  0  0  0  0  0
  160.8900  206.4090  152.3480 C   0  0  2  0  0  3  0  0  0  0  0  0
  161.2790  205.8130  153.6930 C   0  0  0  0  0  1  0  0  0  0  0  0
  160.4960  204.2920  151.3120 F   0  0  0  0  0  0  0  0  0  0  0  0
  161.2800  205.4280  151.2460 C   0  0  1  0  0  3  0  0  0  0  0  0
  161.2360  208.3190  150.7510 C   0  0  0  0  0  2  0  0  0  0  0  0
  161.2270  207.2920  149.6530 C   0  0  0  0  0  0  0  0  0  0  0  0
  161.6190  207.7360  152.1080 C   0  0  1  0  0  3  0  0  0  0  0  0
  161.1690  206.0170  149.9110 N   0  0  0  0  0  0  0  0  0  0  0  0
  161.1440  206.8520  147.1630 C   0  0  0  0  0  2  0  0  0  0  0  0
  162.4230  206.3060  147.0140 O   0  0  0  0  0  0  0  0  0  0  0  0
  161.0360  205.7320  145.3030 C   0  0  0  0  0  2  0  0  0  0  0  0
  160.9330  203.2590  145.2530 C   0  0  0  0  0  2  0  0  0  0  0  0
  163.0260  204.3930  145.8980 C   0  0  0  0  0  2  0  0  0  0  0  0
  162.0520  203.3290  146.2060 N   0  0  0  0  0  0  0  0  0  0  0  0
  162.4260  205.7390  145.7810 N   0  0  0  0  0  0  0  0  0  0  0  0
  160.7530  204.5300  144.4220 C   0  0  0  0  0  2  0  0  0  0  0  0
  161.5140  203.5210  147.5450 C   0  0  0  0  0  1  0  0  0  0  0  0
  158.3230  213.9780  154.2480 C   0  0  2  0  0  3  0  0  0  0  0  0
  157.6570  214.4510  155.5240 C   0  0  0  0  0  1  0  0  0  0  0  0
  157.2990  213.6240  153.2740 N   0  0  0  0  0  2  0  0  0  0  0  0
  157.5460  213.6650  151.8930 C   0  0  0  0  0  0  0  0  0  0  0  0
  157.7430  213.7150  150.7050 C   0  0  0  0  0  0  0  0  0  0  0  0
  160.4180  212.8320  146.7890 C   0  0  0  0  0  2  0  0  0  0  0  0
  161.6510  212.7740  147.5880 N   0  0  0  0  0  0  0  0  0  0  0  0
  162.4110  214.0110  147.4370 C   0  0  0  0  0  1  0  0  0  0  0  0
  159.4360  213.8990  147.2860 C   0  0  0  0  0  2  0  0  0  0  0  0
  161.3550  212.5280  149.0080 C   0  0  0  0  0  2  0  0  0  0  0  0
  156.7650  214.0060  148.4160 C   0  0  0  0  0  1  0  0  0  0  0  0
  159.1980  213.7270  148.7550 C   0  0  0  0  0  0  0  0  0  0  0  0
  160.4190  213.5800  149.6130 C   0  0  0  0  0  2  0  0  0  0  0  0
  157.9640  213.8070  149.2830 C   0  0  0  0  0  0  0  0  0  0  0  0
  1  2  1  0  0  0  0
  1  4  1  0  0  0  0
  3  1  2  0  0  0  0
  5 10  1  0  0  0  0
  6  9  1  0  0  0  0
  7  3  1  0  0  0  0
  7  5  2  0  0  0  0
  8  6  2  0  0  0  0
  8  3  1  0  0  0  0
  9  2  2  0  0  0  0
 10  4  2  0  0  0  0
 11 17  1  0  0  0  0
 12 13  1  1  0  0  0
 15 14  1  6  0  0  0
 15 12  1  0  0  0  0
 16 18  1  0  0  0  0
 17 19  2  0  0  0  0
 17 16  1  0  0  0  0
 18 12  1  0  0  0  0
 18  6  1  1  0  0  0
 19 15  1  0  0  0  0
 20 11  1  0  0  0  0
 21 20  1  0  0  0  0
 22 26  1  0  0  0  0
 23 25  1  0  0  0  0
 24 25  1  0  0  0  0
 25 28  1  0  0  0  0
 26 24  1  0  0  0  0
 26 21  1  0  0  0  0
 27 23  1  0  0  0  0
 27 22  1  0  0  0  0
 29  5  1  0  0  0  0
 29 30  1  1  0  0  0
 31 29  1  0  0  0  0
 32 31  1  0  0  0  0
 33 32  3  0  0  0  0
 34 37  1  0  0  0  0
 34 35  1  0  0  0  0
 35 38  1  0  0  0  0
 36 35  1  0  0  0  0
 37 40  1  0  0  0  0
 38 41  1  0  0  0  0
 39 42  1  0  0  0  0
 40 42  2  0  0  0  0
 40 41  1  0  0  0  0
 42 33  1  0  0  0  0
M  END
>  <MODEL>
2

>  <REMARK>
 VINA RESULT:      -8.0      1.185      1.288
  Name = 
  8 active torsions:
  status: ('A' for Active; 'I' for Inactive)
    1  A    between atoms: N_4  and  C_5
    2  A    between atoms: N_4  and  C_21
    3  A    between atoms: C_5  and  C_22
    4  A    between atoms: C_6  and  N_9
    5  A    between atoms: C_6  and  O_18
    6  A    between atoms: O_18  and  N_23
    7  A    between atoms: C_25  and  C_37
    8  A    between atoms: C_41  and  C_42
                            x       y       z     vdW  Elec       q    Type
                         _______ _______ _______ _____ _____    ______ ____

>  <TORSDO>
F 8

$$$$
=
 OpenBabel11042420023D

 42 46  0  0  1  0  0  0  0  0999 V2000
  159.6400  212.0670  154.6120 C   0  0  0  0  0  0  0  0  0  0  0  0
  160.6710  211.3630  155.2420 C   0  0  0  0  0  3  0  0  0  0  0  0
  159.2100  211.6840  153.3260 C   0  0  0  0  0  0  0  0  0  0  0  0
  159.0480  213.1240  155.2260 N   0  0  0  0  0  0  0  0  0  0  0  0
  157.6250  213.4450  153.3380 C   0  0  0  0  0  0  0  0  0  0  0  0
  160.8540  209.9060  153.3030 C   0  0  0  0  0  0  0  0  0  0  0  0
  158.2050  212.3740  152.7260 N   0  0  0  0  0  0  0  0  0  0  0  0
  159.8130  210.6040  152.6780 C   0  0  0  0  0  3  0  0  0  0  0  0
  161.2760  210.2840  154.5890 C   0  0  0  0  0  3  0  0  0  0  0  0
  158.0500  213.8180  154.6180 C   0  0  0  0  0  3  0  0  0  0  0  0
  162.1830  208.0430  148.8770 N   0  0  0  0  0  2  0  0  0  0  0  0
  160.7930  207.4190  152.8620 C   0  0  2  0  0  3  0  0  0  0  0  0
  160.7820  207.1180  154.3540 C   0  0  0  0  0  1  0  0  0  0  0  0
  160.8490  205.1200  152.2090 F   0  0  0  0  0  0  0  0  0  0  0  0
  161.5540  206.3080  152.1450 C   0  0  1  0  0  3  0  0  0  0  0  0
  161.5100  209.0420  151.0830 C   0  0  0  0  0  2  0  0  0  0  0  0
  161.8940  207.8420  150.2620 C   0  0  0  0  0  0  0  0  0  0  0  0
  161.4890  208.7550  152.5820 C   0  0  1  0  0  3  0  0  0  0  0  0
  161.8270  206.6350  150.7450 N   0  0  0  0  0  0  0  0  0  0  0  0
  162.6020  206.9610  147.9980 C   0  0  0  0  0  2  0  0  0  0  0  0
  161.7790  206.9190  146.8680 O   0  0  0  0  0  0  0  0  0  0  0  0
  161.8750  204.6940  147.3370 C   0  0  0  0  0  2  0  0  0  0  0  0
  161.2200  203.4910  145.2750 C   0  0  0  0  0  2  0  0  0  0  0  0
  160.1730  205.6550  145.8250 C   0  0  0  0  0  2  0  0  0  0  0  0
  160.8140  204.8200  144.7910 N   0  0  0  0  0  0  0  0  0  0  0  0
  160.9890  205.8300  147.0440 N   0  0  0  0  0  0  0  0  0  0  0  0
  161.3120  203.3920  146.7980 C   0  0  0  0  0  2  0  0  0  0  0  0
  161.9850  205.5010  144.2580 C   0  0  0  0  0  1  0  0  0  0  0  0
  156.5130  214.1980  152.6760 C   0  0  2  0  0  3  0  0  0  0  0  0
  155.2040  213.8950  153.3750 C   0  0  0  0  0  1  0  0  0  0  0  0
  156.3980  213.8440  151.2670 N   0  0  0  0  0  2  0  0  0  0  0  0
  157.4860  213.9500  150.3860 C   0  0  0  0  0  0  0  0  0  0  0  0
  158.4240  214.0200  149.6320 C   0  0  0  0  0  0  0  0  0  0  0  0
  160.2310  214.4500  145.1810 C   0  0  0  0  0  2  0  0  0  0  0  0
  158.9920  213.9370  144.5780 N   0  0  0  0  0  0  0  0  0  0  0  0
  159.1660  212.5460  144.1710 C   0  0  0  0  0  1  0  0  0  0  0  0
  160.5880  213.7500  146.4970 C   0  0  0  0  0  2  0  0  0  0  0  0
  157.8580  214.0570  145.5080 C   0  0  0  0  0  2  0  0  0  0  0  0
  160.8700  214.4510  149.2990 C   0  0  0  0  0  1  0  0  0  0  0  0
  159.4100  213.7740  147.4220 C   0  0  0  0  0  0  0  0  0  0  0  0
  158.0990  213.3390  146.8400 C   0  0  0  0  0  2  0  0  0  0  0  0
  159.5450  214.0690  148.7270 C   0  0  0  0  0  0  0  0  0  0  0  0
  1  4  1  0  0  0  0
  1  2  1  0  0  0  0
  3  1  2  0  0  0  0
  5 10  1  0  0  0  0
  6  9  1  0  0  0  0
  7  3  1  0  0  0  0
  7  5  2  0  0  0  0
  8  6  2  0  0  0  0
  8  3  1  0  0  0  0
  9  2  2  0  0  0  0
 10  4  2  0  0  0  0
 11 17  1  0  0  0  0
 12 13  1  1  0  0  0
 15 14  1  6  0  0  0
 15 12  1  0  0  0  0
 16 18  1  0  0  0  0
 17 19  2  0  0  0  0
 17 16  1  0  0  0  0
 18 12  1  0  0  0  0
 18  6  1  1  0  0  0
 19 15  1  0  0  0  0
 20 11  1  0  0  0  0
 21 26  1  0  0  0  0
 21 20  1  0  0  0  0
 23 27  1  0  0  0  0
 24 26  1  0  0  0  0
 25 23  1  0  0  0  0
 25 24  1  0  0  0  0
 26 22  1  0  0  0  0
 27 22  1  0  0  0  0
 28 25  1  0  0  0  0
 29  5  1  0  0  0  0
 29 30  1  1  0  0  0
 31 29  1  0  0  0  0
 32 31  1  0  0  0  0
 33 32  3  0  0  0  0
 34 37  1  0  0  0  0
 35 34  1  0  0  0  0
 35 38  1  0  0  0  0
 36 35  1  0  0  0  0
 37 40  1  0  0  0  0
 38 41  1  0  0  0  0
 40 42  2  0  0  0  0
 41 40  1  0  0  0  0
 42 39  1  0  0  0  0
 42 33  1  0  0  0  0
M  END
>  <MODEL>
3

>  <REMARK>
 VINA RESULT:      -7.7      1.486      2.278
  Name = 
  8 active torsions:
  status: ('A' for Active; 'I' for Inactive)
    1  A    between atoms: N_4  and  C_5
    2  A    between atoms: N_4  and  C_21
    3  A    between atoms: C_5  and  C_22
    4  A    between atoms: C_6  and  N_9
    5  A    between atoms: C_6  and  O_18
    6  A    between atoms: O_18  and  N_23
    7  A    between atoms: C_25  and  C_37
    8  A    between atoms: C_41  and  C_42
                            x       y       z     vdW  Elec       q    Type
                         _______ _______ _______ _____ _____    ______ ____

>  <TORSDO>
F 8

$$$$
=
 OpenBabel11042420023D

 42 46  0  0  1  0  0  0  0  0999 V2000
  159.3770  213.2090  151.2270 C   0  0  0  0  0  0  0  0  0  0  0  0
  158.8580  214.2680  150.4750 C   0  0  0  0  0  3  0  0  0  0  0  0
  160.3230  212.3360  150.6530 C   0  0  0  0  0  0  0  0  0  0  0  0
  158.9750  213.0070  152.5080 N   0  0  0  0  0  0  0  0  0  0  0  0
  160.4020  211.1020  152.6740 C   0  0  0  0  0  0  0  0  0  0  0  0
  160.2130  213.5780  148.5770 C   0  0  0  0  0  0  0  0  0  0  0  0
  160.8210  211.3120  151.3950 N   0  0  0  0  0  0  0  0  0  0  0  0
  160.7400  212.5250  149.3340 C   0  0  0  0  0  3  0  0  0  0  0  0
  159.2770  214.4530  149.1540 C   0  0  0  0  0  3  0  0  0  0  0  0
  159.4680  211.9760  153.2430 C   0  0  0  0  0  3  0  0  0  0  0  0
  159.3330  212.5040  143.7920 N   0  0  0  0  0  2  0  0  0  0  0  0
  162.1120  213.2710  146.9380 C   0  0  2  0  0  3  0  0  0  0  0  0
  163.0770  213.9990  147.8630 C   0  0  0  0  0  1  0  0  0  0  0  0
  163.7200  212.9620  145.1970 F   0  0  0  0  0  0  0  0  0  0  0  0
  162.5080  213.5580  145.4930 C   0  0  1  0  0  3  0  0  0  0  0  0
  159.7160  213.0310  146.2190 C   0  0  0  0  0  2  0  0  0  0  0  0
  160.2350  212.9390  144.8110 C   0  0  0  0  0  0  0  0  0  0  0  0
  160.6750  213.7540  147.1610 C   0  0  1  0  0  3  0  0  0  0  0  0
  161.4970  213.1040  144.5370 N   0  0  0  0  0  0  0  0  0  0  0  0
  159.7180  212.4160  142.3900 C   0  0  0  0  0  2  0  0  0  0  0  0
  160.4530  211.2470  142.1710 O   0  0  0  0  0  0  0  0  0  0  0  0
  161.1560  212.9320  140.8130 C   0  0  0  0  0  2  0  0  0  0  0  0
  161.1490  212.0500  138.5000 C   0  0  0  0  0  2  0  0  0  0  0  0
  161.7230  210.5660  140.3840 C   0  0  0  0  0  2  0  0  0  0  0  0
  160.9430  210.7430  139.1440 N   0  0  0  0  0  0  0  0  0  0  0  0
  161.4970  211.6250  141.3910 N   0  0  0  0  0  0  0  0  0  0  0  0
  161.7510  213.1050  139.4280 C   0  0  0  0  0  2  0  0  0  0  0  0
  159.5240  210.5780  139.4230 C   0  0  0  0  0  1  0  0  0  0  0  0
  160.9600  209.9770  153.4900 C   0  0  2  0  0  3  0  0  0  0  0  0
  161.5660  210.5240  154.7660 C   0  0  0  0  0  1  0  0  0  0  0  0
  161.9780  209.2410  152.7520 N   0  0  0  0  0  2  0  0  0  0  0  0
  161.6780  208.0590  152.0570 C   0  0  0  0  0  0  0  0  0  0  0  0
  161.4410  207.0410  151.4550 C   0  0  0  0  0  0  0  0  0  0  0  0
  161.8070  204.3330  147.4820 C   0  0  0  0  0  2  0  0  0  0  0  0
  161.9040  205.5230  146.6230 N   0  0  0  0  0  0  0  0  0  0  0  0
  160.6310  205.7690  145.9530 C   0  0  0  0  0  1  0  0  0  0  0  0
  160.8350  204.5200  148.6520 C   0  0  0  0  0  2  0  0  0  0  0  0
  162.3090  206.7060  147.3970 C   0  0  0  0  0  2  0  0  0  0  0  0
  160.9460  204.5860  151.5510 C   0  0  0  0  0  1  0  0  0  0  0  0
  161.1700  205.7760  149.3950 C   0  0  0  0  0  0  0  0  0  0  0  0
  161.3620  207.0090  148.5640 C   0  0  0  0  0  2  0  0  0  0  0  0
  161.1910  205.8150  150.7390 C   0  0  0  0  0  0  0  0  0  0  0  0
  1  4  1  0  0  0  0
  2  1  1  0  0  0  0
  3  1  2  0  0  0  0
  3  7  1  0  0  0  0
  4 10  2  0  0  0  0
  5 10  1  0  0  0  0
  5 29  1  0  0  0  0
  6  9  1  0  0  0  0
  6  8  2  0  0  0  0
  7  5  2  0  0  0  0
  8  3  1  0  0  0  0
  9  2  2  0  0  0  0
 11 17  1  0  0  0  0
 12 18  1  0  0  0  0
 12 13  1  1  0  0  0
 15 14  1  6  0  0  0
 15 12  1  0  0  0  0
 16 18  1  0  0  0  0
 17 16  1  0  0  0  0
 18  6  1  1  0  0  0
 19 17  2  0  0  0  0
 19 15  1  0  0  0  0
 20 11  1  0  0  0  0
 21 20  1  0  0  0  0
 22 26  1  0  0  0  0
 23 25  1  0  0  0  0
 23 27  1  0  0  0  0
 24 26  1  0  0  0  0
 25 28  1  0  0  0  0
 25 24  1  0  0  0  0
 26 21  1  0  0  0  0
 27 22  1  0  0  0  0
 29 30  1  1  0  0  0
 31 29  1  0  0  0  0
 32 31  1  0  0  0  0
 33 32  3  0  0  0  0
 34 37  1  0  0  0  0
 35 38  1  0  0  0  0
 35 34  1  0  0  0  0
 36 35  1  0  0  0  0
 37 40  1  0  0  0  0
 38 41  1  0  0  0  0
 40 42  2  0  0  0  0
 41 40  1  0  0  0  0
 42 33  1  0  0  0  0
 42 39  1  0  0  0  0
M  END
>  <MODEL>
4

>  <REMARK>
 VINA RESULT:      -7.4      4.223      7.950
  Name = 
  8 active torsions:
  status: ('A' for Active; 'I' for Inactive)
    1  A    between atoms: N_4  and  C_5
    2  A    between atoms: N_4  and  C_21
    3  A    between atoms: C_5  and  C_22
    4  A    between atoms: C_6  and  N_9
    5  A    between atoms: C_6  and  O_18
    6  A    between atoms: O_18  and  N_23
    7  A    between atoms: C_25  and  C_37
    8  A    between atoms: C_41  and  C_42
                            x       y       z     vdW  Elec       q    Type
                         _______ _______ _______ _____ _____    ______ ____

>  <TORSDO>
F 8

$$$$
=
 OpenBabel11042420023D

 42 46  0  0  1  0  0  0  0  0999 V2000
  159.8320  213.3760  151.1880 C   0  0  0  0  0  0  0  0  0  0  0  0
  159.5650  214.4530  150.3360 C   0  0  0  0  0  3  0  0  0  0  0  0
  160.3270  212.1670  150.6590 C   0  0  0  0  0  0  0  0  0  0  0  0
  159.6160  213.4800  152.5240 N   0  0  0  0  0  0  0  0  0  0  0  0
  160.3490  211.2310  152.8350 C   0  0  0  0  0  0  0  0  0  0  0  0
  160.2680  213.1150  148.4310 C   0  0  0  0  0  0  0  0  0  0  0  0
  160.5840  211.1290  151.4960 N   0  0  0  0  0  0  0  0  0  0  0  0
  160.5470  212.0420  149.2860 C   0  0  0  0  0  3  0  0  0  0  0  0
  159.7840  214.3230  148.9610 C   0  0  0  0  0  3  0  0  0  0  0  0
  159.8660  212.4360  153.3580 C   0  0  0  0  0  3  0  0  0  0  0  0
  163.1630  214.3420  144.5660 N   0  0  0  0  0  2  0  0  0  0  0  0
  159.3050  213.3720  146.1090 C   0  0  2  0  0  3  0  0  0  0  0  0
  158.0650  212.5790  146.4950 C   0  0  0  0  0  1  0  0  0  0  0  0
  158.6470  213.6480  143.8280 F   0  0  0  0  0  0  0  0  0  0  0  0
  159.6220  213.1020  144.6410 C   0  0  1  0  0  3  0  0  0  0  0  0
  161.7510  213.7400  146.5560 C   0  0  0  0  0  2  0  0  0  0  0  0
  161.9210  213.8410  145.0650 C   0  0  0  0  0  0  0  0  0  0  0  0
  160.5080  212.9510  146.9600 C   0  0  1  0  0  3  0  0  0  0  0  0
  160.9310  213.6240  144.2480 N   0  0  0  0  0  0  0  0  0  0  0  0
  163.4520  214.4440  143.1430 C   0  0  0  0  0  2  0  0  0  0  0  0
  162.9430  213.3280  142.4730 O   0  0  0  0  0  0  0  0  0  0  0  0
  161.5890  214.4530  141.0310 C   0  0  0  0  0  2  0  0  0  0  0  0
  160.6230  212.7770  139.4870 C   0  0  0  0  0  2  0  0  0  0  0  0
  162.9200  212.4900  140.3360 C   0  0  0  0  0  2  0  0  0  0  0  0
  161.6100  211.8610  140.0790 N   0  0  0  0  0  0  0  0  0  0  0  0
  162.8470  213.7060  141.1730 N   0  0  0  0  0  0  0  0  0  0  0  0
  160.9730  214.2550  139.6580 C   0  0  0  0  0  2  0  0  0  0  0  0
  161.0660  211.3250  141.3190 C   0  0  0  0  0  1  0  0  0  0  0  0
  160.6430  210.0870  153.7560 C   0  0  2  0  0  3  0  0  0  0  0  0
  160.9320  210.6120  155.1470 C   0  0  0  0  0  1  0  0  0  0  0  0
  161.7840  209.3100  153.2880 N   0  0  0  0  0  2  0  0  0  0  0  0
  161.6250  208.1680  152.4890 C   0  0  0  0  0  0  0  0  0  0  0  0
  161.4820  207.1760  151.8180 C   0  0  0  0  0  0  0  0  0  0  0  0
  161.8470  204.7340  147.6760 C   0  0  0  0  0  2  0  0  0  0  0  0
  161.8090  205.9750  146.8860 N   0  0  0  0  0  0  0  0  0  0  0  0
  160.4880  206.1570  146.2930 C   0  0  0  0  0  1  0  0  0  0  0  0
  160.9260  204.7770  148.8990 C   0  0  0  0  0  2  0  0  0  0  0  0
  162.1620  207.1410  147.7110 C   0  0  0  0  0  2  0  0  0  0  0  0
  161.1810  204.6880  151.7890 C   0  0  0  0  0  1  0  0  0  0  0  0
  161.2020  206.0120  149.7010 C   0  0  0  0  0  0  0  0  0  0  0  0
  161.2560  207.3010  148.9370 C   0  0  0  0  0  2  0  0  0  0  0  0
  161.2890  205.9760  151.0420 C   0  0  0  0  0  0  0  0  0  0  0  0
  1  4  1  0  0  0  0
  2  1  1  0  0  0  0
  3  1  2  0  0  0  0
  3  7  1  0  0  0  0
  4 10  2  0  0  0  0
  5 10  1  0  0  0  0
  5 29  1  0  0  0  0
  6  9  1  0  0  0  0
  6  8  2  0  0  0  0
  7  5  2  0  0  0  0
  8  3  1  0  0  0  0
  9  2  2  0  0  0  0
 11 17  1  0  0  0  0
 12 13  1  1  0  0  0
 12 18  1  0  0  0  0
 15 14  1  6  0  0  0
 15 12  1  0  0  0  0
 16 18  1  0  0  0  0
 17 16  1  0  0  0  0
 18  6  1  1  0  0  0
 19 15  1  0  0  0  0
 19 17  2  0  0  0  0
 20 11  1  0  0  0  0
 21 20  1  0  0  0  0
 22 26  1  0  0  0  0
 23 27  1  0  0  0  0
 23 25  1  0  0  0  0
 24 26  1  0  0  0  0
 25 24  1  0  0  0  0
 25 28  1  0  0  0  0
 26 21  1  0  0  0  0
 27 22  1  0  0  0  0
 29 30  1  1  0  0  0
 31 29  1  0  0  0  0
 32 31  1  0  0  0  0
 33 32  3  0  0  0  0
 34 37  1  0  0  0  0
 35 34  1  0  0  0  0
 35 38  1  0  0  0  0
 36 35  1  0  0  0  0
 37 40  1  0  0  0  0
 38 41  1  0  0  0  0
 40 42  2  0  0  0  0
 41 40  1  0  0  0  0
 42 39  1  0  0  0  0
 42 33  1  0  0  0  0
M  END
>  <MODEL>
5

>  <REMARK>
 VINA RESULT:      -6.2      4.328      8.099
  Name = 
  8 active torsions:
  status: ('A' for Active; 'I' for Inactive)
    1  A    between atoms: N_4  and  C_5
    2  A    between atoms: N_4  and  C_21
    3  A    between atoms: C_5  and  C_22
    4  A    between atoms: C_6  and  N_9
    5  A    between atoms: C_6  and  O_18
    6  A    between atoms: O_18  and  N_23
    7  A    between atoms: C_25  and  C_37
    8  A    between atoms: C_41  and  C_42
                            x       y       z     vdW  Elec       q    Type
                         _______ _______ _______ _____ _____    ______ ____

>  <TORSDO>
F 8

$$$$
=
 OpenBabel11042420023D

 42 46  0  0  1  0  0  0  0  0999 V2000
  160.7810  210.3280  154.9030 C   0  0  0  0  0  0  0  0  0  0  0  0
  161.5020  209.1350  155.0160 C   0  0  0  0  0  3  0  0  0  0  0  0
  160.0640  210.6070  153.7210 C   0  0  0  0  0  0  0  0  0  0  0  0
  160.7650  211.2270  155.9200 N   0  0  0  0  0  0  0  0  0  0  0  0
  159.3660  212.6760  154.6410 C   0  0  0  0  0  0  0  0  0  0  0  0
  160.8090  208.5080  152.7710 C   0  0  0  0  0  0  0  0  0  0  0  0
  159.3650  211.7680  153.6250 N   0  0  0  0  0  0  0  0  0  0  0  0
  160.0770  209.6960  152.6630 C   0  0  0  0  0  3  0  0  0  0  0  0
  161.5150  208.2270  153.9530 C   0  0  0  0  0  3  0  0  0  0  0  0
  160.0720  212.3920  155.8150 C   0  0  0  0  0  3  0  0  0  0  0  0
  160.8930  203.7220  151.3870 N   0  0  0  0  0  2  0  0  0  0  0  0
  161.9760  207.7830  150.6500 C   0  0  2  0  0  3  0  0  0  0  0  0
  161.9530  209.2050  150.1080 C   0  0  0  0  0  1  0  0  0  0  0  0
  162.9800  206.8520  148.6910 F   0  0  0  0  0  0  0  0  0  0  0  0
  161.8460  206.8110  149.4810 C   0  0  1  0  0  3  0  0  0  0  0  0
  160.8300  206.1180  152.1440 C   0  0  0  0  0  2  0  0  0  0  0  0
  161.0880  205.1010  151.0670 C   0  0  0  0  0  0  0  0  0  0  0  0
  160.8100  207.5500  151.6170 C   0  0  1  0  0  3  0  0  0  0  0  0
  161.6120  205.4360  149.9230 N   0  0  0  0  0  0  0  0  0  0  0  0
  161.0740  202.6570  150.4110 C   0  0  0  0  0  2  0  0  0  0  0  0
  160.1040  202.7600  149.4090 O   0  0  0  0  0  0  0  0  0  0  0  0
  161.3360  200.8970  148.9760 C   0  0  0  0  0  2  0  0  0  0  0  0
  161.5830  200.7470  146.5170 C   0  0  0  0  0  2  0  0  0  0  0  0
  159.5050  201.6450  147.4950 C   0  0  0  0  0  2  0  0  0  0  0  0
  160.5690  201.8130  146.4860 N   0  0  0  0  0  0  0  0  0  0  0  0
  160.0060  201.5150  148.8790 N   0  0  0  0  0  0  0  0  0  0  0  0
  161.5980  199.9490  147.8200 C   0  0  0  0  0  2  0  0  0  0  0  0
  161.2320  203.0950  146.6740 C   0  0  0  0  0  1  0  0  0  0  0  0
  158.5880  213.9510  154.5320 C   0  0  2  0  0  3  0  0  0  0  0  0
  158.0930  214.3650  155.9030 C   0  0  0  0  0  1  0  0  0  0  0  0
  157.4490  213.8010  153.6360 N   0  0  0  0  0  2  0  0  0  0  0  0
  157.6050  213.7540  152.2420 C   0  0  0  0  0  0  0  0  0  0  0  0
  157.7270  213.7300  151.0430 C   0  0  0  0  0  0  0  0  0  0  0  0
  160.2140  212.7080  147.0390 C   0  0  0  0  0  2  0  0  0  0  0  0
  161.4930  212.7630  147.7630 N   0  0  0  0  0  0  0  0  0  0  0  0
  162.1780  214.0220  147.4850 C   0  0  0  0  0  1  0  0  0  0  0  0
  159.2090  213.7590  147.5230 C   0  0  0  0  0  2  0  0  0  0  0  0
  161.2920  212.6020  149.2110 C   0  0  0  0  0  2  0  0  0  0  0  0
  156.6060  213.8160  148.8030 C   0  0  0  0  0  1  0  0  0  0  0  0
  159.0650  213.6770  149.0120 C   0  0  0  0  0  0  0  0  0  0  0  0
  160.3390  213.6470  149.8020 C   0  0  0  0  0  2  0  0  0  0  0  0
  157.8610  213.7340  149.6070 C   0  0  0  0  0  0  0  0  0  0  0  0
  1  2  1  0  0  0  0
  1  4  1  0  0  0  0
  3  1  2  0  0  0  0
  5 10  1  0  0  0  0
  6  9  1  0  0  0  0
  7  3  1  0  0  0  0
  7  5  2  0  0  0  0
  8  6  2  0  0  0  0
  8  3  1  0  0  0  0
  9  2  2  0  0  0  0
 10  4  2  0  0  0  0
 12 13  1  6  0  0  0
 12 18  1  0  0  0  0
 15 14  1  1  0  0  0
 15 19  1  0  0  0  0
 15 12  1  0  0  0  0
 17 11  1  0  0  0  0
 17 16  1  0  0  0  0
 18 16  1  0  0  0  0
 18  6  1  1  0  0  0
 19 17  2  0  0  0  0
 20 11  1  0  0  0  0
 21 20  1  0  0  0  0
 23 27  1  0  0  0  0
 24 26  1  0  0  0  0
 25 23  1  0  0  0  0
 25 28  1  0  0  0  0
 25 24  1  0  0  0  0
 26 22  1  0  0  0  0
 26 21  1  0  0  0  0
 27 22  1  0  0  0  0
 29  5  1  0  0  0  0
 29 30  1  1  0  0  0
 31 29  1  0  0  0  0
 32 31  1  0  0  0  0
 33 32  3  0  0  0  0
 34 37  1  0  0  0  0
 34 35  1  0  0  0  0
 35 38  1  0  0  0  0
 36 35  1  0  0  0  0
 37 40  1  0  0  0  0
 38 41  1  0  0  0  0
 39 42  1  0  0  0  0
 40 42  2  0  0  0  0
 40 41  1  0  0  0  0
 42 33  1  0  0  0  0
M  END
>  <MODEL>
6

>  <REMARK>
 VINA RESULT:      -6.2      1.967      2.963
  Name = 
  8 active torsions:
  status: ('A' for Active; 'I' for Inactive)
    1  A    between atoms: N_4  and  C_5
    2  A    between atoms: N_4  and  C_21
    3  A    between atoms: C_5  and  C_22
    4  A    between atoms: C_6  and  N_9
    5  A    between atoms: C_6  and  O_18
    6  A    between atoms: O_18  and  N_23
    7  A    between atoms: C_25  and  C_37
    8  A    between atoms: C_41  and  C_42
                            x       y       z     vdW  Elec       q    Type
                         _______ _______ _______ _____ _____    ______ ____

>  <TORSDO>
F 8

$$$$
=
 OpenBabel11042420023D

 42 46  0  0  1  0  0  0  0  0999 V2000
  161.0320  213.3960  149.0050 C   0  0  0  0  0  0  0  0  0  0  0  0
  160.4920  213.4970  150.2920 C   0  0  0  0  0  3  0  0  0  0  0  0
  161.7070  212.2220  148.6160 C   0  0  0  0  0  0  0  0  0  0  0  0
  160.9160  214.4220  148.1240 N   0  0  0  0  0  0  0  0  0  0  0  0
  162.1220  213.1740  146.4870 C   0  0  0  0  0  0  0  0  0  0  0  0
  161.3120  211.2660  150.8050 C   0  0  0  0  0  0  0  0  0  0  0  0
  162.2240  212.1350  147.3630 N   0  0  0  0  0  0  0  0  0  0  0  0
  161.8410  211.1610  149.5130 C   0  0  0  0  0  3  0  0  0  0  0  0
  160.6310  212.4330  151.1890 C   0  0  0  0  0  3  0  0  0  0  0  0
  161.4440  214.3350  146.8740 C   0  0  0  0  0  3  0  0  0  0  0  0
  161.3890  206.3070  151.2850 N   0  0  0  0  0  2  0  0  0  0  0  0
  160.4720  210.1450  152.9090 C   0  0  2  0  0  3  0  0  0  0  0  0
  160.5910  211.4440  153.6930 C   0  0  0  0  0  1  0  0  0  0  0  0
  159.7660  208.8540  154.7920 F   0  0  0  0  0  0  0  0  0  0  0  0
  160.7670  208.9780  153.8470 C   0  0  1  0  0  3  0  0  0  0  0  0
  161.3610  208.8010  150.9800 C   0  0  0  0  0  2  0  0  0  0  0  0
  161.2590  207.6000  151.8780 C   0  0  0  0  0  0  0  0  0  0  0  0
  161.4760  210.1130  151.7510 C   0  0  1  0  0  3  0  0  0  0  0  0
  160.9170  207.7110  153.1300 N   0  0  0  0  0  0  0  0  0  0  0  0
  161.3460  205.0780  152.0650 C   0  0  0  0  0  2  0  0  0  0  0  0
  161.9370  204.0360  151.3430 O   0  0  0  0  0  0  0  0  0  0  0  0
  161.5880  201.8340  150.8910 C   0  0  0  0  0  2  0  0  0  0  0  0
  160.6750  201.7010  148.5940 C   0  0  0  0  0  2  0  0  0  0  0  0
  160.0940  203.6100  150.0430 C   0  0  0  0  0  2  0  0  0  0  0  0
  160.5390  203.1620  148.7100 N   0  0  0  0  0  0  0  0  0  0  0  0
  160.9460  203.1300  151.1520 N   0  0  0  0  0  0  0  0  0  0  0  0
  160.7670  200.9830  149.9410 C   0  0  0  0  0  2  0  0  0  0  0  0
  161.8160  203.7780  148.3790 C   0  0  0  0  0  1  0  0  0  0  0  0
  162.6870  213.0710  145.1030 C   0  0  2  0  0  3  0  0  0  0  0  0
  163.0690  214.4490  144.6040 C   0  0  0  0  0  1  0  0  0  0  0  0
  161.7280  212.4740  144.1820 N   0  0  0  0  0  2  0  0  0  0  0  0
  161.9730  212.4020  142.8030 C   0  0  0  0  0  0  0  0  0  0  0  0
  162.1660  212.3290  141.6150 C   0  0  0  0  0  0  0  0  0  0  0  0
  160.5280  211.3160  137.1930 C   0  0  0  0  0  2  0  0  0  0  0  0
  159.5290  210.3770  137.7280 N   0  0  0  0  0  0  0  0  0  0  0  0
  159.9740  209.0010  137.5330 C   0  0  0  0  0  1  0  0  0  0  0  0
  161.8550  211.2730  137.9580 C   0  0  0  0  0  2  0  0  0  0  0  0
  159.2690  210.6310  139.1530 C   0  0  0  0  0  2  0  0  0  0  0  0
  163.4550  213.0590  139.5930 C   0  0  0  0  0  1  0  0  0  0  0  0
  161.6020  211.4300  139.4260 C   0  0  0  0  0  0  0  0  0  0  0  0
  160.5360  210.5560  140.0130 C   0  0  0  0  0  2  0  0  0  0  0  0
  162.3630  212.2340  140.1890 C   0  0  0  0  0  0  0  0  0  0  0  0
  1  2  2  0  0  0  0
  2  9  1  0  0  0  0
  3  1  1  0  0  0  0
  3  8  2  0  0  0  0
  4  1  1  0  0  0  0
  5 10  1  0  0  0  0
  5  7  2  0  0  0  0
  6  9  2  0  0  0  0
  7  3  1  0  0  0  0
  8  6  1  0  0  0  0
 10  4  2  0  0  0  0
 11 17  1  0  0  0  0
 11 20  1  0  0  0  0
 12 13  1  1  0  0  0
 12 15  1  0  0  0  0
 15 14  1  1  0  0  0
 16 18  1  0  0  0  0
 16 17  1  0  0  0  0
 17 19  2  0  0  0  0
 18  6  1  6  0  0  0
 18 12  1  0  0  0  0
 19 15  1  0  0  0  0
 21 20  1  0  0  0  0
 22 26  1  0  0  0  0
 23 25  1  0  0  0  0
 23 27  1  0  0  0  0
 24 26  1  0  0  0  0
 25 24  1  0  0  0  0
 26 21  1  0  0  0  0
 27 22  1  0  0  0  0
 28 25  1  0  0  0  0
 29 30  1  6  0  0  0
 29  5  1  0  0  0  0
 31 29  1  0  0  0  0
 32 31  1  0  0  0  0
 33 32  3  0  0  0  0
 34 35  1  0  0  0  0
 34 37  1  0  0  0  0
 35 38  1  0  0  0  0
 36 35  1  0  0  0  0
 37 40  1  0  0  0  0
 38 41  1  0  0  0  0
 39 42  1  0  0  0  0
 40 41  1  0  0  0  0
 40 42  2  0  0  0  0
 42 33  1  0  0  0  0
M  END
>  <MODEL>
7

>  <REMARK>
 VINA RESULT:      -5.7      4.722      7.771
  Name = 
  8 active torsions:
  status: ('A' for Active; 'I' for Inactive)
    1  A    between atoms: N_4  and  C_5
    2  A    between atoms: N_4  and  C_21
    3  A    between atoms: C_5  and  C_22
    4  A    between atoms: C_6  and  N_9
    5  A    between atoms: C_6  and  O_18
    6  A    between atoms: O_18  and  N_23
    7  A    between atoms: C_25  and  C_37
    8  A    between atoms: C_41  and  C_42
                            x       y       z     vdW  Elec       q    Type
                         _______ _______ _______ _____ _____    ______ ____

>  <TORSDO>
F 8

$$$$
=
 OpenBabel11042420023D

 42 46  0  0  1  0  0  0  0  0999 V2000
  161.0390  205.8220  151.1740 C   0  0  0  0  0  0  0  0  0  0  0  0
  161.0030  204.4480  150.9130 C   0  0  0  0  0  3  0  0  0  0  0  0
  161.2860  206.7310  150.1250 C   0  0  0  0  0  0  0  0  0  0  0  0
  160.8420  206.2930  152.4320 N   0  0  0  0  0  0  0  0  0  0  0  0
  161.1360  208.5310  151.6580 C   0  0  0  0  0  0  0  0  0  0  0  0
  161.4750  204.8860  148.5680 C   0  0  0  0  0  0  0  0  0  0  0  0
  161.3160  208.0620  150.3910 N   0  0  0  0  0  0  0  0  0  0  0  0
  161.4990  206.2610  148.8280 C   0  0  0  0  0  3  0  0  0  0  0  0
  161.2190  203.9820  149.6130 C   0  0  0  0  0  3  0  0  0  0  0  0
  160.8820  207.6260  152.6950 C   0  0  0  0  0  3  0  0  0  0  0  0
  161.5660  206.1430  143.7470 N   0  0  0  0  0  2  0  0  0  0  0  0
  160.8100  203.2330  146.7750 C   0  0  2  0  0  3  0  0  0  0  0  0
  161.0020  202.0640  147.7310 C   0  0  0  0  0  1  0  0  0  0  0  0
  160.2590  201.8550  144.9020 F   0  0  0  0  0  0  0  0  0  0  0  0
  161.1770  202.7790  145.3660 C   0  0  1  0  0  3  0  0  0  0  0  0
  161.5260  205.5710  146.1940 C   0  0  0  0  0  2  0  0  0  0  0  0
  161.4930  205.1340  144.7570 C   0  0  0  0  0  0  0  0  0  0  0  0
  161.7120  204.4090  147.1660 C   0  0  1  0  0  3  0  0  0  0  0  0
  161.2590  203.8960  144.4240 N   0  0  0  0  0  0  0  0  0  0  0  0
  161.5830  205.8310  142.3260 C   0  0  0  0  0  2  0  0  0  0  0  0
  162.0860  206.9190  141.6060 O   0  0  0  0  0  0  0  0  0  0  0  0
  162.6160  206.5020  139.4330 C   0  0  0  0  0  2  0  0  0  0  0  0
  162.3300  208.6280  138.1960 C   0  0  0  0  0  2  0  0  0  0  0  0
  160.8310  208.0840  140.0770 C   0  0  0  0  0  2  0  0  0  0  0  0
  161.6830  209.1010  139.4300 N   0  0  0  0  0  0  0  0  0  0  0  0
  161.5310  206.8160  140.3720 N   0  0  0  0  0  0  0  0  0  0  0  0
  162.3640  207.1050  138.0630 C   0  0  0  0  0  2  0  0  0  0  0  0
  162.7130  209.5480  140.3570 C   0  0  0  0  0  1  0  0  0  0  0  0
  161.1620  210.0010  151.9450 C   0  0  2  0  0  3  0  0  0  0  0  0
  161.9880  210.7120  150.8920 C   0  0  0  0  0  1  0  0  0  0  0  0
  161.7250  210.2740  153.2610 N   0  0  0  0  0  2  0  0  0  0  0  0
  161.0520  211.0650  154.2040 C   0  0  0  0  0  0  0  0  0  0  0  0
  160.4560  211.7380  155.0080 C   0  0  0  0  0  0  0  0  0  0  0  0
  156.2780  213.2190  156.9100 C   0  0  0  0  0  2  0  0  0  0  0  0
  155.5650  212.9810  155.6450 N   0  0  0  0  0  0  0  0  0  0  0  0
  155.3310  214.2440  154.9520 C   0  0  0  0  0  1  0  0  0  0  0  0
  157.6960  213.7630  156.7010 C   0  0  0  0  0  2  0  0  0  0  0  0
  156.3110  212.0550  154.7790 C   0  0  0  0  0  2  0  0  0  0  0  0
  160.4230  212.9170  157.2200 C   0  0  0  0  0  1  0  0  0  0  0  0
  158.4410  212.8870  155.7420 C   0  0  0  0  0  0  0  0  0  0  0  0
  157.7300  212.5420  154.4680 C   0  0  0  0  0  2  0  0  0  0  0  0
  159.7150  212.5200  155.9670 C   0  0  0  0  0  0  0  0  0  0  0  0
  1  4  1  0  0  0  0
  2  1  1  0  0  0  0
  3  7  1  0  0  0  0
  3  1  2  0  0  0  0
  4 10  2  0  0  0  0
  5 29  1  0  0  0  0
  5 10  1  0  0  0  0
  6  8  2  0  0  0  0
  6  9  1  0  0  0  0
  7  5  2  0  0  0  0
  8  3  1  0  0  0  0
  9  2  2  0  0  0  0
 11 17  1  0  0  0  0
 12 18  1  0  0  0  0
 12 13  1  1  0  0  0
 15 14  1  6  0  0  0
 15 12  1  0  0  0  0
 16 18  1  0  0  0  0
 17 16  1  0  0  0  0
 18  6  1  1  0  0  0
 19 17  2  0  0  0  0
 19 15  1  0  0  0  0
 20 11  1  0  0  0  0
 21 20  1  0  0  0  0
 22 26  1  0  0  0  0
 23 25  1  0  0  0  0
 24 26  1  0  0  0  0
 25 24  1  0  0  0  0
 25 28  1  0  0  0  0
 26 21  1  0  0  0  0
 27 23  1  0  0  0  0
 27 22  1  0  0  0  0
 29 30  1  6  0  0  0
 29 31  1  0  0  0  0
 31 32  1  0  0  0  0
 32 33  3  0  0  0  0
 33 42  1  0  0  0  0
 35 34  1  0  0  0  0
 36 35  1  0  0  0  0
 37 34  1  0  0  0  0
 38 35  1  0  0  0  0
 40 42  2  0  0  0  0
 40 37  1  0  0  0  0
 41 38  1  0  0  0  0
 41 40  1  0  0  0  0
 42 39  1  0  0  0  0
M  END
>  <MODEL>
8

>  <REMARK>
 VINA RESULT:      -5.7      3.465      7.326
  Name = 
  8 active torsions:
  status: ('A' for Active; 'I' for Inactive)
    1  A    between atoms: N_4  and  C_5
    2  A    between atoms: N_4  and  C_21
    3  A    between atoms: C_5  and  C_22
    4  A    between atoms: C_6  and  N_9
    5  A    between atoms: C_6  and  O_18
    6  A    between atoms: O_18  and  N_23
    7  A    between atoms: C_25  and  C_37
    8  A    between atoms: C_41  and  C_42
                            x       y       z     vdW  Elec       q    Type
                         _______ _______ _______ _____ _____    ______ ____

>  <TORSDO>
F 8

$$$$
