=
 OpenBabel11042421173D

 39 43  0  0  1  0  0  0  0  0999 V2000
  161.7150  207.4790  148.1820 C   0  0  2  0  0  3  0  0  0  0  0  0
  160.6740  206.9680  152.5130 C   0  0  1  0  0  3  0  0  0  0  0  0
  160.9950  202.4860  145.6520 C   0  0  0  0  0  1  0  0  0  0  0  0
  161.0510  210.2960  148.9880 C   0  0  0  0  0  2  0  0  0  0  0  0
  163.3320  206.2120  150.6300 C   0  0  0  0  0  1  0  0  0  0  0  0
  161.5810  203.8660  147.6740 C   0  0  0  0  0  0  0  0  0  0  0  0
  161.4140  209.2950  151.8870 C   0  0  1  0  0  3  0  0  0  0  0  0
  161.4820  203.7530  146.2730 C   0  0  0  0  0  0  0  0  0  0  0  0
  160.7650  203.7700  150.3730 C   0  0  0  0  0  0  0  0  0  0  0  0
  160.5770  207.1080  153.9000 O   0  0  0  0  0  1  0  0  0  0  0  0
  161.8420  207.8260  151.9720 C   0  0  2  0  0  3  0  0  0  0  0  0
  160.1780  206.2360  149.7770 C   0  0  0  0  0  2  0  0  0  0  0  0
  161.2990  209.8550  153.1640 O   0  0  0  0  0  1  0  0  0  0  0  0
  162.1400  209.9890  147.9430 C   0  0  0  0  0  2  0  0  0  0  0  0
  161.2510  207.2670  149.5880 N   0  0  1  0  0  0  0  0  0  0  0  0
  162.3340  210.1560  151.0180 C   0  0  0  0  0  2  0  0  0  0  0  0
  160.5310  205.1300  150.7700 C   0  0  0  0  0  0  0  0  0  0  0  0
  162.1090  206.2110  147.4530 C   0  0  0  0  0  0  0  0  0  0  0  0
  161.5240  211.0280  150.1720 N   0  0  0  0  0  0  0  0  0  0  0  0
  161.9950  206.1260  146.0600 C   0  0  0  0  0  3  0  0  0  0  0  0
  162.3340  207.3630  150.5940 C   0  0  2  0  0  3  0  0  0  0  0  0
  162.0500  205.0470  148.1940 C   0  0  0  0  0  3  0  0  0  0  0  0
  161.5150  203.2630  152.6240 C   0  0  0  0  0  3  0  0  0  0  0  0
  161.2690  204.5730  153.0220 C   0  0  0  0  0  3  0  0  0  0  0  0
  161.7630  204.8760  145.4620 C   0  0  0  0  0  0  0  0  0  0  0  0
  161.2670  202.8700  151.3140 C   0  0  0  0  0  3  0  0  0  0  0  0
  160.7700  205.5090  152.1130 C   0  0  0  0  0  0  0  0  0  0  0  0
  160.3660  203.0440  148.7430 S   0  0  0  0  0  0  0  0  0  0  0  0
  162.7650  208.5940  148.0760 C   0  0  0  0  0  2  0  0  0  0  0  0
  161.7260  204.7810  144.0730 O   0  0  0  0  0  1  0  0  0  0  0  0
  162.3000  212.1280  149.7540 N   0  0  0  0  0  2  0  0  0  0  0  0
  162.2790  213.9510  148.2380 O   0  0  0  0  0  1  0  0  0  0  0  0
  161.4820  213.0560  148.9620 C   0  0  2  0  0  3  0  0  0  0  0  0
  160.5520  213.8250  149.8870 C   0  0  0  0  0  2  0  0  0  0  0  0
  159.1710  213.5820  149.5130 N   0  0  0  0  0  2  0  0  0  0  0  0
  158.4630  213.3570  150.7020 N   0  0  0  0  0  2  0  0  0  0  0  0
  159.4000  213.5460  151.7980 C   0  0  0  0  0  2  0  0  0  0  0  0
  158.5900  211.5260  152.4280 O   0  0  0  0  0  1  0  0  0  0  0  0
  159.0250  212.7100  152.9260 N   0  0  0  0  0  2  0  0  0  0  0  0
  1 29  1  1  0  0  0
  1 15  1  0  0  0  0
  2 10  1  1  0  0  0
  3  8  1  0  0  0  0
  4 19  1  0  0  0  0
  6 22  1  0  0  0  0
  6 28  1  0  0  0  0
  7 11  1  0  0  0  0
  7 13  1  1  0  0  0
  8  6  2  0  0  0  0
  9 17  2  0  0  0  0
  9 26  1  0  0  0  0
 11  2  1  0  0  0  0
 12 17  1  0  0  0  0
 14 29  1  0  0  0  0
 14  4  1  0  0  0  0
 15 12  1  0  0  0  0
 15 21  1  0  0  0  0
 16  7  1  0  0  0  0
 17 27  1  0  0  0  0
 18  1  1  0  0  0  0
 18 22  2  0  0  0  0
 19 16  1  0  0  0  0
 20 18  1  0  0  0  0
 21  5  1  0  0  0  0
 21 11  1  0  0  0  0
 23 24  1  0  0  0  0
 25 20  2  0  0  0  0
 25  8  1  0  0  0  0
 26 23  2  0  0  0  0
 27  2  1  0  0  0  0
 27 24  2  0  0  0  0
 28  9  1  0  0  0  0
 30 25  1  0  0  0  0
 31 19  1  0  0  0  0
 32 33  1  0  0  0  0
 33 31  1  0  0  0  0
 33 34  1  0  0  0  0
 35 34  1  0  0  0  0
 35 36  1  0  0  0  0
 36 37  1  0  0  0  0
 37 39  1  0  0  0  0
 38 39  1  0  0  0  0
M  END
>  <MODEL>
1

>  <REMARK>
 VINA RESULT:      -4.1      0.000      0.000
  Name = 
  7 active torsions:
  status: ('A' for Active; 'I' for Inactive)
    1  A    between atoms: C_3  and  N_23
    2  A    between atoms: C_3  and  N_27
    3  A    between atoms: N_9  and  N_27
    4  A    between atoms: N_9  and  C_32
    5  A    between atoms: N_22  and  N_25
    6  A    between atoms: N_25  and  C_39
    7  A    between atoms: C_32  and  C_39
                            x       y       z     vdW  Elec       q    Type
                         _______ _______ _______ _____ _____    ______ ____

>  <TORSDO>
F 7

$$$$
=
 OpenBabel11042421173D

 39 43  0  0  1  0  0  0  0  0999 V2000
  161.7510  207.4680  148.1800 C   0  0  2  0  0  3  0  0  0  0  0  0
  160.6770  206.9940  152.5070 C   0  0  1  0  0  3  0  0  0  0  0  0
  160.9940  202.4670  145.6760 C   0  0  0  0  0  1  0  0  0  0  0  0
  161.1130  210.2960  148.9640 C   0  0  0  0  0  2  0  0  0  0  0  0
  163.3390  206.1980  150.6460 C   0  0  0  0  0  1  0  0  0  0  0  0
  161.5810  203.8540  147.6930 C   0  0  0  0  0  0  0  0  0  0  0  0
  161.4460  209.3100  151.8720 C   0  0  1  0  0  3  0  0  0  0  0  0
  161.4910  203.7320  146.2920 C   0  0  0  0  0  0  0  0  0  0  0  0
  160.7480  203.7830  150.3880 C   0  0  0  0  0  0  0  0  0  0  0  0
  160.5720  207.1450  153.8930 O   0  0  0  0  0  1  0  0  0  0  0  0
  161.8580  207.8370  151.9690 C   0  0  2  0  0  3  0  0  0  0  0  0
  160.1910  206.2510  149.7720 C   0  0  0  0  0  2  0  0  0  0  0  0
  161.3290  209.8790  153.1440 O   0  0  0  0  0  1  0  0  0  0  0  0
  162.2050  209.9710  147.9280 C   0  0  0  0  0  2  0  0  0  0  0  0
  161.2760  207.2690  149.5840 N   0  0  1  0  0  0  0  0  0  0  0  0
  162.3810  210.1550  151.0030 C   0  0  0  0  0  2  0  0  0  0  0  0
  160.5260  205.1470  150.7750 C   0  0  0  0  0  0  0  0  0  0  0  0
  162.1370  206.1910  147.4610 C   0  0  0  0  0  0  0  0  0  0  0  0
  161.5860  211.0300  150.1470 N   0  0  0  0  0  0  0  0  0  0  0  0
  162.0310  206.0980  146.0680 C   0  0  0  0  0  3  0  0  0  0  0  0
  162.3530  207.3600  150.5970 C   0  0  2  0  0  3  0  0  0  0  0  0
  162.0600  205.0330  148.2090 C   0  0  0  0  0  3  0  0  0  0  0  0
  161.4770  203.2810  152.6460 C   0  0  0  0  0  3  0  0  0  0  0  0
  161.2420  204.5970  153.0340 C   0  0  0  0  0  3  0  0  0  0  0  0
  161.7890  204.8480  145.4760 C   0  0  0  0  0  0  0  0  0  0  0  0
  161.2330  202.8830  151.3370 C   0  0  0  0  0  3  0  0  0  0  0  0
  160.7590  205.5320  152.1170 C   0  0  0  0  0  0  0  0  0  0  0  0
  160.3510  203.0500  148.7600 S   0  0  0  0  0  0  0  0  0  0  0  0
  162.8150  208.5700  148.0740 C   0  0  0  0  0  2  0  0  0  0  0  0
  161.7600  204.7440  144.0880 O   0  0  0  0  0  1  0  0  0  0  0  0
  162.3760  212.1190  149.7270 N   0  0  0  0  0  2  0  0  0  0  0  0
  162.5490  213.5960  147.8790 O   0  0  0  0  0  1  0  0  0  0  0  0
  161.6610  212.9080  148.7160 C   0  0  2  0  0  3  0  0  0  0  0  0
  160.7330  213.8950  149.4070 C   0  0  0  0  0  2  0  0  0  0  0  0
  159.3510  213.5620  149.1150 N   0  0  0  0  0  2  0  0  0  0  0  0
  159.1350  213.8740  147.7650 N   0  0  0  0  0  2  0  0  0  0  0  0
  158.2370  212.8610  147.2320 C   0  0  0  0  0  2  0  0  0  0  0  0
  159.8820  212.1380  145.8520 O   0  0  0  0  0  1  0  0  0  0  0  0
  158.5910  212.5540  145.8570 N   0  0  0  0  0  2  0  0  0  0  0  0
  1 29  1  1  0  0  0
  1 15  1  0  0  0  0
  2 10  1  1  0  0  0
  3  8  1  0  0  0  0
  4 19  1  0  0  0  0
  6 22  1  0  0  0  0
  6 28  1  0  0  0  0
  7 11  1  0  0  0  0
  7 13  1  1  0  0  0
  8  6  2  0  0  0  0
  9 17  2  0  0  0  0
  9 26  1  0  0  0  0
 11  2  1  0  0  0  0
 12 17  1  0  0  0  0
 14 29  1  0  0  0  0
 14  4  1  0  0  0  0
 15 12  1  0  0  0  0
 15 21  1  0  0  0  0
 16  7  1  0  0  0  0
 17 27  1  0  0  0  0
 18  1  1  0  0  0  0
 18 22  2  0  0  0  0
 19 16  1  0  0  0  0
 20 18  1  0  0  0  0
 21  5  1  0  0  0  0
 21 11  1  0  0  0  0
 23 24  1  0  0  0  0
 25 20  2  0  0  0  0
 25  8  1  0  0  0  0
 26 23  2  0  0  0  0
 27  2  1  0  0  0  0
 27 24  2  0  0  0  0
 28  9  1  0  0  0  0
 30 25  1  0  0  0  0
 31 19  1  0  0  0  0
 32 33  1  0  0  0  0
 33 34  1  0  0  0  0
 33 31  1  0  0  0  0
 35 34  1  0  0  0  0
 36 35  1  0  0  0  0
 37 36  1  0  0  0  0
 38 39  1  0  0  0  0
 39 37  1  0  0  0  0
M  END
>  <MODEL>
2

>  <REMARK>
 VINA RESULT:      -4.1      1.097      1.815
  Name = 
  7 active torsions:
  status: ('A' for Active; 'I' for Inactive)
    1  A    between atoms: C_3  and  N_23
    2  A    between atoms: C_3  and  N_27
    3  A    between atoms: N_9  and  N_27
    4  A    between atoms: N_9  and  C_32
    5  A    between atoms: N_22  and  N_25
    6  A    between atoms: N_25  and  C_39
    7  A    between atoms: C_32  and  C_39
                            x       y       z     vdW  Elec       q    Type
                         _______ _______ _______ _____ _____    ______ ____

>  <TORSDO>
F 7

$$$$
=
 OpenBabel11042421173D

 39 43  0  0  1  0  0  0  0  0999 V2000
  161.7350  207.5120  148.1190 C   0  0  2  0  0  3  0  0  0  0  0  0
  160.6820  207.2350  152.4690 C   0  0  1  0  0  3  0  0  0  0  0  0
  160.9960  202.3950  145.8550 C   0  0  0  0  0  1  0  0  0  0  0  0
  161.0830  210.3700  148.7740 C   0  0  0  0  0  2  0  0  0  0  0  0
  163.3400  206.3680  150.6350 C   0  0  0  0  0  1  0  0  0  0  0  0
  161.5840  203.8780  147.8020 C   0  0  0  0  0  0  0  0  0  0  0  0
  161.4350  209.5230  151.7220 C   0  0  1  0  0  3  0  0  0  0  0  0
  161.4880  203.6910  146.4090 C   0  0  0  0  0  0  0  0  0  0  0  0
  160.7620  203.9280  150.5010 C   0  0  0  0  0  0  0  0  0  0  0  0
  160.5820  207.4500  153.8460 O   0  0  0  0  0  1  0  0  0  0  0  0
  161.8550  208.0580  151.8860 C   0  0  2  0  0  3  0  0  0  0  0  0
  160.1880  206.3620  149.7730 C   0  0  0  0  0  2  0  0  0  0  0  0
  161.3190  210.1500  152.9670 O   0  0  0  0  0  1  0  0  0  0  0  0
  162.1730  210.0030  147.7480 C   0  0  0  0  0  2  0  0  0  0  0  0
  161.2660  207.3770  149.5330 N   0  0  1  0  0  0  0  0  0  0  0  0
  162.3610  210.3320  150.8110 C   0  0  0  0  0  2  0  0  0  0  0  0
  160.5340  205.3080  150.8250 C   0  0  0  0  0  0  0  0  0  0  0  0
  162.1250  206.2050  147.4590 C   0  0  0  0  0  0  0  0  0  0  0  0
  161.5570  211.1620  149.9180 N   0  0  0  0  0  0  0  0  0  0  0  0
  162.0130  206.0470  146.0720 C   0  0  0  0  0  3  0  0  0  0  0  0
  162.3480  207.5210  150.5350 C   0  0  2  0  0  3  0  0  0  0  0  0
  162.0580  205.0820  148.2610 C   0  0  0  0  0  3  0  0  0  0  0  0
  161.5040  203.5370  152.7770 C   0  0  0  0  0  3  0  0  0  0  0  0
  161.2630  204.8680  153.1040 C   0  0  0  0  0  3  0  0  0  0  0  0
  161.7760  204.7680  145.5410 C   0  0  0  0  0  0  0  0  0  0  0  0
  161.2570  203.0770  151.4890 C   0  0  0  0  0  3  0  0  0  0  0  0
  160.7710  205.7570  152.1470 C   0  0  0  0  0  0  0  0  0  0  0  0
  160.3620  203.1190  148.9110 S   0  0  0  0  0  0  0  0  0  0  0  0
  162.7910  208.6140  147.9570 C   0  0  0  0  0  2  0  0  0  0  0  0
  161.7420  204.6000  144.1590 O   0  0  0  0  0  1  0  0  0  0  0  0
  162.3390  212.2340  149.4440 N   0  0  0  0  0  2  0  0  0  0  0  0
  160.1860  213.2060  149.6490 O   0  0  0  0  0  1  0  0  0  0  0  0
  161.4950  213.4090  149.1940 C   0  0  2  0  0  3  0  0  0  0  0  0
  161.4820  213.7150  147.7050 C   0  0  0  0  0  2  0  0  0  0  0  0
  160.1650  213.4480  147.1560 N   0  0  0  0  0  2  0  0  0  0  0  0
  160.3560  212.6650  146.0090 N   0  0  0  0  0  2  0  0  0  0  0  0
  161.5100  213.2080  145.3090 C   0  0  0  0  0  2  0  0  0  0  0  0
  162.8010  212.7480  143.5060 O   0  0  0  0  0  1  0  0  0  0  0  0
  161.5120  212.7610  143.9260 N   0  0  0  0  0  2  0  0  0  0  0  0
  1 29  1  1  0  0  0
  1 15  1  0  0  0  0
  2 10  1  1  0  0  0
  3  8  1  0  0  0  0
  4 19  1  0  0  0  0
  6 22  1  0  0  0  0
  6 28  1  0  0  0  0
  7 11  1  0  0  0  0
  7 13  1  1  0  0  0
  8  6  2  0  0  0  0
  9 17  2  0  0  0  0
  9 26  1  0  0  0  0
 11  2  1  0  0  0  0
 12 17  1  0  0  0  0
 14 29  1  0  0  0  0
 14  4  1  0  0  0  0
 15 12  1  0  0  0  0
 15 21  1  0  0  0  0
 16  7  1  0  0  0  0
 17 27  1  0  0  0  0
 18  1  1  0  0  0  0
 18 22  2  0  0  0  0
 19 16  1  0  0  0  0
 20 18  1  0  0  0  0
 21  5  1  0  0  0  0
 21 11  1  0  0  0  0
 23 24  1  0  0  0  0
 25 20  2  0  0  0  0
 25  8  1  0  0  0  0
 26 23  2  0  0  0  0
 27  2  1  0  0  0  0
 27 24  2  0  0  0  0
 28  9  1  0  0  0  0
 30 25  1  0  0  0  0
 31 19  1  0  0  0  0
 33 31  1  0  0  0  0
 33 32  1  0  0  0  0
 34 33  1  0  0  0  0
 35 34  1  0  0  0  0
 36 35  1  0  0  0  0
 37 36  1  0  0  0  0
 38 39  1  0  0  0  0
 39 37  1  0  0  0  0
M  END
>  <MODEL>
3

>  <REMARK>
 VINA RESULT:      -4.0      1.635      2.678
  Name = 
  7 active torsions:
  status: ('A' for Active; 'I' for Inactive)
    1  A    between atoms: C_3  and  N_23
    2  A    between atoms: C_3  and  N_27
    3  A    between atoms: N_9  and  N_27
    4  A    between atoms: N_9  and  C_32
    5  A    between atoms: N_22  and  N_25
    6  A    between atoms: N_25  and  C_39
    7  A    between atoms: C_32  and  C_39
                            x       y       z     vdW  Elec       q    Type
                         _______ _______ _______ _____ _____    ______ ____

>  <TORSDO>
F 7

$$$$
=
 OpenBabel11042421173D

 39 43  0  0  1  0  0  0  0  0999 V2000
  161.2970  204.4760  151.1970 C   0  0  2  0  0  3  0  0  0  0  0  0
  162.0380  208.1620  148.7540 C   0  0  1  0  0  3  0  0  0  0  0  0
  161.4830  200.0470  147.7030 C   0  0  0  0  0  1  0  0  0  0  0  0
  162.2830  206.4020  153.2800 C   0  0  0  0  0  2  0  0  0  0  0  0
  159.4040  206.1630  149.2510 C   0  0  0  0  0  1  0  0  0  0  0  0
  160.9810  202.4710  148.1620 C   0  0  0  0  0  0  0  0  0  0  0  0
  161.6430  208.5980  151.2060 C   0  0  1  0  0  3  0  0  0  0  0  0
  161.1350  201.1550  148.6410 C   0  0  0  0  0  0  0  0  0  0  0  0
  161.6370  204.8620  146.8150 C   0  0  0  0  0  0  0  0  0  0  0  0
  162.0820  209.4750  148.2770 O   0  0  0  0  0  1  0  0  0  0  0  0
  161.0220  208.0520  149.9150 C   0  0  2  0  0  3  0  0  0  0  0  0
  162.5730  205.3710  149.1920 C   0  0  0  0  0  2  0  0  0  0  0  0
  161.7660  209.9910  151.1480 O   0  0  0  0  0  1  0  0  0  0  0  0
  161.2180  205.3370  153.6030 C   0  0  0  0  0  2  0  0  0  0  0  0
  161.6570  205.6510  150.3450 N   0  0  1  0  0  0  0  0  0  0  0  0
  160.8900  208.1900  152.4740 C   0  0  0  0  0  2  0  0  0  0  0  0
  162.0270  205.7990  147.8300 C   0  0  0  0  0  0  0  0  0  0  0  0
  160.7770  203.2780  150.4270 C   0  0  0  0  0  0  0  0  0  0  0  0
  161.8500  207.7900  153.4990 N   0  0  0  0  0  0  0  0  0  0  0  0
  160.9500  201.9810  150.9270 C   0  0  0  0  0  3  0  0  0  0  0  0
  160.5450  206.6130  150.1560 C   0  0  2  0  0  3  0  0  0  0  0  0
  160.6450  203.4510  149.0630 C   0  0  0  0  0  3  0  0  0  0  0  0
  160.7130  206.6870  145.5110 C   0  0  0  0  0  3  0  0  0  0  0  0
  161.1090  207.6040  146.4800 C   0  0  0  0  0  3  0  0  0  0  0  0
  161.0460  200.9050  150.0300 C   0  0  0  0  0  0  0  0  0  0  0  0
  160.9740  205.3320  145.6810 C   0  0  0  0  0  3  0  0  0  0  0  0
  161.7720  207.1780  147.6320 C   0  0  0  0  0  0  0  0  0  0  0  0
  162.0210  203.0740  146.8010 S   0  0  0  0  0  0  0  0  0  0  0  0
  160.4090  204.8670  152.3860 C   0  0  0  0  0  2  0  0  0  0  0  0
  161.1410  199.6080  150.5290 O   0  0  0  0  0  1  0  0  0  0  0  0
  161.2480  207.8900  154.7690 N   0  0  0  0  0  2  0  0  0  0  0  0
  162.2660  209.3840  156.3040 O   0  0  0  0  0  1  0  0  0  0  0  0
  161.3330  209.2690  155.2660 C   0  0  2  0  0  3  0  0  0  0  0  0
  159.9630  209.7170  155.7520 C   0  0  0  0  0  2  0  0  0  0  0  0
  159.4680  210.7920  154.9120 N   0  0  0  0  0  2  0  0  0  0  0  0
  160.5820  211.3530  154.2720 N   0  0  0  0  0  2  0  0  0  0  0  0
  160.0790  212.1510  153.1640 C   0  0  0  0  0  2  0  0  0  0  0  0
  158.2800  212.4320  151.8170 O   0  0  0  0  0  1  0  0  0  0  0  0
  158.9240  211.5020  152.5650 N   0  0  0  0  0  2  0  0  0  0  0  0
  1 29  1  1  0  0  0
  2 10  1  6  0  0  0
  2 11  1  0  0  0  0
  3  8  1  0  0  0  0
  4 19  1  0  0  0  0
  4 14  1  0  0  0  0
  5 21  1  0  0  0  0
  6  8  2  0  0  0  0
  6 22  1  0  0  0  0
  7 13  1  6  0  0  0
  7 16  1  0  0  0  0
  8 25  1  0  0  0  0
  9 17  1  0  0  0  0
 11 21  1  0  0  0  0
 11  7  1  0  0  0  0
 12 15  1  0  0  0  0
 15  1  1  0  0  0  0
 16 19  1  0  0  0  0
 17 12  1  0  0  0  0
 18 20  1  0  0  0  0
 18  1  1  0  0  0  0
 19 31  1  0  0  0  0
 21 15  1  0  0  0  0
 22 18  2  0  0  0  0
 23 26  1  0  0  0  0
 23 24  2  0  0  0  0
 24 27  1  0  0  0  0
 25 30  1  0  0  0  0
 25 20  2  0  0  0  0
 26  9  2  0  0  0  0
 27 17  2  0  0  0  0
 27  2  1  0  0  0  0
 28  9  1  0  0  0  0
 28  6  1  0  0  0  0
 29 14  1  0  0  0  0
 31 33  1  0  0  0  0
 33 34  1  0  0  0  0
 33 32  1  0  0  0  0
 35 34  1  0  0  0  0
 36 35  1  0  0  0  0
 37 36  1  0  0  0  0
 38 39  1  0  0  0  0
 39 37  1  0  0  0  0
M  END
>  <MODEL>
4

>  <REMARK>
 VINA RESULT:      -3.1      2.579      5.019
  Name = 
  7 active torsions:
  status: ('A' for Active; 'I' for Inactive)
    1  A    between atoms: C_3  and  N_23
    2  A    between atoms: C_3  and  N_27
    3  A    between atoms: N_9  and  N_27
    4  A    between atoms: N_9  and  C_32
    5  A    between atoms: N_22  and  N_25
    6  A    between atoms: N_25  and  C_39
    7  A    between atoms: C_32  and  C_39
                            x       y       z     vdW  Elec       q    Type
                         _______ _______ _______ _____ _____    ______ ____

>  <TORSDO>
F 7

$$$$
=
 OpenBabel11042421173D

 39 43  0  0  1  0  0  0  0  0999 V2000
  160.8610  205.5350  152.4640 C   0  0  2  0  0  3  0  0  0  0  0  0
  161.2430  207.3150  148.3670 C   0  0  1  0  0  3  0  0  0  0  0  0
  160.2220  209.7860  156.1210 C   0  0  0  0  0  1  0  0  0  0  0  0
  160.0310  203.2360  150.7190 C   0  0  0  0  0  2  0  0  0  0  0  0
  163.3090  206.9460  150.9700 C   0  0  0  0  0  1  0  0  0  0  0  0
  161.1550  208.8430  153.9810 C   0  0  0  0  0  0  0  0  0  0  0  0
  161.3880  204.7990  148.4280 C   0  0  1  0  0  3  0  0  0  0  0  0
  160.6650  208.6310  155.2860 C   0  0  0  0  0  0  0  0  0  0  0  0
  161.2000  209.7820  151.3210 C   0  0  0  0  0  0  0  0  0  0  0  0
  161.5400  207.5440  147.0210 O   0  0  0  0  0  1  0  0  0  0  0  0
  162.0480  206.1030  148.8910 C   0  0  2  0  0  3  0  0  0  0  0  0
  160.0810  207.4530  150.9940 C   0  0  0  0  0  2  0  0  0  0  0  0
  161.5690  204.6100  147.0540 O   0  0  0  0  0  1  0  0  0  0  0  0
  160.7950  203.0150  152.0380 C   0  0  0  0  0  2  0  0  0  0  0  0
  160.8730  206.1860  151.1180 N   0  0  1  0  0  0  0  0  0  0  0  0
  161.8620  203.5620  149.1940 C   0  0  0  0  0  2  0  0  0  0  0  0
  160.8830  208.6540  150.4920 C   0  0  0  0  0  0  0  0  0  0  0  0
  161.2180  206.4590  153.6120 C   0  0  0  0  0  0  0  0  0  0  0  0
  160.7110  202.7250  149.5200 N   0  0  0  0  0  0  0  0  0  0  0  0
  160.7110  206.2260  154.8970 C   0  0  0  0  0  3  0  0  0  0  0  0
  162.1770  206.0870  150.4200 C   0  0  2  0  0  3  0  0  0  0  0  0
  161.5640  207.7480  153.2600 C   0  0  0  0  0  3  0  0  0  0  0  0
  162.6520  210.6330  149.5740 C   0  0  0  0  0  3  0  0  0  0  0  0
  162.3310  209.5540  148.7560 C   0  0  0  0  0  3  0  0  0  0  0  0
  160.5130  207.3110  155.7660 C   0  0  0  0  0  0  0  0  0  0  0  0
  162.0930  210.7410  150.8420 C   0  0  0  0  0  3  0  0  0  0  0  0
  161.4450  208.5690  149.1950 C   0  0  0  0  0  0  0  0  0  0  0  0
  160.4560  210.1620  152.9480 S   0  0  0  0  0  0  0  0  0  0  0  0
  161.6440  204.2140  152.4820 C   0  0  0  0  0  2  0  0  0  0  0  0
  160.0820  207.0710  157.0690 O   0  0  0  0  0  1  0  0  0  0  0  0
  161.1450  201.4060  149.7640 N   0  0  0  0  0  2  0  0  0  0  0  0
  162.1820  200.2130  147.9960 O   0  0  0  0  0  1  0  0  0  0  0  0
  160.9560  200.5780  148.5660 C   0  0  2  0  0  3  0  0  0  0  0  0
  160.1220  201.3420  147.5490 C   0  0  0  0  0  2  0  0  0  0  0  0
  160.8310  201.4180  146.2850 N   0  0  0  0  0  2  0  0  0  0  0  0
  159.8980  201.1300  145.2790 N   0  0  0  0  0  2  0  0  0  0  0  0
  159.7070  202.3520  144.5130 C   0  0  0  0  0  2  0  0  0  0  0  0
  160.4420  204.4720  144.2060 O   0  0  0  0  0  1  0  0  0  0  0  0
  160.7500  203.3110  144.8360 N   0  0  0  0  0  2  0  0  0  0  0  0
  1 29  1  6  0  0  0
  1 18  1  0  0  0  0
  2 10  1  6  0  0  0
  2 11  1  0  0  0  0
  2 27  1  0  0  0  0
  4 14  1  0  0  0  0
  6  8  1  0  0  0  0
  7 13  1  6  0  0  0
  7 11  1  0  0  0  0
  7 16  1  0  0  0  0
  8 25  2  0  0  0  0
  8  3  1  0  0  0  0
  9 28  1  0  0  0  0
 11 21  1  0  0  0  0
 12 15  1  0  0  0  0
 14 29  1  0  0  0  0
 15  1  1  0  0  0  0
 16 19  1  0  0  0  0
 17 12  1  0  0  0  0
 17  9  2  0  0  0  0
 18 20  2  0  0  0  0
 19 31  1  0  0  0  0
 19  4  1  0  0  0  0
 20 25  1  0  0  0  0
 21  5  1  0  0  0  0
 21 15  1  0  0  0  0
 22 18  1  0  0  0  0
 22  6  2  0  0  0  0
 23 26  2  0  0  0  0
 24 27  2  0  0  0  0
 24 23  1  0  0  0  0
 25 30  1  0  0  0  0
 26  9  1  0  0  0  0
 27 17  1  0  0  0  0
 28  6  1  0  0  0  0
 32 33  1  0  0  0  0
 33 31  1  0  0  0  0
 34 33  1  0  0  0  0
 35 34  1  0  0  0  0
 36 35  1  0  0  0  0
 37 39  1  0  0  0  0
 37 36  1  0  0  0  0
 38 39  1  0  0  0  0
M  END
>  <MODEL>
5

>  <REMARK>
 VINA RESULT:      -2.5      3.625      8.757
  Name = 
  7 active torsions:
  status: ('A' for Active; 'I' for Inactive)
    1  A    between atoms: C_3  and  N_23
    2  A    between atoms: C_3  and  N_27
    3  A    between atoms: N_9  and  N_27
    4  A    between atoms: N_9  and  C_32
    5  A    between atoms: N_22  and  N_25
    6  A    between atoms: N_25  and  C_39
    7  A    between atoms: C_32  and  C_39
                            x       y       z     vdW  Elec       q    Type
                         _______ _______ _______ _____ _____    ______ ____

>  <TORSDO>
F 7

$$$$
=
 OpenBabel11042421173D

 39 43  0  0  1  0  0  0  0  0999 V2000
  161.2660  204.0770  150.9010 C   0  0  2  0  0  3  0  0  0  0  0  0
  161.9270  207.9090  148.6690 C   0  0  1  0  0  3  0  0  0  0  0  0
  161.5660  199.8540  147.1680 C   0  0  0  0  0  1  0  0  0  0  0  0
  162.2000  205.9070  153.0920 C   0  0  0  0  0  2  0  0  0  0  0  0
  159.3390  205.8250  149.0440 C   0  0  0  0  0  1  0  0  0  0  0  0
  161.0060  202.2360  147.7590 C   0  0  0  0  0  0  0  0  0  0  0  0
  161.5150  208.1990  151.1400 C   0  0  1  0  0  3  0  0  0  0  0  0
  161.1900  200.9000  148.1650 C   0  0  0  0  0  0  0  0  0  0  0  0
  161.6100  204.7130  146.5490 C   0  0  0  0  0  0  0  0  0  0  0  0
  161.9410  209.2470  148.2660 O   0  0  0  0  0  1  0  0  0  0  0  0
  160.9110  207.7110  149.8190 C   0  0  2  0  0  3  0  0  0  0  0  0
  162.5270  205.1110  148.9540 C   0  0  0  0  0  2  0  0  0  0  0  0
  161.6050  209.5950  151.1600 O   0  0  0  0  0  1  0  0  0  0  0  0
  161.1600  204.8010  153.3510 C   0  0  0  0  0  2  0  0  0  0  0  0
  161.6000  205.3050  150.1170 N   0  0  1  0  0  0  0  0  0  0  0  0
  160.7680  207.7040  152.3800 C   0  0  0  0  0  2  0  0  0  0  0  0
  161.9740  205.6020  147.6160 C   0  0  0  0  0  0  0  0  0  0  0  0
  160.7760  202.9120  150.0640 C   0  0  0  0  0  0  0  0  0  0  0  0
  161.7340  207.2700  153.3860 N   0  0  0  0  0  0  0  0  0  0  0  0
  160.9780  201.5940  150.4920 C   0  0  0  0  0  3  0  0  0  0  0  0
  160.4670  206.2500  149.9770 C   0  0  2  0  0  3  0  0  0  0  0  0
  160.6440  203.1560  148.7120 C   0  0  0  0  0  3  0  0  0  0  0  0
  160.6470  206.5850  145.3450 C   0  0  0  0  0  3  0  0  0  0  0  0
  161.0180  207.4560  146.3640 C   0  0  0  0  0  3  0  0  0  0  0  0
  161.1020  200.5710  149.5370 C   0  0  0  0  0  0  0  0  0  0  0  0
  160.9390  205.2300  145.4400 C   0  0  0  0  0  3  0  0  0  0  0  0
  161.6880  206.9830  147.4940 C   0  0  0  0  0  0  0  0  0  0  0  0
  162.0350  202.9380  146.4380 S   0  0  0  0  0  0  0  0  0  0  0  0
  160.3650  204.3800  152.1070 C   0  0  0  0  0  2  0  0  0  0  0  0
  161.2270  199.2510  149.9640 O   0  0  0  0  0  1  0  0  0  0  0  0
  161.1260  207.2850  154.6570 N   0  0  0  0  0  2  0  0  0  0  0  0
  162.3240  208.1480  156.5130 O   0  0  0  0  0  1  0  0  0  0  0  0
  161.5370  208.4810  155.4040 C   0  0  2  0  0  3  0  0  0  0  0  0
  160.3020  209.2430  155.8580 C   0  0  0  0  0  2  0  0  0  0  0  0
  160.2060  210.5010  155.1400 N   0  0  0  0  0  2  0  0  0  0  0  0
  161.4070  211.1890  155.3650 N   0  0  0  0  0  2  0  0  0  0  0  0
  161.4550  211.5070  156.7840 C   0  0  0  0  0  2  0  0  0  0  0  0
  163.6110  211.0800  156.2350 O   0  0  0  0  0  1  0  0  0  0  0  0
  162.8350  211.5620  157.2370 N   0  0  0  0  0  2  0  0  0  0  0  0
  1 29  1  1  0  0  0
  2 10  1  6  0  0  0
  2 11  1  0  0  0  0
  3  8  1  0  0  0  0
  4 14  1  0  0  0  0
  4 19  1  0  0  0  0
  5 21  1  0  0  0  0
  6  8  2  0  0  0  0
  6 22  1  0  0  0  0
  7 13  1  6  0  0  0
  7 16  1  0  0  0  0
  8 25  1  0  0  0  0
  9 17  1  0  0  0  0
 11 21  1  0  0  0  0
 11  7  1  0  0  0  0
 12 15  1  0  0  0  0
 15  1  1  0  0  0  0
 16 19  1  0  0  0  0
 17 12  1  0  0  0  0
 18 20  1  0  0  0  0
 18  1  1  0  0  0  0
 19 31  1  0  0  0  0
 21 15  1  0  0  0  0
 22 18  2  0  0  0  0
 23 26  1  0  0  0  0
 23 24  2  0  0  0  0
 24 27  1  0  0  0  0
 25 30  1  0  0  0  0
 25 20  2  0  0  0  0
 26  9  2  0  0  0  0
 27 17  2  0  0  0  0
 27  2  1  0  0  0  0
 28  9  1  0  0  0  0
 28  6  1  0  0  0  0
 29 14  1  0  0  0  0
 31 33  1  0  0  0  0
 33 34  1  0  0  0  0
 33 32  1  0  0  0  0
 35 36  1  0  0  0  0
 35 34  1  0  0  0  0
 36 37  1  0  0  0  0
 37 39  1  0  0  0  0
 38 39  1  0  0  0  0
M  END
>  <MODEL>
6

>  <REMARK>
 VINA RESULT:      -2.0      3.144      5.445
  Name = 
  7 active torsions:
  status: ('A' for Active; 'I' for Inactive)
    1  A    between atoms: C_3  and  N_23
    2  A    between atoms: C_3  and  N_27
    3  A    between atoms: N_9  and  N_27
    4  A    between atoms: N_9  and  C_32
    5  A    between atoms: N_22  and  N_25
    6  A    between atoms: N_25  and  C_39
    7  A    between atoms: C_32  and  C_39
                            x       y       z     vdW  Elec       q    Type
                         _______ _______ _______ _____ _____    ______ ____

>  <TORSDO>
F 7

$$$$
=
 OpenBabel11042421173D

 39 43  0  0  1  0  0  0  0  0999 V2000
  161.3980  207.1650  148.8850 C   0  0  2  0  0  3  0  0  0  0  0  0
  160.6600  205.1820  152.8370 C   0  0  1  0  0  3  0  0  0  0  0  0
  161.0090  203.2010  144.8860 C   0  0  0  0  0  1  0  0  0  0  0  0
  160.5190  209.4850  150.5780 C   0  0  0  0  0  2  0  0  0  0  0  0
  163.2650  205.3610  150.7490 C   0  0  0  0  0  1  0  0  0  0  0  0
  161.5760  203.9140  147.2330 C   0  0  0  0  0  0  0  0  0  0  0  0
  161.1400  207.6520  152.9850 C   0  0  1  0  0  3  0  0  0  0  0  0
  161.4090  204.2470  145.8730 C   0  0  0  0  0  0  0  0  0  0  0  0
  160.9290  202.8690  149.7720 C   0  0  0  0  0  0  0  0  0  0  0  0
  160.6290  204.8580  154.1960 O   0  0  0  0  0  1  0  0  0  0  0  0
  161.7080  206.2880  152.5780 C   0  0  2  0  0  3  0  0  0  0  0  0
  160.0790  205.3180  150.0240 C   0  0  0  0  0  2  0  0  0  0  0  0
  161.0460  207.7570  154.3760 O   0  0  0  0  0  1  0  0  0  0  0  0
  161.5700  209.6490  149.4640 C   0  0  0  0  0  2  0  0  0  0  0  0
  161.0370  206.4640  150.1550 N   0  0  1  0  0  0  0  0  0  0  0  0
  161.9230  208.8400  152.4210 C   0  0  0  0  0  2  0  0  0  0  0  0
  160.5910  203.9960  150.5950 C   0  0  0  0  0  0  0  0  0  0  0  0
  161.8680  206.2480  147.7730 C   0  0  0  0  0  0  0  0  0  0  0  0
  160.9880  209.8450  151.9240 N   0  0  0  0  0  0  0  0  0  0  0  0
  161.6830  206.6030  146.4310 C   0  0  0  0  0  3  0  0  0  0  0  0
  162.1620  206.3480  151.1130 C   0  0  2  0  0  3  0  0  0  0  0  0
  161.9610  204.9090  148.0970 C   0  0  0  0  0  3  0  0  0  0  0  0
  161.8500  201.7500  151.7170 C   0  0  0  0  0  3  0  0  0  0  0  0
  161.5050  202.8300  152.5250 C   0  0  0  0  0  3  0  0  0  0  0  0
  161.5360  205.5940  145.4650 C   0  0  0  0  0  0  0  0  0  0  0  0
  161.5660  201.7750  150.3570 C   0  0  0  0  0  3  0  0  0  0  0  0
  160.8690  203.9480  151.9830 C   0  0  0  0  0  0  0  0  0  0  0  0
  160.5070  202.6660  148.0050 S   0  0  0  0  0  0  0  0  0  0  0  0
  162.3310  208.3610  149.1220 C   0  0  0  0  0  2  0  0  0  0  0  0
  161.4290  205.9460  144.1230 O   0  0  0  0  0  1  0  0  0  0  0  0
  161.6310  211.0970  151.8680 N   0  0  0  0  0  2  0  0  0  0  0  0
  159.8150  211.5960  153.3090 O   0  0  0  0  0  1  0  0  0  0  0  0
  160.7690  212.1400  152.4400 C   0  0  2  0  0  3  0  0  0  0  0  0
  160.0740  212.8940  151.3180 C   0  0  0  0  0  2  0  0  0  0  0  0
  158.6670  213.0640  151.6330 N   0  0  0  0  0  2  0  0  0  0  0  0
  157.9750  213.0570  150.4130 N   0  0  0  0  0  2  0  0  0  0  0  0
  158.8350  213.7030  149.4330 C   0  0  0  0  0  2  0  0  0  0  0  0
  157.3470  212.9260  147.9120 O   0  0  0  0  0  1  0  0  0  0  0  0
  158.0750  214.0230  148.2360 N   0  0  0  0  0  2  0  0  0  0  0  0
  1 29  1  1  0  0  0
  1 15  1  0  0  0  0
  2 10  1  1  0  0  0
  3  8  1  0  0  0  0
  4 19  1  0  0  0  0
  5 21  1  0  0  0  0
  6 28  1  0  0  0  0
  6 22  1  0  0  0  0
  7 13  1  1  0  0  0
  8  6  2  0  0  0  0
  9 26  2  0  0  0  0
  9 17  1  0  0  0  0
 11  2  1  0  0  0  0
 11  7  1  0  0  0  0
 12 15  1  0  0  0  0
 12 17  1  0  0  0  0
 14  4  1  0  0  0  0
 15 21  1  0  0  0  0
 16  7  1  0  0  0  0
 17 27  2  0  0  0  0
 18 22  2  0  0  0  0
 18  1  1  0  0  0  0
 19 16  1  0  0  0  0
 20 18  1  0  0  0  0
 21 11  1  0  0  0  0
 23 24  2  0  0  0  0
 25  8  1  0  0  0  0
 25 20  2  0  0  0  0
 26 23  1  0  0  0  0
 27 24  1  0  0  0  0
 27  2  1  0  0  0  0
 28  9  1  0  0  0  0
 29 14  1  0  0  0  0
 30 25  1  0  0  0  0
 31 19  1  0  0  0  0
 31 33  1  0  0  0  0
 33 32  1  0  0  0  0
 34 35  1  0  0  0  0
 34 33  1  0  0  0  0
 36 35  1  0  0  0  0
 37 36  1  0  0  0  0
 38 39  1  0  0  0  0
 39 37  1  0  0  0  0
M  END
>  <MODEL>
7

>  <REMARK>
 VINA RESULT:      -1.3      1.471      2.152
  Name = 
  7 active torsions:
  status: ('A' for Active; 'I' for Inactive)
    1  A    between atoms: C_3  and  N_23
    2  A    between atoms: C_3  and  N_27
    3  A    between atoms: N_9  and  N_27
    4  A    between atoms: N_9  and  C_32
    5  A    between atoms: N_22  and  N_25
    6  A    between atoms: N_25  and  C_39
    7  A    between atoms: C_32  and  C_39
                            x       y       z     vdW  Elec       q    Type
                         _______ _______ _______ _____ _____    ______ ____

>  <TORSDO>
F 7

$$$$
