=
 OpenBabel11052411373D

 43 46  0  0  1  0  0  0  0  0999 V2000
  162.4160  210.9450  148.2350 C   0  0  0  0  0  2  0  0  0  0  0  0
  160.8830  212.4680  146.9940 C   0  0  0  0  0  0  0  0  0  0  0  0
  160.4510  211.9650  145.8370 C   0  0  0  0  0  3  0  0  0  0  0  0
  161.6330  213.1500  149.0590 C   0  0  2  0  0  3  0  0  0  0  0  0
  161.2970  214.1350  147.6240 S   0  0  0  0  0  0  0  0  0  0  0  0
  161.2300  211.8950  148.3580 C   0  0  2  0  0  3  0  0  0  0  0  0
  159.6160  212.8030  142.2750 C   0  0  1  0  0  3  0  0  0  0  0  0
  158.5820  213.6570  143.0010 C   0  0  0  0  0  3  0  0  0  0  0  0
  162.0740  212.3710  143.0440 C   0  0  0  0  0  2  0  0  0  0  0  0
  158.8900  213.5910  144.4910 C   0  0  0  0  0  3  0  0  0  0  0  0
  160.1990  212.8380  144.6470 C   0  0  2  0  0  0  0  0  0  0  0  0
  160.2500  213.5890  141.1310 C   0  0  0  0  0  1  0  0  0  0  0  0
  160.5880  212.2430  143.3260 C   0  0  2  0  0  0  0  0  0  0  0  0
  161.4090  213.3970  143.9360 C   0  0  2  0  0  3  0  0  0  0  0  0
  159.8620  213.7190  150.9760 C   0  0  0  0  0  0  0  0  0  0  0  0
  160.6600  213.4640  150.1100 C   0  0  0  0  0  0  0  0  0  0  0  0
  159.2510  213.3440  153.1950 O   0  0  0  0  0  1  0  0  0  0  0  0
  158.8960  214.0250  152.0310 C   0  0  2  0  0  3  0  0  0  0  0  0
  157.5060  213.6010  151.5850 C   0  0  0  0  0  2  0  0  0  0  0  0
  157.0260  214.4420  150.4130 C   0  0  0  0  0  2  0  0  0  0  0  0
  156.4360  213.5540  149.3330 C   0  0  0  0  0  2  0  0  0  0  0  0
  157.4290  213.4070  148.2010 C   0  0  0  0  0  1  0  0  0  0  0  0
  161.0190  209.0680  148.7180 O   0  0  0  0  0  1  0  0  0  0  0  0
  162.2090  209.7030  149.0840 C   0  0  2  0  0  3  0  0  0  0  0  0
  162.1440  210.1060  150.5470 C   0  0  0  0  0  2  0  0  0  0  0  0
  161.7550  208.9220  151.4240 C   0  0  1  0  0  3  0  0  0  0  0  0
  160.4180  209.0200  151.8150 O   0  0  0  0  0  1  0  0  0  0  0  0
  162.0180  207.5940  150.7160 C   0  0  0  0  0  2  0  0  0  0  0  0
  161.7830  206.4060  151.6010 C   0  0  0  0  0  0  0  0  0  0  0  0
  161.9580  206.5260  152.8440 O   0  0  0  0  0  0  0  0  0  0  0  0
  161.3790  205.1110  151.0240 C   0  0  0  0  0  0  0  0  0  0  0  0
  161.3090  203.7760  151.9810 S   0  0  0  0  0  0  0  0  0  0  0  0
  160.8740  205.0760  149.6810 N   0  0  0  0  0  2  0  0  0  0  0  0
  160.6370  202.4970  149.0040 S   0  0  0  0  0  0  0  0  0  0  0  0
  161.0900  204.0510  148.7030 C   0  0  0  0  0  0  0  0  0  0  0  0
  162.6190  205.6170  147.7170 O   0  0  0  0  0  1  0  0  0  0  0  0
  162.0580  204.3430  147.5940 C   0  0  2  0  0  3  0  0  0  0  0  0
  161.4080  202.7660  145.9180 O   0  0  0  0  0  1  0  0  0  0  0  0
  161.4380  204.1290  146.2130 C   0  0  2  0  0  3  0  0  0  0  0  0
  162.1890  204.8820  145.1200 C   0  0  0  0  0  2  0  0  0  0  0  0
  161.3940  205.8310  143.0850 O   0  0  0  0  0  0  0  0  0  0  0  0
  161.2490  205.7250  144.3300 C   0  0  0  0  0  0  0  0  0  0  0  0
  160.1950  206.3690  144.9640 O   0  0  0  0  0  1  0  0  0  0  0  0
  1 24  1  0  0  0  0
  2  5  1  0  0  0  0
  2  6  1  0  0  0  0
  3  2  2  0  0  0  0
  4 16  1  1  0  0  0
  5  4  1  0  0  0  0
  6  1  1  6  0  0  0
  6  4  1  0  0  0  0
  7 12  1  6  0  0  0
  7  8  1  0  0  0  0
  7 13  1  0  0  0  0
  8 10  2  0  0  0  0
 10 11  1  0  0  0  0
 11  3  1  1  0  0  0
 13  9  1  6  0  0  0
 13 14  1  0  0  0  0
 13 11  1  0  0  0  0
 14  9  1  1  0  0  0
 14 11  1  0  0  0  0
 15 18  1  0  0  0  0
 16 15  3  0  0  0  0
 18 17  1  1  0  0  0
 19 18  1  0  0  0  0
 20 19  1  0  0  0  0
 21 20  1  0  0  0  0
 22 21  1  0  0  0  0
 24 23  1  6  0  0  0
 24 25  1  0  0  0  0
 25 26  1  0  0  0  0
 26 27  1  6  0  0  0
 28 26  1  0  0  0  0
 28 29  1  0  0  0  0
 29 30  2  0  0  0  0
 31 29  1  0  0  0  0
 31 32  2  0  0  0  0
 33 31  1  0  0  0  0
 35 34  2  0  0  0  0
 35 33  1  0  0  0  0
 37 36  1  6  0  0  0
 37 35  1  0  0  0  0
 39 38  1  6  0  0  0
 39 37  1  0  0  0  0
 40 39  1  0  0  0  0
 41 42  2  0  0  0  0
 42 43  1  0  0  0  0
 42 40  1  0  0  0  0
M  END
>  <MODEL>
1

>  <REMARK>
 VINA RESULT:      -5.5      0.000      0.000
  Name = 
  19 active torsions:
  status: ('A' for Active; 'I' for Inactive)
    1  A    between atoms: N_1  and  C_3
    2  A    between atoms: N_1  and  C_39
    3  A    between atoms: C_3  and  C_22
    4  A    between atoms: C_6  and  C_35
    5  A    between atoms: C_6  and  C_37
    6  A    between atoms: C_7  and  C_30
    7  A    between atoms: C_8  and  C_26
    8  A    between atoms: C_10  and  C_32
    9  A    between atoms: C_13  and  C_16
   10  A    between atoms: C_13  and  C_22
   11  A    between atoms: C_15  and  C_36
   12  A    between atoms: C_16  and  C_17
   13  A    between atoms: C_17  and  C_37
   14  A    between atoms: C_18  and  C_19
   15  A    between atoms: C_19  and  C_43
   16  A    between atoms: C_20  and  C_26
   17  A    between atoms: C_20  and  C_30
   18  A    between atoms: C_39  and  C_40
   19  A    between atoms: C_40  and  C_43
                            x       y       z     vdW  Elec       q    Type
                         _______ _______ _______ _____ _____    ______ ____

>  <TORSDO>
F 19

$$$$
=
 OpenBabel11052411373D

 43 46  0  0  1  0  0  0  0  0999 V2000
  161.0950  209.1840  152.1170 C   0  0  0  0  0  2  0  0  0  0  0  0
  161.2710  207.5920  150.2080 C   0  0  0  0  0  0  0  0  0  0  0  0
  160.5960  206.4570  150.3950 C   0  0  0  0  0  3  0  0  0  0  0  0
  162.2960  209.6400  149.9960 C   0  0  2  0  0  3  0  0  0  0  0  0
  162.8240  208.0690  149.3660 S   0  0  0  0  0  0  0  0  0  0  0  0
  161.0670  209.0470  150.6000 C   0  0  2  0  0  3  0  0  0  0  0  0
  160.4040  202.8860  149.2550 C   0  0  1  0  0  3  0  0  0  0  0  0
  161.0430  203.5250  148.0270 C   0  0  0  0  0  3  0  0  0  0  0  0
  160.8850  203.5090  151.7450 C   0  0  0  0  0  2  0  0  0  0  0  0
  161.3770  204.9700  148.3780 C   0  0  0  0  0  3  0  0  0  0  0  0
  161.0930  205.1510  149.8580 C   0  0  2  0  0  0  0  0  0  0  0  0
  161.0920  201.5660  149.5890 C   0  0  0  0  0  1  0  0  0  0  0  0
  160.3840  203.9360  150.3780 C   0  0  2  0  0  0  0  0  0  0  0  0
  161.8280  204.2470  150.8200 C   0  0  2  0  0  3  0  0  0  0  0  0
  161.6170  211.2410  147.9670 C   0  0  0  0  0  0  0  0  0  0  0  0
  161.9250  210.5170  148.8810 C   0  0  0  0  0  0  0  0  0  0  0  0
  161.2190  213.4410  147.3070 O   0  0  0  0  0  1  0  0  0  0  0  0
  161.2390  212.1200  146.8610 C   0  0  2  0  0  3  0  0  0  0  0  0
  159.8650  211.7250  146.3450 C   0  0  0  0  0  2  0  0  0  0  0  0
  159.1470  212.9160  145.7290 C   0  0  0  0  0  2  0  0  0  0  0  0
  157.6880  212.9250  146.1450 C   0  0  0  0  0  2  0  0  0  0  0  0
  157.5820  212.6260  147.6240 C   0  0  0  0  0  1  0  0  0  0  0  0
  162.0120  210.6980  153.7210 O   0  0  0  0  0  1  0  0  0  0  0  0
  161.2850  210.6330  152.5300 C   0  0  2  0  0  3  0  0  0  0  0  0
  159.9230  211.2780  152.7260 C   0  0  0  0  0  2  0  0  0  0  0  0
  159.8830  212.6700  152.1080 C   0  0  1  0  0  3  0  0  0  0  0  0
  160.2250  212.6170  150.7560 O   0  0  0  0  0  1  0  0  0  0  0  0
  158.5150  213.3240  152.2960 C   0  0  0  0  0  2  0  0  0  0  0  0
  158.1630  213.5350  153.7380 C   0  0  0  0  0  0  0  0  0  0  0  0
  158.9890  214.1180  154.4900 O   0  0  0  0  0  0  0  0  0  0  0  0
  156.8800  213.0440  154.2750 C   0  0  0  0  0  0  0  0  0  0  0  0
  155.4830  213.8190  153.8900 S   0  0  0  0  0  0  0  0  0  0  0  0
  156.8540  211.7890  154.9710 N   0  0  0  0  0  2  0  0  0  0  0  0
  155.4700  211.7040  157.2610 S   0  0  0  0  0  0  0  0  0  0  0  0
  156.8620  211.5880  156.3900 C   0  0  0  0  0  0  0  0  0  0  0  0
  158.6240  212.9680  157.2600 O   0  0  0  0  0  1  0  0  0  0  0  0
  158.1870  211.6510  157.0920 C   0  0  2  0  0  3  0  0  0  0  0  0
  158.7160  209.5300  156.1220 O   0  0  0  0  0  1  0  0  0  0  0  0
  159.2470  210.7880  156.4060 C   0  0  2  0  0  3  0  0  0  0  0  0
  160.5080  210.6410  157.2520 C   0  0  0  0  0  2  0  0  0  0  0  0
  160.8870  208.7420  155.8650 O   0  0  0  0  0  0  0  0  0  0  0  0
  161.3390  209.5110  156.7530 C   0  0  0  0  0  0  0  0  0  0  0  0
  162.6230  209.3230  157.2460 O   0  0  0  0  0  1  0  0  0  0  0  0
  1 24  1  0  0  0  0
  2  3  2  0  0  0  0
  2  6  1  0  0  0  0
  4 16  1  6  0  0  0
  4  6  1  0  0  0  0
  5  4  1  0  0  0  0
  5  2  1  0  0  0  0
  6  1  1  1  0  0  0
  7 12  1  1  0  0  0
  7 13  1  0  0  0  0
  8 10  2  0  0  0  0
  8  7  1  0  0  0  0
 10 11  1  0  0  0  0
 11 13  1  0  0  0  0
 11  3  1  1  0  0  0
 11 14  1  0  0  0  0
 13 14  1  0  0  0  0
 13  9  1  1  0  0  0
 14  9  1  1  0  0  0
 15 16  3  0  0  0  0
 18 17  1  1  0  0  0
 18 15  1  0  0  0  0
 19 18  1  0  0  0  0
 20 21  1  0  0  0  0
 20 19  1  0  0  0  0
 21 22  1  0  0  0  0
 24 25  1  0  0  0  0
 24 23  1  1  0  0  0
 26 27  1  6  0  0  0
 26 28  1  0  0  0  0
 26 25  1  0  0  0  0
 28 29  1  0  0  0  0
 29 31  1  0  0  0  0
 29 30  2  0  0  0  0
 31 33  1  0  0  0  0
 32 31  2  0  0  0  0
 33 35  1  0  0  0  0
 35 37  1  0  0  0  0
 35 34  2  0  0  0  0
 37 36  1  6  0  0  0
 39 38  1  1  0  0  0
 39 37  1  0  0  0  0
 39 40  1  0  0  0  0
 41 42  2  0  0  0  0
 42 43  1  0  0  0  0
 42 40  1  0  0  0  0
M  END
>  <MODEL>
2

>  <REMARK>
 VINA RESULT:      -5.2      4.037      9.237
  Name = 
  19 active torsions:
  status: ('A' for Active; 'I' for Inactive)
    1  A    between atoms: N_1  and  C_3
    2  A    between atoms: N_1  and  C_39
    3  A    between atoms: C_3  and  C_22
    4  A    between atoms: C_6  and  C_35
    5  A    between atoms: C_6  and  C_37
    6  A    between atoms: C_7  and  C_30
    7  A    between atoms: C_8  and  C_26
    8  A    between atoms: C_10  and  C_32
    9  A    between atoms: C_13  and  C_16
   10  A    between atoms: C_13  and  C_22
   11  A    between atoms: C_15  and  C_36
   12  A    between atoms: C_16  and  C_17
   13  A    between atoms: C_17  and  C_37
   14  A    between atoms: C_18  and  C_19
   15  A    between atoms: C_19  and  C_43
   16  A    between atoms: C_20  and  C_26
   17  A    between atoms: C_20  and  C_30
   18  A    between atoms: C_39  and  C_40
   19  A    between atoms: C_40  and  C_43
                            x       y       z     vdW  Elec       q    Type
                         _______ _______ _______ _____ _____    ______ ____

>  <TORSDO>
F 19

$$$$
=
 OpenBabel11052411373D

 43 46  0  0  1  0  0  0  0  0999 V2000
  162.9820  209.5640  150.2210 C   0  0  0  0  0  2  0  0  0  0  0  0
  161.9120  207.7120  151.4990 C   0  0  0  0  0  0  0  0  0  0  0  0
  162.3300  206.4990  151.1340 C   0  0  0  0  0  3  0  0  0  0  0  0
  161.3730  209.8710  152.0830 C   0  0  2  0  0  3  0  0  0  0  0  0
  160.3410  208.4300  152.1010 S   0  0  0  0  0  0  0  0  0  0  0  0
  162.5500  209.0880  151.6030 C   0  0  2  0  0  3  0  0  0  0  0  0
  161.2640  202.9410  150.5980 C   0  0  1  0  0  3  0  0  0  0  0  0
  160.9250  203.1020  152.0760 C   0  0  0  0  0  3  0  0  0  0  0  0
  160.9760  204.7550  148.7420 C   0  0  0  0  0  2  0  0  0  0  0  0
  161.1200  204.5690  152.4380 C   0  0  0  0  0  3  0  0  0  0  0  0
  161.4140  205.3160  151.1500 C   0  0  2  0  0  0  0  0  0  0  0  0
  160.1430  202.2060  149.8700 C   0  0  0  0  0  1  0  0  0  0  0  0
  161.6300  204.3270  150.0430 C   0  0  2  0  0  0  0  0  0  0  0  0
  160.3820  205.2320  150.0500 C   0  0  2  0  0  3  0  0  0  0  0  0
  161.8050  210.6930  154.5880 C   0  0  0  0  0  0  0  0  0  0  0  0
  161.6090  210.3240  153.4580 C   0  0  0  0  0  0  0  0  0  0  0  0
  162.6050  210.0890  156.6940 O   0  0  0  0  0  1  0  0  0  0  0  0
  162.0440  211.1350  155.9620 C   0  0  2  0  0  3  0  0  0  0  0  0
  160.7290  211.5640  156.5930 C   0  0  0  0  0  2  0  0  0  0  0  0
  159.6990  210.4460  156.5270 C   0  0  0  0  0  2  0  0  0  0  0  0
  158.3810  210.9750  155.9920 C   0  0  0  0  0  2  0  0  0  0  0  0
  158.5620  212.4010  155.5210 C   0  0  0  0  0  1  0  0  0  0  0  0
  161.3770  209.5370  148.4510 O   0  0  0  0  0  1  0  0  0  0  0  0
  161.8530  210.3000  149.5200 C   0  0  2  0  0  3  0  0  0  0  0  0
  162.3720  211.6320  149.0050 C   0  0  0  0  0  2  0  0  0  0  0  0
  161.2290  212.6100  148.7680 C   0  0  1  0  0  3  0  0  0  0  0  0
  161.6970  213.9260  148.7830 O   0  0  0  0  0  1  0  0  0  0  0  0
  160.4990  212.3090  147.4600 C   0  0  0  0  0  2  0  0  0  0  0  0
  159.3740  213.2630  147.1880 C   0  0  0  0  0  0  0  0  0  0  0  0
  158.5750  213.5470  148.1200 O   0  0  0  0  0  0  0  0  0  0  0  0
  159.1900  213.8390  145.8430 C   0  0  0  0  0  0  0  0  0  0  0  0
  157.6780  213.9680  145.2100 S   0  0  0  0  0  0  0  0  0  0  0  0
  160.3120  214.4480  145.1890 N   0  0  0  0  0  2  0  0  0  0  0  0
  162.7540  213.3660  145.0010 S   0  0  0  0  0  0  0  0  0  0  0  0
  161.2950  213.7960  144.3730 C   0  0  0  0  0  0  0  0  0  0  0  0
  159.8760  214.4090  142.5340 O   0  0  0  0  0  1  0  0  0  0  0  0
  161.1160  213.8650  142.8840 C   0  0  2  0  0  3  0  0  0  0  0  0
  162.5940  212.5100  141.5810 O   0  0  0  0  0  1  0  0  0  0  0  0
  161.3490  212.5120  142.2110 C   0  0  2  0  0  3  0  0  0  0  0  0
  160.2550  212.1730  141.2030 C   0  0  0  0  0  2  0  0  0  0  0  0
  161.1000  210.1040  140.3780 O   0  0  0  0  0  1  0  0  0  0  0  0
  160.7960  211.2980  140.1250 C   0  0  0  0  0  0  0  0  0  0  0  0
  160.9370  211.7920  138.8360 O   0  0  0  0  0  0  0  0  0  0  0  0
  2  6  1  0  0  0  0
  2  5  1  0  0  0  0
  3  2  2  0  0  0  0
  4  5  1  0  0  0  0
  4 16  1  1  0  0  0
  6  1  1  6  0  0  0
  6  4  1  0  0  0  0
  7 12  1  6  0  0  0
  7  8  1  0  0  0  0
  8 10  2  0  0  0  0
 11  3  1  1  0  0  0
 11 10  1  0  0  0  0
 13  9  1  6  0  0  0
 13 14  1  0  0  0  0
 13  7  1  0  0  0  0
 13 11  1  0  0  0  0
 14  9  1  6  0  0  0
 14 11  1  0  0  0  0
 15 18  1  0  0  0  0
 16 15  3  0  0  0  0
 18 19  1  0  0  0  0
 18 17  1  1  0  0  0
 20 19  1  0  0  0  0
 21 20  1  0  0  0  0
 22 21  1  0  0  0  0
 24 23  1  6  0  0  0
 24  1  1  0  0  0  0
 25 24  1  0  0  0  0
 26 27  1  6  0  0  0
 26 25  1  0  0  0  0
 28 26  1  0  0  0  0
 29 28  1  0  0  0  0
 29 30  2  0  0  0  0
 31 29  1  0  0  0  0
 32 31  2  0  0  0  0
 33 31  1  0  0  0  0
 35 34  2  0  0  0  0
 35 33  1  0  0  0  0
 37 36  1  1  0  0  0
 37 35  1  0  0  0  0
 39 38  1  6  0  0  0
 39 37  1  0  0  0  0
 40 39  1  0  0  0  0
 42 41  1  0  0  0  0
 42 40  1  0  0  0  0
 43 42  2  0  0  0  0
M  END
>  <MODEL>
3

>  <REMARK>
 VINA RESULT:      -4.8      3.821      8.609
  Name = 
  19 active torsions:
  status: ('A' for Active; 'I' for Inactive)
    1  A    between atoms: N_1  and  C_3
    2  A    between atoms: N_1  and  C_39
    3  A    between atoms: C_3  and  C_22
    4  A    between atoms: C_6  and  C_35
    5  A    between atoms: C_6  and  C_37
    6  A    between atoms: C_7  and  C_30
    7  A    between atoms: C_8  and  C_26
    8  A    between atoms: C_10  and  C_32
    9  A    between atoms: C_13  and  C_16
   10  A    between atoms: C_13  and  C_22
   11  A    between atoms: C_15  and  C_36
   12  A    between atoms: C_16  and  C_17
   13  A    between atoms: C_17  and  C_37
   14  A    between atoms: C_18  and  C_19
   15  A    between atoms: C_19  and  C_43
   16  A    between atoms: C_20  and  C_26
   17  A    between atoms: C_20  and  C_30
   18  A    between atoms: C_39  and  C_40
   19  A    between atoms: C_40  and  C_43
                            x       y       z     vdW  Elec       q    Type
                         _______ _______ _______ _____ _____    ______ ____

>  <TORSDO>
F 19

$$$$
=
 OpenBabel11052411373D

 43 46  0  0  1  0  0  0  0  0999 V2000
  162.0280  209.0010  153.7620 C   0  0  0  0  0  2  0  0  0  0  0  0
  160.6470  211.0270  154.2100 C   0  0  0  0  0  0  0  0  0  0  0  0
  160.7720  211.4930  155.4540 C   0  0  0  0  0  3  0  0  0  0  0  0
  160.6220  210.1620  152.0790 C   0  0  2  0  0  3  0  0  0  0  0  0
  159.3030  210.9390  152.9720 S   0  0  0  0  0  0  0  0  0  0  0  0
  161.5740  210.3490  153.2140 C   0  0  2  0  0  3  0  0  0  0  0  0
  157.3540  212.9850  155.8750 C   0  0  1  0  0  3  0  0  0  0  0  0
  157.3110  211.9090  156.9540 C   0  0  0  0  0  3  0  0  0  0  0  0
  159.4210  214.4470  155.2350 C   0  0  0  0  0  2  0  0  0  0  0  0
  158.7050  211.3060  157.0630 C   0  0  0  0  0  3  0  0  0  0  0  0
  159.6210  212.1260  156.1720 C   0  0  2  0  0  0  0  0  0  0  0  0
  156.7580  214.2890  156.3970 C   0  0  0  0  0  1  0  0  0  0  0  0
  158.7950  213.0690  155.3480 C   0  0  2  0  0  0  0  0  0  0  0  0
  159.7200  213.6060  156.4580 C   0  0  2  0  0  3  0  0  0  0  0  0
  161.3500  211.7070  150.0250 C   0  0  0  0  0  0  0  0  0  0  0  0
  161.0220  211.0120  150.9530 C   0  0  0  0  0  0  0  0  0  0  0  0
  161.1610  213.8040  149.0230 O   0  0  0  0  0  1  0  0  0  0  0  0
  161.7500  212.5470  148.8960 C   0  0  2  0  0  3  0  0  0  0  0  0
  161.3060  211.8950  147.5960 C   0  0  0  0  0  2  0  0  0  0  0  0
  160.0430  212.5480  147.0580 C   0  0  0  0  0  2  0  0  0  0  0  0
  160.0200  212.4840  145.5430 C   0  0  0  0  0  2  0  0  0  0  0  0
  158.6300  212.8150  145.0440 C   0  0  0  0  0  1  0  0  0  0  0  0
  160.3400  208.0870  155.1850 O   0  0  0  0  0  1  0  0  0  0  0  0
  160.8560  208.0420  153.8870 C   0  0  2  0  0  3  0  0  0  0  0  0
  161.3320  206.6330  153.5750 C   0  0  0  0  0  2  0  0  0  0  0  0
  161.8270  206.5290  152.1390 C   0  0  1  0  0  3  0  0  0  0  0  0
  163.0480  205.8520  152.0890 O   0  0  0  0  0  1  0  0  0  0  0  0
  160.7940  205.8510  151.2400 C   0  0  0  0  0  2  0  0  0  0  0  0
  160.7750  204.3590  151.3970 C   0  0  0  0  0  0  0  0  0  0  0  0
  160.4620  203.8660  152.5130 O   0  0  0  0  0  0  0  0  0  0  0  0
  161.1430  203.4830  150.2690 C   0  0  0  0  0  0  0  0  0  0  0  0
  160.9870  201.8540  150.4160 S   0  0  0  0  0  0  0  0  0  0  0  0
  161.4530  204.0780  149.0000 N   0  0  0  0  0  2  0  0  0  0  0  0
  160.9950  201.9110  147.4970 S   0  0  0  0  0  0  0  0  0  0  0  0
  161.1840  203.5330  147.7020 C   0  0  0  0  0  0  0  0  0  0  0  0
  162.8050  204.3740  146.1420 O   0  0  0  0  0  1  0  0  0  0  0  0
  161.4570  204.4070  146.5130 C   0  0  2  0  0  3  0  0  0  0  0  0
  160.0690  206.1810  145.7080 O   0  0  0  0  0  1  0  0  0  0  0  0
  160.9650  205.8400  146.7220 C   0  0  2  0  0  3  0  0  0  0  0  0
  162.1120  206.8440  146.7630 C   0  0  0  0  0  2  0  0  0  0  0  0
  163.0510  206.9840  148.9470 O   0  0  0  0  0  1  0  0  0  0  0  0
  162.2250  207.4480  148.1190 C   0  0  0  0  0  0  0  0  0  0  0  0
  161.4400  208.5410  148.4600 O   0  0  0  0  0  0  0  0  0  0  0  0
  1 24  1  0  0  0  0
  2  3  2  0  0  0  0
  4 16  1  6  0  0  0
  4  5  1  0  0  0  0
  4  6  1  0  0  0  0
  5  2  1  0  0  0  0
  6  1  1  1  0  0  0
  6  2  1  0  0  0  0
  7 12  1  1  0  0  0
  7  8  1  0  0  0  0
  8 10  2  0  0  0  0
 11  3  1  6  0  0  0
 11 14  1  0  0  0  0
 11 10  1  0  0  0  0
 13  9  1  6  0  0  0
 13  7  1  0  0  0  0
 13 11  1  0  0  0  0
 13 14  1  0  0  0  0
 14  9  1  6  0  0  0
 15 16  3  0  0  0  0
 18 17  1  1  0  0  0
 18 15  1  0  0  0  0
 19 18  1  0  0  0  0
 20 19  1  0  0  0  0
 21 20  1  0  0  0  0
 22 21  1  0  0  0  0
 24 23  1  1  0  0  0
 25 24  1  0  0  0  0
 26 27  1  1  0  0  0
 26 25  1  0  0  0  0
 28 29  1  0  0  0  0
 28 26  1  0  0  0  0
 29 30  2  0  0  0  0
 31 32  2  0  0  0  0
 31 29  1  0  0  0  0
 33 31  1  0  0  0  0
 34 35  2  0  0  0  0
 35 33  1  0  0  0  0
 37 36  1  1  0  0  0
 37 39  1  0  0  0  0
 37 35  1  0  0  0  0
 39 38  1  6  0  0  0
 39 40  1  0  0  0  0
 40 42  1  0  0  0  0
 42 43  2  0  0  0  0
 42 41  1  0  0  0  0
M  END
>  <MODEL>
4

>  <REMARK>
 VINA RESULT:      -4.8      2.910      6.951
  Name = 
  19 active torsions:
  status: ('A' for Active; 'I' for Inactive)
    1  A    between atoms: N_1  and  C_3
    2  A    between atoms: N_1  and  C_39
    3  A    between atoms: C_3  and  C_22
    4  A    between atoms: C_6  and  C_35
    5  A    between atoms: C_6  and  C_37
    6  A    between atoms: C_7  and  C_30
    7  A    between atoms: C_8  and  C_26
    8  A    between atoms: C_10  and  C_32
    9  A    between atoms: C_13  and  C_16
   10  A    between atoms: C_13  and  C_22
   11  A    between atoms: C_15  and  C_36
   12  A    between atoms: C_16  and  C_17
   13  A    between atoms: C_17  and  C_37
   14  A    between atoms: C_18  and  C_19
   15  A    between atoms: C_19  and  C_43
   16  A    between atoms: C_20  and  C_26
   17  A    between atoms: C_20  and  C_30
   18  A    between atoms: C_39  and  C_40
   19  A    between atoms: C_40  and  C_43
                            x       y       z     vdW  Elec       q    Type
                         _______ _______ _______ _____ _____    ______ ____

>  <TORSDO>
F 19

$$$$
=
 OpenBabel11052411373D

 43 46  0  0  1  0  0  0  0  0999 V2000
  162.9070  208.5040  149.7290 C   0  0  0  0  0  2  0  0  0  0  0  0
  161.7380  206.3070  149.8400 C   0  0  0  0  0  0  0  0  0  0  0  0
  162.2690  205.3790  149.0410 C   0  0  0  0  0  3  0  0  0  0  0  0
  161.0060  207.9820  151.2350 C   0  0  2  0  0  3  0  0  0  0  0  0
  160.0570  206.7200  150.4310 S   0  0  0  0  0  0  0  0  0  0  0  0
  162.2820  207.4680  150.6560 C   0  0  2  0  0  3  0  0  0  0  0  0
  161.5040  202.3440  146.9700 C   0  0  1  0  0  3  0  0  0  0  0  0
  160.7550  201.9900  148.2490 C   0  0  0  0  0  3  0  0  0  0  0  0
  161.7030  204.7200  145.9040 C   0  0  0  0  0  2  0  0  0  0  0  0
  160.7950  203.2090  149.1610 C   0  0  0  0  0  3  0  0  0  0  0  0
  161.4210  204.3440  148.3700 C   0  0  2  0  0  0  0  0  0  0  0  0
  160.6590  202.0080  145.7450 C   0  0  0  0  0  1  0  0  0  0  0  0
  161.9730  203.8040  147.0840 C   0  0  2  0  0  0  0  0  0  0  0  0
  160.7480  204.7400  147.0770 C   0  0  2  0  0  3  0  0  0  0  0  0
  160.9830  207.5750  153.8760 C   0  0  0  0  0  0  0  0  0  0  0  0
  160.9960  207.7570  152.6840 C   0  0  0  0  0  0  0  0  0  0  0  0
  159.6570  207.1180  155.7380 O   0  0  0  0  0  1  0  0  0  0  0  0
  160.9660  207.3590  155.3220 C   0  0  2  0  0  3  0  0  0  0  0  0
  161.5160  208.5890  156.0260 C   0  0  0  0  0  2  0  0  0  0  0  0
  161.3450  209.8340  155.1690 C   0  0  0  0  0  2  0  0  0  0  0  0
  160.4640  210.8460  155.8770 C   0  0  0  0  0  2  0  0  0  0  0  0
  159.0270  210.6570  155.4420 C   0  0  0  0  0  1  0  0  0  0  0  0
  161.3930  208.6620  147.8880 O   0  0  0  0  0  1  0  0  0  0  0  0
  161.8370  209.3280  149.0330 C   0  0  2  0  0  3  0  0  0  0  0  0
  162.4210  210.6770  148.6460 C   0  0  0  0  0  2  0  0  0  0  0  0
  161.3290  211.7330  148.5330 C   0  0  1  0  0  3  0  0  0  0  0  0
  161.7900  212.9670  148.9960 O   0  0  0  0  0  1  0  0  0  0  0  0
  160.8140  211.8510  147.0990 C   0  0  0  0  0  2  0  0  0  0  0  0
  159.7470  212.8940  146.9480 C   0  0  0  0  0  0  0  0  0  0  0  0
  159.0300  213.1830  147.9430 O   0  0  0  0  0  0  0  0  0  0  0  0
  159.5230  213.5520  145.6480 C   0  0  0  0  0  0  0  0  0  0  0  0
  157.9930  213.9130  145.1680 S   0  0  0  0  0  0  0  0  0  0  0  0
  160.6550  214.0350  144.9100 N   0  0  0  0  0  2  0  0  0  0  0  0
  163.1330  213.3590  144.1570 S   0  0  0  0  0  0  0  0  0  0  0  0
  161.4940  213.2830  144.0250 C   0  0  0  0  0  0  0  0  0  0  0  0
  160.2030  211.5410  142.9930 O   0  0  0  0  0  1  0  0  0  0  0  0
  160.8720  212.7470  142.7680 C   0  0  2  0  0  3  0  0  0  0  0  0
  161.6780  213.6570  140.7090 O   0  0  0  0  0  1  0  0  0  0  0  0
  161.8830  212.6280  141.6270 C   0  0  2  0  0  3  0  0  0  0  0  0
  161.8010  211.2780  140.9220 C   0  0  0  0  0  2  0  0  0  0  0  0
  159.7950  211.4950  139.6570 O   0  0  0  0  0  1  0  0  0  0  0  0
  161.0500  211.4050  139.6430 C   0  0  0  0  0  0  0  0  0  0  0  0
  161.7360  211.4550  138.4370 O   0  0  0  0  0  0  0  0  0  0  0  0
  2  5  1  0  0  0  0
  2  6  1  0  0  0  0
  3  2  2  0  0  0  0
  4 16  1  1  0  0  0
  5  4  1  0  0  0  0
  6  1  1  6  0  0  0
  6  4  1  0  0  0  0
  7 12  1  6  0  0  0
  7 13  1  0  0  0  0
  7  8  1  0  0  0  0
  8 10  2  0  0  0  0
 11  3  1  1  0  0  0
 11 10  1  0  0  0  0
 13  9  1  6  0  0  0
 13 11  1  0  0  0  0
 14  9  1  6  0  0  0
 14 13  1  0  0  0  0
 14 11  1  0  0  0  0
 15 18  1  0  0  0  0
 16 15  3  0  0  0  0
 18 17  1  1  0  0  0
 18 19  1  0  0  0  0
 20 21  1  0  0  0  0
 20 19  1  0  0  0  0
 22 21  1  0  0  0  0
 24 23  1  6  0  0  0
 24  1  1  0  0  0  0
 25 24  1  0  0  0  0
 26 25  1  0  0  0  0
 26 27  1  6  0  0  0
 28 26  1  0  0  0  0
 29 28  1  0  0  0  0
 29 30  2  0  0  0  0
 31 29  1  0  0  0  0
 32 31  2  0  0  0  0
 33 31  1  0  0  0  0
 35 34  2  0  0  0  0
 35 33  1  0  0  0  0
 37 36  1  1  0  0  0
 37 35  1  0  0  0  0
 39 38  1  6  0  0  0
 39 37  1  0  0  0  0
 40 39  1  0  0  0  0
 42 41  1  0  0  0  0
 42 40  1  0  0  0  0
 43 42  2  0  0  0  0
M  END
>  <MODEL>
5

>  <REMARK>
 VINA RESULT:      -4.6      3.598      8.452
  Name = 
  19 active torsions:
  status: ('A' for Active; 'I' for Inactive)
    1  A    between atoms: N_1  and  C_3
    2  A    between atoms: N_1  and  C_39
    3  A    between atoms: C_3  and  C_22
    4  A    between atoms: C_6  and  C_35
    5  A    between atoms: C_6  and  C_37
    6  A    between atoms: C_7  and  C_30
    7  A    between atoms: C_8  and  C_26
    8  A    between atoms: C_10  and  C_32
    9  A    between atoms: C_13  and  C_16
   10  A    between atoms: C_13  and  C_22
   11  A    between atoms: C_15  and  C_36
   12  A    between atoms: C_16  and  C_17
   13  A    between atoms: C_17  and  C_37
   14  A    between atoms: C_18  and  C_19
   15  A    between atoms: C_19  and  C_43
   16  A    between atoms: C_20  and  C_26
   17  A    between atoms: C_20  and  C_30
   18  A    between atoms: C_39  and  C_40
   19  A    between atoms: C_40  and  C_43
                            x       y       z     vdW  Elec       q    Type
                         _______ _______ _______ _____ _____    ______ ____

>  <TORSDO>
F 19

$$$$
=
 OpenBabel11052411373D

 43 46  0  0  1  0  0  0  0  0999 V2000
  161.5190  211.2870  150.4100 C   0  0  0  0  0  2  0  0  0  0  0  0
  161.4520  208.9100  151.1530 C   0  0  0  0  0  0  0  0  0  0  0  0
  161.8950  208.0500  150.2340 C   0  0  0  0  0  3  0  0  0  0  0  0
  160.8170  210.5250  152.6640 C   0  0  2  0  0  3  0  0  0  0  0  0
  160.1770  208.8840  152.4650 S   0  0  0  0  0  0  0  0  0  0  0  0
  161.8050  210.3310  151.5620 C   0  0  2  0  0  3  0  0  0  0  0  0
  161.7250  204.4490  149.1940 C   0  0  1  0  0  3  0  0  0  0  0  0
  161.4510  204.3090  150.6870 C   0  0  0  0  0  3  0  0  0  0  0  0
  160.8730  206.3680  147.6420 C   0  0  0  0  0  2  0  0  0  0  0  0
  161.2940  205.7110  151.2620 C   0  0  0  0  0  3  0  0  0  0  0  0
  161.3080  206.6810  150.0950 C   0  0  2  0  0  0  0  0  0  0  0  0
  160.7810  203.5580  148.3920 C   0  0  0  0  0  1  0  0  0  0  0  0
  161.6950  205.9450  148.8460 C   0  0  2  0  0  0  0  0  0  0  0  0
  160.2630  206.4870  149.0210 C   0  0  2  0  0  3  0  0  0  0  0  0
  162.1010  210.7130  154.9990 C   0  0  0  0  0  0  0  0  0  0  0  0
  161.5210  210.6260  153.9460 C   0  0  0  0  0  0  0  0  0  0  0  0
  164.1600  211.0640  156.0360 O   0  0  0  0  0  1  0  0  0  0  0  0
  162.8070  210.8230  156.2750 C   0  0  2  0  0  3  0  0  0  0  0  0
  162.6410  209.5310  157.0610 C   0  0  0  0  0  2  0  0  0  0  0  0
  161.1710  209.1970  157.2600 C   0  0  0  0  0  2  0  0  0  0  0  0
  160.9380  207.7090  157.0700 C   0  0  0  0  0  2  0  0  0  0  0  0
  159.9500  207.4930  155.9440 C   0  0  0  0  0  1  0  0  0  0  0  0
  163.3930  211.7670  149.0080 O   0  0  0  0  0  1  0  0  0  0  0  0
  162.3100  210.9000  149.1720 C   0  0  2  0  0  3  0  0  0  0  0  0
  161.4020  210.9830  147.9560 C   0  0  0  0  0  2  0  0  0  0  0  0
  161.0530  212.4290  147.6300 C   0  0  1  0  0  3  0  0  0  0  0  0
  161.2340  213.2420  148.7510 O   0  0  0  0  0  1  0  0  0  0  0  0
  161.8700  212.9470  146.4480 C   0  0  0  0  0  2  0  0  0  0  0  0
  161.0960  212.9530  145.1630 C   0  0  0  0  0  0  0  0  0  0  0  0
  159.8440  212.8210  145.2040 O   0  0  0  0  0  0  0  0  0  0  0  0
  161.7930  213.0830  143.8700 C   0  0  0  0  0  0  0  0  0  0  0  0
  163.3110  213.7120  143.8200 S   0  0  0  0  0  0  0  0  0  0  0  0
  161.2090  212.4850  142.7040 N   0  0  0  0  0  2  0  0  0  0  0  0
  160.6680  214.1030  140.6410 S   0  0  0  0  0  0  0  0  0  0  0  0
  161.4570  212.8370  141.3370 C   0  0  0  0  0  0  0  0  0  0  0  0
  163.2840  212.3380  139.8610 O   0  0  0  0  0  1  0  0  0  0  0  0
  162.1380  211.8180  140.4710 C   0  0  2  0  0  3  0  0  0  0  0  0
  160.0290  210.7570  140.0910 O   0  0  0  0  0  1  0  0  0  0  0  0
  161.1860  211.1980  139.4480 C   0  0  2  0  0  3  0  0  0  0  0  0
  161.8300  210.0430  138.6860 C   0  0  0  0  0  2  0  0  0  0  0  0
  160.6760  208.0400  138.1130 O   0  0  0  0  0  1  0  0  0  0  0  0
  160.7970  209.2790  137.9330 C   0  0  0  0  0  0  0  0  0  0  0  0
  159.9490  209.9390  137.0540 O   0  0  0  0  0  0  0  0  0  0  0  0
  2  6  1  0  0  0  0
  2  5  1  0  0  0  0
  3  2  2  0  0  0  0
  4 16  1  1  0  0  0
  5  4  1  0  0  0  0
  6  1  1  6  0  0  0
  6  4  1  0  0  0  0
  7 12  1  6  0  0  0
  7  8  1  0  0  0  0
  8 10  2  0  0  0  0
 11  3  1  1  0  0  0
 11 10  1  0  0  0  0
 13  9  1  6  0  0  0
 13 14  1  0  0  0  0
 13  7  1  0  0  0  0
 13 11  1  0  0  0  0
 14  9  1  6  0  0  0
 14 11  1  0  0  0  0
 15 18  1  0  0  0  0
 16 15  3  0  0  0  0
 18 17  1  6  0  0  0
 18 19  1  0  0  0  0
 19 20  1  0  0  0  0
 21 20  1  0  0  0  0
 22 21  1  0  0  0  0
 24 23  1  6  0  0  0
 24  1  1  0  0  0  0
 25 24  1  0  0  0  0
 26 25  1  0  0  0  0
 26 27  1  1  0  0  0
 28 26  1  0  0  0  0
 29 30  2  0  0  0  0
 29 28  1  0  0  0  0
 31 29  1  0  0  0  0
 32 31  2  0  0  0  0
 33 31  1  0  0  0  0
 34 35  2  0  0  0  0
 35 33  1  0  0  0  0
 37 36  1  6  0  0  0
 37 35  1  0  0  0  0
 39 38  1  1  0  0  0
 39 37  1  0  0  0  0
 40 39  1  0  0  0  0
 42 41  1  0  0  0  0
 42 40  1  0  0  0  0
 43 42  2  0  0  0  0
M  END
>  <MODEL>
6

>  <REMARK>
 VINA RESULT:      -4.6      4.175      8.578
  Name = 
  19 active torsions:
  status: ('A' for Active; 'I' for Inactive)
    1  A    between atoms: N_1  and  C_3
    2  A    between atoms: N_1  and  C_39
    3  A    between atoms: C_3  and  C_22
    4  A    between atoms: C_6  and  C_35
    5  A    between atoms: C_6  and  C_37
    6  A    between atoms: C_7  and  C_30
    7  A    between atoms: C_8  and  C_26
    8  A    between atoms: C_10  and  C_32
    9  A    between atoms: C_13  and  C_16
   10  A    between atoms: C_13  and  C_22
   11  A    between atoms: C_15  and  C_36
   12  A    between atoms: C_16  and  C_17
   13  A    between atoms: C_17  and  C_37
   14  A    between atoms: C_18  and  C_19
   15  A    between atoms: C_19  and  C_43
   16  A    between atoms: C_20  and  C_26
   17  A    between atoms: C_20  and  C_30
   18  A    between atoms: C_39  and  C_40
   19  A    between atoms: C_40  and  C_43
                            x       y       z     vdW  Elec       q    Type
                         _______ _______ _______ _____ _____    ______ ____

>  <TORSDO>
F 19

$$$$
=
 OpenBabel11052411373D

 43 46  0  0  1  0  0  0  0  0999 V2000
  160.6660  212.3260  150.1560 C   0  0  0  0  0  2  0  0  0  0  0  0
  160.7610  210.7130  152.0530 C   0  0  0  0  0  0  0  0  0  0  0  0
  159.9120  211.0000  153.0410 C   0  0  0  0  0  3  0  0  0  0  0  0
  162.0920  210.2970  150.2230 C   0  0  2  0  0  3  0  0  0  0  0  0
  162.4310  209.9750  151.9330 S   0  0  0  0  0  0  0  0  0  0  0  0
  160.7430  210.8530  150.5390 C   0  0  2  0  0  3  0  0  0  0  0  0
  162.0150  209.8890  155.9450 C   0  0  1  0  0  3  0  0  0  0  0  0
  161.6450  211.2950  156.4050 C   0  0  0  0  0  3  0  0  0  0  0  0
  160.4640  208.2280  154.6580 C   0  0  0  0  0  2  0  0  0  0  0  0
  160.6210  211.8490  155.4230 C   0  0  0  0  0  3  0  0  0  0  0  0
  160.2530  210.7230  154.4730 C   0  0  2  0  0  0  0  0  0  0  0  0
  161.8950  208.9010  157.1010 C   0  0  0  0  0  1  0  0  0  0  0  0
  161.1810  209.5660  154.6950 C   0  0  2  0  0  0  0  0  0  0  0  0
  159.6920  209.4600  155.0810 C   0  0  2  0  0  3  0  0  0  0  0  0
  161.8240  207.9850  148.9120 C   0  0  0  0  0  0  0  0  0  0  0  0
  161.9470  209.0290  149.5030 C   0  0  0  0  0  0  0  0  0  0  0  0
  161.4090  206.9740  146.8520 O   0  0  0  0  0  1  0  0  0  0  0  0
  161.6710  206.7180  148.1980 C   0  0  2  0  0  3  0  0  0  0  0  0
  160.5250  205.9270  148.8080 C   0  0  0  0  0  2  0  0  0  0  0  0
  161.0120  205.0520  149.9530 C   0  0  0  0  0  2  0  0  0  0  0  0
  160.8710  205.7850  151.2740 C   0  0  0  0  0  2  0  0  0  0  0  0
  162.2100  205.8190  151.9780 C   0  0  0  0  0  1  0  0  0  0  0  0
  161.9710  213.9690  149.0150 O   0  0  0  0  0  1  0  0  0  0  0  0
  161.5740  212.6310  148.9780 C   0  0  2  0  0  3  0  0  0  0  0  0
  160.8210  212.3570  147.6860 C   0  0  0  0  0  2  0  0  0  0  0  0
  161.5430  212.9680  146.4920 C   0  0  1  0  0  3  0  0  0  0  0  0
  162.8900  212.5970  146.4910 O   0  0  0  0  0  1  0  0  0  0  0  0
  160.8730  212.5790  145.1750 C   0  0  0  0  0  2  0  0  0  0  0  0
  161.6340  213.0500  143.9730 C   0  0  0  0  0  0  0  0  0  0  0  0
  162.8490  213.3570  144.1000 O   0  0  0  0  0  0  0  0  0  0  0  0
  160.9630  213.1790  142.6660 C   0  0  0  0  0  0  0  0  0  0  0  0
  159.3350  212.9830  142.5600 S   0  0  0  0  0  0  0  0  0  0  0  0
  161.7180  213.6580  141.5430 N   0  0  0  0  0  2  0  0  0  0  0  0
  163.6370  213.6110  139.6770 S   0  0  0  0  0  0  0  0  0  0  0  0
  162.5320  212.8820  140.6540 C   0  0  0  0  0  0  0  0  0  0  0  0
  163.1760  210.5880  140.3500 O   0  0  0  0  0  1  0  0  0  0  0  0
  162.0950  211.4750  140.3650 C   0  0  2  0  0  3  0  0  0  0  0  0
  159.9270  211.1640  139.4050 O   0  0  0  0  0  1  0  0  0  0  0  0
  161.2680  211.3780  139.0830 C   0  0  2  0  0  3  0  0  0  0  0  0
  161.7640  210.2710  138.1580 C   0  0  0  0  0  2  0  0  0  0  0  0
  160.8540  208.5260  139.5000 O   0  0  0  0  0  1  0  0  0  0  0  0
  160.9600  209.0330  138.3530 C   0  0  0  0  0  0  0  0  0  0  0  0
  160.3030  208.4550  137.2760 O   0  0  0  0  0  0  0  0  0  0  0  0
  2  3  2  0  0  0  0
  4 16  1  6  0  0  0
  4  6  1  0  0  0  0
  4  5  1  0  0  0  0
  5  2  1  0  0  0  0
  6  1  1  1  0  0  0
  6  2  1  0  0  0  0
  7  8  1  0  0  0  0
  7 12  1  1  0  0  0
 10  8  2  0  0  0  0
 11  3  1  6  0  0  0
 11 13  1  0  0  0  0
 11 14  1  0  0  0  0
 11 10  1  0  0  0  0
 13  9  1  6  0  0  0
 13 14  1  0  0  0  0
 13  7  1  0  0  0  0
 14  9  1  6  0  0  0
 15 16  3  0  0  0  0
 18 17  1  6  0  0  0
 18 19  1  0  0  0  0
 18 15  1  0  0  0  0
 19 20  1  0  0  0  0
 20 21  1  0  0  0  0
 21 22  1  0  0  0  0
 24 23  1  6  0  0  0
 24  1  1  0  0  0  0
 25 24  1  0  0  0  0
 26 27  1  6  0  0  0
 26 25  1  0  0  0  0
 28 26  1  0  0  0  0
 29 30  2  0  0  0  0
 29 28  1  0  0  0  0
 31 29  1  0  0  0  0
 32 31  2  0  0  0  0
 33 31  1  0  0  0  0
 34 35  2  0  0  0  0
 35 33  1  0  0  0  0
 37 36  1  6  0  0  0
 37 35  1  0  0  0  0
 39 38  1  1  0  0  0
 39 37  1  0  0  0  0
 40 42  1  0  0  0  0
 40 39  1  0  0  0  0
 42 41  1  0  0  0  0
 43 42  2  0  0  0  0
M  END
>  <MODEL>
7

>  <REMARK>
 VINA RESULT:      -4.4      4.273      9.535
  Name = 
  19 active torsions:
  status: ('A' for Active; 'I' for Inactive)
    1  A    between atoms: N_1  and  C_3
    2  A    between atoms: N_1  and  C_39
    3  A    between atoms: C_3  and  C_22
    4  A    between atoms: C_6  and  C_35
    5  A    between atoms: C_6  and  C_37
    6  A    between atoms: C_7  and  C_30
    7  A    between atoms: C_8  and  C_26
    8  A    between atoms: C_10  and  C_32
    9  A    between atoms: C_13  and  C_16
   10  A    between atoms: C_13  and  C_22
   11  A    between atoms: C_15  and  C_36
   12  A    between atoms: C_16  and  C_17
   13  A    between atoms: C_17  and  C_37
   14  A    between atoms: C_18  and  C_19
   15  A    between atoms: C_19  and  C_43
   16  A    between atoms: C_20  and  C_26
   17  A    between atoms: C_20  and  C_30
   18  A    between atoms: C_39  and  C_40
   19  A    between atoms: C_40  and  C_43
                            x       y       z     vdW  Elec       q    Type
                         _______ _______ _______ _____ _____    ______ ____

>  <TORSDO>
F 19

$$$$
=
 OpenBabel11052411373D

 43 46  0  0  1  0  0  0  0  0999 V2000
  162.4530  210.7710  148.4490 C   0  0  0  0  0  2  0  0  0  0  0  0
  160.8430  212.3240  147.3500 C   0  0  0  0  0  0  0  0  0  0  0  0
  160.5030  211.9530  146.1150 C   0  0  0  0  0  3  0  0  0  0  0  0
  161.4500  212.7690  149.5240 C   0  0  2  0  0  3  0  0  0  0  0  0
  161.0860  213.9140  148.2210 S   0  0  0  0  0  0  0  0  0  0  0  0
  161.1860  211.5950  148.6400 C   0  0  2  0  0  3  0  0  0  0  0  0
  159.5740  213.2060  142.7010 C   0  0  1  0  0  3  0  0  0  0  0  0
  158.5650  213.9710  143.5510 C   0  0  0  0  0  3  0  0  0  0  0  0
  162.0500  212.6820  143.3450 C   0  0  0  0  0  2  0  0  0  0  0  0
  158.9140  213.7300  145.0140 C   0  0  0  0  0  3  0  0  0  0  0  0
  160.2220  212.9610  145.0440 C   0  0  2  0  0  0  0  0  0  0  0  0
  160.1800  214.1200  141.6410 C   0  0  0  0  0  1  0  0  0  0  0  0
  160.5710  212.5250  143.6510 C   0  0  2  0  0  0  0  0  0  0  0  0
  161.4150  213.5970  144.3700 C   0  0  2  0  0  3  0  0  0  0  0  0
  159.5590  212.9170  151.4060 C   0  0  0  0  0  0  0  0  0  0  0  0
  160.4120  212.8530  150.5570 C   0  0  0  0  0  0  0  0  0  0  0  0
  158.8170  214.0320  153.3150 O   0  0  0  0  0  1  0  0  0  0  0  0
  158.5230  212.9910  152.4360 C   0  0  2  0  0  3  0  0  0  0  0  0
  158.4640  211.6730  153.1920 C   0  0  0  0  0  2  0  0  0  0  0  0
  157.9970  211.8840  154.6240 C   0  0  0  0  0  2  0  0  0  0  0  0
  158.9650  211.2360  155.5960 C   0  0  0  0  0  2  0  0  0  0  0  0
  159.9070  212.2840  156.1460 C   0  0  0  0  0  1  0  0  0  0  0  0
  160.9940  208.9280  148.8750 O   0  0  0  0  0  1  0  0  0  0  0  0
  162.3000  209.3880  149.0580 C   0  0  2  0  0  3  0  0  0  0  0  0
  162.6130  209.4600  150.5430 C   0  0  0  0  0  2  0  0  0  0  0  0
  161.8550  208.3870  151.3140 C   0  0  1  0  0  3  0  0  0  0  0  0
  160.5250  208.3270  150.8940 O   0  0  0  0  0  1  0  0  0  0  0  0
  162.5290  207.0230  151.1790 C   0  0  0  0  0  2  0  0  0  0  0  0
  161.7070  205.9080  151.7530 C   0  0  0  0  0  0  0  0  0  0  0  0
  161.2880  206.0040  152.9370 O   0  0  0  0  0  0  0  0  0  0  0  0
  161.4150  204.7040  150.9520 C   0  0  0  0  0  0  0  0  0  0  0  0
  161.5650  203.2150  151.6310 S   0  0  0  0  0  0  0  0  0  0  0  0
  160.8240  204.8610  149.6540 N   0  0  0  0  0  2  0  0  0  0  0  0
  161.0290  202.7830  147.9780 S   0  0  0  0  0  0  0  0  0  0  0  0
  161.3180  204.3450  148.4120 C   0  0  0  0  0  0  0  0  0  0  0  0
  162.1420  206.4950  147.7300 O   0  0  0  0  0  1  0  0  0  0  0  0
  162.4000  205.1210  147.7190 C   0  0  2  0  0  3  0  0  0  0  0  0
  164.0250  204.3350  146.1510 O   0  0  0  0  0  1  0  0  0  0  0  0
  162.6660  204.6080  146.3040 C   0  0  2  0  0  3  0  0  0  0  0  0
  162.2100  205.5970  145.2360 C   0  0  0  0  0  2  0  0  0  0  0  0
  160.3710  204.5720  144.1230 O   0  0  0  0  0  0  0  0  0  0  0  0
  160.7570  205.4290  144.9590 C   0  0  0  0  0  0  0  0  0  0  0  0
  159.8260  206.1980  145.6450 O   0  0  0  0  0  1  0  0  0  0  0  0
  1 24  1  0  0  0  0
  2  5  1  0  0  0  0
  2  6  1  0  0  0  0
  3  2  2  0  0  0  0
  4 16  1  1  0  0  0
  5  4  1  0  0  0  0
  6  1  1  6  0  0  0
  6  4  1  0  0  0  0
  7 12  1  6  0  0  0
  7  8  1  0  0  0  0
  7 13  1  0  0  0  0
  8 10  2  0  0  0  0
 10 11  1  0  0  0  0
 11  3  1  1  0  0  0
 13  9  1  6  0  0  0
 13 14  1  0  0  0  0
 13 11  1  0  0  0  0
 14  9  1  1  0  0  0
 14 11  1  0  0  0  0
 15 18  1  0  0  0  0
 16 15  3  0  0  0  0
 18 19  1  0  0  0  0
 18 17  1  1  0  0  0
 19 20  1  0  0  0  0
 20 21  1  0  0  0  0
 21 22  1  0  0  0  0
 24 23  1  1  0  0  0
 24 25  1  0  0  0  0
 25 26  1  0  0  0  0
 26 27  1  6  0  0  0
 28 26  1  0  0  0  0
 28 29  1  0  0  0  0
 29 30  2  0  0  0  0
 31 32  2  0  0  0  0
 31 29  1  0  0  0  0
 33 31  1  0  0  0  0
 34 35  2  0  0  0  0
 35 33  1  0  0  0  0
 37 36  1  6  0  0  0
 37 35  1  0  0  0  0
 39 38  1  1  0  0  0
 39 37  1  0  0  0  0
 40 39  1  0  0  0  0
 41 42  2  0  0  0  0
 42 40  1  0  0  0  0
 42 43  1  0  0  0  0
M  END
>  <MODEL>
8

>  <REMARK>
 VINA RESULT:      -4.4      1.443      2.081
  Name = 
  19 active torsions:
  status: ('A' for Active; 'I' for Inactive)
    1  A    between atoms: N_1  and  C_3
    2  A    between atoms: N_1  and  C_39
    3  A    between atoms: C_3  and  C_22
    4  A    between atoms: C_6  and  C_35
    5  A    between atoms: C_6  and  C_37
    6  A    between atoms: C_7  and  C_30
    7  A    between atoms: C_8  and  C_26
    8  A    between atoms: C_10  and  C_32
    9  A    between atoms: C_13  and  C_16
   10  A    between atoms: C_13  and  C_22
   11  A    between atoms: C_15  and  C_36
   12  A    between atoms: C_16  and  C_17
   13  A    between atoms: C_17  and  C_37
   14  A    between atoms: C_18  and  C_19
   15  A    between atoms: C_19  and  C_43
   16  A    between atoms: C_20  and  C_26
   17  A    between atoms: C_20  and  C_30
   18  A    between atoms: C_39  and  C_40
   19  A    between atoms: C_40  and  C_43
                            x       y       z     vdW  Elec       q    Type
                         _______ _______ _______ _____ _____    ______ ____

>  <TORSDO>
F 19

$$$$
=
 OpenBabel11052411373D

 43 46  0  0  1  0  0  0  0  0999 V2000
  161.8670  208.9470  151.5230 C   0  0  0  0  0  2  0  0  0  0  0  0
  161.5500  207.5880  149.4600 C   0  0  0  0  0  0  0  0  0  0  0  0
  160.9900  206.3980  149.6850 C   0  0  0  0  0  3  0  0  0  0  0  0
  162.4100  209.7080  149.2250 C   0  0  2  0  0  3  0  0  0  0  0  0
  162.7880  208.2520  148.2880 S   0  0  0  0  0  0  0  0  0  0  0  0
  161.4190  208.9750  150.0670 C   0  0  2  0  0  3  0  0  0  0  0  0
  160.4560  203.1590  147.8650 C   0  0  1  0  0  3  0  0  0  0  0  0
  161.1130  203.9810  146.7610 C   0  0  0  0  0  3  0  0  0  0  0  0
  161.0600  203.2240  150.4050 C   0  0  0  0  0  2  0  0  0  0  0  0
  161.5810  205.2930  147.3770 C   0  0  0  0  0  3  0  0  0  0  0  0
  161.3560  205.1930  148.8750 C   0  0  2  0  0  0  0  0  0  0  0  0
  161.0360  201.7490  147.8970 C   0  0  0  0  0  1  0  0  0  0  0  0
  160.5590  203.9580  149.1740 C   0  0  2  0  0  0  0  0  0  0  0  0
  162.0360  204.0580  149.6030 C   0  0  2  0  0  3  0  0  0  0  0  0
  161.1460  211.4740  147.6690 C   0  0  0  0  0  0  0  0  0  0  0  0
  161.7140  210.6760  148.3720 C   0  0  0  0  0  0  0  0  0  0  0  0
  159.3150  212.9030  147.4660 O   0  0  0  0  0  1  0  0  0  0  0  0
  160.4610  212.4450  146.8170 C   0  0  2  0  0  3  0  0  0  0  0  0
  160.0830  211.7870  145.5000 C   0  0  0  0  0  2  0  0  0  0  0  0
  160.1000  212.7930  144.3590 C   0  0  0  0  0  2  0  0  0  0  0  0
  161.2680  212.5190  143.4310 C   0  0  0  0  0  2  0  0  0  0  0  0
  161.6480  213.7920  142.7070 C   0  0  0  0  0  1  0  0  0  0  0  0
  162.3450  210.3370  153.4070 O   0  0  0  0  0  1  0  0  0  0  0  0
  161.6890  210.3090  152.1740 C   0  0  2  0  0  3  0  0  0  0  0  0
  160.2070  210.5730  152.3770 C   0  0  0  0  0  2  0  0  0  0  0  0
  159.9790  211.9190  153.0520 C   0  0  1  0  0  3  0  0  0  0  0  0
  159.6740  212.8980  152.1050 O   0  0  0  0  0  1  0  0  0  0  0  0
  158.8830  211.8330  154.1140 C   0  0  0  0  0  2  0  0  0  0  0  0
  158.9790  212.9210  155.1400 C   0  0  0  0  0  0  0  0  0  0  0  0
  158.4120  214.0240  154.9160 O   0  0  0  0  0  0  0  0  0  0  0  0
  159.7480  212.7150  156.3810 C   0  0  0  0  0  0  0  0  0  0  0  0
  160.2480  214.0120  157.2580 S   0  0  0  0  0  0  0  0  0  0  0  0
  159.8830  211.3830  156.9000 N   0  0  0  0  0  2  0  0  0  0  0  0
  162.5400  211.2610  156.5950 S   0  0  0  0  0  0  0  0  0  0  0  0
  161.0780  210.5940  156.9520 C   0  0  0  0  0  0  0  0  0  0  0  0
  162.1270  208.4550  157.2590 O   0  0  0  0  0  1  0  0  0  0  0  0
  160.9240  209.1010  156.9600 C   0  0  2  0  0  3  0  0  0  0  0  0
  158.9340  208.8110  155.6650 O   0  0  0  0  0  1  0  0  0  0  0  0
  160.3090  208.5760  155.6610 C   0  0  2  0  0  3  0  0  0  0  0  0
  160.5830  207.0900  155.4520 C   0  0  0  0  0  2  0  0  0  0  0  0
  160.1060  207.3460  153.1330 O   0  0  0  0  0  0  0  0  0  0  0  0
  160.8260  206.8050  154.0110 C   0  0  0  0  0  0  0  0  0  0  0  0
  161.8660  205.9660  153.6350 O   0  0  0  0  0  1  0  0  0  0  0  0
  1 24  1  0  0  0  0
  2  3  2  0  0  0  0
  2  6  1  0  0  0  0
  4 16  1  6  0  0  0
  4  6  1  0  0  0  0
  5  4  1  0  0  0  0
  5  2  1  0  0  0  0
  6  1  1  1  0  0  0
  7 12  1  1  0  0  0
  7 13  1  0  0  0  0
  8 10  2  0  0  0  0
  8  7  1  0  0  0  0
 10 11  1  0  0  0  0
 11 13  1  0  0  0  0
 11 14  1  0  0  0  0
 11  3  1  1  0  0  0
 13 14  1  0  0  0  0
 13  9  1  1  0  0  0
 14  9  1  1  0  0  0
 15 16  3  0  0  0  0
 18 17  1  1  0  0  0
 18 15  1  0  0  0  0
 19 18  1  0  0  0  0
 20 19  1  0  0  0  0
 21 20  1  0  0  0  0
 22 21  1  0  0  0  0
 24 25  1  0  0  0  0
 24 23  1  1  0  0  0
 25 26  1  0  0  0  0
 26 27  1  6  0  0  0
 26 28  1  0  0  0  0
 28 29  1  0  0  0  0
 29 31  1  0  0  0  0
 30 29  2  0  0  0  0
 31 33  1  0  0  0  0
 31 32  2  0  0  0  0
 33 35  1  0  0  0  0
 34 35  2  0  0  0  0
 35 37  1  0  0  0  0
 37 36  1  6  0  0  0
 39 38  1  1  0  0  0
 39 37  1  0  0  0  0
 40 39  1  0  0  0  0
 41 42  2  0  0  0  0
 42 40  1  0  0  0  0
 43 42  1  0  0  0  0
M  END
>  <MODEL>
9

>  <REMARK>
 VINA RESULT:      -4.1      3.752      8.442
  Name = 
  19 active torsions:
  status: ('A' for Active; 'I' for Inactive)
    1  A    between atoms: N_1  and  C_3
    2  A    between atoms: N_1  and  C_39
    3  A    between atoms: C_3  and  C_22
    4  A    between atoms: C_6  and  C_35
    5  A    between atoms: C_6  and  C_37
    6  A    between atoms: C_7  and  C_30
    7  A    between atoms: C_8  and  C_26
    8  A    between atoms: C_10  and  C_32
    9  A    between atoms: C_13  and  C_16
   10  A    between atoms: C_13  and  C_22
   11  A    between atoms: C_15  and  C_36
   12  A    between atoms: C_16  and  C_17
   13  A    between atoms: C_17  and  C_37
   14  A    between atoms: C_18  and  C_19
   15  A    between atoms: C_19  and  C_43
   16  A    between atoms: C_20  and  C_26
   17  A    between atoms: C_20  and  C_30
   18  A    between atoms: C_39  and  C_40
   19  A    between atoms: C_40  and  C_43
                            x       y       z     vdW  Elec       q    Type
                         _______ _______ _______ _____ _____    ______ ____

>  <TORSDO>
F 19

$$$$
