=
 OpenBabel11042422213D

 43 50  0  0  1  0  0  0  0  0999 V2000
  161.1700  203.2810  151.4340 C   0  0  0  0  0  3  0  0  0  0  0  0
  161.7880  210.1750  150.9670 C   0  0  1  0  0  3  0  0  0  0  0  0
  160.6180  210.8720  151.6290 C   0  0  0  0  0  2  0  0  0  0  0  0
  161.2460  206.6460  147.9090 C   0  0  0  0  0  3  0  0  0  0  0  0
  161.4660  205.7120  151.3840 N   0  0  0  0  0  0  0  0  0  0  0  0
  160.3360  210.0700  152.8950 C   0  0  0  0  0  2  0  0  0  0  0  0
  161.3630  208.0550  147.9600 C   0  0  0  0  0  3  0  0  0  0  0  0
  161.7610  208.8130  151.4950 N   0  0  0  0  0  0  0  0  0  0  0  0
  161.5940  210.0600  149.5130 N   0  0  0  0  0  0  0  0  0  0  0  0
  160.8670  202.2480  149.2380 C   0  0  0  0  0  3  0  0  0  0  0  0
  160.9120  208.6800  152.6530 C   0  0  1  0  0  3  0  0  0  0  0  0
  161.5640  208.6700  149.2130 C   0  0  0  0  0  0  0  0  0  0  0  0
  161.2810  204.5100  150.7900 C   0  0  2  0  0  3  0  0  0  0  0  0
  161.3210  205.9380  149.1180 C   0  0  0  0  0  0  0  0  0  0  0  0
  161.6410  207.9510  150.3730 C   0  0  0  0  0  0  0  0  0  0  0  0
  161.1850  204.6080  149.4140 C   0  0  0  0  0  0  0  0  0  0  0  0
  160.9790  203.4980  148.6030 C   0  0  0  0  0  3  0  0  0  0  0  0
  161.4920  206.5690  150.3370 C   0  0  0  0  0  0  0  0  0  0  0  0
  160.9630  202.1410  150.6410 C   0  0  0  0  0  3  0  0  0  0  0  0
  161.9490  211.0850  148.5840 C   0  0  0  0  0  0  0  0  0  0  0  0
  162.6590  213.0720  146.7470 C   0  0  0  0  0  0  0  0  0  0  0  0
  163.6330  212.5160  147.5910 C   0  0  0  0  0  3  0  0  0  0  0  0
  163.2780  211.5240  148.5060 C   0  0  0  0  0  3  0  0  0  0  0  0
  160.9790  211.6350  147.7360 C   0  0  0  0  0  3  0  0  0  0  0  0
  161.3350  212.6250  146.8190 C   0  0  0  0  0  3  0  0  0  0  0  0
  163.0420  214.1110  145.7510 C   0  0  0  0  0  2  0  0  0  0  0  0
  162.8640  213.5980  144.3980 N   0  0  0  0  0  1  0  0  0  0  0  0
  161.7400  208.2170  153.8390 C   0  0  0  0  0  2  0  0  0  0  0  0
  161.0110  207.1580  154.6490 C   0  0  0  0  0  2  0  0  0  0  0  0
  161.9460  208.0860  156.6490 O   0  0  0  0  0  1  0  0  0  0  0  0
  160.7540  207.6410  156.0720 C   0  0  1  0  0  3  0  0  0  0  0  0
  159.7300  208.7680  156.0920 C   0  0  0  0  0  2  0  0  0  0  0  0
  159.9130  209.6180  157.2600 N   0  0  0  0  0  2  0  0  0  0  0  0
  155.6500  212.2770  154.7160 O   0  0  0  0  0  1  0  0  0  0  0  0
  159.1210  212.9820  154.9180 C   0  0  1  0  0  3  0  0  0  0  0  0
  157.2690  213.6320  153.5810 C   0  0  0  0  0  2  0  0  0  0  0  0
  160.5500  211.8950  156.6120 C   0  0  0  0  0  2  0  0  0  0  0  0
  157.9270  212.2200  155.4080 C   0  0  2  0  0  3  0  0  0  0  0  0
  158.5220  214.1890  154.2470 C   0  0  0  0  0  2  0  0  0  0  0  0
  159.3870  210.9410  156.9570 C   0  0  1  0  0  3  0  0  0  0  0  0
  160.0460  213.2530  156.0910 C   0  0  0  0  0  2  0  0  0  0  0  0
  158.3720  210.8230  155.8020 C   0  0  0  0  0  2  0  0  0  0  0  0
  156.9640  212.2890  154.2440 C   0  0  1  0  0  3  0  0  0  0  0  0
  2  8  1  0  0  0  0
  2  3  1  1  0  0  0
  3  6  1  0  0  0  0
  4  7  2  0  0  0  0
  4 14  1  0  0  0  0
  7 12  1  0  0  0  0
  8 11  1  0  0  0  0
  9  2  1  0  0  0  0
 10 19  1  0  0  0  0
 11  6  1  0  0  0  0
 11 28  1  1  0  0  0
 12  9  1  0  0  0  0
 12 15  2  0  0  0  0
 13  5  1  0  0  0  0
 13  1  1  1  0  0  0
 14 16  2  0  0  0  0
 14 18  1  0  0  0  0
 15  8  1  0  0  0  0
 16 13  1  0  0  0  0
 17 10  2  0  0  0  0
 17 16  1  0  0  0  0
 18 15  1  0  0  0  0
 18  5  2  0  0  0  0
 19  1  2  0  0  0  0
 20  9  1  0  0  0  0
 21 25  2  0  0  0  0
 21 22  1  0  0  0  0
 22 23  2  0  0  0  0
 23 20  1  0  0  0  0
 24 20  2  0  0  0  0
 25 24  1  0  0  0  0
 26 21  1  0  0  0  0
 27 26  1  0  0  0  0
 28 29  1  0  0  0  0
 29 31  1  0  0  0  0
 31 32  1  0  0  0  0
 31 30  1  6  0  0  0
 32 33  1  0  0  0  0
 35 39  1  1  0  0  0
 35 38  1  0  0  0  0
 35 41  1  0  0  0  0
 36 43  1  0  0  0  0
 36 39  1  0  0  0  0
 37 40  1  0  0  0  0
 38 42  1  6  0  0  0
 40 33  1  6  0  0  0
 41 37  1  0  0  0  0
 42 40  1  0  0  0  0
 43 34  1  1  0  0  0
 43 38  1  0  0  0  0
M  END
>  <MODEL>
1

>  <REMARK>
 VINA RESULT:      -8.4      0.000      0.000
  Name = 
  8 active torsions:
  status: ('A' for Active; 'I' for Inactive)
    1  A    between atoms: C_3  and  C_12
    2  A    between atoms: C_5  and  N_26
    3  A    between atoms: C_9  and  C_10
    4  A    between atoms: C_9  and  C_39
    5  A    between atoms: C_10  and  C_24
    6  A    between atoms: N_18  and  C_19
    7  A    between atoms: N_18  and  C_39
    8  A    between atoms: C_24  and  C_28
                            x       y       z     vdW  Elec       q    Type
                         _______ _______ _______ _____ _____    ______ ____

>  <TORSDO>
F 8

$$$$
=
 OpenBabel11042422213D

 43 50  0  0  1  0  0  0  0  0999 V2000
  161.5410  209.3660  154.0720 C   0  0  0  0  0  3  0  0  0  0  0  0
  161.7350  205.7760  148.1380 C   0  0  1  0  0  3  0  0  0  0  0  0
  160.7540  206.3380  147.1310 C   0  0  0  0  0  2  0  0  0  0  0  0
  160.5460  204.8310  152.5870 C   0  0  0  0  0  3  0  0  0  0  0  0
  161.7150  208.1790  151.9360 N   0  0  0  0  0  0  0  0  0  0  0  0
  160.8490  207.8520  147.2780 C   0  0  0  0  0  2  0  0  0  0  0  0
  160.6160  204.2260  151.3100 C   0  0  0  0  0  3  0  0  0  0  0  0
  161.9030  206.8360  149.1290 N   0  0  0  0  0  0  0  0  0  0  0  0
  161.1680  204.6240  148.8560 N   0  0  0  0  0  0  0  0  0  0  0  0
  160.7110  208.0050  155.9270 C   0  0  0  0  0  3  0  0  0  0  0  0
  161.3970  208.1080  148.6780 C   0  0  1  0  0  3  0  0  0  0  0  0
  161.1160  204.9840  150.2320 C   0  0  0  0  0  0  0  0  0  0  0  0
  161.4290  208.2420  153.2570 C   0  0  0  0  0  0  0  0  0  0  0  0
  160.9670  206.1650  152.7050 C   0  0  0  0  0  0  0  0  0  0  0  0
  161.5250  206.2790  150.3800 C   0  0  0  0  0  0  0  0  0  0  0  0
  160.9680  207.0390  153.7590 C   0  0  0  0  0  0  0  0  0  0  0  0
  160.6010  206.8800  155.0900 C   0  0  0  0  0  3  0  0  0  0  0  0
  161.4290  206.8940  151.6230 C   0  0  0  0  0  0  0  0  0  0  0  0
  161.1780  209.2370  155.4210 C   0  0  0  0  0  2  0  0  0  0  0  0
  161.2230  203.2830  148.3690 C   0  0  0  0  0  0  0  0  0  0  0  0
  161.3600  200.6600  147.4030 C   0  0  0  0  0  0  0  0  0  0  0  0
  161.2540  201.7340  146.5050 C   0  0  0  0  0  3  0  0  0  0  0  0
  161.1870  203.0420  146.9880 C   0  0  0  0  0  3  0  0  0  0  0  0
  161.3370  202.2110  149.2630 C   0  0  0  0  0  3  0  0  0  0  0  0
  161.4060  200.9030  148.7800 C   0  0  0  0  0  3  0  0  0  0  0  0
  161.4590  199.2660  146.8890 C   0  0  0  0  0  2  0  0  0  0  0  0
  161.1190  199.2270  145.4730 N   0  0  0  0  0  1  0  0  0  0  0  0
  162.5270  209.1220  148.6450 C   0  0  0  0  0  2  0  0  0  0  0  0
  162.2140  210.3340  149.5080 C   0  0  0  0  0  2  0  0  0  0  0  0
  161.1410  212.4750  149.4480 O   0  0  0  0  0  1  0  0  0  0  0  0
  161.7700  211.5140  148.6510 C   0  0  1  0  0  3  0  0  0  0  0  0
  162.9550  212.1480  147.9340 C   0  0  0  0  0  2  0  0  0  0  0  0
  162.5500  213.3560  147.2270 N   0  0  0  0  0  2  0  0  0  0  0  0
  162.3570  211.8690  141.7980 O   0  0  0  0  0  1  0  0  0  0  0  0
  160.2400  213.8990  143.7920 C   0  0  1  0  0  3  0  0  0  0  0  0
  160.6440  213.5150  141.4830 C   0  0  0  0  0  2  0  0  0  0  0  0
  160.3480  213.8260  146.2570 C   0  0  0  0  0  2  0  0  0  0  0  0
  161.3450  212.8920  143.6930 C   0  0  2  0  0  3  0  0  0  0  0  0
  159.5160  213.7630  142.4800 C   0  0  0  0  0  2  0  0  0  0  0  0
  161.6360  212.9800  146.1580 C   0  0  1  0  0  3  0  0  0  0  0  0
  159.4260  213.6160  145.0420 C   0  0  0  0  0  2  0  0  0  0  0  0
  162.3460  213.1620  144.8030 C   0  0  0  0  0  2  0  0  0  0  0  0
  161.8690  213.0810  142.2880 C   0  0  1  0  0  3  0  0  0  0  0  0
  1 19  1  0  0  0  0
  2  3  1  6  0  0  0
  2  9  1  0  0  0  0
  2  8  1  0  0  0  0
  3  6  1  0  0  0  0
  4 14  1  0  0  0  0
  5 13  1  0  0  0  0
  6 11  1  0  0  0  0
  7  4  2  0  0  0  0
  8 15  1  0  0  0  0
  9 12  1  0  0  0  0
 11 28  1  6  0  0  0
 11  8  1  0  0  0  0
 12 15  2  0  0  0  0
 12  7  1  0  0  0  0
 13 16  1  0  0  0  0
 13  1  2  0  0  0  0
 14 16  2  0  0  0  0
 15 18  1  0  0  0  0
 16 17  1  0  0  0  0
 17 10  2  0  0  0  0
 18  5  2  0  0  0  0
 18 14  1  0  0  0  0
 19 10  1  0  0  0  0
 20  9  1  0  0  0  0
 20 24  1  0  0  0  0
 21 25  1  0  0  0  0
 22 23  1  0  0  0  0
 22 21  2  0  0  0  0
 23 20  2  0  0  0  0
 25 24  2  0  0  0  0
 26 21  1  0  0  0  0
 27 26  1  0  0  0  0
 28 29  1  0  0  0  0
 31 30  1  1  0  0  0
 31 29  1  0  0  0  0
 32 31  1  0  0  0  0
 33 32  1  0  0  0  0
 35 39  1  6  0  0  0
 35 41  1  0  0  0  0
 36 43  1  0  0  0  0
 36 39  1  0  0  0  0
 38 35  1  0  0  0  0
 38 42  1  1  0  0  0
 40 37  1  0  0  0  0
 40 33  1  1  0  0  0
 41 37  1  0  0  0  0
 42 40  1  0  0  0  0
 43 34  1  6  0  0  0
 43 38  1  0  0  0  0
M  END
>  <MODEL>
2

>  <REMARK>
 VINA RESULT:      -7.3      3.494      9.029
  Name = 
  8 active torsions:
  status: ('A' for Active; 'I' for Inactive)
    1  A    between atoms: C_3  and  C_12
    2  A    between atoms: C_5  and  N_26
    3  A    between atoms: C_9  and  C_10
    4  A    between atoms: C_9  and  C_39
    5  A    between atoms: C_10  and  C_24
    6  A    between atoms: N_18  and  C_19
    7  A    between atoms: N_18  and  C_39
    8  A    between atoms: C_24  and  C_28
                            x       y       z     vdW  Elec       q    Type
                         _______ _______ _______ _____ _____    ______ ____

>  <TORSDO>
F 8

$$$$
=
 OpenBabel11042422213D

 43 50  0  0  1  0  0  0  0  0999 V2000
  161.5730  213.6210  149.5840 C   0  0  0  0  0  3  0  0  0  0  0  0
  160.7320  207.3970  152.5310 C   0  0  1  0  0  3  0  0  0  0  0  0
  161.6080  207.2530  153.7580 C   0  0  0  0  0  2  0  0  0  0  0  0
  162.3680  208.9570  148.4100 C   0  0  0  0  0  3  0  0  0  0  0  0
  161.1690  211.4750  150.6940 N   0  0  0  0  0  0  0  0  0  0  0  0
  161.5430  208.6060  154.4600 C   0  0  0  0  0  2  0  0  0  0  0  0
  162.1600  207.7600  149.1340 C   0  0  0  0  0  2  0  0  0  0  0  0
  160.6780  208.8340  152.2760 N   0  0  0  0  0  0  0  0  0  0  0  0
  161.3610  206.7890  151.3480 N   0  0  0  0  0  0  0  0  0  0  0  0
  162.5800  213.4420  147.3620 C   0  0  0  0  0  3  0  0  0  0  0  0
  161.1460  209.6180  153.3910 C   0  0  1  0  0  3  0  0  0  0  0  0
  161.5580  207.8370  150.4060 C   0  0  0  0  0  0  0  0  0  0  0  0
  161.5910  212.2300  149.6540 C   0  0  0  0  0  0  0  0  0  0  0  0
  161.9740  210.1630  149.0100 C   0  0  0  0  0  0  0  0  0  0  0  0
  161.1780  209.0260  150.9610 C   0  0  0  0  0  0  0  0  0  0  0  0
  162.0900  211.4690  148.6130 C   0  0  0  0  0  0  0  0  0  0  0  0
  162.5930  212.0380  147.4490 C   0  0  0  0  0  3  0  0  0  0  0  0
  161.4090  210.2120  150.2720 C   0  0  0  0  0  0  0  0  0  0  0  0
  162.0730  214.2260  148.4200 C   0  0  0  0  0  3  0  0  0  0  0  0
  161.2430  205.4060  151.0120 C   0  0  0  0  0  0  0  0  0  0  0  0
  160.9840  202.6960  150.3680 C   0  0  0  0  0  0  0  0  0  0  0  0
  161.1540  203.0860  151.7050 C   0  0  0  0  0  3  0  0  0  0  0  0
  161.2820  204.4380  152.0260 C   0  0  0  0  0  3  0  0  0  0  0  0
  161.0660  205.0160  149.6790 C   0  0  0  0  0  3  0  0  0  0  0  0
  160.9360  203.6640  149.3590 C   0  0  0  0  0  3  0  0  0  0  0  0
  160.8200  201.2550  150.0260 C   0  0  0  0  0  2  0  0  0  0  0  0
  161.1640  201.0290  148.6280 N   0  0  0  0  0  1  0  0  0  0  0  0
  160.0280  210.5210  153.8820 C   0  0  0  0  0  2  0  0  0  0  0  0
  160.5410  211.5630  154.8630 C   0  0  0  0  0  2  0  0  0  0  0  0
  159.6010  210.8320  156.9420 O   0  0  0  0  0  1  0  0  0  0  0  0
  159.5190  211.8270  155.9630 C   0  0  1  0  0  3  0  0  0  0  0  0
  159.7450  213.1890  156.6060 C   0  0  0  0  0  2  0  0  0  0  0  0
  159.2610  214.2590  155.7450 N   0  0  0  0  0  2  0  0  0  0  0  0
  157.6330  213.2870  150.4410 O   0  0  0  0  0  1  0  0  0  0  0  0
  155.8830  214.4530  153.2980 C   0  0  1  0  0  3  0  0  0  0  0  0
  155.5770  214.4120  150.9430 C   0  0  0  0  0  2  0  0  0  0  0  0
  156.8160  214.1840  155.5670 C   0  0  0  0  0  2  0  0  0  0  0  0
  157.0970  213.8070  152.7010 C   0  0  2  0  0  3  0  0  0  0  0  0
  154.8190  214.2430  152.2550 C   0  0  0  0  0  2  0  0  0  0  0  0
  158.1590  213.7440  154.9450 C   0  0  1  0  0  3  0  0  0  0  0  0
  155.6200  213.8390  154.6620 C   0  0  0  0  0  2  0  0  0  0  0  0
  158.3160  214.2410  153.4950 C   0  0  0  0  0  2  0  0  0  0  0  0
  157.0650  214.2650  151.2600 C   0  0  1  0  0  3  0  0  0  0  0  0
  1 13  1  0  0  0  0
  2  3  1  1  0  0  0
  3  6  1  0  0  0  0
  4 14  2  0  0  0  0
  4  7  1  0  0  0  0
  7 12  1  0  0  0  0
  8  2  1  0  0  0  0
  8 11  1  0  0  0  0
  9  2  1  0  0  0  0
 10 17  2  0  0  0  0
 10 19  1  0  0  0  0
 11 28  1  1  0  0  0
 11  6  1  0  0  0  0
 12 15  2  0  0  0  0
 12  9  1  0  0  0  0
 13  5  1  0  0  0  0
 14 18  1  0  0  0  0
 15  8  1  0  0  0  0
 16 14  1  0  0  0  0
 16 13  2  0  0  0  0
 17 16  1  0  0  0  0
 18  5  2  0  0  0  0
 18 15  1  0  0  0  0
 19  1  2  0  0  0  0
 20  9  1  0  0  0  0
 20 23  1  0  0  0  0
 21 22  1  0  0  0  0
 22 23  2  0  0  0  0
 24 20  2  0  0  0  0
 25 24  1  0  0  0  0
 25 21  2  0  0  0  0
 26 21  1  0  0  0  0
 27 26  1  0  0  0  0
 28 29  1  0  0  0  0
 29 31  1  0  0  0  0
 31 32  1  0  0  0  0
 31 30  1  1  0  0  0
 33 32  1  0  0  0  0
 35 39  1  6  0  0  0
 35 41  1  0  0  0  0
 36 43  1  0  0  0  0
 36 39  1  0  0  0  0
 38 35  1  0  0  0  0
 38 42  1  1  0  0  0
 40 37  1  0  0  0  0
 40 33  1  1  0  0  0
 41 37  1  0  0  0  0
 42 40  1  0  0  0  0
 43 34  1  6  0  0  0
 43 38  1  0  0  0  0
M  END
>  <MODEL>
3

>  <REMARK>
 VINA RESULT:      -6.9      2.003      6.509
  Name = 
  8 active torsions:
  status: ('A' for Active; 'I' for Inactive)
    1  A    between atoms: C_3  and  C_12
    2  A    between atoms: C_5  and  N_26
    3  A    between atoms: C_9  and  C_10
    4  A    between atoms: C_9  and  C_39
    5  A    between atoms: C_10  and  C_24
    6  A    between atoms: N_18  and  C_19
    7  A    between atoms: N_18  and  C_39
    8  A    between atoms: C_24  and  C_28
                            x       y       z     vdW  Elec       q    Type
                         _______ _______ _______ _____ _____    ______ ____

>  <TORSDO>
F 8

$$$$
=
 OpenBabel11042422213D

 43 50  0  0  1  0  0  0  0  0999 V2000
  161.5130  210.6950  150.8790 C   0  0  0  0  0  3  0  0  0  0  0  0
  160.9010  203.8020  150.3840 C   0  0  1  0  0  3  0  0  0  0  0  0
  161.9120  203.1010  151.2680 C   0  0  0  0  0  2  0  0  0  0  0  0
  162.0740  207.2800  147.4470 C   0  0  0  0  0  3  0  0  0  0  0  0
  161.1990  208.2670  150.8020 N   0  0  0  0  0  0  0  0  0  0  0  0
  161.9550  203.9190  152.5550 C   0  0  0  0  0  2  0  0  0  0  0  0
  161.9290  205.8730  147.4920 C   0  0  0  0  0  3  0  0  0  0  0  0
  160.8450  205.1710  150.8910 N   0  0  0  0  0  0  0  0  0  0  0  0
  161.3750  203.8930  148.9940 N   0  0  0  0  0  0  0  0  0  0  0  0
  162.2490  211.6920  148.7710 C   0  0  0  0  0  3  0  0  0  0  0  0
  161.4560  205.3110  152.1890 C   0  0  1  0  0  3  0  0  0  0  0  0
  161.4810  205.2790  148.6890 C   0  0  0  0  0  0  0  0  0  0  0  0
  161.5110  209.4570  150.2400 C   0  0  2  0  0  3  0  0  0  0  0  0
  161.7760  208.0070  148.6100 C   0  0  0  0  0  0  0  0  0  0  0  0
  161.1920  206.0150  149.8030 C   0  0  0  0  0  0  0  0  0  0  0  0
  161.8710  209.3390  148.9110 C   0  0  0  0  0  0  0  0  0  0  0  0
  162.2450  210.4340  148.1410 C   0  0  0  0  0  3  0  0  0  0  0  0
  161.3640  207.3950  149.7810 C   0  0  0  0  0  0  0  0  0  0  0  0
  161.8860  211.8200  150.1280 C   0  0  0  0  0  3  0  0  0  0  0  0
  161.1920  202.8600  148.0270 C   0  0  0  0  0  0  0  0  0  0  0  0
  160.8050  200.8280  146.1420 C   0  0  0  0  0  0  0  0  0  0  0  0
  160.9950  200.5040  147.4940 C   0  0  0  0  0  3  0  0  0  0  0  0
  161.1870  201.5170  148.4340 C   0  0  0  0  0  3  0  0  0  0  0  0
  160.9930  203.1820  146.6780 C   0  0  0  0  0  3  0  0  0  0  0  0
  160.7990  202.1680  145.7390 C   0  0  0  0  0  3  0  0  0  0  0  0
  160.5720  199.7490  145.1420 C   0  0  0  0  0  2  0  0  0  0  0  0
  161.2720  198.5350  145.5420 N   0  0  0  0  0  1  0  0  0  0  0  0
  160.4210  205.8010  153.1870 C   0  0  0  0  0  2  0  0  0  0  0  0
  161.0740  206.4380  154.4020 C   0  0  0  0  0  2  0  0  0  0  0  0
  159.9740  207.2780  156.3570 O   0  0  0  0  0  1  0  0  0  0  0  0
  160.1810  207.5220  154.9970 C   0  0  1  0  0  3  0  0  0  0  0  0
  160.8000  208.9020  154.8180 C   0  0  0  0  0  2  0  0  0  0  0  0
  160.6640  209.6950  156.0320 N   0  0  0  0  0  2  0  0  0  0  0  0
  155.8130  212.4970  156.6190 O   0  0  0  0  0  1  0  0  0  0  0  0
  158.0970  212.2200  153.9190 C   0  0  1  0  0  3  0  0  0  0  0  0
  155.8490  212.9070  154.2580 C   0  0  0  0  0  2  0  0  0  0  0  0
  160.3890  211.3710  154.2630 C   0  0  0  0  0  2  0  0  0  0  0  0
  157.7840  212.0230  155.3710 C   0  0  2  0  0  3  0  0  0  0  0  0
  157.1100  213.2690  153.4810 C   0  0  0  0  0  2  0  0  0  0  0  0
  159.9970  210.9440  155.6950 C   0  0  1  0  0  3  0  0  0  0  0  0
  159.5660  212.5770  153.7760 C   0  0  0  0  0  2  0  0  0  0  0  0
  158.4750  210.7580  155.8480 C   0  0  0  0  0  2  0  0  0  0  0  0
  156.2730  211.9880  155.4030 C   0  0  1  0  0  3  0  0  0  0  0  0
  2  8  1  0  0  0  0
  2  3  1  1  0  0  0
  3  6  1  0  0  0  0
  4  7  2  0  0  0  0
  4 14  1  0  0  0  0
  7 12  1  0  0  0  0
  8 11  1  0  0  0  0
  9  2  1  0  0  0  0
 10 19  1  0  0  0  0
 11  6  1  0  0  0  0
 11 28  1  1  0  0  0
 12  9  1  0  0  0  0
 12 15  2  0  0  0  0
 13  5  1  0  0  0  0
 13  1  1  1  0  0  0
 14 16  2  0  0  0  0
 14 18  1  0  0  0  0
 15  8  1  0  0  0  0
 16 13  1  0  0  0  0
 17 10  2  0  0  0  0
 17 16  1  0  0  0  0
 18 15  1  0  0  0  0
 18  5  2  0  0  0  0
 19  1  2  0  0  0  0
 20 23  1  0  0  0  0
 20  9  1  0  0  0  0
 21 22  1  0  0  0  0
 22 23  2  0  0  0  0
 24 20  2  0  0  0  0
 25 21  2  0  0  0  0
 25 24  1  0  0  0  0
 26 27  1  0  0  0  0
 26 21  1  0  0  0  0
 28 29  1  0  0  0  0
 29 31  1  0  0  0  0
 31 30  1  1  0  0  0
 32 31  1  0  0  0  0
 32 33  1  0  0  0  0
 35 39  1  1  0  0  0
 35 38  1  0  0  0  0
 36 43  1  0  0  0  0
 37 40  1  0  0  0  0
 38 43  1  0  0  0  0
 38 42  1  6  0  0  0
 39 36  1  0  0  0  0
 40 42  1  0  0  0  0
 40 33  1  6  0  0  0
 41 35  1  0  0  0  0
 41 37  1  0  0  0  0
 43 34  1  1  0  0  0
M  END
>  <MODEL>
4

>  <REMARK>
 VINA RESULT:      -6.6      2.167      6.356
  Name = 
  8 active torsions:
  status: ('A' for Active; 'I' for Inactive)
    1  A    between atoms: C_3  and  C_12
    2  A    between atoms: C_5  and  N_26
    3  A    between atoms: C_9  and  C_10
    4  A    between atoms: C_9  and  C_39
    5  A    between atoms: C_10  and  C_24
    6  A    between atoms: N_18  and  C_19
    7  A    between atoms: N_18  and  C_39
    8  A    between atoms: C_24  and  C_28
                            x       y       z     vdW  Elec       q    Type
                         _______ _______ _______ _____ _____    ______ ____

>  <TORSDO>
F 8

$$$$
=
 OpenBabel11042422213D

 43 50  0  0  1  0  0  0  0  0999 V2000
  161.1300  205.9810  144.8110 C   0  0  0  0  0  3  0  0  0  0  0  0
  161.3290  209.5260  150.7720 C   0  0  1  0  0  3  0  0  0  0  0  0
  162.5840  210.3700  150.8610 C   0  0  0  0  0  2  0  0  0  0  0  0
  161.4060  204.9810  149.5730 C   0  0  0  0  0  3  0  0  0  0  0  0
  161.1250  207.3320  146.8550 N   0  0  0  0  0  0  0  0  0  0  0  0
  162.7860  210.9380  149.4600 C   0  0  0  0  0  2  0  0  0  0  0  0
  161.4570  205.8250  150.7070 C   0  0  0  0  0  2  0  0  0  0  0  0
  161.2020  209.1920  149.3550 N   0  0  0  0  0  0  0  0  0  0  0  0
  161.4880  208.2490  151.4860 N   0  0  0  0  0  0  0  0  0  0  0  0
  161.2770  203.5690  145.1870 C   0  0  0  0  0  3  0  0  0  0  0  0
  162.0450  210.0020  148.5120 C   0  0  1  0  0  3  0  0  0  0  0  0
  161.3480  207.2180  150.5170 C   0  0  0  0  0  0  0  0  0  0  0  0
  161.1570  206.1520  146.1930 C   0  0  0  0  0  0  0  0  0  0  0  0
  161.2640  205.5830  148.3140 C   0  0  0  0  0  0  0  0  0  0  0  0
  161.2030  207.7740  149.2770 C   0  0  0  0  0  0  0  0  0  0  0  0
  161.2450  205.0670  147.0460 C   0  0  0  0  0  0  0  0  0  0  0  0
  161.3060  203.7590  146.5800 C   0  0  0  0  0  3  0  0  0  0  0  0
  161.1860  206.9550  148.1530 C   0  0  0  0  0  0  0  0  0  0  0  0
  161.1890  204.6710  144.3110 C   0  0  0  0  0  3  0  0  0  0  0  0
  161.2450  208.0900  152.8840 C   0  0  0  0  0  0  0  0  0  0  0  0
  160.7370  207.7820  155.6180 C   0  0  0  0  0  0  0  0  0  0  0  0
  160.6390  209.0500  155.0250 C   0  0  0  0  0  3  0  0  0  0  0  0
  160.8910  209.2030  153.6610 C   0  0  0  0  0  3  0  0  0  0  0  0
  161.3350  206.8230  153.4760 C   0  0  0  0  0  3  0  0  0  0  0  0
  161.0800  206.6710  154.8400 C   0  0  0  0  0  3  0  0  0  0  0  0
  160.4410  207.6120  157.0680 C   0  0  0  0  0  2  0  0  0  0  0  0
  159.4300  206.5800  157.2560 N   0  0  0  0  0  1  0  0  0  0  0  0
  161.1850  210.7830  147.5340 C   0  0  0  0  0  2  0  0  0  0  0  0
  161.6080  212.2410  147.4590 C   0  0  0  0  0  2  0  0  0  0  0  0
  159.2430  212.4280  147.1260 O   0  0  0  0  0  1  0  0  0  0  0  0
  160.3930  213.1610  147.4340 C   0  0  1  0  0  3  0  0  0  0  0  0
  160.2040  213.8570  148.7750 C   0  0  0  0  0  2  0  0  0  0  0  0
  158.7910  213.9700  149.1090 N   0  0  0  0  0  2  0  0  0  0  0  0
  155.2750  213.7060  153.5010 O   0  0  0  0  0  1  0  0  0  0  0  0
  158.8030  213.4430  153.2510 C   0  0  1  0  0  3  0  0  0  0  0  0
  157.1850  213.8320  154.9440 C   0  0  0  0  0  2  0  0  0  0  0  0
  159.9050  213.0290  151.0800 C   0  0  0  0  0  2  0  0  0  0  0  0
  157.4590  213.4540  152.5890 C   0  0  2  0  0  3  0  0  0  0  0  0
  158.4930  213.0950  154.6820 C   0  0  0  0  0  2  0  0  0  0  0  0
  158.5580  213.2790  150.3690 C   0  0  1  0  0  3  0  0  0  0  0  0
  159.7110  212.4800  152.5050 C   0  0  0  0  0  2  0  0  0  0  0  0
  157.5940  214.1180  151.2300 C   0  0  0  0  0  2  0  0  0  0  0  0
  156.5840  214.1840  153.5830 C   0  0  1  0  0  3  0  0  0  0  0  0
  1 13  1  0  0  0  0
  2  3  1  6  0  0  0
  2  9  1  0  0  0  0
  4  7  1  0  0  0  0
  5 18  2  0  0  0  0
  6  3  1  0  0  0  0
  8  2  1  0  0  0  0
  9 20  1  0  0  0  0
 10 17  2  0  0  0  0
 11 28  1  6  0  0  0
 11  8  1  0  0  0  0
 11  6  1  0  0  0  0
 12  7  1  0  0  0  0
 12  9  1  0  0  0  0
 13  5  1  0  0  0  0
 13 16  2  0  0  0  0
 14  4  2  0  0  0  0
 15  8  1  0  0  0  0
 15 12  2  0  0  0  0
 16 14  1  0  0  0  0
 17 16  1  0  0  0  0
 18 14  1  0  0  0  0
 18 15  1  0  0  0  0
 19  1  2  0  0  0  0
 19 10  1  0  0  0  0
 20 24  2  0  0  0  0
 20 23  1  0  0  0  0
 21 26  1  0  0  0  0
 22 21  1  0  0  0  0
 23 22  2  0  0  0  0
 24 25  1  0  0  0  0
 25 21  2  0  0  0  0
 26 27  1  0  0  0  0
 29 28  1  0  0  0  0
 31 30  1  1  0  0  0
 31 29  1  0  0  0  0
 31 32  1  0  0  0  0
 32 33  1  0  0  0  0
 35 41  1  6  0  0  0
 35 39  1  0  0  0  0
 37 41  1  0  0  0  0
 38 42  1  6  0  0  0
 38 35  1  0  0  0  0
 38 43  1  0  0  0  0
 39 36  1  0  0  0  0
 40 33  1  6  0  0  0
 40 37  1  0  0  0  0
 40 42  1  0  0  0  0
 43 34  1  1  0  0  0
 43 36  1  0  0  0  0
M  END
>  <MODEL>
5

>  <REMARK>
 VINA RESULT:      -6.0      2.382      6.352
  Name = 
  8 active torsions:
  status: ('A' for Active; 'I' for Inactive)
    1  A    between atoms: C_3  and  C_12
    2  A    between atoms: C_5  and  N_26
    3  A    between atoms: C_9  and  C_10
    4  A    between atoms: C_9  and  C_39
    5  A    between atoms: C_10  and  C_24
    6  A    between atoms: N_18  and  C_19
    7  A    between atoms: N_18  and  C_39
    8  A    between atoms: C_24  and  C_28
                            x       y       z     vdW  Elec       q    Type
                         _______ _______ _______ _____ _____    ______ ____

>  <TORSDO>
F 8

$$$$
=
 OpenBabel11042422213D

 43 50  0  0  1  0  0  0  0  0999 V2000
  161.0900  205.6970  144.8340 C   0  0  0  0  0  3  0  0  0  0  0  0
  161.3380  209.3270  150.7420 C   0  0  1  0  0  3  0  0  0  0  0  0
  162.6020  210.1570  150.8180 C   0  0  0  0  0  2  0  0  0  0  0  0
  161.3570  204.7640  149.6110 C   0  0  0  0  0  3  0  0  0  0  0  0
  161.1030  207.0780  146.8580 N   0  0  0  0  0  0  0  0  0  0  0  0
  162.8100  210.7010  149.4080 C   0  0  0  0  0  2  0  0  0  0  0  0
  161.4200  205.6240  150.7320 C   0  0  0  0  0  2  0  0  0  0  0  0
  161.2050  208.9730  149.3310 N   0  0  0  0  0  0  0  0  0  0  0  0
  161.4820  208.0590  151.4750 N   0  0  0  0  0  0  0  0  0  0  0  0
  161.2070  203.2890  145.2460 C   0  0  0  0  0  3  0  0  0  0  0  0
  162.0570  209.7610  148.4750 C   0  0  1  0  0  3  0  0  0  0  0  0
  161.3280  207.0150  150.5210 C   0  0  0  0  0  0  0  0  0  0  0  0
  161.1190  205.8880  146.2140 C   0  0  0  0  0  0  0  0  0  0  0  0
  161.2210  205.3490  148.3430 C   0  0  0  0  0  0  0  0  0  0  0  0
  161.1890  207.5540  149.2730 C   0  0  0  0  0  0  0  0  0  0  0  0
  161.1950  204.8150  147.0820 C   0  0  0  0  0  0  0  0  0  0  0  0
  161.2390  203.4990  146.6360 C   0  0  0  0  0  3  0  0  0  0  0  0
  161.1610  206.7190  148.1610 C   0  0  0  0  0  0  0  0  0  0  0  0
  161.1320  204.3800  144.3540 C   0  0  0  0  0  3  0  0  0  0  0  0
  161.2370  207.9230  152.8760 C   0  0  0  0  0  0  0  0  0  0  0  0
  160.7280  207.6590  155.6140 C   0  0  0  0  0  0  0  0  0  0  0  0
  160.5320  208.8960  154.9800 C   0  0  0  0  0  3  0  0  0  0  0  0
  160.7850  209.0260  153.6140 C   0  0  0  0  0  3  0  0  0  0  0  0
  161.4250  206.6880  153.5080 C   0  0  0  0  0  3  0  0  0  0  0  0
  161.1700  206.5570  154.8740 C   0  0  0  0  0  3  0  0  0  0  0  0
  160.4320  207.5100  157.0660 C   0  0  0  0  0  2  0  0  0  0  0  0
  159.3290  206.5780  157.2610 N   0  0  0  0  0  1  0  0  0  0  0  0
  161.2060  210.5380  147.4860 C   0  0  0  0  0  2  0  0  0  0  0  0
  161.3400  212.0380  147.6920 C   0  0  0  0  0  2  0  0  0  0  0  0
  159.9680  213.8580  148.4280 O   0  0  0  0  0  1  0  0  0  0  0  0
  159.9810  212.7230  147.6120 C   0  0  1  0  0  3  0  0  0  0  0  0
  159.6530  213.1270  146.1800 C   0  0  0  0  0  2  0  0  0  0  0  0
  160.3550  214.3480  145.8090 N   0  0  0  0  0  2  0  0  0  0  0  0
  159.1390  212.9540  140.4900 O   0  0  0  0  0  1  0  0  0  0  0  0
  161.9060  212.2050  142.5790 C   0  0  1  0  0  3  0  0  0  0  0  0
  160.9540  211.3900  140.5610 C   0  0  0  0  0  2  0  0  0  0  0  0
  162.3340  213.4870  144.6440 C   0  0  0  0  0  2  0  0  0  0  0  0
  160.6760  213.0160  142.3060 C   0  0  2  0  0  3  0  0  0  0  0  0
  162.2960  211.6820  141.2230 C   0  0  0  0  0  2  0  0  0  0  0  0
  160.9510  214.1570  144.4950 C   0  0  1  0  0  3  0  0  0  0  0  0
  162.9270  213.0800  143.2830 C   0  0  0  0  0  2  0  0  0  0  0  0
  159.9920  213.3180  143.6270 C   0  0  0  0  0  2  0  0  0  0  0  0
  159.8870  212.1490  141.3510 C   0  0  1  0  0  3  0  0  0  0  0  0
  1 13  1  0  0  0  0
  2  3  1  6  0  0  0
  2  9  1  0  0  0  0
  4  7  1  0  0  0  0
  5 18  2  0  0  0  0
  6  3  1  0  0  0  0
  8  2  1  0  0  0  0
  9 20  1  0  0  0  0
 10 17  2  0  0  0  0
 11 28  1  6  0  0  0
 11  8  1  0  0  0  0
 11  6  1  0  0  0  0
 12  7  1  0  0  0  0
 12  9  1  0  0  0  0
 13  5  1  0  0  0  0
 13 16  2  0  0  0  0
 14  4  2  0  0  0  0
 15  8  1  0  0  0  0
 15 12  2  0  0  0  0
 16 14  1  0  0  0  0
 17 16  1  0  0  0  0
 18 14  1  0  0  0  0
 18 15  1  0  0  0  0
 19  1  2  0  0  0  0
 19 10  1  0  0  0  0
 20 24  2  0  0  0  0
 20 23  1  0  0  0  0
 21 26  1  0  0  0  0
 22 21  1  0  0  0  0
 23 22  2  0  0  0  0
 24 25  1  0  0  0  0
 25 21  2  0  0  0  0
 26 27  1  0  0  0  0
 28 29  1  0  0  0  0
 31 29  1  0  0  0  0
 31 30  1  1  0  0  0
 32 31  1  0  0  0  0
 33 32  1  0  0  0  0
 35 39  1  6  0  0  0
 35 41  1  0  0  0  0
 36 39  1  0  0  0  0
 36 43  1  0  0  0  0
 38 35  1  0  0  0  0
 38 42  1  1  0  0  0
 40 37  1  0  0  0  0
 40 33  1  1  0  0  0
 41 37  1  0  0  0  0
 42 40  1  0  0  0  0
 43 34  1  6  0  0  0
 43 38  1  0  0  0  0
M  END
>  <MODEL>
6

>  <REMARK>
 VINA RESULT:      -5.8      3.563      8.924
  Name = 
  8 active torsions:
  status: ('A' for Active; 'I' for Inactive)
    1  A    between atoms: C_3  and  C_12
    2  A    between atoms: C_5  and  N_26
    3  A    between atoms: C_9  and  C_10
    4  A    between atoms: C_9  and  C_39
    5  A    between atoms: C_10  and  C_24
    6  A    between atoms: N_18  and  C_19
    7  A    between atoms: N_18  and  C_39
    8  A    between atoms: C_24  and  C_28
                            x       y       z     vdW  Elec       q    Type
                         _______ _______ _______ _____ _____    ______ ____

>  <TORSDO>
F 8

$$$$
=
 OpenBabel11042422213D

 43 50  0  0  1  0  0  0  0  0999 V2000
  161.0840  205.9260  144.7850 C   0  0  0  0  0  3  0  0  0  0  0  0
  161.3590  209.5710  150.6830 C   0  0  1  0  0  3  0  0  0  0  0  0
  162.6220  210.4030  150.7490 C   0  0  0  0  0  2  0  0  0  0  0  0
  161.3810  205.0050  149.5630 C   0  0  0  0  0  3  0  0  0  0  0  0
  161.1060  207.3110  146.8060 N   0  0  0  0  0  0  0  0  0  0  0  0
  162.8210  210.9450  149.3370 C   0  0  0  0  0  2  0  0  0  0  0  0
  161.4490  205.8680  150.6810 C   0  0  0  0  0  2  0  0  0  0  0  0
  161.2190  209.2130  149.2730 N   0  0  0  0  0  0  0  0  0  0  0  0
  161.5100  208.3050  151.4180 N   0  0  0  0  0  0  0  0  0  0  0  0
  161.2100  203.5190  145.2020 C   0  0  0  0  0  3  0  0  0  0  0  0
  162.0640  210.0000  148.4110 C   0  0  1  0  0  3  0  0  0  0  0  0
  161.3530  207.2580  150.4680 C   0  0  0  0  0  0  0  0  0  0  0  0
  161.1220  206.1200  146.1640 C   0  0  0  0  0  0  0  0  0  0  0  0
  161.2370  205.5870  148.2940 C   0  0  0  0  0  0  0  0  0  0  0  0
  161.2050  207.7940  149.2190 C   0  0  0  0  0  0  0  0  0  0  0  0
  161.2050  205.0490  147.0350 C   0  0  0  0  0  0  0  0  0  0  0  0
  161.2490  203.7330  146.5910 C   0  0  0  0  0  3  0  0  0  0  0  0
  161.1720  206.9560  148.1090 C   0  0  0  0  0  0  0  0  0  0  0  0
  161.1270  204.6080  144.3070 C   0  0  0  0  0  3  0  0  0  0  0  0
  161.2740  208.1720  152.8200 C   0  0  0  0  0  0  0  0  0  0  0  0
  160.7810  207.9190  155.5620 C   0  0  0  0  0  0  0  0  0  0  0  0
  160.7840  209.1880  154.9650 C   0  0  0  0  0  3  0  0  0  0  0  0
  161.0290  209.3140  153.5970 C   0  0  0  0  0  3  0  0  0  0  0  0
  161.2620  206.9050  153.4170 C   0  0  0  0  0  3  0  0  0  0  0  0
  161.0150  206.7800  154.7840 C   0  0  0  0  0  3  0  0  0  0  0  0
  160.4930  207.7800  157.0170 C   0  0  0  0  0  2  0  0  0  0  0  0
  159.7050  206.5790  157.2610 N   0  0  0  0  0  1  0  0  0  0  0  0
  161.2060  210.7730  147.4250 C   0  0  0  0  0  2  0  0  0  0  0  0
  160.8520  212.1530  147.9540 C   0  0  0  0  0  2  0  0  0  0  0  0
  161.8290  213.8330  146.5530 O   0  0  0  0  0  1  0  0  0  0  0  0
  160.6430  213.1390  146.8110 C   0  0  1  0  0  3  0  0  0  0  0  0
  160.1910  212.4230  145.5450 C   0  0  0  0  0  2  0  0  0  0  0  0
  160.9980  212.8270  144.4020 N   0  0  0  0  0  2  0  0  0  0  0  0
  162.1490  209.5760  139.9490 O   0  0  0  0  0  1  0  0  0  0  0  0
  160.1800  212.5030  140.3200 C   0  0  1  0  0  3  0  0  0  0  0  0
  161.1790  211.2680  138.5550 C   0  0  0  0  0  2  0  0  0  0  0  0
  159.4610  213.2870  142.5480 C   0  0  0  0  0  2  0  0  0  0  0  0
  160.9190  211.3560  140.9400 C   0  0  2  0  0  3  0  0  0  0  0  0
  159.9120  212.0360  138.9150 C   0  0  0  0  0  2  0  0  0  0  0  0
  160.4100  212.2580  143.1980 C   0  0  1  0  0  3  0  0  0  0  0  0
  158.9610  212.8200  141.1680 C   0  0  0  0  0  2  0  0  0  0  0  0
  161.5410  211.8280  142.2420 C   0  0  0  0  0  2  0  0  0  0  0  0
  161.9000  210.9470  139.8650 C   0  0  1  0  0  3  0  0  0  0  0  0
  1 13  1  0  0  0  0
  2  3  1  6  0  0  0
  2  9  1  0  0  0  0
  4  7  1  0  0  0  0
  5 18  2  0  0  0  0
  6  3  1  0  0  0  0
  8  2  1  0  0  0  0
  9 20  1  0  0  0  0
 10 17  2  0  0  0  0
 11 28  1  6  0  0  0
 11  8  1  0  0  0  0
 11  6  1  0  0  0  0
 12  7  1  0  0  0  0
 12  9  1  0  0  0  0
 13  5  1  0  0  0  0
 13 16  2  0  0  0  0
 14  4  2  0  0  0  0
 15  8  1  0  0  0  0
 15 12  2  0  0  0  0
 16 14  1  0  0  0  0
 17 16  1  0  0  0  0
 18 14  1  0  0  0  0
 18 15  1  0  0  0  0
 19  1  2  0  0  0  0
 19 10  1  0  0  0  0
 20 24  2  0  0  0  0
 20 23  1  0  0  0  0
 21 26  1  0  0  0  0
 22 21  1  0  0  0  0
 23 22  2  0  0  0  0
 24 25  1  0  0  0  0
 25 21  2  0  0  0  0
 26 27  1  0  0  0  0
 28 29  1  0  0  0  0
 31 30  1  6  0  0  0
 31 29  1  0  0  0  0
 32 31  1  0  0  0  0
 33 32  1  0  0  0  0
 35 39  1  6  0  0  0
 35 38  1  0  0  0  0
 35 41  1  0  0  0  0
 36 39  1  0  0  0  0
 36 43  1  0  0  0  0
 37 40  1  0  0  0  0
 38 42  1  1  0  0  0
 40 33  1  1  0  0  0
 41 37  1  0  0  0  0
 42 40  1  0  0  0  0
 43 34  1  6  0  0  0
 43 38  1  0  0  0  0
M  END
>  <MODEL>
7

>  <REMARK>
 VINA RESULT:      -5.7      4.349      9.596
  Name = 
  8 active torsions:
  status: ('A' for Active; 'I' for Inactive)
    1  A    between atoms: C_3  and  C_12
    2  A    between atoms: C_5  and  N_26
    3  A    between atoms: C_9  and  C_10
    4  A    between atoms: C_9  and  C_39
    5  A    between atoms: C_10  and  C_24
    6  A    between atoms: N_18  and  C_19
    7  A    between atoms: N_18  and  C_39
    8  A    between atoms: C_24  and  C_28
                            x       y       z     vdW  Elec       q    Type
                         _______ _______ _______ _____ _____    ______ ____

>  <TORSDO>
F 8

$$$$
