=
 OpenBabel11052409563D

 29 33  0  0  1  0  0  0  0  0999 V2000
  160.0820  201.9760  149.5290 N   0  0  0  0  0  1  0  0  0  0  0  0
  161.0690  203.8240  148.3410 N   0  0  0  0  0  0  0  0  0  0  0  0
  161.2650  205.3020  150.6730 C   0  0  0  0  0  0  0  0  0  0  0  0
  161.7080  210.6950  148.2820 C   0  0  0  0  0  1  0  0  0  0  0  0
  162.1430  207.9460  150.6400 C   0  0  2  0  0  3  0  0  0  0  0  0
  161.2380  208.2850  152.7980 N   0  0  0  0  0  0  0  0  0  0  0  0
  160.7290  204.0150  150.7010 C   0  0  0  0  0  3  0  0  0  0  0  0
  162.4580  207.1580  149.4300 C   0  0  1  0  0  3  0  0  0  0  0  0
  161.6100  205.0710  148.2840 C   0  0  0  0  0  3  0  0  0  0  0  0
  161.2600  209.6450  152.6030 C   0  0  1  0  0  3  0  0  0  0  0  0
  161.6150  207.4280  151.8070 C   0  0  0  0  0  0  0  0  0  0  0  0
  161.5870  210.1670  151.3300 C   0  0  0  0  0  3  0  0  0  0  0  0
  161.7040  205.8500  149.4390 C   0  0  0  0  0  0  0  0  0  0  0  0
  162.1050  209.4730  148.9570 N   0  0  0  0  0  0  0  0  0  0  0  0
  161.3260  206.0590  151.8610 O   0  0  0  0  0  0  0  0  0  0  0  0
  162.0290  209.2670  150.3580 C   0  0  0  0  0  0  0  0  0  0  0  0
  162.1350  208.1610  148.3010 C   0  0  0  0  0  2  0  0  0  0  0  0
  160.6340  203.2860  149.5130 C   0  0  0  0  0  0  0  0  0  0  0  0
  161.6440  210.6620  154.8620 N   0  0  0  0  0  2  0  0  0  0  0  0
  159.7630  211.1980  153.5890 O   0  0  0  0  0  0  0  0  0  0  0  0
  160.8360  210.5420  153.6880 C   0  0  0  0  0  0  0  0  0  0  0  0
  160.9420  210.6720  157.2610 C   0  0  1  0  0  3  0  0  0  0  0  0
  162.2890  211.3550  157.0780 C   0  0  0  0  0  2  0  0  0  0  0  0
  161.2470  211.4890  155.9930 C   0  0  1  0  0  3  0  0  0  0  0  0
  162.3520  208.5980  157.1800 C   0  0  0  0  0  1  0  0  0  0  0  0
  161.0400  209.2220  157.0520 N   0  0  0  0  0  0  0  0  0  0  0  0
  159.9600  208.4810  156.4580 C   0  0  0  0  0  0  0  0  0  0  0  0
  160.0520  207.0020  156.2790 C   0  0  0  0  0  1  0  0  0  0  0  0
  158.9140  209.0710  156.0790 O   0  0  0  0  0  0  0  0  0  0  0  0
  2 18  1  0  0  0  0
  3  7  1  0  0  0  0
  3 15  1  0  0  0  0
  4 14  1  0  0  0  0
  5 16  1  6  0  0  0
  5 11  1  0  0  0  0
  8 17  1  6  0  0  0
  8 13  1  0  0  0  0
  8  5  1  0  0  0  0
  9  2  2  0  0  0  0
  9 13  1  0  0  0  0
 10  6  1  0  0  0  0
 10 21  1  6  0  0  0
 11 15  1  0  0  0  0
 11  6  2  0  0  0  0
 12 10  1  0  0  0  0
 13  3  2  0  0  0  0
 14 16  1  0  0  0  0
 16 12  2  0  0  0  0
 17 14  1  0  0  0  0
 18  1  1  0  0  0  0
 18  7  2  0  0  0  0
 20 21  2  0  0  0  0
 21 19  1  0  0  0  0
 22 26  1  6  0  0  0
 23 22  1  0  0  0  0
 24 19  1  6  0  0  0
 24 23  1  0  0  0  0
 24 22  1  0  0  0  0
 26 25  1  0  0  0  0
 27 26  1  0  0  0  0
 28 27  1  0  0  0  0
 29 27  2  0  0  0  0
M  END
>  <MODEL>
1

>  <REMARK>
 VINA RESULT:      -7.9      0.000      0.000
  Name = 
  3 active torsions:
  status: ('A' for Active; 'I' for Inactive)
    1  A    between atoms: N_2  and  C_25
    2  A    between atoms: N_6  and  C_11
    3  A    between atoms: C_14  and  C_18
                            x       y       z     vdW  Elec       q    Type
                         _______ _______ _______ _____ _____    ______ ____

>  <TORSDO>
F 3

$$$$
=
 OpenBabel11052409563D

 29 33  0  0  1  0  0  0  0  0999 V2000
  159.2550  210.5780  156.5060 N   0  0  0  0  0  1  0  0  0  0  0  0
  159.8800  208.2650  156.2530 N   0  0  0  0  0  0  0  0  0  0  0  0
  160.8330  208.7340  153.6980 C   0  0  0  0  0  0  0  0  0  0  0  0
  160.6740  203.1860  151.6510 C   0  0  0  0  0  1  0  0  0  0  0  0
  161.7360  206.6480  152.0870 C   0  0  2  0  0  3  0  0  0  0  0  0
  161.5570  208.0300  150.1770 N   0  0  0  0  0  0  0  0  0  0  0  0
  160.2940  209.7790  154.4480 C   0  0  0  0  0  3  0  0  0  0  0  0
  161.6370  206.3390  153.5290 C   0  0  1  0  0  3  0  0  0  0  0  0
  160.4130  207.2290  155.5520 C   0  0  0  0  0  3  0  0  0  0  0  0
  161.5580  206.9240  149.3640 C   0  0  1  0  0  3  0  0  0  0  0  0
  161.5810  207.9060  151.5340 C   0  0  0  0  0  0  0  0  0  0  0  0
  161.4900  205.6320  149.9370 C   0  0  0  0  0  3  0  0  0  0  0  0
  160.8840  207.4280  154.2530 C   0  0  0  0  0  0  0  0  0  0  0  0
  161.2250  204.4350  152.1450 N   0  0  0  0  0  0  0  0  0  0  0  0
  161.2820  208.9770  152.3840 O   0  0  0  0  0  0  0  0  0  0  0  0
  161.5800  205.5370  151.3270 C   0  0  0  0  0  0  0  0  0  0  0  0
  161.0100  204.9270  153.5110 C   0  0  0  0  0  2  0  0  0  0  0  0
  159.8140  209.5220  155.7340 C   0  0  0  0  0  0  0  0  0  0  0  0
  160.8470  206.1220  147.0980 N   0  0  0  0  0  2  0  0  0  0  0  0
  162.0790  208.0850  147.3640 O   0  0  0  0  0  0  0  0  0  0  0  0
  161.5180  207.0930  147.9050 C   0  0  0  0  0  0  0  0  0  0  0  0
  161.1270  204.8600  144.9590 C   0  0  1  0  0  3  0  0  0  0  0  0
  159.6950  205.3430  145.1290 C   0  0  0  0  0  2  0  0  0  0  0  0
  160.8250  206.2030  145.6450 C   0  0  1  0  0  3  0  0  0  0  0  0
  162.6250  203.9490  146.7540 C   0  0  0  0  0  1  0  0  0  0  0  0
  161.4490  203.7860  145.9070 N   0  0  0  0  0  0  0  0  0  0  0  0
  160.8210  202.4950  145.8120 C   0  0  0  0  0  0  0  0  0  0  0  0
  161.1280  201.4180  146.7990 C   0  0  0  0  0  1  0  0  0  0  0  0
  159.9960  202.2530  144.8920 O   0  0  0  0  0  0  0  0  0  0  0  0
  3 13  2  0  0  0  0
  3  7  1  0  0  0  0
  4 14  1  0  0  0  0
  5 16  1  6  0  0  0
  5  8  1  0  0  0  0
  6 11  2  0  0  0  0
  7 18  2  0  0  0  0
  8 17  1  6  0  0  0
  8 13  1  0  0  0  0
  9  2  2  0  0  0  0
 10 21  1  6  0  0  0
 10 12  1  0  0  0  0
 10  6  1  0  0  0  0
 11  5  1  0  0  0  0
 11 15  1  0  0  0  0
 12 16  2  0  0  0  0
 13  9  1  0  0  0  0
 14 17  1  0  0  0  0
 15  3  1  0  0  0  0
 16 14  1  0  0  0  0
 18  2  1  0  0  0  0
 18  1  1  0  0  0  0
 19 21  1  0  0  0  0
 20 21  2  0  0  0  0
 22 23  1  0  0  0  0
 22 24  1  0  0  0  0
 22 26  1  1  0  0  0
 23 24  1  0  0  0  0
 24 19  1  1  0  0  0
 26 25  1  0  0  0  0
 27 26  1  0  0  0  0
 27 28  1  0  0  0  0
 29 27  2  0  0  0  0
M  END
>  <MODEL>
2

>  <REMARK>
 VINA RESULT:      -7.8      2.817      8.496
  Name = 
  3 active torsions:
  status: ('A' for Active; 'I' for Inactive)
    1  A    between atoms: N_2  and  C_25
    2  A    between atoms: N_6  and  C_11
    3  A    between atoms: C_14  and  C_18
                            x       y       z     vdW  Elec       q    Type
                         _______ _______ _______ _____ _____    ______ ____

>  <TORSDO>
F 3

$$$$
=
 OpenBabel11052409563D

 29 33  0  0  1  0  0  0  0  0999 V2000
  159.9500  201.7360  149.3950 N   0  0  0  0  0  1  0  0  0  0  0  0
  161.0520  203.6090  148.3570 N   0  0  0  0  0  0  0  0  0  0  0  0
  161.0700  205.0060  150.7460 C   0  0  0  0  0  0  0  0  0  0  0  0
  161.7710  210.4680  148.5850 C   0  0  0  0  0  1  0  0  0  0  0  0
  161.9770  207.6370  150.8760 C   0  0  2  0  0  3  0  0  0  0  0  0
  160.9010  207.9180  152.9620 N   0  0  0  0  0  0  0  0  0  0  0  0
  160.5190  203.7260  150.6860 C   0  0  0  0  0  3  0  0  0  0  0  0
  162.3840  206.8850  149.6700 C   0  0  1  0  0  3  0  0  0  0  0  0
  161.6100  204.8500  148.3870 C   0  0  0  0  0  3  0  0  0  0  0  0
  160.9540  209.2820  152.8160 C   0  0  1  0  0  3  0  0  0  0  0  0
  161.3480  207.0880  151.9770 C   0  0  0  0  0  0  0  0  0  0  0  0
  161.3920  209.8410  151.5930 C   0  0  0  0  0  3  0  0  0  0  0  0
  161.6160  205.5890  149.5720 C   0  0  0  0  0  0  0  0  0  0  0  0
  162.0970  209.2190  149.2490 N   0  0  0  0  0  0  0  0  0  0  0  0
  161.0400  205.7230  151.9600 O   0  0  0  0  0  0  0  0  0  0  0  0
  161.9020  208.9680  150.6310 C   0  0  0  0  0  0  0  0  0  0  0  0
  162.1670  207.9290  148.5530 C   0  0  0  0  0  2  0  0  0  0  0  0
  160.5150  203.0390  149.4700 C   0  0  0  0  0  0  0  0  0  0  0  0
  159.3710  211.0470  153.6300 N   0  0  0  0  0  2  0  0  0  0  0  0
  160.9730  210.1060  155.0400 O   0  0  0  0  0  0  0  0  0  0  0  0
  160.4510  210.1490  153.8920 C   0  0  0  0  0  0  0  0  0  0  0  0
  158.2770  213.2580  154.0360 C   0  0  1  0  0  3  0  0  0  0  0  0
  157.3750  212.1110  154.4650 C   0  0  0  0  0  2  0  0  0  0  0  0
  158.8690  211.9710  154.6370 C   0  0  1  0  0  3  0  0  0  0  0  0
  159.7460  213.3190  152.0030 C   0  0  0  0  0  1  0  0  0  0  0  0
  158.4050  213.3260  152.5750 N   0  0  0  0  0  0  0  0  0  0  0  0
  157.2850  213.6830  151.7450 C   0  0  0  0  0  0  0  0  0  0  0  0
  157.4120  213.7190  150.2590 C   0  0  0  0  0  1  0  0  0  0  0  0
  156.1740  213.9710  152.2630 O   0  0  0  0  0  0  0  0  0  0  0  0
  1 18  1  0  0  0  0
  2  9  2  0  0  0  0
  2 18  1  0  0  0  0
  3 15  1  0  0  0  0
  4 14  1  0  0  0  0
  5 16  1  6  0  0  0
  5 11  1  0  0  0  0
  7  3  1  0  0  0  0
  8 17  1  6  0  0  0
  8  5  1  0  0  0  0
  9 13  1  0  0  0  0
 10  6  1  0  0  0  0
 10 21  1  6  0  0  0
 11  6  2  0  0  0  0
 12 10  1  0  0  0  0
 13  8  1  0  0  0  0
 13  3  2  0  0  0  0
 14 16  1  0  0  0  0
 15 11  1  0  0  0  0
 16 12  2  0  0  0  0
 17 14  1  0  0  0  0
 18  7  2  0  0  0  0
 19 21  1  0  0  0  0
 21 20  2  0  0  0  0
 22 26  1  6  0  0  0
 22 23  1  0  0  0  0
 22 24  1  0  0  0  0
 23 24  1  0  0  0  0
 24 19  1  6  0  0  0
 25 26  1  0  0  0  0
 27 29  2  0  0  0  0
 27 26  1  0  0  0  0
 28 27  1  0  0  0  0
M  END
>  <MODEL>
3

>  <REMARK>
 VINA RESULT:      -7.7      2.385      3.566
  Name = 
  3 active torsions:
  status: ('A' for Active; 'I' for Inactive)
    1  A    between atoms: N_2  and  C_25
    2  A    between atoms: N_6  and  C_11
    3  A    between atoms: C_14  and  C_18
                            x       y       z     vdW  Elec       q    Type
                         _______ _______ _______ _____ _____    ______ ____

>  <TORSDO>
F 3

$$$$
=
 OpenBabel11052409563D

 29 33  0  0  1  0  0  0  0  0999 V2000
  162.4220  210.0570  157.2580 N   0  0  0  0  0  1  0  0  0  0  0  0
  162.2710  210.6630  154.9310 N   0  0  0  0  0  0  0  0  0  0  0  0
  161.2380  208.1780  154.2840 C   0  0  0  0  0  0  0  0  0  0  0  0
  162.4990  208.1620  148.5040 C   0  0  0  0  0  1  0  0  0  0  0  0
  160.7670  207.4530  151.6350 C   0  0  2  0  0  3  0  0  0  0  0  0
  160.6630  205.1770  152.2640 N   0  0  0  0  0  0  0  0  0  0  0  0
  161.5590  208.4810  155.6070 C   0  0  0  0  0  3  0  0  0  0  0  0
  160.9290  208.9030  151.8770 C   0  0  1  0  0  3  0  0  0  0  0  0
  161.9550  210.4020  153.6340 C   0  0  0  0  0  3  0  0  0  0  0  0
  160.8810  204.7970  150.9630 C   0  0  1  0  0  3  0  0  0  0  0  0
  160.6670  206.4920  152.6230 C   0  0  0  0  0  0  0  0  0  0  0  0
  161.2080  205.7740  149.9920 C   0  0  0  0  0  3  0  0  0  0  0  0
  161.4500  209.1510  153.2720 C   0  0  0  0  0  0  0  0  0  0  0  0
  161.7110  208.2340  149.7210 N   0  0  0  0  0  0  0  0  0  0  0  0
  160.7470  206.8970  153.9610 O   0  0  0  0  0  0  0  0  0  0  0  0
  161.1400  207.1140  150.3780 C   0  0  0  0  0  0  0  0  0  0  0  0
  161.8250  209.3270  150.6930 C   0  0  0  0  0  2  0  0  0  0  0  0
  162.0840  209.7390  155.9130 C   0  0  0  0  0  0  0  0  0  0  0  0
  160.5040  202.9660  149.2940 N   0  0  0  0  0  2  0  0  0  0  0  0
  161.2110  202.5040  151.4690 O   0  0  0  0  0  0  0  0  0  0  0  0
  160.8830  203.3700  150.6120 C   0  0  0  0  0  0  0  0  0  0  0  0
  160.8850  201.3150  147.4560 C   0  0  1  0  0  3  0  0  0  0  0  0
  161.8270  201.0660  148.6240 C   0  0  0  0  0  2  0  0  0  0  0  0
  160.4300  201.5650  148.9040 C   0  0  1  0  0  3  0  0  0  0  0  0
  161.9590  203.5830  147.4630 C   0  0  0  0  0  1  0  0  0  0  0  0
  161.2320  202.5490  146.7380 N   0  0  0  0  0  0  0  0  0  0  0  0
  160.6320  202.8640  145.4690 C   0  0  0  0  0  0  0  0  0  0  0  0
  161.0120  204.1030  144.7280 C   0  0  0  0  0  1  0  0  0  0  0  0
  159.7740  202.0960  144.9600 O   0  0  0  0  0  0  0  0  0  0  0  0
  2 18  1  0  0  0  0
  3  7  1  0  0  0  0
  4 14  1  0  0  0  0
  5 16  1  6  0  0  0
  5  8  1  0  0  0  0
  5 11  1  0  0  0  0
  6 11  2  0  0  0  0
  7 18  2  0  0  0  0
  8 17  1  6  0  0  0
  8 13  1  0  0  0  0
  9  2  2  0  0  0  0
 10 21  1  1  0  0  0
 10  6  1  0  0  0  0
 11 15  1  0  0  0  0
 12 16  2  0  0  0  0
 12 10  1  0  0  0  0
 13  9  1  0  0  0  0
 13  3  2  0  0  0  0
 14 16  1  0  0  0  0
 14 17  1  0  0  0  0
 15  3  1  0  0  0  0
 18  1  1  0  0  0  0
 19 21  1  0  0  0  0
 21 20  2  0  0  0  0
 22 26  1  6  0  0  0
 22 23  1  0  0  0  0
 22 24  1  0  0  0  0
 23 24  1  0  0  0  0
 24 19  1  6  0  0  0
 26 25  1  0  0  0  0
 27 26  1  0  0  0  0
 28 27  1  0  0  0  0
 29 27  2  0  0  0  0
M  END
>  <MODEL>
4

>  <REMARK>
 VINA RESULT:      -7.6      2.460      8.392
  Name = 
  3 active torsions:
  status: ('A' for Active; 'I' for Inactive)
    1  A    between atoms: N_2  and  C_25
    2  A    between atoms: N_6  and  C_11
    3  A    between atoms: C_14  and  C_18
                            x       y       z     vdW  Elec       q    Type
                         _______ _______ _______ _____ _____    ______ ____

>  <TORSDO>
F 3

$$$$
=
 OpenBabel11052409563D

 29 33  0  0  1  0  0  0  0  0999 V2000
  160.0150  201.8220  149.3070 N   0  0  0  0  0  1  0  0  0  0  0  0
  161.0520  203.8650  148.5640 N   0  0  0  0  0  0  0  0  0  0  0  0
  161.0600  204.8760  151.1400 C   0  0  0  0  0  0  0  0  0  0  0  0
  161.5820  210.6240  149.8460 C   0  0  0  0  0  1  0  0  0  0  0  0
  161.8950  207.4810  151.6690 C   0  0  2  0  0  3  0  0  0  0  0  0
  160.8360  207.4030  153.7810 N   0  0  0  0  0  0  0  0  0  0  0  0
  160.5440  203.6050  150.8870 C   0  0  0  0  0  3  0  0  0  0  0  0
  162.3070  206.9360  150.3580 C   0  0  1  0  0  3  0  0  0  0  0  0
  161.5750  205.1020  148.7810 C   0  0  0  0  0  3  0  0  0  0  0  0
  160.8490  208.7750  153.8490 C   0  0  1  0  0  3  0  0  0  0  0  0
  161.2940  206.7490  152.6770 C   0  0  0  0  0  0  0  0  0  0  0  0
  161.2560  209.5290  152.7230 C   0  0  0  0  0  3  0  0  0  0  0  0
  161.5750  205.6480  150.0670 C   0  0  0  0  0  0  0  0  0  0  0  0
  161.9500  209.2980  150.3060 N   0  0  0  0  0  0  0  0  0  0  0  0
  161.0250  205.3950  152.4500 O   0  0  0  0  0  0  0  0  0  0  0  0
  161.7790  208.8300  151.6340 C   0  0  0  0  0  0  0  0  0  0  0  0
  162.0480  208.1340  149.4180 C   0  0  0  0  0  2  0  0  0  0  0  0
  160.5450  203.1140  149.5790 C   0  0  0  0  0  0  0  0  0  0  0  0
  159.2190  210.3350  154.9400 N   0  0  0  0  0  2  0  0  0  0  0  0
  160.8800  209.2550  156.1710 O   0  0  0  0  0  0  0  0  0  0  0  0
  160.3350  209.4490  155.0500 C   0  0  0  0  0  0  0  0  0  0  0  0
  158.1620  212.4670  155.7060 C   0  0  1  0  0  3  0  0  0  0  0  0
  157.2190  211.2880  155.8910 C   0  0  0  0  0  2  0  0  0  0  0  0
  158.7020  211.0760  156.0820 C   0  0  1  0  0  3  0  0  0  0  0  0
  159.7060  212.8810  153.7710 C   0  0  0  0  0  1  0  0  0  0  0  0
  158.3440  212.7940  154.2860 N   0  0  0  0  0  0  0  0  0  0  0  0
  157.2550  213.2990  153.4920 C   0  0  0  0  0  0  0  0  0  0  0  0
  157.4380  213.5980  152.0420 C   0  0  0  0  0  1  0  0  0  0  0  0
  156.1250  213.4960  154.0120 O   0  0  0  0  0  0  0  0  0  0  0  0
  1 18  1  0  0  0  0
  2  9  2  0  0  0  0
  2 18  1  0  0  0  0
  3 15  1  0  0  0  0
  4 14  1  0  0  0  0
  5 16  1  6  0  0  0
  5 11  1  0  0  0  0
  6 10  1  0  0  0  0
  7  3  1  0  0  0  0
  8 17  1  6  0  0  0
  8  5  1  0  0  0  0
  9 13  1  0  0  0  0
 10 21  1  6  0  0  0
 11  6  2  0  0  0  0
 12 10  1  0  0  0  0
 13  8  1  0  0  0  0
 13  3  2  0  0  0  0
 14 16  1  0  0  0  0
 15 11  1  0  0  0  0
 16 12  2  0  0  0  0
 17 14  1  0  0  0  0
 18  7  2  0  0  0  0
 19 21  1  0  0  0  0
 21 20  2  0  0  0  0
 22 26  1  6  0  0  0
 22 23  1  0  0  0  0
 22 24  1  0  0  0  0
 23 24  1  0  0  0  0
 24 19  1  6  0  0  0
 25 26  1  0  0  0  0
 27 29  2  0  0  0  0
 27 26  1  0  0  0  0
 28 27  1  0  0  0  0
M  END
>  <MODEL>
5

>  <REMARK>
 VINA RESULT:      -7.3      2.255      3.175
  Name = 
  3 active torsions:
  status: ('A' for Active; 'I' for Inactive)
    1  A    between atoms: N_2  and  C_25
    2  A    between atoms: N_6  and  C_11
    3  A    between atoms: C_14  and  C_18
                            x       y       z     vdW  Elec       q    Type
                         _______ _______ _______ _____ _____    ______ ____

>  <TORSDO>
F 3

$$$$
=
 OpenBabel11052409563D

 29 33  0  0  1  0  0  0  0  0999 V2000
  162.7800  204.6250  144.3260 N   0  0  0  0  0  1  0  0  0  0  0  0
  161.8320  203.6000  146.2890 N   0  0  0  0  0  0  0  0  0  0  0  0
  161.5810  206.0600  147.5320 C   0  0  0  0  0  0  0  0  0  0  0  0
  161.2220  204.2000  153.1360 C   0  0  0  0  0  1  0  0  0  0  0  0
  160.7140  206.2650  150.1720 C   0  0  2  0  0  3  0  0  0  0  0  0
  161.5630  208.4680  150.2920 N   0  0  0  0  0  0  0  0  0  0  0  0
  162.1110  205.9750  146.2450 C   0  0  0  0  0  3  0  0  0  0  0  0
  160.4280  204.9750  149.5080 C   0  0  1  0  0  3  0  0  0  0  0  0
  161.2980  203.6510  147.5390 C   0  0  0  0  0  3  0  0  0  0  0  0
  161.5520  208.4080  151.6640 C   0  0  1  0  0  3  0  0  0  0  0  0
  161.2100  207.3880  149.5380 C   0  0  0  0  0  0  0  0  0  0  0  0
  161.2600  207.1830  152.3110 C   0  0  0  0  0  3  0  0  0  0  0  0
  161.1760  204.8750  148.2010 C   0  0  0  0  0  0  0  0  0  0  0  0
  160.8020  204.7420  151.8560 N   0  0  0  0  0  0  0  0  0  0  0  0
  161.4920  207.3140  148.1690 O   0  0  0  0  0  0  0  0  0  0  0  0
  160.8410  206.1170  151.5130 C   0  0  0  0  0  0  0  0  0  0  0  0
  160.7840  203.9590  150.6150 C   0  0  0  0  0  2  0  0  0  0  0  0
  162.2340  204.7240  145.6360 C   0  0  0  0  0  0  0  0  0  0  0  0
  161.2660  209.8890  153.6650 N   0  0  0  0  0  2  0  0  0  0  0  0
  162.8870  210.3300  152.0460 O   0  0  0  0  0  0  0  0  0  0  0  0
  161.9510  209.5860  152.4470 C   0  0  0  0  0  0  0  0  0  0  0  0
  161.1610  210.9430  155.9290 C   0  0  1  0  0  3  0  0  0  0  0  0
  162.6000  210.7040  155.5000 C   0  0  0  0  0  2  0  0  0  0  0  0
  161.5760  211.0740  154.4530 C   0  0  1  0  0  3  0  0  0  0  0  0
  159.0170  209.6510  156.1050 C   0  0  0  0  0  1  0  0  0  0  0  0
  160.4700  209.6820  156.2260 N   0  0  0  0  0  0  0  0  0  0  0  0
  161.1460  208.6020  156.8930 C   0  0  0  0  0  0  0  0  0  0  0  0
  160.4490  207.3100  157.1630 C   0  0  0  0  0  1  0  0  0  0  0  0
  162.3440  208.7290  157.2610 O   0  0  0  0  0  0  0  0  0  0  0  0
  1 18  1  0  0  0  0
  2  9  1  0  0  0  0
  3 15  1  0  0  0  0
  3 13  1  0  0  0  0
  5 11  1  6  0  0  0
  5 16  1  0  0  0  0
  6 10  1  0  0  0  0
  7  3  2  0  0  0  0
  8  5  1  0  0  0  0
  8 17  1  1  0  0  0
  9 13  2  0  0  0  0
 10 12  1  0  0  0  0
 10 21  1  6  0  0  0
 11  6  2  0  0  0  0
 13  8  1  0  0  0  0
 14  4  1  0  0  0  0
 15 11  1  0  0  0  0
 16 14  1  0  0  0  0
 16 12  2  0  0  0  0
 17 14  1  0  0  0  0
 18  7  1  0  0  0  0
 18  2  2  0  0  0  0
 20 21  2  0  0  0  0
 21 19  1  0  0  0  0
 22 26  1  6  0  0  0
 23 22  1  0  0  0  0
 24 19  1  6  0  0  0
 24 23  1  0  0  0  0
 24 22  1  0  0  0  0
 25 26  1  0  0  0  0
 26 27  1  0  0  0  0
 27 28  1  0  0  0  0
 27 29  2  0  0  0  0
M  END
>  <MODEL>
6

>  <REMARK>
 VINA RESULT:      -7.0      2.094      3.492
  Name = 
  3 active torsions:
  status: ('A' for Active; 'I' for Inactive)
    1  A    between atoms: N_2  and  C_25
    2  A    between atoms: N_6  and  C_11
    3  A    between atoms: C_14  and  C_18
                            x       y       z     vdW  Elec       q    Type
                         _______ _______ _______ _____ _____    ______ ____

>  <TORSDO>
F 3

$$$$
=
 OpenBabel11052409563D

 29 33  0  0  1  0  0  0  0  0999 V2000
  161.3990  201.9060  145.6360 N   0  0  0  0  0  1  0  0  0  0  0  0
  161.0760  202.2280  148.0010 N   0  0  0  0  0  0  0  0  0  0  0  0
  160.9680  204.9740  147.6790 C   0  0  0  0  0  0  0  0  0  0  0  0
  162.2240  206.5790  153.2320 C   0  0  0  0  0  1  0  0  0  0  0  0
  160.8050  206.6830  149.8740 C   0  0  2  0  0  3  0  0  0  0  0  0
  161.4830  208.5010  148.5240 N   0  0  0  0  0  0  0  0  0  0  0  0
  161.1500  204.1450  146.5720 C   0  0  0  0  0  3  0  0  0  0  0  0
  160.4560  205.2710  150.1410 C   0  0  1  0  0  3  0  0  0  0  0  0
  160.8830  203.0100  149.0980 C   0  0  0  0  0  3  0  0  0  0  0  0
  161.8340  209.2140  149.6430 C   0  0  1  0  0  3  0  0  0  0  0  0
  161.0300  207.2190  148.6200 C   0  0  0  0  0  0  0  0  0  0  0  0
  161.8160  208.5850  150.9110 C   0  0  0  0  0  3  0  0  0  0  0  0
  160.8440  204.4000  148.9710 C   0  0  0  0  0  0  0  0  0  0  0  0
  161.4450  206.3510  152.0280 N   0  0  0  0  0  0  0  0  0  0  0  0
  160.9510  206.3740  147.5070 O   0  0  0  0  0  0  0  0  0  0  0  0
  161.2870  207.2950  150.9820 C   0  0  0  0  0  0  0  0  0  0  0  0
  161.1650  205.0160  151.4890 C   0  0  0  0  0  2  0  0  0  0  0  0
  161.2060  202.7610  146.7560 C   0  0  0  0  0  0  0  0  0  0  0  0
  161.8940  211.3910  148.4030 N   0  0  0  0  0  2  0  0  0  0  0  0
  163.1430  211.0620  150.3460 O   0  0  0  0  0  0  0  0  0  0  0  0
  162.3300  210.5910  149.5040 C   0  0  0  0  0  0  0  0  0  0  0  0
  161.3650  213.6640  147.5060 C   0  0  1  0  0  3  0  0  0  0  0  0
  161.5810  213.7030  149.0100 C   0  0  0  0  0  2  0  0  0  0  0  0
  162.3950  212.7400  148.1790 C   0  0  1  0  0  3  0  0  0  0  0  0
  160.0810  212.1880  145.9340 C   0  0  0  0  0  1  0  0  0  0  0  0
  160.1130  212.9790  147.1590 N   0  0  0  0  0  0  0  0  0  0  0  0
  158.8790  213.3010  147.8250 C   0  0  0  0  0  0  0  0  0  0  0  0
  157.6170  212.5780  147.4910 C   0  0  0  0  0  1  0  0  0  0  0  0
  158.8450  214.2010  148.7050 O   0  0  0  0  0  0  0  0  0  0  0  0
  1 18  1  0  0  0  0
  2  9  1  0  0  0  0
  3 13  1  0  0  0  0
  5 11  1  6  0  0  0
  5  8  1  0  0  0  0
  5 16  1  0  0  0  0
  6 11  2  0  0  0  0
  6 10  1  0  0  0  0
  7 18  1  0  0  0  0
  7  3  2  0  0  0  0
  8 17  1  1  0  0  0
 10 21  1  6  0  0  0
 10 12  1  0  0  0  0
 12 16  2  0  0  0  0
 13  9  2  0  0  0  0
 13  8  1  0  0  0  0
 14  4  1  0  0  0  0
 15  3  1  0  0  0  0
 15 11  1  0  0  0  0
 16 14  1  0  0  0  0
 17 14  1  0  0  0  0
 18  2  2  0  0  0  0
 19 21  1  0  0  0  0
 21 20  2  0  0  0  0
 22 26  1  1  0  0  0
 22 24  1  0  0  0  0
 22 23  1  0  0  0  0
 24 19  1  1  0  0  0
 24 23  1  0  0  0  0
 25 26  1  0  0  0  0
 26 27  1  0  0  0  0
 27 29  2  0  0  0  0
 28 27  1  0  0  0  0
M  END
>  <MODEL>
7

>  <REMARK>
 VINA RESULT:      -6.7      3.522      6.149
  Name = 
  3 active torsions:
  status: ('A' for Active; 'I' for Inactive)
    1  A    between atoms: N_2  and  C_25
    2  A    between atoms: N_6  and  C_11
    3  A    between atoms: C_14  and  C_18
                            x       y       z     vdW  Elec       q    Type
                         _______ _______ _______ _____ _____    ______ ____

>  <TORSDO>
F 3

$$$$
=
 OpenBabel11052409563D

 29 33  0  0  1  0  0  0  0  0999 V2000
  160.8690  203.2870  145.7270 N   0  0  0  0  0  1  0  0  0  0  0  0
  161.6930  205.5370  145.9810 N   0  0  0  0  0  0  0  0  0  0  0  0
  161.6360  205.3160  148.7380 C   0  0  0  0  0  0  0  0  0  0  0  0
  161.5780  211.0730  150.0980 C   0  0  0  0  0  1  0  0  0  0  0  0
  162.2200  207.4930  150.3760 C   0  0  2  0  0  3  0  0  0  0  0  0
  161.2020  206.4020  152.2090 N   0  0  0  0  0  0  0  0  0  0  0  0
  161.2430  204.2410  147.9410 C   0  0  0  0  0  3  0  0  0  0  0  0
  162.6660  207.6170  148.9720 C   0  0  1  0  0  3  0  0  0  0  0  0
  162.0960  206.5970  146.7310 C   0  0  0  0  0  3  0  0  0  0  0  0
  161.0820  207.6010  152.8690 C   0  0  1  0  0  3  0  0  0  0  0  0
  161.7070  206.3420  150.9450 C   0  0  0  0  0  0  0  0  0  0  0  0
  161.3990  208.8060  152.1980 C   0  0  0  0  0  3  0  0  0  0  0  0
  162.0600  206.5240  148.1260 C   0  0  0  0  0  0  0  0  0  0  0  0
  162.0800  209.7190  149.9440 N   0  0  0  0  0  0  0  0  0  0  0  0
  161.5680  205.2040  150.1420 O   0  0  0  0  0  0  0  0  0  0  0  0
  161.9740  208.7050  150.9290 C   0  0  0  0  0  0  0  0  0  0  0  0
  162.2790  209.0750  148.6410 C   0  0  0  0  0  2  0  0  0  0  0  0
  161.2740  204.3740  146.5500 C   0  0  0  0  0  0  0  0  0  0  0  0
  160.0560  208.8680  154.7710 N   0  0  0  0  0  2  0  0  0  0  0  0
  160.4570  206.5740  154.9130 O   0  0  0  0  0  0  0  0  0  0  0  0
  160.5220  207.6320  154.2270 C   0  0  0  0  0  0  0  0  0  0  0  0
  160.2330  210.0770  156.9520 C   0  0  1  0  0  3  0  0  0  0  0  0
  158.8830  210.3200  156.2970 C   0  0  0  0  0  2  0  0  0  0  0  0
  159.5450  208.9730  156.1310 C   0  0  1  0  0  3  0  0  0  0  0  0
  160.9570  211.5980  155.0920 C   0  0  0  0  0  1  0  0  0  0  0  0
  161.3150  210.7510  156.2230 N   0  0  0  0  0  0  0  0  0  0  0  0
  162.6900  210.3710  156.4140 C   0  0  0  0  0  0  0  0  0  0  0  0
  163.7880  211.0820  155.6940 C   0  0  0  0  0  1  0  0  0  0  0  0
  162.9900  209.4300  157.1950 O   0  0  0  0  0  0  0  0  0  0  0  0
  1 18  1  0  0  0  0
  2 18  2  0  0  0  0
  2  9  1  0  0  0  0
  3 15  1  0  0  0  0
  5 16  1  6  0  0  0
  5 11  1  0  0  0  0
  6 10  1  0  0  0  0
  7  3  2  0  0  0  0
  8 17  1  6  0  0  0
  8  5  1  0  0  0  0
  9 13  2  0  0  0  0
 10 21  1  6  0  0  0
 11  6  2  0  0  0  0
 12 10  1  0  0  0  0
 13  3  1  0  0  0  0
 13  8  1  0  0  0  0
 14  4  1  0  0  0  0
 14 16  1  0  0  0  0
 15 11  1  0  0  0  0
 16 12  2  0  0  0  0
 17 14  1  0  0  0  0
 18  7  1  0  0  0  0
 21 19  1  0  0  0  0
 21 20  2  0  0  0  0
 22 26  1  6  0  0  0
 23 22  1  0  0  0  0
 24 19  1  6  0  0  0
 24 23  1  0  0  0  0
 24 22  1  0  0  0  0
 25 26  1  0  0  0  0
 26 27  1  0  0  0  0
 27 29  2  0  0  0  0
 28 27  1  0  0  0  0
M  END
>  <MODEL>
8

>  <REMARK>
 VINA RESULT:      -6.7      1.939      2.745
  Name = 
  3 active torsions:
  status: ('A' for Active; 'I' for Inactive)
    1  A    between atoms: N_2  and  C_25
    2  A    between atoms: N_6  and  C_11
    3  A    between atoms: C_14  and  C_18
                            x       y       z     vdW  Elec       q    Type
                         _______ _______ _______ _____ _____    ______ ____

>  <TORSDO>
F 3

$$$$
=
 OpenBabel11052409563D

 29 33  0  0  1  0  0  0  0  0999 V2000
  160.7100  202.7800  145.7650 N   0  0  0  0  0  1  0  0  0  0  0  0
  161.4990  205.0540  145.8460 N   0  0  0  0  0  0  0  0  0  0  0  0
  161.6700  204.9650  148.6070 C   0  0  0  0  0  0  0  0  0  0  0  0
  161.5880  210.7780  149.6980 C   0  0  0  0  0  1  0  0  0  0  0  0
  162.3340  207.2290  150.0880 C   0  0  2  0  0  3  0  0  0  0  0  0
  161.4930  206.2070  152.0470 N   0  0  0  0  0  0  0  0  0  0  0  0
  161.2400  203.8460  147.8940 C   0  0  0  0  0  3  0  0  0  0  0  0
  162.6620  207.2950  148.6480 C   0  0  1  0  0  3  0  0  0  0  0  0
  161.9360  206.1570  146.5120 C   0  0  0  0  0  3  0  0  0  0  0  0
  161.3990  207.4340  152.6580 C   0  0  1  0  0  3  0  0  0  0  0  0
  161.8960  206.0970  150.7500 C   0  0  0  0  0  0  0  0  0  0  0  0
  161.6320  208.6110  151.9090 C   0  0  0  0  0  3  0  0  0  0  0  0
  162.0150  206.1500  147.9060 C   0  0  0  0  0  0  0  0  0  0  0  0
  162.1070  209.4290  149.5670 N   0  0  0  0  0  0  0  0  0  0  0  0
  161.7190  204.9190  150.0150 O   0  0  0  0  0  0  0  0  0  0  0  0
  162.1040  208.4610  150.6030 C   0  0  0  0  0  0  0  0  0  0  0  0
  162.2150  208.7270  148.2830 C   0  0  0  0  0  2  0  0  0  0  0  0
  161.1550  203.9120  146.5010 C   0  0  0  0  0  0  0  0  0  0  0  0
  161.1100  208.7430  154.7760 N   0  0  0  0  0  2  0  0  0  0  0  0
  160.4300  206.5160  154.6190 O   0  0  0  0  0  0  0  0  0  0  0  0
  160.9490  207.5190  154.0550 C   0  0  0  0  0  0  0  0  0  0  0  0
  159.8540  210.0980  156.4600 C   0  0  1  0  0  3  0  0  0  0  0  0
  159.2410  208.7170  156.2980 C   0  0  0  0  0  2  0  0  0  0  0  0
  160.7380  208.8710  156.1780 C   0  0  1  0  0  3  0  0  0  0  0  0
  160.7480  211.7070  154.7530 C   0  0  0  0  0  1  0  0  0  0  0  0
  159.6270  210.9320  155.2720 N   0  0  0  0  0  0  0  0  0  0  0  0
  158.2960  211.2150  154.8060 C   0  0  0  0  0  0  0  0  0  0  0  0
  158.0710  212.0360  153.5790 C   0  0  0  0  0  1  0  0  0  0  0  0
  157.2940  210.7720  155.4270 O   0  0  0  0  0  0  0  0  0  0  0  0
  1 18  1  0  0  0  0
  2 18  2  0  0  0  0
  2  9  1  0  0  0  0
  3 15  1  0  0  0  0
  5 16  1  6  0  0  0
  5 11  1  0  0  0  0
  6 10  1  0  0  0  0
  7  3  2  0  0  0  0
  8 17  1  6  0  0  0
  8  5  1  0  0  0  0
  9 13  2  0  0  0  0
 10 21  1  6  0  0  0
 11  6  2  0  0  0  0
 12 10  1  0  0  0  0
 13  3  1  0  0  0  0
 13  8  1  0  0  0  0
 14  4  1  0  0  0  0
 14 16  1  0  0  0  0
 15 11  1  0  0  0  0
 16 12  2  0  0  0  0
 17 14  1  0  0  0  0
 18  7  1  0  0  0  0
 21 20  2  0  0  0  0
 21 19  1  0  0  0  0
 22 26  1  6  0  0  0
 23 22  1  0  0  0  0
 24 19  1  6  0  0  0
 24 23  1  0  0  0  0
 24 22  1  0  0  0  0
 25 26  1  0  0  0  0
 27 26  1  0  0  0  0
 27 29  2  0  0  0  0
 28 27  1  0  0  0  0
M  END
>  <MODEL>
9

>  <REMARK>
 VINA RESULT:      -6.7      1.860      2.770
  Name = 
  3 active torsions:
  status: ('A' for Active; 'I' for Inactive)
    1  A    between atoms: N_2  and  C_25
    2  A    between atoms: N_6  and  C_11
    3  A    between atoms: C_14  and  C_18
                            x       y       z     vdW  Elec       q    Type
                         _______ _______ _______ _____ _____    ______ ____

>  <TORSDO>
F 3

$$$$
