=
 OpenBabel11042421163D

 55 58  0  0  1  0  0  0  0  0999 V2000
  162.1570  211.0890  150.6370 S   0  0  0  0  0  0  0  0  0  0  0  0
  160.2250  212.2490  149.2990 N   0  0  0  0  0  0  0  0  0  0  0  0
  161.5810  210.3270  149.0860 C   0  0  1  0  0  3  0  0  0  0  0  0
  160.7890  212.2160  150.4610 C   0  0  0  0  0  0  0  0  0  0  0  0
  160.8560  211.4210  148.2910 C   0  0  2  0  0  3  0  0  0  0  0  0
  161.7260  212.3130  147.4290 C   0  0  0  0  0  0  0  0  0  0  0  0
  162.8490  212.7200  147.8390 O   0  0  0  0  0  0  0  0  0  0  0  0
  161.2100  212.7860  146.1220 C   0  0  0  0  0  0  0  0  0  0  0  0
  162.0160  213.0550  145.1970 O   0  0  0  0  0  0  0  0  0  0  0  0
  159.7420  212.9340  145.8440 C   0  0  1  0  0  3  0  0  0  0  0  0
  159.0460  213.7220  146.9450 C   0  0  0  0  0  1  0  0  0  0  0  0
  159.5110  213.5560  144.4760 C   0  0  0  0  0  2  0  0  0  0  0  0
  159.5250  212.5620  143.4950 O   0  0  0  0  0  1  0  0  0  0  0  0
  160.1110  212.5670  152.7650 N   0  0  0  0  0  0  0  0  0  0  0  0
  160.3200  212.9920  151.5750 N   0  0  0  0  0  0  0  0  0  0  0  0
  159.2220  210.4080  152.8400 O   0  0  0  0  0  1  0  0  0  0  0  0
  160.3090  211.1920  153.2190 C   0  0  2  0  0  3  0  0  0  0  0  0
  160.5080  211.1320  154.7460 C   0  0  2  0  0  3  0  0  0  0  0  0
  160.7760  209.6960  155.2630 C   0  0  2  0  0  3  0  0  0  0  0  0
  159.6310  209.0550  156.0080 C   0  0  0  0  0  2  0  0  0  0  0  0
  161.9720  209.5690  156.1100 N   0  0  0  0  0  0  0  0  0  0  0  0
  160.3030  207.9400  156.7760 C   0  0  0  0  0  2  0  0  0  0  0  0
  161.7780  208.3180  156.8370 C   0  0  0  0  0  2  0  0  0  0  0  0
  162.0040  210.6230  157.1240 C   0  0  0  0  0  2  0  0  0  0  0  0
  163.4160  211.1660  157.2420 C   0  0  0  0  0  2  0  0  0  0  0  0
  164.0600  211.2030  155.8780 C   0  0  0  0  0  2  0  0  0  0  0  0
  165.7960  212.4250  157.1350 N   0  0  0  0  0  0  0  0  0  0  0  0
  165.3870  211.8770  155.9570 C   0  0  0  0  0  0  0  0  0  0  0  0
  165.8490  211.3600  153.6250 O   0  0  0  0  0  1  0  0  0  0  0  0
  166.2320  211.9210  154.8360 C   0  0  0  0  0  0  0  0  0  0  0  0
  167.4790  212.5420  154.9480 C   0  0  0  0  0  3  0  0  0  0  0  0
  167.0110  213.0260  157.2590 C   0  0  0  0  0  3  0  0  0  0  0  0
  167.8760  213.0980  156.1650 C   0  0  0  0  0  3  0  0  0  0  0  0
  159.3810  211.8500  155.5080 C   0  0  1  0  0  3  0  0  0  0  0  0
  159.9490  212.8880  156.4650 C   0  0  0  0  0  1  0  0  0  0  0  0
  157.3200  212.6700  155.4020 C   0  0  0  0  0  1  0  0  0  0  0  0
  158.4650  212.4510  154.6350 O   0  0  0  0  0  0  0  0  0  0  0  0
  162.6720  209.6950  148.3580 N   0  0  0  0  0  2  0  0  0  0  0  0
  162.6730  208.3410  148.7120 N   0  0  0  0  0  2  0  0  0  0  0  0
  161.6060  207.6950  147.9560 C   0  0  2  0  0  3  0  0  0  0  0  0
  161.3610  206.2650  148.4370 C   0  0  1  0  0  3  0  0  0  0  0  0
  162.1660  206.5170  147.1820 C   0  0  0  0  0  2  0  0  0  0  0  0
  162.2250  205.9040  149.4780 O   0  0  0  0  0  0  0  0  0  0  0  0
  161.3880  205.4840  150.5170 C   0  0  1  0  0  3  0  0  0  0  0  0
  160.6650  206.6780  151.1300 C   0  0  0  0  0  2  0  0  0  0  0  0
  161.0770  206.2410  153.4420 O   0  0  0  0  0  1  0  0  0  0  0  0
  161.9540  208.2040  152.6270 O   0  0  0  0  0  0  0  0  0  0  0  0
  161.2500  207.0160  152.4600 C   0  0  0  0  0  0  0  0  0  0  0  0
  160.3830  204.4680  149.9970 C   0  0  0  0  0  2  0  0  0  0  0  0
  160.9770  203.2090  149.8680 O   0  0  0  0  0  0  0  0  0  0  0  0
  160.3090  202.6120  148.7970 C   0  0  0  0  0  2  0  0  0  0  0  0
  161.2010  201.5590  148.1540 C   0  0  0  0  0  2  0  0  0  0  0  0
  161.4130  203.2170  146.3050 C   0  0  0  0  0  1  0  0  0  0  0  0
  161.2640  201.7470  146.6470 C   0  0  0  0  0  3  0  0  0  0  0  0
  159.9980  201.2110  146.0200 C   0  0  0  0  0  1  0  0  0  0  0  0
  2  4  2  0  0  0  0
  3 38  1  6  0  0  0
  3  1  1  0  0  0  0
  4  1  1  0  0  0  0
  4 15  1  0  0  0  0
  5  6  1  1  0  0  0
  5  3  1  0  0  0  0
  5  2  1  0  0  0  0
  6  7  2  0  0  0  0
  8  6  1  0  0  0  0
  9  8  2  0  0  0  0
 10  8  1  0  0  0  0
 10 11  1  1  0  0  0
 12 10  1  0  0  0  0
 13 12  1  0  0  0  0
 14 17  1  0  0  0  0
 15 14  2  0  0  0  0
 17 16  1  1  0  0  0
 18 17  1  6  0  0  0
 18 34  1  0  0  0  0
 19 18  1  1  0  0  0
 19 20  1  0  0  0  0
 19 21  1  0  0  0  0
 20 22  1  0  0  0  0
 21 23  1  0  0  0  0
 21 24  1  0  0  0  0
 22 23  1  0  0  0  0
 24 25  1  0  0  0  0
 26 28  1  0  0  0  0
 26 25  1  0  0  0  0
 27 32  1  0  0  0  0
 28 27  2  0  0  0  0
 29 30  1  0  0  0  0
 30 31  2  0  0  0  0
 30 28  1  0  0  0  0
 31 33  1  0  0  0  0
 33 32  2  0  0  0  0
 34 35  1  1  0  0  0
 37 36  1  0  0  0  0
 37 34  1  0  0  0  0
 38 39  1  0  0  0  0
 40 41  1  0  0  0  0
 40 39  1  1  0  0  0
 41 43  1  1  0  0  0
 42 40  1  0  0  0  0
 42 41  1  0  0  0  0
 43 44  1  0  0  0  0
 44 49  1  6  0  0  0
 44 45  1  0  0  0  0
 45 48  1  0  0  0  0
 48 47  2  0  0  0  0
 48 46  1  0  0  0  0
 50 49  1  0  0  0  0
 51 50  1  0  0  0  0
 52 51  1  0  0  0  0
 53 54  1  0  0  0  0
 54 52  1  0  0  0  0
 55 54  1  0  0  0  0
M  END
>  <MODEL>
1

>  <REMARK>
 VINA RESULT:      -3.4      0.000      0.000
  Name = 
  26 active torsions:
  status: ('A' for Active; 'I' for Inactive)
    1  A    between atoms: C_4  and  C_54
    2  A    between atoms: C_5  and  O_26
    3  A    between atoms: C_5  and  C_44
    4  A    between atoms: C_7  and  C_20
    5  A    between atoms: C_8  and  C_15
    6  A    between atoms: C_8  and  C_50
    7  A    between atoms: O_9  and  C_32
    8  A    between atoms: O_9  and  C_49
    9  A    between atoms: C_11  and  O_45
   10  A    between atoms: C_11  and  C_54
   11  A    between atoms: C_12  and  C_18
   12  A    between atoms: C_12  and  C_41
   13  A    between atoms: N_14  and  C_33
   14  A    between atoms: C_15  and  C_20
   15  A    between atoms: C_16  and  C_44
   16  A    between atoms: C_18  and  C_19
   17  A    between atoms: C_24  and  N_25
   18  A    between atoms: N_25  and  N_31
   19  A    between atoms: O_26  and  C_47
   20  A    between atoms: N_31  and  C_36
   21  A    between atoms: C_32  and  C_47
   22  A    between atoms: C_32  and  C_52
   23  A    between atoms: C_33  and  C_54
   24  A    between atoms: N_39  and  C_41
   25  A    between atoms: C_40  and  N_53
   26  A    between atoms: C_48  and  C_52
                            x       y       z     vdW  Elec       q    Type
                         _______ _______ _______ _____ _____    ______ ____

>  <TORSDO>
F 26

$$$$
=
 OpenBabel11042421163D

 55 58  0  0  1  0  0  0  0  0999 V2000
  160.7090  208.9270  152.9310 S   0  0  0  0  0  0  0  0  0  0  0  0
  161.7160  207.1910  154.6170 N   0  0  0  0  0  0  0  0  0  0  0  0
  162.1040  207.8870  152.3940 C   0  0  1  0  0  3  0  0  0  0  0  0
  160.9720  208.2460  154.5570 C   0  0  0  0  0  0  0  0  0  0  0  0
  162.1490  206.6750  153.3350 C   0  0  2  0  0  3  0  0  0  0  0  0
  161.2520  205.5100  152.9710 C   0  0  0  0  0  0  0  0  0  0  0  0
  160.1280  205.3560  153.5250 O   0  0  0  0  0  0  0  0  0  0  0  0
  161.7430  204.4860  152.0180 C   0  0  0  0  0  0  0  0  0  0  0  0
  162.7370  204.7380  151.2920 O   0  0  0  0  0  0  0  0  0  0  0  0
  161.1100  203.1300  151.9000 C   0  0  1  0  0  3  0  0  0  0  0  0
  159.7620  203.2060  151.1960 C   0  0  0  0  0  1  0  0  0  0  0  0
  162.0490  202.1520  151.2120 C   0  0  0  0  0  2  0  0  0  0  0  0
  161.4740  200.8800  151.1840 O   0  0  0  0  0  1  0  0  0  0  0  0
  159.8770  210.0380  155.7740 N   0  0  0  0  0  0  0  0  0  0  0  0
  160.4270  208.8820  155.7230 N   0  0  0  0  0  0  0  0  0  0  0  0
  160.5320  212.0500  154.7840 O   0  0  0  0  0  1  0  0  0  0  0  0
  159.7020  210.9410  154.6390 C   0  0  2  0  0  3  0  0  0  0  0  0
  158.2330  211.3860  154.5020 C   0  0  2  0  0  3  0  0  0  0  0  0
  158.0890  212.8390  153.9830 C   0  0  2  0  0  3  0  0  0  0  0  0
  156.6920  213.2430  153.5760 C   0  0  0  0  0  2  0  0  0  0  0  0
  158.9830  213.1770  152.8650 N   0  0  0  0  0  0  0  0  0  0  0  0
  156.9260  214.4520  152.7010 C   0  0  0  0  0  2  0  0  0  0  0  0
  158.3800  214.3580  152.2540 C   0  0  0  0  0  2  0  0  0  0  0  0
  158.9490  212.1330  151.8390 C   0  0  0  0  0  2  0  0  0  0  0  0
  160.2260  212.1860  151.0230 C   0  0  0  0  0  2  0  0  0  0  0  0
  160.3430  213.5340  150.3530 C   0  0  0  0  0  2  0  0  0  0  0  0
  161.7820  213.2580  148.3670 N   0  0  0  0  0  0  0  0  0  0  0  0
  160.5260  213.3590  148.8840 C   0  0  0  0  0  0  0  0  0  0  0  0
  158.1180  213.3500  148.5320 O   0  0  0  0  0  1  0  0  0  0  0  0
  159.4120  213.2640  148.0330 C   0  0  0  0  0  0  0  0  0  0  0  0
  159.6160  213.0800  146.6630 C   0  0  0  0  0  3  0  0  0  0  0  0
  161.9940  213.0700  147.0360 C   0  0  0  0  0  3  0  0  0  0  0  0
  160.9130  212.9800  146.1570 C   0  0  0  0  0  3  0  0  0  0  0  0
  157.4200  211.1150  155.7790 C   0  0  1  0  0  3  0  0  0  0  0  0
  157.5880  212.2500  156.7800 C   0  0  0  0  0  1  0  0  0  0  0  0
  155.3830  211.7840  156.3570 C   0  0  0  0  0  1  0  0  0  0  0  0
  156.0620  210.9190  155.4980 O   0  0  0  0  0  0  0  0  0  0  0  0
  162.0030  207.5350  150.9850 N   0  0  0  0  0  2  0  0  0  0  0  0
  161.1120  208.4400  150.3980 N   0  0  0  0  0  2  0  0  0  0  0  0
  161.6840  208.8430  149.1180 C   0  0  2  0  0  3  0  0  0  0  0  0
  161.4010  207.8130  148.0250 C   0  0  1  0  0  3  0  0  0  0  0  0
  162.7540  207.8540  148.7000 C   0  0  0  0  0  2  0  0  0  0  0  0
  160.6730  206.7190  148.5090 O   0  0  0  0  0  0  0  0  0  0  0  0
  160.5010  205.8790  147.4030 C   0  0  1  0  0  3  0  0  0  0  0  0
  160.6290  206.6740  146.1090 C   0  0  0  0  0  2  0  0  0  0  0  0
  161.8020  205.6660  144.2890 O   0  0  0  0  0  0  0  0  0  0  0  0
  159.6090  205.0250  144.5380 O   0  0  0  0  0  1  0  0  0  0  0  0
  160.7220  205.7550  144.9390 C   0  0  0  0  0  0  0  0  0  0  0  0
  161.5260  204.7570  147.4370 C   0  0  0  0  0  2  0  0  0  0  0  0
  161.2760  203.8920  148.5060 O   0  0  0  0  0  0  0  0  0  0  0  0
  161.1980  202.6250  147.9250 C   0  0  0  0  0  2  0  0  0  0  0  0
  161.0890  202.7550  146.4120 C   0  0  0  0  0  2  0  0  0  0  0  0
  159.7380  201.2890  144.9160 C   0  0  0  0  0  1  0  0  0  0  0  0
  160.9980  201.3870  145.7550 C   0  0  0  0  0  3  0  0  0  0  0  0
  160.9760  200.3170  146.8220 C   0  0  0  0  0  1  0  0  0  0  0  0
  1  4  1  0  0  0  0
  3 38  1  6  0  0  0
  3  1  1  0  0  0  0
  3  5  1  0  0  0  0
  4  2  2  0  0  0  0
  4 15  1  0  0  0  0
  5  6  1  6  0  0  0
  5  2  1  0  0  0  0
  6  7  2  0  0  0  0
  8  6  1  0  0  0  0
  9  8  2  0  0  0  0
 10 11  1  6  0  0  0
 10  8  1  0  0  0  0
 12 10  1  0  0  0  0
 13 12  1  0  0  0  0
 15 14  2  0  0  0  0
 17 16  1  1  0  0  0
 17 14  1  0  0  0  0
 18 17  1  1  0  0  0
 18 34  1  0  0  0  0
 19 18  1  6  0  0  0
 20 19  1  0  0  0  0
 21 19  1  0  0  0  0
 22 20  1  0  0  0  0
 23 22  1  0  0  0  0
 23 21  1  0  0  0  0
 24 21  1  0  0  0  0
 25 24  1  0  0  0  0
 26 25  1  0  0  0  0
 27 28  1  0  0  0  0
 28 26  1  0  0  0  0
 30 29  1  0  0  0  0
 30 28  2  0  0  0  0
 31 30  1  0  0  0  0
 32 27  2  0  0  0  0
 33 31  2  0  0  0  0
 33 32  1  0  0  0  0
 34 35  1  1  0  0  0
 37 34  1  0  0  0  0
 37 36  1  0  0  0  0
 39 38  1  0  0  0  0
 40 39  1  1  0  0  0
 41 43  1  1  0  0  0
 41 42  1  0  0  0  0
 41 40  1  0  0  0  0
 42 40  1  0  0  0  0
 44 45  1  6  0  0  0
 44 49  1  0  0  0  0
 44 43  1  0  0  0  0
 46 48  2  0  0  0  0
 47 48  1  0  0  0  0
 48 45  1  0  0  0  0
 49 50  1  0  0  0  0
 51 50  1  0  0  0  0
 52 51  1  0  0  0  0
 53 54  1  0  0  0  0
 54 52  1  0  0  0  0
 54 55  1  0  0  0  0
M  END
>  <MODEL>
2

>  <REMARK>
 VINA RESULT:      -3.3      3.337      7.044
  Name = 
  26 active torsions:
  status: ('A' for Active; 'I' for Inactive)
    1  A    between atoms: C_4  and  C_54
    2  A    between atoms: C_5  and  O_26
    3  A    between atoms: C_5  and  C_44
    4  A    between atoms: C_7  and  C_20
    5  A    between atoms: C_8  and  C_15
    6  A    between atoms: C_8  and  C_50
    7  A    between atoms: O_9  and  C_32
    8  A    between atoms: O_9  and  C_49
    9  A    between atoms: C_11  and  O_45
   10  A    between atoms: C_11  and  C_54
   11  A    between atoms: C_12  and  C_18
   12  A    between atoms: C_12  and  C_41
   13  A    between atoms: N_14  and  C_33
   14  A    between atoms: C_15  and  C_20
   15  A    between atoms: C_16  and  C_44
   16  A    between atoms: C_18  and  C_19
   17  A    between atoms: C_24  and  N_25
   18  A    between atoms: N_25  and  N_31
   19  A    between atoms: O_26  and  C_47
   20  A    between atoms: N_31  and  C_36
   21  A    between atoms: C_32  and  C_47
   22  A    between atoms: C_32  and  C_52
   23  A    between atoms: C_33  and  C_54
   24  A    between atoms: N_39  and  C_41
   25  A    between atoms: C_40  and  N_53
   26  A    between atoms: C_48  and  C_52
                            x       y       z     vdW  Elec       q    Type
                         _______ _______ _______ _____ _____    ______ ____

>  <TORSDO>
F 26

$$$$
=
 OpenBabel11042421163D

 55 58  0  0  1  0  0  0  0  0999 V2000
  160.5220  207.8280  151.7080 S   0  0  0  0  0  0  0  0  0  0  0  0
  162.1820  206.0060  152.5980 N   0  0  0  0  0  0  0  0  0  0  0  0
  161.4910  206.8610  150.5070 C   0  0  1  0  0  3  0  0  0  0  0  0
  161.5090  207.0450  152.9680 C   0  0  0  0  0  0  0  0  0  0  0  0
  161.9580  205.5890  151.2280 C   0  0  2  0  0  3  0  0  0  0  0  0
  160.9830  204.4300  151.2440 C   0  0  0  0  0  0  0  0  0  0  0  0
  160.2360  204.2220  152.2410 O   0  0  0  0  0  0  0  0  0  0  0  0
  160.9730  203.4740  150.1110 C   0  0  0  0  0  0  0  0  0  0  0  0
  160.4470  203.8090  149.0210 O   0  0  0  0  0  0  0  0  0  0  0  0
  161.5980  202.1120  150.2040 C   0  0  1  0  0  3  0  0  0  0  0  0
  161.7740  201.6810  151.6530 C   0  0  0  0  0  1  0  0  0  0  0  0
  160.7970  201.0940  149.4070 C   0  0  0  0  0  2  0  0  0  0  0  0
  159.5770  200.8500  150.0400 O   0  0  0  0  0  1  0  0  0  0  0  0
  161.4420  208.8160  154.6260 N   0  0  0  0  0  0  0  0  0  0  0  0
  161.5800  207.5860  154.2960 N   0  0  0  0  0  0  0  0  0  0  0  0
  162.1750  210.8880  153.8320 O   0  0  0  0  0  1  0  0  0  0  0  0
  161.1860  209.9160  153.6990 C   0  0  2  0  0  3  0  0  0  0  0  0
  159.7940  210.5330  153.9360 C   0  0  2  0  0  3  0  0  0  0  0  0
  159.6410  211.9390  153.3030 C   0  0  2  0  0  3  0  0  0  0  0  0
  158.2840  212.2350  152.7100 C   0  0  0  0  0  2  0  0  0  0  0  0
  160.6440  212.2550  152.2750 N   0  0  0  0  0  0  0  0  0  0  0  0
  158.5610  213.3970  151.7850 C   0  0  0  0  0  2  0  0  0  0  0  0
  160.0610  213.3580  151.5170 C   0  0  0  0  0  2  0  0  0  0  0  0
  160.7850  211.1480  151.3290 C   0  0  0  0  0  2  0  0  0  0  0  0
  160.6010  211.6660  149.9150 C   0  0  0  0  0  2  0  0  0  0  0  0
  161.7970  211.2850  149.0770 C   0  0  0  0  0  2  0  0  0  0  0  0
  160.5580  211.9270  147.0420 N   0  0  0  0  0  0  0  0  0  0  0  0
  161.7230  211.9540  147.7470 C   0  0  0  0  0  0  0  0  0  0  0  0
  164.0320  212.7000  147.9330 O   0  0  0  0  0  1  0  0  0  0  0  0
  162.8340  212.6430  147.2320 C   0  0  0  0  0  0  0  0  0  0  0  0
  162.7260  213.2770  145.9920 C   0  0  0  0  0  3  0  0  0  0  0  0
  160.4370  212.5480  145.8370 C   0  0  0  0  0  3  0  0  0  0  0  0
  161.5220  213.2340  145.2870 C   0  0  0  0  0  3  0  0  0  0  0  0
  159.3810  210.4870  155.4180 C   0  0  1  0  0  3  0  0  0  0  0  0
  159.8520  211.7350  156.1500 C   0  0  0  0  0  1  0  0  0  0  0  0
  157.5760  211.4780  156.2460 C   0  0  0  0  0  1  0  0  0  0  0  0
  157.9960  210.3360  155.5660 O   0  0  0  0  0  0  0  0  0  0  0  0
  160.7380  206.6030  149.2880 N   0  0  0  0  0  2  0  0  0  0  0  0
  161.1980  207.5060  148.3220 N   0  0  0  0  0  2  0  0  0  0  0  0
  162.5100  207.0420  147.8870 C   0  0  2  0  0  3  0  0  0  0  0  0
  162.4470  206.3850  146.5080 C   0  0  1  0  0  3  0  0  0  0  0  0
  162.5040  205.5320  147.7550 C   0  0  0  0  0  2  0  0  0  0  0  0
  161.1450  206.3680  145.9920 O   0  0  0  0  0  0  0  0  0  0  0  0
  161.1890  205.4680  144.9220 C   0  0  1  0  0  3  0  0  0  0  0  0
  160.0900  204.4210  145.0660 C   0  0  0  0  0  2  0  0  0  0  0  0
  160.1150  202.0590  144.7160 O   0  0  0  0  0  0  0  0  0  0  0  0
  161.8360  202.8950  145.9900 O   0  0  0  0  0  1  0  0  0  0  0  0
  160.6820  203.0630  145.2320 C   0  0  0  0  0  0  0  0  0  0  0  0
  161.0380  206.2150  143.6070 C   0  0  0  0  0  2  0  0  0  0  0  0
  161.9710  205.7610  142.6710 O   0  0  0  0  0  0  0  0  0  0  0  0
  161.6110  206.3890  141.4780 C   0  0  0  0  0  2  0  0  0  0  0  0
  162.8600  206.7610  140.6910 C   0  0  0  0  0  2  0  0  0  0  0  0
  161.2110  208.3010  139.6320 C   0  0  0  0  0  1  0  0  0  0  0  0
  162.4990  207.5260  139.4280 C   0  0  0  0  0  3  0  0  0  0  0  0
  162.3260  206.5540  138.2840 C   0  0  0  0  0  1  0  0  0  0  0  0
  1  4  1  0  0  0  0
  2  4  2  0  0  0  0
  3 38  1  6  0  0  0
  3  5  1  0  0  0  0
  3  1  1  0  0  0  0
  4 15  1  0  0  0  0
  5  6  1  1  0  0  0
  5  2  1  0  0  0  0
  6  7  2  0  0  0  0
  8 10  1  0  0  0  0
  8  6  1  0  0  0  0
  9  8  2  0  0  0  0
 10 11  1  1  0  0  0
 12 13  1  0  0  0  0
 12 10  1  0  0  0  0
 15 14  2  0  0  0  0
 17 16  1  1  0  0  0
 17 14  1  0  0  0  0
 18 17  1  1  0  0  0
 18 34  1  0  0  0  0
 19 18  1  6  0  0  0
 20 19  1  0  0  0  0
 21 19  1  0  0  0  0
 22 20  1  0  0  0  0
 23 22  1  0  0  0  0
 23 21  1  0  0  0  0
 24 21  1  0  0  0  0
 25 24  1  0  0  0  0
 26 25  1  0  0  0  0
 27 28  1  0  0  0  0
 28 26  1  0  0  0  0
 30 28  2  0  0  0  0
 30 29  1  0  0  0  0
 31 30  1  0  0  0  0
 32 27  2  0  0  0  0
 33 32  1  0  0  0  0
 33 31  2  0  0  0  0
 34 37  1  0  0  0  0
 34 35  1  1  0  0  0
 37 36  1  0  0  0  0
 39 38  1  0  0  0  0
 40 39  1  1  0  0  0
 41 43  1  1  0  0  0
 41 42  1  0  0  0  0
 41 40  1  0  0  0  0
 42 40  1  0  0  0  0
 44 49  1  6  0  0  0
 44 45  1  0  0  0  0
 44 43  1  0  0  0  0
 45 48  1  0  0  0  0
 46 48  2  0  0  0  0
 48 47  1  0  0  0  0
 50 49  1  0  0  0  0
 51 50  1  0  0  0  0
 52 51  1  0  0  0  0
 54 53  1  0  0  0  0
 54 52  1  0  0  0  0
 55 54  1  0  0  0  0
M  END
>  <MODEL>
3

>  <REMARK>
 VINA RESULT:      -2.4      3.169      7.662
  Name = 
  26 active torsions:
  status: ('A' for Active; 'I' for Inactive)
    1  A    between atoms: C_4  and  C_54
    2  A    between atoms: C_5  and  O_26
    3  A    between atoms: C_5  and  C_44
    4  A    between atoms: C_7  and  C_20
    5  A    between atoms: C_8  and  C_15
    6  A    between atoms: C_8  and  C_50
    7  A    between atoms: O_9  and  C_32
    8  A    between atoms: O_9  and  C_49
    9  A    between atoms: C_11  and  O_45
   10  A    between atoms: C_11  and  C_54
   11  A    between atoms: C_12  and  C_18
   12  A    between atoms: C_12  and  C_41
   13  A    between atoms: N_14  and  C_33
   14  A    between atoms: C_15  and  C_20
   15  A    between atoms: C_16  and  C_44
   16  A    between atoms: C_18  and  C_19
   17  A    between atoms: C_24  and  N_25
   18  A    between atoms: N_25  and  N_31
   19  A    between atoms: O_26  and  C_47
   20  A    between atoms: N_31  and  C_36
   21  A    between atoms: C_32  and  C_47
   22  A    between atoms: C_32  and  C_52
   23  A    between atoms: C_33  and  C_54
   24  A    between atoms: N_39  and  C_41
   25  A    between atoms: C_40  and  N_53
   26  A    between atoms: C_48  and  C_52
                            x       y       z     vdW  Elec       q    Type
                         _______ _______ _______ _____ _____    ______ ____

>  <TORSDO>
F 26

$$$$
=
 OpenBabel11042421163D

 55 58  0  0  1  0  0  0  0  0999 V2000
  162.1280  209.5630  150.8070 S   0  0  0  0  0  0  0  0  0  0  0  0
  160.9170  211.6410  149.7650 N   0  0  0  0  0  0  0  0  0  0  0  0
  161.3620  209.4010  149.1610 C   0  0  1  0  0  3  0  0  0  0  0  0
  161.3600  211.1690  150.8830 C   0  0  0  0  0  0  0  0  0  0  0  0
  161.1950  210.8210  148.6030 C   0  0  2  0  0  3  0  0  0  0  0  0
  162.3960  211.4090  147.8910 C   0  0  0  0  0  0  0  0  0  0  0  0
  163.4920  210.7820  147.8380 O   0  0  0  0  0  0  0  0  0  0  0  0
  162.3100  212.7770  147.3280 C   0  0  0  0  0  0  0  0  0  0  0  0
  163.0150  213.6950  147.8160 O   0  0  0  0  0  0  0  0  0  0  0  0
  161.4230  213.1120  146.1640 C   0  0  1  0  0  3  0  0  0  0  0  0
  160.4290  214.2080  146.5210 C   0  0  0  0  0  1  0  0  0  0  0  0
  162.2490  213.4780  144.9420 C   0  0  0  0  0  2  0  0  0  0  0  0
  163.5670  213.0490  145.1150 O   0  0  0  0  0  1  0  0  0  0  0  0
  160.6970  211.3760  153.2090 N   0  0  0  0  0  0  0  0  0  0  0  0
  161.2030  211.8560  152.1350 N   0  0  0  0  0  0  0  0  0  0  0  0
  158.8020  210.0120  153.1180 O   0  0  0  0  0  1  0  0  0  0  0  0
  160.1730  210.0210  153.3640 C   0  0  2  0  0  3  0  0  0  0  0  0
  160.4670  209.4660  154.7710 C   0  0  2  0  0  3  0  0  0  0  0  0
  161.5990  210.2360  155.4980 C   0  0  2  0  0  3  0  0  0  0  0  0
  162.5250  209.3850  156.3330 C   0  0  0  0  0  2  0  0  0  0  0  0
  161.1320  211.3380  156.3530 N   0  0  0  0  0  0  0  0  0  0  0  0
  163.1710  210.3890  157.2590 C   0  0  0  0  0  2  0  0  0  0  0  0
  162.2460  211.5990  157.2610 C   0  0  0  0  0  2  0  0  0  0  0  0
  160.0180  210.9050  157.1980 C   0  0  0  0  0  2  0  0  0  0  0  0
  158.8850  211.9070  157.0920 C   0  0  0  0  0  2  0  0  0  0  0  0
  157.8340  211.3840  156.1420 C   0  0  0  0  0  2  0  0  0  0  0  0
  155.6510  212.4720  156.5170 N   0  0  0  0  0  0  0  0  0  0  0  0
  156.8360  212.4510  155.8460 C   0  0  0  0  0  0  0  0  0  0  0  0
  158.3290  213.4680  154.2150 O   0  0  0  0  0  1  0  0  0  0  0  0
  157.1240  213.4550  154.9060 C   0  0  0  0  0  0  0  0  0  0  0  0
  156.1760  214.4530  154.6660 C   0  0  0  0  0  3  0  0  0  0  0  0
  154.7240  213.4440  156.2980 C   0  0  0  0  0  3  0  0  0  0  0  0
  154.9680  214.4530  155.3640 C   0  0  0  0  0  3  0  0  0  0  0  0
  160.6790  207.9420  154.7650 C   0  0  1  0  0  3  0  0  0  0  0  0
  159.5600  207.2370  155.5180 C   0  0  0  0  0  1  0  0  0  0  0  0
  161.4160  206.2070  153.5930 C   0  0  0  0  0  1  0  0  0  0  0  0
  160.7740  207.4380  153.4610 O   0  0  0  0  0  0  0  0  0  0  0  0
  162.1260  208.5150  148.2960 N   0  0  0  0  0  2  0  0  0  0  0  0
  161.8970  207.2070  148.7400 N   0  0  0  0  0  2  0  0  0  0  0  0
  160.5980  206.7950  148.2220 C   0  0  2  0  0  3  0  0  0  0  0  0
  160.6190  205.3460  147.7350 C   0  0  1  0  0  3  0  0  0  0  0  0
  160.7100  206.4840  146.7420 C   0  0  0  0  0  2  0  0  0  0  0  0
  161.8820  204.7590  147.8860 O   0  0  0  0  0  0  0  0  0  0  0  0
  161.6420  203.3810  147.9060 C   0  0  1  0  0  3  0  0  0  0  0  0
  160.4340  203.0670  148.7790 C   0  0  0  0  0  2  0  0  0  0  0  0
  160.8550  204.0130  150.9320 O   0  0  0  0  0  1  0  0  0  0  0  0
  161.2290  201.7530  150.7470 O   0  0  0  0  0  0  0  0  0  0  0  0
  160.8360  202.9750  150.2130 C   0  0  0  0  0  0  0  0  0  0  0  0
  161.4170  202.8710  146.4900 C   0  0  0  0  0  2  0  0  0  0  0  0
  160.5200  201.8000  146.4890 O   0  0  0  0  0  0  0  0  0  0  0  0
  161.2970  200.6890  146.1600 C   0  0  0  0  0  2  0  0  0  0  0  0
  160.4580  199.6810  145.3870 C   0  0  0  0  0  2  0  0  0  0  0  0
  162.2950  198.3050  146.3590 C   0  0  0  0  0  1  0  0  0  0  0  0
  161.0600  198.2880  145.4780 C   0  0  0  0  0  3  0  0  0  0  0  0
  161.4360  197.8100  144.0950 C   0  0  0  0  0  1  0  0  0  0  0  0
  1  4  1  0  0  0  0
  2  4  2  0  0  0  0
  3 38  1  6  0  0  0
  3  1  1  0  0  0  0
  4 15  1  0  0  0  0
  5  6  1  1  0  0  0
  5  3  1  0  0  0  0
  5  2  1  0  0  0  0
  7  6  2  0  0  0  0
  8  9  2  0  0  0  0
  8  6  1  0  0  0  0
 10 11  1  1  0  0  0
 10  8  1  0  0  0  0
 12 13  1  0  0  0  0
 12 10  1  0  0  0  0
 14 17  1  0  0  0  0
 15 14  2  0  0  0  0
 17 16  1  1  0  0  0
 18 17  1  6  0  0  0
 19 18  1  1  0  0  0
 19 20  1  0  0  0  0
 19 21  1  0  0  0  0
 20 22  1  0  0  0  0
 21 24  1  0  0  0  0
 21 23  1  0  0  0  0
 22 23  1  0  0  0  0
 25 24  1  0  0  0  0
 26 25  1  0  0  0  0
 28 26  1  0  0  0  0
 28 27  2  0  0  0  0
 29 30  1  0  0  0  0
 30 28  1  0  0  0  0
 31 30  2  0  0  0  0
 31 33  1  0  0  0  0
 32 27  1  0  0  0  0
 33 32  2  0  0  0  0
 34 18  1  0  0  0  0
 34 35  1  6  0  0  0
 37 36  1  0  0  0  0
 37 34  1  0  0  0  0
 38 39  1  0  0  0  0
 40 39  1  1  0  0  0
 41 43  1  1  0  0  0
 41 40  1  0  0  0  0
 42 41  1  0  0  0  0
 42 40  1  0  0  0  0
 43 44  1  0  0  0  0
 44 49  1  6  0  0  0
 44 45  1  0  0  0  0
 45 48  1  0  0  0  0
 48 47  2  0  0  0  0
 48 46  1  0  0  0  0
 50 49  1  0  0  0  0
 51 50  1  0  0  0  0
 52 54  1  0  0  0  0
 52 51  1  0  0  0  0
 54 53  1  0  0  0  0
 55 54  1  0  0  0  0
M  END
>  <MODEL>
4

>  <REMARK>
 VINA RESULT:      -2.1      2.273      4.896
  Name = 
  26 active torsions:
  status: ('A' for Active; 'I' for Inactive)
    1  A    between atoms: C_4  and  C_54
    2  A    between atoms: C_5  and  O_26
    3  A    between atoms: C_5  and  C_44
    4  A    between atoms: C_7  and  C_20
    5  A    between atoms: C_8  and  C_15
    6  A    between atoms: C_8  and  C_50
    7  A    between atoms: O_9  and  C_32
    8  A    between atoms: O_9  and  C_49
    9  A    between atoms: C_11  and  O_45
   10  A    between atoms: C_11  and  C_54
   11  A    between atoms: C_12  and  C_18
   12  A    between atoms: C_12  and  C_41
   13  A    between atoms: N_14  and  C_33
   14  A    between atoms: C_15  and  C_20
   15  A    between atoms: C_16  and  C_44
   16  A    between atoms: C_18  and  C_19
   17  A    between atoms: C_24  and  N_25
   18  A    between atoms: N_25  and  N_31
   19  A    between atoms: O_26  and  C_47
   20  A    between atoms: N_31  and  C_36
   21  A    between atoms: C_32  and  C_47
   22  A    between atoms: C_32  and  C_52
   23  A    between atoms: C_33  and  C_54
   24  A    between atoms: N_39  and  C_41
   25  A    between atoms: C_40  and  N_53
   26  A    between atoms: C_48  and  C_52
                            x       y       z     vdW  Elec       q    Type
                         _______ _______ _______ _____ _____    ______ ____

>  <TORSDO>
F 26

$$$$
=
 OpenBabel11042421163D

 55 58  0  0  1  0  0  0  0  0999 V2000
  159.9540  206.0450  144.9920 S   0  0  0  0  0  0  0  0  0  0  0  0
  161.7980  206.0470  146.8550 N   0  0  0  0  0  0  0  0  0  0  0  0
  161.7010  206.1940  144.5000 C   0  0  1  0  0  3  0  0  0  0  0  0
  160.5290  206.2080  146.6710 C   0  0  0  0  0  0  0  0  0  0  0  0
  162.5430  205.6710  145.6720 C   0  0  2  0  0  3  0  0  0  0  0  0
  162.7730  204.1740  145.7180 C   0  0  0  0  0  0  0  0  0  0  0  0
  163.9200  203.6850  145.5130 O   0  0  0  0  0  0  0  0  0  0  0  0
  161.6180  203.2680  145.9170 C   0  0  0  0  0  0  0  0  0  0  0  0
  160.7200  203.2040  145.0420 O   0  0  0  0  0  0  0  0  0  0  0  0
  161.4880  202.3870  147.1270 C   0  0  1  0  0  3  0  0  0  0  0  0
  160.9510  203.1630  148.3220 C   0  0  0  0  0  1  0  0  0  0  0  0
  160.6340  201.1680  146.8190 C   0  0  0  0  0  2  0  0  0  0  0  0
  161.2150  200.4310  145.7850 O   0  0  0  0  0  1  0  0  0  0  0  0
  159.9250  206.7000  148.9700 N   0  0  0  0  0  0  0  0  0  0  0  0
  159.6260  206.5540  147.7330 N   0  0  0  0  0  0  0  0  0  0  0  0
  161.8750  205.4140  148.9950 O   0  0  0  0  0  1  0  0  0  0  0  0
  161.2590  206.5370  149.5420 C   0  0  2  0  0  3  0  0  0  0  0  0
  161.1980  206.4210  151.0770 C   0  0  2  0  0  3  0  0  0  0  0  0
  161.7500  207.6760  151.8000 C   0  0  2  0  0  3  0  0  0  0  0  0
  160.7100  208.5550  152.4510 C   0  0  0  0  0  2  0  0  0  0  0  0
  162.5870  208.5430  150.9570 N   0  0  0  0  0  0  0  0  0  0  0  0
  161.4350  209.8680  152.6300 C   0  0  0  0  0  2  0  0  0  0  0  0
  162.6010  209.8290  151.6500 C   0  0  0  0  0  2  0  0  0  0  0  0
  161.9450  208.7890  149.6650 C   0  0  0  0  0  2  0  0  0  0  0  0
  162.0230  210.2680  149.3370 C   0  0  0  0  0  2  0  0  0  0  0  0
  161.8170  210.4690  147.8550 C   0  0  0  0  0  2  0  0  0  0  0  0
  160.0500  212.1030  147.3090 N   0  0  0  0  0  0  0  0  0  0  0  0
  161.3620  211.8630  147.5870 C   0  0  0  0  0  0  0  0  0  0  0  0
  163.6090  212.7230  147.9480 O   0  0  0  0  0  1  0  0  0  0  0  0
  162.2680  212.9340  147.6540 C   0  0  0  0  0  0  0  0  0  0  0  0
  161.8070  214.2320  147.4180 C   0  0  0  0  0  3  0  0  0  0  0  0
  159.5860  213.3630  147.0860 C   0  0  0  0  0  3  0  0  0  0  0  0
  160.4580  214.4530  147.1340 C   0  0  0  0  0  3  0  0  0  0  0  0
  161.8150  205.1070  151.5870 C   0  0  1  0  0  3  0  0  0  0  0  0
  162.9620  205.3840  152.5470 C   0  0  0  0  0  1  0  0  0  0  0  0
  161.2050  202.9880  151.8430 C   0  0  0  0  0  1  0  0  0  0  0  0
  160.8580  204.2900  152.2030 O   0  0  0  0  0  0  0  0  0  0  0  0
  161.9650  205.5180  143.2380 N   0  0  0  0  0  2  0  0  0  0  0  0
  161.5760  206.3900  142.2150 N   0  0  0  0  0  2  0  0  0  0  0  0
  162.6380  206.3860  141.2150 C   0  0  2  0  0  3  0  0  0  0  0  0
  162.5870  207.6340  140.3340 C   0  0  1  0  0  3  0  0  0  0  0  0
  162.0360  206.3210  139.8250 C   0  0  0  0  0  2  0  0  0  0  0  0
  161.5260  208.4800  140.6800 O   0  0  0  0  0  0  0  0  0  0  0  0
  161.6720  209.6020  139.8570 C   0  0  1  0  0  3  0  0  0  0  0  0
  160.7340  209.5050  138.6600 C   0  0  0  0  0  2  0  0  0  0  0  0
  161.8810  211.0240  137.2160 O   0  0  0  0  0  0  0  0  0  0  0  0
  159.7280  211.6100  137.7710 O   0  0  0  0  0  1  0  0  0  0  0  0
  160.8140  210.7430  137.8320 C   0  0  0  0  0  0  0  0  0  0  0  0
  161.3860  210.8690  140.6500 C   0  0  0  0  0  2  0  0  0  0  0  0
  162.4930  211.7220  140.6310 O   0  0  0  0  0  0  0  0  0  0  0  0
  161.9610  212.9960  140.8350 C   0  0  0  0  0  2  0  0  0  0  0  0
  160.6480  212.8920  141.5980 C   0  0  0  0  0  2  0  0  0  0  0  0
  161.4720  212.7870  143.9480 C   0  0  0  0  0  1  0  0  0  0  0  0
  160.7320  213.6280  142.9260 C   0  0  0  0  0  3  0  0  0  0  0  0
  159.3370  213.9180  143.4300 C   0  0  0  0  0  1  0  0  0  0  0  0
  1  4  1  0  0  0  0
  3 38  1  6  0  0  0
  3  1  1  0  0  0  0
  3  5  1  0  0  0  0
  4  2  2  0  0  0  0
  4 15  1  0  0  0  0
  5  6  1  6  0  0  0
  5  2  1  0  0  0  0
  6  8  1  0  0  0  0
  7  6  2  0  0  0  0
  8 10  1  0  0  0  0
  9  8  2  0  0  0  0
 10 11  1  1  0  0  0
 12 10  1  0  0  0  0
 13 12  1  0  0  0  0
 14 17  1  0  0  0  0
 15 14  2  0  0  0  0
 17 16  1  6  0  0  0
 18 17  1  6  0  0  0
 18 34  1  0  0  0  0
 19 18  1  6  0  0  0
 19 20  1  0  0  0  0
 20 22  1  0  0  0  0
 21 23  1  0  0  0  0
 21 19  1  0  0  0  0
 23 22  1  0  0  0  0
 24 21  1  0  0  0  0
 25 24  1  0  0  0  0
 26 25  1  0  0  0  0
 27 28  1  0  0  0  0
 28 30  2  0  0  0  0
 28 26  1  0  0  0  0
 30 29  1  0  0  0  0
 31 30  1  0  0  0  0
 32 33  1  0  0  0  0
 32 27  2  0  0  0  0
 33 31  2  0  0  0  0
 34 37  1  0  0  0  0
 34 35  1  1  0  0  0
 36 37  1  0  0  0  0
 39 38  1  0  0  0  0
 40 39  1  1  0  0  0
 41 43  1  1  0  0  0
 41 40  1  0  0  0  0
 42 41  1  0  0  0  0
 42 40  1  0  0  0  0
 44 45  1  6  0  0  0
 44 49  1  0  0  0  0
 44 43  1  0  0  0  0
 46 48  2  0  0  0  0
 47 48  1  0  0  0  0
 48 45  1  0  0  0  0
 50 49  1  0  0  0  0
 50 51  1  0  0  0  0
 51 52  1  0  0  0  0
 52 54  1  0  0  0  0
 54 55  1  0  0  0  0
 54 53  1  0  0  0  0
M  END
>  <MODEL>
5

>  <REMARK>
 VINA RESULT:      -2.0      4.029      9.701
  Name = 
  26 active torsions:
  status: ('A' for Active; 'I' for Inactive)
    1  A    between atoms: C_4  and  C_54
    2  A    between atoms: C_5  and  O_26
    3  A    between atoms: C_5  and  C_44
    4  A    between atoms: C_7  and  C_20
    5  A    between atoms: C_8  and  C_15
    6  A    between atoms: C_8  and  C_50
    7  A    between atoms: O_9  and  C_32
    8  A    between atoms: O_9  and  C_49
    9  A    between atoms: C_11  and  O_45
   10  A    between atoms: C_11  and  C_54
   11  A    between atoms: C_12  and  C_18
   12  A    between atoms: C_12  and  C_41
   13  A    between atoms: N_14  and  C_33
   14  A    between atoms: C_15  and  C_20
   15  A    between atoms: C_16  and  C_44
   16  A    between atoms: C_18  and  C_19
   17  A    between atoms: C_24  and  N_25
   18  A    between atoms: N_25  and  N_31
   19  A    between atoms: O_26  and  C_47
   20  A    between atoms: N_31  and  C_36
   21  A    between atoms: C_32  and  C_47
   22  A    between atoms: C_32  and  C_52
   23  A    between atoms: C_33  and  C_54
   24  A    between atoms: N_39  and  C_41
   25  A    between atoms: C_40  and  N_53
   26  A    between atoms: C_48  and  C_52
                            x       y       z     vdW  Elec       q    Type
                         _______ _______ _______ _____ _____    ______ ____

>  <TORSDO>
F 26

$$$$
=
 OpenBabel11042421163D

 55 58  0  0  1  0  0  0  0  0999 V2000
  160.5710  207.4890  150.6410 S   0  0  0  0  0  0  0  0  0  0  0  0
  162.4210  207.5820  152.4950 N   0  0  0  0  0  0  0  0  0  0  0  0
  161.5320  205.9840  151.0010 C   0  0  1  0  0  3  0  0  0  0  0  0
  161.6950  208.3340  151.7350 C   0  0  0  0  0  0  0  0  0  0  0  0
  162.1420  206.1640  152.3980 C   0  0  2  0  0  3  0  0  0  0  0  0
  161.2620  205.7780  153.5690 C   0  0  0  0  0  0  0  0  0  0  0  0
  160.5520  204.7340  153.5330 O   0  0  0  0  0  0  0  0  0  0  0  0
  161.1660  206.6860  154.7360 C   0  0  0  0  0  0  0  0  0  0  0  0
  162.0150  207.6000  154.8840 O   0  0  0  0  0  0  0  0  0  0  0  0
  160.0640  206.5770  155.7500 C   0  0  1  0  0  3  0  0  0  0  0  0
  160.6080  206.6460  157.1700 C   0  0  0  0  0  1  0  0  0  0  0  0
  158.9970  207.6320  155.5050 C   0  0  0  0  0  2  0  0  0  0  0  0
  159.1690  208.6950  156.3930 O   0  0  0  0  0  1  0  0  0  0  0  0
  161.0130  210.6010  152.2700 N   0  0  0  0  0  0  0  0  0  0  0  0
  161.8110  209.7650  151.7170 N   0  0  0  0  0  0  0  0  0  0  0  0
  158.6770  210.6290  152.3250 O   0  0  0  0  0  1  0  0  0  0  0  0
  159.8160  210.2500  153.0320 C   0  0  2  0  0  3  0  0  0  0  0  0
  159.8280  210.9100  154.4240 C   0  0  2  0  0  3  0  0  0  0  0  0
  158.7200  211.9800  154.5940 C   0  0  2  0  0  3  0  0  0  0  0  0
  157.3470  211.5680  154.1200 C   0  0  0  0  0  2  0  0  0  0  0  0
  159.0260  213.2750  153.9670 N   0  0  0  0  0  0  0  0  0  0  0  0
  156.6320  212.8880  153.9530 C   0  0  0  0  0  2  0  0  0  0  0  0
  157.7310  213.9370  153.8370 C   0  0  0  0  0  2  0  0  0  0  0  0
  159.5210  213.0890  152.6030 C   0  0  0  0  0  2  0  0  0  0  0  0
  159.1460  214.2940  151.7610 C   0  0  0  0  0  2  0  0  0  0  0  0
  159.9720  214.3050  150.4970 C   0  0  0  0  0  2  0  0  0  0  0  0
  157.8220  213.6790  149.4590 N   0  0  0  0  0  0  0  0  0  0  0  0
  159.1800  213.7460  149.3650 C   0  0  0  0  0  0  0  0  0  0  0  0
  161.2000  213.3900  148.0570 O   0  0  0  0  0  1  0  0  0  0  0  0
  159.8190  213.3220  148.1880 C   0  0  0  0  0  0  0  0  0  0  0  0
  159.0470  212.8220  147.1360 C   0  0  0  0  0  3  0  0  0  0  0  0
  157.0580  213.2020  148.4380 C   0  0  0  0  0  3  0  0  0  0  0  0
  157.6580  212.7620  147.2570 C   0  0  0  0  0  3  0  0  0  0  0  0
  161.2260  211.4180  154.8170 C   0  0  1  0  0  3  0  0  0  0  0  0
  161.1830  212.1480  156.1510 C   0  0  0  0  0  1  0  0  0  0  0  0
  162.5890  210.3370  156.1960 C   0  0  0  0  0  1  0  0  0  0  0  0
  162.1600  210.3750  154.8690 O   0  0  0  0  0  0  0  0  0  0  0  0
  160.7230  204.7810  150.8620 N   0  0  0  0  0  2  0  0  0  0  0  0
  161.2640  204.0410  149.8040 N   0  0  0  0  0  2  0  0  0  0  0  0
  161.0670  202.6300  150.1180 C   0  0  2  0  0  3  0  0  0  0  0  0
  161.0410  201.7700  148.8540 C   0  0  1  0  0  3  0  0  0  0  0  0
  159.7490  202.1550  149.5410 C   0  0  0  0  0  2  0  0  0  0  0  0
  161.1960  202.5370  147.6930 O   0  0  0  0  0  0  0  0  0  0  0  0
  161.1010  201.6230  146.6380 C   0  0  1  0  0  3  0  0  0  0  0  0
  161.2680  200.1990  147.1550 C   0  0  0  0  0  2  0  0  0  0  0  0
  160.3180  199.1130  145.2510 O   0  0  0  0  0  0  0  0  0  0  0  0
  162.4370  198.4360  145.8300 O   0  0  0  0  0  1  0  0  0  0  0  0
  161.3140  199.2340  146.0200 C   0  0  0  0  0  0  0  0  0  0  0  0
  159.7610  201.7770  145.9350 C   0  0  0  0  0  2  0  0  0  0  0  0
  159.8870  202.5920  144.8080 O   0  0  0  0  0  0  0  0  0  0  0  0
  160.9320  203.4640  145.1160 C   0  0  0  0  0  2  0  0  0  0  0  0
  160.5790  204.8750  144.6680 C   0  0  0  0  0  2  0  0  0  0  0  0
  162.8020  205.4310  145.6490 C   0  0  0  0  0  1  0  0  0  0  0  0
  161.3760  205.9080  145.4480 C   0  0  0  0  0  3  0  0  0  0  0  0
  160.7270  206.1340  146.7940 C   0  0  0  0  0  1  0  0  0  0  0  0
  1  3  1  0  0  0  0
  1  4  1  0  0  0  0
  3 38  1  1  0  0  0
  3  5  1  0  0  0  0
  4  2  2  0  0  0  0
  5  2  1  0  0  0  0
  5  6  1  1  0  0  0
  6  8  1  0  0  0  0
  7  6  2  0  0  0  0
  8  9  2  0  0  0  0
  8 10  1  0  0  0  0
 10 11  1  1  0  0  0
 12 10  1  0  0  0  0
 12 13  1  0  0  0  0
 14 17  1  0  0  0  0
 15  4  1  0  0  0  0
 15 14  2  0  0  0  0
 17 16  1  6  0  0  0
 18 17  1  6  0  0  0
 18 34  1  0  0  0  0
 19 18  1  6  0  0  0
 20 19  1  0  0  0  0
 21 19  1  0  0  0  0
 22 20  1  0  0  0  0
 23 22  1  0  0  0  0
 23 21  1  0  0  0  0
 24 21  1  0  0  0  0
 25 24  1  0  0  0  0
 26 25  1  0  0  0  0
 28 27  1  0  0  0  0
 28 26  1  0  0  0  0
 29 30  1  0  0  0  0
 30 28  2  0  0  0  0
 31 33  2  0  0  0  0
 31 30  1  0  0  0  0
 32 27  2  0  0  0  0
 33 32  1  0  0  0  0
 34 37  1  0  0  0  0
 34 35  1  1  0  0  0
 37 36  1  0  0  0  0
 39 38  1  0  0  0  0
 40 39  1  6  0  0  0
 41 43  1  6  0  0  0
 41 42  1  0  0  0  0
 41 40  1  0  0  0  0
 42 40  1  0  0  0  0
 44 49  1  1  0  0  0
 44 45  1  0  0  0  0
 44 43  1  0  0  0  0
 46 48  2  0  0  0  0
 47 48  1  0  0  0  0
 48 45  1  0  0  0  0
 50 51  1  0  0  0  0
 50 49  1  0  0  0  0
 52 51  1  0  0  0  0
 52 54  1  0  0  0  0
 54 53  1  0  0  0  0
 54 55  1  0  0  0  0
M  END
>  <MODEL>
6

>  <REMARK>
 VINA RESULT:      -1.9      2.783      7.579
  Name = 
  26 active torsions:
  status: ('A' for Active; 'I' for Inactive)
    1  A    between atoms: C_4  and  C_54
    2  A    between atoms: C_5  and  O_26
    3  A    between atoms: C_5  and  C_44
    4  A    between atoms: C_7  and  C_20
    5  A    between atoms: C_8  and  C_15
    6  A    between atoms: C_8  and  C_50
    7  A    between atoms: O_9  and  C_32
    8  A    between atoms: O_9  and  C_49
    9  A    between atoms: C_11  and  O_45
   10  A    between atoms: C_11  and  C_54
   11  A    between atoms: C_12  and  C_18
   12  A    between atoms: C_12  and  C_41
   13  A    between atoms: N_14  and  C_33
   14  A    between atoms: C_15  and  C_20
   15  A    between atoms: C_16  and  C_44
   16  A    between atoms: C_18  and  C_19
   17  A    between atoms: C_24  and  N_25
   18  A    between atoms: N_25  and  N_31
   19  A    between atoms: O_26  and  C_47
   20  A    between atoms: N_31  and  C_36
   21  A    between atoms: C_32  and  C_47
   22  A    between atoms: C_32  and  C_52
   23  A    between atoms: C_33  and  C_54
   24  A    between atoms: N_39  and  C_41
   25  A    between atoms: C_40  and  N_53
   26  A    between atoms: C_48  and  C_52
                            x       y       z     vdW  Elec       q    Type
                         _______ _______ _______ _____ _____    ______ ____

>  <TORSDO>
F 26

$$$$
=
 OpenBabel11042421163D

 55 59  0  0  1  0  0  0  0  0999 V2000
  161.1830  208.4900  150.3450 S   0  0  1  0  0  3  0  0  0  0  0  0
  162.6060  209.0280  148.2110 N   0  0  0  0  0  0  0  0  0  0  0  0
  162.3190  209.9140  150.3810 C   0  0  1  0  0  3  0  0  0  0  0  0
  161.9100  208.0920  148.7680 C   0  0  0  0  0  0  0  0  0  0  0  0
  162.6140  210.2890  148.9230 C   0  0  2  0  0  3  0  0  0  0  0  0
  161.6170  211.2120  148.2520 C   0  0  0  0  0  0  0  0  0  0  0  0
  160.7520  210.7630  147.4490 O   0  0  0  0  0  0  0  0  0  0  0  0
  161.7180  212.6740  148.4730 C   0  0  0  0  0  0  0  0  0  0  0  0
  162.8050  213.2620  148.2530 O   0  0  0  0  0  0  0  0  0  0  0  0
  160.5500  213.5000  148.9300 C   0  0  1  0  0  3  0  0  0  0  0  0
  160.9470  214.4500  150.0510 C   0  0  0  0  0  1  0  0  0  0  0  0
  159.9210  214.2400  147.7610 C   0  0  0  0  0  2  0  0  0  0  0  0
  158.5450  214.0060  147.7350 O   0  0  0  0  0  1  0  0  0  0  0  0
  161.2260  205.7630  148.7510 N   0  0  0  0  0  0  0  0  0  0  0  0
  161.7630  206.7840  148.1930 N   0  0  0  0  0  2  0  0  0  0  0  0
  160.6590  207.0210  150.6360 O   0  0  0  0  0  0  0  0  0  0  0  0
  160.6570  205.7370  150.0960 C   0  0  0  0  0  0  0  0  0  0  0  0
  161.4310  204.7690  151.0110 C   0  0  2  0  0  3  0  0  0  0  0  0
  160.7840  203.3630  151.0880 C   0  0  2  0  0  3  0  0  0  0  0  0
  161.6800  202.2680  151.6130 C   0  0  0  0  0  2  0  0  0  0  0  0
  160.2130  202.8870  149.8190 N   0  0  0  0  0  0  0  0  0  0  0  0
  160.9970  201.0080  151.1370 C   0  0  0  0  0  2  0  0  0  0  0  0
  160.0960  201.4410  149.9870 C   0  0  0  0  0  2  0  0  0  0  0  0
  161.1540  203.0890  148.7170 C   0  0  0  0  0  2  0  0  0  0  0  0
  160.7660  202.1980  147.5530 C   0  0  0  0  0  2  0  0  0  0  0  0
  161.8350  202.2630  146.4880 C   0  0  0  0  0  2  0  0  0  0  0  0
  160.5450  203.8800  145.1430 N   0  0  0  0  0  0  0  0  0  0  0  0
  161.7260  203.5430  145.7320 C   0  0  0  0  0  0  0  0  0  0  0  0
  164.0340  204.1090  146.2530 O   0  0  0  0  0  1  0  0  0  0  0  0
  162.8210  204.4190  145.6520 C   0  0  0  0  0  0  0  0  0  0  0  0
  162.6810  205.6210  144.9530 C   0  0  0  0  0  3  0  0  0  0  0  0
  160.3930  205.0510  144.4660 C   0  0  0  0  0  3  0  0  0  0  0  0
  161.4610  205.9440  144.3560 C   0  0  0  0  0  3  0  0  0  0  0  0
  161.7210  205.3800  152.3930 C   0  0  1  0  0  3  0  0  0  0  0  0
  162.8280  206.4200  152.3050 C   0  0  0  0  0  1  0  0  0  0  0  0
  161.0350  206.7140  154.0290 C   0  0  0  0  0  1  0  0  0  0  0  0
  160.5720  205.9460  152.9600 O   0  0  0  0  0  0  0  0  0  0  0  0
  161.7840  211.0110  151.1750 N   0  0  0  0  0  2  0  0  0  0  0  0
  160.6660  210.5170  151.8580 N   0  0  0  0  0  2  0  0  0  0  0  0
  159.7650  211.6410  152.0840 C   0  0  2  0  0  3  0  0  0  0  0  0
  159.6780  212.0050  153.5660 C   0  0  1  0  0  3  0  0  0  0  0  0
  158.5810  211.1920  152.9170 C   0  0  0  0  0  2  0  0  0  0  0  0
  160.4690  211.1660  154.3610 O   0  0  0  0  0  0  0  0  0  0  0  0
  160.0240  211.3780  155.6700 C   0  0  1  0  0  3  0  0  0  0  0  0
  160.9750  210.7240  156.6650 C   0  0  0  0  0  2  0  0  0  0  0  0
  163.3450  210.9560  156.8550 O   0  0  0  0  0  1  0  0  0  0  0  0
  162.5640  210.3810  154.7710 O   0  0  0  0  0  0  0  0  0  0  0  0
  162.3600  210.6830  156.1130 C   0  0  0  0  0  0  0  0  0  0  0  0
  159.9140  212.8700  155.9470 C   0  0  0  0  0  2  0  0  0  0  0  0
  158.6310  213.1950  156.3950 O   0  0  0  0  0  0  0  0  0  0  0  0
  158.0100  213.7840  155.2930 C   0  0  0  0  0  2  0  0  0  0  0  0
  156.5090  213.8750  155.5320 C   0  0  0  0  0  2  0  0  0  0  0  0
  155.8000  211.5170  155.9180 C   0  0  0  0  0  1  0  0  0  0  0  0
  156.0620  212.8600  156.5720 C   0  0  0  0  0  3  0  0  0  0  0  0
  154.7980  213.3480  157.2410 C   0  0  0  0  0  1  0  0  0  0  0  0
  1  4  1  6  0  0  0
  1  3  1  0  0  0  0
  1 16  1  0  0  0  0
  2  4  2  0  0  0  0
  2  5  1  0  0  0  0
  3 38  1  1  0  0  0
  5  6  1  6  0  0  0
  5  3  1  0  0  0  0
  6  8  1  0  0  0  0
  7  6  2  0  0  0  0
  8 10  1  0  0  0  0
  9  8  2  0  0  0  0
 10 11  1  1  0  0  0
 12 10  1  0  0  0  0
 13 12  1  0  0  0  0
 14 17  2  0  0  0  0
 15 14  1  0  0  0  0
 15  4  1  0  0  0  0
 17 16  1  0  0  0  0
 17 18  1  0  0  0  0
 18 34  1  1  0  0  0
 19 18  1  6  0  0  0
 19 20  1  0  0  0  0
 21 23  1  0  0  0  0
 21 19  1  0  0  0  0
 22 20  1  0  0  0  0
 23 22  1  0  0  0  0
 24 21  1  0  0  0  0
 25 24  1  0  0  0  0
 26 25  1  0  0  0  0
 27 28  1  0  0  0  0
 28 26  1  0  0  0  0
 30 28  2  0  0  0  0
 30 29  1  0  0  0  0
 31 30  1  0  0  0  0
 32 27  2  0  0  0  0
 33 32  1  0  0  0  0
 33 31  2  0  0  0  0
 34 35  1  6  0  0  0
 34 37  1  0  0  0  0
 37 36  1  0  0  0  0
 38 39  1  0  0  0  0
 40 39  1  1  0  0  0
 40 42  1  0  0  0  0
 40 41  1  0  0  0  0
 41 43  1  1  0  0  0
 42 41  1  0  0  0  0
 43 44  1  0  0  0  0
 44 49  1  1  0  0  0
 44 45  1  0  0  0  0
 47 48  2  0  0  0  0
 48 45  1  0  0  0  0
 48 46  1  0  0  0  0
 49 50  1  0  0  0  0
 51 52  1  0  0  0  0
 51 50  1  0  0  0  0
 52 54  1  0  0  0  0
 53 54  1  0  0  0  0
 54 55  1  0  0  0  0
M  END
>  <MODEL>
7

>  <REMARK>
 VINA RESULT:      -1.4      2.684      9.210
  Name = 
  26 active torsions:
  status: ('A' for Active; 'I' for Inactive)
    1  A    between atoms: C_4  and  C_54
    2  A    between atoms: C_5  and  O_26
    3  A    between atoms: C_5  and  C_44
    4  A    between atoms: C_7  and  C_20
    5  A    between atoms: C_8  and  C_15
    6  A    between atoms: C_8  and  C_50
    7  A    between atoms: O_9  and  C_32
    8  A    between atoms: O_9  and  C_49
    9  A    between atoms: C_11  and  O_45
   10  A    between atoms: C_11  and  C_54
   11  A    between atoms: C_12  and  C_18
   12  A    between atoms: C_12  and  C_41
   13  A    between atoms: N_14  and  C_33
   14  A    between atoms: C_15  and  C_20
   15  A    between atoms: C_16  and  C_44
   16  A    between atoms: C_18  and  C_19
   17  A    between atoms: C_24  and  N_25
   18  A    between atoms: N_25  and  N_31
   19  A    between atoms: O_26  and  C_47
   20  A    between atoms: N_31  and  C_36
   21  A    between atoms: C_32  and  C_47
   22  A    between atoms: C_32  and  C_52
   23  A    between atoms: C_33  and  C_54
   24  A    between atoms: N_39  and  C_41
   25  A    between atoms: C_40  and  N_53
   26  A    between atoms: C_48  and  C_52
                            x       y       z     vdW  Elec       q    Type
                         _______ _______ _______ _____ _____    ______ ____

>  <TORSDO>
F 26

$$$$
=
 OpenBabel11042421163D

 55 58  0  0  1  0  0  0  0  0999 V2000
  159.9530  206.2000  145.0410 S   0  0  0  0  0  0  0  0  0  0  0  0
  162.0260  205.9950  146.6320 N   0  0  0  0  0  0  0  0  0  0  0  0
  161.6240  206.2110  144.3140 C   0  0  1  0  0  3  0  0  0  0  0  0
  160.7630  206.2700  146.6260 C   0  0  0  0  0  0  0  0  0  0  0  0
  162.5680  205.5880  145.3510 C   0  0  2  0  0  3  0  0  0  0  0  0
  162.6690  204.0760  145.3440 C   0  0  0  0  0  0  0  0  0  0  0  0
  163.7920  203.4990  145.3510 O   0  0  0  0  0  0  0  0  0  0  0  0
  161.4320  203.2660  145.2370 C   0  0  0  0  0  0  0  0  0  0  0  0
  160.4590  203.7030  144.5750 O   0  0  0  0  0  0  0  0  0  0  0  0
  161.3020  201.9120  145.8710 C   0  0  1  0  0  3  0  0  0  0  0  0
  161.5560  201.9760  147.3710 C   0  0  0  0  0  1  0  0  0  0  0  0
  159.9490  201.2940  145.5560 C   0  0  0  0  0  2  0  0  0  0  0  0
  160.0770  200.3790  144.5090 O   0  0  0  0  0  1  0  0  0  0  0  0
  160.2430  206.2310  148.9970 N   0  0  0  0  0  0  0  0  0  0  0  0
  160.0470  206.6640  147.8070 N   0  0  0  0  0  0  0  0  0  0  0  0
  161.4000  204.3030  148.3600 O   0  0  0  0  0  1  0  0  0  0  0  0
  161.2440  205.2380  149.3810 C   0  0  2  0  0  3  0  0  0  0  0  0
  160.8570  204.5360  150.6960 C   0  0  2  0  0  3  0  0  0  0  0  0
  161.6020  205.1090  151.9290 C   0  0  2  0  0  3  0  0  0  0  0  0
  160.7580  205.2870  153.1670 C   0  0  0  0  0  2  0  0  0  0  0  0
  162.2890  206.3870  151.6830 N   0  0  0  0  0  0  0  0  0  0  0  0
  161.5630  206.2620  153.9940 C   0  0  0  0  0  2  0  0  0  0  0  0
  162.5020  206.9530  153.0120 C   0  0  0  0  0  2  0  0  0  0  0  0
  161.4090  207.3240  150.9840 C   0  0  0  0  0  2  0  0  0  0  0  0
  162.1970  208.5590  150.5920 C   0  0  0  0  0  2  0  0  0  0  0  0
  161.5760  209.7790  151.2290 C   0  0  0  0  0  2  0  0  0  0  0  0
  162.3000  210.8210  149.1130 N   0  0  0  0  0  0  0  0  0  0  0  0
  161.5830  210.9170  150.2670 C   0  0  0  0  0  0  0  0  0  0  0  0
  160.0770  212.1960  151.6870 O   0  0  0  0  0  1  0  0  0  0  0  0
  160.8280  212.0730  150.5250 C   0  0  0  0  0  0  0  0  0  0  0  0
  160.8390  213.1150  149.5930 C   0  0  0  0  0  3  0  0  0  0  0  0
  162.3120  211.8250  148.1930 C   0  0  0  0  0  3  0  0  0  0  0  0
  161.5820  212.9940  148.4180 C   0  0  0  0  0  3  0  0  0  0  0  0
  160.9530  203.0040  150.5890 C   0  0  1  0  0  3  0  0  0  0  0  0
  161.9020  202.4460  151.6400 C   0  0  0  0  0  1  0  0  0  0  0  0
  159.7000  201.3700  149.7600 C   0  0  0  0  0  1  0  0  0  0  0  0
  159.6960  202.3970  150.7040 O   0  0  0  0  0  0  0  0  0  0  0  0
  161.6520  205.5480  143.0180 N   0  0  0  0  0  2  0  0  0  0  0  0
  161.5130  206.5440  142.0440 N   0  0  0  0  0  2  0  0  0  0  0  0
  162.7000  206.4920  141.1990 C   0  0  2  0  0  3  0  0  0  0  0  0
  162.6950  207.6040  140.1500 C   0  0  1  0  0  3  0  0  0  0  0  0
  162.2990  206.1940  139.7670 C   0  0  0  0  0  2  0  0  0  0  0  0
  161.5460  208.4010  140.2340 O   0  0  0  0  0  0  0  0  0  0  0  0
  161.6840  209.3470  139.2130 C   0  0  1  0  0  3  0  0  0  0  0  0
  160.6320  209.1170  138.1340 C   0  0  0  0  0  2  0  0  0  0  0  0
  159.5190  211.1200  137.4580 O   0  0  0  0  0  0  0  0  0  0  0  0
  158.5760  210.0080  139.2350 O   0  0  0  0  0  1  0  0  0  0  0  0
  159.5430  210.1300  138.2430 C   0  0  0  0  0  0  0  0  0  0  0  0
  161.5570  210.7510  139.7840 C   0  0  0  0  0  2  0  0  0  0  0  0
  161.4060  210.7070  141.1720 O   0  0  0  0  0  0  0  0  0  0  0  0
  161.0210  212.0010  141.5270 C   0  0  0  0  0  2  0  0  0  0  0  0
  161.9510  212.5400  142.6040 C   0  0  0  0  0  2  0  0  0  0  0  0
  159.7480  212.5750  143.7710 C   0  0  0  0  0  1  0  0  0  0  0  0
  161.2540  212.5780  143.9550 C   0  0  0  0  0  3  0  0  0  0  0  0
  161.6670  213.8260  144.7000 C   0  0  0  0  0  1  0  0  0  0  0  0
  1  4  1  0  0  0  0
  3 38  1  6  0  0  0
  3  1  1  0  0  0  0
  3  5  1  0  0  0  0
  4  2  2  0  0  0  0
  4 15  1  0  0  0  0
  5  6  1  1  0  0  0
  5  2  1  0  0  0  0
  6  7  2  0  0  0  0
  8  6  1  0  0  0  0
  8 10  1  0  0  0  0
  9  8  2  0  0  0  0
 10 11  1  1  0  0  0
 12 10  1  0  0  0  0
 13 12  1  0  0  0  0
 14 17  1  0  0  0  0
 15 14  2  0  0  0  0
 17 16  1  6  0  0  0
 18 17  1  6  0  0  0
 19 18  1  6  0  0  0
 19 20  1  0  0  0  0
 20 22  1  0  0  0  0
 21 19  1  0  0  0  0
 21 23  1  0  0  0  0
 23 22  1  0  0  0  0
 24 21  1  0  0  0  0
 25 24  1  0  0  0  0
 25 26  1  0  0  0  0
 27 28  1  0  0  0  0
 28 30  2  0  0  0  0
 28 26  1  0  0  0  0
 30 29  1  0  0  0  0
 31 30  1  0  0  0  0
 32 33  1  0  0  0  0
 32 27  2  0  0  0  0
 33 31  2  0  0  0  0
 34 18  1  0  0  0  0
 34 37  1  0  0  0  0
 34 35  1  1  0  0  0
 36 37  1  0  0  0  0
 39 38  1  0  0  0  0
 40 39  1  1  0  0  0
 41 43  1  1  0  0  0
 41 40  1  0  0  0  0
 42 41  1  0  0  0  0
 42 40  1  0  0  0  0
 44 45  1  6  0  0  0
 44 49  1  0  0  0  0
 44 43  1  0  0  0  0
 45 48  1  0  0  0  0
 46 48  2  0  0  0  0
 48 47  1  0  0  0  0
 49 50  1  0  0  0  0
 50 51  1  0  0  0  0
 51 52  1  0  0  0  0
 52 54  1  0  0  0  0
 53 54  1  0  0  0  0
 54 55  1  0  0  0  0
M  END
>  <MODEL>
8

>  <REMARK>
 VINA RESULT:      -1.3      4.230      9.566
  Name = 
  26 active torsions:
  status: ('A' for Active; 'I' for Inactive)
    1  A    between atoms: C_4  and  C_54
    2  A    between atoms: C_5  and  O_26
    3  A    between atoms: C_5  and  C_44
    4  A    between atoms: C_7  and  C_20
    5  A    between atoms: C_8  and  C_15
    6  A    between atoms: C_8  and  C_50
    7  A    between atoms: O_9  and  C_32
    8  A    between atoms: O_9  and  C_49
    9  A    between atoms: C_11  and  O_45
   10  A    between atoms: C_11  and  C_54
   11  A    between atoms: C_12  and  C_18
   12  A    between atoms: C_12  and  C_41
   13  A    between atoms: N_14  and  C_33
   14  A    between atoms: C_15  and  C_20
   15  A    between atoms: C_16  and  C_44
   16  A    between atoms: C_18  and  C_19
   17  A    between atoms: C_24  and  N_25
   18  A    between atoms: N_25  and  N_31
   19  A    between atoms: O_26  and  C_47
   20  A    between atoms: N_31  and  C_36
   21  A    between atoms: C_32  and  C_47
   22  A    between atoms: C_32  and  C_52
   23  A    between atoms: C_33  and  C_54
   24  A    between atoms: N_39  and  C_41
   25  A    between atoms: C_40  and  N_53
   26  A    between atoms: C_48  and  C_52
                            x       y       z     vdW  Elec       q    Type
                         _______ _______ _______ _____ _____    ______ ____

>  <TORSDO>
F 26

$$$$
=
 OpenBabel11042421163D

 55 58  0  0  1  0  0  0  0  0999 V2000
  160.4850  206.9190  144.9450 S   0  0  0  0  0  0  0  0  0  0  0  0
  161.7350  205.4110  146.6870 N   0  0  0  0  0  0  0  0  0  0  0  0
  161.8420  205.8500  144.3680 C   0  0  1  0  0  3  0  0  0  0  0  0
  160.9560  206.4380  146.5950 C   0  0  0  0  0  0  0  0  0  0  0  0
  162.0340  204.7570  145.4290 C   0  0  2  0  0  3  0  0  0  0  0  0
  161.1400  203.5400  145.3090 C   0  0  0  0  0  0  0  0  0  0  0  0
  160.1770  203.5190  144.4910 O   0  0  0  0  0  0  0  0  0  0  0  0
  161.3430  202.3950  146.2280 C   0  0  0  0  0  0  0  0  0  0  0  0
  162.2450  202.4520  147.1000 O   0  0  0  0  0  0  0  0  0  0  0  0
  160.4870  201.1630  146.1770 C   0  0  1  0  0  3  0  0  0  0  0  0
  160.0790  200.8300  144.7490 C   0  0  0  0  0  1  0  0  0  0  0  0
  161.1840  199.9920  146.8510 C   0  0  0  0  0  2  0  0  0  0  0  0
  161.3000  198.9290  145.9530 O   0  0  0  0  0  1  0  0  0  0  0  0
  160.8250  206.9610  148.9610 N   0  0  0  0  0  0  0  0  0  0  0  0
  160.5270  207.1950  147.7380 N   0  0  0  0  0  0  0  0  0  0  0  0
  161.7490  204.8770  148.4510 O   0  0  0  0  0  1  0  0  0  0  0  0
  161.6660  205.8630  149.4320 C   0  0  2  0  0  3  0  0  0  0  0  0
  161.1240  205.2680  150.7460 C   0  0  2  0  0  3  0  0  0  0  0  0
  161.7790  205.8900  152.0050 C   0  0  2  0  0  3  0  0  0  0  0  0
  161.2020  205.4340  153.3230 C   0  0  0  0  0  2  0  0  0  0  0  0
  161.7920  207.3600  152.0200 N   0  0  0  0  0  0  0  0  0  0  0  0
  161.6600  206.5050  154.2860 C   0  0  0  0  0  2  0  0  0  0  0  0
  162.0000  207.7130  153.4220 C   0  0  0  0  0  2  0  0  0  0  0  0
  160.4780  207.8950  151.6630 C   0  0  0  0  0  2  0  0  0  0  0  0
  160.0730  208.9550  152.6690 C   0  0  0  0  0  2  0  0  0  0  0  0
  160.5510  210.3080  152.2000 C   0  0  0  0  0  2  0  0  0  0  0  0
  158.7830  212.0160  152.4150 N   0  0  0  0  0  0  0  0  0  0  0  0
  159.8600  211.3860  152.9630 C   0  0  0  0  0  0  0  0  0  0  0  0
  161.3740  211.1000  154.8450 O   0  0  0  0  0  1  0  0  0  0  0  0
  160.2880  211.7330  154.2540 C   0  0  0  0  0  0  0  0  0  0  0  0
  159.6060  212.7340  154.9520 C   0  0  0  0  0  3  0  0  0  0  0  0
  158.1050  212.9870  153.0870 C   0  0  0  0  0  3  0  0  0  0  0  0
  158.5070  213.3660  154.3700 C   0  0  0  0  0  3  0  0  0  0  0  0
  161.1520  203.7300  150.7440 C   0  0  1  0  0  3  0  0  0  0  0  0
  160.5260  203.1750  152.0160 C   0  0  0  0  0  1  0  0  0  0  0  0
  160.2980  201.8540  149.9190 C   0  0  0  0  0  1  0  0  0  0  0  0
  160.5070  203.2010  149.6190 O   0  0  0  0  0  0  0  0  0  0  0  0
  161.5910  205.3340  143.0310 N   0  0  0  0  0  2  0  0  0  0  0  0
  161.5300  206.4360  142.1690 N   0  0  0  0  0  2  0  0  0  0  0  0
  162.7000  206.3730  141.3020 C   0  0  2  0  0  3  0  0  0  0  0  0
  162.6970  207.5000  140.2690 C   0  0  1  0  0  3  0  0  0  0  0  0
  162.2680  206.1040  139.8740 C   0  0  0  0  0  2  0  0  0  0  0  0
  161.5660  208.3170  140.3860 O   0  0  0  0  0  0  0  0  0  0  0  0
  161.9010  209.5000  139.7170 C   0  0  1  0  0  3  0  0  0  0  0  0
  160.9510  209.7340  138.5480 C   0  0  0  0  0  2  0  0  0  0  0  0
  162.7030  210.2880  137.0210 O   0  0  0  0  0  0  0  0  0  0  0  0
  160.9790  211.8030  137.1530 O   0  0  0  0  0  1  0  0  0  0  0  0
  161.5900  210.6100  137.5240 C   0  0  0  0  0  0  0  0  0  0  0  0
  161.8500  210.6750  140.6810 C   0  0  0  0  0  2  0  0  0  0  0  0
  160.5330  210.9450  141.0620 O   0  0  0  0  0  0  0  0  0  0  0  0
  160.5940  212.1910  141.6860 C   0  0  0  0  0  2  0  0  0  0  0  0
  161.7300  212.2080  142.7000 C   0  0  0  0  0  2  0  0  0  0  0  0
  163.4570  213.6370  143.7910 C   0  0  0  0  0  1  0  0  0  0  0  0
  162.1470  213.6330  143.0250 C   0  0  0  0  0  3  0  0  0  0  0  0
  161.0740  214.2930  143.8600 C   0  0  0  0  0  1  0  0  0  0  0  0
  1  4  1  0  0  0  0
  3 38  1  6  0  0  0
  3  1  1  0  0  0  0
  3  5  1  0  0  0  0
  4  2  2  0  0  0  0
  4 15  1  0  0  0  0
  5  6  1  6  0  0  0
  5  2  1  0  0  0  0
  6  8  1  0  0  0  0
  7  6  2  0  0  0  0
  8  9  2  0  0  0  0
 10 11  1  6  0  0  0
 10  8  1  0  0  0  0
 10 12  1  0  0  0  0
 13 12  1  0  0  0  0
 14 17  1  0  0  0  0
 15 14  2  0  0  0  0
 17 16  1  6  0  0  0
 18 17  1  6  0  0  0
 19 18  1  6  0  0  0
 19 21  1  0  0  0  0
 19 20  1  0  0  0  0
 20 22  1  0  0  0  0
 21 23  1  0  0  0  0
 23 22  1  0  0  0  0
 24 21  1  0  0  0  0
 24 25  1  0  0  0  0
 26 25  1  0  0  0  0
 26 28  1  0  0  0  0
 27 28  2  0  0  0  0
 27 32  1  0  0  0  0
 28 30  1  0  0  0  0
 30 29  1  0  0  0  0
 30 31  2  0  0  0  0
 32 33  2  0  0  0  0
 33 31  1  0  0  0  0
 34 18  1  0  0  0  0
 34 35  1  1  0  0  0
 37 36  1  0  0  0  0
 37 34  1  0  0  0  0
 39 38  1  0  0  0  0
 40 39  1  1  0  0  0
 41 43  1  1  0  0  0
 41 40  1  0  0  0  0
 42 41  1  0  0  0  0
 42 40  1  0  0  0  0
 44 45  1  6  0  0  0
 44 43  1  0  0  0  0
 44 49  1  0  0  0  0
 46 48  2  0  0  0  0
 47 48  1  0  0  0  0
 48 45  1  0  0  0  0
 49 50  1  0  0  0  0
 50 51  1  0  0  0  0
 51 52  1  0  0  0  0
 52 54  1  0  0  0  0
 54 53  1  0  0  0  0
 54 55  1  0  0  0  0
M  END
>  <MODEL>
9

>  <REMARK>
 VINA RESULT:      -1.2      3.901      9.663
  Name = 
  26 active torsions:
  status: ('A' for Active; 'I' for Inactive)
    1  A    between atoms: C_4  and  C_54
    2  A    between atoms: C_5  and  O_26
    3  A    between atoms: C_5  and  C_44
    4  A    between atoms: C_7  and  C_20
    5  A    between atoms: C_8  and  C_15
    6  A    between atoms: C_8  and  C_50
    7  A    between atoms: O_9  and  C_32
    8  A    between atoms: O_9  and  C_49
    9  A    between atoms: C_11  and  O_45
   10  A    between atoms: C_11  and  C_54
   11  A    between atoms: C_12  and  C_18
   12  A    between atoms: C_12  and  C_41
   13  A    between atoms: N_14  and  C_33
   14  A    between atoms: C_15  and  C_20
   15  A    between atoms: C_16  and  C_44
   16  A    between atoms: C_18  and  C_19
   17  A    between atoms: C_24  and  N_25
   18  A    between atoms: N_25  and  N_31
   19  A    between atoms: O_26  and  C_47
   20  A    between atoms: N_31  and  C_36
   21  A    between atoms: C_32  and  C_47
   22  A    between atoms: C_32  and  C_52
   23  A    between atoms: C_33  and  C_54
   24  A    between atoms: N_39  and  C_41
   25  A    between atoms: C_40  and  N_53
   26  A    between atoms: C_48  and  C_52
                            x       y       z     vdW  Elec       q    Type
                         _______ _______ _______ _____ _____    ______ ____

>  <TORSDO>
F 26

$$$$
