=
 OpenBabel11052409573D

 29 34  0  0  1  0  0  0  0  0999 V2000
  160.9110  205.3550  151.1290 C   0  0  0  0  0  0  0  0  0  0  0  0
  160.9470  206.6810  151.3340 N   0  0  0  0  0  0  0  0  0  0  0  0
  162.3970  209.9630  151.7710 C   0  0  0  0  0  3  0  0  0  0  0  0
  161.8270  207.4950  152.1460 C   0  0  1  0  0  3  0  0  0  0  0  0
  160.4690  207.0830  154.2080 O   0  0  0  0  0  1  0  0  0  0  0  0
  161.2160  203.0540  151.5630 N   0  0  0  0  0  0  0  0  0  0  0  0
  160.7040  206.3010  149.1200 C   0  0  1  0  0  3  0  0  0  0  0  0
  160.7950  203.7840  149.3010 C   0  0  0  0  0  3  0  0  0  0  0  0
  162.0470  208.6590  151.2170 C   0  0  1  0  0  3  0  0  0  0  0  0
  161.4000  209.2420  153.8470 C   0  0  0  0  0  0  0  0  0  0  0  0
  160.8940  209.6630  155.1100 N   0  0  0  0  0  1  0  0  0  0  0  0
  161.5220  208.5060  150.0390 N   0  0  0  0  0  2  0  0  0  0  0  0
  161.1920  207.9760  153.4250 C   0  0  0  0  0  0  0  0  0  0  0  0
  160.7310  205.0840  149.7900 C   0  0  0  0  0  0  0  0  0  0  0  0
  160.8780  207.2430  150.1250 C   0  0  2  0  0  3  0  0  0  0  0  0
  161.0240  202.7610  150.2390 C   0  0  0  0  0  3  0  0  0  0  0  0
  162.0980  210.1990  153.0160 N   0  0  0  0  0  0  0  0  0  0  0  0
  161.1870  204.3370  152.0350 C   0  0  0  0  0  3  0  0  0  0  0  0
  160.8840  206.5200  147.6560 C   0  0  0  0  0  2  0  0  0  0  0  0
  162.3010  206.5410  147.3330 N   0  0  0  0  0  2  0  0  0  0  0  0
  161.0560  202.1370  145.6490 C   0  0  0  0  0  3  0  0  0  0  0  0
  161.4670  203.3940  145.8170 C   0  0  0  0  0  0  0  0  0  0  0  0
  159.2260  202.8990  144.1960 C   0  0  0  0  0  3  0  0  0  0  0  0
  161.2780  205.6460  145.3670 N   0  0  0  0  0  0  0  0  0  0  0  0
  159.6620  204.2250  144.3770 O   0  0  0  0  0  0  0  0  0  0  0  0
  160.7830  204.4760  145.1720 C   0  0  0  0  0  0  0  0  0  0  0  0
  159.8730  201.8780  144.7890 C   0  0  0  0  0  3  0  0  0  0  0  0
  162.8370  203.9430  146.7950 S   0  0  0  0  0  0  0  0  0  0  0  0
  162.4860  205.6550  146.1980 C   0  0  2  0  0  3  0  0  0  0  0  0
  1  2  1  0  0  0  0
  1 18  1  0  0  0  0
  2  4  1  0  0  0  0
  3 17  2  0  0  0  0
  4 13  1  1  0  0  0
  6 18  2  0  0  0  0
  7 19  1  6  0  0  0
  7 14  1  0  0  0  0
  7 15  1  0  0  0  0
  8 14  1  0  0  0  0
  8 16  2  0  0  0  0
  9  3  1  1  0  0  0
  9  4  1  0  0  0  0
 10 11  1  0  0  0  0
 12  9  1  0  0  0  0
 13 10  2  0  0  0  0
 13  5  1  0  0  0  0
 14  1  2  0  0  0  0
 15 12  1  6  0  0  0
 15  2  1  0  0  0  0
 16  6  1  0  0  0  0
 17 10  1  0  0  0  0
 20 19  1  0  0  0  0
 21 22  2  0  0  0  0
 22 28  1  0  0  0  0
 23 25  1  0  0  0  0
 23 27  2  0  0  0  0
 24 29  1  0  0  0  0
 25 26  1  0  0  0  0
 26 24  2  0  0  0  0
 26 22  1  0  0  0  0
 27 21  1  0  0  0  0
 29 28  1  0  0  0  0
 29 20  1  1  0  0  0
M  END
>  <MODEL>
1

>  <REMARK>
 VINA RESULT:      -8.9      0.000      0.000
  Name = 
  3 active torsions:
  status: ('A' for Active; 'I' for Inactive)
    1  A    between atoms: C_9  and  C_13
    2  A    between atoms: C_13  and  N_20
    3  A    between atoms: N_20  and  C_29
                            x       y       z     vdW  Elec       q    Type
                         _______ _______ _______ _____ _____    ______ ____

>  <TORSDO>
F 3

$$$$
=
 OpenBabel11052409573D

 29 34  0  0  1  0  0  0  0  0999 V2000
  161.5550  205.4450  150.8580 C   0  0  0  0  0  0  0  0  0  0  0  0
  161.6800  205.7120  149.5480 N   0  0  0  0  0  0  0  0  0  0  0  0
  160.6660  206.6910  146.2200 C   0  0  0  0  0  3  0  0  0  0  0  0
  160.8160  205.4020  148.4280 C   0  0  1  0  0  3  0  0  0  0  0  0
  161.7890  203.1080  148.1840 O   0  0  0  0  0  1  0  0  0  0  0  0
  160.8650  204.3220  152.8160 N   0  0  0  0  0  0  0  0  0  0  0  0
  162.1840  207.5800  150.7150 C   0  0  1  0  0  3  0  0  0  0  0  0
  161.7100  206.5780  152.9830 C   0  0  0  0  0  3  0  0  0  0  0  0
  160.9020  206.6940  147.6600 C   0  0  1  0  0  3  0  0  0  0  0  0
  161.2380  204.3460  146.2280 C   0  0  0  0  0  0  0  0  0  0  0  0
  161.6100  203.2300  145.4260 N   0  0  0  0  0  1  0  0  0  0  0  0
  161.5660  207.6320  148.2680 N   0  0  0  0  0  2  0  0  0  0  0  0
  161.3220  204.2670  147.5740 C   0  0  0  0  0  0  0  0  0  0  0  0
  161.8870  206.5550  151.6040 C   0  0  0  0  0  0  0  0  0  0  0  0
  162.0030  207.0040  149.4640 C   0  0  2  0  0  3  0  0  0  0  0  0
  161.2030  205.4080  153.5800 C   0  0  0  0  0  3  0  0  0  0  0  0
  160.8120  205.5660  145.5780 N   0  0  0  0  0  0  0  0  0  0  0  0
  161.0080  204.3160  151.4570 C   0  0  0  0  0  3  0  0  0  0  0  0
  162.2520  209.0380  151.0210 C   0  0  0  0  0  2  0  0  0  0  0  0
  160.9190  209.5420  151.3060 N   0  0  0  0  0  2  0  0  0  0  0  0
  159.3410  210.9010  155.7150 C   0  0  0  0  0  3  0  0  0  0  0  0
  159.9990  210.7260  154.5690 C   0  0  0  0  0  0  0  0  0  0  0  0
  161.2580  210.0260  156.9810 C   0  0  0  0  0  3  0  0  0  0  0  0
  161.8940  210.1030  153.4150 N   0  0  0  0  0  0  0  0  0  0  0  0
  161.9490  209.8410  155.7690 O   0  0  0  0  0  0  0  0  0  0  0  0
  161.3320  210.1990  154.5670 C   0  0  0  0  0  0  0  0  0  0  0  0
  160.0100  210.5330  156.9900 C   0  0  0  0  0  3  0  0  0  0  0  0
  159.4070  211.0820  152.9390 S   0  0  0  0  0  0  0  0  0  0  0  0
  161.0690  210.5850  152.3030 C   0  0  2  0  0  3  0  0  0  0  0  0
  1 18  2  0  0  0  0
  1 14  1  0  0  0  0
  2  1  1  0  0  0  0
  4 13  1  6  0  0  0
  4  2  1  0  0  0  0
  6 16  2  0  0  0  0
  7 19  1  1  0  0  0
  7 14  1  0  0  0  0
  8 16  1  0  0  0  0
  9  3  1  6  0  0  0
  9 12  1  0  0  0  0
  9  4  1  0  0  0  0
 10 13  2  0  0  0  0
 11 10  1  0  0  0  0
 13  5  1  0  0  0  0
 14  8  2  0  0  0  0
 15 12  1  1  0  0  0
 15  2  1  0  0  0  0
 15  7  1  0  0  0  0
 17  3  2  0  0  0  0
 17 10  1  0  0  0  0
 18  6  1  0  0  0  0
 19 20  1  0  0  0  0
 21 27  1  0  0  0  0
 22 21  2  0  0  0  0
 23 27  2  0  0  0  0
 24 26  2  0  0  0  0
 25 23  1  0  0  0  0
 26 22  1  0  0  0  0
 26 25  1  0  0  0  0
 28 22  1  0  0  0  0
 29 20  1  6  0  0  0
 29 28  1  0  0  0  0
 29 24  1  0  0  0  0
M  END
>  <MODEL>
2

>  <REMARK>
 VINA RESULT:      -8.6      2.720      8.066
  Name = 
  3 active torsions:
  status: ('A' for Active; 'I' for Inactive)
    1  A    between atoms: C_9  and  C_13
    2  A    between atoms: C_13  and  N_20
    3  A    between atoms: N_20  and  C_29
                            x       y       z     vdW  Elec       q    Type
                         _______ _______ _______ _____ _____    ______ ____

>  <TORSDO>
F 3

$$$$
=
 OpenBabel11052409573D

 29 34  0  0  1  0  0  0  0  0999 V2000
  161.0900  209.1040  153.3400 C   0  0  0  0  0  0  0  0  0  0  0  0
  161.0700  209.3220  152.0160 N   0  0  0  0  0  0  0  0  0  0  0  0
  162.3800  209.8680  148.6910 C   0  0  0  0  0  3  0  0  0  0  0  0
  161.8750  210.1900  151.1810 C   0  0  1  0  0  3  0  0  0  0  0  0
  160.4160  212.1680  151.6600 O   0  0  0  0  0  1  0  0  0  0  0  0
  161.4480  209.5350  155.6330 N   0  0  0  0  0  0  0  0  0  0  0  0
  160.9660  207.0940  152.3800 C   0  0  1  0  0  3  0  0  0  0  0  0
  161.1310  207.2580  154.8950 C   0  0  0  0  0  3  0  0  0  0  0  0
  162.1070  209.2840  150.0010 C   0  0  1  0  0  3  0  0  0  0  0  0
  161.2920  211.8790  149.4670 C   0  0  0  0  0  0  0  0  0  0  0  0
  160.7020  213.1140  149.0760 N   0  0  0  0  0  1  0  0  0  0  0  0
  161.6540  208.0770  150.1590 N   0  0  0  0  0  2  0  0  0  0  0  0
  161.1520  211.4350  150.7350 C   0  0  0  0  0  0  0  0  0  0  0  0
  160.9960  207.7550  153.6020 C   0  0  0  0  0  0  0  0  0  0  0  0
  161.0500  208.1160  151.4430 C   0  0  2  0  0  3  0  0  0  0  0  0
  161.3420  208.1990  155.9190 C   0  0  0  0  0  3  0  0  0  0  0  0
  162.0040  211.0970  148.4780 N   0  0  0  0  0  0  0  0  0  0  0  0
  161.3490  210.0150  154.3580 C   0  0  0  0  0  3  0  0  0  0  0  0
  161.2200  205.6440  152.1400 C   0  0  0  0  0  2  0  0  0  0  0  0
  160.5550  205.2260  150.9180 N   0  0  0  0  0  2  0  0  0  0  0  0
  160.6890  201.5980  147.6620 C   0  0  0  0  0  3  0  0  0  0  0  0
  160.9480  202.6190  148.4800 C   0  0  0  0  0  0  0  0  0  0  0  0
  161.2170  202.9940  145.7080 C   0  0  0  0  0  3  0  0  0  0  0  0
  161.6280  204.7930  148.8260 N   0  0  0  0  0  0  0  0  0  0  0  0
  161.4870  204.0700  146.5750 O   0  0  0  0  0  0  0  0  0  0  0  0
  161.3680  203.8850  147.9550 C   0  0  0  0  0  0  0  0  0  0  0  0
  160.8350  201.7990  146.1970 C   0  0  0  0  0  3  0  0  0  0  0  0
  160.8370  202.6190  150.2470 S   0  0  0  0  0  0  0  0  0  0  0  0
  161.4770  204.3520  150.2160 C   0  0  2  0  0  3  0  0  0  0  0  0
  1 14  2  0  0  0  0
  1 18  1  0  0  0  0
  2  1  1  0  0  0  0
  4 13  1  6  0  0  0
  4  2  1  0  0  0  0
  6 16  1  0  0  0  0
  7 19  1  1  0  0  0
  7 14  1  0  0  0  0
  8 16  2  0  0  0  0
  9  3  1  6  0  0  0
  9 12  1  0  0  0  0
  9  4  1  0  0  0  0
 10 13  2  0  0  0  0
 11 10  1  0  0  0  0
 13  5  1  0  0  0  0
 14  8  1  0  0  0  0
 15 12  1  1  0  0  0
 15  2  1  0  0  0  0
 15  7  1  0  0  0  0
 17  3  2  0  0  0  0
 17 10  1  0  0  0  0
 18  6  2  0  0  0  0
 20 19  1  0  0  0  0
 21 22  2  0  0  0  0
 22 28  1  0  0  0  0
 23 27  2  0  0  0  0
 23 25  1  0  0  0  0
 24 29  1  0  0  0  0
 25 26  1  0  0  0  0
 26 22  1  0  0  0  0
 26 24  2  0  0  0  0
 27 21  1  0  0  0  0
 29 28  1  0  0  0  0
 29 20  1  1  0  0  0
M  END
>  <MODEL>
3

>  <REMARK>
 VINA RESULT:      -8.6      2.284      4.383
  Name = 
  3 active torsions:
  status: ('A' for Active; 'I' for Inactive)
    1  A    between atoms: C_9  and  C_13
    2  A    between atoms: C_13  and  N_20
    3  A    between atoms: N_20  and  C_29
                            x       y       z     vdW  Elec       q    Type
                         _______ _______ _______ _____ _____    ______ ____

>  <TORSDO>
F 3

$$$$
=
 OpenBabel11052409573D

 29 34  0  0  1  0  0  0  0  0999 V2000
  159.8620  209.9560  155.0470 C   0  0  0  0  0  0  0  0  0  0  0  0
  159.3850  210.8190  154.1360 N   0  0  0  0  0  0  0  0  0  0  0  0
  159.2500  213.8010  152.0980 C   0  0  0  0  0  3  0  0  0  0  0  0
  159.3030  212.2640  154.1460 C   0  0  1  0  0  3  0  0  0  0  0  0
  157.1520  212.2310  155.4280 O   0  0  0  0  0  1  0  0  0  0  0  0
  160.4740  209.1100  157.1640 N   0  0  0  0  0  0  0  0  0  0  0  0
  160.6760  209.2940  153.0780 C   0  0  1  0  0  3  0  0  0  0  0  0
  161.3480  208.0580  155.1750 C   0  0  0  0  0  3  0  0  0  0  0  0
  159.7050  212.5640  152.7270 C   0  0  1  0  0  3  0  0  0  0  0  0
  157.4450  213.8400  153.7000 C   0  0  0  0  0  0  0  0  0  0  0  0
  156.1770  214.4030  154.0200 N   0  0  0  0  0  1  0  0  0  0  0  0
  160.0850  211.5230  152.0490 N   0  0  0  0  0  2  0  0  0  0  0  0
  157.9120  212.7850  154.4040 C   0  0  0  0  0  0  0  0  0  0  0  0
  160.6300  208.9900  154.4330 C   0  0  0  0  0  0  0  0  0  0  0  0
  159.9180  210.4530  152.9670 C   0  0  2  0  0  3  0  0  0  0  0  0
  161.2310  208.1320  156.5750 C   0  0  0  0  0  3  0  0  0  0  0  0
  158.1970  214.3880  152.5920 N   0  0  0  0  0  0  0  0  0  0  0  0
  159.7980  210.0460  156.4330 C   0  0  0  0  0  3  0  0  0  0  0  0
  161.6460  208.7670  152.0750 C   0  0  0  0  0  2  0  0  0  0  0  0
  160.9620  207.8750  151.1540 N   0  0  0  0  0  2  0  0  0  0  0  0
  161.2060  203.0230  151.5870 C   0  0  0  0  0  3  0  0  0  0  0  0
  161.3750  204.3100  151.2790 C   0  0  0  0  0  0  0  0  0  0  0  0
  160.6600  202.5050  149.2470 C   0  0  0  0  0  3  0  0  0  0  0  0
  161.4260  206.0130  149.7280 N   0  0  0  0  0  0  0  0  0  0  0  0
  160.8370  203.8640  148.9260 O   0  0  0  0  0  0  0  0  0  0  0  0
  161.2060  204.7630  149.9300 C   0  0  0  0  0  0  0  0  0  0  0  0
  160.8310  202.0710  150.5100 C   0  0  0  0  0  3  0  0  0  0  0  0
  161.8130  205.6200  152.3870 S   0  0  0  0  0  0  0  0  0  0  0  0
  161.8480  206.7490  150.9250 C   0  0  2  0  0  3  0  0  0  0  0  0
  1 18  1  0  0  0  0
  2  4  1  0  0  0  0
  2  1  1  0  0  0  0
  3 17  2  0  0  0  0
  4 13  1  6  0  0  0
  7 19  1  1  0  0  0
  7 14  1  0  0  0  0
  8 16  2  0  0  0  0
  9  3  1  6  0  0  0
  9  4  1  0  0  0  0
 10 11  1  0  0  0  0
 10 13  2  0  0  0  0
 12  9  1  0  0  0  0
 13  5  1  0  0  0  0
 14  1  2  0  0  0  0
 14  8  1  0  0  0  0
 15 12  1  1  0  0  0
 15  7  1  0  0  0  0
 15  2  1  0  0  0  0
 16  6  1  0  0  0  0
 17 10  1  0  0  0  0
 18  6  2  0  0  0  0
 20 19  1  0  0  0  0
 22 21  2  0  0  0  0
 22 28  1  0  0  0  0
 23 27  2  0  0  0  0
 24 26  2  0  0  0  0
 24 29  1  0  0  0  0
 25 23  1  0  0  0  0
 25 26  1  0  0  0  0
 26 22  1  0  0  0  0
 27 21  1  0  0  0  0
 29 20  1  1  0  0  0
 29 28  1  0  0  0  0
M  END
>  <MODEL>
4

>  <REMARK>
 VINA RESULT:      -8.2      3.478      5.786
  Name = 
  3 active torsions:
  status: ('A' for Active; 'I' for Inactive)
    1  A    between atoms: C_9  and  C_13
    2  A    between atoms: C_13  and  N_20
    3  A    between atoms: N_20  and  C_29
                            x       y       z     vdW  Elec       q    Type
                         _______ _______ _______ _____ _____    ______ ____

>  <TORSDO>
F 3

$$$$
=
 OpenBabel11052409573D

 29 34  0  0  1  0  0  0  0  0999 V2000
  161.8830  208.5120  151.8950 C   0  0  0  0  0  0  0  0  0  0  0  0
  161.7140  208.2960  153.2090 N   0  0  0  0  0  0  0  0  0  0  0  0
  159.9500  207.9290  156.3430 C   0  0  0  0  0  3  0  0  0  0  0  0
  160.8640  208.9520  154.1800 C   0  0  1  0  0  3  0  0  0  0  0  0
  162.5400  210.7730  154.5640 O   0  0  0  0  0  1  0  0  0  0  0  0
  161.9260  209.6890  149.8490 N   0  0  0  0  0  0  0  0  0  0  0  0
  161.6870  206.3040  152.1420 C   0  0  1  0  0  3  0  0  0  0  0  0
  161.9310  207.2740  149.8240 C   0  0  0  0  0  3  0  0  0  0  0  0
  160.3750  207.7590  154.9570 C   0  0  1  0  0  3  0  0  0  0  0  0
  161.3100  209.9220  156.4150 C   0  0  0  0  0  0  0  0  0  0  0  0
  161.9330  210.8830  157.2610 N   0  0  0  0  0  1  0  0  0  0  0  0
  160.7440  206.6150  154.4630 N   0  0  0  0  0  2  0  0  0  0  0  0
  161.6100  209.8870  155.0980 C   0  0  0  0  0  0  0  0  0  0  0  0
  161.9040  207.3150  151.2140 C   0  0  0  0  0  0  0  0  0  0  0  0
  161.5430  206.9790  153.3470 C   0  0  2  0  0  3  0  0  0  0  0  0
  161.9630  208.5100  149.1510 C   0  0  0  0  0  3  0  0  0  0  0  0
  160.3900  208.9670  156.9950 N   0  0  0  0  0  0  0  0  0  0  0  0
  161.8640  209.7240  151.2140 C   0  0  0  0  0  3  0  0  0  0  0  0
  161.2780  204.8990  151.8560 C   0  0  0  0  0  2  0  0  0  0  0  0
  160.6810  204.8220  150.5330 N   0  0  0  0  0  2  0  0  0  0  0  0
  160.4390  201.2370  147.2360 C   0  0  0  0  0  3  0  0  0  0  0  0
  160.7950  202.2390  148.0410 C   0  0  0  0  0  0  0  0  0  0  0  0
  160.8430  202.6440  145.2610 C   0  0  0  0  0  3  0  0  0  0  0  0
  161.5640  204.3880  148.3540 N   0  0  0  0  0  0  0  0  0  0  0  0
  161.2150  203.7000  146.1140 O   0  0  0  0  0  0  0  0  0  0  0  0
  161.2060  203.4990  147.4970 C   0  0  0  0  0  0  0  0  0  0  0  0
  160.4680  201.4540  145.7660 C   0  0  0  0  0  3  0  0  0  0  0  0
  160.8310  202.2180  149.8110 S   0  0  0  0  0  0  0  0  0  0  0  0
  161.5160  203.9320  149.7470 C   0  0  2  0  0  3  0  0  0  0  0  0
  1  2  1  0  0  0  0
  2 15  1  0  0  0  0
  2  4  1  0  0  0  0
  3 17  2  0  0  0  0
  4  9  1  0  0  0  0
  4 13  1  1  0  0  0
  5 13  1  0  0  0  0
  6 18  1  0  0  0  0
  7 19  1  6  0  0  0
  7 15  1  0  0  0  0
  8 14  2  0  0  0  0
  9  3  1  1  0  0  0
 10 17  1  0  0  0  0
 10 11  1  0  0  0  0
 12  9  1  0  0  0  0
 13 10  2  0  0  0  0
 14  1  1  0  0  0  0
 14  7  1  0  0  0  0
 15 12  1  6  0  0  0
 16  8  1  0  0  0  0
 16  6  2  0  0  0  0
 18  1  2  0  0  0  0
 20 19  1  0  0  0  0
 21 22  2  0  0  0  0
 22 28  1  0  0  0  0
 23 27  2  0  0  0  0
 23 25  1  0  0  0  0
 24 29  1  0  0  0  0
 25 26  1  0  0  0  0
 26 22  1  0  0  0  0
 26 24  2  0  0  0  0
 27 21  1  0  0  0  0
 29 28  1  0  0  0  0
 29 20  1  1  0  0  0
M  END
>  <MODEL>
5

>  <REMARK>
 VINA RESULT:      -8.1      2.051      3.806
  Name = 
  3 active torsions:
  status: ('A' for Active; 'I' for Inactive)
    1  A    between atoms: C_9  and  C_13
    2  A    between atoms: C_13  and  N_20
    3  A    between atoms: N_20  and  C_29
                            x       y       z     vdW  Elec       q    Type
                         _______ _______ _______ _____ _____    ______ ____

>  <TORSDO>
F 3

$$$$
=
 OpenBabel11052409573D

 29 34  0  0  1  0  0  0  0  0999 V2000
  160.0350  209.7210  154.9310 C   0  0  0  0  0  0  0  0  0  0  0  0
  159.6360  210.5330  153.9400 N   0  0  0  0  0  0  0  0  0  0  0  0
  159.7050  213.3730  151.7050 C   0  0  0  0  0  3  0  0  0  0  0  0
  159.5990  211.9780  153.8500 C   0  0  1  0  0  3  0  0  0  0  0  0
  157.3830  212.0930  155.0100 O   0  0  0  0  0  1  0  0  0  0  0  0
  160.5050  209.0040  157.1310 N   0  0  0  0  0  0  0  0  0  0  0  0
  160.9320  208.9050  153.0590 C   0  0  1  0  0  3  0  0  0  0  0  0
  161.4500  207.7950  155.2670 C   0  0  0  0  0  3  0  0  0  0  0  0
  160.0860  212.1690  152.4380 C   0  0  1  0  0  3  0  0  0  0  0  0
  157.8190  213.5710  153.1980 C   0  0  0  0  0  0  0  0  0  0  0  0
  156.5550  214.1910  153.4090 N   0  0  0  0  0  1  0  0  0  0  0  0
  160.4690  211.0740  151.8530 N   0  0  0  0  0  2  0  0  0  0  0  0
  158.2140  212.5540  153.9940 C   0  0  0  0  0  0  0  0  0  0  0  0
  160.8030  208.6950  154.4260 C   0  0  0  0  0  0  0  0  0  0  0  0
  160.2180  210.0740  152.8300 C   0  0  2  0  0  3  0  0  0  0  0  0
  161.2610  207.9670  156.6500 C   0  0  0  0  0  3  0  0  0  0  0  0
  158.6470  214.0210  152.0990 N   0  0  0  0  0  0  0  0  0  0  0  0
  159.9000  209.9070  156.3020 C   0  0  0  0  0  3  0  0  0  0  0  0
  161.9360  208.2830  152.1490 C   0  0  0  0  0  2  0  0  0  0  0  0
  161.6650  206.8610  152.0180 N   0  0  0  0  0  2  0  0  0  0  0  0
  161.9700  206.0510  147.2190 C   0  0  0  0  0  3  0  0  0  0  0  0
  161.5970  206.1830  148.4920 C   0  0  0  0  0  0  0  0  0  0  0  0
  161.5390  203.6330  147.3140 C   0  0  0  0  0  3  0  0  0  0  0  0
  160.7890  205.2810  150.4530 N   0  0  0  0  0  0  0  0  0  0  0  0
  161.1480  203.7760  148.6590 O   0  0  0  0  0  0  0  0  0  0  0  0
  161.1620  205.0440  149.2460 C   0  0  0  0  0  0  0  0  0  0  0  0
  161.9350  204.7020  146.5980 C   0  0  0  0  0  3  0  0  0  0  0  0
  161.5630  207.6790  149.4400 S   0  0  0  0  0  0  0  0  0  0  0  0
  160.8460  206.6970  150.8310 C   0  0  2  0  0  3  0  0  0  0  0  0
  1 18  1  0  0  0  0
  2  1  1  0  0  0  0
  3 17  2  0  0  0  0
  4  2  1  0  0  0  0
  4 13  1  6  0  0  0
  7 19  1  1  0  0  0
  7 14  1  0  0  0  0
  8 16  2  0  0  0  0
  9  3  1  6  0  0  0
  9  4  1  0  0  0  0
 10 11  1  0  0  0  0
 10 13  2  0  0  0  0
 12  9  1  0  0  0  0
 13  5  1  0  0  0  0
 14  1  2  0  0  0  0
 14  8  1  0  0  0  0
 15 12  1  1  0  0  0
 15  7  1  0  0  0  0
 15  2  1  0  0  0  0
 16  6  1  0  0  0  0
 17 10  1  0  0  0  0
 18  6  2  0  0  0  0
 20 19  1  0  0  0  0
 21 22  2  0  0  0  0
 22 26  1  0  0  0  0
 22 28  1  0  0  0  0
 23 25  1  0  0  0  0
 24 29  1  0  0  0  0
 25 26  1  0  0  0  0
 26 24  2  0  0  0  0
 27 21  1  0  0  0  0
 27 23  2  0  0  0  0
 28 29  1  0  0  0  0
 29 20  1  1  0  0  0
M  END
>  <MODEL>
6

>  <REMARK>
 VINA RESULT:      -8.0      3.199      5.364
  Name = 
  3 active torsions:
  status: ('A' for Active; 'I' for Inactive)
    1  A    between atoms: C_9  and  C_13
    2  A    between atoms: C_13  and  N_20
    3  A    between atoms: N_20  and  C_29
                            x       y       z     vdW  Elec       q    Type
                         _______ _______ _______ _____ _____    ______ ____

>  <TORSDO>
F 3

$$$$
=
 OpenBabel11052409573D

 29 34  0  0  1  0  0  0  0  0999 V2000
  161.4360  207.3870  151.8690 C   0  0  0  0  0  0  0  0  0  0  0  0
  161.6060  206.9720  150.6040 N   0  0  0  0  0  0  0  0  0  0  0  0
  160.7220  206.2030  147.1850 C   0  0  0  0  0  3  0  0  0  0  0  0
  160.7630  206.1670  149.7450 C   0  0  1  0  0  3  0  0  0  0  0  0
  161.6560  204.0320  150.7020 O   0  0  0  0  0  1  0  0  0  0  0  0
  160.6510  207.3870  154.0960 N   0  0  0  0  0  0  0  0  0  0  0  0
  162.1470  209.1630  150.7220 C   0  0  1  0  0  3  0  0  0  0  0  0
  161.5730  209.4160  153.1680 C   0  0  0  0  0  3  0  0  0  0  0  0
  160.9180  206.9120  148.4460 C   0  0  1  0  0  3  0  0  0  0  0  0
  161.2060  204.1570  148.3690 C   0  0  0  0  0  0  0  0  0  0  0  0
  161.5580  202.7830  148.2360 N   0  0  0  0  0  1  0  0  0  0  0  0
  161.5990  208.0140  148.5420 N   0  0  0  0  0  2  0  0  0  0  0  0
  161.2500  204.7500  149.5820 C   0  0  0  0  0  0  0  0  0  0  0  0
  161.7880  208.7140  151.9870 C   0  0  0  0  0  0  0  0  0  0  0  0
  161.9790  208.0490  149.9100 C   0  0  2  0  0  3  0  0  0  0  0  0
  161.0070  208.7020  154.2400 C   0  0  0  0  0  3  0  0  0  0  0  0
  160.8430  204.9060  147.1860 N   0  0  0  0  0  0  0  0  0  0  0  0
  160.8310  206.7100  152.9230 C   0  0  0  0  0  3  0  0  0  0  0  0
  162.2610  210.5810  150.2750 C   0  0  0  0  0  2  0  0  0  0  0  0
  162.1830  210.6450  148.8250 N   0  0  0  0  0  2  0  0  0  0  0  0
  162.3770  214.0430  145.3330 C   0  0  0  0  0  3  0  0  0  0  0  0
  162.0780  213.2710  146.3780 C   0  0  0  0  0  0  0  0  0  0  0  0
  160.2430  213.4640  144.2590 C   0  0  0  0  0  3  0  0  0  0  0  0
  160.6250  211.8720  147.4910 N   0  0  0  0  0  0  0  0  0  0  0  0
  159.9320  212.6480  145.3630 O   0  0  0  0  0  0  0  0  0  0  0  0
  160.8350  212.5590  146.4260 C   0  0  0  0  0  0  0  0  0  0  0  0
  161.4040  214.1450  144.2150 C   0  0  0  0  0  3  0  0  0  0  0  0
  163.0780  212.9910  147.8130 S   0  0  0  0  0  0  0  0  0  0  0  0
  161.6950  211.9700  148.4890 C   0  0  2  0  0  3  0  0  0  0  0  0
  1 14  2  0  0  0  0
  1 18  1  0  0  0  0
  2  1  1  0  0  0  0
  3 17  2  0  0  0  0
  4 13  1  6  0  0  0
  4  2  1  0  0  0  0
  6 16  1  0  0  0  0
  7 19  1  6  0  0  0
  7 14  1  0  0  0  0
  8 16  2  0  0  0  0
  9  3  1  6  0  0  0
  9 12  1  0  0  0  0
  9  4  1  0  0  0  0
 10 13  2  0  0  0  0
 11 10  1  0  0  0  0
 13  5  1  0  0  0  0
 14  8  1  0  0  0  0
 15 12  1  6  0  0  0
 15  2  1  0  0  0  0
 15  7  1  0  0  0  0
 17 10  1  0  0  0  0
 18  6  2  0  0  0  0
 20 19  1  0  0  0  0
 21 22  2  0  0  0  0
 22 26  1  0  0  0  0
 22 28  1  0  0  0  0
 23 25  1  0  0  0  0
 24 29  1  0  0  0  0
 25 26  1  0  0  0  0
 26 24  2  0  0  0  0
 27 23  2  0  0  0  0
 27 21  1  0  0  0  0
 28 29  1  0  0  0  0
 29 20  1  6  0  0  0
M  END
>  <MODEL>
7

>  <REMARK>
 VINA RESULT:      -7.9      4.243      6.842
  Name = 
  3 active torsions:
  status: ('A' for Active; 'I' for Inactive)
    1  A    between atoms: C_9  and  C_13
    2  A    between atoms: C_13  and  N_20
    3  A    between atoms: N_20  and  C_29
                            x       y       z     vdW  Elec       q    Type
                         _______ _______ _______ _____ _____    ______ ____

>  <TORSDO>
F 3

$$$$
=
 OpenBabel11052409573D

 29 34  0  0  1  0  0  0  0  0999 V2000
  161.3920  205.8300  148.4930 C   0  0  0  0  0  0  0  0  0  0  0  0
  160.9880  204.5520  148.4220 N   0  0  0  0  0  0  0  0  0  0  0  0
  161.2660  200.9480  148.4240 C   0  0  0  0  0  3  0  0  0  0  0  0
  161.5750  203.4040  147.7650 C   0  0  1  0  0  3  0  0  0  0  0  0
  160.5160  203.9920  145.5740 O   0  0  0  0  0  1  0  0  0  0  0  0
  162.4700  207.8330  147.8580 N   0  0  0  0  0  0  0  0  0  0  0  0
  160.8000  205.2510  150.5630 C   0  0  1  0  0  3  0  0  0  0  0  0
  161.7400  207.5570  150.1430 C   0  0  0  0  0  3  0  0  0  0  0  0
  161.3540  202.3510  148.8180 C   0  0  1  0  0  3  0  0  0  0  0  0
  160.6520  201.7060  146.2160 C   0  0  0  0  0  0  0  0  0  0  0  0
  160.0840  201.3290  144.9660 N   0  0  0  0  0  1  0  0  0  0  0  0
  160.8640  202.8070  149.9320 N   0  0  0  0  0  2  0  0  0  0  0  0
  160.8650  203.0110  146.4940 C   0  0  0  0  0  0  0  0  0  0  0  0
  161.2610  206.3020  149.7800 C   0  0  0  0  0  0  0  0  0  0  0  0
  160.6870  204.1920  149.6720 C   0  0  2  0  0  3  0  0  0  0  0  0
  162.3360  208.3280  149.1290 C   0  0  0  0  0  3  0  0  0  0  0  0
  160.9540  200.6780  147.1890 N   0  0  0  0  0  0  0  0  0  0  0  0
  162.0300  206.5860  147.5150 C   0  0  0  0  0  3  0  0  0  0  0  0
  160.8380  205.1600  152.0520 C   0  0  0  0  0  2  0  0  0  0  0  0
  161.6020  206.2720  152.5910 N   0  0  0  0  0  2  0  0  0  0  0  0
  161.3310  208.8710  156.7090 C   0  0  0  0  0  3  0  0  0  0  0  0
  161.1520  208.3160  155.5100 C   0  0  0  0  0  0  0  0  0  0  0  0
  161.6540  211.0750  155.6720 C   0  0  0  0  0  3  0  0  0  0  0  0
  160.9840  208.4950  153.2190 N   0  0  0  0  0  0  0  0  0  0  0  0
  161.4670  210.4860  154.4070 O   0  0  0  0  0  0  0  0  0  0  0  0
  161.2040  209.1160  154.3220 C   0  0  0  0  0  0  0  0  0  0  0  0
  161.5930  210.3300  156.7920 C   0  0  0  0  0  3  0  0  0  0  0  0
  160.8360  206.6080  155.1650 S   0  0  0  0  0  0  0  0  0  0  0  0
  160.6830  207.0690  153.3830 C   0  0  2  0  0  3  0  0  0  0  0  0
  1 14  1  0  0  0  0
  2  1  1  0  0  0  0
  2 15  1  0  0  0  0
  4 13  1  6  0  0  0
  4  2  1  0  0  0  0
  4  9  1  0  0  0  0
  5 13  1  0  0  0  0
  6 16  2  0  0  0  0
  7 19  1  1  0  0  0
  9  3  1  6  0  0  0
  9 12  1  0  0  0  0
 10 13  2  0  0  0  0
 10 17  1  0  0  0  0
 11 10  1  0  0  0  0
 14  8  2  0  0  0  0
 14  7  1  0  0  0  0
 15 12  1  1  0  0  0
 15  7  1  0  0  0  0
 16  8  1  0  0  0  0
 17  3  2  0  0  0  0
 18  6  1  0  0  0  0
 18  1  2  0  0  0  0
 19 20  1  0  0  0  0
 21 27  1  0  0  0  0
 22 21  2  0  0  0  0
 23 27  2  0  0  0  0
 24 29  1  0  0  0  0
 24 26  2  0  0  0  0
 25 23  1  0  0  0  0
 26 25  1  0  0  0  0
 26 22  1  0  0  0  0
 28 22  1  0  0  0  0
 29 20  1  6  0  0  0
 29 28  1  0  0  0  0
M  END
>  <MODEL>
8

>  <REMARK>
 VINA RESULT:      -7.9      2.707      8.598
  Name = 
  3 active torsions:
  status: ('A' for Active; 'I' for Inactive)
    1  A    between atoms: C_9  and  C_13
    2  A    between atoms: C_13  and  N_20
    3  A    between atoms: N_20  and  C_29
                            x       y       z     vdW  Elec       q    Type
                         _______ _______ _______ _____ _____    ______ ____

>  <TORSDO>
F 3

$$$$
=
 OpenBabel11052409573D

 29 34  0  0  1  0  0  0  0  0999 V2000
  161.4320  207.3400  150.6470 C   0  0  0  0  0  0  0  0  0  0  0  0
  161.1040  206.0620  150.8890 N   0  0  0  0  0  0  0  0  0  0  0  0
  161.6020  202.5610  151.6400 C   0  0  0  0  0  3  0  0  0  0  0  0
  161.7060  204.8230  150.4430 C   0  0  1  0  0  3  0  0  0  0  0  0
  160.4420  204.8720  148.2820 O   0  0  0  0  0  1  0  0  0  0  0  0
  162.3310  209.2000  149.5020 N   0  0  0  0  0  0  0  0  0  0  0  0
  161.0430  207.2040  152.8390 C   0  0  1  0  0  3  0  0  0  0  0  0
  161.8020  209.4000  151.8500 C   0  0  0  0  0  3  0  0  0  0  0  0
  161.6340  204.0180  151.7140 C   0  0  1  0  0  3  0  0  0  0  0  0
  160.7690  202.7900  149.3860 C   0  0  0  0  0  0  0  0  0  0  0  0
  160.1290  202.1230  148.3020 N   0  0  0  0  0  1  0  0  0  0  0  0
  161.2070  204.6860  152.7430 N   0  0  0  0  0  2  0  0  0  0  0  0
  160.9240  204.1310  149.3560 C   0  0  0  0  0  0  0  0  0  0  0  0
  161.3750  208.0760  151.8100 C   0  0  0  0  0  0  0  0  0  0  0  0
  160.9250  205.9710  152.2090 C   0  0  2  0  0  3  0  0  0  0  0  0
  162.2680  209.9550  150.6440 C   0  0  0  0  0  3  0  0  0  0  0  0
  161.2110  202.0130  150.5240 N   0  0  0  0  0  0  0  0  0  0  0  0
  161.9430  207.8900  149.4760 C   0  0  0  0  0  3  0  0  0  0  0  0
  161.2040  207.4430  154.3020 C   0  0  0  0  0  2  0  0  0  0  0  0
  160.0090  207.0060  155.0040 N   0  0  0  0  0  2  0  0  0  0  0  0
  161.8480  210.9290  157.2420 C   0  0  0  0  0  3  0  0  0  0  0  0
  161.1370  209.8700  156.8540 C   0  0  0  0  0  0  0  0  0  0  0  0
  159.9170  212.4010  156.8610 C   0  0  0  0  0  3  0  0  0  0  0  0
  159.1590  208.9340  156.1350 N   0  0  0  0  0  0  0  0  0  0  0  0
  159.1700  211.2810  156.4500 O   0  0  0  0  0  0  0  0  0  0  0  0
  159.7680  210.0180  156.4570 C   0  0  0  0  0  0  0  0  0  0  0  0
  161.1990  212.2660  157.2480 C   0  0  0  0  0  3  0  0  0  0  0  0
  161.6950  208.1920  156.7580 S   0  0  0  0  0  0  0  0  0  0  0  0
  159.9780  207.7240  156.2650 C   0  0  2  0  0  3  0  0  0  0  0  0
  1  2  1  0  0  0  0
  1 14  1  0  0  0  0
  2 15  1  0  0  0  0
  4 13  1  6  0  0  0
  4  2  1  0  0  0  0
  4  9  1  0  0  0  0
  5 13  1  0  0  0  0
  6 16  2  0  0  0  0
  7 19  1  1  0  0  0
  9  3  1  6  0  0  0
  9 12  1  0  0  0  0
 10 17  1  0  0  0  0
 11 10  1  0  0  0  0
 13 10  2  0  0  0  0
 14  8  2  0  0  0  0
 14  7  1  0  0  0  0
 15 12  1  1  0  0  0
 15  7  1  0  0  0  0
 16  8  1  0  0  0  0
 17  3  2  0  0  0  0
 18  6  1  0  0  0  0
 18  1  2  0  0  0  0
 19 20  1  0  0  0  0
 21 27  1  0  0  0  0
 22 21  2  0  0  0  0
 23 27  2  0  0  0  0
 24 29  1  0  0  0  0
 24 26  2  0  0  0  0
 25 26  1  0  0  0  0
 25 23  1  0  0  0  0
 26 22  1  0  0  0  0
 28 22  1  0  0  0  0
 29 20  1  6  0  0  0
 29 28  1  0  0  0  0
M  END
>  <MODEL>
9

>  <REMARK>
 VINA RESULT:      -7.8      3.471      8.971
  Name = 
  3 active torsions:
  status: ('A' for Active; 'I' for Inactive)
    1  A    between atoms: C_9  and  C_13
    2  A    between atoms: C_13  and  N_20
    3  A    between atoms: N_20  and  C_29
                            x       y       z     vdW  Elec       q    Type
                         _______ _______ _______ _____ _____    ______ ____

>  <TORSDO>
F 3

$$$$
