=
 OpenBabel11042421283D

 53 56  0  0  1  0  0  0  0  0999 V2000
  157.8960  213.4400  152.0060 C   0  0  0  0  0  0  0  0  0  0  0  0
  162.5090  211.1190  148.6480 C   0  0  0  0  0  2  0  0  0  0  0  0
  157.3630  213.2120  153.2690 C   0  0  0  0  0  3  0  0  0  0  0  0
  157.9410  212.2900  154.1450 C   0  0  0  0  0  0  0  0  0  0  0  0
  162.4030  210.4900  150.0500 C   0  0  1  0  0  3  0  0  0  0  0  0
  161.1620  212.9010  147.4220 C   0  0  0  0  0  0  0  0  0  0  0  0
  160.7680  211.0430  151.9810 N   0  0  0  0  0  0  0  0  0  0  0  0
  157.3750  212.1000  155.4140 C   0  0  0  0  0  0  0  0  0  0  0  0
  159.6290  211.7790  152.4510 C   0  0  0  0  0  0  0  0  0  0  0  0
  157.2340  214.4530  151.1300 C   0  0  0  0  0  1  0  0  0  0  0  0
  161.2670  211.2370  150.6620 C   0  0  0  0  0  0  0  0  0  0  0  0
  159.0300  212.7310  151.5850 C   0  0  0  0  0  0  0  0  0  0  0  0
  161.4380  212.1100  148.5890 N   0  0  0  0  0  0  0  0  0  0  0  0
  159.6180  213.0250  150.2170 C   0  0  0  0  0  3  0  0  0  0  0  0
  160.7520  212.1150  149.8350 C   0  0  0  0  0  0  0  0  0  0  0  0
  159.0910  211.5550  153.7500 C   0  0  0  0  0  0  0  0  0  0  0  0
  159.6390  210.6340  154.6860 C   0  0  0  0  0  0  0  0  0  0  0  0
  161.8490  212.7370  146.3790 O   0  0  0  0  0  0  0  0  0  0  0  0
  157.9650  211.1820  156.2860 C   0  0  0  0  0  3  0  0  0  0  0  0
  159.0620  210.4850  155.9090 N   0  0  0  0  0  0  0  0  0  0  0  0
  160.8480  209.8030  154.4100 C   0  0  0  0  0  1  0  0  0  0  0  0
  161.4480  207.0500  148.7160 C   0  0  0  0  0  3  0  0  0  0  0  0
  162.1800  208.2510  151.1310 C   0  0  0  0  0  3  0  0  0  0  0  0
  161.5360  206.2760  149.8810 C   0  0  0  0  0  0  0  0  0  0  0  0
  161.7300  208.4160  148.7580 C   0  0  0  0  0  3  0  0  0  0  0  0
  162.1070  209.0220  149.9670 C   0  0  0  0  0  0  0  0  0  0  0  0
  161.8950  206.8840  151.0880 C   0  0  0  0  0  3  0  0  0  0  0  0
  161.2420  204.8100  149.8590 C   0  0  1  0  0  3  0  0  0  0  0  0
  160.2510  204.4450  150.9490 C   0  0  0  0  0  1  0  0  0  0  0  0
  160.7180  204.4150  148.5580 N   0  0  0  0  0  2  0  0  0  0  0  0
  161.3540  202.1400  149.0780 C   0  0  0  0  0  1  0  0  0  0  0  0
  161.4950  203.2770  148.0880 C   0  0  1  0  0  3  0  0  0  0  0  0
  161.8070  205.6780  144.3620 C   0  0  0  0  0  1  0  0  0  0  0  0
  163.2030  204.7920  146.2150 C   0  0  0  0  0  1  0  0  0  0  0  0
  160.2430  203.3650  144.6620 O   0  0  0  0  0  0  0  0  0  0  0  0
  161.9710  204.7260  145.4450 N   0  0  0  0  0  0  0  0  0  0  0  0
  161.0400  203.6410  145.6000 C   0  0  0  0  0  0  0  0  0  0  0  0
  160.9990  202.8430  146.7890 N   0  0  0  0  0  2  0  0  0  0  0  0
  155.9910  213.2320  157.1300 C   0  0  0  0  0  1  0  0  0  0  0  0
  156.2360  212.8250  155.7910 O   0  0  0  0  0  0  0  0  0  0  0  0
  160.0560  213.9040  147.3940 C   0  0  0  0  0  2  0  0  0  0  0  0
  157.6450  214.1360  146.8170 C   0  0  0  0  0  1  0  0  0  0  0  0
  158.9570  213.4830  146.4260 C   0  0  1  0  0  3  0  0  0  0  0  0
  159.3080  213.8070  144.9770 C   0  0  0  0  0  2  0  0  0  0  0  0
  159.0420  212.6710  144.1040 N   0  0  0  0  0  2  0  0  0  0  0  0
  160.5940  214.4530  142.6040 O   0  0  0  0  0  1  0  0  0  0  0  0
  158.3820  213.4530  141.6410 O   0  0  0  0  0  0  0  0  0  0  0  0
  159.5830  213.1040  142.4930 P   0  0  2  0  0  0  0  0  0  0  0  0
  160.8990  213.5680  139.7720 O   0  0  0  0  0  0  0  0  0  0  0  0
  160.5200  211.7190  141.7570 C   0  0  0  0  0  2  0  0  0  0  0  0
  161.1470  212.1130  140.1030 P   0  0  0  0  0  0  0  0  0  0  0  0
  159.8150  211.1860  140.7420 O   0  0  0  0  0  0  0  0  0  0  0  0
  162.8290  211.4480  139.9880 C   0  0  0  0  0 15  0  0  0  0  0  0
  1  3  1  0  0  0  0
  2  5  1  0  0  0  0
  3  4  2  0  0  0  0
  4  8  1  0  0  0  0
  5 26  1  6  0  0  0
  5 11  1  0  0  0  0
  6 13  1  0  0  0  0
  7  9  1  0  0  0  0
  8 40  1  0  0  0  0
  8 19  2  0  0  0  0
  9 16  2  0  0  0  0
 10  1  1  0  0  0  0
 11  7  2  0  0  0  0
 12  1  2  0  0  0  0
 12  9  1  0  0  0  0
 13  2  1  0  0  0  0
 13 15  1  0  0  0  0
 14 12  1  0  0  0  0
 15 14  2  0  0  0  0
 15 11  1  0  0  0  0
 16  4  1  0  0  0  0
 16 17  1  0  0  0  0
 17 20  2  0  0  0  0
 18  6  2  0  0  0  0
 20 19  1  0  0  0  0
 21 17  1  0  0  0  0
 22 25  2  0  0  0  0
 22 24  1  0  0  0  0
 24 27  2  0  0  0  0
 25 26  1  0  0  0  0
 26 23  2  0  0  0  0
 27 23  1  0  0  0  0
 28 24  1  0  0  0  0
 28 29  1  1  0  0  0
 30 28  1  0  0  0  0
 32 30  1  0  0  0  0
 32 31  1  1  0  0  0
 33 36  1  0  0  0  0
 35 37  2  0  0  0  0
 36 37  1  0  0  0  0
 36 34  1  0  0  0  0
 37 38  1  0  0  0  0
 38 32  1  0  0  0  0
 40 39  1  0  0  0  0
 41  6  1  0  0  0  0
 43 42  1  1  0  0  0
 43 41  1  0  0  0  0
 44 43  1  0  0  0  0
 45 44  1  0  0  0  0
 48 47  2  6  0  0  0
 48 46  1  0  0  0  0
 48 45  1  0  0  0  0
 49 51  2  0  0  0  0
 50 48  1  0  0  0  0
 51 52  1  0  0  0  0
 52 50  1  0  0  0  0
M  END
>  <MODEL>
1

>  <REMARK>
 VINA RESULT:      -7.6      0.000      0.000
  Name = 
  12 active torsions:
  status: ('A' for Active; 'I' for Inactive)
    1  A    between atoms: N_2  and  C_52
    2  A    between atoms: N_2  and  P_53
    3  A    between atoms: C_7  and  N_10
    4  A    between atoms: C_7  and  C_27
    5  A    between atoms: N_10  and  C_22
    6  A    between atoms: C_13  and  P_53
    7  A    between atoms: C_14  and  C_33
    8  A    between atoms: C_17  and  C_39
    9  A    between atoms: C_22  and  N_50
   10  A    between atoms: C_24  and  O_46
   11  A    between atoms: C_30  and  C_39
   12  A    between atoms: C_30  and  C_52
                            x       y       z     vdW  Elec       q    Type
                         _______ _______ _______ _____ _____    ______ ____

>  <TORSDO>
F 12

$$$$
=
 OpenBabel11042421283D

 53 56  0  0  1  0  0  0  0  0999 V2000
  160.6850  204.9450  151.5690 C   0  0  0  0  0  0  0  0  0  0  0  0
  162.4550  210.8170  152.1400 C   0  0  0  0  0  2  0  0  0  0  0  0
  160.6100  204.0160  150.5380 C   0  0  0  0  0  3  0  0  0  0  0  0
  161.0630  204.3230  149.2520 C   0  0  0  0  0  0  0  0  0  0  0  0
  162.6360  210.2640  150.7140 C   0  0  1  0  0  3  0  0  0  0  0  0
  161.5560  209.8160  154.3050 C   0  0  0  0  0  0  0  0  0  0  0  0
  162.1760  207.8840  149.8010 N   0  0  0  0  0  0  0  0  0  0  0  0
  160.9770  203.3510  148.2440 C   0  0  0  0  0  0  0  0  0  0  0  0
  161.6710  206.5610  150.0280 C   0  0  0  0  0  0  0  0  0  0  0  0
  160.1960  204.5400  152.9220 C   0  0  0  0  0  1  0  0  0  0  0  0
  162.1890  208.8490  150.8490 C   0  0  0  0  0  0  0  0  0  0  0  0
  161.2150  206.2200  151.3280 C   0  0  0  0  0  0  0  0  0  0  0  0
  161.9110  209.7060  152.9170 N   0  0  0  0  0  0  0  0  0  0  0  0
  161.3240  207.2030  152.4790 C   0  0  0  0  0  3  0  0  0  0  0  0
  161.7910  208.5710  152.0670 C   0  0  0  0  0  0  0  0  0  0  0  0
  161.6060  205.6060  148.9740 C   0  0  0  0  0  0  0  0  0  0  0  0
  162.0560  205.8590  147.6480 C   0  0  0  0  0  0  0  0  0  0  0  0
  161.6900  210.9190  154.8990 O   0  0  0  0  0  0  0  0  0  0  0  0
  161.4400  203.6640  146.9630 C   0  0  0  0  0  3  0  0  0  0  0  0
  161.9590  204.8860  146.7010 N   0  0  0  0  0  0  0  0  0  0  0  0
  162.6550  207.1560  147.2160 C   0  0  0  0  0  1  0  0  0  0  0  0
  161.1000  211.5090  147.4550 C   0  0  0  0  0  3  0  0  0  0  0  0
  160.8890  211.9730  150.2030 C   0  0  0  0  0  3  0  0  0  0  0  0
  160.1910  212.4620  147.9330 C   0  0  0  0  0  0  0  0  0  0  0  0
  161.8950  210.7880  148.3470 C   0  0  0  0  0  3  0  0  0  0  0  0
  161.7860  211.0110  149.7290 C   0  0  0  0  0  0  0  0  0  0  0  0
  160.0950  212.6950  149.3090 C   0  0  0  0  0  3  0  0  0  0  0  0
  159.3260  213.2440  146.9960 C   0  0  1  0  0  3  0  0  0  0  0  0
  158.2370  213.9760  147.7570 C   0  0  0  0  0  1  0  0  0  0  0  0
  160.1270  214.1930  146.2350 N   0  0  0  0  0  2  0  0  0  0  0  0
  158.7060  214.4530  144.2960 C   0  0  0  0  0  1  0  0  0  0  0  0
  159.9960  213.8620  144.8230 C   0  0  1  0  0  3  0  0  0  0  0  0
  162.1480  211.7340  141.5690 C   0  0  0  0  0  1  0  0  0  0  0  0
  159.8570  212.3940  142.2640 C   0  0  0  0  0  1  0  0  0  0  0  0
  163.0190  214.1050  142.7950 O   0  0  0  0  0  0  0  0  0  0  0  0
  161.2930  212.5900  142.3720 N   0  0  0  0  0  0  0  0  0  0  0  0
  161.8540  213.7140  143.0740 C   0  0  0  0  0  0  0  0  0  0  0  0
  161.1170  214.4200  144.0790 N   0  0  0  0  0  2  0  0  0  0  0  0
  161.2150  200.9050  148.5610 C   0  0  0  0  0  1  0  0  0  0  0  0
  160.4320  202.0910  148.5270 O   0  0  0  0  0  0  0  0  0  0  0  0
  160.9990  208.6600  155.0690 C   0  0  0  0  0  2  0  0  0  0  0  0
  162.4170  209.4060  156.9740 C   0  0  0  0  0  1  0  0  0  0  0  0
  161.0370  208.9240  156.5690 C   0  0  1  0  0  3  0  0  0  0  0  0
  159.9700  209.9220  157.0080 C   0  0  0  0  0  2  0  0  0  0  0  0
  158.8240  209.8970  156.1080 N   0  0  0  0  0  2  0  0  0  0  0  0
  159.4770  212.6150  156.2450 O   0  0  0  0  0  0  0  0  0  0  0  0
  157.1560  211.7430  157.0690 O   0  0  0  0  0  1  0  0  0  0  0  0
  158.2030  211.5330  155.9970 P   0  0  2  0  0  0  0  0  0  0  0  0
  157.2050  214.3490  155.3450 O   0  0  0  0  0  0  0  0  0  0  0  0
  157.4970  211.8200  154.3360 C   0  0  0  0  0  2  0  0  0  0  0  0
  156.8550  213.5030  154.1410 P   0  0  0  0  0  0  0  0  0  0  0  0
  156.1580  211.9300  154.4280 O   0  0  0  0  0  0  0  0  0  0  0  0
  157.3230  214.0730  152.4860 C   0  0  0  0  0 15  0  0  0  0  0  0
  1 10  1  0  0  0  0
  2 13  1  0  0  0  0
  3  1  2  0  0  0  0
  4  3  1  0  0  0  0
  5 26  1  6  0  0  0
  5 11  1  0  0  0  0
  5  2  1  0  0  0  0
  6 18  2  0  0  0  0
  6 41  1  0  0  0  0
  7  9  2  0  0  0  0
  7 11  1  0  0  0  0
  8 40  1  0  0  0  0
  8  4  2  0  0  0  0
  9 12  1  0  0  0  0
 11 15  2  0  0  0  0
 12  1  1  0  0  0  0
 12 14  2  0  0  0  0
 13  6  1  0  0  0  0
 15 14  1  0  0  0  0
 15 13  1  0  0  0  0
 16  4  1  0  0  0  0
 16  9  1  0  0  0  0
 17 16  2  0  0  0  0
 19  8  1  0  0  0  0
 20 19  2  0  0  0  0
 20 17  1  0  0  0  0
 21 17  1  0  0  0  0
 22 24  2  0  0  0  0
 22 25  1  0  0  0  0
 24 27  1  0  0  0  0
 25 26  2  0  0  0  0
 26 23  1  0  0  0  0
 27 23  2  0  0  0  0
 28 29  1  1  0  0  0
 28 24  1  0  0  0  0
 30 28  1  0  0  0  0
 32 31  1  6  0  0  0
 32 30  1  0  0  0  0
 33 36  1  0  0  0  0
 34 36  1  0  0  0  0
 35 37  2  0  0  0  0
 36 37  1  0  0  0  0
 37 38  1  0  0  0  0
 38 32  1  0  0  0  0
 40 39  1  0  0  0  0
 41 43  1  0  0  0  0
 43 42  1  6  0  0  0
 43 44  1  0  0  0  0
 45 44  1  0  0  0  0
 48 45  1  0  0  0  0
 48 46  2  1  0  0  0
 48 47  1  0  0  0  0
 50 52  1  0  0  0  0
 50 48  1  0  0  0  0
 51 52  1  0  0  0  0
 51 49  2  0  0  0  0
M  END
>  <MODEL>
2

>  <REMARK>
 VINA RESULT:      -5.6      3.315     10.122
  Name = 
  12 active torsions:
  status: ('A' for Active; 'I' for Inactive)
    1  A    between atoms: N_2  and  C_52
    2  A    between atoms: N_2  and  P_53
    3  A    between atoms: C_7  and  N_10
    4  A    between atoms: C_7  and  C_27
    5  A    between atoms: N_10  and  C_22
    6  A    between atoms: C_13  and  P_53
    7  A    between atoms: C_14  and  C_33
    8  A    between atoms: C_17  and  C_39
    9  A    between atoms: C_22  and  N_50
   10  A    between atoms: C_24  and  O_46
   11  A    between atoms: C_30  and  C_39
   12  A    between atoms: C_30  and  C_52
                            x       y       z     vdW  Elec       q    Type
                         _______ _______ _______ _____ _____    ______ ____

>  <TORSDO>
F 12

$$$$
