=
 OpenBabel11052409273D

 35 42  0  0  1  0  0  0  0  0999 V2000
  161.0920  208.8550  153.1620 C   0  0  0  0  0  0  0  0  0  0  0  0
  161.8660  210.0330  152.7150 C   0  0  0  0  0  2  0  0  0  0  0  0
  160.5440  208.0750  152.0290 C   0  0  0  0  0  2  0  0  0  0  0  0
  160.4690  208.8770  154.3060 C   0  0  0  0  0  0  0  0  0  0  0  0
  161.0710  208.7660  150.7760 C   0  0  1  0  0  3  0  0  0  0  0  0
  161.5690  210.1360  151.2310 C   0  0  0  0  0  2  0  0  0  0  0  0
  159.8430  208.9210  155.4540 C   0  0  0  0  0  3  0  0  0  0  0  0
  160.8540  211.0590  156.3550 C   0  0  2  0  0  3  0  0  0  0  0  0
  160.5720  212.2520  157.2610 C   0  0  2  0  0  3  0  0  0  0  0  0
  158.3700  212.4870  155.8300 C   0  0  2  0  0  3  0  0  0  0  0  0
  159.2320  212.9530  157.0150 C   0  0  2  0  0  0  0  0  0  0  0  0
  156.9700  212.1680  156.3220 C   0  0  0  0  0  2  0  0  0  0  0  0
  159.5810  210.2250  156.1640 C   0  0  1  0  0  3  0  0  0  0  0  0
  158.5360  211.0300  155.3860 C   0  0  1  0  0  3  0  0  0  0  0  0
  160.5140  213.5250  156.4400 C   0  0  1  0  0  3  0  0  0  0  0  0
  161.9600  210.2420  157.0040 C   0  0  0  0  0  1  0  0  0  0  0  0
  157.1380  210.7200  155.8870 C   0  0  0  0  0  2  0  0  0  0  0  0
  159.4440  214.4520  156.9860 C   0  0  0  0  0  2  0  0  0  0  0  0
  162.2180  207.9640  150.1450 C   0  0  1  0  0  3  0  0  0  0  0  0
  161.3670  207.4750  147.6060 S   0  0  0  0  0  0  0  0  0  0  0  0
  161.9050  206.4850  150.0750 C   0  0  0  0  0  2  0  0  0  0  0  0
  162.4640  208.4110  148.7150 C   0  0  0  0  0  2  0  0  0  0  0  0
  160.9750  206.2570  148.8960 C   0  0  2  0  0  3  0  0  0  0  0  0
  160.7310  202.7300  151.2990 C   0  0  0  0  0  2  0  0  0  0  0  0
  161.1050  200.2290  148.3380 C   0  0  0  0  0  2  0  0  0  0  0  0
  161.5600  202.5300  148.5030 C   0  0  1  0  0  3  0  0  0  0  0  0
  160.3000  202.8260  146.4870 O   0  0  0  0  0  1  0  0  0  0  0  0
  161.1510  204.9240  148.3690 N   0  0  0  0  0  0  0  0  0  0  0  0
  161.3940  203.9460  150.6180 C   0  0  0  0  0  2  0  0  0  0  0  0
  161.0950  201.3890  150.6290 C   0  0  0  0  0  2  0  0  0  0  0  0
  161.4050  200.7590  146.9250 C   0  0  0  0  0  2  0  0  0  0  0  0
  161.4770  202.2850  147.0100 C   0  0  2  0  0  3  0  0  0  0  0  0
  161.2890  203.8760  149.1090 C   0  0  0  0  0  0  0  0  0  0  0  0
  159.3620  201.7020  149.0010 O   0  0  0  0  0  1  0  0  0  0  0  0
  160.7320  201.4510  149.1490 C   0  0  2  0  0  0  0  0  0  0  0  0
  1  4  2  0  0  0  0
  2  1  1  0  0  0  0
  3  1  1  0  0  0  0
  4  7  2  0  0  0  0
  5  6  1  1  0  0  0
  5  3  1  0  0  0  0
  6  2  1  0  0  0  0
  7 13  1  0  0  0  0
  8 16  1  1  0  0  0
  8  9  1  0  0  0  0
 10 12  1  0  0  0  0
 10 11  1  0  0  0  0
 11  9  1  0  0  0  0
 13  8  1  0  0  0  0
 14 10  1  0  0  0  0
 14 17  1  0  0  0  0
 14 13  1  0  0  0  0
 15 18  1  0  0  0  0
 15 11  1  0  0  0  0
 15  9  1  0  0  0  0
 17 12  1  0  0  0  0
 18 11  1  0  0  0  0
 19  5  1  0  0  0  0
 20 22  1  0  0  0  0
 20 23  1  0  0  0  0
 21 19  1  0  0  0  0
 22 19  1  0  0  0  0
 23 21  1  0  0  0  0
 25 35  1  0  0  0  0
 26 33  1  0  0  0  0
 26 35  1  0  0  0  0
 27 32  1  0  0  0  0
 28 23  1  0  0  0  0
 28 33  2  0  0  0  0
 29 24  1  0  0  0  0
 30 24  1  0  0  0  0
 31 32  1  0  0  0  0
 31 25  1  0  0  0  0
 32 26  1  0  0  0  0
 33 29  1  0  0  0  0
 34 35  1  0  0  0  0
 35 30  1  0  0  0  0
M  END
>  <MODEL>
1

>  <REMARK>
 VINA RESULT:      -7.8      0.000      0.000
  Name = 
  3 active torsions:
  status: ('A' for Active; 'I' for Inactive)
    1  A    between atoms: C_4  and  C_22
    2  A    between atoms: N_9  and  C_29
    3  A    between atoms: C_16  and  C_35
                            x       y       z     vdW  Elec       q    Type
                         _______ _______ _______ _____ _____    ______ ____

>  <TORSDO>
F 3

$$$$
=
 OpenBabel11052409273D

 35 42  0  0  1  0  0  0  0  0999 V2000
  161.5980  205.9830  149.7390 C   0  0  0  0  0  0  0  0  0  0  0  0
  161.4760  205.0960  150.9160 C   0  0  0  0  0  2  0  0  0  0  0  0
  161.0970  207.3500  150.0070 C   0  0  0  0  0  2  0  0  0  0  0  0
  161.5410  205.4870  148.5360 C   0  0  0  0  0  0  0  0  0  0  0  0
  160.6980  207.3490  151.4780 C   0  0  1  0  0  3  0  0  0  0  0  0
  160.6150  205.8800  151.8890 C   0  0  0  0  0  2  0  0  0  0  0  0
  161.4720  204.9710  147.3360 C   0  0  0  0  0  3  0  0  0  0  0  0
  161.0770  203.1350  145.6400 C   0  0  2  0  0  3  0  0  0  0  0  0
  160.3160  201.8340  145.4090 C   0  0  2  0  0  3  0  0  0  0  0  0
  161.3600  201.1150  147.7210 C   0  0  2  0  0  3  0  0  0  0  0  0
  160.4230  200.8080  146.5420 C   0  0  2  0  0  0  0  0  0  0  0  0
  160.5920  200.9800  149.0230 C   0  0  0  0  0  2  0  0  0  0  0  0
  160.9210  203.5880  147.0980 C   0  0  1  0  0  3  0  0  0  0  0  0
  161.6130  202.5930  148.0340 C   0  0  1  0  0  3  0  0  0  0  0  0
  161.2870  200.6750  145.3020 C   0  0  1  0  0  3  0  0  0  0  0  0
  160.5190  204.1690  144.6760 C   0  0  0  0  0  1  0  0  0  0  0  0
  160.8380  202.4490  149.3310 C   0  0  0  0  0  2  0  0  0  0  0  0
  160.7020  199.4390  145.9570 C   0  0  0  0  0  2  0  0  0  0  0  0
  161.7390  208.0840  152.3330 C   0  0  1  0  0  3  0  0  0  0  0  0
  160.7380  207.9430  154.8610 S   0  0  0  0  0  0  0  0  0  0  0  0
  161.2890  209.4830  152.6960 C   0  0  0  0  0  2  0  0  0  0  0  0
  161.9620  207.3600  153.6490 C   0  0  0  0  0  2  0  0  0  0  0  0
  160.2930  209.3750  153.8370 C   0  0  2  0  0  3  0  0  0  0  0  0
  156.8970  211.9070  154.4140 C   0  0  0  0  0  2  0  0  0  0  0  0
  158.6290  214.2880  156.9610 C   0  0  0  0  0  2  0  0  0  0  0  0
  159.5080  212.7200  155.4470 C   0  0  1  0  0  3  0  0  0  0  0  0
  160.8010  211.8370  157.2600 O   0  0  0  0  0  1  0  0  0  0  0  0
  160.3240  210.5730  154.6440 N   0  0  0  0  0  0  0  0  0  0  0  0
  158.1770  211.3750  153.7360 C   0  0  0  0  0  2  0  0  0  0  0  0
  157.1210  213.2320  155.1720 C   0  0  0  0  0  2  0  0  0  0  0  0
  160.1290  214.1240  157.2610 C   0  0  0  0  0  2  0  0  0  0  0  0
  160.6400  212.9470  156.4280 C   0  0  2  0  0  3  0  0  0  0  0  0
  159.3780  211.4510  154.6560 C   0  0  0  0  0  0  0  0  0  0  0  0
  157.9020  212.0300  157.0940 O   0  0  0  0  0  1  0  0  0  0  0  0
  158.2410  213.0460  156.1910 C   0  0  2  0  0  0  0  0  0  0  0  0
  1  3  1  0  0  0  0
  1  2  1  0  0  0  0
  2  6  1  0  0  0  0
  4  1  2  0  0  0  0
  5  3  1  6  0  0  0
  5  6  1  0  0  0  0
  5 19  1  0  0  0  0
  7  4  2  0  0  0  0
  8 16  1  6  0  0  0
  8 13  1  0  0  0  0
  9  8  1  0  0  0  0
  9 11  1  0  0  0  0
 10 14  1  0  0  0  0
 10 12  1  0  0  0  0
 11 10  1  0  0  0  0
 12 17  1  0  0  0  0
 13  7  1  0  0  0  0
 13 14  1  0  0  0  0
 14 17  1  0  0  0  0
 15  9  1  0  0  0  0
 15 18  1  0  0  0  0
 15 11  1  0  0  0  0
 18 11  1  0  0  0  0
 19 21  1  0  0  0  0
 19 22  1  0  0  0  0
 21 23  1  0  0  0  0
 22 20  1  0  0  0  0
 23 28  1  0  0  0  0
 23 20  1  0  0  0  0
 24 30  1  0  0  0  0
 25 31  1  0  0  0  0
 26 35  1  0  0  0  0
 26 32  1  0  0  0  0
 28 33  2  0  0  0  0
 29 24  1  0  0  0  0
 29 33  1  0  0  0  0
 30 35  1  0  0  0  0
 32 27  1  0  0  0  0
 32 31  1  0  0  0  0
 33 26  1  0  0  0  0
 35 25  1  0  0  0  0
 35 34  1  0  0  0  0
M  END
>  <MODEL>
2

>  <REMARK>
 VINA RESULT:      -7.7      3.990     11.525
  Name = 
  3 active torsions:
  status: ('A' for Active; 'I' for Inactive)
    1  A    between atoms: C_4  and  C_22
    2  A    between atoms: N_9  and  C_29
    3  A    between atoms: C_16  and  C_35
                            x       y       z     vdW  Elec       q    Type
                         _______ _______ _______ _____ _____    ______ ____

>  <TORSDO>
F 3

$$$$
=
 OpenBabel11052409273D

 35 42  0  0  1  0  0  0  0  0999 V2000
  160.8650  208.1750  151.5830 C   0  0  0  0  0  0  0  0  0  0  0  0
  161.8000  209.0640  150.8610 C   0  0  0  0  0  2  0  0  0  0  0  0
  160.9610  208.3290  153.0530 C   0  0  0  0  0  2  0  0  0  0  0  0
  160.5140  207.0340  151.0640 C   0  0  0  0  0  0  0  0  0  0  0  0
  161.9740  209.4460  153.2730 C   0  0  1  0  0  3  0  0  0  0  0  0
  162.7080  209.6140  151.9440 C   0  0  0  0  0  2  0  0  0  0  0  0
  160.1800  205.8860  150.5310 C   0  0  0  0  0  3  0  0  0  0  0  0
  160.6710  203.7840  149.2120 C   0  0  2  0  0  3  0  0  0  0  0  0
  161.6470  203.1740  148.2120 C   0  0  2  0  0  3  0  0  0  0  0  0
  161.1950  205.3710  146.8250 C   0  0  2  0  0  3  0  0  0  0  0  0
  161.9620  204.0490  146.9940 C   0  0  2  0  0  0  0  0  0  0  0  0
  162.1850  206.5070  146.6400 C   0  0  0  0  0  2  0  0  0  0  0  0
  160.9700  205.2770  149.4020 C   0  0  1  0  0  3  0  0  0  0  0  0
  160.6830  206.0390  148.1050 C   0  0  1  0  0  3  0  0  0  0  0  0
  160.9480  202.9260  146.8890 C   0  0  1  0  0  3  0  0  0  0  0  0
  160.8160  203.0190  150.5170 C   0  0  0  0  0  1  0  0  0  0  0  0
  161.6810  207.1660  147.9140 C   0  0  0  0  0  2  0  0  0  0  0  0
  161.8930  203.2080  145.7370 C   0  0  0  0  0  2  0  0  0  0  0  0
  161.2760  210.7560  153.6650 C   0  0  1  0  0  3  0  0  0  0  0  0
  160.9390  210.5460  156.3580 S   0  0  0  0  0  0  0  0  0  0  0  0
  159.7930  210.5600  153.8980 C   0  0  0  0  0  2  0  0  0  0  0  0
  161.8390  211.2970  154.9670 C   0  0  0  0  0  2  0  0  0  0  0  0
  159.6110  209.9440  155.2740 C   0  0  2  0  0  3  0  0  0  0  0  0
  158.4340  214.0020  155.9240 C   0  0  0  0  0  2  0  0  0  0  0  0
  154.8080  213.1650  157.0690 C   0  0  0  0  0  2  0  0  0  0  0  0
  156.7290  211.8250  156.8710 C   0  0  1  0  0  3  0  0  0  0  0  0
  155.3930  210.2580  155.6470 O   0  0  0  0  0  1  0  0  0  0  0  0
  158.3310  210.3200  155.8260 N   0  0  0  0  0  0  0  0  0  0  0  0
  159.0680  212.6330  156.2520 C   0  0  0  0  0  2  0  0  0  0  0  0
  157.1020  214.2440  156.6640 C   0  0  0  0  0  2  0  0  0  0  0  0
  154.3880  211.6970  157.2610 C   0  0  0  0  0  2  0  0  0  0  0  0
  155.5930  210.8230  156.9090 C   0  0  2  0  0  3  0  0  0  0  0  0
  158.0460  211.5160  156.2210 C   0  0  0  0  0  0  0  0  0  0  0  0
  155.9100  213.0390  154.9680 O   0  0  0  0  0  1  0  0  0  0  0  0
  156.1370  213.1060  156.3490 C   0  0  2  0  0  0  0  0  0  0  0  0
  1  3  1  0  0  0  0
  2  1  1  0  0  0  0
  2  6  1  0  0  0  0
  3  5  1  0  0  0  0
  4  1  2  0  0  0  0
  5  6  1  6  0  0  0
  5 19  1  0  0  0  0
  7  4  2  0  0  0  0
  8 13  1  0  0  0  0
  8 16  1  1  0  0  0
  9  8  1  0  0  0  0
 10 11  1  0  0  0  0
 10 14  1  0  0  0  0
 11  9  1  0  0  0  0
 12 10  1  0  0  0  0
 12 17  1  0  0  0  0
 13  7  1  0  0  0  0
 14 13  1  0  0  0  0
 15 11  1  0  0  0  0
 15  9  1  0  0  0  0
 17 14  1  0  0  0  0
 18 15  1  0  0  0  0
 18 11  1  0  0  0  0
 19 21  1  0  0  0  0
 19 22  1  0  0  0  0
 21 23  1  0  0  0  0
 22 20  1  0  0  0  0
 23 28  1  0  0  0  0
 23 20  1  0  0  0  0
 24 29  1  0  0  0  0
 24 30  1  0  0  0  0
 25 31  1  0  0  0  0
 26 32  1  0  0  0  0
 27 32  1  0  0  0  0
 28 33  2  0  0  0  0
 32 31  1  0  0  0  0
 33 29  1  0  0  0  0
 33 26  1  0  0  0  0
 34 35  1  0  0  0  0
 35 30  1  0  0  0  0
 35 26  1  0  0  0  0
 35 25  1  0  0  0  0
M  END
>  <MODEL>
3

>  <REMARK>
 VINA RESULT:      -7.2      3.994     10.770
  Name = 
  3 active torsions:
  status: ('A' for Active; 'I' for Inactive)
    1  A    between atoms: C_4  and  C_22
    2  A    between atoms: N_9  and  C_29
    3  A    between atoms: C_16  and  C_35
                            x       y       z     vdW  Elec       q    Type
                         _______ _______ _______ _____ _____    ______ ____

>  <TORSDO>
F 3

$$$$
=
 OpenBabel11052409273D

 35 42  0  0  1  0  0  0  0  0999 V2000
  160.8360  206.6900  150.7790 C   0  0  0  0  0  0  0  0  0  0  0  0
  161.8230  207.3090  149.8700 C   0  0  0  0  0  2  0  0  0  0  0  0
  160.9170  207.2310  152.1550 C   0  0  0  0  0  2  0  0  0  0  0  0
  160.4370  205.4670  150.5780 C   0  0  0  0  0  0  0  0  0  0  0  0
  161.9800  208.3220  152.0940 C   0  0  1  0  0  3  0  0  0  0  0  0
  162.7410  208.0930  150.7890 C   0  0  0  0  0  2  0  0  0  0  0  0
  160.0550  204.2340  150.3640 C   0  0  0  0  0  3  0  0  0  0  0  0
  160.6010  201.8290  149.7980 C   0  0  2  0  0  3  0  0  0  0  0  0
  161.5670  200.9530  149.0080 C   0  0  2  0  0  3  0  0  0  0  0  0
  160.9520  202.5410  146.9940 C   0  0  2  0  0  3  0  0  0  0  0  0
  161.7900  201.3790  147.5530 C   0  0  2  0  0  0  0  0  0  0  0  0
  161.8750  203.5810  146.3880 C   0  0  0  0  0  2  0  0  0  0  0  0
  160.8310  203.3080  149.4630 C   0  0  1  0  0  3  0  0  0  0  0  0
  160.4560  203.5810  148.0040 C   0  0  1  0  0  3  0  0  0  0  0  0
  160.8310  200.2510  147.8840 C   0  0  1  0  0  3  0  0  0  0  0  0
  160.8340  201.5520  151.2740 C   0  0  0  0  0  1  0  0  0  0  0  0
  161.3880  204.6130  147.3940 C   0  0  0  0  0  2  0  0  0  0  0  0
  161.7150  200.1630  146.6540 C   0  0  0  0  0  2  0  0  0  0  0  0
  161.3410  209.7170  152.1000 C   0  0  1  0  0  3  0  0  0  0  0  0
  161.7740  210.6330  154.6270 S   0  0  0  0  0  0  0  0  0  0  0  0
  159.9950  209.7220  152.7920 C   0  0  0  0  0  2  0  0  0  0  0  0
  162.2080  210.7030  152.8620 C   0  0  0  0  0  2  0  0  0  0  0  0
  160.2370  209.7250  154.2910 C   0  0  2  0  0  3  0  0  0  0  0  0
  158.8560  213.6570  153.3390 C   0  0  0  0  0  2  0  0  0  0  0  0
  155.8370  213.6030  155.7960 C   0  0  0  0  0  2  0  0  0  0  0  0
  157.7540  212.2500  155.6510 C   0  0  1  0  0  3  0  0  0  0  0  0
  156.3020  210.3480  155.7600 O   0  0  0  0  0  1  0  0  0  0  0  0
  159.1390  210.3680  154.9740 N   0  0  0  0  0  0  0  0  0  0  0  0
  159.7060  212.5780  154.0430 C   0  0  0  0  0  2  0  0  0  0  0  0
  157.7800  214.2720  154.2560 C   0  0  0  0  0  2  0  0  0  0  0  0
  155.6560  212.4150  156.7570 C   0  0  0  0  0  2  0  0  0  0  0  0
  156.7960  211.4300  156.4920 C   0  0  2  0  0  3  0  0  0  0  0  0
  158.8510  211.6190  154.8440 C   0  0  0  0  0  0  0  0  0  0  0  0
  156.2870  212.4620  153.7610 O   0  0  0  0  0  1  0  0  0  0  0  0
  156.8970  213.1590  154.8120 C   0  0  2  0  0  0  0  0  0  0  0  0
  1  3  1  0  0  0  0
  2  1  1  0  0  0  0
  2  6  1  0  0  0  0
  4  1  2  0  0  0  0
  5  6  1  6  0  0  0
  5 19  1  0  0  0  0
  5  3  1  0  0  0  0
  7  4  2  0  0  0  0
  8 16  1  1  0  0  0
  9  8  1  0  0  0  0
 10 11  1  0  0  0  0
 10 14  1  0  0  0  0
 11 15  1  0  0  0  0
 11  9  1  0  0  0  0
 12 10  1  0  0  0  0
 12 17  1  0  0  0  0
 13  8  1  0  0  0  0
 13  7  1  0  0  0  0
 14 13  1  0  0  0  0
 15  9  1  0  0  0  0
 17 14  1  0  0  0  0
 18 11  1  0  0  0  0
 18 15  1  0  0  0  0
 19 21  1  0  0  0  0
 19 22  1  0  0  0  0
 21 23  1  0  0  0  0
 22 20  1  0  0  0  0
 23 20  1  0  0  0  0
 23 28  1  0  0  0  0
 24 29  1  0  0  0  0
 24 30  1  0  0  0  0
 25 31  1  0  0  0  0
 26 32  1  0  0  0  0
 27 32  1  0  0  0  0
 29 33  1  0  0  0  0
 30 35  1  0  0  0  0
 32 31  1  0  0  0  0
 33 28  2  0  0  0  0
 33 26  1  0  0  0  0
 34 35  1  0  0  0  0
 35 26  1  0  0  0  0
 35 25  1  0  0  0  0
M  END
>  <MODEL>
4

>  <REMARK>
 VINA RESULT:      -6.5      3.799     10.907
  Name = 
  3 active torsions:
  status: ('A' for Active; 'I' for Inactive)
    1  A    between atoms: C_4  and  C_22
    2  A    between atoms: N_9  and  C_29
    3  A    between atoms: C_16  and  C_35
                            x       y       z     vdW  Elec       q    Type
                         _______ _______ _______ _____ _____    ______ ____

>  <TORSDO>
F 3

$$$$
=
 OpenBabel11052409273D

 35 42  0  0  1  0  0  0  0  0999 V2000
  159.4290  212.9730  147.6800 C   0  0  0  0  0  0  0  0  0  0  0  0
  158.1140  213.4980  147.2550 C   0  0  0  0  0  2  0  0  0  0  0  0
  159.7560  213.3330  149.0790 C   0  0  0  0  0  2  0  0  0  0  0  0
  160.3800  212.8040  146.8080 C   0  0  0  0  0  0  0  0  0  0  0  0
  158.5290  214.0740  149.5990 C   0  0  1  0  0  3  0  0  0  0  0  0
  157.7140  214.4530  148.3630 C   0  0  0  0  0  2  0  0  0  0  0  0
  161.3260  212.6500  145.9170 C   0  0  0  0  0  3  0  0  0  0  0  0
  162.5560  213.1520  143.7630 C   0  0  2  0  0  3  0  0  0  0  0  0
  162.5090  214.0140  142.5070 C   0  0  2  0  0  3  0  0  0  0  0  0
  160.0450  213.1030  142.2860 C   0  0  2  0  0  3  0  0  0  0  0  0
  161.1620  214.0290  141.7780 C   0  0  2  0  0  0  0  0  0  0  0  0
  158.7870  213.9180  142.5270 C   0  0  0  0  0  2  0  0  0  0  0  0
  161.2570  213.3100  144.5640 C   0  0  1  0  0  3  0  0  0  0  0  0
  160.0790  212.7340  143.7730 C   0  0  1  0  0  3  0  0  0  0  0  0
  162.2910  213.1430  141.2860 C   0  0  1  0  0  3  0  0  0  0  0  0
  163.7640  213.5900  144.5750 C   0  0  0  0  0  1  0  0  0  0  0  0
  158.8240  213.5560  144.0030 C   0  0  0  0  0  2  0  0  0  0  0  0
  161.3910  213.8510  140.2910 C   0  0  0  0  0  2  0  0  0  0  0  0
  157.6980  213.1810  150.5310 C   0  0  1  0  0  3  0  0  0  0  0  0
  157.8040  214.4530  152.9350 S   0  0  0  0  0  0  0  0  0  0  0  0
  158.5720  212.3300  151.4290 C   0  0  0  0  0  2  0  0  0  0  0  0
  156.8370  214.0220  151.4560 C   0  0  0  0  0  2  0  0  0  0  0  0
  159.0720  213.2070  152.5630 C   0  0  2  0  0  3  0  0  0  0  0  0
  161.3330  209.5790  152.5040 C   0  0  0  0  0  2  0  0  0  0  0  0
  161.2570  209.0230  156.3560 C   0  0  0  0  0  2  0  0  0  0  0  0
  159.9680  210.4010  154.9540 C   0  0  1  0  0  3  0  0  0  0  0  0
  160.4360  212.2060  156.4590 O   0  0  0  0  0  1  0  0  0  0  0  0
  159.3220  212.4080  153.7410 N   0  0  0  0  0  0  0  0  0  0  0  0
  160.0830  210.4800  152.4080 C   0  0  0  0  0  2  0  0  0  0  0  0
  161.3840  208.7540  153.8060 C   0  0  0  0  0  2  0  0  0  0  0  0
  160.4160  209.9560  157.2460 C   0  0  0  0  0  2  0  0  0  0  0  0
  159.7570  210.9920  156.3330 C   0  0  2  0  0  3  0  0  0  0  0  0
  159.8160  211.2160  153.7030 C   0  0  0  0  0  0  0  0  0  0  0  0
  162.3600  210.6080  154.9720 O   0  0  0  0  0  1  0  0  0  0  0  0
  161.2970  209.6970  155.0020 C   0  0  2  0  0  0  0  0  0  0  0  0
  1  3  1  0  0  0  0
  2  1  1  0  0  0  0
  2  6  1  0  0  0  0
  3  5  1  0  0  0  0
  4  1  2  0  0  0  0
  5  6  1  6  0  0  0
  5 19  1  0  0  0  0
  7  4  2  0  0  0  0
  8 13  1  0  0  0  0
  8 16  1  1  0  0  0
  9  8  1  0  0  0  0
 10 12  1  0  0  0  0
 10 14  1  0  0  0  0
 11 10  1  0  0  0  0
 11  9  1  0  0  0  0
 12 17  1  0  0  0  0
 13  7  1  0  0  0  0
 14 17  1  0  0  0  0
 14 13  1  0  0  0  0
 15 11  1  0  0  0  0
 15  9  1  0  0  0  0
 18 15  1  0  0  0  0
 18 11  1  0  0  0  0
 19 21  1  0  0  0  0
 19 22  1  0  0  0  0
 21 23  1  0  0  0  0
 22 20  1  0  0  0  0
 23 20  1  0  0  0  0
 23 28  1  0  0  0  0
 24 30  1  0  0  0  0
 25 31  1  0  0  0  0
 26 35  1  0  0  0  0
 26 32  1  0  0  0  0
 29 24  1  0  0  0  0
 29 33  1  0  0  0  0
 30 35  1  0  0  0  0
 32 27  1  0  0  0  0
 32 31  1  0  0  0  0
 33 28  2  0  0  0  0
 33 26  1  0  0  0  0
 34 35  1  0  0  0  0
 35 25  1  0  0  0  0
M  END
>  <MODEL>
5

>  <REMARK>
 VINA RESULT:      -6.0      6.535     10.955
  Name = 
  3 active torsions:
  status: ('A' for Active; 'I' for Inactive)
    1  A    between atoms: C_4  and  C_22
    2  A    between atoms: N_9  and  C_29
    3  A    between atoms: C_16  and  C_35
                            x       y       z     vdW  Elec       q    Type
                         _______ _______ _______ _____ _____    ______ ____

>  <TORSDO>
F 3

$$$$
=
 OpenBabel11052409273D

 35 42  0  0  1  0  0  0  0  0999 V2000
  161.0330  206.8300  153.8480 C   0  0  0  0  0  0  0  0  0  0  0  0
  160.8270  208.2470  153.4780 C   0  0  0  0  0  2  0  0  0  0  0  0
  161.7510  206.6800  155.1340 C   0  0  0  0  0  2  0  0  0  0  0  0
  161.1490  205.9220  152.9220 C   0  0  0  0  0  0  0  0  0  0  0  0
  161.9470  208.1010  155.6510 C   0  0  1  0  0  3  0  0  0  0  0  0
  161.6890  209.0200  154.4580 C   0  0  0  0  0  2  0  0  0  0  0  0
  161.2730  205.0260  151.9770 C   0  0  0  0  0  3  0  0  0  0  0  0
  160.8790  204.4960  149.5340 C   0  0  2  0  0  3  0  0  0  0  0  0
  161.3840  204.7940  148.1270 C   0  0  2  0  0  3  0  0  0  0  0  0
  161.1410  207.3170  148.8530 C   0  0  2  0  0  3  0  0  0  0  0  0
  161.5780  206.2790  147.8060 C   0  0  2  0  0  0  0  0  0  0  0  0
  162.2960  208.2590  149.1400 C   0  0  0  0  0  2  0  0  0  0  0  0
  161.5720  205.4120  150.5510 C   0  0  1  0  0  3  0  0  0  0  0  0
  161.1560  206.8670  150.3170 C   0  0  1  0  0  3  0  0  0  0  0  0
  160.3290  205.5520  147.3460 C   0  0  1  0  0  3  0  0  0  0  0  0
  161.1640  203.0320  149.8240 C   0  0  0  0  0  1  0  0  0  0  0  0
  162.3140  207.8080  150.5920 C   0  0  0  0  0  2  0  0  0  0  0  0
  160.9830  206.5830  146.4470 C   0  0  0  0  0  2  0  0  0  0  0  0
  160.9660  208.4150  156.7880 C   0  0  1  0  0  3  0  0  0  0  0  0
  158.5160  208.2650  155.6110 S   0  0  0  0  0  0  0  0  0  0  0  0
  160.4400  209.8330  156.7080 C   0  0  0  0  0  2  0  0  0  0  0  0
  159.7490  207.5110  156.7150 C   0  0  0  0  0  2  0  0  0  0  0  0
  159.3600  209.8730  155.6420 C   0  0  2  0  0  3  0  0  0  0  0  0
  158.1050  212.7920  152.7820 C   0  0  0  0  0  2  0  0  0  0  0  0
  155.4390  214.4530  155.0810 C   0  0  0  0  0  2  0  0  0  0  0  0
  157.2350  213.0150  155.5630 C   0  0  1  0  0  3  0  0  0  0  0  0
  155.6980  211.6730  156.8190 O   0  0  0  0  0  1  0  0  0  0  0  0
  158.4020  210.9140  155.9380 N   0  0  0  0  0  0  0  0  0  0  0  0
  158.9730  212.1740  153.8980 C   0  0  0  0  0  2  0  0  0  0  0  0
  157.1980  213.9330  153.2850 C   0  0  0  0  0  2  0  0  0  0  0  0
  155.3160  214.0110  156.5500 C   0  0  0  0  0  2  0  0  0  0  0  0
  156.3490  212.9090  156.7880 C   0  0  2  0  0  3  0  0  0  0  0  0
  158.1750  211.9180  155.1590 C   0  0  0  0  0  0  0  0  0  0  0  0
  155.5470  212.3450  153.9920 O   0  0  0  0  0  1  0  0  0  0  0  0
  156.3310  213.4200  154.4300 C   0  0  2  0  0  0  0  0  0  0  0  0
  1  3  1  0  0  0  0
  2  1  1  0  0  0  0
  2  6  1  0  0  0  0
  3  5  1  0  0  0  0
  4  1  2  0  0  0  0
  5  6  1  6  0  0  0
  5 19  1  0  0  0  0
  7  4  2  0  0  0  0
  8 16  1  1  0  0  0
  8 13  1  0  0  0  0
  9  8  1  0  0  0  0
 10 12  1  0  0  0  0
 10 14  1  0  0  0  0
 11  9  1  0  0  0  0
 11 10  1  0  0  0  0
 12 17  1  0  0  0  0
 13  7  1  0  0  0  0
 14 13  1  0  0  0  0
 14 17  1  0  0  0  0
 15 11  1  0  0  0  0
 15  9  1  0  0  0  0
 18 15  1  0  0  0  0
 18 11  1  0  0  0  0
 20 23  1  0  0  0  0
 20 22  1  0  0  0  0
 21 19  1  0  0  0  0
 22 19  1  0  0  0  0
 23 28  1  0  0  0  0
 23 21  1  0  0  0  0
 24 30  1  0  0  0  0
 24 29  1  0  0  0  0
 25 31  1  0  0  0  0
 26 32  1  0  0  0  0
 29 33  1  0  0  0  0
 30 35  1  0  0  0  0
 31 32  1  0  0  0  0
 32 27  1  0  0  0  0
 33 26  1  0  0  0  0
 33 28  2  0  0  0  0
 34 35  1  0  0  0  0
 35 25  1  0  0  0  0
 35 26  1  0  0  0  0
M  END
>  <MODEL>
6

>  <REMARK>
 VINA RESULT:      -5.8      4.148     10.258
  Name = 
  3 active torsions:
  status: ('A' for Active; 'I' for Inactive)
    1  A    between atoms: C_4  and  C_22
    2  A    between atoms: N_9  and  C_29
    3  A    between atoms: C_16  and  C_35
                            x       y       z     vdW  Elec       q    Type
                         _______ _______ _______ _____ _____    ______ ____

>  <TORSDO>
F 3

$$$$
=
 OpenBabel11052409273D

 35 42  0  0  1  0  0  0  0  0999 V2000
  160.4330  207.9010  152.9870 C   0  0  0  0  0  0  0  0  0  0  0  0
  159.9750  207.4120  154.3050 C   0  0  0  0  0  2  0  0  0  0  0  0
  161.3400  206.9440  152.3130 C   0  0  0  0  0  2  0  0  0  0  0  0
  160.5450  209.1790  152.7650 C   0  0  0  0  0  0  0  0  0  0  0  0
  161.4020  205.7330  153.2370 C   0  0  1  0  0  3  0  0  0  0  0  0
  160.8480  206.2020  154.5810 C   0  0  0  0  0  2  0  0  0  0  0  0
  160.6600  210.4670  152.5640 C   0  0  0  0  0  3  0  0  0  0  0  0
  159.4570  212.3540  153.7460 C   0  0  2  0  0  3  0  0  0  0  0  0
  159.6440  213.4590  154.7790 C   0  0  2  0  0  3  0  0  0  0  0  0
  160.6010  211.5240  156.2940 C   0  0  2  0  0  3  0  0  0  0  0  0
  160.3060  213.0190  156.0890 C   0  0  2  0  0  0  0  0  0  0  0  0
  162.0620  211.3460  156.6640 C   0  0  0  0  0  2  0  0  0  0  0  0
  160.6950  211.4470  153.7080 C   0  0  1  0  0  3  0  0  0  0  0  0
  160.8290  210.6870  155.0310 C   0  0  1  0  0  3  0  0  0  0  0  0
  158.7990  213.1720  156.0050 C   0  0  1  0  0  3  0  0  0  0  0  0
  159.2180  213.0200  152.4010 C   0  0  0  0  0  1  0  0  0  0  0  0
  162.2900  210.5210  155.4080 C   0  0  0  0  0  2  0  0  0  0  0  0
  159.5380  213.5940  157.2600 C   0  0  0  0  0  2  0  0  0  0  0  0
  160.5570  204.5750  152.6870 C   0  0  1  0  0  3  0  0  0  0  0  0
  162.3640  202.9760  151.4280 S   0  0  0  0  0  0  0  0  0  0  0  0
  160.2960  204.7180  151.2020 C   0  0  0  0  0  2  0  0  0  0  0  0
  161.2790  203.2520  152.8610 C   0  0  0  0  0  2  0  0  0  0  0  0
  161.5460  204.2790  150.4620 C   0  0  2  0  0  3  0  0  0  0  0  0
  161.8710  206.5790  146.8730 C   0  0  0  0  0  2  0  0  0  0  0  0
  160.9020  203.6720  144.4720 C   0  0  0  0  0  2  0  0  0  0  0  0
  160.6430  203.9280  146.7940 C   0  0  1  0  0  3  0  0  0  0  0  0
  161.6230  201.7570  147.0460 O   0  0  0  0  0  1  0  0  0  0  0  0
  161.2010  203.7660  149.1560 N   0  0  0  0  0  0  0  0  0  0  0  0
  161.2080  206.0150  148.1470 C   0  0  0  0  0  2  0  0  0  0  0  0
  161.3190  205.9520  145.5760 C   0  0  0  0  0  2  0  0  0  0  0  0
  160.4440  202.3230  145.0520 C   0  0  0  0  0  2  0  0  0  0  0  0
  160.4960  202.4360  146.5770 C   0  0  2  0  0  3  0  0  0  0  0  0
  161.0930  204.5050  148.1040 C   0  0  0  0  0  0  0  0  0  0  0  0
  162.8230  204.0980  145.8030 O   0  0  0  0  0  1  0  0  0  0  0  0
  161.4730  204.4360  145.6460 C   0  0  2  0  0  0  0  0  0  0  0  0
  1  2  1  0  0  0  0
  2  6  1  0  0  0  0
  3  1  1  0  0  0  0
  4  1  2  0  0  0  0
  5  3  1  6  0  0  0
  5  6  1  0  0  0  0
  7  4  2  0  0  0  0
  7 13  1  0  0  0  0
  8 16  1  6  0  0  0
  8  9  1  0  0  0  0
  9 15  1  0  0  0  0
  9 11  1  0  0  0  0
 10 12  1  0  0  0  0
 11 10  1  0  0  0  0
 11 18  1  0  0  0  0
 13  8  1  0  0  0  0
 13 14  1  0  0  0  0
 14 17  1  0  0  0  0
 14 10  1  0  0  0  0
 15 11  1  0  0  0  0
 15 18  1  0  0  0  0
 17 12  1  0  0  0  0
 19 22  1  0  0  0  0
 19  5  1  0  0  0  0
 20 22  1  0  0  0  0
 21 19  1  0  0  0  0
 23 21  1  0  0  0  0
 23 20  1  0  0  0  0
 24 29  1  0  0  0  0
 25 31  1  0  0  0  0
 25 35  1  0  0  0  0
 26 33  1  0  0  0  0
 28 23  1  0  0  0  0
 30 35  1  0  0  0  0
 30 24  1  0  0  0  0
 31 32  1  0  0  0  0
 32 26  1  0  0  0  0
 32 27  1  0  0  0  0
 33 29  1  0  0  0  0
 33 28  2  0  0  0  0
 35 34  1  0  0  0  0
 35 26  1  0  0  0  0
M  END
>  <MODEL>
7

>  <REMARK>
 VINA RESULT:      -5.8      2.136      3.828
  Name = 
  3 active torsions:
  status: ('A' for Active; 'I' for Inactive)
    1  A    between atoms: C_4  and  C_22
    2  A    between atoms: N_9  and  C_29
    3  A    between atoms: C_16  and  C_35
                            x       y       z     vdW  Elec       q    Type
                         _______ _______ _______ _____ _____    ______ ____

>  <TORSDO>
F 3

$$$$
=
 OpenBabel11052409273D

 35 42  0  0  1  0  0  0  0  0999 V2000
  158.9520  214.0790  145.7780 C   0  0  0  0  0  0  0  0  0  0  0  0
  160.2980  213.8040  146.3260 C   0  0  0  0  0  2  0  0  0  0  0  0
  157.8710  213.6840  146.7100 C   0  0  0  0  0  2  0  0  0  0  0  0
  158.7510  214.0550  144.4920 C   0  0  0  0  0  0  0  0  0  0  0  0
  158.5840  213.1940  147.9650 C   0  0  1  0  0  3  0  0  0  0  0  0
  160.0370  212.9560  147.5570 C   0  0  0  0  0  2  0  0  0  0  0  0
  158.5670  214.0160  143.1980 C   0  0  0  0  0  3  0  0  0  0  0  0
  159.2550  213.6250  140.7940 C   0  0  2  0  0  3  0  0  0  0  0  0
  160.1540  212.7700  139.9080 C   0  0  2  0  0  3  0  0  0  0  0  0
  162.0540  213.4880  141.5890 C   0  0  2  0  0  3  0  0  0  0  0  0
  161.6080  212.6550  140.3760 C   0  0  2  0  0  0  0  0  0  0  0  0
  162.7060  212.5770  142.6130 C   0  0  0  0  0  2  0  0  0  0  0  0
  159.5620  213.3620  142.2740 C   0  0  1  0  0  3  0  0  0  0  0  0
  160.9730  213.8490  142.6130 C   0  0  1  0  0  3  0  0  0  0  0  0
  161.2310  213.6290  139.2770 C   0  0  1  0  0  3  0  0  0  0  0  0
  157.8140  213.2770  140.4570 C   0  0  0  0  0  1  0  0  0  0  0  0
  161.6290  212.9310  143.6270 C   0  0  0  0  0  2  0  0  0  0  0  0
  162.5350  212.8600  139.1970 C   0  0  0  0  0  2  0  0  0  0  0  0
  158.5110  214.2400  149.0870 C   0  0  1  0  0  3  0  0  0  0  0  0
  160.1130  213.2300  151.0410 S   0  0  0  0  0  0  0  0  0  0  0  0
  157.5950  213.8030  150.2110 C   0  0  0  0  0  2  0  0  0  0  0  0
  159.8760  214.4520  149.7160 C   0  0  0  0  0  2  0  0  0  0  0  0
  158.3480  212.8030  151.0680 C   0  0  2  0  0  3  0  0  0  0  0  0
  160.0280  210.4680  154.2300 C   0  0  0  0  0  2  0  0  0  0  0  0
  157.8320  212.0130  157.0490 C   0  0  0  0  0  2  0  0  0  0  0  0
  157.6090  212.0360  154.7090 C   0  0  1  0  0  3  0  0  0  0  0  0
  157.3030  214.4080  154.8580 O   0  0  0  0  0  1  0  0  0  0  0  0
  157.8630  212.8430  152.4280 N   0  0  0  0  0  0  0  0  0  0  0  0
  159.0950  210.8000  153.0460 C   0  0  0  0  0  2  0  0  0  0  0  0
  159.3070  210.4970  155.5940 C   0  0  0  0  0  2  0  0  0  0  0  0
  156.7080  212.9990  156.6870 C   0  0  0  0  0  2  0  0  0  0  0  0
  156.7220  213.1760  155.1680 C   0  0  2  0  0  3  0  0  0  0  0  0
  158.2160  211.9980  153.3380 C   0  0  0  0  0  0  0  0  0  0  0  0
  159.6140  212.8720  155.7330 O   0  0  0  0  0  1  0  0  0  0  0  0
  158.6470  211.8590  155.7840 C   0  0  2  0  0  0  0  0  0  0  0  0
  1  2  1  0  0  0  0
  1  3  1  0  0  0  0
  2  6  1  0  0  0  0
  4  1  2  0  0  0  0
  5  3  1  6  0  0  0
  5 19  1  0  0  0  0
  6  5  1  0  0  0  0
  7  4  2  0  0  0  0
  8 16  1  1  0  0  0
  8 13  1  0  0  0  0
  9 11  1  0  0  0  0
  9  8  1  0  0  0  0
 10 12  1  0  0  0  0
 10 14  1  0  0  0  0
 11 10  1  0  0  0  0
 12 17  1  0  0  0  0
 13 14  1  0  0  0  0
 13  7  1  0  0  0  0
 14 17  1  0  0  0  0
 15  9  1  0  0  0  0
 15 11  1  0  0  0  0
 18 15  1  0  0  0  0
 18 11  1  0  0  0  0
 19 22  1  0  0  0  0
 19 21  1  0  0  0  0
 20 23  1  0  0  0  0
 21 23  1  0  0  0  0
 22 20  1  0  0  0  0
 23 28  1  0  0  0  0
 24 30  1  0  0  0  0
 26 32  1  0  0  0  0
 26 35  1  0  0  0  0
 27 32  1  0  0  0  0
 28 33  2  0  0  0  0
 29 33  1  0  0  0  0
 29 24  1  0  0  0  0
 30 35  1  0  0  0  0
 31 25  1  0  0  0  0
 32 31  1  0  0  0  0
 33 26  1  0  0  0  0
 34 35  1  0  0  0  0
 35 25  1  0  0  0  0
M  END
>  <MODEL>
8

>  <REMARK>
 VINA RESULT:      -5.6      7.398     12.424
  Name = 
  3 active torsions:
  status: ('A' for Active; 'I' for Inactive)
    1  A    between atoms: C_4  and  C_22
    2  A    between atoms: N_9  and  C_29
    3  A    between atoms: C_16  and  C_35
                            x       y       z     vdW  Elec       q    Type
                         _______ _______ _______ _____ _____    ______ ____

>  <TORSDO>
F 3

$$$$
