=
 OpenBabel11052410543D

 30 32  0  0  1  0  0  0  0  0999 V2000
  161.0260  205.7350  150.1970 C   0  0  0  0  0  0  0  0  0  0  0  0
  161.8220  206.7640  150.8170 N   0  0  0  0  0  0  0  0  0  0  0  0
  160.2610  205.0330  150.9120 O   0  0  0  0  0  0  0  0  0  0  0  0
  160.4990  206.3160  147.8260 C   0  0  0  0  0  3  0  0  0  0  0  0
  161.1170  205.4570  148.7470 C   0  0  0  0  0  0  0  0  0  0  0  0
  161.2390  204.9190  145.9870 C   0  0  0  0  0  0  0  0  0  0  0  0
  161.7850  204.3180  148.2750 C   0  0  0  0  0  3  0  0  0  0  0  0
  161.8500  204.0520  146.9050 C   0  0  0  0  0  3  0  0  0  0  0  0
  160.5630  206.0500  146.4560 C   0  0  0  0  0  3  0  0  0  0  0  0
  161.3120  205.7320  143.6520 C   0  0  0  0  0  1  0  0  0  0  0  0
  161.2840  204.6820  144.6100 O   0  0  0  0  0  0  0  0  0  0  0  0
  161.9240  208.0900  150.2590 C   0  0  0  0  0  0  0  0  0  0  0  0
  162.2740  209.5600  148.3540 C   0  0  0  0  0  3  0  0  0  0  0  0
  162.1870  208.2740  148.8930 C   0  0  0  0  0  3  0  0  0  0  0  0
  161.8240  210.5050  150.5320 C   0  0  0  0  0  3  0  0  0  0  0  0
  162.0940  210.6850  149.1710 C   0  0  0  0  0  0  0  0  0  0  0  0
  161.7380  209.2200  151.0720 C   0  0  0  0  0  3  0  0  0  0  0  0
  161.2950  212.6310  147.7050 C   0  0  0  0  0  0  0  0  0  0  0  0
  160.3020  212.0080  147.2450 O   0  0  0  0  0  0  0  0  0  0  0  0
  162.1780  212.0200  148.6560 N   0  0  0  0  0  2  0  0  0  0  0  0
  162.9040  214.3440  147.4100 O   0  0  0  0  0  0  0  0  0  0  0  0
  162.4390  214.0830  146.1100 C   0  0  0  0  0  2  0  0  0  0  0  0
  161.5350  214.0420  147.2810 C   0  0  1  0  0  3  0  0  0  0  0  0
  162.4450  206.4730  152.1070 C   0  0  0  0  0  2  0  0  0  0  0  0
  161.2800  205.4260  153.8930 O   0  0  0  0  0  0  0  0  0  0  0  0
  161.4210  206.4640  153.1920 C   0  0  0  0  0  0  0  0  0  0  0  0
  160.6020  207.6260  153.3920 N   0  0  0  0  0  0  0  0  0  0  0  0
  160.5570  208.3930  154.4440 C   0  0  0  0  0  3  0  0  0  0  0  0
  161.9990  208.0160  156.5730 N   0  0  0  0  0  0  0  0  0  0  0  0
  161.3570  208.1860  155.6260 C   0  0  0  0  0  0  0  0  0  0  0  0
  1  2  1  0  0  0  0
  1  3  2  0  0  0  0
  2 24  1  0  0  0  0
  4  5  1  0  0  0  0
  5  1  1  0  0  0  0
  6  9  1  0  0  0  0
  6  8  2  0  0  0  0
  7  5  2  0  0  0  0
  8  7  1  0  0  0  0
  9  4  2  0  0  0  0
 10 11  1  0  0  0  0
 11  6  1  0  0  0  0
 12  2  1  0  0  0  0
 12 17  1  0  0  0  0
 13 14  1  0  0  0  0
 13 16  2  0  0  0  0
 14 12  2  0  0  0  0
 15 17  2  0  0  0  0
 16 15  1  0  0  0  0
 18 20  1  0  0  0  0
 19 18  2  0  0  0  0
 20 16  1  0  0  0  0
 22 23  1  0  0  0  0
 22 21  1  0  0  0  0
 23 21  1  0  0  0  0
 23 18  1  1  0  0  0
 24 26  1  0  0  0  0
 26 27  1  0  0  0  0
 26 25  2  0  0  0  0
 27 28  2  0  0  0  0
 28 30  1  0  0  0  0
 30 29  3  0  0  0  0
M  END
>  <MODEL>
1

>  <REMARK>
 VINA RESULT:      -7.1      0.000      0.000
  Name = 
  9 active torsions:
  status: ('A' for Active; 'I' for Inactive)
    1  A    between atoms: C_2  and  C_29
    2  A    between atoms: C_3  and  C_16
    3  A    between atoms: N_7  and  C_30
    4  A    between atoms: C_8  and  N_17
    5  A    between atoms: C_10  and  O_27
    6  A    between atoms: C_11  and  C_24
    7  A    between atoms: N_17  and  C_22
    8  A    between atoms: N_19  and  C_23
    9  A    between atoms: C_22  and  C_30
                            x       y       z     vdW  Elec       q    Type
                         _______ _______ _______ _____ _____    ______ ____

>  <TORSDO>
F 9

$$$$
=
 OpenBabel11052410543D

 30 32  0  0  1  0  0  0  0  0999 V2000
  161.5450  209.8450  153.2250 C   0  0  0  0  0  0  0  0  0  0  0  0
  161.5900  208.4700  152.8000 N   0  0  0  0  0  0  0  0  0  0  0  0
  162.3900  210.2600  154.0630 O   0  0  0  0  0  0  0  0  0  0  0  0
  160.8310  211.7610  151.7910 C   0  0  0  0  0  3  0  0  0  0  0  0
  160.5040  210.7730  152.7310 C   0  0  0  0  0  0  0  0  0  0  0  0
  158.5470  212.5770  151.8130 C   0  0  0  0  0  0  0  0  0  0  0  0
  159.1910  210.7040  153.2190 C   0  0  0  0  0  3  0  0  0  0  0  0
  158.2170  211.5970  152.7610 C   0  0  0  0  0  3  0  0  0  0  0  0
  159.8590  212.6540  151.3330 C   0  0  0  0  0  3  0  0  0  0  0  0
  156.7470  214.2280  152.1960 C   0  0  0  0  0  1  0  0  0  0  0  0
  157.5980  213.4850  151.3350 O   0  0  0  0  0  0  0  0  0  0  0  0
  161.4840  208.0960  151.4110 C   0  0  0  0  0  0  0  0  0  0  0  0
  161.9560  208.5250  149.0650 C   0  0  0  0  0  3  0  0  0  0  0  0
  162.0510  208.8970  150.4080 C   0  0  0  0  0  3  0  0  0  0  0  0
  160.7370  206.5370  149.6990 C   0  0  0  0  0  3  0  0  0  0  0  0
  161.2970  207.3420  148.7010 C   0  0  0  0  0  0  0  0  0  0  0  0
  160.8310  206.9080  151.0430 C   0  0  0  0  0  3  0  0  0  0  0  0
  161.9670  205.9350  146.6640 C   0  0  0  0  0  0  0  0  0  0  0  0
  162.8620  205.2940  147.2760 O   0  0  0  0  0  0  0  0  0  0  0  0
  161.1770  206.9280  147.3340 N   0  0  0  0  0  2  0  0  0  0  0  0
  162.2230  204.3610  144.9140 O   0  0  0  0  0  0  0  0  0  0  0  0
  160.8330  204.4350  145.1080 C   0  0  0  0  0  2  0  0  0  0  0  0
  161.6990  205.6290  145.2290 C   0  0  1  0  0  3  0  0  0  0  0  0
  161.8640  207.4440  153.8060 C   0  0  0  0  0  2  0  0  0  0  0  0
  159.7080  207.5810  154.7950 O   0  0  0  0  0  0  0  0  0  0  0  0
  160.9550  207.6060  154.9770 C   0  0  0  0  0  0  0  0  0  0  0  0
  161.5220  207.8150  156.2810 N   0  0  0  0  0  0  0  0  0  0  0  0
  161.2650  208.7850  157.1110 C   0  0  0  0  0  3  0  0  0  0  0  0
  159.5790  210.7030  156.6250 N   0  0  0  0  0  0  0  0  0  0  0  0
  160.3300  209.8500  156.8400 C   0  0  0  0  0  0  0  0  0  0  0  0
  1  3  2  0  0  0  0
  2  1  1  0  0  0  0
  2 24  1  0  0  0  0
  4  5  1  0  0  0  0
  5  7  2  0  0  0  0
  5  1  1  0  0  0  0
  6  8  2  0  0  0  0
  8  7  1  0  0  0  0
  9  4  2  0  0  0  0
  9  6  1  0  0  0  0
 11  6  1  0  0  0  0
 11 10  1  0  0  0  0
 12  2  1  0  0  0  0
 13 14  1  0  0  0  0
 14 12  2  0  0  0  0
 15 17  2  0  0  0  0
 16 13  2  0  0  0  0
 16 15  1  0  0  0  0
 17 12  1  0  0  0  0
 18 19  2  0  0  0  0
 18 20  1  0  0  0  0
 20 16  1  0  0  0  0
 21 22  1  0  0  0  0
 21 23  1  0  0  0  0
 22 23  1  0  0  0  0
 23 18  1  1  0  0  0
 24 26  1  0  0  0  0
 25 26  2  0  0  0  0
 26 27  1  0  0  0  0
 27 28  2  0  0  0  0
 29 30  3  0  0  0  0
 30 28  1  0  0  0  0
M  END
>  <MODEL>
2

>  <REMARK>
 VINA RESULT:      -6.7      2.876      6.608
  Name = 
  9 active torsions:
  status: ('A' for Active; 'I' for Inactive)
    1  A    between atoms: C_2  and  C_29
    2  A    between atoms: C_3  and  C_16
    3  A    between atoms: N_7  and  C_30
    4  A    between atoms: C_8  and  N_17
    5  A    between atoms: C_10  and  O_27
    6  A    between atoms: C_11  and  C_24
    7  A    between atoms: N_17  and  C_22
    8  A    between atoms: N_19  and  C_23
    9  A    between atoms: C_22  and  C_30
                            x       y       z     vdW  Elec       q    Type
                         _______ _______ _______ _____ _____    ______ ____

>  <TORSDO>
F 9

$$$$
=
 OpenBabel11052410543D

 30 32  0  0  1  0  0  0  0  0999 V2000
  161.8450  209.7940  151.9370 C   0  0  0  0  0  0  0  0  0  0  0  0
  161.4080  208.4440  151.6920 N   0  0  0  0  0  0  0  0  0  0  0  0
  162.6040  210.0290  152.9160 O   0  0  0  0  0  0  0  0  0  0  0  0
  161.9780  211.1370  149.8350 C   0  0  0  0  0  3  0  0  0  0  0  0
  161.3910  210.9190  151.0900 C   0  0  0  0  0  0  0  0  0  0  0  0
  160.5730  213.0820  149.4840 C   0  0  0  0  0  0  0  0  0  0  0  0
  160.3990  211.8020  151.5410 C   0  0  0  0  0  3  0  0  0  0  0  0
  159.9890  212.8740  150.7430 C   0  0  0  0  0  3  0  0  0  0  0  0
  161.5690  212.2080  149.0370 C   0  0  0  0  0  3  0  0  0  0  0  0
  159.6480  213.9490  147.3610 C   0  0  0  0  0  1  0  0  0  0  0  0
  160.1860  214.1440  148.6620 O   0  0  0  0  0  0  0  0  0  0  0  0
  161.4330  207.8610  150.3720 C   0  0  0  0  0  0  0  0  0  0  0  0
  162.5490  207.4990  148.2430 C   0  0  0  0  0  3  0  0  0  0  0  0
  162.5240  208.0740  149.5150 C   0  0  0  0  0  3  0  0  0  0  0  0
  160.4020  206.4720  148.6620 C   0  0  0  0  0  3  0  0  0  0  0  0
  161.4860  206.6940  147.8070 C   0  0  0  0  0  0  0  0  0  0  0  0
  160.3750  207.0480  149.9340 C   0  0  0  0  0  3  0  0  0  0  0  0
  161.8460  204.7400  146.1850 C   0  0  0  0  0  0  0  0  0  0  0  0
  162.2050  203.9310  147.0820 O   0  0  0  0  0  0  0  0  0  0  0  0
  161.4760  206.0880  146.5080 N   0  0  0  0  0  2  0  0  0  0  0  0
  160.4260  204.2740  144.3490 O   0  0  0  0  0  0  0  0  0  0  0  0
  161.2200  205.3440  143.9050 C   0  0  0  0  0  2  0  0  0  0  0  0
  161.7690  204.2760  144.7690 C   0  0  1  0  0  3  0  0  0  0  0  0
  161.0380  207.6170  152.8400 C   0  0  0  0  0  2  0  0  0  0  0  0
  162.9110  206.2760  152.2630 O   0  0  0  0  0  0  0  0  0  0  0  0
  161.7770  206.3230  152.8110 C   0  0  0  0  0  0  0  0  0  0  0  0
  161.1690  205.1550  153.3840 N   0  0  0  0  0  0  0  0  0  0  0  0
  160.8610  204.0430  152.7780 C   0  0  0  0  0  3  0  0  0  0  0  0
  161.2790  203.6010  150.2510 N   0  0  0  0  0  0  0  0  0  0  0  0
  161.0930  203.8000  151.3760 C   0  0  0  0  0  0  0  0  0  0  0  0
  1  3  2  0  0  0  0
  2  1  1  0  0  0  0
  2 24  1  0  0  0  0
  4  5  1  0  0  0  0
  5  7  2  0  0  0  0
  5  1  1  0  0  0  0
  6  8  2  0  0  0  0
  8  7  1  0  0  0  0
  9  6  1  0  0  0  0
  9  4  2  0  0  0  0
 10 11  1  0  0  0  0
 11  6  1  0  0  0  0
 12  2  1  0  0  0  0
 13 14  1  0  0  0  0
 14 12  2  0  0  0  0
 15 17  2  0  0  0  0
 16 13  2  0  0  0  0
 16 15  1  0  0  0  0
 17 12  1  0  0  0  0
 18 20  1  0  0  0  0
 18 19  2  0  0  0  0
 20 16  1  0  0  0  0
 21 23  1  0  0  0  0
 22 21  1  0  0  0  0
 22 23  1  0  0  0  0
 23 18  1  1  0  0  0
 25 26  2  0  0  0  0
 26 24  1  0  0  0  0
 26 27  1  0  0  0  0
 28 27  2  0  0  0  0
 29 30  3  0  0  0  0
 30 28  1  0  0  0  0
M  END
>  <MODEL>
3

>  <REMARK>
 VINA RESULT:      -6.5      2.105      6.502
  Name = 
  9 active torsions:
  status: ('A' for Active; 'I' for Inactive)
    1  A    between atoms: C_2  and  C_29
    2  A    between atoms: C_3  and  C_16
    3  A    between atoms: N_7  and  C_30
    4  A    between atoms: C_8  and  N_17
    5  A    between atoms: C_10  and  O_27
    6  A    between atoms: C_11  and  C_24
    7  A    between atoms: N_17  and  C_22
    8  A    between atoms: N_19  and  C_23
    9  A    between atoms: C_22  and  C_30
                            x       y       z     vdW  Elec       q    Type
                         _______ _______ _______ _____ _____    ______ ____

>  <TORSDO>
F 9

$$$$
=
 OpenBabel11052410543D

 30 32  0  0  1  0  0  0  0  0999 V2000
  162.2900  210.0580  151.1260 C   0  0  0  0  0  0  0  0  0  0  0  0
  161.7510  208.7240  151.1920 N   0  0  0  0  0  0  0  0  0  0  0  0
  163.1440  210.4210  151.9800 O   0  0  0  0  0  0  0  0  0  0  0  0
  160.8950  212.0100  150.4370 C   0  0  0  0  0  3  0  0  0  0  0  0
  161.8360  211.0250  150.1040 C   0  0  0  0  0  0  0  0  0  0  0  0
  160.9240  212.8460  148.1600 C   0  0  0  0  0  0  0  0  0  0  0  0
  162.3070  210.9500  148.7850 C   0  0  0  0  0  3  0  0  0  0  0  0
  161.8580  211.8560  147.8200 C   0  0  0  0  0  3  0  0  0  0  0  0
  160.4460  212.9160  149.4730 C   0  0  0  0  0  3  0  0  0  0  0  0
  161.1970  214.1260  146.0620 C   0  0  0  0  0  1  0  0  0  0  0  0
  160.4550  213.7670  147.2200 O   0  0  0  0  0  0  0  0  0  0  0  0
  161.6260  207.8920  150.0200 C   0  0  0  0  0  0  0  0  0  0  0  0
  160.4030  206.2390  148.7230 C   0  0  0  0  0  3  0  0  0  0  0  0
  160.5250  207.0350  149.8640 C   0  0  0  0  0  3  0  0  0  0  0  0
  162.4690  207.1500  147.8630 C   0  0  0  0  0  3  0  0  0  0  0  0
  161.3750  206.2910  147.7140 C   0  0  0  0  0  0  0  0  0  0  0  0
  162.5930  207.9460  149.0040 C   0  0  0  0  0  3  0  0  0  0  0  0
  161.4690  204.0690  146.4370 C   0  0  0  0  0  0  0  0  0  0  0  0
  161.7120  203.3760  147.4610 O   0  0  0  0  0  0  0  0  0  0  0  0
  161.2850  205.4890  146.5300 N   0  0  0  0  0  2  0  0  0  0  0  0
  160.6400  202.1810  145.2720 O   0  0  0  0  0  0  0  0  0  0  0  0
  159.9060  203.2570  144.7470 C   0  0  0  0  0  2  0  0  0  0  0  0
  161.3330  203.3960  145.1120 C   0  0  1  0  0  3  0  0  0  0  0  0
  161.4300  208.1720  152.5080 C   0  0  0  0  0  2  0  0  0  0  0  0
  159.7240  209.7660  152.9450 O   0  0  0  0  0  0  0  0  0  0  0  0
  160.7730  209.2040  153.3610 C   0  0  0  0  0  0  0  0  0  0  0  0
  161.3660  209.5530  154.6210 N   0  0  0  0  0  0  0  0  0  0  0  0
  161.1410  209.0060  155.7820 C   0  0  0  0  0  3  0  0  0  0  0  0
  159.4780  207.0440  156.1620 N   0  0  0  0  0  0  0  0  0  0  0  0
  160.2200  207.9160  155.9930 C   0  0  0  0  0  0  0  0  0  0  0  0
  1  2  1  0  0  0  0
  1  3  2  0  0  0  0
  2 24  1  0  0  0  0
  5  4  1  0  0  0  0
  5  1  1  0  0  0  0
  6  9  1  0  0  0  0
  7  5  2  0  0  0  0
  8  6  2  0  0  0  0
  8  7  1  0  0  0  0
  9  4  2  0  0  0  0
 10 11  1  0  0  0  0
 11  6  1  0  0  0  0
 12  2  1  0  0  0  0
 13 14  2  0  0  0  0
 14 12  1  0  0  0  0
 15 17  1  0  0  0  0
 16 15  2  0  0  0  0
 16 13  1  0  0  0  0
 17 12  2  0  0  0  0
 18 20  1  0  0  0  0
 18 19  2  0  0  0  0
 20 16  1  0  0  0  0
 22 23  1  0  0  0  0
 22 21  1  0  0  0  0
 23 21  1  0  0  0  0
 23 18  1  1  0  0  0
 24 26  1  0  0  0  0
 25 26  2  0  0  0  0
 26 27  1  0  0  0  0
 27 28  2  0  0  0  0
 28 30  1  0  0  0  0
 30 29  3  0  0  0  0
M  END
>  <MODEL>
4

>  <REMARK>
 VINA RESULT:      -6.3      2.213      6.461
  Name = 
  9 active torsions:
  status: ('A' for Active; 'I' for Inactive)
    1  A    between atoms: C_2  and  C_29
    2  A    between atoms: C_3  and  C_16
    3  A    between atoms: N_7  and  C_30
    4  A    between atoms: C_8  and  N_17
    5  A    between atoms: C_10  and  O_27
    6  A    between atoms: C_11  and  C_24
    7  A    between atoms: N_17  and  C_22
    8  A    between atoms: N_19  and  C_23
    9  A    between atoms: C_22  and  C_30
                            x       y       z     vdW  Elec       q    Type
                         _______ _______ _______ _____ _____    ______ ____

>  <TORSDO>
F 9

$$$$
=
 OpenBabel11052410543D

 30 32  0  0  1  0  0  0  0  0999 V2000
  161.7700  210.0140  151.5570 C   0  0  0  0  0  0  0  0  0  0  0  0
  161.1440  208.7190  151.4870 N   0  0  0  0  0  0  0  0  0  0  0  0
  162.3910  210.3430  152.6040 O   0  0  0  0  0  0  0  0  0  0  0  0
  162.4960  210.8570  149.3210 C   0  0  0  0  0  3  0  0  0  0  0  0
  161.6660  210.9840  150.4450 C   0  0  0  0  0  0  0  0  0  0  0  0
  161.5170  212.8450  148.3380 C   0  0  0  0  0  0  0  0  0  0  0  0
  160.7700  212.0600  150.5110 C   0  0  0  0  0  3  0  0  0  0  0  0
  160.6920  212.9830  149.4650 C   0  0  0  0  0  3  0  0  0  0  0  0
  162.4190  211.7780  148.2750 C   0  0  0  0  0  3  0  0  0  0  0  0
  162.2350  213.5880  146.0920 C   0  0  0  0  0  1  0  0  0  0  0  0
  161.4640  213.7510  147.2750 O   0  0  0  0  0  0  0  0  0  0  0  0
  161.2760  207.8680  150.3290 C   0  0  0  0  0  0  0  0  0  0  0  0
  162.4870  207.1900  148.3330 C   0  0  0  0  0  3  0  0  0  0  0  0
  162.3560  208.0230  149.4470 C   0  0  0  0  0  3  0  0  0  0  0  0
  160.4700  206.0210  148.9670 C   0  0  0  0  0  3  0  0  0  0  0  0
  161.5430  206.1830  148.0850 C   0  0  0  0  0  0  0  0  0  0  0  0
  160.3380  206.8540  150.0810 C   0  0  0  0  0  3  0  0  0  0  0  0
  160.9890  205.4690  145.6850 C   0  0  0  0  0  0  0  0  0  0  0  0
  160.2540  206.4660  145.4520 O   0  0  0  0  0  0  0  0  0  0  0  0
  161.6420  205.3110  146.9530 N   0  0  0  0  0  2  0  0  0  0  0  0
  161.4870  203.2070  145.1970 O   0  0  0  0  0  0  0  0  0  0  0  0
  160.1900  203.3880  144.6890 C   0  0  0  0  0  2  0  0  0  0  0  0
  161.2110  204.4570  144.6120 C   0  0  1  0  0  3  0  0  0  0  0  0
  160.4520  208.2200  152.6740 C   0  0  0  0  0  2  0  0  0  0  0  0
  162.3570  206.8150  152.8670 O   0  0  0  0  0  0  0  0  0  0  0  0
  161.3220  207.2690  153.4240 C   0  0  0  0  0  0  0  0  0  0  0  0
  160.9450  206.8710  154.7520 N   0  0  0  0  0  0  0  0  0  0  0  0
  161.0780  207.5550  155.8520 C   0  0  0  0  0  3  0  0  0  0  0  0
  162.1130  209.9370  155.9610 N   0  0  0  0  0  0  0  0  0  0  0  0
  161.6530  208.8760  155.9140 C   0  0  0  0  0  0  0  0  0  0  0  0
  1  3  2  0  0  0  0
  2  1  1  0  0  0  0
  2 24  1  0  0  0  0
  4  5  1  0  0  0  0
  5  7  2  0  0  0  0
  5  1  1  0  0  0  0
  6  8  2  0  0  0  0
  8  7  1  0  0  0  0
  9  6  1  0  0  0  0
  9  4  2  0  0  0  0
 10 11  1  0  0  0  0
 11  6  1  0  0  0  0
 12  2  1  0  0  0  0
 13 14  1  0  0  0  0
 14 12  2  0  0  0  0
 15 17  2  0  0  0  0
 16 13  2  0  0  0  0
 16 15  1  0  0  0  0
 17 12  1  0  0  0  0
 18 20  1  0  0  0  0
 19 18  2  0  0  0  0
 20 16  1  0  0  0  0
 22 21  1  0  0  0  0
 23 22  1  0  0  0  0
 23 21  1  0  0  0  0
 23 18  1  1  0  0  0
 24 26  1  0  0  0  0
 25 26  2  0  0  0  0
 26 27  1  0  0  0  0
 27 28  2  0  0  0  0
 28 30  1  0  0  0  0
 30 29  3  0  0  0  0
M  END
>  <MODEL>
5

>  <REMARK>
 VINA RESULT:      -6.2      1.824      6.093
  Name = 
  9 active torsions:
  status: ('A' for Active; 'I' for Inactive)
    1  A    between atoms: C_2  and  C_29
    2  A    between atoms: C_3  and  C_16
    3  A    between atoms: N_7  and  C_30
    4  A    between atoms: C_8  and  N_17
    5  A    between atoms: C_10  and  O_27
    6  A    between atoms: C_11  and  C_24
    7  A    between atoms: N_17  and  C_22
    8  A    between atoms: N_19  and  C_23
    9  A    between atoms: C_22  and  C_30
                            x       y       z     vdW  Elec       q    Type
                         _______ _______ _______ _____ _____    ______ ____

>  <TORSDO>
F 9

$$$$
=
 OpenBabel11052410543D

 30 32  0  0  1  0  0  0  0  0999 V2000
  162.0520  212.5110  148.3790 C   0  0  0  0  0  0  0  0  0  0  0  0
  160.8490  213.2660  148.1390 N   0  0  0  0  0  0  0  0  0  0  0  0
  163.1580  212.9710  147.9870 O   0  0  0  0  0  0  0  0  0  0  0  0
  161.9560  210.0180  148.2680 C   0  0  0  0  0  3  0  0  0  0  0  0
  162.0140  211.1870  149.0390 C   0  0  0  0  0  0  0  0  0  0  0  0
  161.8930  208.6620  150.2770 C   0  0  0  0  0  0  0  0  0  0  0  0
  161.9960  211.0830  150.4380 C   0  0  0  0  0  3  0  0  0  0  0  0
  161.9400  209.8300  151.0540 C   0  0  0  0  0  3  0  0  0  0  0  0
  161.9010  208.7650  148.8820 C   0  0  0  0  0  3  0  0  0  0  0  0
  161.2650  207.1650  152.1420 C   0  0  0  0  0  1  0  0  0  0  0  0
  161.8370  207.3930  150.8620 O   0  0  0  0  0  0  0  0  0  0  0  0
  159.8560  213.4670  149.1650 C   0  0  0  0  0  0  0  0  0  0  0  0
  159.2390  214.2320  151.3890 C   0  0  0  0  0  3  0  0  0  0  0  0
  160.2070  214.0290  150.4020 C   0  0  0  0  0  3  0  0  0  0  0  0
  157.5470  213.3290  149.9190 C   0  0  0  0  0  3  0  0  0  0  0  0
  157.9020  213.8820  151.1540 C   0  0  0  0  0  0  0  0  0  0  0  0
  158.5140  213.1250  148.9320 C   0  0  0  0  0  3  0  0  0  0  0  0
  156.7160  213.3350  153.3610 C   0  0  0  0  0  0  0  0  0  0  0  0
  157.5240  212.4240  153.6850 O   0  0  0  0  0  0  0  0  0  0  0  0
  156.8820  214.0730  152.1420 N   0  0  0  0  0  2  0  0  0  0  0  0
  155.7440  212.9740  155.4900 O   0  0  0  0  0  0  0  0  0  0  0  0
  156.1020  214.3330  155.5030 C   0  0  0  0  0  2  0  0  0  0  0  0
  155.5900  213.6750  154.2790 C   0  0  1  0  0  3  0  0  0  0  0  0
  160.7000  213.9370  146.8480 C   0  0  0  0  0  2  0  0  0  0  0  0
  159.7090  212.0760  145.7530 O   0  0  0  0  0  0  0  0  0  0  0  0
  160.6310  212.9350  145.7450 C   0  0  0  0  0  0  0  0  0  0  0  0
  161.6330  212.9560  144.7160 N   0  0  0  0  0  0  0  0  0  0  0  0
  161.4980  213.3610  143.4850 C   0  0  0  0  0  3  0  0  0  0  0  0
  159.2770  214.2830  142.4990 N   0  0  0  0  0  0  0  0  0  0  0  0
  160.2660  213.8740  142.9380 C   0  0  0  0  0  0  0  0  0  0  0  0
  1  5  1  0  0  0  0
  2  1  1  0  0  0  0
  2 12  1  0  0  0  0
  3  1  2  0  0  0  0
  4  9  2  0  0  0  0
  4  5  1  0  0  0  0
  5  7  2  0  0  0  0
  6 11  1  0  0  0  0
  6  8  2  0  0  0  0
  7  8  1  0  0  0  0
  9  6  1  0  0  0  0
 11 10  1  0  0  0  0
 12 14  1  0  0  0  0
 14 13  2  0  0  0  0
 15 16  2  0  0  0  0
 16 13  1  0  0  0  0
 16 20  1  0  0  0  0
 17 12  2  0  0  0  0
 17 15  1  0  0  0  0
 18 19  2  0  0  0  0
 20 18  1  0  0  0  0
 21 22  1  0  0  0  0
 23 18  1  6  0  0  0
 23 21  1  0  0  0  0
 23 22  1  0  0  0  0
 24  2  1  0  0  0  0
 26 25  2  0  0  0  0
 26 24  1  0  0  0  0
 27 26  1  0  0  0  0
 28 27  2  0  0  0  0
 29 30  3  0  0  0  0
 30 28  1  0  0  0  0
M  END
>  <MODEL>
6

>  <REMARK>
 VINA RESULT:      -6.0      4.243      8.502
  Name = 
  9 active torsions:
  status: ('A' for Active; 'I' for Inactive)
    1  A    between atoms: C_2  and  C_29
    2  A    between atoms: C_3  and  C_16
    3  A    between atoms: N_7  and  C_30
    4  A    between atoms: C_8  and  N_17
    5  A    between atoms: C_10  and  O_27
    6  A    between atoms: C_11  and  C_24
    7  A    between atoms: N_17  and  C_22
    8  A    between atoms: N_19  and  C_23
    9  A    between atoms: C_22  and  C_30
                            x       y       z     vdW  Elec       q    Type
                         _______ _______ _______ _____ _____    ______ ____

>  <TORSDO>
F 9

$$$$
=
 OpenBabel11052410543D

 30 32  0  0  1  0  0  0  0  0999 V2000
  161.2970  210.2980  151.6390 C   0  0  0  0  0  0  0  0  0  0  0  0
  161.9280  209.6070  150.5450 N   0  0  0  0  0  0  0  0  0  0  0  0
  160.7710  211.4260  151.4350 O   0  0  0  0  0  0  0  0  0  0  0  0
  160.7600  208.4540  153.2360 C   0  0  0  0  0  3  0  0  0  0  0  0
  161.2870  209.7340  153.0070 C   0  0  0  0  0  0  0  0  0  0  0  0
  161.2160  208.6620  155.6090 C   0  0  0  0  0  0  0  0  0  0  0  0
  161.7650  210.4790  154.0940 C   0  0  0  0  0  3  0  0  0  0  0  0
  161.7340  209.9470  155.3860 C   0  0  0  0  0  3  0  0  0  0  0  0
  160.7290  207.9210  154.5260 C   0  0  0  0  0  3  0  0  0  0  0  0
  160.2110  207.1210  157.2600 C   0  0  0  0  0  1  0  0  0  0  0  0
  161.1710  208.1000  156.8880 O   0  0  0  0  0  0  0  0  0  0  0  0
  161.7000  208.2050  150.2930 C   0  0  0  0  0  0  0  0  0  0  0  0
  160.6840  206.4330  148.9760 C   0  0  0  0  0  3  0  0  0  0  0  0
  160.8940  207.7910  149.2220 C   0  0  0  0  0  3  0  0  0  0  0  0
  162.0930  205.8720  150.8560 C   0  0  0  0  0  3  0  0  0  0  0  0
  161.2820  205.4630  149.7930 C   0  0  0  0  0  0  0  0  0  0  0  0
  162.3030  207.2300  151.1050 C   0  0  0  0  0  3  0  0  0  0  0  0
  161.2370  203.3560  148.3310 C   0  0  0  0  0  0  0  0  0  0  0  0
  161.5960  203.9550  147.2820 O   0  0  0  0  0  0  0  0  0  0  0  0
  161.0900  204.0600  149.5730 N   0  0  0  0  0  2  0  0  0  0  0  0
  161.2220  201.3350  149.5650 O   0  0  0  0  0  0  0  0  0  0  0  0
  159.8810  201.5150  149.1880 C   0  0  0  0  0  2  0  0  0  0  0  0
  160.9970  201.8840  148.2880 C   0  0  1  0  0  3  0  0  0  0  0  0
  162.7320  210.3880  149.6050 C   0  0  0  0  0  2  0  0  0  0  0  0
  161.2050  210.6980  147.8120 O   0  0  0  0  0  0  0  0  0  0  0  0
  161.8550  211.2360  148.7480 C   0  0  0  0  0  0  0  0  0  0  0  0
  161.7940  212.6510  148.9910 N   0  0  0  0  0  0  0  0  0  0  0  0
  162.0000  213.6120  148.1370 C   0  0  0  0  0  3  0  0  0  0  0  0
  162.6110  213.2240  145.6400 N   0  0  0  0  0  0  0  0  0  0  0  0
  162.3400  213.3980  146.7520 C   0  0  0  0  0  0  0  0  0  0  0  0
  1  5  1  0  0  0  0
  2  1  1  0  0  0  0
  3  1  2  0  0  0  0
  4  9  1  0  0  0  0
  5  4  2  0  0  0  0
  5  7  1  0  0  0  0
  6 11  1  0  0  0  0
  7  8  2  0  0  0  0
  8  6  1  0  0  0  0
  9  6  2  0  0  0  0
 11 10  1  0  0  0  0
 12  2  1  0  0  0  0
 12 17  1  0  0  0  0
 13 14  1  0  0  0  0
 13 16  2  0  0  0  0
 14 12  2  0  0  0  0
 15 17  2  0  0  0  0
 16 15  1  0  0  0  0
 18 20  1  0  0  0  0
 19 18  2  0  0  0  0
 20 16  1  0  0  0  0
 22 21  1  0  0  0  0
 23 18  1  1  0  0  0
 23 22  1  0  0  0  0
 23 21  1  0  0  0  0
 24  2  1  0  0  0  0
 25 26  2  0  0  0  0
 26 27  1  0  0  0  0
 26 24  1  0  0  0  0
 28 27  2  0  0  0  0
 29 30  3  0  0  0  0
 30 28  1  0  0  0  0
M  END
>  <MODEL>
7

>  <REMARK>
 VINA RESULT:      -6.0      2.504      8.432
  Name = 
  9 active torsions:
  status: ('A' for Active; 'I' for Inactive)
    1  A    between atoms: C_2  and  C_29
    2  A    between atoms: C_3  and  C_16
    3  A    between atoms: N_7  and  C_30
    4  A    between atoms: C_8  and  N_17
    5  A    between atoms: C_10  and  O_27
    6  A    between atoms: C_11  and  C_24
    7  A    between atoms: N_17  and  C_22
    8  A    between atoms: N_19  and  C_23
    9  A    between atoms: C_22  and  C_30
                            x       y       z     vdW  Elec       q    Type
                         _______ _______ _______ _____ _____    ______ ____

>  <TORSDO>
F 9

$$$$
=
 OpenBabel11052410543D

 30 32  0  0  1  0  0  0  0  0999 V2000
  160.7210  205.4330  151.7340 C   0  0  0  0  0  0  0  0  0  0  0  0
  161.3820  206.5110  152.4230 N   0  0  0  0  0  0  0  0  0  0  0  0
  159.9930  204.6370  152.3870 O   0  0  0  0  0  0  0  0  0  0  0  0
  160.6950  206.2630  149.3790 C   0  0  0  0  0  3  0  0  0  0  0  0
  160.9090  205.2130  150.2830 C   0  0  0  0  0  0  0  0  0  0  0  0
  161.2160  204.8010  147.5150 C   0  0  0  0  0  0  0  0  0  0  0  0
  161.2640  203.9490  149.7890 C   0  0  0  0  0  3  0  0  0  0  0  0
  161.4210  203.7440  148.4150 C   0  0  0  0  0  3  0  0  0  0  0  0
  160.8520  206.0590  148.0060 C   0  0  0  0  0  3  0  0  0  0  0  0
  161.2060  203.3700  145.4990 C   0  0  0  0  0  1  0  0  0  0  0  0
  161.3640  204.6300  146.1360 O   0  0  0  0  0  0  0  0  0  0  0  0
  161.3830  207.8590  151.9080 C   0  0  0  0  0  0  0  0  0  0  0  0
  160.4680  210.1110  151.8810 C   0  0  0  0  0  3  0  0  0  0  0  0
  160.4560  208.8040  152.3740 C   0  0  0  0  0  3  0  0  0  0  0  0
  162.3430  209.5610  150.4590 C   0  0  0  0  0  3  0  0  0  0  0  0
  161.4120  210.4980  150.9190 C   0  0  0  0  0  0  0  0  0  0  0  0
  162.3310  208.2530  150.9500 C   0  0  0  0  0  3  0  0  0  0  0  0
  161.5530  212.2010  149.0060 C   0  0  0  0  0  0  0  0  0  0  0  0
  161.5830  211.3280  148.0980 O   0  0  0  0  0  0  0  0  0  0  0  0
  161.4550  211.8290  150.3880 N   0  0  0  0  0  2  0  0  0  0  0  0
  161.1410  213.7970  147.3060 O   0  0  0  0  0  0  0  0  0  0  0  0
  160.2190  214.1240  148.3140 C   0  0  0  0  0  2  0  0  0  0  0  0
  161.5820  213.6450  148.6340 C   0  0  1  0  0  3  0  0  0  0  0  0
  161.9670  206.2380  153.7350 C   0  0  0  0  0  2  0  0  0  0  0  0
  159.9730  206.7230  154.9320 O   0  0  0  0  0  0  0  0  0  0  0  0
  161.2060  206.9490  154.8030 C   0  0  0  0  0  0  0  0  0  0  0  0
  161.8910  207.8930  155.6410 N   0  0  0  0  0  0  0  0  0  0  0  0
  161.4400  209.0310  156.0870 C   0  0  0  0  0  3  0  0  0  0  0  0
  159.0660  209.9540  155.5660 N   0  0  0  0  0  0  0  0  0  0  0  0
  160.1230  209.5440  155.7970 C   0  0  0  0  0  0  0  0  0  0  0  0
  1  3  2  0  0  0  0
  1  2  1  0  0  0  0
  2 24  1  0  0  0  0
  4  5  1  0  0  0  0
  5  1  1  0  0  0  0
  6  9  1  0  0  0  0
  6  8  2  0  0  0  0
  7  5  2  0  0  0  0
  8  7  1  0  0  0  0
  9  4  2  0  0  0  0
 10 11  1  0  0  0  0
 11  6  1  0  0  0  0
 12 14  1  0  0  0  0
 12  2  1  0  0  0  0
 13 14  2  0  0  0  0
 15 16  2  0  0  0  0
 15 17  1  0  0  0  0
 16 13  1  0  0  0  0
 17 12  2  0  0  0  0
 18 20  1  0  0  0  0
 19 18  2  0  0  0  0
 20 16  1  0  0  0  0
 21 22  1  0  0  0  0
 21 23  1  0  0  0  0
 22 23  1  0  0  0  0
 23 18  1  1  0  0  0
 24 26  1  0  0  0  0
 26 25  2  0  0  0  0
 26 27  1  0  0  0  0
 27 28  2  0  0  0  0
 29 30  3  0  0  0  0
 30 28  1  0  0  0  0
M  END
>  <MODEL>
8

>  <REMARK>
 VINA RESULT:      -6.0      1.572      2.128
  Name = 
  9 active torsions:
  status: ('A' for Active; 'I' for Inactive)
    1  A    between atoms: C_2  and  C_29
    2  A    between atoms: C_3  and  C_16
    3  A    between atoms: N_7  and  C_30
    4  A    between atoms: C_8  and  N_17
    5  A    between atoms: C_10  and  O_27
    6  A    between atoms: C_11  and  C_24
    7  A    between atoms: N_17  and  C_22
    8  A    between atoms: N_19  and  C_23
    9  A    between atoms: C_22  and  C_30
                            x       y       z     vdW  Elec       q    Type
                         _______ _______ _______ _____ _____    ______ ____

>  <TORSDO>
F 9

$$$$
=
 OpenBabel11052410543D

 30 32  0  0  1  0  0  0  0  0999 V2000
  161.2030  208.2620  153.3840 C   0  0  0  0  0  0  0  0  0  0  0  0
  161.1120  207.9500  151.9810 N   0  0  0  0  0  0  0  0  0  0  0  0
  161.7060  207.4160  154.1730 O   0  0  0  0  0  0  0  0  0  0  0  0
  161.4120  210.2350  154.9010 C   0  0  0  0  0  3  0  0  0  0  0  0
  160.6830  209.5350  153.9280 C   0  0  0  0  0  0  0  0  0  0  0  0
  159.6870  211.9370  155.0090 C   0  0  0  0  0  0  0  0  0  0  0  0
  159.4430  210.0410  153.5110 C   0  0  0  0  0  3  0  0  0  0  0  0
  158.9490  211.2350  154.0430 C   0  0  0  0  0  3  0  0  0  0  0  0
  160.9190  211.4280  155.4340 C   0  0  0  0  0  3  0  0  0  0  0  0
  158.0680  213.8040  155.0760 C   0  0  0  0  0  1  0  0  0  0  0  0
  159.2220  213.1330  155.5620 O   0  0  0  0  0  0  0  0  0  0  0  0
  161.4980  208.8960  150.9620 C   0  0  0  0  0  0  0  0  0  0  0  0
  161.9560  209.4240  148.6340 C   0  0  0  0  0  3  0  0  0  0  0  0
  161.5930  208.5020  149.6190 C   0  0  0  0  0  3  0  0  0  0  0  0
  162.1230  211.1540  150.3110 C   0  0  0  0  0  3  0  0  0  0  0  0
  162.2240  210.7570  148.9740 C   0  0  0  0  0  0  0  0  0  0  0  0
  161.7610  210.2340  151.2970 C   0  0  0  0  0  3  0  0  0  0  0  0
  161.7640  212.7480  147.4250 C   0  0  0  0  0  0  0  0  0  0  0  0
  160.5660  212.8850  147.7920 O   0  0  0  0  0  0  0  0  0  0  0  0
  162.6010  211.7310  147.9920 N   0  0  0  0  0  2  0  0  0  0  0  0
  163.0800  212.9550  145.4680 O   0  0  0  0  0  0  0  0  0  0  0  0
  161.8000  213.3690  145.0640 C   0  0  0  0  0  2  0  0  0  0  0  0
  162.3300  213.6840  146.4100 C   0  0  1  0  0  3  0  0  0  0  0  0
  160.7230  206.5930  151.5980 C   0  0  0  0  0  2  0  0  0  0  0  0
  163.0400  206.0700  151.6400 O   0  0  0  0  0  0  0  0  0  0  0  0
  161.8610  205.6500  151.7920 C   0  0  0  0  0  0  0  0  0  0  0  0
  161.5870  204.2780  152.1190 N   0  0  0  0  0  0  0  0  0  0  0  0
  161.2110  203.3300  151.3090 C   0  0  0  0  0  3  0  0  0  0  0  0
  160.8300  203.6620  148.7590 N   0  0  0  0  0  0  0  0  0  0  0  0
  161.0000  203.5160  149.8940 C   0  0  0  0  0  0  0  0  0  0  0  0
  1  5  1  0  0  0  0
  1  3  2  0  0  0  0
  2  1  1  0  0  0  0
  4  9  1  0  0  0  0
  5  4  2  0  0  0  0
  6  9  2  0  0  0  0
  6 11  1  0  0  0  0
  7  5  1  0  0  0  0
  7  8  2  0  0  0  0
  8  6  1  0  0  0  0
 10 11  1  0  0  0  0
 12 17  1  0  0  0  0
 12  2  1  0  0  0  0
 13 16  2  0  0  0  0
 13 14  1  0  0  0  0
 14 12  2  0  0  0  0
 15 17  2  0  0  0  0
 16 15  1  0  0  0  0
 18 19  2  0  0  0  0
 18 20  1  0  0  0  0
 20 16  1  0  0  0  0
 21 23  1  0  0  0  0
 22 21  1  0  0  0  0
 22 23  1  0  0  0  0
 23 18  1  1  0  0  0
 24 26  1  0  0  0  0
 24  2  1  0  0  0  0
 25 26  2  0  0  0  0
 26 27  1  0  0  0  0
 28 27  2  0  0  0  0
 29 30  3  0  0  0  0
 30 28  1  0  0  0  0
M  END
>  <MODEL>
9

>  <REMARK>
 VINA RESULT:      -5.9      2.721      6.286
  Name = 
  9 active torsions:
  status: ('A' for Active; 'I' for Inactive)
    1  A    between atoms: C_2  and  C_29
    2  A    between atoms: C_3  and  C_16
    3  A    between atoms: N_7  and  C_30
    4  A    between atoms: C_8  and  N_17
    5  A    between atoms: C_10  and  O_27
    6  A    between atoms: C_11  and  C_24
    7  A    between atoms: N_17  and  C_22
    8  A    between atoms: N_19  and  C_23
    9  A    between atoms: C_22  and  C_30
                            x       y       z     vdW  Elec       q    Type
                         _______ _______ _______ _____ _____    ______ ____

>  <TORSDO>
F 9

$$$$
