=
 OpenBabel11042421243D

 33 36  0  0  1  0  0  0  0  0999 V2000
  161.3130  208.7630  151.8420 C   0  0  0  0  0  0  0  0  0  0  0  0
  158.9690  211.1980  152.8070 C   0  0  0  0  0  3  0  0  0  0  0  0
  161.5060  207.0720  153.5430 N   0  0  0  0  0  0  0  0  0  0  0  0
  158.0510  211.5800  153.7890 C   0  0  0  0  0  3  0  0  0  0  0  0
  160.2550  209.9710  154.4710 C   0  0  0  0  0  0  0  0  0  0  0  0
  160.0510  210.3700  153.1270 C   0  0  0  0  0  0  0  0  0  0  0  0
  160.9470  209.9870  152.0740 N   0  0  0  0  0  0  0  0  0  0  0  0
  162.0050  209.5150  156.2300 C   0  0  0  0  0  1  0  0  0  0  0  0
  160.7640  207.7020  152.5670 O   0  0  0  0  0  0  0  0  0  0  0  0
  158.2130  211.1410  155.1040 C   0  0  0  0  0  0  0  0  0  0  0  0
  161.1240  207.6540  154.8250 C   0  0  0  0  0  2  0  0  0  0  0  0
  159.3110  210.3450  155.4440 C   0  0  0  0  0  3  0  0  0  0  0  0
  161.4550  209.1400  154.8640 C   0  0  1  0  0  3  0  0  0  0  0  0
  156.4910  211.8310  156.9190 N   0  0  0  0  0  0  0  0  0  0  0  0
  157.2610  211.5240  156.1090 C   0  0  0  0  0  0  0  0  0  0  0  0
  161.0520  205.6910  153.5750 C   0  0  0  0  0  2  0  0  0  0  0  0
  161.4530  204.9740  152.3010 C   0  0  0  0  0  2  0  0  0  0  0  0
  161.5370  202.5960  151.6170 C   0  0  0  0  0  2  0  0  0  0  0  0
  160.6380  203.6990  152.1300 C   0  0  2  0  0  3  0  0  0  0  0  0
  160.5240  203.2210  150.6800 C   0  0  1  0  0  3  0  0  0  0  0  0
  161.1880  204.0960  149.7720 O   0  0  0  0  0  0  0  0  0  0  0  0
  161.3090  202.5620  148.0760 O   0  0  0  0  0  0  0  0  0  0  0  0
  161.3450  203.7700  148.4240 C   0  0  0  0  0  0  0  0  0  0  0  0
  161.5370  204.8000  147.4450 N   0  0  0  0  0  2  0  0  0  0  0  0
  163.1790  204.7390  145.6450 C   0  0  0  0  0  1  0  0  0  0  0  0
  161.7220  204.5300  146.0270 C   0  0  2  0  0  3  0  0  0  0  0  0
  160.4280  206.5330  146.0360 O   0  0  0  0  0  1  0  0  0  0  0  0
  160.8510  205.4800  145.2240 C   0  0  0  0  0  2  0  0  0  0  0  0
  162.3240  208.4900  150.7840 C   0  0  0  0  0  2  0  0  0  0  0  0
  161.6660  208.4100  149.4220 C   0  0  2  0  0  3  0  0  0  0  0  0
  162.6210  208.1060  148.4510 N   0  0  0  0  0  2  0  0  0  0  0  0
  162.0610  209.5120  148.6820 C   0  0  0  0  0  0  0  0  0  0  0  0
  162.0250  210.7740  148.4180 N   0  0  0  0  0  2  0  0  0  0  0  0
  1  7  2  0  0  0  0
  1  9  1  0  0  0  0
  2  6  2  0  0  0  0
  2  4  1  0  0  0  0
  3 16  1  0  0  0  0
  3 11  1  0  0  0  0
  4 10  2  0  0  0  0
  5 13  1  0  0  0  0
  5 12  2  0  0  0  0
  6  5  1  0  0  0  0
  7  6  1  0  0  0  0
  9  3  1  0  0  0  0
 10 12  1  0  0  0  0
 10 15  1  0  0  0  0
 11 13  1  0  0  0  0
 13  8  1  1  0  0  0
 15 14  3  0  0  0  0
 17 16  1  0  0  0  0
 18 19  1  0  0  0  0
 19 17  1  6  0  0  0
 20 21  1  6  0  0  0
 20 18  1  0  0  0  0
 20 19  1  0  0  0  0
 22 23  2  0  0  0  0
 23 21  1  0  0  0  0
 24 23  1  0  0  0  0
 26 25  1  6  0  0  0
 26 24  1  0  0  0  0
 28 26  1  0  0  0  0
 28 27  1  0  0  0  0
 29  1  1  0  0  0  0
 30 29  1  1  0  0  0
 31 32  1  0  0  0  0
 31 30  1  0  0  0  0
 32 30  1  0  0  0  0
 33 32  2  0  0  0  0
M  END
>  <MODEL>
1

>  <REMARK>
 VINA RESULT:      -8.4      0.000      0.000
  Name = 
  10 active torsions:
  status: ('A' for Active; 'I' for Inactive)
    1  A    between atoms: C_3  and  C_23
    2  A    between atoms: C_5  and  C_23
    3  A    between atoms: O_6  and  C_12
    4  A    between atoms: O_6  and  C_30
    5  A    between atoms: C_10  and  C_22
    6  A    between atoms: C_13  and  C_29
    7  A    between atoms: N_14  and  C_20
    8  A    between atoms: CA_16  and  C_26
    9  A    between atoms: CA_16  and  N_27
   10  A    between atoms: C_20  and  C_22
                            x       y       z     vdW  Elec       q    Type
                         _______ _______ _______ _____ _____    ______ ____

>  <TORSDO>
F 10

$$$$
=
 OpenBabel11042421243D

 33 36  0  0  1  0  0  0  0  0999 V2000
  161.3010  208.8620  151.8320 C   0  0  0  0  0  0  0  0  0  0  0  0
  158.8960  211.2300  152.8160 C   0  0  0  0  0  3  0  0  0  0  0  0
  161.5130  207.1460  153.5050 N   0  0  0  0  0  0  0  0  0  0  0  0
  157.9590  211.5740  153.7940 C   0  0  0  0  0  3  0  0  0  0  0  0
  160.1910  210.0010  154.4710 C   0  0  0  0  0  0  0  0  0  0  0  0
  159.9920  210.4190  153.1320 C   0  0  0  0  0  0  0  0  0  0  0  0
  160.9070  210.0740  152.0820 N   0  0  0  0  0  0  0  0  0  0  0  0
  161.9320  209.5510  156.2400 C   0  0  0  0  0  1  0  0  0  0  0  0
  160.7670  207.7780  152.5330 O   0  0  0  0  0  0  0  0  0  0  0  0
  158.1180  211.1160  155.1030 C   0  0  0  0  0  0  0  0  0  0  0  0
  161.1050  207.6970  154.7930 C   0  0  0  0  0  2  0  0  0  0  0  0
  159.2290  210.3380  155.4410 C   0  0  0  0  0  3  0  0  0  0  0  0
  161.4040  209.1890  154.8620 C   0  0  1  0  0  3  0  0  0  0  0  0
  156.3620  211.7390  156.9100 N   0  0  0  0  0  0  0  0  0  0  0  0
  157.1470  211.4610  156.1050 C   0  0  0  0  0  0  0  0  0  0  0  0
  161.0880  205.7560  153.5080 C   0  0  0  0  0  2  0  0  0  0  0  0
  161.5000  205.0760  152.2170 C   0  0  0  0  0  2  0  0  0  0  0  0
  161.4210  202.7450  151.3860 C   0  0  0  0  0  2  0  0  0  0  0  0
  160.5920  203.8860  151.9310 C   0  0  2  0  0  3  0  0  0  0  0  0
  160.5080  203.5090  150.4490 C   0  0  1  0  0  3  0  0  0  0  0  0
  161.2840  204.3780  149.6280 O   0  0  0  0  0  0  0  0  0  0  0  0
  162.1700  204.9170  147.5860 O   0  0  0  0  0  0  0  0  0  0  0  0
  161.5300  204.0890  148.2850 C   0  0  0  0  0  0  0  0  0  0  0  0
  161.0660  202.8610  147.7080 N   0  0  0  0  0  2  0  0  0  0  0  0
  160.6700  203.5680  145.4100 C   0  0  0  0  0  1  0  0  0  0  0  0
  161.2740  202.5040  146.3130 C   0  0  2  0  0  3  0  0  0  0  0  0
  160.0050  201.1940  144.7770 O   0  0  0  0  0  1  0  0  0  0  0  0
  160.6040  201.1700  146.0370 C   0  0  0  0  0  2  0  0  0  0  0  0
  162.3280  208.6300  150.7810 C   0  0  0  0  0  2  0  0  0  0  0  0
  161.6820  208.5250  149.4140 C   0  0  2  0  0  3  0  0  0  0  0  0
  162.6500  208.2290  148.4540 N   0  0  0  0  0  2  0  0  0  0  0  0
  162.0620  209.6260  148.6660 C   0  0  0  0  0  0  0  0  0  0  0  0
  162.0050  210.8850  148.3900 N   0  0  0  0  0  2  0  0  0  0  0  0
  1  7  2  0  0  0  0
  1  9  1  0  0  0  0
  2  6  2  0  0  0  0
  2  4  1  0  0  0  0
  3 16  1  0  0  0  0
  3 11  1  0  0  0  0
  4 10  2  0  0  0  0
  5 13  1  0  0  0  0
  5 12  2  0  0  0  0
  6  5  1  0  0  0  0
  7  6  1  0  0  0  0
  9  3  1  0  0  0  0
 10 12  1  0  0  0  0
 10 15  1  0  0  0  0
 11 13  1  0  0  0  0
 13  8  1  1  0  0  0
 15 14  3  0  0  0  0
 17 16  1  0  0  0  0
 18 19  1  0  0  0  0
 19 17  1  6  0  0  0
 20 21  1  6  0  0  0
 20 18  1  0  0  0  0
 20 19  1  0  0  0  0
 22 23  2  0  0  0  0
 23 21  1  0  0  0  0
 24 23  1  0  0  0  0
 26 25  1  6  0  0  0
 26 24  1  0  0  0  0
 27 28  1  0  0  0  0
 28 26  1  0  0  0  0
 29  1  1  0  0  0  0
 30 29  1  1  0  0  0
 31 32  1  0  0  0  0
 31 30  1  0  0  0  0
 32 30  1  0  0  0  0
 33 32  2  0  0  0  0
M  END
>  <MODEL>
2

>  <REMARK>
 VINA RESULT:      -7.6      1.169      1.488
  Name = 
  10 active torsions:
  status: ('A' for Active; 'I' for Inactive)
    1  A    between atoms: C_3  and  C_23
    2  A    between atoms: C_5  and  C_23
    3  A    between atoms: O_6  and  C_12
    4  A    between atoms: O_6  and  C_30
    5  A    between atoms: C_10  and  C_22
    6  A    between atoms: C_13  and  C_29
    7  A    between atoms: N_14  and  C_20
    8  A    between atoms: CA_16  and  C_26
    9  A    between atoms: CA_16  and  N_27
   10  A    between atoms: C_20  and  C_22
                            x       y       z     vdW  Elec       q    Type
                         _______ _______ _______ _____ _____    ______ ____

>  <TORSDO>
F 10

$$$$
=
 OpenBabel11042421243D

 33 36  0  0  1  0  0  0  0  0999 V2000
  161.7370  209.3680  149.8270 C   0  0  0  0  0  0  0  0  0  0  0  0
  161.0300  209.8910  153.2310 C   0  0  0  0  0  3  0  0  0  0  0  0
  161.3140  207.0760  149.2310 N   0  0  0  0  0  0  0  0  0  0  0  0
  160.5570  209.3020  154.4070 C   0  0  0  0  0  3  0  0  0  0  0  0
  161.7710  207.7150  152.4270 C   0  0  0  0  0  0  0  0  0  0  0  0
  161.6050  209.1080  152.2230 C   0  0  0  0  0  0  0  0  0  0  0  0
  162.0480  209.7610  151.0250 N   0  0  0  0  0  0  0  0  0  0  0  0
  163.3020  205.7530  152.0140 C   0  0  0  0  0  1  0  0  0  0  0  0
  160.8460  208.3090  149.6300 O   0  0  0  0  0  0  0  0  0  0  0  0
  160.6650  207.9230  154.5880 C   0  0  0  0  0  0  0  0  0  0  0  0
  161.4440  206.2520  150.4280 C   0  0  0  0  0  2  0  0  0  0  0  0
  161.2720  207.1340  153.6070 C   0  0  0  0  0  3  0  0  0  0  0  0
  162.4570  206.8530  151.3930 C   0  0  1  0  0  3  0  0  0  0  0  0
  159.7690  206.8280  156.7650 N   0  0  0  0  0  0  0  0  0  0  0  0
  160.1670  207.3180  155.7930 C   0  0  0  0  0  0  0  0  0  0  0  0
  160.2560  206.4730  148.4380 C   0  0  0  0  0  2  0  0  0  0  0  0
  160.6910  206.3400  146.9920 C   0  0  0  0  0  2  0  0  0  0  0  0
  162.5440  205.6470  145.5040 C   0  0  0  0  0  2  0  0  0  0  0  0
  162.1890  206.0750  146.9100 C   0  0  2  0  0  3  0  0  0  0  0  0
  162.5490  204.6170  146.6150 C   0  0  1  0  0  3  0  0  0  0  0  0
  161.3940  203.7900  146.5040 O   0  0  0  0  0  0  0  0  0  0  0  0
  161.1010  201.5600  146.9390 O   0  0  0  0  0  0  0  0  0  0  0  0
  161.1620  202.7340  147.3870 C   0  0  0  0  0  0  0  0  0  0  0  0
  161.0000  202.9820  148.7910 N   0  0  0  0  0  2  0  0  0  0  0  0
  159.3870  201.2960  149.4910 C   0  0  0  0  0  1  0  0  0  0  0  0
  160.7410  201.9320  149.7630 C   0  0  2  0  0  3  0  0  0  0  0  0
  162.0460  202.5750  151.6530 O   0  0  0  0  0  1  0  0  0  0  0  0
  160.7420  202.5350  151.1560 C   0  0  0  0  0  2  0  0  0  0  0  0
  162.3310  210.0630  148.6530 C   0  0  0  0  0  2  0  0  0  0  0  0
  162.5620  211.5290  148.9570 C   0  0  2  0  0  3  0  0  0  0  0  0
  161.3420  212.2040  148.9890 N   0  0  0  0  0  2  0  0  0  0  0  0
  162.3120  212.2580  147.8060 C   0  0  0  0  0  0  0  0  0  0  0  0
  162.6290  212.6470  146.6180 N   0  0  0  0  0  2  0  0  0  0  0  0
  1  7  2  0  0  0  0
  2  4  1  0  0  0  0
  3  9  1  0  0  0  0
  3 11  1  0  0  0  0
  4 10  2  0  0  0  0
  5 12  2  0  0  0  0
  6  5  1  0  0  0  0
  6  2  2  0  0  0  0
  7  6  1  0  0  0  0
  9  1  1  0  0  0  0
 10 15  1  0  0  0  0
 11 13  1  0  0  0  0
 12 10  1  0  0  0  0
 13  8  1  1  0  0  0
 13  5  1  0  0  0  0
 15 14  3  0  0  0  0
 16  3  1  0  0  0  0
 17 16  1  0  0  0  0
 18 20  1  0  0  0  0
 18 19  1  0  0  0  0
 19 17  1  6  0  0  0
 20 21  1  6  0  0  0
 20 19  1  0  0  0  0
 21 23  1  0  0  0  0
 22 23  2  0  0  0  0
 23 24  1  0  0  0  0
 24 26  1  0  0  0  0
 26 25  1  6  0  0  0
 26 28  1  0  0  0  0
 28 27  1  0  0  0  0
 29  1  1  0  0  0  0
 30 29  1  6  0  0  0
 30 31  1  0  0  0  0
 32 30  1  0  0  0  0
 32 31  1  0  0  0  0
 33 32  2  0  0  0  0
M  END
>  <MODEL>
3

>  <REMARK>
 VINA RESULT:      -6.7      2.267      4.374
  Name = 
  10 active torsions:
  status: ('A' for Active; 'I' for Inactive)
    1  A    between atoms: C_3  and  C_23
    2  A    between atoms: C_5  and  C_23
    3  A    between atoms: O_6  and  C_12
    4  A    between atoms: O_6  and  C_30
    5  A    between atoms: C_10  and  C_22
    6  A    between atoms: C_13  and  C_29
    7  A    between atoms: N_14  and  C_20
    8  A    between atoms: CA_16  and  C_26
    9  A    between atoms: CA_16  and  N_27
   10  A    between atoms: C_20  and  C_22
                            x       y       z     vdW  Elec       q    Type
                         _______ _______ _______ _____ _____    ______ ____

>  <TORSDO>
F 10

$$$$
=
 OpenBabel11042421243D

 33 36  0  0  1  0  0  0  0  0999 V2000
  161.0150  206.2320  152.5550 C   0  0  0  0  0  0  0  0  0  0  0  0
  161.5470  207.5550  155.7680 C   0  0  0  0  0  3  0  0  0  0  0  0
  161.6820  207.8240  150.8780 N   0  0  0  0  0  0  0  0  0  0  0  0
  162.0330  208.6470  156.4920 C   0  0  0  0  0  3  0  0  0  0  0  0
  161.0510  209.0130  153.8810 C   0  0  0  0  0  0  0  0  0  0  0  0
  161.0870  207.7170  154.4560 C   0  0  0  0  0  0  0  0  0  0  0  0
  160.6250  206.5570  153.7500 N   0  0  0  0  0  0  0  0  0  0  0  0
  159.7370  210.5480  152.3720 C   0  0  0  0  0  1  0  0  0  0  0  0
  162.0120  206.9640  151.9040 O   0  0  0  0  0  0  0  0  0  0  0  0
  162.0550  209.9150  155.9100 C   0  0  0  0  0  0  0  0  0  0  0  0
  161.5910  209.1640  151.4460 C   0  0  0  0  0  2  0  0  0  0  0  0
  161.5630  210.0980  154.6140 C   0  0  0  0  0  3  0  0  0  0  0  0
  160.4910  209.2350  152.4960 C   0  0  1  0  0  3  0  0  0  0  0  0
  162.9770  211.9390  157.2480 N   0  0  0  0  0  0  0  0  0  0  0  0
  162.5660  211.0350  156.6520 C   0  0  0  0  0  0  0  0  0  0  0  0
  162.8220  207.8420  149.9770 C   0  0  0  0  0  2  0  0  0  0  0  0
  162.3840  207.5060  148.5650 C   0  0  0  0  0  2  0  0  0  0  0  0
  160.8220  205.6100  148.8820 C   0  0  0  0  0  2  0  0  0  0  0  0
  160.9200  207.0830  148.5490 C   0  0  2  0  0  3  0  0  0  0  0  0
  160.5760  206.0660  147.4580 C   0  0  1  0  0  3  0  0  0  0  0  0
  161.7050  205.7410  146.6510 O   0  0  0  0  0  0  0  0  0  0  0  0
  162.7530  204.2860  145.2260 O   0  0  0  0  0  0  0  0  0  0  0  0
  161.8760  204.4660  146.1100 C   0  0  0  0  0  0  0  0  0  0  0  0
  161.0670  203.3700  146.5610 N   0  0  0  0  0  2  0  0  0  0  0  0
  160.0270  201.7360  145.0830 C   0  0  0  0  0  1  0  0  0  0  0  0
  161.1830  202.0210  146.0300 C   0  0  2  0  0  3  0  0  0  0  0  0
  161.3890  199.7420  146.7030 O   0  0  0  0  0  1  0  0  0  0  0  0
  161.1460  201.0310  147.1800 C   0  0  0  0  0  2  0  0  0  0  0  0
  160.3970  205.0600  151.8780 C   0  0  0  0  0  2  0  0  0  0  0  0
  161.0530  203.7710  152.3320 C   0  0  2  0  0  3  0  0  0  0  0  0
  162.2910  203.6230  151.7070 N   0  0  0  0  0  2  0  0  0  0  0  0
  161.0270  202.8730  151.2780 C   0  0  0  0  0  0  0  0  0  0  0  0
  160.4030  202.0610  150.4940 N   0  0  0  0  0  2  0  0  0  0  0  0
  1  7  2  0  0  0  0
  2  4  1  0  0  0  0
  3 11  1  0  0  0  0
  3  9  1  0  0  0  0
  5  6  1  0  0  0  0
  5 12  2  0  0  0  0
  6  2  2  0  0  0  0
  7  6  1  0  0  0  0
  9  1  1  0  0  0  0
 10  4  2  0  0  0  0
 10 15  1  0  0  0  0
 11 13  1  0  0  0  0
 12 10  1  0  0  0  0
 13  8  1  1  0  0  0
 13  5  1  0  0  0  0
 15 14  3  0  0  0  0
 16  3  1  0  0  0  0
 17 16  1  0  0  0  0
 19 17  1  6  0  0  0
 19 18  1  0  0  0  0
 20 21  1  6  0  0  0
 20 19  1  0  0  0  0
 20 18  1  0  0  0  0
 22 23  2  0  0  0  0
 23 24  1  0  0  0  0
 23 21  1  0  0  0  0
 26 25  1  6  0  0  0
 26 24  1  0  0  0  0
 26 28  1  0  0  0  0
 27 28  1  0  0  0  0
 29  1  1  0  0  0  0
 30 29  1  6  0  0  0
 31 30  1  0  0  0  0
 32 31  1  0  0  0  0
 32 30  1  0  0  0  0
 33 32  2  0  0  0  0
M  END
>  <MODEL>
4

>  <REMARK>
 VINA RESULT:      -6.2      2.276      4.559
  Name = 
  10 active torsions:
  status: ('A' for Active; 'I' for Inactive)
    1  A    between atoms: C_3  and  C_23
    2  A    between atoms: C_5  and  C_23
    3  A    between atoms: O_6  and  C_12
    4  A    between atoms: O_6  and  C_30
    5  A    between atoms: C_10  and  C_22
    6  A    between atoms: C_13  and  C_29
    7  A    between atoms: N_14  and  C_20
    8  A    between atoms: CA_16  and  C_26
    9  A    between atoms: CA_16  and  N_27
   10  A    between atoms: C_20  and  C_22
                            x       y       z     vdW  Elec       q    Type
                         _______ _______ _______ _____ _____    ______ ____

>  <TORSDO>
F 10

$$$$
=
 OpenBabel11042421243D

 33 36  0  0  1  0  0  0  0  0999 V2000
  160.9510  207.9740  154.3390 C   0  0  0  0  0  0  0  0  0  0  0  0
  161.1230  205.6100  151.7420 C   0  0  0  0  0  3  0  0  0  0  0  0
  160.1770  210.0880  153.4900 N   0  0  0  0  0  0  0  0  0  0  0  0
  160.8860  205.3800  150.3840 C   0  0  0  0  0  3  0  0  0  0  0  0
  161.4370  207.9830  151.2960 C   0  0  0  0  0  0  0  0  0  0  0  0
  161.3640  206.9060  152.2140 C   0  0  0  0  0  0  0  0  0  0  0  0
  161.5730  207.0880  153.6210 N   0  0  0  0  0  0  0  0  0  0  0  0
  162.6260  210.1430  150.7630 C   0  0  0  0  0  1  0  0  0  0  0  0
  159.9400  208.7620  153.7830 O   0  0  0  0  0  0  0  0  0  0  0  0
  160.8970  206.4460  149.4840 C   0  0  0  0  0  0  0  0  0  0  0  0
  160.5050  210.1690  152.0710 C   0  0  0  0  0  2  0  0  0  0  0  0
  161.1760  207.7400  149.9360 C   0  0  0  0  0  3  0  0  0  0  0  0
  161.7710  209.3820  151.7610 C   0  0  1  0  0  3  0  0  0  0  0  0
  160.4380  206.0140  146.9660 N   0  0  0  0  0  0  0  0  0  0  0  0
  160.6420  206.2090  148.0890 C   0  0  0  0  0  0  0  0  0  0  0  0
  158.9080  210.7770  153.6520 C   0  0  0  0  0  2  0  0  0  0  0  0
  158.7220  211.8050  152.5540 C   0  0  0  0  0  2  0  0  0  0  0  0
  158.2510  214.1240  153.2840 C   0  0  0  0  0  2  0  0  0  0  0  0
  159.3470  213.1340  152.9590 C   0  0  2  0  0  3  0  0  0  0  0  0
  159.0390  214.2870  152.0000 C   0  0  1  0  0  3  0  0  0  0  0  0
  158.2430  213.8680  150.8950 O   0  0  0  0  0  0  0  0  0  0  0  0
  157.9960  213.6370  148.6290 O   0  0  0  0  0  0  0  0  0  0  0  0
  158.7750  213.7580  149.6100 C   0  0  0  0  0  0  0  0  0  0  0  0
  160.1950  213.7880  149.4050 N   0  0  0  0  0  2  0  0  0  0  0  0
  160.6760  212.2360  147.5900 C   0  0  0  0  0  1  0  0  0  0  0  0
  160.8160  213.6630  148.0960 C   0  0  2  0  0  3  0  0  0  0  0  0
  163.0580  213.0390  147.5720 O   0  0  0  0  0  1  0  0  0  0  0  0
  162.2890  214.0130  148.2110 C   0  0  0  0  0  2  0  0  0  0  0  0
  161.3170  208.1410  155.7710 C   0  0  0  0  0  2  0  0  0  0  0  0
  162.0590  209.4450  155.9860 C   0  0  2  0  0  3  0  0  0  0  0  0
  162.6540  209.4500  157.2470 N   0  0  0  0  0  2  0  0  0  0  0  0
  161.3590  210.1970  156.9160 C   0  0  0  0  0  0  0  0  0  0  0  0
  160.3540  210.9280  157.2590 N   0  0  0  0  0  2  0  0  0  0  0  0
  1 29  1  0  0  0  0
  2  6  1  0  0  0  0
  3 16  1  0  0  0  0
  3  9  1  0  0  0  0
  4  2  2  0  0  0  0
  5 13  1  0  0  0  0
  5  6  2  0  0  0  0
  6  7  1  0  0  0  0
  7  1  2  0  0  0  0
  9  1  1  0  0  0  0
 10 12  2  0  0  0  0
 10  4  1  0  0  0  0
 11  3  1  0  0  0  0
 12  5  1  0  0  0  0
 13  8  1  6  0  0  0
 13 11  1  0  0  0  0
 14 15  3  0  0  0  0
 15 10  1  0  0  0  0
 17 16  1  0  0  0  0
 19 17  1  6  0  0  0
 19 18  1  0  0  0  0
 20 21  1  6  0  0  0
 20 19  1  0  0  0  0
 20 18  1  0  0  0  0
 22 23  2  0  0  0  0
 23 21  1  0  0  0  0
 24 23  1  0  0  0  0
 26 25  1  1  0  0  0
 26 28  1  0  0  0  0
 26 24  1  0  0  0  0
 27 28  1  0  0  0  0
 30 29  1  1  0  0  0
 30 32  1  0  0  0  0
 30 31  1  0  0  0  0
 32 31  1  0  0  0  0
 32 33  2  0  0  0  0
M  END
>  <MODEL>
5

>  <REMARK>
 VINA RESULT:      -5.5      3.183      7.858
  Name = 
  10 active torsions:
  status: ('A' for Active; 'I' for Inactive)
    1  A    between atoms: C_3  and  C_23
    2  A    between atoms: C_5  and  C_23
    3  A    between atoms: O_6  and  C_12
    4  A    between atoms: O_6  and  C_30
    5  A    between atoms: C_10  and  C_22
    6  A    between atoms: C_13  and  C_29
    7  A    between atoms: N_14  and  C_20
    8  A    between atoms: CA_16  and  C_26
    9  A    between atoms: CA_16  and  N_27
   10  A    between atoms: C_20  and  C_22
                            x       y       z     vdW  Elec       q    Type
                         _______ _______ _______ _____ _____    ______ ____

>  <TORSDO>
F 10

$$$$
