=
 OpenBabel11052410553D

 30 31  0  0  1  0  0  0  0  0999 V2000
  161.6570  208.2130  150.1720 C   0  0  0  0  0  0  0  0  0  0  0  0
  161.7600  209.3110  150.8710 N   0  0  0  0  0  0  0  0  0  0  0  0
  161.6100  206.8650  150.7790 C   0  0  0  0  0  0  0  0  0  0  0  0
  162.5530  206.3610  151.8270 C   0  0  0  0  0  2  0  0  0  0  0  0
  161.1320  204.7050  151.1120 C   0  0  0  0  0  0  0  0  0  0  0  0
  160.8150  205.8970  150.3470 C   0  0  0  0  0  3  0  0  0  0  0  0
  162.1130  204.9450  151.9720 C   0  0  0  0  0  3  0  0  0  0  0  0
  160.3980  203.4050  150.9640 C   0  0  2  0  0  3  0  0  0  0  0  0
  161.4140  200.7640  148.9290 N   0  0  0  0  0  2  0  0  0  0  0  0
  161.0200  201.8350  149.7880 C   0  0  0  0  0  0  0  0  0  0  0  0
  161.2980  202.1220  151.5720 S   0  0  0  0  0  0  0  0  0  0  0  0
  161.5510  199.6240  146.7490 N   0  0  0  0  0  1  0  0  0  0  0  0
  161.1080  200.7250  147.5330 C   0  0  0  0  0  0  0  0  0  0  0  0
  160.4520  201.6530  146.9900 O   0  0  0  0  0  0  0  0  0  0  0  0
  160.3520  202.9830  149.5850 N   0  0  0  0  0  0  0  0  0  0  0  0
  161.7000  208.3090  148.6770 C   0  0  1  0  0  3  0  0  0  0  0  0
  162.0680  209.5970  148.2830 O   0  0  0  0  0  1  0  0  0  0  0  0
  162.6750  207.2850  148.1100 C   0  0  0  0  0  2  0  0  0  0  0  0
  160.5340  206.6140  146.9880 C   0  0  0  0  0  1  0  0  0  0  0  0
  162.0500  206.5120  146.9560 C   0  0  2  0  0  3  0  0  0  0  0  0
  163.4180  204.7900  145.9760 O   0  0  0  0  0  1  0  0  0  0  0  0
  162.4890  205.0540  146.9860 C   0  0  0  0  0  2  0  0  0  0  0  0
  162.5680  209.9720  152.9750 O   0  0  0  0  0  0  0  0  0  0  0  0
  161.6390  209.4650  152.2910 C   0  0  0  0  0  0  0  0  0  0  0  0
  160.4500  208.8950  152.9870 C   0  0  0  0  0  2  0  0  0  0  0  0
  160.8350  208.3840  154.3680 C   0  0  2  0  0  3  0  0  0  0  0  0
  160.4930  207.0360  154.4970 O   0  0  0  0  0  1  0  0  0  0  0  0
  160.1480  209.1830  155.4250 C   0  0  0  0  0  0  0  0  0  0  0  0
  160.0350  208.6680  156.7100 O   0  0  0  0  0  1  0  0  0  0  0  0
  159.6710  210.3180  155.1610 O   0  0  0  0  0  0  0  0  0  0  0  0
  1  3  1  0  0  0  0
  1  2  2  0  0  0  0
  2 24  1  0  0  0  0
  3  4  1  0  0  0  0
  4  7  1  0  0  0  0
  5  7  2  0  0  0  0
  6  3  2  0  0  0  0
  6  5  1  0  0  0  0
  8  5  1  6  0  0  0
  8 11  1  0  0  0  0
  9 10  1  0  0  0  0
 10 11  1  0  0  0  0
 12 13  1  0  0  0  0
 13  9  1  0  0  0  0
 14 13  2  0  0  0  0
 15 10  2  0  0  0  0
 15  8  1  0  0  0  0
 16 17  1  1  0  0  0
 16  1  1  0  0  0  0
 18 16  1  0  0  0  0
 20 22  1  0  0  0  0
 20 19  1  1  0  0  0
 20 18  1  0  0  0  0
 21 22  1  0  0  0  0
 24 23  2  0  0  0  0
 24 25  1  0  0  0  0
 25 26  1  0  0  0  0
 26 27  1  6  0  0  0
 26 28  1  0  0  0  0
 28 29  1  0  0  0  0
 30 28  2  0  0  0  0
M  END
>  <MODEL>
1

>  <REMARK>
 VINA RESULT:      -7.2      0.000      0.000
  Name = 
  10 active torsions:
  status: ('A' for Active; 'I' for Inactive)
    1  A    between atoms: C_2  and  C_25
    2  A    between atoms: C_3  and  C_7
    3  A    between atoms: C_3  and  C_11
    4  A    between atoms: C_4  and  C_8
    5  A    between atoms: C_6  and  C_7
    6  A    between atoms: C_8  and  C_27
    7  A    between atoms: C_11  and  C_30
    8  A    between atoms: N_13  and  C_22
    9  A    between atoms: C_22  and  C_27
   10  A    between atoms: C_24  and  C_30
                            x       y       z     vdW  Elec       q    Type
                         _______ _______ _______ _____ _____    ______ ____

>  <TORSDO>
F 10

$$$$
=
 OpenBabel11052410553D

 30 31  0  0  1  0  0  0  0  0999 V2000
  160.8820  203.2700  149.4870 C   0  0  0  0  0  0  0  0  0  0  0  0
  160.9520  203.9780  148.3920 N   0  0  0  0  0  0  0  0  0  0  0  0
  161.0530  203.8460  150.8390 C   0  0  0  0  0  0  0  0  0  0  0  0
  160.4930  203.2640  152.0980 C   0  0  0  0  0  2  0  0  0  0  0  0
  161.4880  205.2960  152.4850 C   0  0  0  0  0  0  0  0  0  0  0  0
  161.5970  205.0340  151.0620 C   0  0  0  0  0  3  0  0  0  0  0  0
  160.8720  204.2970  153.1030 C   0  0  0  0  0  3  0  0  0  0  0  0
  162.0520  206.5180  153.1490 C   0  0  2  0  0  3  0  0  0  0  0  0
  160.5940  209.6830  153.0600 N   0  0  0  0  0  2  0  0  0  0  0  0
  161.1690  208.3780  153.1230 C   0  0  0  0  0  0  0  0  0  0  0  0
  161.0500  207.0600  154.3850 S   0  0  0  0  0  0  0  0  0  0  0  0
  160.1750  211.8580  151.9790 N   0  0  0  0  0  1  0  0  0  0  0  0
  160.7970  210.5780  151.9650 C   0  0  0  0  0  0  0  0  0  0  0  0
  161.5200  210.2480  150.9870 O   0  0  0  0  0  0  0  0  0  0  0  0
  161.9530  207.6730  152.2890 N   0  0  0  0  0  0  0  0  0  0  0  0
  160.7330  201.7830  149.3710 C   0  0  1  0  0  3  0  0  0  0  0  0
  159.4060  201.4480  149.0920 O   0  0  0  0  0  1  0  0  0  0  0  0
  161.6530  201.2450  148.2830 C   0  0  0  0  0  2  0  0  0  0  0  0
  161.4970  199.4210  146.5680 C   0  0  0  0  0  1  0  0  0  0  0  0
  160.8530  200.6850  147.1140 C   0  0  2  0  0  3  0  0  0  0  0  0
  159.9750  201.2230  144.9370 O   0  0  0  0  0  1  0  0  0  0  0  0
  160.7070  201.7290  146.0150 C   0  0  0  0  0  2  0  0  0  0  0  0
  160.1820  206.1380  148.8980 O   0  0  0  0  0  0  0  0  0  0  0  0
  160.9890  205.4060  148.2670 C   0  0  0  0  0  0  0  0  0  0  0  0
  161.9110  206.0260  147.2720 C   0  0  0  0  0  2  0  0  0  0  0  0
  162.0500  205.1370  146.0460 C   0  0  2  0  0  3  0  0  0  0  0  0
  163.3850  205.0770  145.6420 O   0  0  0  0  0  1  0  0  0  0  0  0
  161.2060  205.6560  144.9310 C   0  0  0  0  0  0  0  0  0  0  0  0
  160.0560  206.3800  145.2190 O   0  0  0  0  0  1  0  0  0  0  0  0
  161.5280  205.4430  143.7320 O   0  0  0  0  0  0  0  0  0  0  0  0
  1  3  1  0  0  0  0
  2  1  2  0  0  0  0
  3  6  2  0  0  0  0
  3  4  1  0  0  0  0
  4  7  1  0  0  0  0
  5  7  2  0  0  0  0
  6  5  1  0  0  0  0
  8  5  1  6  0  0  0
  8 11  1  0  0  0  0
  9 10  1  0  0  0  0
 10 11  1  0  0  0  0
 13 12  1  0  0  0  0
 13  9  1  0  0  0  0
 14 13  2  0  0  0  0
 15 10  2  0  0  0  0
 15  8  1  0  0  0  0
 16 17  1  6  0  0  0
 16  1  1  0  0  0  0
 18 16  1  0  0  0  0
 20 19  1  6  0  0  0
 20 18  1  0  0  0  0
 21 22  1  0  0  0  0
 22 20  1  0  0  0  0
 24  2  1  0  0  0  0
 24 23  2  0  0  0  0
 25 24  1  0  0  0  0
 26 27  1  6  0  0  0
 26 25  1  0  0  0  0
 28 29  1  0  0  0  0
 28 26  1  0  0  0  0
 30 28  2  0  0  0  0
M  END
>  <MODEL>
2

>  <REMARK>
 VINA RESULT:      -7.2      2.687      7.527
  Name = 
  10 active torsions:
  status: ('A' for Active; 'I' for Inactive)
    1  A    between atoms: C_2  and  C_25
    2  A    between atoms: C_3  and  C_7
    3  A    between atoms: C_3  and  C_11
    4  A    between atoms: C_4  and  C_8
    5  A    between atoms: C_6  and  C_7
    6  A    between atoms: C_8  and  C_27
    7  A    between atoms: C_11  and  C_30
    8  A    between atoms: N_13  and  C_22
    9  A    between atoms: C_22  and  C_27
   10  A    between atoms: C_24  and  C_30
                            x       y       z     vdW  Elec       q    Type
                         _______ _______ _______ _____ _____    ______ ____

>  <TORSDO>
F 10

$$$$
=
 OpenBabel11052410553D

 30 31  0  0  1  0  0  0  0  0999 V2000
  161.7710  207.9940  150.5170 C   0  0  0  0  0  0  0  0  0  0  0  0
  161.8040  208.3050  149.2490 N   0  0  0  0  0  0  0  0  0  0  0  0
  161.7210  206.6000  151.0100 C   0  0  0  0  0  0  0  0  0  0  0  0
  162.6980  205.9900  151.9650 C   0  0  0  0  0  2  0  0  0  0  0  0
  161.2080  204.4300  151.1810 C   0  0  0  0  0  0  0  0  0  0  0  0
  160.8840  205.6880  150.5360 C   0  0  0  0  0  3  0  0  0  0  0  0
  162.2330  204.5750  152.0110 C   0  0  0  0  0  3  0  0  0  0  0  0
  160.4370  203.1610  150.9590 C   0  0  2  0  0  3  0  0  0  0  0  0
  161.4230  200.5780  148.8360 N   0  0  0  0  0  2  0  0  0  0  0  0
  161.0410  201.6230  149.7310 C   0  0  0  0  0  0  0  0  0  0  0  0
  161.2820  201.8250  151.5320 S   0  0  0  0  0  0  0  0  0  0  0  0
  161.5810  199.5280  146.6120 N   0  0  0  0  0  1  0  0  0  0  0  0
  161.1530  200.6080  147.4330 C   0  0  0  0  0  0  0  0  0  0  0  0
  160.5400  201.5800  146.9150 O   0  0  0  0  0  0  0  0  0  0  0  0
  160.4150  202.8000  149.5620 N   0  0  0  0  0  0  0  0  0  0  0  0
  161.6660  209.0990  151.5230 C   0  0  1  0  0  3  0  0  0  0  0  0
  161.5600  210.3340  150.8790 O   0  0  0  0  0  1  0  0  0  0  0  0
  160.4650  208.8730  152.4310 C   0  0  0  0  0  2  0  0  0  0  0  0
  160.4740  207.4620  154.5050 C   0  0  0  0  0  1  0  0  0  0  0  0
  160.8880  208.7900  153.8920 C   0  0  2  0  0  3  0  0  0  0  0  0
  161.1550  211.0600  154.6480 O   0  0  0  0  0  1  0  0  0  0  0  0
  160.3060  209.9510  154.6870 C   0  0  0  0  0  2  0  0  0  0  0  0
  163.1330  207.3260  147.5780 O   0  0  0  0  0  0  0  0  0  0  0  0
  162.0070  207.4290  148.1320 C   0  0  0  0  0  0  0  0  0  0  0  0
  160.8340  206.7290  147.5330 C   0  0  0  0  0  2  0  0  0  0  0  0
  161.1750  206.2080  146.1450 C   0  0  2  0  0  3  0  0  0  0  0  0
  160.0810  206.3630  145.2900 O   0  0  0  0  0  1  0  0  0  0  0  0
  161.5650  204.7700  146.2120 C   0  0  0  0  0  0  0  0  0  0  0  0
  161.2180  203.9150  145.1750 O   0  0  0  0  0  0  0  0  0  0  0  0
  162.2050  204.3260  147.2020 O   0  0  0  0  0  1  0  0  0  0  0  0
  1  3  1  0  0  0  0
  1 16  1  0  0  0  0
  2  1  2  0  0  0  0
  3  4  1  0  0  0  0
  4  7  1  0  0  0  0
  5  7  2  0  0  0  0
  6  3  2  0  0  0  0
  6  5  1  0  0  0  0
  8  5  1  6  0  0  0
  8 11  1  0  0  0  0
  9 10  1  0  0  0  0
 10 11  1  0  0  0  0
 12 13  1  0  0  0  0
 13  9  1  0  0  0  0
 14 13  2  0  0  0  0
 15 10  2  0  0  0  0
 15  8  1  0  0  0  0
 16 17  1  6  0  0  0
 16 18  1  0  0  0  0
 18 20  1  0  0  0  0
 20 19  1  1  0  0  0
 20 22  1  0  0  0  0
 21 22  1  0  0  0  0
 23 24  2  0  0  0  0
 24  2  1  0  0  0  0
 25 24  1  0  0  0  0
 26 27  1  6  0  0  0
 26 28  1  0  0  0  0
 26 25  1  0  0  0  0
 28 30  1  0  0  0  0
 29 28  2  0  0  0  0
M  END
>  <MODEL>
3

>  <REMARK>
 VINA RESULT:      -7.0      1.401      5.734
  Name = 
  10 active torsions:
  status: ('A' for Active; 'I' for Inactive)
    1  A    between atoms: C_2  and  C_25
    2  A    between atoms: C_3  and  C_7
    3  A    between atoms: C_3  and  C_11
    4  A    between atoms: C_4  and  C_8
    5  A    between atoms: C_6  and  C_7
    6  A    between atoms: C_8  and  C_27
    7  A    between atoms: C_11  and  C_30
    8  A    between atoms: N_13  and  C_22
    9  A    between atoms: C_22  and  C_27
   10  A    between atoms: C_24  and  C_30
                            x       y       z     vdW  Elec       q    Type
                         _______ _______ _______ _____ _____    ______ ____

>  <TORSDO>
F 10

$$$$
=
 OpenBabel11052410553D

 30 31  0  0  1  0  0  0  0  0999 V2000
  161.1560  205.7540  150.1760 C   0  0  0  0  0  0  0  0  0  0  0  0
  161.1890  204.4760  149.9080 N   0  0  0  0  0  0  0  0  0  0  0  0
  161.1760  206.2950  151.5520 C   0  0  0  0  0  0  0  0  0  0  0  0
  160.8980  205.5040  152.7920 C   0  0  0  0  0  2  0  0  0  0  0  0
  161.1600  207.7350  153.2640 C   0  0  0  0  0  0  0  0  0  0  0  0
  161.2940  207.5870  151.8270 C   0  0  0  0  0  3  0  0  0  0  0  0
  160.9440  206.5600  153.8420 C   0  0  0  0  0  3  0  0  0  0  0  0
  161.3020  209.0470  153.9790 C   0  0  2  0  0  3  0  0  0  0  0  0
  158.8080  210.5520  155.8940 N   0  0  0  0  0  2  0  0  0  0  0  0
  159.8380  209.9150  155.1370 C   0  0  0  0  0  0  0  0  0  0  0  0
  161.2310  208.8450  155.6460 S   0  0  0  0  0  0  0  0  0  0  0  0
  156.7860  211.9390  156.1330 N   0  0  0  0  0  1  0  0  0  0  0  0
  157.7810  211.3510  155.3040 C   0  0  0  0  0  0  0  0  0  0  0  0
  157.7470  211.5420  154.0590 O   0  0  0  0  0  0  0  0  0  0  0  0
  160.1180  209.8580  153.8240 N   0  0  0  0  0  0  0  0  0  0  0  0
  160.9780  206.7180  149.0440 C   0  0  1  0  0  3  0  0  0  0  0  0
  162.2000  207.3020  148.7050 O   0  0  0  0  0  1  0  0  0  0  0  0
  160.3790  206.0090  147.8360 C   0  0  0  0  0  2  0  0  0  0  0  0
  160.4100  206.2510  145.3400 C   0  0  0  0  0  1  0  0  0  0  0  0
  161.2540  206.1900  146.6030 C   0  0  2  0  0  3  0  0  0  0  0  0
  162.2800  204.4980  145.2310 O   0  0  0  0  0  1  0  0  0  0  0  0
  162.2830  205.0710  146.5050 C   0  0  0  0  0  2  0  0  0  0  0  0
  162.2940  203.5090  151.7420 O   0  0  0  0  0  0  0  0  0  0  0  0
  161.4540  203.3930  150.8110 C   0  0  0  0  0  0  0  0  0  0  0  0
  160.8220  202.0660  150.5610 C   0  0  0  0  0  2  0  0  0  0  0  0
  160.1090  202.0590  149.2180 C   0  0  2  0  0  3  0  0  0  0  0  0
  158.8860  201.3920  149.3240 O   0  0  0  0  0  1  0  0  0  0  0  0
  160.9570  201.3970  148.1840 C   0  0  0  0  0  0  0  0  0  0  0  0
  160.9500  201.8760  146.8810 O   0  0  0  0  0  0  0  0  0  0  0  0
  161.6780  200.4090  148.4830 O   0  0  0  0  0  1  0  0  0  0  0  0
  1  3  1  0  0  0  0
  2  1  2  0  0  0  0
  2 24  1  0  0  0  0
  3  6  2  0  0  0  0
  3  4  1  0  0  0  0
  4  7  1  0  0  0  0
  5  7  2  0  0  0  0
  6  5  1  0  0  0  0
  8  5  1  6  0  0  0
  8 11  1  0  0  0  0
 10 11  1  0  0  0  0
 10  9  1  0  0  0  0
 13  9  1  0  0  0  0
 13 12  1  0  0  0  0
 14 13  2  0  0  0  0
 15  8  1  0  0  0  0
 15 10  2  0  0  0  0
 16 17  1  6  0  0  0
 16  1  1  0  0  0  0
 18 16  1  0  0  0  0
 20 19  1  6  0  0  0
 20 18  1  0  0  0  0
 21 22  1  0  0  0  0
 22 20  1  0  0  0  0
 24 23  2  0  0  0  0
 25 24  1  0  0  0  0
 26 27  1  1  0  0  0
 26 25  1  0  0  0  0
 28 30  1  0  0  0  0
 28 26  1  0  0  0  0
 29 28  2  0  0  0  0
M  END
>  <MODEL>
4

>  <REMARK>
 VINA RESULT:      -6.6      2.922      7.679
  Name = 
  10 active torsions:
  status: ('A' for Active; 'I' for Inactive)
    1  A    between atoms: C_2  and  C_25
    2  A    between atoms: C_3  and  C_7
    3  A    between atoms: C_3  and  C_11
    4  A    between atoms: C_4  and  C_8
    5  A    between atoms: C_6  and  C_7
    6  A    between atoms: C_8  and  C_27
    7  A    between atoms: C_11  and  C_30
    8  A    between atoms: N_13  and  C_22
    9  A    between atoms: C_22  and  C_27
   10  A    between atoms: C_24  and  C_30
                            x       y       z     vdW  Elec       q    Type
                         _______ _______ _______ _____ _____    ______ ____

>  <TORSDO>
F 10

$$$$
=
 OpenBabel11052410553D

 30 31  0  0  1  0  0  0  0  0999 V2000
  161.5000  206.4680  151.5370 C   0  0  0  0  0  0  0  0  0  0  0  0
  161.3930  207.4950  152.3380 N   0  0  0  0  0  0  0  0  0  0  0  0
  161.5940  206.5920  150.0670 C   0  0  0  0  0  0  0  0  0  0  0  0
  160.9920  207.6970  149.2570 C   0  0  0  0  0  3  0  0  0  0  0  0
  161.9170  206.0820  147.9130 C   0  0  0  0  0  0  0  0  0  0  0  0
  162.0980  205.6470  149.2850 C   0  0  0  0  0  2  0  0  0  0  0  0
  161.2980  207.2550  147.8670 C   0  0  0  0  0  3  0  0  0  0  0  0
  162.4190  205.3120  146.7260 C   0  0  2  0  0  3  0  0  0  0  0  0
  160.5730  202.9330  144.9700 N   0  0  0  0  0  2  0  0  0  0  0  0
  161.3130  203.9340  145.6710 C   0  0  0  0  0  0  0  0  0  0  0  0
  161.5670  205.7130  145.3330 S   0  0  0  0  0  0  0  0  0  0  0  0
  159.7110  200.6470  144.6530 N   0  0  0  0  0  1  0  0  0  0  0  0
  160.4810  201.5760  145.4060 C   0  0  0  0  0  0  0  0  0  0  0  0
  161.0740  201.1920  146.4500 O   0  0  0  0  0  0  0  0  0  0  0  0
  162.0360  203.9230  146.8030 N   0  0  0  0  0  0  0  0  0  0  0  0
  161.4130  205.0920  152.1230 C   0  0  1  0  0  3  0  0  0  0  0  0
  161.2570  205.1620  153.5090 O   0  0  0  0  0  1  0  0  0  0  0  0
  160.2530  204.3270  151.4990 C   0  0  0  0  0  2  0  0  0  0  0  0
  162.0840  202.6150  151.6050 C   0  0  0  0  0  1  0  0  0  0  0  0
  160.6440  202.8860  151.1970 C   0  0  2  0  0  3  0  0  0  0  0  0
  159.8960  201.2940  149.5540 O   0  0  0  0  0  1  0  0  0  0  0  0
  160.4380  202.5710  149.7220 C   0  0  0  0  0  2  0  0  0  0  0  0
  162.6450  209.3330  151.5820 O   0  0  0  0  0  0  0  0  0  0  0  0
  161.5510  208.8830  152.0160 C   0  0  0  0  0  0  0  0  0  0  0  0
  160.4450  209.8330  152.3250 C   0  0  0  0  0  2  0  0  0  0  0  0
  160.7740  210.6510  153.5650 C   0  0  2  0  0  3  0  0  0  0  0  0
  160.6540  209.8600  154.7110 O   0  0  0  0  0  1  0  0  0  0  0  0
  159.8640  211.8290  153.6660 C   0  0  0  0  0  0  0  0  0  0  0  0
  159.9000  212.6290  154.8010 O   0  0  0  0  0  1  0  0  0  0  0  0
  159.0660  212.1030  152.7320 O   0  0  0  0  0  0  0  0  0  0  0  0
  1 16  1  0  0  0  0
  1  2  2  0  0  0  0
  3  1  1  0  0  0  0
  4  3  2  0  0  0  0
  5  6  1  0  0  0  0
  6  3  1  0  0  0  0
  7  5  2  0  0  0  0
  7  4  1  0  0  0  0
  8 15  1  0  0  0  0
  8  5  1  1  0  0  0
  9 13  1  0  0  0  0
  9 10  1  0  0  0  0
 10 15  2  0  0  0  0
 11 10  1  0  0  0  0
 11  8  1  0  0  0  0
 12 13  1  0  0  0  0
 13 14  2  0  0  0  0
 16 17  1  1  0  0  0
 18 16  1  0  0  0  0
 20 18  1  0  0  0  0
 20 19  1  6  0  0  0
 21 22  1  0  0  0  0
 22 20  1  0  0  0  0
 23 24  2  0  0  0  0
 24 25  1  0  0  0  0
 24  2  1  0  0  0  0
 25 26  1  0  0  0  0
 26 28  1  0  0  0  0
 26 27  1  1  0  0  0
 28 29  1  0  0  0  0
 30 28  2  0  0  0  0
M  END
>  <MODEL>
5

>  <REMARK>
 VINA RESULT:      -6.3      2.386      4.035
  Name = 
  10 active torsions:
  status: ('A' for Active; 'I' for Inactive)
    1  A    between atoms: C_2  and  C_25
    2  A    between atoms: C_3  and  C_7
    3  A    between atoms: C_3  and  C_11
    4  A    between atoms: C_4  and  C_8
    5  A    between atoms: C_6  and  C_7
    6  A    between atoms: C_8  and  C_27
    7  A    between atoms: C_11  and  C_30
    8  A    between atoms: N_13  and  C_22
    9  A    between atoms: C_22  and  C_27
   10  A    between atoms: C_24  and  C_30
                            x       y       z     vdW  Elec       q    Type
                         _______ _______ _______ _____ _____    ______ ____

>  <TORSDO>
F 10

$$$$
=
 OpenBabel11052410553D

 30 31  0  0  1  0  0  0  0  0999 V2000
  161.9510  209.2600  149.5920 C   0  0  0  0  0  0  0  0  0  0  0  0
  162.1430  209.3990  150.8760 N   0  0  0  0  0  0  0  0  0  0  0  0
  161.6710  207.9580  148.9490 C   0  0  0  0  0  0  0  0  0  0  0  0
  160.5430  207.0440  149.3140 C   0  0  0  0  0  2  0  0  0  0  0  0
  161.9310  206.0830  147.7580 C   0  0  0  0  0  0  0  0  0  0  0  0
  162.4860  207.3850  148.0750 C   0  0  0  0  0  3  0  0  0  0  0  0
  160.8150  205.8660  148.4430 C   0  0  0  0  0  3  0  0  0  0  0  0
  162.5320  205.1490  146.7480 C   0  0  2  0  0  3  0  0  0  0  0  0
  160.7520  202.7590  144.9400 N   0  0  0  0  0  2  0  0  0  0  0  0
  161.4710  203.7630  145.6570 C   0  0  0  0  0  0  0  0  0  0  0  0
  161.9540  205.4670  145.2020 S   0  0  0  0  0  0  0  0  0  0  0  0
  159.7220  200.5340  144.6980 N   0  0  0  0  0  1  0  0  0  0  0  0
  160.4550  201.4700  145.4790 C   0  0  0  0  0  0  0  0  0  0  0  0
  160.8340  201.1520  146.6380 O   0  0  0  0  0  0  0  0  0  0  0  0
  162.0020  203.8140  146.8900 N   0  0  0  0  0  0  0  0  0  0  0  0
  162.1310  210.4560  148.7080 C   0  0  1  0  0  3  0  0  0  0  0  0
  161.2070  210.4310  147.6610 O   0  0  0  0  0  1  0  0  0  0  0  0
  161.9780  211.7380  149.5160 C   0  0  0  0  0  2  0  0  0  0  0  0
  162.3280  213.7640  148.0790 C   0  0  0  0  0  1  0  0  0  0  0  0
  161.3010  212.8280  148.6950 C   0  0  2  0  0  3  0  0  0  0  0  0
  160.0790  212.9570  150.7660 O   0  0  0  0  0  1  0  0  0  0  0  0
  160.3110  213.6080  149.5520 C   0  0  0  0  0  2  0  0  0  0  0  0
  162.5550  207.3380  151.9230 O   0  0  0  0  0  0  0  0  0  0  0  0
  161.9260  208.4290  151.9100 C   0  0  0  0  0  0  0  0  0  0  0  0
  160.8440  208.6580  152.9090 C   0  0  0  0  0  2  0  0  0  0  0  0
  161.2080  208.0280  154.2440 C   0  0  2  0  0  3  0  0  0  0  0  0
  160.4580  206.8680  154.4520 O   0  0  0  0  0  1  0  0  0  0  0  0
  160.9650  208.9930  155.3560 C   0  0  0  0  0  0  0  0  0  0  0  0
  160.0830  208.6580  156.3750 O   0  0  0  0  0  1  0  0  0  0  0  0
  161.5510  210.1070  155.3770 O   0  0  0  0  0  0  0  0  0  0  0  0
  1  2  2  0  0  0  0
  2 24  1  0  0  0  0
  3  4  1  0  0  0  0
  3  1  1  0  0  0  0
  5  6  1  0  0  0  0
  5  7  2  0  0  0  0
  6  3  2  0  0  0  0
  7  4  1  0  0  0  0
  8 15  1  0  0  0  0
  8  5  1  1  0  0  0
  9 13  1  0  0  0  0
  9 10  1  0  0  0  0
 10 15  2  0  0  0  0
 11 10  1  0  0  0  0
 11  8  1  0  0  0  0
 12 13  1  0  0  0  0
 13 14  2  0  0  0  0
 16 17  1  6  0  0  0
 16 18  1  0  0  0  0
 16  1  1  0  0  0  0
 20 19  1  1  0  0  0
 20 18  1  0  0  0  0
 20 22  1  0  0  0  0
 22 21  1  0  0  0  0
 24 23  2  0  0  0  0
 24 25  1  0  0  0  0
 25 26  1  0  0  0  0
 26 27  1  1  0  0  0
 26 28  1  0  0  0  0
 28 30  2  0  0  0  0
 28 29  1  0  0  0  0
M  END
>  <MODEL>
6

>  <REMARK>
 VINA RESULT:      -6.3      2.794      4.192
  Name = 
  10 active torsions:
  status: ('A' for Active; 'I' for Inactive)
    1  A    between atoms: C_2  and  C_25
    2  A    between atoms: C_3  and  C_7
    3  A    between atoms: C_3  and  C_11
    4  A    between atoms: C_4  and  C_8
    5  A    between atoms: C_6  and  C_7
    6  A    between atoms: C_8  and  C_27
    7  A    between atoms: C_11  and  C_30
    8  A    between atoms: N_13  and  C_22
    9  A    between atoms: C_22  and  C_27
   10  A    between atoms: C_24  and  C_30
                            x       y       z     vdW  Elec       q    Type
                         _______ _______ _______ _____ _____    ______ ____

>  <TORSDO>
F 10

$$$$
=
 OpenBabel11052410553D

 30 31  0  0  1  0  0  0  0  0999 V2000
  161.3430  205.6920  150.4540 C   0  0  0  0  0  0  0  0  0  0  0  0
  161.2060  205.2560  149.2300 N   0  0  0  0  0  0  0  0  0  0  0  0
  161.5780  207.1130  150.7880 C   0  0  0  0  0  0  0  0  0  0  0  0
  162.2940  208.0950  149.9150 C   0  0  0  0  0  3  0  0  0  0  0  0
  161.7750  209.0110  151.9550 C   0  0  0  0  0  0  0  0  0  0  0  0
  161.3100  207.6370  151.9760 C   0  0  0  0  0  2  0  0  0  0  0  0
  162.3310  209.3030  150.7860 C   0  0  0  0  0  3  0  0  0  0  0  0
  161.5920  209.9660  153.0980 C   0  0  2  0  0  3  0  0  0  0  0  0
  158.5100  211.0450  154.3180 N   0  0  0  0  0  2  0  0  0  0  0  0
  159.7690  210.5730  153.8370 C   0  0  0  0  0  0  0  0  0  0  0  0
  160.8530  209.2160  154.4090 S   0  0  0  0  0  0  0  0  0  0  0  0
  156.5420  212.5270  154.2560 N   0  0  0  0  0  1  0  0  0  0  0  0
  157.7980  212.1300  153.7190 C   0  0  0  0  0  0  0  0  0  0  0  0
  158.2700  212.7390  152.7220 O   0  0  0  0  0  0  0  0  0  0  0  0
  160.5600  210.9340  152.8120 N   0  0  0  0  0  0  0  0  0  0  0  0
  161.3750  204.6920  151.5690 C   0  0  1  0  0  3  0  0  0  0  0  0
  161.2100  205.3320  152.8000 O   0  0  0  0  0  1  0  0  0  0  0  0
  160.2880  203.6440  151.3700 C   0  0  0  0  0  2  0  0  0  0  0  0
  162.3240  202.2030  151.6360 C   0  0  0  0  0  1  0  0  0  0  0  0
  160.8920  202.2660  151.1300 C   0  0  2  0  0  3  0  0  0  0  0  0
  159.5940  201.3360  149.3290 O   0  0  0  0  0  1  0  0  0  0  0  0
  160.8290  201.9010  149.6530 C   0  0  0  0  0  2  0  0  0  0  0  0
  159.9470  206.5780  147.7520 O   0  0  0  0  0  0  0  0  0  0  0  0
  161.0460  206.0300  148.0330 C   0  0  0  0  0  0  0  0  0  0  0  0
  162.1570  206.0750  147.0400 C   0  0  0  0  0  2  0  0  0  0  0  0
  162.5940  204.6670  146.6640 C   0  0  2  0  0  3  0  0  0  0  0  0
  163.8310  204.7020  146.0160 O   0  0  0  0  0  1  0  0  0  0  0  0
  161.5770  204.0280  145.7790 C   0  0  0  0  0  0  0  0  0  0  0  0
  161.0500  204.7430  144.7120 O   0  0  0  0  0  0  0  0  0  0  0  0
  161.1930  202.8480  145.9930 O   0  0  0  0  0  1  0  0  0  0  0  0
  1  3  1  0  0  0  0
  1 16  1  0  0  0  0
  2  1  2  0  0  0  0
  3  6  1  0  0  0  0
  4  7  1  0  0  0  0
  4  3  2  0  0  0  0
  5  6  1  0  0  0  0
  7  5  2  0  0  0  0
  8  5  1  6  0  0  0
  8 11  1  0  0  0  0
 10  9  1  0  0  0  0
 10 11  1  0  0  0  0
 13 12  1  0  0  0  0
 13  9  1  0  0  0  0
 14 13  2  0  0  0  0
 15  8  1  0  0  0  0
 15 10  2  0  0  0  0
 16 17  1  1  0  0  0
 18 16  1  0  0  0  0
 20 18  1  0  0  0  0
 20 19  1  6  0  0  0
 21 22  1  0  0  0  0
 22 20  1  0  0  0  0
 23 24  2  0  0  0  0
 24  2  1  0  0  0  0
 25 24  1  0  0  0  0
 26 27  1  6  0  0  0
 26 25  1  0  0  0  0
 28 30  1  0  0  0  0
 28 26  1  0  0  0  0
 29 28  2  0  0  0  0
M  END
>  <MODEL>
7

>  <REMARK>
 VINA RESULT:      -6.1      2.880      8.217
  Name = 
  10 active torsions:
  status: ('A' for Active; 'I' for Inactive)
    1  A    between atoms: C_2  and  C_25
    2  A    between atoms: C_3  and  C_7
    3  A    between atoms: C_3  and  C_11
    4  A    between atoms: C_4  and  C_8
    5  A    between atoms: C_6  and  C_7
    6  A    between atoms: C_8  and  C_27
    7  A    between atoms: C_11  and  C_30
    8  A    between atoms: N_13  and  C_22
    9  A    between atoms: C_22  and  C_27
   10  A    between atoms: C_24  and  C_30
                            x       y       z     vdW  Elec       q    Type
                         _______ _______ _______ _____ _____    ______ ____

>  <TORSDO>
F 10

$$$$
=
 OpenBabel11052410553D

 30 31  0  0  1  0  0  0  0  0999 V2000
  161.1150  205.5990  148.9390 C   0  0  0  0  0  0  0  0  0  0  0  0
  160.9150  204.4040  149.4280 N   0  0  0  0  0  0  0  0  0  0  0  0
  161.3520  206.7920  149.7810 C   0  0  0  0  0  0  0  0  0  0  0  0
  162.6330  207.5640  149.8360 C   0  0  0  0  0  3  0  0  0  0  0  0
  161.1230  208.3320  151.3860 C   0  0  0  0  0  0  0  0  0  0  0  0
  160.4970  207.2180  150.7000 C   0  0  0  0  0  2  0  0  0  0  0  0
  162.3390  208.5590  150.9060 C   0  0  0  0  0  3  0  0  0  0  0  0
  160.4430  209.1340  152.4570 C   0  0  2  0  0  3  0  0  0  0  0  0
  162.0840  210.8140  155.0330 N   0  0  0  0  0  2  0  0  0  0  0  0
  161.4180  210.1530  153.9560 C   0  0  0  0  0  0  0  0  0  0  0  0
  160.8290  210.7660  152.3370 S   0  0  0  0  0  0  0  0  0  0  0  0
  163.1530  210.8840  157.2520 N   0  0  0  0  0  1  0  0  0  0  0  0
  162.4830  210.1500  156.2340 C   0  0  0  0  0  0  0  0  0  0  0  0
  162.2490  208.9230  156.4010 O   0  0  0  0  0  0  0  0  0  0  0  0
  161.0290  208.8840  153.7520 N   0  0  0  0  0  0  0  0  0  0  0  0
  160.9890  205.7970  147.4590 C   0  0  1  0  0  3  0  0  0  0  0  0
  160.5830  207.1030  147.1760 O   0  0  0  0  0  1  0  0  0  0  0  0
  162.3140  205.4960  146.7720 C   0  0  0  0  0  2  0  0  0  0  0  0
  161.2500  205.1580  144.5260 C   0  0  0  0  0  1  0  0  0  0  0  0
  162.1230  204.5360  145.6050 C   0  0  2  0  0  3  0  0  0  0  0  0
  160.5000  202.7970  145.2340 O   0  0  0  0  0  1  0  0  0  0  0  0
  161.5250  203.2200  146.0840 C   0  0  0  0  0  2  0  0  0  0  0  0
  161.9400  204.5010  151.5390 O   0  0  0  0  0  0  0  0  0  0  0  0
  161.0850  203.9670  150.7830 C   0  0  0  0  0  0  0  0  0  0  0  0
  160.3310  202.7740  151.2640 C   0  0  0  0  0  2  0  0  0  0  0  0
  160.9850  201.4940  150.7670 C   0  0  2  0  0  3  0  0  0  0  0  0
  162.3760  201.6070  150.8280 O   0  0  0  0  0  1  0  0  0  0  0  0
  160.5620  201.2060  149.3650 C   0  0  0  0  0  0  0  0  0  0  0  0
  159.2500  201.4490  148.9810 O   0  0  0  0  0  1  0  0  0  0  0  0
  161.3830  200.7450  148.5300 O   0  0  0  0  0  0  0  0  0  0  0  0
  1  2  2  0  0  0  0
  1  3  1  0  0  0  0
  2 24  1  0  0  0  0
  3  4  2  0  0  0  0
  3  6  1  0  0  0  0
  4  7  1  0  0  0  0
  6  5  1  0  0  0  0
  7  5  2  0  0  0  0
  8  5  1  6  0  0  0
  8 15  1  0  0  0  0
  9 13  1  0  0  0  0
 10  9  1  0  0  0  0
 11  8  1  0  0  0  0
 11 10  1  0  0  0  0
 13 14  2  0  0  0  0
 13 12  1  0  0  0  0
 15 10  2  0  0  0  0
 16 17  1  1  0  0  0
 16  1  1  0  0  0  0
 18 16  1  0  0  0  0
 20 19  1  6  0  0  0
 20 22  1  0  0  0  0
 20 18  1  0  0  0  0
 21 22  1  0  0  0  0
 24 25  1  0  0  0  0
 24 23  2  0  0  0  0
 26 27  1  6  0  0  0
 26 25  1  0  0  0  0
 28 26  1  0  0  0  0
 29 28  1  0  0  0  0
 30 28  2  0  0  0  0
M  END
>  <MODEL>
8

>  <REMARK>
 VINA RESULT:      -6.0      2.916      7.373
  Name = 
  10 active torsions:
  status: ('A' for Active; 'I' for Inactive)
    1  A    between atoms: C_2  and  C_25
    2  A    between atoms: C_3  and  C_7
    3  A    between atoms: C_3  and  C_11
    4  A    between atoms: C_4  and  C_8
    5  A    between atoms: C_6  and  C_7
    6  A    between atoms: C_8  and  C_27
    7  A    between atoms: C_11  and  C_30
    8  A    between atoms: N_13  and  C_22
    9  A    between atoms: C_22  and  C_27
   10  A    between atoms: C_24  and  C_30
                            x       y       z     vdW  Elec       q    Type
                         _______ _______ _______ _____ _____    ______ ____

>  <TORSDO>
F 10

$$$$
=
 OpenBabel11052410553D

 30 31  0  0  1  0  0  0  0  0999 V2000
  161.5970  207.9770  151.6900 C   0  0  0  0  0  0  0  0  0  0  0  0
  161.0600  208.3560  152.8180 N   0  0  0  0  0  0  0  0  0  0  0  0
  161.7090  208.8570  150.5070 C   0  0  0  0  0  0  0  0  0  0  0  0
  161.7290  208.3890  149.0860 C   0  0  0  0  0  3  0  0  0  0  0  0
  162.1030  210.6500  149.2280 C   0  0  0  0  0  0  0  0  0  0  0  0
  161.9570  210.1570  150.5850 C   0  0  0  0  0  2  0  0  0  0  0  0
  161.9660  209.6640  148.3510 C   0  0  0  0  0  3  0  0  0  0  0  0
  162.3260  212.0950  148.8900 C   0  0  2  0  0  3  0  0  0  0  0  0
  161.2520  213.6440  145.9580 N   0  0  0  0  0  2  0  0  0  0  0  0
  161.6590  213.0140  147.1730 C   0  0  0  0  0  0  0  0  0  0  0  0
  160.8740  212.9390  148.8230 S   0  0  0  0  0  0  0  0  0  0  0  0
  161.5210  214.2260  143.5790 N   0  0  0  0  0  1  0  0  0  0  0  0
  162.0080  213.5770  144.7480 C   0  0  0  0  0  0  0  0  0  0  0  0
  163.1000  212.9510  144.7030 O   0  0  0  0  0  0  0  0  0  0  0  0
  162.7160  212.2560  147.5110 N   0  0  0  0  0  0  0  0  0  0  0  0
  162.0240  206.5480  151.5450 C   0  0  1  0  0  3  0  0  0  0  0  0
  162.5980  206.0890  152.7320 O   0  0  0  0  0  1  0  0  0  0  0  0
  160.8330  205.6780  151.1650 C   0  0  0  0  0  2  0  0  0  0  0  0
  160.8480  204.8320  148.8040 C   0  0  0  0  0  1  0  0  0  0  0  0
  161.2540  204.5430  150.2400 C   0  0  2  0  0  3  0  0  0  0  0  0
  161.1910  202.8460  151.9460 O   0  0  0  0  0  1  0  0  0  0  0  0
  160.6610  203.2210  150.7090 C   0  0  0  0  0  2  0  0  0  0  0  0
  159.6210  210.2120  152.7850 O   0  0  0  0  0  0  0  0  0  0  0  0
  160.6810  209.6820  153.2110 C   0  0  0  0  0  0  0  0  0  0  0  0
  161.6230  210.4960  154.0320 C   0  0  0  0  0  2  0  0  0  0  0  0
  161.2100  210.4760  155.4960 C   0  0  2  0  0  3  0  0  0  0  0  0
  160.8750  211.7640  155.9200 O   0  0  0  0  0  1  0  0  0  0  0  0
  162.3170  209.9380  156.3390 C   0  0  0  0  0  0  0  0  0  0  0  0
  163.4090  210.7430  156.6350 O   0  0  0  0  0  0  0  0  0  0  0  0
  162.2690  208.7600  156.7830 O   0  0  0  0  0  1  0  0  0  0  0  0
  1  2  2  0  0  0  0
  2 24  1  0  0  0  0
  3  6  1  0  0  0  0
  3  1  1  0  0  0  0
  4  3  2  0  0  0  0
  5  6  1  0  0  0  0
  7  4  1  0  0  0  0
  7  5  2  0  0  0  0
  8  5  1  6  0  0  0
  9 10  1  0  0  0  0
 10 15  2  0  0  0  0
 10 11  1  0  0  0  0
 11  8  1  0  0  0  0
 12 13  1  0  0  0  0
 13  9  1  0  0  0  0
 14 13  2  0  0  0  0
 15  8  1  0  0  0  0
 16  1  1  0  0  0  0
 16 17  1  1  0  0  0
 18 16  1  0  0  0  0
 20 19  1  6  0  0  0
 20 22  1  0  0  0  0
 20 18  1  0  0  0  0
 22 21  1  0  0  0  0
 23 24  2  0  0  0  0
 24 25  1  0  0  0  0
 25 26  1  0  0  0  0
 26 27  1  1  0  0  0
 26 28  1  0  0  0  0
 28 29  2  0  0  0  0
 28 30  1  0  0  0  0
M  END
>  <MODEL>
9

>  <REMARK>
 VINA RESULT:      -6.0      4.227      7.053
  Name = 
  10 active torsions:
  status: ('A' for Active; 'I' for Inactive)
    1  A    between atoms: C_2  and  C_25
    2  A    between atoms: C_3  and  C_7
    3  A    between atoms: C_3  and  C_11
    4  A    between atoms: C_4  and  C_8
    5  A    between atoms: C_6  and  C_7
    6  A    between atoms: C_8  and  C_27
    7  A    between atoms: C_11  and  C_30
    8  A    between atoms: N_13  and  C_22
    9  A    between atoms: C_22  and  C_27
   10  A    between atoms: C_24  and  C_30
                            x       y       z     vdW  Elec       q    Type
                         _______ _______ _______ _____ _____    ______ ____

>  <TORSDO>
F 10

$$$$
