=
 OpenBabel11042421143D

 32 37  0  0  1  0  0  0  0  0999 V2000
  160.0760  204.9540  152.1800 O   0  0  0  0  0  0  0  0  0  0  0  0
  161.5940  206.5760  153.9140 N   0  0  0  0  0  2  0  0  0  0  0  0
  162.6300  209.4630  157.1260 N   0  0  0  0  0  0  0  0  0  0  0  0
  161.9630  207.0380  152.6340 N   0  0  1  0  0  0  0  0  0  0  0  0
  162.6390  210.6580  156.5860 C   0  0  0  0  0  0  0  0  0  0  0  0
  162.1840  205.9210  151.8000 N   0  0  0  0  0  0  0  0  0  0  0  0
  160.1810  208.4520  153.3160 C   0  0  2  0  0  3  0  0  0  0  0  0
  163.4670  205.8580  151.1050 C   0  0  0  0  0  2  0  0  0  0  0  0
  161.9840  208.3300  156.5040 C   0  0  0  0  0  3  0  0  0  0  0  0
  161.3640  208.5050  155.3390 C   0  0  0  0  0  0  0  0  0  0  0  0
  160.7150  209.7960  153.6000 N   0  0  0  0  0  0  0  0  0  0  0  0
  161.3090  208.8070  151.0500 C   0  0  0  0  0  2  0  0  0  0  0  0
  160.8580  207.1310  147.7060 C   0  0  0  0  0  1  0  0  0  0  0  0
  161.1980  204.8820  151.6080 C   0  0  0  0  0  0  0  0  0  0  0  0
  161.3440  209.7790  154.7190 C   0  0  0  0  0  0  0  0  0  0  0  0
  161.6200  208.0910  149.7750 C   0  0  0  0  0  0  0  0  0  0  0  0
  161.9880  210.8960  155.3240 N   0  0  0  0  0  2  0  0  0  0  0  0
  163.2970  211.7280  157.2540 N   0  0  0  0  0  1  0  0  0  0  0  0
  163.0560  207.7460  149.4790 C   0  0  0  0  0  2  0  0  0  0  0  0
  160.6480  207.5430  154.4710 C   0  0  2  0  0  3  0  0  0  0  0  0
  163.3130  206.2500  149.6390 C   0  0  0  0  0  2  0  0  0  0  0  0
  160.6570  207.8010  148.9670 N   0  0  0  0  0  0  0  0  0  0  0  0
  160.8430  207.8140  152.1130 C   0  0  1  0  0  3  0  0  0  0  0  0
  161.1620  200.5960  147.0340 C   0  0  0  0  0  2  0  0  0  0  0  0
  161.1420  200.2000  148.3950 O   0  0  0  0  0  0  0  0  0  0  0  0
  161.1580  201.2310  150.5080 N   0  0  0  0  0  0  0  0  0  0  0  0
  161.1400  202.3930  151.4070 C   0  0  0  0  0  2  0  0  0  0  0  0
  161.4830  203.7170  150.7110 C   0  0  1  0  0  3  0  0  0  0  0  0
  161.1330  202.1320  147.0510 C   0  0  0  0  0  2  0  0  0  0  0  0
  160.5880  203.8930  149.1320 S   0  0  0  0  0  0  0  0  0  0  0  0
  161.3000  201.2910  149.2180 C   0  0  0  0  0  0  0  0  0  0  0  0
  161.5650  202.5270  148.4570 C   0  0  1  0  0  3  0  0  0  0  0  0
  4  2  1  1  0  0  0
  5  3  2  0  0  0  0
  5 18  1  0  0  0  0
  6  4  1  0  0  0  0
  7 11  1  1  0  0  0
  7 20  1  0  0  0  0
  8  6  1  0  0  0  0
  9  3  1  0  0  0  0
 10  9  2  0  0  0  0
 11 15  2  0  0  0  0
 13 22  1  0  0  0  0
 14  6  1  0  0  0  0
 14  1  2  0  0  0  0
 15 17  1  0  0  0  0
 15 10  1  0  0  0  0
 16 12  1  0  0  0  0
 17  5  1  0  0  0  0
 19 21  1  0  0  0  0
 19 16  1  0  0  0  0
 20  2  1  6  0  0  0
 20 10  1  0  0  0  0
 21  8  1  0  0  0  0
 22 16  2  0  0  0  0
 23 12  1  6  0  0  0
 23  4  1  0  0  0  0
 23  7  1  0  0  0  0
 24 29  1  0  0  0  0
 24 25  1  0  0  0  0
 25 31  1  0  0  0  0
 26 27  1  0  0  0  0
 28 27  1  0  0  0  0
 28 14  1  1  0  0  0
 30 28  1  0  0  0  0
 31 26  2  0  0  0  0
 32 29  1  6  0  0  0
 32 30  1  0  0  0  0
 32 31  1  0  0  0  0
M  END
>  <MODEL>
1

>  <REMARK>
 VINA RESULT:      -2.7      0.000      0.000
  Name = 
  1 active torsions:
  status: ('A' for Active; 'I' for Inactive)
    1  A    between atoms: C_16  and  C_20
                            x       y       z     vdW  Elec       q    Type
                         _______ _______ _______ _____ _____    ______ ____

>  <TORSDO>
F 1

$$$$
=
 OpenBabel11042421143D

 32 37  0  0  1  0  0  0  0  0999 V2000
  163.0560  207.6710  150.0230 O   0  0  0  0  0  0  0  0  0  0  0  0
  161.0080  209.0040  151.4270 N   0  0  0  0  0  2  0  0  0  0  0  0
  158.9550  211.6580  154.3350 N   0  0  0  0  0  0  0  0  0  0  0  0
  160.7080  207.6420  151.6340 N   0  0  1  0  0  0  0  0  0  0  0  0
  158.7460  210.9550  155.4230 C   0  0  0  0  0  0  0  0  0  0  0  0
  160.8500  206.9580  150.4080 N   0  0  0  0  0  0  0  0  0  0  0  0
  162.0270  208.2820  153.5020 C   0  0  2  0  0  3  0  0  0  0  0  0
  159.7120  206.1600  149.9590 C   0  0  0  0  0  2  0  0  0  0  0  0
  159.9120  211.2680  153.3260 C   0  0  0  0  0  3  0  0  0  0  0  0
  160.6180  210.1540  153.5060 C   0  0  0  0  0  0  0  0  0  0  0  0
  161.1740  208.3190  154.7040 N   0  0  0  0  0  0  0  0  0  0  0  0
  161.1420  205.8910  153.3110 C   0  0  0  0  0  2  0  0  0  0  0  0
  162.3740  202.8780  151.4140 C   0  0  0  0  0  1  0  0  0  0  0  0
  162.0610  207.0110  149.6190 C   0  0  0  0  0  0  0  0  0  0  0  0
  160.4290  209.3640  154.6670 C   0  0  0  0  0  0  0  0  0  0  0  0
  161.1620  204.7070  152.3980 C   0  0  0  0  0  0  0  0  0  0  0  0
  159.4800  209.7390  155.6610 N   0  0  0  0  0  2  0  0  0  0  0  0
  157.7860  211.3970  156.3750 N   0  0  0  0  0  1  0  0  0  0  0  0
  159.8900  204.3290  151.6880 C   0  0  0  0  0  2  0  0  0  0  0  0
  161.6350  209.5050  152.6490 C   0  0  2  0  0  3  0  0  0  0  0  0
  159.9570  204.6750  150.2030 C   0  0  0  0  0  2  0  0  0  0  0  0
  162.2600  204.0440  152.2550 N   0  0  0  0  0  0  0  0  0  0  0  0
  161.6820  207.1250  152.5890 C   0  0  1  0  0  3  0  0  0  0  0  0
  161.0280  204.5170  143.9620 C   0  0  0  0  0  2  0  0  0  0  0  0
  161.4160  203.6980  145.0530 O   0  0  0  0  0  0  0  0  0  0  0  0
  161.9540  203.9660  147.3250 N   0  0  0  0  0  0  0  0  0  0  0  0
  162.1110  204.7510  148.5580 C   0  0  0  0  0  2  0  0  0  0  0  0
  162.1590  206.2660  148.3240 C   0  0  1  0  0  3  0  0  0  0  0  0
  160.9050  205.9370  144.5350 C   0  0  0  0  0  2  0  0  0  0  0  0
  160.8490  206.8060  147.1760 S   0  0  0  0  0  0  0  0  0  0  0  0
  161.7250  204.4690  146.1490 C   0  0  0  0  0  0  0  0  0  0  0  0
  161.6860  205.9110  145.8430 C   0  0  1  0  0  3  0  0  0  0  0  0
  3  5  2  0  0  0  0
  4  2  1  6  0  0  0
  4 23  1  0  0  0  0
  5 17  1  0  0  0  0
  5 18  1  0  0  0  0
  6  4  1  0  0  0  0
  7 11  1  1  0  0  0
  8 21  1  0  0  0  0
  8  6  1  0  0  0  0
  9 10  2  0  0  0  0
  9  3  1  0  0  0  0
 10 15  1  0  0  0  0
 13 22  1  0  0  0  0
 14  1  2  0  0  0  0
 14  6  1  0  0  0  0
 15 11  2  0  0  0  0
 15 17  1  0  0  0  0
 16 12  1  0  0  0  0
 19 16  1  0  0  0  0
 20  2  1  6  0  0  0
 20  7  1  0  0  0  0
 20 10  1  0  0  0  0
 21 19  1  0  0  0  0
 22 16  2  0  0  0  0
 23 12  1  1  0  0  0
 23  7  1  0  0  0  0
 24 29  1  0  0  0  0
 24 25  1  0  0  0  0
 25 31  1  0  0  0  0
 26 27  1  0  0  0  0
 28 27  1  0  0  0  0
 28 14  1  1  0  0  0
 30 28  1  0  0  0  0
 31 26  2  0  0  0  0
 32 29  1  6  0  0  0
 32 31  1  0  0  0  0
 32 30  1  0  0  0  0
M  END
>  <MODEL>
2

>  <REMARK>
 VINA RESULT:      -2.0      2.608      3.930
  Name = 
  1 active torsions:
  status: ('A' for Active; 'I' for Inactive)
    1  A    between atoms: C_16  and  C_20
                            x       y       z     vdW  Elec       q    Type
                         _______ _______ _______ _____ _____    ______ ____

>  <TORSDO>
F 1

$$$$
=
 OpenBabel11042421143D

 32 37  0  0  1  0  0  0  0  0999 V2000
  163.1210  207.2520  148.5280 O   0  0  0  0  0  0  0  0  0  0  0  0
  161.3540  209.1800  149.5780 N   0  0  0  0  0  2  0  0  0  0  0  0
  159.8520  212.8820  151.5160 N   0  0  0  0  0  0  0  0  0  0  0  0
  161.0430  208.0200  150.3170 N   0  0  1  0  0  0  0  0  0  0  0  0
  159.7860  212.6470  152.8050 C   0  0  0  0  0  0  0  0  0  0  0  0
  160.9750  206.9250  149.4290 N   0  0  0  0  0  0  0  0  0  0  0  0
  162.6480  209.1800  151.6250 C   0  0  2  0  0  3  0  0  0  0  0  0
  159.7560  206.1210  149.4600 C   0  0  0  0  0  2  0  0  0  0  0  0
  160.6330  212.0680  150.6130 C   0  0  0  0  0  3  0  0  0  0  0  0
  161.3200  211.0400  151.1070 C   0  0  0  0  0  0  0  0  0  0  0  0
  161.9870  209.7290  152.8240 N   0  0  0  0  0  0  0  0  0  0  0  0
  161.6650  206.9730  152.4580 C   0  0  0  0  0  2  0  0  0  0  0  0
  162.4940  203.3790  151.6880 C   0  0  0  0  0  1  0  0  0  0  0  0
  162.0540  206.5790  148.5310 C   0  0  0  0  0  0  0  0  0  0  0  0
  161.2820  210.7490  152.4930 C   0  0  0  0  0  0  0  0  0  0  0  0
  161.5070  205.5400  152.0600 C   0  0  0  0  0  0  0  0  0  0  0  0
  160.5060  211.5430  153.3860 N   0  0  0  0  0  2  0  0  0  0  0  0
  158.9960  213.4890  153.6350 N   0  0  0  0  0  1  0  0  0  0  0  0
  160.1300  205.0410  151.7110 C   0  0  0  0  0  2  0  0  0  0  0  0
  162.1740  210.0360  150.4340 C   0  0  2  0  0  3  0  0  0  0  0  0
  159.9850  204.8130  150.2100 C   0  0  0  0  0  2  0  0  0  0  0  0
  162.5480  204.7780  152.0380 N   0  0  0  0  0  0  0  0  0  0  0  0
  162.1310  207.8050  151.2640 C   0  0  1  0  0  3  0  0  0  0  0  0
  160.1020  202.2940  144.3950 C   0  0  0  0  0  2  0  0  0  0  0  0
  160.6140  201.8990  145.6560 O   0  0  0  0  0  0  0  0  0  0  0  0
  161.4930  202.9300  147.5770 N   0  0  0  0  0  0  0  0  0  0  0  0
  161.8610  204.0930  148.3970 C   0  0  0  0  0  2  0  0  0  0  0  0
  161.9320  205.4070  147.6070 C   0  0  1  0  0  3  0  0  0  0  0  0
  160.1190  203.8300  144.4040 C   0  0  0  0  0  2  0  0  0  0  0  0
  160.4880  205.6060  146.5110 S   0  0  0  0  0  0  0  0  0  0  0  0
  161.1120  202.9860  146.3360 C   0  0  0  0  0  0  0  0  0  0  0  0
  161.0830  204.2140  145.5200 C   0  0  1  0  0  3  0  0  0  0  0  0
  1 14  2  0  0  0  0
  3  5  2  0  0  0  0
  4  2  1  6  0  0  0
  4 23  1  0  0  0  0
  5 17  1  0  0  0  0
  5 18  1  0  0  0  0
  6  8  1  0  0  0  0
  6  4  1  0  0  0  0
  7 11  1  1  0  0  0
  8 21  1  0  0  0  0
  9 10  2  0  0  0  0
  9  3  1  0  0  0  0
 10 15  1  0  0  0  0
 13 22  1  0  0  0  0
 14  6  1  0  0  0  0
 15 11  2  0  0  0  0
 15 17  1  0  0  0  0
 16 12  1  0  0  0  0
 19 16  1  0  0  0  0
 20  2  1  6  0  0  0
 20 10  1  0  0  0  0
 20  7  1  0  0  0  0
 21 19  1  0  0  0  0
 22 16  2  0  0  0  0
 23  7  1  0  0  0  0
 23 12  1  1  0  0  0
 24 29  1  0  0  0  0
 24 25  1  0  0  0  0
 25 31  1  0  0  0  0
 26 27  1  0  0  0  0
 28 27  1  0  0  0  0
 28 14  1  1  0  0  0
 30 28  1  0  0  0  0
 31 26  2  0  0  0  0
 32 29  1  6  0  0  0
 32 31  1  0  0  0  0
 32 30  1  0  0  0  0
M  END
>  <MODEL>
3

>  <REMARK>
 VINA RESULT:      -0.9      2.706      4.126
  Name = 
  1 active torsions:
  status: ('A' for Active; 'I' for Inactive)
    1  A    between atoms: C_16  and  C_20
                            x       y       z     vdW  Elec       q    Type
                         _______ _______ _______ _____ _____    ______ ____

>  <TORSDO>
F 1

$$$$
