=
 OpenBabel11042420143D

 25 27  0  0  1  0  0  0  0  0999 V2000
  160.1800  205.8960  149.0570 C   0  0  2  0  0  3  0  0  0  0  0  0
  161.7590  204.6370  151.3300 N   0  0  0  0  0  0  0  0  0  0  0  0
  160.2440  206.9940  150.0080 N   0  0  0  0  0  2  0  0  0  0  0  0
  160.7500  208.2300  152.0040 C   0  0  0  0  0  3  0  0  0  0  0  0
  161.1240  204.0090  150.3890 C   0  0  0  0  0  0  0  0  0  0  0  0
  162.0860  206.1260  153.1890 C   0  0  0  0  0  3  0  0  0  0  0  0
  161.3260  208.3660  153.2650 C   0  0  0  0  0  0  0  0  0  0  0  0
  160.8430  207.0190  151.3100 C   0  0  0  0  0  0  0  0  0  0  0  0
  161.5200  205.9250  151.9240 C   0  0  0  0  0  0  0  0  0  0  0  0
  161.9750  207.3170  153.8290 N   0  0  0  0  0  0  0  0  0  0  0  0
  159.8990  204.5710  149.7480 C   0  0  0  0  0  2  0  0  0  0  0  0
  161.0020  205.0590  145.6020 N   0  0  0  0  0  0  0  0  0  0  0  0
  161.2910  205.9430  147.9860 C   0  0  2  0  0  0  0  0  0  0  0  0
  160.5800  206.5680  146.4150 S   0  0  0  0  0  0  0  0  0  0  0  0
  162.0010  202.9380  145.8920 N   0  0  0  0  0  1  0  0  0  0  0  0
  161.7850  204.6020  147.7160 N   0  0  0  0  0  2  0  0  0  0  0  0
  161.5820  204.2100  146.3710 C   0  0  0  0  0  0  0  0  0  0  0  0
  162.4150  206.8090  148.3720 C   0  0  0  0  0  0  0  0  0  0  0  0
  163.3330  207.5230  148.6920 C   0  0  0  0  0  3  0  0  0  0  0  0
  161.2050  209.6520  154.0060 C   0  0  0  0  0  2  0  0  0  0  0  0
  162.3000  210.6560  155.6420 C   0  0  0  0  0  1  0  0  0  0  0  0
  161.6250  209.4770  155.3250 O   0  0  0  0  0  0  0  0  0  0  0  0
  161.6140  202.7660  149.9810 O   0  0  0  0  0  0  0  0  0  0  0  0
  160.7850  201.6200  149.8520 C   0  0  0  0  0  2  0  0  0  0  0  0
  161.1920  200.8390  148.6210 C   0  0  0  0  0  1  0  0  0  0  0  0
  1 11  1  1  0  0  0
  1  3  1  0  0  0  0
  2  9  1  0  0  0  0
  3  8  1  0  0  0  0
  4  7  1  0  0  0  0
  5  2  2  0  0  0  0
  6 10  1  0  0  0  0
  7 10  2  0  0  0  0
  7 20  1  0  0  0  0
  8  9  1  0  0  0  0
  8  4  2  0  0  0  0
  9  6  2  0  0  0  0
 11  5  1  0  0  0  0
 12 17  2  0  0  0  0
 12 14  1  0  0  0  0
 13 18  1  1  0  0  0
 13  1  1  0  0  0  0
 14 13  1  0  0  0  0
 15 17  1  0  0  0  0
 16 13  1  0  0  0  0
 17 16  1  0  0  0  0
 18 19  3  0  0  0  0
 20 22  1  0  0  0  0
 22 21  1  0  0  0  0
 23  5  1  0  0  0  0
 24 23  1  0  0  0  0
 25 24  1  0  0  0  0
M  END
>  <MODEL>
1

>  <REMARK>
 VINA RESULT:      -4.1      0.000      0.000
  Name = 
  6 active torsions:
  status: ('A' for Active; 'I' for Inactive)
    1  A    between atoms: C_1  and  C_12
    2  A    between atoms: C_6  and  O_20
    3  A    between atoms: C_8  and  O_20
    4  A    between atoms: C_9  and  C_14
    5  A    between atoms: C_12  and  C_19
    6  A    between atoms: C_14  and  O_22
                            x       y       z     vdW  Elec       q    Type
                         _______ _______ _______ _____ _____    ______ ____

>  <TORSDO>
F 6

$$$$
=
 OpenBabel11042420143D

 25 27  0  0  1  0  0  0  0  0999 V2000
  161.2580  211.1770  153.6100 C   0  0  2  0  0  3  0  0  0  0  0  0
  160.3850  208.2840  153.9520 N   0  0  0  0  0  0  0  0  0  0  0  0
  161.6100  210.6130  152.3170 N   0  0  0  0  0  2  0  0  0  0  0  0
  161.8990  209.0100  150.5520 C   0  0  0  0  0  3  0  0  0  0  0  0
  160.6180  209.1390  154.9000 C   0  0  0  0  0  0  0  0  0  0  0  0
  160.8230  206.9310  152.0140 C   0  0  0  0  0  3  0  0  0  0  0  0
  161.7790  207.7350  150.0040 C   0  0  0  0  0  0  0  0  0  0  0  0
  161.4700  209.2620  151.8600 C   0  0  0  0  0  0  0  0  0  0  0  0
  160.9270  208.1880  152.6240 C   0  0  0  0  0  0  0  0  0  0  0  0
  161.2490  206.7280  150.7420 N   0  0  0  0  0  0  0  0  0  0  0  0
  161.6180  210.2380  154.7490 C   0  0  0  0  0  2  0  0  0  0  0  0
  158.4060  212.0320  155.7210 N   0  0  0  0  0  0  0  0  0  0  0  0
  159.8690  211.8530  153.6290 C   0  0  2  0  0  0  0  0  0  0  0  0
  159.7650  212.9630  155.0860 S   0  0  0  0  0  0  0  0  0  0  0  0
  156.9950  210.1810  155.3210 N   0  0  0  0  0  1  0  0  0  0  0  0
  158.8250  210.8530  153.7910 N   0  0  0  0  0  2  0  0  0  0  0  0
  158.0720  211.0430  154.9740 C   0  0  0  0  0  0  0  0  0  0  0  0
  159.6060  212.6420  152.4160 C   0  0  0  0  0  0  0  0  0  0  0  0
  159.3860  213.2930  151.4250 C   0  0  0  0  0  3  0  0  0  0  0  0
  162.2560  207.4710  148.6180 C   0  0  0  0  0  2  0  0  0  0  0  0
  161.0950  206.3560  147.1050 C   0  0  0  0  0  1  0  0  0  0  0  0
  161.8950  206.1790  148.2340 O   0  0  0  0  0  0  0  0  0  0  0  0
  159.9050  209.0080  156.0940 O   0  0  0  0  0  0  0  0  0  0  0  0
  160.4650  208.4210  157.2610 C   0  0  0  0  0  2  0  0  0  0  0  0
  160.2050  206.9300  157.2500 C   0  0  0  0  0  1  0  0  0  0  0  0
  1 13  1  0  0  0  0
  1 11  1  1  0  0  0
  2  5  2  0  0  0  0
  3  1  1  0  0  0  0
  4  8  1  0  0  0  0
  5 23  1  0  0  0  0
  6  9  1  0  0  0  0
  7  4  2  0  0  0  0
  7 10  1  0  0  0  0
  8  3  1  0  0  0  0
  8  9  2  0  0  0  0
  9  2  1  0  0  0  0
 10  6  2  0  0  0  0
 11  5  1  0  0  0  0
 13 18  1  6  0  0  0
 13 16  1  0  0  0  0
 13 14  1  0  0  0  0
 14 12  1  0  0  0  0
 16 17  1  0  0  0  0
 17 15  1  0  0  0  0
 17 12  2  0  0  0  0
 19 18  3  0  0  0  0
 20  7  1  0  0  0  0
 21 22  1  0  0  0  0
 22 20  1  0  0  0  0
 23 24  1  0  0  0  0
 25 24  1  0  0  0  0
M  END
>  <MODEL>
2

>  <REMARK>
 VINA RESULT:      -3.9      3.756      7.910
  Name = 
  6 active torsions:
  status: ('A' for Active; 'I' for Inactive)
    1  A    between atoms: C_1  and  C_12
    2  A    between atoms: C_6  and  O_20
    3  A    between atoms: C_8  and  O_20
    4  A    between atoms: C_9  and  C_14
    5  A    between atoms: C_12  and  C_19
    6  A    between atoms: C_14  and  O_22
                            x       y       z     vdW  Elec       q    Type
                         _______ _______ _______ _____ _____    ______ ____

>  <TORSDO>
F 6

$$$$
=
 OpenBabel11042420143D

 25 27  0  0  1  0  0  0  0  0999 V2000
  161.4870  211.1510  153.6160 C   0  0  2  0  0  3  0  0  0  0  0  0
  160.8330  208.2430  154.2180 N   0  0  0  0  0  0  0  0  0  0  0  0
  161.6000  210.5490  152.2970 N   0  0  0  0  0  2  0  0  0  0  0  0
  161.6030  208.8890  150.5620 C   0  0  0  0  0  3  0  0  0  0  0  0
  161.2110  209.1440  155.0720 C   0  0  0  0  0  0  0  0  0  0  0  0
  160.9360  206.8310  152.2760 C   0  0  0  0  0  3  0  0  0  0  0  0
  161.4340  207.5900  150.0900 C   0  0  0  0  0  0  0  0  0  0  0  0
  161.4330  209.1760  151.9210 C   0  0  0  0  0  0  0  0  0  0  0  0
  161.1020  208.1140  152.8120 C   0  0  0  0  0  0  0  0  0  0  0  0
  161.1080  206.5940  150.9510 N   0  0  0  0  0  0  0  0  0  0  0  0
  162.1100  210.2720  154.6890 C   0  0  0  0  0  2  0  0  0  0  0  0
  158.1870  211.7890  152.1930 N   0  0  0  0  0  0  0  0  0  0  0  0
  160.1020  211.7740  153.8920 C   0  0  2  0  0  0  0  0  0  0  0  0
  158.8000  210.6010  153.3460 S   0  0  0  0  0  0  0  0  0  0  0  0
  158.4930  213.9710  151.3410 N   0  0  0  0  0  1  0  0  0  0  0  0
  159.9280  212.9840  153.1050 N   0  0  0  0  0  2  0  0  0  0  0  0
  158.8430  212.8930  152.2010 C   0  0  0  0  0  0  0  0  0  0  0  0
  159.8910  212.0820  155.3150 C   0  0  0  0  0  0  0  0  0  0  0  0
  159.7130  212.3370  156.4800 C   0  0  0  0  0  3  0  0  0  0  0  0
  161.6370  207.2880  148.6460 C   0  0  0  0  0  2  0  0  0  0  0  0
  160.8300  206.3600  146.8100 C   0  0  0  0  0  1  0  0  0  0  0  0
  160.5870  206.4980  148.1770 O   0  0  0  0  0  0  0  0  0  0  0  0
  160.7570  209.0330  156.3890 O   0  0  0  0  0  0  0  0  0  0  0  0
  161.1790  207.9940  157.2600 C   0  0  0  0  0  2  0  0  0  0  0  0
  160.1470  206.8860  157.2610 C   0  0  0  0  0  1  0  0  0  0  0  0
  1 13  1  0  0  0  0
  1 11  1  1  0  0  0
  2  5  2  0  0  0  0
  3  1  1  0  0  0  0
  4  8  1  0  0  0  0
  5 23  1  0  0  0  0
  6  9  1  0  0  0  0
  7  4  2  0  0  0  0
  7 10  1  0  0  0  0
  8  3  1  0  0  0  0
  8  9  2  0  0  0  0
  9  2  1  0  0  0  0
 10  6  2  0  0  0  0
 11  5  1  0  0  0  0
 12 17  2  0  0  0  0
 12 14  1  0  0  0  0
 13 18  1  1  0  0  0
 14 13  1  0  0  0  0
 15 17  1  0  0  0  0
 16 13  1  0  0  0  0
 17 16  1  0  0  0  0
 18 19  3  0  0  0  0
 20  7  1  0  0  0  0
 21 22  1  0  0  0  0
 22 20  1  0  0  0  0
 23 24  1  0  0  0  0
 24 25  1  0  0  0  0
M  END
>  <MODEL>
3

>  <REMARK>
 VINA RESULT:      -3.9      3.558      7.797
  Name = 
  6 active torsions:
  status: ('A' for Active; 'I' for Inactive)
    1  A    between atoms: C_1  and  C_12
    2  A    between atoms: C_6  and  O_20
    3  A    between atoms: C_8  and  O_20
    4  A    between atoms: C_9  and  C_14
    5  A    between atoms: C_12  and  C_19
    6  A    between atoms: C_14  and  O_22
                            x       y       z     vdW  Elec       q    Type
                         _______ _______ _______ _____ _____    ______ ____

>  <TORSDO>
F 6

$$$$
=
 OpenBabel11042420143D

 25 27  0  0  1  0  0  0  0  0999 V2000
  160.1670  211.9490  152.9830 C   0  0  2  0  0  3  0  0  0  0  0  0
  160.0750  209.9210  155.2470 N   0  0  0  0  0  0  0  0  0  0  0  0
  160.4630  210.7130  152.2780 N   0  0  0  0  0  2  0  0  0  0  0  0
  160.8840  208.3830  151.8770 C   0  0  0  0  0  3  0  0  0  0  0  0
  160.2230  211.2040  155.3640 C   0  0  0  0  0  0  0  0  0  0  0  0
  160.5540  207.6790  154.5250 C   0  0  0  0  0  3  0  0  0  0  0  0
  161.0000  207.0560  152.2860 C   0  0  0  0  0  0  0  0  0  0  0  0
  160.5920  209.3870  152.8060 C   0  0  0  0  0  0  0  0  0  0  0  0
  160.4340  209.0300  154.1770 C   0  0  0  0  0  0  0  0  0  0  0  0
  160.8360  206.7340  153.5930 N   0  0  0  0  0  0  0  0  0  0  0  0
  160.8970  212.0240  154.3140 C   0  0  0  0  0  2  0  0  0  0  0  0
  157.2800  212.8320  155.0340 N   0  0  0  0  0  0  0  0  0  0  0  0
  158.6730  212.3370  152.9450 C   0  0  2  0  0  0  0  0  0  0  0  0
  158.4010  213.7760  154.0500 S   0  0  0  0  0  0  0  0  0  0  0  0
  156.2550  210.7190  155.2800 N   0  0  0  0  0  1  0  0  0  0  0  0
  157.8570  211.2520  153.4660 N   0  0  0  0  0  2  0  0  0  0  0  0
  157.1240  211.6280  154.6160 C   0  0  0  0  0  0  0  0  0  0  0  0
  158.2130  212.6880  151.5920 C   0  0  0  0  0  0  0  0  0  0  0  0
  157.8320  212.9810  150.4860 C   0  0  0  0  0  3  0  0  0  0  0  0
  161.3310  205.9960  151.2930 C   0  0  0  0  0  2  0  0  0  0  0  0
  161.4830  203.8960  151.9630 C   0  0  0  0  0  1  0  0  0  0  0  0
  160.5640  204.8580  151.5460 O   0  0  0  0  0  0  0  0  0  0  0  0
  159.7350  211.8200  156.5190 O   0  0  0  0  0  0  0  0  0  0  0  0
  160.4900  212.7670  157.2610 C   0  0  0  0  0  2  0  0  0  0  0  0
  159.7720  214.1000  157.2560 C   0  0  0  0  0  1  0  0  0  0  0  0
  1 11  1  1  0  0  0
  2  5  2  0  0  0  0
  3  8  1  0  0  0  0
  3  1  1  0  0  0  0
  4  7  2  0  0  0  0
  4  8  1  0  0  0  0
  5 23  1  0  0  0  0
  7 10  1  0  0  0  0
  8  9  2  0  0  0  0
  9  6  1  0  0  0  0
  9  2  1  0  0  0  0
 10  6  2  0  0  0  0
 11  5  1  0  0  0  0
 13 18  1  6  0  0  0
 13  1  1  0  0  0  0
 13 16  1  0  0  0  0
 13 14  1  0  0  0  0
 14 12  1  0  0  0  0
 16 17  1  0  0  0  0
 17 12  2  0  0  0  0
 17 15  1  0  0  0  0
 19 18  3  0  0  0  0
 20 22  1  0  0  0  0
 20  7  1  0  0  0  0
 22 21  1  0  0  0  0
 23 24  1  0  0  0  0
 25 24  1  0  0  0  0
M  END
>  <MODEL>
4

>  <REMARK>
 VINA RESULT:      -3.3      4.291      8.667
  Name = 
  6 active torsions:
  status: ('A' for Active; 'I' for Inactive)
    1  A    between atoms: C_1  and  C_12
    2  A    between atoms: C_6  and  O_20
    3  A    between atoms: C_8  and  O_20
    4  A    between atoms: C_9  and  C_14
    5  A    between atoms: C_12  and  C_19
    6  A    between atoms: C_14  and  O_22
                            x       y       z     vdW  Elec       q    Type
                         _______ _______ _______ _____ _____    ______ ____

>  <TORSDO>
F 6

$$$$
=
 OpenBabel11042420143D

 25 27  0  0  1  0  0  0  0  0999 V2000
  160.4580  205.3280  147.9110 C   0  0  2  0  0  3  0  0  0  0  0  0
  162.0200  205.6660  150.4980 N   0  0  0  0  0  0  0  0  0  0  0  0
  160.6840  206.7630  147.9270 N   0  0  0  0  0  2  0  0  0  0  0  0
  161.4190  208.9290  148.6620 C   0  0  0  0  0  3  0  0  0  0  0  0
  161.2740  204.6550  150.1700 C   0  0  0  0  0  0  0  0  0  0  0  0
  162.5940  207.9530  150.9610 C   0  0  0  0  0  3  0  0  0  0  0  0
  162.0720  209.7810  149.5500 C   0  0  0  0  0  0  0  0  0  0  0  0
  161.3510  207.5550  148.9190 C   0  0  0  0  0  0  0  0  0  0  0  0
  161.9450  207.0490  150.1120 C   0  0  0  0  0  0  0  0  0  0  0  0
  162.6400  209.2790  150.6750 N   0  0  0  0  0  0  0  0  0  0  0  0
  160.0800  204.8030  149.2870 C   0  0  0  0  0  2  0  0  0  0  0  0
  160.9180  202.8290  145.2900 N   0  0  0  0  0  0  0  0  0  0  0  0
  161.5100  204.5480  147.0930 C   0  0  2  0  0  0  0  0  0  0  0  0
  161.0390  204.5900  145.3200 S   0  0  0  0  0  0  0  0  0  0  0  0
  161.1400  200.8700  146.5890 N   0  0  0  0  0  1  0  0  0  0  0  0
  161.5170  203.1480  147.4880 N   0  0  0  0  0  2  0  0  0  0  0  0
  161.1820  202.2810  146.4210 C   0  0  0  0  0  0  0  0  0  0  0  0
  162.8640  205.1020  147.2340 C   0  0  0  0  0  0  0  0  0  0  0  0
  163.9770  205.5530  147.3540 C   0  0  0  0  0  3  0  0  0  0  0  0
  162.1210  211.2440  149.2800 C   0  0  0  0  0  2  0  0  0  0  0  0
  162.4310  212.6290  147.5860 C   0  0  0  0  0  1  0  0  0  0  0  0
  161.7140  211.4950  147.9690 O   0  0  0  0  0  0  0  0  0  0  0  0
  161.6130  203.3970  150.6760 O   0  0  0  0  0  0  0  0  0  0  0  0
  160.6410  202.4120  150.9950 C   0  0  0  0  0  2  0  0  0  0  0  0
  160.8140  201.2180  150.0820 C   0  0  0  0  0  1  0  0  0  0  0  0
  1  3  1  0  0  0  0
  1 11  1  1  0  0  0
  3  8  1  0  0  0  0
  4  8  2  0  0  0  0
  4  7  1  0  0  0  0
  5  2  2  0  0  0  0
  5 23  1  0  0  0  0
  7 10  2  0  0  0  0
  8  9  1  0  0  0  0
  9  2  1  0  0  0  0
  9  6  2  0  0  0  0
 10  6  1  0  0  0  0
 11  5  1  0  0  0  0
 12 14  1  0  0  0  0
 12 17  2  0  0  0  0
 13 18  1  1  0  0  0
 13 16  1  0  0  0  0
 13  1  1  0  0  0  0
 14 13  1  0  0  0  0
 17 15  1  0  0  0  0
 17 16  1  0  0  0  0
 18 19  3  0  0  0  0
 20  7  1  0  0  0  0
 21 22  1  0  0  0  0
 22 20  1  0  0  0  0
 23 24  1  0  0  0  0
 25 24  1  0  0  0  0
M  END
>  <MODEL>
5

>  <REMARK>
 VINA RESULT:      -3.2      2.660      3.252
  Name = 
  6 active torsions:
  status: ('A' for Active; 'I' for Inactive)
    1  A    between atoms: C_1  and  C_12
    2  A    between atoms: C_6  and  O_20
    3  A    between atoms: C_8  and  O_20
    4  A    between atoms: C_9  and  C_14
    5  A    between atoms: C_12  and  C_19
    6  A    between atoms: C_14  and  O_22
                            x       y       z     vdW  Elec       q    Type
                         _______ _______ _______ _____ _____    ______ ____

>  <TORSDO>
F 6

$$$$
=
 OpenBabel11042420143D

 25 27  0  0  1  0  0  0  0  0999 V2000
  160.5340  207.1430  150.8630 C   0  0  2  0  0  3  0  0  0  0  0  0
  162.4990  207.5280  148.5740 N   0  0  0  0  0  0  0  0  0  0  0  0
  160.4580  205.8540  150.1960 N   0  0  0  0  0  2  0  0  0  0  0  0
  160.8670  204.1050  148.6010 C   0  0  0  0  0  3  0  0  0  0  0  0
  161.9270  208.4630  149.2680 C   0  0  0  0  0  0  0  0  0  0  0  0
  162.6730  205.6020  147.1470 C   0  0  0  0  0  3  0  0  0  0  0  0
  161.5010  203.5730  147.4810 C   0  0  0  0  0  0  0  0  0  0  0  0
  161.1390  205.4140  149.0140 C   0  0  0  0  0  0  0  0  0  0  0  0
  162.0610  206.1950  148.2580 C   0  0  0  0  0  0  0  0  0  0  0  0
  162.3830  204.3280  146.7800 N   0  0  0  0  0  0  0  0  0  0  0  0
  160.5700  208.2900  149.8660 C   0  0  0  0  0  2  0  0  0  0  0  0
  160.9780  208.1400  154.3460 N   0  0  0  0  0  0  0  0  0  0  0  0
  161.5290  207.1680  152.0430 C   0  0  2  0  0  0  0  0  0  0  0  0
  160.6730  206.5900  153.5590 S   0  0  0  0  0  0  0  0  0  0  0  0
  161.9570  210.2720  154.0690 N   0  0  0  0  0  1  0  0  0  0  0  0
  161.9650  208.5300  152.3060 N   0  0  0  0  0  2  0  0  0  0  0  0
  161.6160  208.9710  153.6040 C   0  0  0  0  0  0  0  0  0  0  0  0
  162.7050  206.3150  151.8130 C   0  0  0  0  0  0  0  0  0  0  0  0
  163.6720  205.6180  151.6280 C   0  0  0  0  0  3  0  0  0  0  0  0
  161.1900  202.1860  147.0370 C   0  0  0  0  0  2  0  0  0  0  0  0
  160.0800  201.3700  145.3090 C   0  0  0  0  0  1  0  0  0  0  0  0
  161.2050  202.1240  145.6420 O   0  0  0  0  0  0  0  0  0  0  0  0
  162.6160  209.6660  149.4440 O   0  0  0  0  0  0  0  0  0  0  0  0
  161.9560  210.9190  149.5490 C   0  0  0  0  0  2  0  0  0  0  0  0
  162.2070  211.7280  148.2940 C   0  0  0  0  0  1  0  0  0  0  0  0
  1 11  1  6  0  0  0
  1 13  1  0  0  0  0
  2  5  2  0  0  0  0
  3  1  1  0  0  0  0
  4  8  1  0  0  0  0
  5 23  1  0  0  0  0
  5 11  1  0  0  0  0
  6  9  1  0  0  0  0
  7  4  2  0  0  0  0
  8  3  1  0  0  0  0
  9  2  1  0  0  0  0
  9  8  2  0  0  0  0
 10  6  2  0  0  0  0
 10  7  1  0  0  0  0
 13 18  1  6  0  0  0
 13 16  1  0  0  0  0
 13 14  1  0  0  0  0
 14 12  1  0  0  0  0
 16 17  1  0  0  0  0
 17 15  1  0  0  0  0
 17 12  2  0  0  0  0
 19 18  3  0  0  0  0
 20  7  1  0  0  0  0
 21 22  1  0  0  0  0
 22 20  1  0  0  0  0
 23 24  1  0  0  0  0
 25 24  1  0  0  0  0
M  END
>  <MODEL>
6

>  <REMARK>
 VINA RESULT:      -3.2      2.853      7.430
  Name = 
  6 active torsions:
  status: ('A' for Active; 'I' for Inactive)
    1  A    between atoms: C_1  and  C_12
    2  A    between atoms: C_6  and  O_20
    3  A    between atoms: C_8  and  O_20
    4  A    between atoms: C_9  and  C_14
    5  A    between atoms: C_12  and  C_19
    6  A    between atoms: C_14  and  O_22
                            x       y       z     vdW  Elec       q    Type
                         _______ _______ _______ _____ _____    ______ ____

>  <TORSDO>
F 6

$$$$
=
 OpenBabel11042420143D

 25 27  0  0  1  0  0  0  0  0999 V2000
  160.2950  205.6400  148.3400 C   0  0  2  0  0  3  0  0  0  0  0  0
  162.1280  206.2280  150.6940 N   0  0  0  0  0  0  0  0  0  0  0  0
  160.4940  207.0730  148.2020 N   0  0  0  0  0  2  0  0  0  0  0  0
  161.2630  209.3030  148.6510 C   0  0  0  0  0  3  0  0  0  0  0  0
  161.3700  205.1850  150.5450 C   0  0  0  0  0  0  0  0  0  0  0  0
  162.7060  208.5540  150.8810 C   0  0  0  0  0  3  0  0  0  0  0  0
  161.9940  210.2390  149.3800 C   0  0  0  0  0  0  0  0  0  0  0  0
  161.2510  207.9590  149.0370 C   0  0  0  0  0  0  0  0  0  0  0  0
  161.9830  207.5690  150.1960 C   0  0  0  0  0  0  0  0  0  0  0  0
  162.6930  209.8480  150.4740 N   0  0  0  0  0  0  0  0  0  0  0  0
  160.0830  205.2400  149.7920 C   0  0  0  0  0  2  0  0  0  0  0  0
  162.8780  205.7990  145.7670 N   0  0  0  0  0  0  0  0  0  0  0  0
  161.2640  204.7980  147.4830 C   0  0  2  0  0  0  0  0  0  0  0  0
  162.9240  205.5770  147.5180 S   0  0  0  0  0  0  0  0  0  0  0  0
  161.5810  205.4530  143.8240 N   0  0  0  0  0  1  0  0  0  0  0  0
  160.8340  204.7950  146.0930 N   0  0  0  0  0  2  0  0  0  0  0  0
  161.7970  205.3650  145.2270 C   0  0  0  0  0  0  0  0  0  0  0  0
  161.3850  203.4110  147.9590 C   0  0  0  0  0  0  0  0  0  0  0  0
  161.4850  202.2730  148.3440 C   0  0  0  0  0  3  0  0  0  0  0  0
  161.9850  211.6720  148.9750 C   0  0  0  0  0  2  0  0  0  0  0  0
  162.7300  213.2160  147.5810 C   0  0  0  0  0  1  0  0  0  0  0  0
  162.8380  211.8590  147.8860 O   0  0  0  0  0  0  0  0  0  0  0  0
  161.7880  203.9820  151.1210 O   0  0  0  0  0  0  0  0  0  0  0  0
  160.9320  203.1770  151.9190 C   0  0  0  0  0  2  0  0  0  0  0  0
  161.2060  201.7160  151.6360 C   0  0  0  0  0  1  0  0  0  0  0  0
  1 11  1  1  0  0  0
  3  1  1  0  0  0  0
  3  8  1  0  0  0  0
  4  8  2  0  0  0  0
  4  7  1  0  0  0  0
  5  2  2  0  0  0  0
  5 23  1  0  0  0  0
  7 10  2  0  0  0  0
  8  9  1  0  0  0  0
  9  2  1  0  0  0  0
  9  6  2  0  0  0  0
 10  6  1  0  0  0  0
 11  5  1  0  0  0  0
 12 14  1  0  0  0  0
 13 14  1  0  0  0  0
 13 18  1  1  0  0  0
 13  1  1  0  0  0  0
 15 17  1  0  0  0  0
 16 13  1  0  0  0  0
 17 12  2  0  0  0  0
 17 16  1  0  0  0  0
 18 19  3  0  0  0  0
 20  7  1  0  0  0  0
 21 22  1  0  0  0  0
 22 20  1  0  0  0  0
 23 24  1  0  0  0  0
 25 24  1  0  0  0  0
M  END
>  <MODEL>
7

>  <REMARK>
 VINA RESULT:      -3.1      2.842      3.690
  Name = 
  6 active torsions:
  status: ('A' for Active; 'I' for Inactive)
    1  A    between atoms: C_1  and  C_12
    2  A    between atoms: C_6  and  O_20
    3  A    between atoms: C_8  and  O_20
    4  A    between atoms: C_9  and  C_14
    5  A    between atoms: C_12  and  C_19
    6  A    between atoms: C_14  and  O_22
                            x       y       z     vdW  Elec       q    Type
                         _______ _______ _______ _____ _____    ______ ____

>  <TORSDO>
F 6

$$$$
=
 OpenBabel11042420143D

 25 27  0  0  1  0  0  0  0  0999 V2000
  162.4330  205.9110  149.8700 C   0  0  2  0  0  3  0  0  0  0  0  0
  160.4830  204.0360  151.2590 N   0  0  0  0  0  0  0  0  0  0  0  0
  162.2950  204.8530  148.8830 N   0  0  0  0  0  2  0  0  0  0  0  0
  161.5810  202.8090  147.8430 C   0  0  0  0  0  3  0  0  0  0  0  0
  161.2090  204.9520  151.8220 C   0  0  0  0  0  0  0  0  0  0  0  0
  159.9790  202.0730  149.9670 C   0  0  0  0  0  3  0  0  0  0  0  0
  160.8420  201.6290  147.8080 C   0  0  0  0  0  0  0  0  0  0  0  0
  161.5210  203.6490  148.9610 C   0  0  0  0  0  0  0  0  0  0  0  0
  160.7060  203.2660  150.0650 C   0  0  0  0  0  0  0  0  0  0  0  0
  160.0640  201.2860  148.8640 N   0  0  0  0  0  0  0  0  0  0  0  0
  162.5410  205.3520  151.2800 C   0  0  0  0  0  2  0  0  0  0  0  0
  161.9560  209.4800  150.4660 N   0  0  0  0  0  0  0  0  0  0  0  0
  161.4880  207.1070  149.6270 C   0  0  2  0  0  0  0  0  0  0  0  0
  162.4770  208.5450  149.0620 S   0  0  0  0  0  0  0  0  0  0  0  0
  160.6400  209.4240  152.4260 N   0  0  0  0  0  1  0  0  0  0  0  0
  160.8490  207.5050  150.8720 N   0  0  0  0  0  2  0  0  0  0  0  0
  161.1670  208.8320  151.2450 C   0  0  0  0  0  0  0  0  0  0  0  0
  160.4560  206.8200  148.6190 C   0  0  0  0  0  0  0  0  0  0  0  0
  159.6090  206.5790  147.7950 C   0  0  0  0  0  3  0  0  0  0  0  0
  160.9280  200.7300  146.6230 C   0  0  0  0  0  2  0  0  0  0  0  0
  159.7060  201.3500  144.8900 C   0  0  0  0  0  1  0  0  0  0  0  0
  160.9730  201.4930  145.4560 O   0  0  0  0  0  0  0  0  0  0  0  0
  160.7140  205.5670  152.9750 O   0  0  0  0  0  0  0  0  0  0  0  0
  161.5540  206.2200  153.9160 C   0  0  0  0  0  2  0  0  0  0  0  0
  160.7040  207.0060  154.8910 C   0  0  0  0  0  1  0  0  0  0  0  0
  1 11  1  1  0  0  0
  2  5  2  0  0  0  0
  3  8  1  0  0  0  0
  3  1  1  0  0  0  0
  4  8  1  0  0  0  0
  5 23  1  0  0  0  0
  6  9  1  0  0  0  0
  7  4  2  0  0  0  0
  7 10  1  0  0  0  0
  8  9  2  0  0  0  0
  9  2  1  0  0  0  0
 10  6  2  0  0  0  0
 11  5  1  0  0  0  0
 12 17  2  0  0  0  0
 13 18  1  6  0  0  0
 13  1  1  0  0  0  0
 13 16  1  0  0  0  0
 14 13  1  0  0  0  0
 14 12  1  0  0  0  0
 16 17  1  0  0  0  0
 17 15  1  0  0  0  0
 19 18  3  0  0  0  0
 20  7  1  0  0  0  0
 21 22  1  0  0  0  0
 22 20  1  0  0  0  0
 23 24  1  0  0  0  0
 24 25  1  0  0  0  0
M  END
>  <MODEL>
8

>  <REMARK>
 VINA RESULT:      -3.0      2.424      6.781
  Name = 
  6 active torsions:
  status: ('A' for Active; 'I' for Inactive)
    1  A    between atoms: C_1  and  C_12
    2  A    between atoms: C_6  and  O_20
    3  A    between atoms: C_8  and  O_20
    4  A    between atoms: C_9  and  C_14
    5  A    between atoms: C_12  and  C_19
    6  A    between atoms: C_14  and  O_22
                            x       y       z     vdW  Elec       q    Type
                         _______ _______ _______ _____ _____    ______ ____

>  <TORSDO>
F 6

$$$$
=
 OpenBabel11042420143D

 25 27  0  0  1  0  0  0  0  0999 V2000
  162.0860  202.8300  148.1830 C   0  0  2  0  0  3  0  0  0  0  0  0
  160.6280  205.4850  147.9090 N   0  0  0  0  0  0  0  0  0  0  0  0
  162.0910  203.3070  149.5560 N   0  0  0  0  0  2  0  0  0  0  0  0
  161.7190  204.7230  151.4600 C   0  0  0  0  0  3  0  0  0  0  0  0
  161.1990  204.8140  146.9560 C   0  0  0  0  0  0  0  0  0  0  0  0
  160.4300  206.6720  149.9900 C   0  0  0  0  0  3  0  0  0  0  0  0
  161.2210  205.8710  152.0720 C   0  0  0  0  0  0  0  0  0  0  0  0
  161.5700  204.5350  150.0810 C   0  0  0  0  0  0  0  0  0  0  0  0
  160.9180  205.5450  149.3160 C   0  0  0  0  0  0  0  0  0  0  0  0
  160.5930  206.8160  151.3290 N   0  0  0  0  0  0  0  0  0  0  0  0
  162.3910  203.9480  147.1990 C   0  0  0  0  0  2  0  0  0  0  0  0
  160.9060  200.2410  145.8980 N   0  0  0  0  0  0  0  0  0  0  0  0
  160.9140  201.8760  147.8660 C   0  0  2  0  0  0  0  0  0  0  0  0
  161.5810  200.2010  147.5280 S   0  0  0  0  0  0  0  0  0  0  0  0
  159.6630  201.5410  144.3680 N   0  0  0  0  0  1  0  0  0  0  0  0
  160.2290  202.3040  146.6560 N   0  0  0  0  0  2  0  0  0  0  0  0
  160.2790  201.3290  145.6320 C   0  0  0  0  0  0  0  0  0  0  0  0
  159.9440  201.7830  148.9690 C   0  0  0  0  0  0  0  0  0  0  0  0
  159.1520  201.7010  149.8740 C   0  0  0  0  0  3  0  0  0  0  0  0
  161.4020  206.0740  153.5360 C   0  0  0  0  0  2  0  0  0  0  0  0
  160.4560  207.3510  155.0710 C   0  0  0  0  0  1  0  0  0  0  0  0
  161.1490  207.4070  153.8620 O   0  0  0  0  0  0  0  0  0  0  0  0
  160.6700  204.9220  145.6680 O   0  0  0  0  0  0  0  0  0  0  0  0
  160.8050  206.0970  144.8800 C   0  0  0  0  0  2  0  0  0  0  0  0
  161.5810  205.7750  143.6210 C   0  0  0  0  0  1  0  0  0  0  0  0
  1 11  1  6  0  0  0
  1  3  1  0  0  0  0
  2  9  1  0  0  0  0
  3  8  1  0  0  0  0
  4  7  1  0  0  0  0
  5 11  1  0  0  0  0
  5  2  2  0  0  0  0
  6 10  1  0  0  0  0
  7 20  1  0  0  0  0
  8  4  2  0  0  0  0
  9  6  2  0  0  0  0
  9  8  1  0  0  0  0
 10  7  2  0  0  0  0
 12 14  1  0  0  0  0
 13  1  1  0  0  0  0
 13 18  1  1  0  0  0
 14 13  1  0  0  0  0
 15 17  1  0  0  0  0
 16 13  1  0  0  0  0
 17 12  2  0  0  0  0
 17 16  1  0  0  0  0
 18 19  3  0  0  0  0
 20 22  1  0  0  0  0
 22 21  1  0  0  0  0
 23  5  1  0  0  0  0
 24 23  1  0  0  0  0
 25 24  1  0  0  0  0
M  END
>  <MODEL>
9

>  <REMARK>
 VINA RESULT:      -3.0      2.534      4.372
  Name = 
  6 active torsions:
  status: ('A' for Active; 'I' for Inactive)
    1  A    between atoms: C_1  and  C_12
    2  A    between atoms: C_6  and  O_20
    3  A    between atoms: C_8  and  O_20
    4  A    between atoms: C_9  and  C_14
    5  A    between atoms: C_12  and  C_19
    6  A    between atoms: C_14  and  O_22
                            x       y       z     vdW  Elec       q    Type
                         _______ _______ _______ _____ _____    ______ ____

>  <TORSDO>
F 6

$$$$
