=
 OpenBabel11052411063D

 34 38  0  0  1  0  0  0  0  0999 V2000
  161.2780  207.8390  149.8330 N   0  0  0  0  0  0  0  0  0  0  0  0
  161.8420  208.3600  151.0850 C   0  0  2  0  0  3  0  0  0  0  0  0
  162.3310  207.0790  150.5300 C   0  0  1  0  0  3  0  0  0  0  0  0
  161.7550  205.8200  151.1360 C   0  0  0  0  0  0  0  0  0  0  0  0
  161.5480  205.7720  152.3770 O   0  0  0  0  0  0  0  0  0  0  0  0
  161.3860  203.2700  146.8960 N   0  0  0  0  0  0  0  0  0  0  0  0
  160.9080  202.0150  146.7370 C   0  0  0  0  0  0  0  0  0  0  0  0
  161.2230  203.5050  148.2080 C   0  0  0  0  0  0  0  0  0  0  0  0
  161.5960  204.6850  148.9760 C   0  0  0  0  0  3  0  0  0  0  0  0
  160.4640  201.4910  147.8650 O   0  0  0  0  0  0  0  0  0  0  0  0
  160.8040  203.5300  150.9240 O   0  0  0  0  0  0  0  0  0  0  0  0
  160.6600  202.4080  148.7840 C   0  0  0  0  0  0  0  0  0  0  0  0
  160.3450  202.3440  150.2410 C   0  0  1  0  0  3  0  0  0  0  0  0
  160.8950  201.4060  145.6340 O   0  0  0  0  0  0  0  0  0  0  0  0
  161.3810  204.6650  150.3000 C   0  0  0  0  0  0  0  0  0  0  0  0
  160.9420  201.2310  150.7990 F   0  0  0  0  0  0  0  0  0  0  0  0
  162.0120  204.1300  145.9010 C   0  0  0  0  0  2  0  0  0  0  0  0
  160.2930  206.1810  145.4000 S   0  0  0  0  0  1  0  0  0  0  0  0
  160.9790  204.5830  144.8880 C   0  0  0  0  0  2  0  0  0  0  0  0
  160.7920  208.2610  152.1870 C   0  0  0  0  0  2  0  0  0  0  0  0
  160.3110  209.5340  152.4880 O   0  0  0  0  0  1  0  0  0  0  0  0
  161.9310  208.5490  148.7470 C   0  0  0  0  0  2  0  0  0  0  0  0
  162.2230  209.9770  149.1710 C   0  0  0  0  0  2  0  0  0  0  0  0
  161.7390  210.9000  148.1600 N   0  0  0  0  0  2  0  0  0  0  0  0
  162.5750  212.0840  148.2350 C   0  0  0  0  0  2  0  0  0  0  0  0
  161.7550  213.3170  147.9010 C   0  0  1  0  0  3  0  0  0  0  0  0
  157.1590  213.2380  147.5850 C   0  0  0  0  0  1  0  0  0  0  0  0
  158.6580  213.9200  150.1960 N   0  0  0  0  0  1  0  0  0  0  0  0
  160.8810  213.0340  146.7940 N   0  0  0  0  0  0  0  0  0  0  0  0
  160.7880  213.6310  149.0840 C   0  0  0  0  0  3  0  0  0  0  0  0
  159.3960  213.6080  149.0200 C   0  0  0  0  0  0  0  0  0  0  0  0
  158.6380  213.2720  147.7480 C   0  0  0  0  0  0  0  0  0  0  0  0
  160.1840  212.7330  145.6170 N   0  0  0  0  0  2  0  0  0  0  0  0
  159.4890  213.0330  146.8030 C   0  0  0  0  0  0  0  0  0  0  0  0
  1  3  1  0  0  0  0
  1  2  1  0  0  0  0
  2 20  1  1  0  0  0
  3  2  1  0  0  0  0
  3  4  1  1  0  0  0
  4  5  2  0  0  0  0
  6  8  1  0  0  0  0
  7  6  1  0  0  0  0
  7 10  1  0  0  0  0
  8 12  2  0  0  0  0
  8  9  1  0  0  0  0
  9 15  2  0  0  0  0
 10 12  1  0  0  0  0
 12 13  1  0  0  0  0
 13 16  1  1  0  0  0
 13 11  1  0  0  0  0
 14  7  2  0  0  0  0
 15 11  1  0  0  0  0
 15  4  1  0  0  0  0
 17  6  1  0  0  0  0
 19 18  1  0  0  0  0
 19 17  1  0  0  0  0
 20 21  1  0  0  0  0
 22 23  1  0  0  0  0
 22  1  1  0  0  0  0
 24 25  1  0  0  0  0
 24 23  1  0  0  0  0
 26 25  1  1  0  0  0
 26 30  1  0  0  0  0
 27 32  1  0  0  0  0
 29 34  1  0  0  0  0
 29 26  1  0  0  0  0
 31 30  2  0  0  0  0
 31 28  1  0  0  0  0
 32 31  1  0  0  0  0
 33 29  1  0  0  0  0
 33 34  1  0  0  0  0
 34 32  2  0  0  0  0
M  END
>  <MODEL>
1

>  <REMARK>
 VINA RESULT:      -7.9      0.000      0.000
  Name = 
  10 active torsions:
  status: ('A' for Active; 'I' for Inactive)
    1  A    between atoms: C_1  and  C_30
    2  A    between atoms: C_2  and  C_13
    3  A    between atoms: C_2  and  C_28
    4  A    between atoms: N_3  and  C_25
    5  A    between atoms: N_4  and  C_19
    6  A    between atoms: C_9  and  C_12
    7  A    between atoms: N_16  and  C_30
    8  A    between atoms: N_16  and  C_34
    9  A    between atoms: C_19  and  C_34
   10  A    between atoms: C_25  and  C_32
                            x       y       z     vdW  Elec       q    Type
                         _______ _______ _______ _____ _____    ______ ____

>  <TORSDO>
F 10

$$$$
=
 OpenBabel11052411063D

 34 38  0  0  1  0  0  0  0  0999 V2000
  161.5910  207.2880  152.3610 N   0  0  0  0  0  0  0  0  0  0  0  0
  161.0930  207.6050  151.0150 C   0  0  2  0  0  3  0  0  0  0  0  0
  160.8580  206.2640  151.5940 C   0  0  1  0  0  3  0  0  0  0  0  0
  161.8000  205.1670  151.1540 C   0  0  0  0  0  0  0  0  0  0  0  0
  162.9600  205.1170  151.6400 O   0  0  0  0  0  0  0  0  0  0  0  0
  161.2870  203.1010  146.6730 N   0  0  0  0  0  0  0  0  0  0  0  0
  160.7630  201.8870  146.3880 C   0  0  0  0  0  0  0  0  0  0  0  0
  161.1490  203.1990  148.0040 C   0  0  0  0  0  0  0  0  0  0  0  0
  161.5740  204.2770  148.8880 C   0  0  0  0  0  3  0  0  0  0  0  0
  160.3150  201.2600  147.4600 O   0  0  0  0  0  0  0  0  0  0  0  0
  160.7650  202.9470  150.7140 O   0  0  0  0  0  0  0  0  0  0  0  0
  160.5550  202.0670  148.4690 C   0  0  0  0  0  0  0  0  0  0  0  0
  160.2560  201.8580  149.9160 C   0  0  1  0  0  3  0  0  0  0  0  0
  160.7140  201.4010  145.2270 O   0  0  0  0  0  0  0  0  0  0  0  0
  161.3740  204.1220  150.2050 C   0  0  0  0  0  0  0  0  0  0  0  0
  160.8190  200.6710  150.3420 F   0  0  0  0  0  0  0  0  0  0  0  0
  161.9310  204.0400  145.7650 C   0  0  0  0  0  2  0  0  0  0  0  0
  160.2990  206.1930  145.4260 S   0  0  0  0  0  1  0  0  0  0  0  0
  160.9090  204.6060  144.7980 C   0  0  0  0  0  2  0  0  0  0  0  0
  162.2760  207.7300  150.0610 C   0  0  0  0  0  2  0  0  0  0  0  0
  161.8110  208.0090  148.7770 O   0  0  0  0  0  1  0  0  0  0  0  0
  160.6420  207.8520  153.3060 C   0  0  0  0  0  2  0  0  0  0  0  0
  160.6850  207.0700  154.6060 C   0  0  0  0  0  2  0  0  0  0  0  0
  161.2700  207.8880  155.6540 N   0  0  0  0  0  2  0  0  0  0  0  0
  160.1750  208.3540  156.4850 C   0  0  0  0  0  2  0  0  0  0  0  0
  160.1580  209.8720  156.5110 C   0  0  1  0  0  3  0  0  0  0  0  0
  159.9640  212.4250  152.6800 C   0  0  0  0  0  1  0  0  0  0  0  0
  157.4540  211.5370  154.2440 N   0  0  0  0  0  1  0  0  0  0  0  0
  161.1930  210.3850  155.6550 N   0  0  0  0  0  0  0  0  0  0  0  0
  158.8340  210.3840  155.8640 C   0  0  0  0  0  3  0  0  0  0  0  0
  158.7440  211.1510  154.7040 C   0  0  0  0  0  0  0  0  0  0  0  0
  159.9640  211.5960  153.9170 C   0  0  0  0  0  0  0  0  0  0  0  0
  162.3200  210.8020  154.9360 N   0  0  0  0  0  2  0  0  0  0  0  0
  161.0280  211.1520  154.5050 C   0  0  0  0  0  0  0  0  0  0  0  0
  1 22  1  0  0  0  0
  2 20  1  6  0  0  0
  2  3  1  0  0  0  0
  2  1  1  0  0  0  0
  3  4  1  6  0  0  0
  3  1  1  0  0  0  0
  4  5  2  0  0  0  0
  6  8  1  0  0  0  0
  7  6  1  0  0  0  0
  7 10  1  0  0  0  0
  8 12  2  0  0  0  0
  8  9  1  0  0  0  0
  9 15  2  0  0  0  0
 10 12  1  0  0  0  0
 12 13  1  0  0  0  0
 13 16  1  1  0  0  0
 13 11  1  0  0  0  0
 14  7  2  0  0  0  0
 15 11  1  0  0  0  0
 15  4  1  0  0  0  0
 17  6  1  0  0  0  0
 19 18  1  0  0  0  0
 19 17  1  0  0  0  0
 21 20  1  0  0  0  0
 22 23  1  0  0  0  0
 23 24  1  0  0  0  0
 24 25  1  0  0  0  0
 26 25  1  6  0  0  0
 27 32  1  0  0  0  0
 28 31  1  0  0  0  0
 29 26  1  0  0  0  0
 30 26  1  0  0  0  0
 31 30  2  0  0  0  0
 32 34  2  0  0  0  0
 32 31  1  0  0  0  0
 33 29  1  0  0  0  0
 34 33  1  0  0  0  0
 34 29  1  0  0  0  0
M  END
>  <MODEL>
2

>  <REMARK>
 VINA RESULT:      -7.9      3.492      4.833
  Name = 
  10 active torsions:
  status: ('A' for Active; 'I' for Inactive)
    1  A    between atoms: C_1  and  C_30
    2  A    between atoms: C_2  and  C_13
    3  A    between atoms: C_2  and  C_28
    4  A    between atoms: N_3  and  C_25
    5  A    between atoms: N_4  and  C_19
    6  A    between atoms: C_9  and  C_12
    7  A    between atoms: N_16  and  C_30
    8  A    between atoms: N_16  and  C_34
    9  A    between atoms: C_19  and  C_34
   10  A    between atoms: C_25  and  C_32
                            x       y       z     vdW  Elec       q    Type
                         _______ _______ _______ _____ _____    ______ ____

>  <TORSDO>
F 10

$$$$
=
 OpenBabel11052411063D

 34 38  0  0  1  0  0  0  0  0999 V2000
  161.5640  207.6840  151.8130 N   0  0  0  0  0  0  0  0  0  0  0  0
  161.2560  207.7660  150.3780 C   0  0  2  0  0  3  0  0  0  0  0  0
  160.8140  206.5930  151.1650 C   0  0  1  0  0  3  0  0  0  0  0  0
  161.6740  205.3540  151.0640 C   0  0  0  0  0  0  0  0  0  0  0  0
  162.6990  205.2540  151.7890 O   0  0  0  0  0  0  0  0  0  0  0  0
  161.2750  203.0270  146.7010 N   0  0  0  0  0  0  0  0  0  0  0  0
  160.8280  201.7700  146.4830 C   0  0  0  0  0  0  0  0  0  0  0  0
  161.1370  203.1860  148.0270 C   0  0  0  0  0  0  0  0  0  0  0  0
  161.4960  204.3340  148.8490 C   0  0  0  0  0  3  0  0  0  0  0  0
  160.4240  201.1730  147.5900 O   0  0  0  0  0  0  0  0  0  0  0  0
  160.7790  203.0530  150.7490 O   0  0  0  0  0  0  0  0  0  0  0  0
  160.6170  202.0450  148.5540 C   0  0  0  0  0  0  0  0  0  0  0  0
  160.3370  201.8940  150.0110 C   0  0  1  0  0  3  0  0  0  0  0  0
  160.8060  201.2210  145.3490 O   0  0  0  0  0  0  0  0  0  0  0  0
  161.3110  204.2360  150.1750 C   0  0  0  0  0  0  0  0  0  0  0  0
  160.9760  200.7690  150.4950 F   0  0  0  0  0  0  0  0  0  0  0  0
  161.8550  203.9570  145.7400 C   0  0  0  0  0  2  0  0  0  0  0  0
  160.3680  206.2080  145.3760 S   0  0  0  0  0  1  0  0  0  0  0  0
  160.7680  204.5210  144.8470 C   0  0  0  0  0  2  0  0  0  0  0  0
  162.5440  207.5970  149.5790 C   0  0  0  0  0  2  0  0  0  0  0  0
  162.2840  207.8100  148.2260 O   0  0  0  0  0  1  0  0  0  0  0  0
  160.5850  208.5050  152.5040 C   0  0  0  0  0  2  0  0  0  0  0  0
  160.8250  209.9690  152.1830 C   0  0  0  0  0  2  0  0  0  0  0  0
  159.7280  210.7720  152.6950 N   0  0  0  0  0  2  0  0  0  0  0  0
  160.3140  211.9770  153.2530 C   0  0  0  0  0  2  0  0  0  0  0  0
  160.1570  211.9750  154.7630 C   0  0  1  0  0  3  0  0  0  0  0  0
  160.1430  208.1030  157.2600 C   0  0  0  0  0  1  0  0  0  0  0  0
  162.7020  209.7340  156.6920 N   0  0  0  0  0  1  0  0  0  0  0  0
  159.0890  211.0890  155.1400 N   0  0  0  0  0  0  0  0  0  0  0  0
  161.4280  211.3460  155.4140 C   0  0  0  0  0  3  0  0  0  0  0  0
  161.4550  210.1740  156.1680 C   0  0  0  0  0  0  0  0  0  0  0  0
  160.2100  209.3540  156.4570 C   0  0  0  0  0  0  0  0  0  0  0  0
  157.9380  210.3390  155.4130 N   0  0  0  0  0  2  0  0  0  0  0  0
  159.1910  209.9290  155.9030 C   0  0  0  0  0  0  0  0  0  0  0  0
  1 22  1  0  0  0  0
  2 20  1  6  0  0  0
  2  3  1  0  0  0  0
  2  1  1  0  0  0  0
  3  4  1  6  0  0  0
  3  1  1  0  0  0  0
  4  5  2  0  0  0  0
  6  8  1  0  0  0  0
  7  6  1  0  0  0  0
  7 10  1  0  0  0  0
  8 12  2  0  0  0  0
  8  9  1  0  0  0  0
  9 15  2  0  0  0  0
 10 12  1  0  0  0  0
 12 13  1  0  0  0  0
 13 16  1  1  0  0  0
 13 11  1  0  0  0  0
 14  7  2  0  0  0  0
 15 11  1  0  0  0  0
 15  4  1  0  0  0  0
 17  6  1  0  0  0  0
 19 18  1  0  0  0  0
 19 17  1  0  0  0  0
 21 20  1  0  0  0  0
 23 22  1  0  0  0  0
 23 24  1  0  0  0  0
 24 25  1  0  0  0  0
 26 25  1  6  0  0  0
 26 29  1  0  0  0  0
 26 30  1  0  0  0  0
 29 33  1  0  0  0  0
 29 34  1  0  0  0  0
 30 31  2  0  0  0  0
 31 32  1  0  0  0  0
 31 28  1  0  0  0  0
 32 27  1  0  0  0  0
 33 34  1  0  0  0  0
 34 32  2  0  0  0  0
M  END
>  <MODEL>
3

>  <REMARK>
 VINA RESULT:      -7.8      3.398      5.054
  Name = 
  10 active torsions:
  status: ('A' for Active; 'I' for Inactive)
    1  A    between atoms: C_1  and  C_30
    2  A    between atoms: C_2  and  C_13
    3  A    between atoms: C_2  and  C_28
    4  A    between atoms: N_3  and  C_25
    5  A    between atoms: N_4  and  C_19
    6  A    between atoms: C_9  and  C_12
    7  A    between atoms: N_16  and  C_30
    8  A    between atoms: N_16  and  C_34
    9  A    between atoms: C_19  and  C_34
   10  A    between atoms: C_25  and  C_32
                            x       y       z     vdW  Elec       q    Type
                         _______ _______ _______ _____ _____    ______ ____

>  <TORSDO>
F 10

$$$$
=
 OpenBabel11052411063D

 34 38  0  0  1  0  0  0  0  0999 V2000
  162.3710  208.0800  151.6240 N   0  0  0  0  0  0  0  0  0  0  0  0
  160.9730  207.6740  151.8300 C   0  0  2  0  0  3  0  0  0  0  0  0
  161.2990  209.0870  151.5330 C   0  0  1  0  0  3  0  0  0  0  0  0
  161.3600  210.0250  152.7160 C   0  0  0  0  0  0  0  0  0  0  0  0
  162.4540  210.1920  153.3160 O   0  0  0  0  0  0  0  0  0  0  0  0
  157.7180  213.3540  152.2050 N   0  0  0  0  0  0  0  0  0  0  0  0
  156.7320  213.6300  153.0890 C   0  0  0  0  0  0  0  0  0  0  0  0
  158.4570  212.4290  152.8360 C   0  0  0  0  0  0  0  0  0  0  0  0
  159.6360  211.7220  152.3540 C   0  0  0  0  0  3  0  0  0  0  0  0
  156.8420  212.9370  154.2080 O   0  0  0  0  0  0  0  0  0  0  0  0
  159.6180  210.5120  154.4270 O   0  0  0  0  0  0  0  0  0  0  0  0
  157.9090  212.1850  154.0570 C   0  0  0  0  0  0  0  0  0  0  0  0
  158.4940  211.2020  155.0130 C   0  0  1  0  0  3  0  0  0  0  0  0
  155.8040  214.4530  152.8690 O   0  0  0  0  0  0  0  0  0  0  0  0
  160.1780  210.7900  153.1540 C   0  0  0  0  0  0  0  0  0  0  0  0
  157.5330  210.2830  155.3860 F   0  0  0  0  0  0  0  0  0  0  0  0
  157.8860  213.8700  150.8530 C   0  0  0  0  0  2  0  0  0  0  0  0
  157.0010  213.8310  148.2780 S   0  0  0  0  0  1  0  0  0  0  0  0
  157.1690  212.9710  149.8650 C   0  0  0  0  0  2  0  0  0  0  0  0
  160.7640  207.3240  153.3000 C   0  0  0  0  0  2  0  0  0  0  0  0
  161.6810  206.3450  153.6800 O   0  0  0  0  0  1  0  0  0  0  0  0
  162.7180  207.7220  150.2600 C   0  0  0  0  0  2  0  0  0  0  0  0
  161.9690  208.6160  149.2890 C   0  0  0  0  0  2  0  0  0  0  0  0
  161.6710  207.8810  148.0720 N   0  0  0  0  0  2  0  0  0  0  0  0
  162.0980  206.5110  148.2930 C   0  0  0  0  0  2  0  0  0  0  0  0
  160.9110  205.5740  148.1620 C   0  0  1  0  0  3  0  0  0  0  0  0
  161.3330  200.9880  148.2900 C   0  0  0  0  0  1  0  0  0  0  0  0
  160.7710  202.7000  150.7970 N   0  0  0  0  0  1  0  0  0  0  0  0
  161.1620  204.6120  147.1240 N   0  0  0  0  0  0  0  0  0  0  0  0
  160.7840  204.7160  149.4600 C   0  0  0  0  0  3  0  0  0  0  0  0
  160.9140  203.3310  149.5300 C   0  0  0  0  0  0  0  0  0  0  0  0
  161.1930  202.4690  148.3110 C   0  0  0  0  0  0  0  0  0  0  0  0
  161.4110  203.8180  145.9970 N   0  0  0  0  0  2  0  0  0  0  0  0
  161.2760  203.2320  147.2680 C   0  0  0  0  0  0  0  0  0  0  0  0
  1  2  1  0  0  0  0
  2 20  1  1  0  0  0
  3  1  1  0  0  0  0
  3  2  1  0  0  0  0
  3  4  1  1  0  0  0
  4 15  1  0  0  0  0
  4  5  2  0  0  0  0
  6  8  1  0  0  0  0
  6  7  1  0  0  0  0
  7 10  1  0  0  0  0
  8 12  2  0  0  0  0
  9  8  1  0  0  0  0
  9 15  2  0  0  0  0
 11 13  1  0  0  0  0
 12 10  1  0  0  0  0
 12 13  1  0  0  0  0
 13 16  1  6  0  0  0
 14  7  2  0  0  0  0
 15 11  1  0  0  0  0
 17  6  1  0  0  0  0
 18 19  1  0  0  0  0
 19 17  1  0  0  0  0
 20 21  1  0  0  0  0
 22  1  1  0  0  0  0
 23 22  1  0  0  0  0
 24 25  1  0  0  0  0
 24 23  1  0  0  0  0
 26 25  1  1  0  0  0
 26 30  1  0  0  0  0
 27 32  1  0  0  0  0
 29 34  1  0  0  0  0
 29 26  1  0  0  0  0
 30 31  2  0  0  0  0
 31 28  1  0  0  0  0
 32 31  1  0  0  0  0
 33 29  1  0  0  0  0
 33 34  1  0  0  0  0
 34 32  2  0  0  0  0
M  END
>  <MODEL>
4

>  <REMARK>
 VINA RESULT:      -7.8      4.030      9.016
  Name = 
  10 active torsions:
  status: ('A' for Active; 'I' for Inactive)
    1  A    between atoms: C_1  and  C_30
    2  A    between atoms: C_2  and  C_13
    3  A    between atoms: C_2  and  C_28
    4  A    between atoms: N_3  and  C_25
    5  A    between atoms: N_4  and  C_19
    6  A    between atoms: C_9  and  C_12
    7  A    between atoms: N_16  and  C_30
    8  A    between atoms: N_16  and  C_34
    9  A    between atoms: C_19  and  C_34
   10  A    between atoms: C_25  and  C_32
                            x       y       z     vdW  Elec       q    Type
                         _______ _______ _______ _____ _____    ______ ____

>  <TORSDO>
F 10

$$$$
=
 OpenBabel11052411063D

 34 38  0  0  1  0  0  0  0  0999 V2000
  161.3190  208.7020  150.1300 N   0  0  0  0  0  0  0  0  0  0  0  0
  161.7480  209.5240  151.2700 C   0  0  2  0  0  3  0  0  0  0  0  0
  162.3800  208.2090  151.0260 C   0  0  1  0  0  3  0  0  0  0  0  0
  161.8700  207.0530  151.8550 C   0  0  0  0  0  0  0  0  0  0  0  0
  161.7100  207.2070  153.0950 O   0  0  0  0  0  0  0  0  0  0  0  0
  161.4630  203.8100  148.1230 N   0  0  0  0  0  0  0  0  0  0  0  0
  161.0140  202.5370  148.1930 C   0  0  0  0  0  0  0  0  0  0  0  0
  161.3260  204.2620  149.3800 C   0  0  0  0  0  0  0  0  0  0  0  0
  161.6880  205.5640  149.9250 C   0  0  0  0  0  3  0  0  0  0  0  0
  160.6100  202.2040  149.4050 O   0  0  0  0  0  0  0  0  0  0  0  0
  160.9720  204.7410  152.0630 O   0  0  0  0  0  0  0  0  0  0  0  0
  160.8050  203.2690  150.1500 C   0  0  0  0  0  0  0  0  0  0  0  0
  160.5270  203.4470  151.6040 C   0  0  1  0  0  3  0  0  0  0  0  0
  160.9890  201.7490  147.2100 O   0  0  0  0  0  0  0  0  0  0  0  0
  161.5050  205.7650  151.2390 C   0  0  0  0  0  0  0  0  0  0  0  0
  161.1650  202.4580  152.3270 F   0  0  0  0  0  0  0  0  0  0  0  0
  162.0430  204.5010  146.9790 C   0  0  0  0  0  2  0  0  0  0  0  0
  161.3180  205.3620  144.5000 S   0  0  0  0  0  1  0  0  0  0  0  0
  160.9800  205.3250  146.2800 C   0  0  0  0  0  2  0  0  0  0  0  0
  160.6350  209.5540  152.3130 C   0  0  0  0  0  2  0  0  0  0  0  0
  160.5840  210.8160  152.9030 O   0  0  0  0  0  1  0  0  0  0  0  0
  161.9860  209.2320  148.9530 C   0  0  0  0  0  2  0  0  0  0  0  0
  162.3460  210.6880  149.1800 C   0  0  0  0  0  2  0  0  0  0  0  0
  161.6860  211.5190  148.1880 N   0  0  0  0  0  2  0  0  0  0  0  0
  162.6920  212.4230  147.6590 C   0  0  0  0  0  2  0  0  0  0  0  0
  162.0430  213.4250  146.7220 C   0  0  1  0  0  3  0  0  0  0  0  0
  160.1320  212.2090  142.7100 C   0  0  0  0  0  1  0  0  0  0  0  0
  158.5410  212.3850  145.3510 N   0  0  0  0  0  1  0  0  0  0  0  0
  162.6000  213.2920  145.4040 N   0  0  0  0  0  0  0  0  0  0  0  0
  160.5360  213.0630  146.5420 C   0  0  0  0  0  3  0  0  0  0  0  0
  159.9320  212.6850  145.3440 C   0  0  0  0  0  0  0  0  0  0  0  0
  160.6940  212.5890  144.0340 C   0  0  0  0  0  0  0  0  0  0  0  0
  163.3040  213.2120  144.1950 N   0  0  0  0  0  2  0  0  0  0  0  0
  161.9310  212.9100  144.2440 C   0  0  0  0  0  0  0  0  0  0  0  0
  1  3  1  0  0  0  0
  1  2  1  0  0  0  0
  2 20  1  1  0  0  0
  3  2  1  0  0  0  0
  3  4  1  1  0  0  0
  4  5  2  0  0  0  0
  6  7  1  0  0  0  0
  6  8  1  0  0  0  0
  7 10  1  0  0  0  0
  8  9  1  0  0  0  0
  8 12  2  0  0  0  0
  9 15  2  0  0  0  0
 10 12  1  0  0  0  0
 12 13  1  0  0  0  0
 13 11  1  0  0  0  0
 13 16  1  1  0  0  0
 14  7  2  0  0  0  0
 15  4  1  0  0  0  0
 15 11  1  0  0  0  0
 17  6  1  0  0  0  0
 18 19  1  0  0  0  0
 19 17  1  0  0  0  0
 20 21  1  0  0  0  0
 22 23  1  0  0  0  0
 22  1  1  0  0  0  0
 24 23  1  0  0  0  0
 25 24  1  0  0  0  0
 26 25  1  1  0  0  0
 27 32  1  0  0  0  0
 29 26  1  0  0  0  0
 30 26  1  0  0  0  0
 31 28  1  0  0  0  0
 31 30  2  0  0  0  0
 32 34  2  0  0  0  0
 32 31  1  0  0  0  0
 33 34  1  0  0  0  0
 33 29  1  0  0  0  0
 34 29  1  0  0  0  0
M  END
>  <MODEL>
5

>  <REMARK>
 VINA RESULT:      -7.8      1.720      2.292
  Name = 
  10 active torsions:
  status: ('A' for Active; 'I' for Inactive)
    1  A    between atoms: C_1  and  C_30
    2  A    between atoms: C_2  and  C_13
    3  A    between atoms: C_2  and  C_28
    4  A    between atoms: N_3  and  C_25
    5  A    between atoms: N_4  and  C_19
    6  A    between atoms: C_9  and  C_12
    7  A    between atoms: N_16  and  C_30
    8  A    between atoms: N_16  and  C_34
    9  A    between atoms: C_19  and  C_34
   10  A    between atoms: C_25  and  C_32
                            x       y       z     vdW  Elec       q    Type
                         _______ _______ _______ _____ _____    ______ ____

>  <TORSDO>
F 10

$$$$
=
 OpenBabel11052411063D

 34 38  0  0  1  0  0  0  0  0999 V2000
  161.6160  207.7470  152.0980 N   0  0  0  0  0  0  0  0  0  0  0  0
  161.1700  207.8800  150.7040 C   0  0  2  0  0  3  0  0  0  0  0  0
  160.8690  206.6460  151.4630 C   0  0  1  0  0  3  0  0  0  0  0  0
  161.7810  205.4670  151.2180 C   0  0  0  0  0  0  0  0  0  0  0  0
  162.8880  205.4080  151.8160 O   0  0  0  0  0  0  0  0  0  0  0  0
  161.3280  203.1210  146.8700 N   0  0  0  0  0  0  0  0  0  0  0  0
  160.8350  201.8790  146.6590 C   0  0  0  0  0  0  0  0  0  0  0  0
  161.1850  203.2960  148.1930 C   0  0  0  0  0  0  0  0  0  0  0  0
  161.5810  204.4350  149.0100 C   0  0  0  0  0  3  0  0  0  0  0  0
  160.4000  201.3080  147.7670 O   0  0  0  0  0  0  0  0  0  0  0  0
  160.8030  203.1980  150.9140 O   0  0  0  0  0  0  0  0  0  0  0  0
  160.6180  202.1790  148.7260 C   0  0  0  0  0  0  0  0  0  0  0  0
  160.3220  202.0510  150.1820 C   0  0  1  0  0  3  0  0  0  0  0  0
  160.8000  201.3230  145.5290 O   0  0  0  0  0  0  0  0  0  0  0  0
  161.3830  204.3560  150.3340 C   0  0  0  0  0  0  0  0  0  0  0  0
  160.9150  200.9070  150.6800 F   0  0  0  0  0  0  0  0  0  0  0  0
  161.9490  204.0200  145.9070 C   0  0  0  0  0  2  0  0  0  0  0  0
  160.4560  206.2040  145.2670 S   0  0  0  0  0  1  0  0  0  0  0  0
  160.9180  204.4910  144.9000 C   0  0  0  0  0  2  0  0  0  0  0  0
  162.3850  207.8260  149.7820 C   0  0  0  0  0  2  0  0  0  0  0  0
  162.0000  208.1600  148.4850 O   0  0  0  0  0  1  0  0  0  0  0  0
  160.6620  208.4740  152.9180 C   0  0  0  0  0  2  0  0  0  0  0  0
  160.5000  209.8860  152.3860 C   0  0  0  0  0  2  0  0  0  0  0  0
  160.8840  210.8440  153.4080 N   0  0  0  0  0  2  0  0  0  0  0  0
  159.9130  210.7260  154.4810 C   0  0  0  0  0  2  0  0  0  0  0  0
  159.4090  212.1030  154.8730 C   0  0  1  0  0  3  0  0  0  0  0  0
  155.2820  213.7010  153.5930 C   0  0  0  0  0  1  0  0  0  0  0  0
  155.7600  212.2030  156.2490 N   0  0  0  0  0  1  0  0  0  0  0  0
  158.9870  212.8190  153.7000 N   0  0  0  0  0  0  0  0  0  0  0  0
  158.1080  211.9550  155.7220 C   0  0  0  0  0  3  0  0  0  0  0  0
  156.8460  212.4220  155.3580 C   0  0  0  0  0  0  0  0  0  0  0  0
  156.5870  213.1580  154.0560 C   0  0  0  0  0  0  0  0  0  0  0  0
  158.7530  213.5060  152.5020 N   0  0  0  0  0  2  0  0  0  0  0  0
  157.7010  213.2590  153.4020 C   0  0  0  0  0  0  0  0  0  0  0  0
  1 22  1  0  0  0  0
  2 20  1  6  0  0  0
  2  3  1  0  0  0  0
  2  1  1  0  0  0  0
  3  4  1  6  0  0  0
  3  1  1  0  0  0  0
  4  5  2  0  0  0  0
  6  8  1  0  0  0  0
  7  6  1  0  0  0  0
  7 10  1  0  0  0  0
  8 12  2  0  0  0  0
  8  9  1  0  0  0  0
  9 15  2  0  0  0  0
 10 12  1  0  0  0  0
 12 13  1  0  0  0  0
 13 16  1  1  0  0  0
 13 11  1  0  0  0  0
 14  7  2  0  0  0  0
 15 11  1  0  0  0  0
 15  4  1  0  0  0  0
 17  6  1  0  0  0  0
 19 18  1  0  0  0  0
 19 17  1  0  0  0  0
 21 20  1  0  0  0  0
 23 22  1  0  0  0  0
 23 24  1  0  0  0  0
 24 25  1  0  0  0  0
 26 25  1  6  0  0  0
 26 30  1  0  0  0  0
 27 32  1  0  0  0  0
 29 26  1  0  0  0  0
 31 30  2  0  0  0  0
 31 28  1  0  0  0  0
 32 31  1  0  0  0  0
 33 34  1  0  0  0  0
 33 29  1  0  0  0  0
 34 29  1  0  0  0  0
 34 32  2  0  0  0  0
M  END
>  <MODEL>
6

>  <REMARK>
 VINA RESULT:      -7.6      3.286      4.159
  Name = 
  10 active torsions:
  status: ('A' for Active; 'I' for Inactive)
    1  A    between atoms: C_1  and  C_30
    2  A    between atoms: C_2  and  C_13
    3  A    between atoms: C_2  and  C_28
    4  A    between atoms: N_3  and  C_25
    5  A    between atoms: N_4  and  C_19
    6  A    between atoms: C_9  and  C_12
    7  A    between atoms: N_16  and  C_30
    8  A    between atoms: N_16  and  C_34
    9  A    between atoms: C_19  and  C_34
   10  A    between atoms: C_25  and  C_32
                            x       y       z     vdW  Elec       q    Type
                         _______ _______ _______ _____ _____    ______ ____

>  <TORSDO>
F 10

$$$$
=
 OpenBabel11052411063D

 34 38  0  0  1  0  0  0  0  0999 V2000
  161.0440  207.4210  151.5580 N   0  0  0  0  0  0  0  0  0  0  0  0
  161.7650  207.4580  152.8380 C   0  0  2  0  0  3  0  0  0  0  0  0
  162.1180  206.4450  151.8190 C   0  0  1  0  0  3  0  0  0  0  0  0
  161.5350  205.0650  152.0130 C   0  0  0  0  0  0  0  0  0  0  0  0
  161.2060  204.6910  153.1700 O   0  0  0  0  0  0  0  0  0  0  0  0
  161.4860  203.7970  147.2170 N   0  0  0  0  0  0  0  0  0  0  0  0
  161.1430  202.5990  146.6920 C   0  0  0  0  0  0  0  0  0  0  0  0
  161.2830  203.6340  148.5340 C   0  0  0  0  0  0  0  0  0  0  0  0
  161.5220  204.5780  149.6170 C   0  0  0  0  0  3  0  0  0  0  0  0
  160.7410  201.7370  147.6080 O   0  0  0  0  0  0  0  0  0  0  0  0
  160.8280  202.8480  151.1280 O   0  0  0  0  0  0  0  0  0  0  0  0
  160.8290  202.3700  148.7560 C   0  0  0  0  0  0  0  0  0  0  0  0
  160.5040  201.8660  150.1210 C   0  0  1  0  0  3  0  0  0  0  0  0
  161.2060  202.3290  145.4630 O   0  0  0  0  0  0  0  0  0  0  0  0
  161.2930  204.1630  150.8720 C   0  0  0  0  0  0  0  0  0  0  0  0
  161.2050  200.7030  150.3690 F   0  0  0  0  0  0  0  0  0  0  0  0
  162.0320  204.9590  146.5300 C   0  0  0  0  0  2  0  0  0  0  0  0
  161.2060  205.4580  143.9840 S   0  0  0  0  0  1  0  0  0  0  0  0
  160.9340  205.6690  145.7630 C   0  0  0  0  0  2  0  0  0  0  0  0
  160.8310  206.9970  153.9530 C   0  0  0  0  0  2  0  0  0  0  0  0
  161.1430  207.6730  155.1310 O   0  0  0  0  0  1  0  0  0  0  0  0
  161.6220  208.4550  150.7180 C   0  0  0  0  0  2  0  0  0  0  0  0
  162.1490  209.5840  151.5840 C   0  0  0  0  0  2  0  0  0  0  0  0
  161.2240  210.7030  151.5520 N   0  0  0  0  0  2  0  0  0  0  0  0
  160.9320  211.0480  152.9320 C   0  0  0  0  0  2  0  0  0  0  0  0
  159.4970  210.6800  153.2620 C   0  0  1  0  0  3  0  0  0  0  0  0
  156.8990  213.1420  156.1620 C   0  0  0  0  0  1  0  0  0  0  0  0
  156.9530  213.6340  153.1150 N   0  0  0  0  0  1  0  0  0  0  0  0
  159.3290  210.6050  154.6880 N   0  0  0  0  0  0  0  0  0  0  0  0
  158.5520  211.8410  152.8230 C   0  0  0  0  0  3  0  0  0  0  0  0
  157.7600  212.6070  153.6780 C   0  0  0  0  0  0  0  0  0  0  0  0
  157.7210  212.3860  155.1790 C   0  0  0  0  0  0  0  0  0  0  0  0
  159.2870  210.3920  156.0720 N   0  0  0  0  0  2  0  0  0  0  0  0
  158.5130  211.4060  155.4800 C   0  0  0  0  0  0  0  0  0  0  0  0
  1  3  1  0  0  0  0
  1  2  1  0  0  0  0
  2 20  1  1  0  0  0
  3  4  1  1  0  0  0
  3  2  1  0  0  0  0
  4  5  2  0  0  0  0
  6  8  1  0  0  0  0
  7  6  1  0  0  0  0
  7 10  1  0  0  0  0
  8 12  2  0  0  0  0
  8  9  1  0  0  0  0
  9 15  2  0  0  0  0
 10 12  1  0  0  0  0
 12 13  1  0  0  0  0
 13 16  1  1  0  0  0
 13 11  1  0  0  0  0
 14  7  2  0  0  0  0
 15 11  1  0  0  0  0
 15  4  1  0  0  0  0
 17  6  1  0  0  0  0
 18 19  1  0  0  0  0
 19 17  1  0  0  0  0
 20 21  1  0  0  0  0
 22  1  1  0  0  0  0
 22 23  1  0  0  0  0
 24 23  1  0  0  0  0
 24 25  1  0  0  0  0
 26 25  1  1  0  0  0
 26 29  1  0  0  0  0
 28 31  1  0  0  0  0
 29 34  1  0  0  0  0
 29 33  1  0  0  0  0
 30 26  1  0  0  0  0
 30 31  2  0  0  0  0
 31 32  1  0  0  0  0
 32 34  2  0  0  0  0
 32 27  1  0  0  0  0
 34 33  1  0  0  0  0
M  END
>  <MODEL>
7

>  <REMARK>
 VINA RESULT:      -7.6      3.052      4.138
  Name = 
  10 active torsions:
  status: ('A' for Active; 'I' for Inactive)
    1  A    between atoms: C_1  and  C_30
    2  A    between atoms: C_2  and  C_13
    3  A    between atoms: C_2  and  C_28
    4  A    between atoms: N_3  and  C_25
    5  A    between atoms: N_4  and  C_19
    6  A    between atoms: C_9  and  C_12
    7  A    between atoms: N_16  and  C_30
    8  A    between atoms: N_16  and  C_34
    9  A    between atoms: C_19  and  C_34
   10  A    between atoms: C_25  and  C_32
                            x       y       z     vdW  Elec       q    Type
                         _______ _______ _______ _____ _____    ______ ____

>  <TORSDO>
F 10

$$$$
=
 OpenBabel11052411063D

 34 38  0  0  1  0  0  0  0  0999 V2000
  162.2930  207.7320  151.5700 N   0  0  0  0  0  0  0  0  0  0  0  0
  161.0310  207.3460  152.2180 C   0  0  2  0  0  3  0  0  0  0  0  0
  161.1640  208.6800  151.5910 C   0  0  1  0  0  3  0  0  0  0  0  0
  161.4660  209.8320  152.5210 C   0  0  0  0  0  0  0  0  0  0  0  0
  162.6610  210.1920  152.6910 O   0  0  0  0  0  0  0  0  0  0  0  0
  158.0140  213.3740  152.9100 N   0  0  0  0  0  0  0  0  0  0  0  0
  157.1470  213.5620  153.9310 C   0  0  0  0  0  0  0  0  0  0  0  0
  158.7550  212.3300  153.3130 C   0  0  0  0  0  0  0  0  0  0  0  0
  159.8280  211.6460  152.6040 C   0  0  0  0  0  3  0  0  0  0  0  0
  157.3290  212.7040  154.9180 O   0  0  0  0  0  0  0  0  0  0  0  0
  159.9490  210.1410  154.4710 O   0  0  0  0  0  0  0  0  0  0  0  0
  158.3230  211.9320  154.5410 C   0  0  0  0  0  0  0  0  0  0  0  0
  158.9410  210.7900  155.2740 C   0  0  1  0  0  3  0  0  0  0  0  0
  156.2570  214.4530  153.9380 O   0  0  0  0  0  0  0  0  0  0  0  0
  160.3890  210.5800  153.1960 C   0  0  0  0  0  0  0  0  0  0  0  0
  157.9660  209.8730  155.6170 F   0  0  0  0  0  0  0  0  0  0  0  0
  158.0720  214.0780  151.6360 C   0  0  0  0  0  2  0  0  0  0  0  0
  157.0290  213.2800  149.2510 S   0  0  0  0  0  1  0  0  0  0  0  0
  156.7470  213.9460  150.9130 C   0  0  0  0  0  2  0  0  0  0  0  0
  161.2410  207.2850  153.7270 C   0  0  0  0  0  2  0  0  0  0  0  0
  161.1940  205.9580  154.1510 O   0  0  0  0  0  1  0  0  0  0  0  0
  162.2940  207.1220  150.2510 C   0  0  0  0  0  2  0  0  0  0  0  0
  160.8790  207.0790  149.7050 C   0  0  0  0  0  2  0  0  0  0  0  0
  160.8000  206.1180  148.6180 N   0  0  0  0  0  2  0  0  0  0  0  0
  160.8730  204.7980  149.2170 C   0  0  0  0  0  2  0  0  0  0  0  0
  161.7660  203.9010  148.3790 C   0  0  1  0  0  3  0  0  0  0  0  0
  160.1420  201.2390  144.9870 C   0  0  0  0  0  1  0  0  0  0  0  0
  161.1800  204.1100  144.5280 N   0  0  0  0  0  1  0  0  0  0  0  0
  161.2510  202.5580  148.3860 N   0  0  0  0  0  0  0  0  0  0  0  0
  161.6810  204.3380  146.8840 C   0  0  0  0  0  3  0  0  0  0  0  0
  161.1890  203.5590  145.8390 C   0  0  0  0  0  0  0  0  0  0  0  0
  160.6700  202.1460  146.0420 C   0  0  0  0  0  0  0  0  0  0  0  0
  160.7810  201.2520  148.5740 N   0  0  0  0  0  2  0  0  0  0  0  0
  160.7760  201.8360  147.2950 C   0  0  0  0  0  0  0  0  0  0  0  0
  1  3  1  0  0  0  0
  1  2  1  0  0  0  0
  2 20  1  1  0  0  0
  3  2  1  0  0  0  0
  3  4  1  1  0  0  0
  4  5  2  0  0  0  0
  4 15  1  0  0  0  0
  6  8  1  0  0  0  0
  6  7  1  0  0  0  0
  7 14  2  0  0  0  0
  7 10  1  0  0  0  0
  8 12  2  0  0  0  0
  9 15  2  0  0  0  0
  9  8  1  0  0  0  0
 11 13  1  0  0  0  0
 12 10  1  0  0  0  0
 12 13  1  0  0  0  0
 13 16  1  6  0  0  0
 15 11  1  0  0  0  0
 17  6  1  0  0  0  0
 18 19  1  0  0  0  0
 19 17  1  0  0  0  0
 20 21  1  0  0  0  0
 22  1  1  0  0  0  0
 23 22  1  0  0  0  0
 24 25  1  0  0  0  0
 24 23  1  0  0  0  0
 26 29  1  0  0  0  0
 26 25  1  1  0  0  0
 27 32  1  0  0  0  0
 28 31  1  0  0  0  0
 29 33  1  0  0  0  0
 30 26  1  0  0  0  0
 31 32  1  0  0  0  0
 31 30  2  0  0  0  0
 32 34  2  0  0  0  0
 34 29  1  0  0  0  0
 34 33  1  0  0  0  0
M  END
>  <MODEL>
8

>  <REMARK>
 VINA RESULT:      -7.5      4.391      9.453
  Name = 
  10 active torsions:
  status: ('A' for Active; 'I' for Inactive)
    1  A    between atoms: C_1  and  C_30
    2  A    between atoms: C_2  and  C_13
    3  A    between atoms: C_2  and  C_28
    4  A    between atoms: N_3  and  C_25
    5  A    between atoms: N_4  and  C_19
    6  A    between atoms: C_9  and  C_12
    7  A    between atoms: N_16  and  C_30
    8  A    between atoms: N_16  and  C_34
    9  A    between atoms: C_19  and  C_34
   10  A    between atoms: C_25  and  C_32
                            x       y       z     vdW  Elec       q    Type
                         _______ _______ _______ _____ _____    ______ ____

>  <TORSDO>
F 10

$$$$
=
 OpenBabel11052411063D

 34 38  0  0  1  0  0  0  0  0999 V2000
  161.4430  208.7840  152.8110 N   0  0  0  0  0  0  0  0  0  0  0  0
  161.0770  208.7700  151.3870 C   0  0  2  0  0  3  0  0  0  0  0  0
  160.7020  207.6350  152.2600 C   0  0  1  0  0  3  0  0  0  0  0  0
  161.5940  206.4170  152.1990 C   0  0  0  0  0  0  0  0  0  0  0  0
  162.5570  206.3160  153.0040 O   0  0  0  0  0  0  0  0  0  0  0  0
  161.5680  204.2290  147.7460 N   0  0  0  0  0  0  0  0  0  0  0  0
  161.1830  202.9650  147.4590 C   0  0  0  0  0  0  0  0  0  0  0  0
  161.3370  204.3370  149.0640 C   0  0  0  0  0  0  0  0  0  0  0  0
  161.5990  205.4680  149.9450 C   0  0  0  0  0  3  0  0  0  0  0  0
  160.7310  202.3170  148.5170 O   0  0  0  0  0  0  0  0  0  0  0  0
  160.8090  204.0980  151.7510 O   0  0  0  0  0  0  0  0  0  0  0  0
  160.8270  203.1610  149.5190 C   0  0  0  0  0  0  0  0  0  0  0  0
  160.4590  202.9500  150.9490 C   0  0  1  0  0  3  0  0  0  0  0  0
  161.2550  202.4550  146.3090 O   0  0  0  0  0  0  0  0  0  0  0  0
  161.3320  205.3180  151.2510 C   0  0  0  0  0  0  0  0  0  0  0  0
  161.1070  201.8330  151.4380 F   0  0  0  0  0  0  0  0  0  0  0  0
  162.1740  205.2110  146.8560 C   0  0  0  0  0  2  0  0  0  0  0  0
  160.8320  205.4590  144.5010 S   0  0  0  0  0  1  0  0  0  0  0  0
  161.0940  206.0450  146.1960 C   0  0  0  0  0  2  0  0  0  0  0  0
  162.3370  208.5880  150.5480 C   0  0  0  0  0  2  0  0  0  0  0  0
  162.0270  208.7600  149.2000 O   0  0  0  0  0  1  0  0  0  0  0  0
  160.4670  209.6180  153.4900 C   0  0  0  0  0  2  0  0  0  0  0  0
  160.7500  211.0800  153.2000 C   0  0  0  0  0  2  0  0  0  0  0  0
  159.6540  211.6520  152.4380 N   0  0  0  0  0  2  0  0  0  0  0  0
  159.1700  212.7960  153.1910 C   0  0  0  0  0  2  0  0  0  0  0  0
  158.9650  213.9770  152.2590 C   0  0  1  0  0  3  0  0  0  0  0  0
  157.2780  213.5220  147.9960 C   0  0  0  0  0  1  0  0  0  0  0  0
  155.5060  214.0880  150.4590 N   0  0  0  0  0  1  0  0  0  0  0  0
  159.6130  213.7220  151.0010 N   0  0  0  0  0  0  0  0  0  0  0  0
  157.4520  214.0930  151.8970 C   0  0  0  0  0  3  0  0  0  0  0  0
  156.9130  213.9540  150.6190 C   0  0  0  0  0  0  0  0  0  0  0  0
  157.7640  213.6710  149.3940 C   0  0  0  0  0  0  0  0  0  0  0  0
  160.4020  213.4710  149.8710 N   0  0  0  0  0  2  0  0  0  0  0  0
  159.0060  213.5970  149.7550 C   0  0  0  0  0  0  0  0  0  0  0  0
  1 22  1  0  0  0  0
  2 20  1  6  0  0  0
  2  3  1  0  0  0  0
  2  1  1  0  0  0  0
  3  4  1  6  0  0  0
  3  1  1  0  0  0  0
  4  5  2  0  0  0  0
  6  8  1  0  0  0  0
  7  6  1  0  0  0  0
  7 10  1  0  0  0  0
  8 12  2  0  0  0  0
  8  9  1  0  0  0  0
  9 15  2  0  0  0  0
 10 12  1  0  0  0  0
 12 13  1  0  0  0  0
 13 16  1  1  0  0  0
 13 11  1  0  0  0  0
 14  7  2  0  0  0  0
 15 11  1  0  0  0  0
 15  4  1  0  0  0  0
 17  6  1  0  0  0  0
 18 19  1  0  0  0  0
 19 17  1  0  0  0  0
 21 20  1  0  0  0  0
 23 22  1  0  0  0  0
 24 25  1  0  0  0  0
 24 23  1  0  0  0  0
 26 25  1  1  0  0  0
 27 32  1  0  0  0  0
 28 31  1  0  0  0  0
 29 26  1  0  0  0  0
 30 26  1  0  0  0  0
 31 30  2  0  0  0  0
 32 34  2  0  0  0  0
 32 31  1  0  0  0  0
 33 29  1  0  0  0  0
 34 33  1  0  0  0  0
 34 29  1  0  0  0  0
M  END
>  <MODEL>
9

>  <REMARK>
 VINA RESULT:      -7.4      2.029      2.887
  Name = 
  10 active torsions:
  status: ('A' for Active; 'I' for Inactive)
    1  A    between atoms: C_1  and  C_30
    2  A    between atoms: C_2  and  C_13
    3  A    between atoms: C_2  and  C_28
    4  A    between atoms: N_3  and  C_25
    5  A    between atoms: N_4  and  C_19
    6  A    between atoms: C_9  and  C_12
    7  A    between atoms: N_16  and  C_30
    8  A    between atoms: N_16  and  C_34
    9  A    between atoms: C_19  and  C_34
   10  A    between atoms: C_25  and  C_32
                            x       y       z     vdW  Elec       q    Type
                         _______ _______ _______ _____ _____    ______ ____

>  <TORSDO>
F 10

$$$$
