=
 OpenBabel11042422093D

 50 54  0  0  1  0  0  0  0  0999 V2000
  161.1820  211.2630  152.2170 C   0  0  0  0  0  0  0  0  0  0  0  0
  162.9170  211.1110  148.3010 C   0  0  0  0  0  2  0  0  0  0  0  0
  160.6240  207.4410  149.8670 C   0  0  0  0  0  2  0  0  0  0  0  0
  159.1030  213.3460  149.8530 O   0  0  0  0  0  1  0  0  0  0  0  0
  161.6450  209.8720  150.1960 C   0  0  0  0  0  0  0  0  0  0  0  0
  161.3090  212.2900  149.5260 C   0  0  0  0  0  0  0  0  0  0  0  0
  159.9520  211.4630  154.3880 C   0  0  0  0  0  0  0  0  0  0  0  0
  158.7980  212.2670  152.3830 C   0  0  0  0  0  3  0  0  0  0  0  0
  162.2770  207.5010  151.8120 C   0  0  0  0  0  2  0  0  0  0  0  0
  162.5510  208.2430  148.5650 O   0  0  0  0  0  1  0  0  0  0  0  0
  162.1230  214.4520  148.9690 O   0  0  0  0  0  1  0  0  0  0  0  0
  160.1210  212.5260  150.3610 C   0  0  0  0  0  0  0  0  0  0  0  0
  161.5180  208.6850  152.4270 C   0  0  1  0  0  3  0  0  0  0  0  0
  162.8580  212.5410  147.7380 C   0  0  2  0  0  3  0  0  0  0  0  0
  161.3900  209.9110  151.5320 C   0  0  0  0  0  0  0  0  0  0  0  0
  161.3710  206.6200  150.9280 C   0  0  2  0  0  3  0  0  0  0  0  0
  161.0810  211.1950  153.7240 C   0  0  0  0  0  3  0  0  0  0  0  0
  161.9440  211.1220  149.4300 C   0  0  0  0  0  0  0  0  0  0  0  0
  160.0340  212.0520  151.6130 C   0  0  2  0  0  3  0  0  0  0  0  0
  158.7590  211.9920  153.6880 C   0  0  0  0  0  3  0  0  0  0  0  0
  161.4390  208.6220  149.3360 C   0  0  1  0  0  3  0  0  0  0  0  0
  160.1900  208.2780  153.0570 C   0  0  0  0  0  1  0  0  0  0  0  0
  161.6860  213.2300  148.4430 C   0  0  1  0  0  3  0  0  0  0  0  0
  161.9500  205.2820  150.3950 C   0  0  1  0  0  3  0  0  0  0  0  0
  162.8790  204.7800  151.3100 O   0  0  0  0  0  1  0  0  0  0  0  0
  160.9920  204.1380  149.9620 C   0  0  1  0  0  3  0  0  0  0  0  0
  161.1970  203.5100  148.5780 C   0  0  0  0  0  2  0  0  0  0  0  0
  161.8700  204.5130  147.7680 N   0  0  0  0  0  2  0  0  0  0  0  0
  163.5680  204.7510  146.2150 O   0  0  0  0  0  0  0  0  0  0  0  0
  162.4670  204.2020  146.5030 C   0  0  0  0  0  0  0  0  0  0  0  0
  161.3920  202.1810  145.8000 F   0  0  0  0  0  0  0  0  0  0  0  0
  161.7040  203.4870  145.4290 C   0  0  1  0  0  3  0  0  0  0  0  0
  160.4460  204.2710  145.0500 C   0  0  2  0  0  3  0  0  0  0  0  0
  159.8490  203.7200  143.9200 F   0  0  0  0  0  0  0  0  0  0  0  0
  160.7380  205.7290  144.8540 C   0  0  0  0  0  0  0  0  0  0  0  0
  161.2370  206.1030  143.7500 O   0  0  0  0  0  0  0  0  0  0  0  0
  160.4210  206.6990  145.8530 N   0  0  0  0  0  1  0  0  0  0  0  0
  160.7830  203.0790  151.0440 C   0  0  0  0  0  2  0  0  0  0  0  0
  161.1830  201.6950  150.5330 C   0  0  0  0  0  2  0  0  0  0  0  0
  160.0340  201.0730  149.7650 C   0  0  0  0  0  1  0  0  0  0  0  0
  159.9860  211.3910  155.8850 C   0  0  2  0  0  3  0  0  0  0  0  0
  160.8030  212.4750  156.4350 N   0  0  0  0  0  1  0  0  0  0  0  0
  161.7190  209.8350  156.9040 C   0  0  0  0  0  3  0  0  0  0  0  0
  159.9850  207.6620  156.6690 C   0  0  0  0  0  3  0  0  0  0  0  0
  160.4100  210.0480  156.4320 C   0  0  0  0  0  0  0  0  0  0  0  0
  159.5470  208.9420  156.3080 C   0  0  0  0  0  3  0  0  0  0  0  0
  161.2820  207.4670  157.1430 C   0  0  0  0  0  3  0  0  0  0  0  0
  162.1540  208.5550  157.2500 C   0  0  0  0  0  3  0  0  0  0  0  0
  161.3510  212.7320  145.6660 C   0  0  0  0  0  1  0  0  0  0  0  0
  162.7910  212.5700  146.1910 C   0  0  0  0  0  2  0  0  0  0  0  0
  1 17  1  0  0  0  0
  2 18  1  0  0  0  0
  3 16  1  0  0  0  0
  4 12  1  0  0  0  0
  5 15  1  0  0  0  0
  6 12  2  0  0  0  0
  7 41  1  0  0  0  0
  8 20  2  0  0  0  0
  9 13  1  0  0  0  0
 12 19  1  0  0  0  0
 13 22  1  6  0  0  0
 14 50  1  6  0  0  0
 14  2  1  0  0  0  0
 14 23  1  0  0  0  0
 15  1  2  0  0  0  0
 15 13  1  0  0  0  0
 16 24  1  6  0  0  0
 16  9  1  0  0  0  0
 17  7  2  0  0  0  0
 18  6  1  0  0  0  0
 18  5  2  0  0  0  0
 19  1  1  0  0  0  0
 19  8  1  6  0  0  0
 20  7  1  0  0  0  0
 21 10  1  1  0  0  0
 21  3  1  0  0  0  0
 21  5  1  0  0  0  0
 23 11  1  1  0  0  0
 23  6  1  0  0  0  0
 24 25  1  1  0  0  0
 26 27  1  6  0  0  0
 26 24  1  0  0  0  0
 26 38  1  0  0  0  0
 28 27  1  0  0  0  0
 29 30  2  0  0  0  0
 30 28  1  0  0  0  0
 32 31  1  1  0  0  0
 32 30  1  0  0  0  0
 33 34  1  6  0  0  0
 33 32  1  0  0  0  0
 35 33  1  0  0  0  0
 35 37  1  0  0  0  0
 36 35  2  0  0  0  0
 39 38  1  0  0  0  0
 40 39  1  0  0  0  0
 41 45  1  0  0  0  0
 41 42  1  6  0  0  0
 43 48  1  0  0  0  0
 44 47  1  0  0  0  0
 45 43  2  0  0  0  0
 46 45  1  0  0  0  0
 46 44  2  0  0  0  0
 47 48  2  0  0  0  0
 49 50  1  0  0  0  0
M  END
>  <MODEL>
1

>  <REMARK>
 VINA RESULT:      -6.4      0.000      0.000
  Name = 
  12 active torsions:
  status: ('A' for Active; 'I' for Inactive)
    1  A    between atoms: C_4  and  C_6
    2  A    between atoms: C_4  and  C_30
    3  A    between atoms: C_6  and  C_13
    4  A    between atoms: C_6  and  C_50
    5  A    between atoms: C_11  and  C_14
    6  A    between atoms: N_12  and  C_13
    7  A    between atoms: C_14  and  C_16
    8  A    between atoms: C_15  and  C_22
    9  A    between atoms: C_22  and  C_31
   10  A    between atoms: C_27  and  C_48
   11  A    between atoms: C_31  and  C_47
   12  A    between atoms: C_41  and  C_50
                            x       y       z     vdW  Elec       q    Type
                         _______ _______ _______ _____ _____    ______ ____

>  <TORSDO>
F 12

$$$$
=
 OpenBabel11042422093D

 50 54  0  0  1  0  0  0  0  0999 V2000
  161.0310  211.4500  152.3260 C   0  0  0  0  0  0  0  0  0  0  0  0
  162.9910  211.0850  148.5310 C   0  0  0  0  0  2  0  0  0  0  0  0
  160.6260  207.4940  150.1750 C   0  0  0  0  0  2  0  0  0  0  0  0
  159.0830  213.3770  149.7290 O   0  0  0  0  0  1  0  0  0  0  0  0
  161.6160  209.9480  150.4190 C   0  0  0  0  0  0  0  0  0  0  0  0
  161.3090  212.3210  149.5920 C   0  0  0  0  0  0  0  0  0  0  0  0
  159.6760  211.7670  154.4070 C   0  0  0  0  0  0  0  0  0  0  0  0
  158.6370  212.4440  152.2950 C   0  0  0  0  0  3  0  0  0  0  0  0
  162.1640  207.6800  152.2050 C   0  0  0  0  0  2  0  0  0  0  0  0
  162.6230  208.2350  148.9410 O   0  0  0  0  0  1  0  0  0  0  0  0
  162.1460  214.4530  148.9570 O   0  0  0  0  0  1  0  0  0  0  0  0
  160.0740  212.5950  150.3410 C   0  0  0  0  0  0  0  0  0  0  0  0
  161.3650  208.8920  152.7050 C   0  0  1  0  0  3  0  0  0  0  0  0
  162.9580  212.4800  147.8840 C   0  0  2  0  0  3  0  0  0  0  0  0
  161.2840  210.0620  151.7340 C   0  0  0  0  0  0  0  0  0  0  0  0
  161.3140  206.7430  151.3220 C   0  0  2  0  0  3  0  0  0  0  0  0
  160.8430  211.4690  153.8260 C   0  0  0  0  0  3  0  0  0  0  0  0
  161.9540  211.1540  149.6000 C   0  0  0  0  0  0  0  0  0  0  0  0
  159.9170  212.1940  151.6120 C   0  0  2  0  0  3  0  0  0  0  0  0
  158.5230  212.2450  153.6090 C   0  0  0  0  0  3  0  0  0  0  0  0
  161.4660  208.6490  149.6230 C   0  0  1  0  0  3  0  0  0  0  0  0
  160.0040  208.5120  153.2800 C   0  0  0  0  0  1  0  0  0  0  0  0
  161.7450  213.1990  148.4790 C   0  0  1  0  0  3  0  0  0  0  0  0
  161.9280  205.3800  150.9030 C   0  0  1  0  0  3  0  0  0  0  0  0
  162.7930  204.9310  151.9050 O   0  0  0  0  0  1  0  0  0  0  0  0
  161.0030  204.2110  150.4670 C   0  0  1  0  0  3  0  0  0  0  0  0
  160.7590  204.0040  148.9670 C   0  0  0  0  0  2  0  0  0  0  0  0
  161.7070  204.8620  148.2750 N   0  0  0  0  0  2  0  0  0  0  0  0
  163.1180  204.9010  146.4420 O   0  0  0  0  0  0  0  0  0  0  0  0
  161.9330  204.7720  146.8630 C   0  0  0  0  0  0  0  0  0  0  0  0
  160.7180  206.0420  145.2360 F   0  0  0  0  0  0  0  0  0  0  0  0
  160.8000  204.8100  145.8820 C   0  0  1  0  0  3  0  0  0  0  0  0
  160.9220  203.6640  144.8770 C   0  0  2  0  0  3  0  0  0  0  0  0
  160.1080  203.8950  143.7720 F   0  0  0  0  0  0  0  0  0  0  0  0
  160.6170  202.3370  145.5060 C   0  0  0  0  0  0  0  0  0  0  0  0
  161.0910  202.0900  146.6570 O   0  0  0  0  0  0  0  0  0  0  0  0
  159.7750  201.3780  144.8670 N   0  0  0  0  0  1  0  0  0  0  0  0
  161.3090  202.8950  151.1830 C   0  0  0  0  0  2  0  0  0  0  0  0
  160.4110  201.7730  150.6610 C   0  0  0  0  0  2  0  0  0  0  0  0
  161.2500  200.7140  149.9730 C   0  0  0  0  0  1  0  0  0  0  0  0
  159.6230  211.7820  155.9050 C   0  0  2  0  0  3  0  0  0  0  0  0
  160.0020  210.4760  156.4480 N   0  0  0  0  0  1  0  0  0  0  0  0
  157.1860  211.4040  156.5200 C   0  0  0  0  0  3  0  0  0  0  0  0
  156.8790  214.0970  157.1820 C   0  0  0  0  0  3  0  0  0  0  0  0
  158.3060  212.2550  156.4740 C   0  0  0  0  0  0  0  0  0  0  0  0
  158.1370  213.6140  156.8000 C   0  0  0  0  0  3  0  0  0  0  0  0
  155.7790  213.2410  157.2310 C   0  0  0  0  0  3  0  0  0  0  0  0
  155.9310  211.8930  156.8890 C   0  0  0  0  0  3  0  0  0  0  0  0
  162.0020  213.4190  145.6930 C   0  0  0  0  0  1  0  0  0  0  0  0
  162.9820  212.4180  146.3370 C   0  0  0  0  0  2  0  0  0  0  0  0
  1 17  1  0  0  0  0
  2 18  1  0  0  0  0
  3 16  1  0  0  0  0
  4 12  1  0  0  0  0
  5 15  1  0  0  0  0
  6 18  1  0  0  0  0
  6 12  2  0  0  0  0
  7 41  1  0  0  0  0
  8 20  2  0  0  0  0
  9 13  1  0  0  0  0
 12 19  1  0  0  0  0
 13 22  1  6  0  0  0
 14 50  1  6  0  0  0
 14 23  1  0  0  0  0
 14  2  1  0  0  0  0
 15  1  2  0  0  0  0
 15 13  1  0  0  0  0
 16 24  1  6  0  0  0
 16  9  1  0  0  0  0
 17  7  2  0  0  0  0
 18  5  2  0  0  0  0
 19  8  1  6  0  0  0
 19  1  1  0  0  0  0
 20  7  1  0  0  0  0
 21 10  1  1  0  0  0
 21  3  1  0  0  0  0
 21  5  1  0  0  0  0
 23 11  1  1  0  0  0
 23  6  1  0  0  0  0
 24 25  1  1  0  0  0
 26 27  1  6  0  0  0
 26 24  1  0  0  0  0
 26 38  1  0  0  0  0
 28 27  1  0  0  0  0
 29 30  2  0  0  0  0
 30 28  1  0  0  0  0
 32 31  1  6  0  0  0
 32 30  1  0  0  0  0
 33 34  1  6  0  0  0
 33 35  1  0  0  0  0
 33 32  1  0  0  0  0
 35 36  2  0  0  0  0
 37 35  1  0  0  0  0
 39 38  1  0  0  0  0
 40 39  1  0  0  0  0
 41 42  1  6  0  0  0
 41 45  1  0  0  0  0
 43 48  1  0  0  0  0
 44 47  1  0  0  0  0
 45 43  2  0  0  0  0
 45 46  1  0  0  0  0
 46 44  2  0  0  0  0
 48 47  2  0  0  0  0
 49 50  1  0  0  0  0
M  END
>  <MODEL>
2

>  <REMARK>
 VINA RESULT:      -5.5      1.684      2.531
  Name = 
  12 active torsions:
  status: ('A' for Active; 'I' for Inactive)
    1  A    between atoms: C_4  and  C_6
    2  A    between atoms: C_4  and  C_30
    3  A    between atoms: C_6  and  C_13
    4  A    between atoms: C_6  and  C_50
    5  A    between atoms: C_11  and  C_14
    6  A    between atoms: N_12  and  C_13
    7  A    between atoms: C_14  and  C_16
    8  A    between atoms: C_15  and  C_22
    9  A    between atoms: C_22  and  C_31
   10  A    between atoms: C_27  and  C_48
   11  A    between atoms: C_31  and  C_47
   12  A    between atoms: C_41  and  C_50
                            x       y       z     vdW  Elec       q    Type
                         _______ _______ _______ _____ _____    ______ ____

>  <TORSDO>
F 12

$$$$
=
 OpenBabel11042422093D

 50 54  0  0  1  0  0  0  0  0999 V2000
  160.8830  211.6700  152.1940 C   0  0  0  0  0  0  0  0  0  0  0  0
  162.9990  211.1010  148.5100 C   0  0  0  0  0  2  0  0  0  0  0  0
  160.7180  207.5490  150.3430 C   0  0  0  0  0  2  0  0  0  0  0  0
  158.9610  213.3100  149.3890 O   0  0  0  0  0  1  0  0  0  0  0  0
  161.6000  210.0540  150.4310 C   0  0  0  0  0  0  0  0  0  0  0  0
  161.2310  212.3420  149.4120 C   0  0  0  0  0  0  0  0  0  0  0  0
  159.4380  212.0860  154.1950 C   0  0  0  0  0  0  0  0  0  0  0  0
  158.4540  212.5560  152.0030 C   0  0  0  0  0  3  0  0  0  0  0  0
  162.1680  207.9530  152.4050 C   0  0  0  0  0  2  0  0  0  0  0  0
  162.7290  208.2770  149.1260 O   0  0  0  0  0  1  0  0  0  0  0  0
  162.0060  214.4530  148.6440 O   0  0  0  0  0  1  0  0  0  0  0  0
  159.9580  212.6200  150.0940 C   0  0  0  0  0  0  0  0  0  0  0  0
  161.3040  209.1650  152.7820 C   0  0  1  0  0  3  0  0  0  0  0  0
  162.9360  212.4400  147.7560 C   0  0  2  0  0  3  0  0  0  0  0  0
  161.2130  210.2530  151.7200 C   0  0  0  0  0  0  0  0  0  0  0  0
  161.3910  206.9160  151.5690 C   0  0  2  0  0  3  0  0  0  0  0  0
  160.6370  211.7950  153.6810 C   0  0  0  0  0  3  0  0  0  0  0  0
  161.9200  211.2070  149.5340 C   0  0  0  0  0  0  0  0  0  0  0  0
  159.7680  212.3100  151.3860 C   0  0  2  0  0  3  0  0  0  0  0  0
  158.2990  212.4530  153.3230 C   0  0  0  0  0  3  0  0  0  0  0  0
  161.5320  208.6930  149.7340 C   0  0  1  0  0  3  0  0  0  0  0  0
  159.9380  208.7720  153.3360 C   0  0  0  0  0  1  0  0  0  0  0  0
  161.6740  213.1510  148.2500 C   0  0  1  0  0  3  0  0  0  0  0  0
  162.0740  205.5530  151.2780 C   0  0  1  0  0  3  0  0  0  0  0  0
  162.1430  204.8060  152.4570 O   0  0  0  0  0  1  0  0  0  0  0  0
  161.5460  204.6470  150.1310 C   0  0  1  0  0  3  0  0  0  0  0  0
  160.0910  204.1660  150.2030 C   0  0  0  0  0  2  0  0  0  0  0  0
  160.1440  202.7430  150.4980 N   0  0  0  0  0  2  0  0  0  0  0  0
  159.4520  200.6930  149.6800 O   0  0  0  0  0  0  0  0  0  0  0  0
  160.1190  201.7450  149.4700 C   0  0  0  0  0  0  0  0  0  0  0  0
  162.3560  201.4310  148.6760 F   0  0  0  0  0  0  0  0  0  0  0  0
  161.0630  201.7930  148.3060 C   0  0  1  0  0  3  0  0  0  0  0  0
  160.5480  200.9190  147.1620 C   0  0  2  0  0  3  0  0  0  0  0  0
  161.2350  199.7090  147.1240 F   0  0  0  0  0  0  0  0  0  0  0  0
  160.6240  201.6280  145.8420 C   0  0  0  0  0  0  0  0  0  0  0  0
  161.2110  202.7520  145.7920 O   0  0  0  0  0  0  0  0  0  0  0  0
  160.1010  201.0480  144.6470 N   0  0  0  0  0  1  0  0  0  0  0  0
  161.9110  205.1570  148.7370 C   0  0  0  0  0  2  0  0  0  0  0  0
  160.6560  205.5530  147.9590 C   0  0  0  0  0  2  0  0  0  0  0  0
  161.0400  206.3050  146.7010 C   0  0  0  0  0  1  0  0  0  0  0  0
  159.3270  212.2130  155.6850 C   0  0  2  0  0  3  0  0  0  0  0  0
  160.1770  211.2230  156.3520 N   0  0  0  0  0  1  0  0  0  0  0  0
  157.0610  211.0840  155.9090 C   0  0  0  0  0  3  0  0  0  0  0  0
  156.0130  213.3220  157.2040 C   0  0  0  0  0  3  0  0  0  0  0  0
  157.9100  212.1660  156.2080 C   0  0  0  0  0  0  0  0  0  0  0  0
  157.3680  213.2940  156.8520 C   0  0  0  0  0  3  0  0  0  0  0  0
  155.1850  212.2400  156.9100 C   0  0  0  0  0  3  0  0  0  0  0  0
  155.7080  211.1220  156.2510 C   0  0  0  0  0  3  0  0  0  0  0  0
  161.9300  213.0550  145.4740 C   0  0  0  0  0  1  0  0  0  0  0  0
  163.0210  212.2630  146.2200 C   0  0  0  0  0  2  0  0  0  0  0  0
  1 17  1  0  0  0  0
  2 18  1  0  0  0  0
  3 16  1  0  0  0  0
  4 12  1  0  0  0  0
  5 15  1  0  0  0  0
  6 18  1  0  0  0  0
  6 12  2  0  0  0  0
  7 41  1  0  0  0  0
  8 20  2  0  0  0  0
  9 13  1  0  0  0  0
 12 19  1  0  0  0  0
 13 22  1  6  0  0  0
 14 50  1  6  0  0  0
 14 23  1  0  0  0  0
 14  2  1  0  0  0  0
 15  1  2  0  0  0  0
 15 13  1  0  0  0  0
 16 24  1  6  0  0  0
 16  9  1  0  0  0  0
 17  7  2  0  0  0  0
 18  5  2  0  0  0  0
 19  8  1  6  0  0  0
 19  1  1  0  0  0  0
 20  7  1  0  0  0  0
 21 10  1  1  0  0  0
 21  3  1  0  0  0  0
 21  5  1  0  0  0  0
 23 11  1  1  0  0  0
 23  6  1  0  0  0  0
 24 25  1  1  0  0  0
 26 38  1  6  0  0  0
 26 27  1  0  0  0  0
 26 24  1  0  0  0  0
 27 28  1  0  0  0  0
 30 29  2  0  0  0  0
 30 28  1  0  0  0  0
 32 31  1  1  0  0  0
 32 30  1  0  0  0  0
 33 34  1  6  0  0  0
 33 32  1  0  0  0  0
 35 33  1  0  0  0  0
 36 35  2  0  0  0  0
 37 35  1  0  0  0  0
 39 38  1  0  0  0  0
 40 39  1  0  0  0  0
 41 45  1  0  0  0  0
 41 42  1  1  0  0  0
 43 45  2  0  0  0  0
 43 48  1  0  0  0  0
 45 46  1  0  0  0  0
 46 44  2  0  0  0  0
 47 44  1  0  0  0  0
 48 47  2  0  0  0  0
 49 50  1  0  0  0  0
M  END
>  <MODEL>
3

>  <REMARK>
 VINA RESULT:      -4.4      2.147      3.211
  Name = 
  12 active torsions:
  status: ('A' for Active; 'I' for Inactive)
    1  A    between atoms: C_4  and  C_6
    2  A    between atoms: C_4  and  C_30
    3  A    between atoms: C_6  and  C_13
    4  A    between atoms: C_6  and  C_50
    5  A    between atoms: C_11  and  C_14
    6  A    between atoms: N_12  and  C_13
    7  A    between atoms: C_14  and  C_16
    8  A    between atoms: C_15  and  C_22
    9  A    between atoms: C_22  and  C_31
   10  A    between atoms: C_27  and  C_48
   11  A    between atoms: C_31  and  C_47
   12  A    between atoms: C_41  and  C_50
                            x       y       z     vdW  Elec       q    Type
                         _______ _______ _______ _____ _____    ______ ____

>  <TORSDO>
F 12

$$$$
=
 OpenBabel11042422093D

 50 54  0  0  1  0  0  0  0  0999 V2000
  160.6030  207.6290  152.2650 C   0  0  0  0  0  0  0  0  0  0  0  0
  160.7390  206.4710  148.1410 C   0  0  0  0  0  2  0  0  0  0  0  0
  163.0870  210.1930  149.4900 C   0  0  0  0  0  2  0  0  0  0  0  0
  162.8210  204.5960  151.8960 O   0  0  0  0  0  1  0  0  0  0  0  0
  161.4050  208.1920  149.9690 C   0  0  0  0  0  0  0  0  0  0  0  0
  161.3180  205.6790  150.2660 C   0  0  0  0  0  0  0  0  0  0  0  0
  160.7300  208.1360  154.7140 C   0  0  0  0  0  0  0  0  0  0  0  0
  162.3400  206.5140  153.8330 C   0  0  0  0  0  3  0  0  0  0  0  0
  160.8330  211.0510  150.3290 C   0  0  0  0  0  2  0  0  0  0  0  0
  161.7250  209.1690  147.7150 O   0  0  0  0  0  1  0  0  0  0  0  0
  160.2530  203.5680  150.0310 O   0  0  0  0  0  1  0  0  0  0  0  0
  161.9470  205.6510  151.5950 C   0  0  0  0  0  0  0  0  0  0  0  0
  160.9210  210.1140  151.5420 C   0  0  1  0  0  3  0  0  0  0  0  0
  160.6350  204.9370  148.1110 C   0  0  2  0  0  3  0  0  0  0  0  0
  161.0690  208.6350  151.2100 C   0  0  0  0  0  0  0  0  0  0  0  0
  162.2230  211.4290  149.7780 C   0  0  2  0  0  3  0  0  0  0  0  0
  160.0920  208.2520  153.5450 C   0  0  0  0  0  3  0  0  0  0  0  0
  161.1210  206.7850  149.5470 C   0  0  0  0  0  0  0  0  0  0  0  0
  161.6370  206.5520  152.5400 C   0  0  2  0  0  3  0  0  0  0  0  0
  161.9140  207.2560  154.8550 C   0  0  0  0  0  3  0  0  0  0  0  0
  162.2750  208.9940  148.9960 C   0  0  1  0  0  3  0  0  0  0  0  0
  161.9300  210.5850  152.5850 C   0  0  0  0  0  1  0  0  0  0  0  0
  161.1800  204.4450  149.4540 C   0  0  1  0  0  3  0  0  0  0  0  0
  162.2990  212.5190  148.6760 C   0  0  1  0  0  3  0  0  0  0  0  0
  163.1250  212.0770  147.6390 O   0  0  0  0  0  1  0  0  0  0  0  0
  160.9940  213.1070  148.0710 C   0  0  1  0  0  3  0  0  0  0  0  0
  160.4170  214.3810  148.7010 C   0  0  0  0  0  2  0  0  0  0  0  0
  159.6180  213.9510  149.8370 N   0  0  0  0  0  2  0  0  0  0  0  0
  157.6020  214.3570  150.8960 O   0  0  0  0  0  0  0  0  0  0  0  0
  158.1860  214.0050  149.8320 C   0  0  0  0  0  0  0  0  0  0  0  0
  156.6580  212.2930  149.1500 F   0  0  0  0  0  0  0  0  0  0  0  0
  157.3810  213.4030  148.7200 C   0  0  1  0  0  3  0  0  0  0  0  0
  156.4650  214.4530  148.0910 C   0  0  2  0  0  3  0  0  0  0  0  0
  155.1630  214.3100  148.5620 F   0  0  0  0  0  0  0  0  0  0  0  0
  156.5080  214.4040  146.5920 C   0  0  0  0  0  0  0  0  0  0  0  0
  157.6360  214.2920  146.0230 O   0  0  0  0  0  0  0  0  0  0  0  0
  155.3180  214.4300  145.8050 N   0  0  0  0  0  1  0  0  0  0  0  0
  161.0130  213.1820  146.5440 C   0  0  0  0  0  2  0  0  0  0  0  0
  160.2110  212.0320  145.9360 C   0  0  0  0  0  2  0  0  0  0  0  0
  159.7560  212.3980  144.5370 C   0  0  0  0  0  1  0  0  0  0  0  0
  160.1060  208.7720  155.9190 C   0  0  2  0  0  3  0  0  0  0  0  0
  159.1330  207.8670  156.5340 N   0  0  0  0  0  1  0  0  0  0  0  0
  160.3190  211.2790  155.5570 C   0  0  0  0  0  3  0  0  0  0  0  0
  157.5450  211.5770  155.6100 C   0  0  0  0  0  3  0  0  0  0  0  0
  159.5060  210.1340  155.6590 C   0  0  0  0  0  0  0  0  0  0  0  0
  158.1090  210.2970  155.6950 C   0  0  0  0  0  3  0  0  0  0  0  0
  158.3610  212.7020  155.5010 C   0  0  0  0  0  3  0  0  0  0  0  0
  159.7520  212.5530  155.4860 C   0  0  0  0  0  3  0  0  0  0  0  0
  162.6190  205.0520  146.4840 C   0  0  0  0  0  1  0  0  0  0  0  0
  161.3190  204.3180  146.8680 C   0  0  0  0  0  2  0  0  0  0  0  0
  1 19  1  0  0  0  0
  1 17  1  0  0  0  0
  2 18  1  0  0  0  0
  3 16  1  0  0  0  0
  5 15  1  0  0  0  0
  6 12  2  0  0  0  0
  7 20  1  0  0  0  0
  7 41  1  0  0  0  0
  8 20  2  0  0  0  0
  9 13  1  0  0  0  0
 12  4  1  0  0  0  0
 12 19  1  0  0  0  0
 13 22  1  1  0  0  0
 14 50  1  6  0  0  0
 14  2  1  0  0  0  0
 14 23  1  0  0  0  0
 15 13  1  0  0  0  0
 15  1  2  0  0  0  0
 16 24  1  6  0  0  0
 16  9  1  0  0  0  0
 17  7  2  0  0  0  0
 18  5  2  0  0  0  0
 18  6  1  0  0  0  0
 19  8  1  6  0  0  0
 21 10  1  6  0  0  0
 21  3  1  0  0  0  0
 21  5  1  0  0  0  0
 23 11  1  1  0  0  0
 23  6  1  0  0  0  0
 24 25  1  6  0  0  0
 26 38  1  6  0  0  0
 26 24  1  0  0  0  0
 26 27  1  0  0  0  0
 27 28  1  0  0  0  0
 30 28  1  0  0  0  0
 30 29  2  0  0  0  0
 32 31  1  1  0  0  0
 32 30  1  0  0  0  0
 33 34  1  6  0  0  0
 33 32  1  0  0  0  0
 35 33  1  0  0  0  0
 36 35  2  0  0  0  0
 37 35  1  0  0  0  0
 39 38  1  0  0  0  0
 40 39  1  0  0  0  0
 41 42  1  6  0  0  0
 43 45  1  0  0  0  0
 44 46  1  0  0  0  0
 45 46  2  0  0  0  0
 45 41  1  0  0  0  0
 47 44  2  0  0  0  0
 48 47  1  0  0  0  0
 48 43  2  0  0  0  0
 49 50  1  0  0  0  0
M  END
>  <MODEL>
4

>  <REMARK>
 VINA RESULT:      -4.0      3.487      7.627
  Name = 
  12 active torsions:
  status: ('A' for Active; 'I' for Inactive)
    1  A    between atoms: C_4  and  C_6
    2  A    between atoms: C_4  and  C_30
    3  A    between atoms: C_6  and  C_13
    4  A    between atoms: C_6  and  C_50
    5  A    between atoms: C_11  and  C_14
    6  A    between atoms: N_12  and  C_13
    7  A    between atoms: C_14  and  C_16
    8  A    between atoms: C_15  and  C_22
    9  A    between atoms: C_22  and  C_31
   10  A    between atoms: C_27  and  C_48
   11  A    between atoms: C_31  and  C_47
   12  A    between atoms: C_41  and  C_50
                            x       y       z     vdW  Elec       q    Type
                         _______ _______ _______ _____ _____    ______ ____

>  <TORSDO>
F 12

$$$$
=
 OpenBabel11042422093D

 50 54  0  0  1  0  0  0  0  0999 V2000
  160.4550  208.2890  152.7110 C   0  0  0  0  0  0  0  0  0  0  0  0
  160.7560  206.6050  148.7810 C   0  0  0  0  0  2  0  0  0  0  0  0
  162.8440  210.6120  149.6550 C   0  0  0  0  0  2  0  0  0  0  0  0
  162.8590  205.3790  152.7850 O   0  0  0  0  0  1  0  0  0  0  0  0
  161.2750  208.5910  150.3720 C   0  0  0  0  0  0  0  0  0  0  0  0
  161.3320  206.1400  151.0010 C   0  0  0  0  0  0  0  0  0  0  0  0
  160.4960  209.1230  155.0710 C   0  0  0  0  0  0  0  0  0  0  0  0
  162.2200  207.5030  154.4400 C   0  0  0  0  0  3  0  0  0  0  0  0
  160.5230  211.4320  150.3370 C   0  0  0  0  0  2  0  0  0  0  0  0
  161.5870  209.2780  148.0130 O   0  0  0  0  0  1  0  0  0  0  0  0
  160.4010  203.9530  151.0360 O   0  0  0  0  0  1  0  0  0  0  0  0
  161.9310  206.3280  152.3310 C   0  0  0  0  0  0  0  0  0  0  0  0
  160.6400  210.6710  151.6660 C   0  0  1  0  0  3  0  0  0  0  0  0
  160.7440  205.0770  148.9560 C   0  0  2  0  0  3  0  0  0  0  0  0
  160.8840  209.1730  151.5380 C   0  0  0  0  0  0  0  0  0  0  0  0
  161.9010  211.8190  149.7610 C   0  0  2  0  0  3  0  0  0  0  0  0
  159.8780  209.0430  153.8880 C   0  0  0  0  0  3  0  0  0  0  0  0
  161.0850  207.1260  150.1380 C   0  0  0  0  0  0  0  0  0  0  0  0
  161.5460  207.3250  153.1430 C   0  0  2  0  0  3  0  0  0  0  0  0
  161.7260  208.3460  155.3470 C   0  0  0  0  0  3  0  0  0  0  0  0
  162.1170  209.3100  149.3140 C   0  0  1  0  0  3  0  0  0  0  0  0
  161.5950  211.3380  152.6510 C   0  0  0  0  0  1  0  0  0  0  0  0
  161.2860  204.8030  150.3610 C   0  0  1  0  0  3  0  0  0  0  0  0
  161.9370  212.7560  148.5240 C   0  0  1  0  0  3  0  0  0  0  0  0
  162.7470  212.1910  147.5350 O   0  0  0  0  0  1  0  0  0  0  0  0
  160.6110  213.2440  147.8780 C   0  0  1  0  0  3  0  0  0  0  0  0
  159.8210  212.2520  147.0140 C   0  0  0  0  0  2  0  0  0  0  0  0
  159.2990  213.0120  145.8900 N   0  0  0  0  0  2  0  0  0  0  0  0
  159.9690  214.4210  144.1830 O   0  0  0  0  0  0  0  0  0  0  0  0
  160.0780  213.2820  144.7180 C   0  0  0  0  0  0  0  0  0  0  0  0
  159.9420  211.0980  143.7450 F   0  0  0  0  0  0  0  0  0  0  0  0
  160.7800  212.1870  143.9730 C   0  0  1  0  0  3  0  0  0  0  0  0
  161.3670  212.7200  142.6650 C   0  0  2  0  0  3  0  0  0  0  0  0
  161.4380  211.7060  141.7140 F   0  0  0  0  0  0  0  0  0  0  0  0
  162.7060  213.3610  142.8750 C   0  0  0  0  0  0  0  0  0  0  0  0
  163.1750  214.1010  141.9570 O   0  0  0  0  0  0  0  0  0  0  0  0
  163.4330  213.2000  144.0930 N   0  0  0  0  0  1  0  0  0  0  0  0
  159.7060  214.0030  148.8480 C   0  0  0  0  0  2  0  0  0  0  0  0
  158.3430  213.3210  148.9640 C   0  0  0  0  0  2  0  0  0  0  0  0
  157.2380  214.3110  148.6550 C   0  0  0  0  0  1  0  0  0  0  0  0
  159.8070  209.8740  156.1710 C   0  0  2  0  0  3  0  0  0  0  0  0
  159.1460  208.9470  157.0920 N   0  0  0  0  0  1  0  0  0  0  0  0
  157.4880  210.6720  155.5020 C   0  0  0  0  0  3  0  0  0  0  0  0
  158.5160  213.1250  154.6590 C   0  0  0  0  0  3  0  0  0  0  0  0
  158.8560  210.9450  155.6890 C   0  0  0  0  0  0  0  0  0  0  0  0
  159.3650  212.1820  155.2500 C   0  0  0  0  0  3  0  0  0  0  0  0
  157.1610  212.8450  154.4870 C   0  0  0  0  0  3  0  0  0  0  0  0
  156.6480  211.6110  154.9000 C   0  0  0  0  0  3  0  0  0  0  0  0
  162.2990  205.3050  146.9240 C   0  0  0  0  0  1  0  0  0  0  0  0
  161.4930  204.3420  147.8170 C   0  0  0  0  0  2  0  0  0  0  0  0
  1 19  1  0  0  0  0
  1 17  1  0  0  0  0
  2 14  1  0  0  0  0
  2 18  1  0  0  0  0
  3 16  1  0  0  0  0
  5 15  1  0  0  0  0
  6 12  2  0  0  0  0
  7 20  1  0  0  0  0
  7 41  1  0  0  0  0
  8 20  2  0  0  0  0
  9 13  1  0  0  0  0
 12  4  1  0  0  0  0
 12 19  1  0  0  0  0
 13 22  1  1  0  0  0
 14 50  1  6  0  0  0
 14 23  1  0  0  0  0
 15 13  1  0  0  0  0
 15  1  2  0  0  0  0
 16 24  1  6  0  0  0
 16  9  1  0  0  0  0
 17  7  2  0  0  0  0
 18  5  2  0  0  0  0
 18  6  1  0  0  0  0
 19  8  1  6  0  0  0
 21 10  1  6  0  0  0
 21  3  1  0  0  0  0
 21  5  1  0  0  0  0
 23  6  1  0  0  0  0
 23 11  1  1  0  0  0
 24 25  1  6  0  0  0
 26 27  1  1  0  0  0
 26 24  1  0  0  0  0
 26 38  1  0  0  0  0
 28 27  1  0  0  0  0
 29 30  2  0  0  0  0
 30 28  1  0  0  0  0
 32 31  1  6  0  0  0
 32 30  1  0  0  0  0
 33 34  1  6  0  0  0
 33 35  1  0  0  0  0
 33 32  1  0  0  0  0
 35 37  1  0  0  0  0
 36 35  2  0  0  0  0
 38 39  1  0  0  0  0
 40 39  1  0  0  0  0
 41 42  1  6  0  0  0
 43 45  1  0  0  0  0
 44 46  1  0  0  0  0
 45 41  1  0  0  0  0
 46 45  2  0  0  0  0
 47 44  2  0  0  0  0
 47 48  1  0  0  0  0
 48 43  2  0  0  0  0
 49 50  1  0  0  0  0
M  END
>  <MODEL>
5

>  <REMARK>
 VINA RESULT:      -3.5      3.094      7.109
  Name = 
  12 active torsions:
  status: ('A' for Active; 'I' for Inactive)
    1  A    between atoms: C_4  and  C_6
    2  A    between atoms: C_4  and  C_30
    3  A    between atoms: C_6  and  C_13
    4  A    between atoms: C_6  and  C_50
    5  A    between atoms: C_11  and  C_14
    6  A    between atoms: N_12  and  C_13
    7  A    between atoms: C_14  and  C_16
    8  A    between atoms: C_15  and  C_22
    9  A    between atoms: C_22  and  C_31
   10  A    between atoms: C_27  and  C_48
   11  A    between atoms: C_31  and  C_47
   12  A    between atoms: C_41  and  C_50
                            x       y       z     vdW  Elec       q    Type
                         _______ _______ _______ _____ _____    ______ ____

>  <TORSDO>
F 12

$$$$
