=
 OpenBabel11052412003D

 70 79  0  0  1  0  0  0  0  0999 V2000
  160.5270  212.1000  148.0420 C   0  0  2  0  0  3  0  0  0  0  0  0
  160.2690  211.4540  146.6970 C   0  0  0  0  0  2  0  0  0  0  0  0
  159.7360  212.5630  145.8370 C   0  0  1  0  0  3  0  0  0  0  0  0
  160.8150  213.9990  146.0970 S   0  0  0  0  0  0  0  0  0  0  0  0
  161.2450  213.4160  147.7720 C   0  0  1  0  0  3  0  0  0  0  0  0
  161.3510  211.2020  148.9630 C   0  0  0  0  0  2  0  0  0  0  0  0
  162.0540  210.1050  148.1760 C   0  0  1  0  0  3  0  0  0  0  0  0
  163.3490  210.4970  147.8710 F   0  0  0  0  0  0  0  0  0  0  0  0
  162.0750  208.8150  148.9850 C   0  0  0  0  0  2  0  0  0  0  0  0
  162.0130  207.6790  148.1250 O   0  0  0  0  0  0  0  0  0  0  0  0
  160.9990  206.7190  148.1970 C   0  0  0  0  0  0  0  0  0  0  0  0
  160.1600  206.7410  149.1370 O   0  0  0  0  0  0  0  0  0  0  0  0
  160.7850  204.1240  149.0170 O   0  0  0  0  0  1  0  0  0  0  0  0
  163.2570  205.6370  146.6470 O   0  0  0  0  0  0  0  0  0  0  0  0
  162.1360  203.5790  147.1230 C   0  0  2  0  0  3  0  0  0  0  0  0
  160.8600  204.2180  147.6270 C   0  0  2  0  0  3  0  0  0  0  0  0
  160.8810  205.6640  147.1320 C   0  0  2  0  0  3  0  0  0  0  0  0
  162.7110  204.4900  146.0450 C   0  0  1  0  0  3  0  0  0  0  0  0
  161.9770  205.7800  146.0740 C   0  0  2  0  0  3  0  0  0  0  0  0
  159.4550  201.5840  145.9350 C   0  0  0  0  0  2  0  0  0  0  0  0
  161.2520  199.7500  147.2520 C   0  0  0  0  0  2  0  0  0  0  0  0
  161.1520  199.6390  145.7280 C   0  0  2  0  0  3  0  0  0  0  0  0
  160.7910  202.1790  145.5080 C   0  0  1  0  0  3  0  0  0  0  0  0
  161.6470  201.1460  147.7470 C   0  0  0  0  0  2  0  0  0  0  0  0
  161.8780  202.1610  146.6090 C   0  0  2  0  0  3  0  0  0  0  0  0
  160.3820  200.7870  145.0270 C   0  0  2  0  0  3  0  0  0  0  0  0
  161.4430  197.5680  144.5660 O   0  0  0  0  0  1  0  0  0  0  0  0
  160.5520  198.2930  145.3620 C   0  0  0  0  0  2  0  0  0  0  0  0
  159.6720  212.1360  144.3780 C   0  0  0  0  0  2  0  0  0  0  0  0
  160.0160  213.2900  143.4380 C   0  0  0  0  0  2  0  0  0  0  0  0
  160.9790  211.0800  141.4540 C   0  0  1  0  0  3  0  0  0  0  0  0
  160.3980  210.3400  140.2210 C   0  0  1  0  0  3  0  0  0  0  0  0
  162.1970  211.7120  141.1770 O   0  0  0  0  0  1  0  0  0  0  0  0
  159.2900  213.1570  142.1000 C   0  0  2  0  0  3  0  0  0  0  0  0
  159.2610  211.3690  140.0650 C   0  0  0  0  0  2  0  0  0  0  0  0
  159.8050  212.0190  141.3000 C   0  0  2  0  0  0  0  0  0  0  0  0
  160.1950  213.3500  141.0380 O   0  0  0  0  0  0  0  0  0  0  0  0
  161.3420  210.2070  139.0120 C   0  0  1  0  0  3  0  0  0  0  0  0
  161.4540  208.7950  138.5380 C   0  0  0  0  0  0  0  0  0  0  0  0
  160.9820  208.4240  137.2810 O   0  0  0  0  0  0  0  0  0  0  0  0
  162.0020  207.9350  139.2730 O   0  0  0  0  0  1  0  0  0  0  0  0
  162.8850  211.7530  137.3580 C   0  0  0  0  0  1  0  0  0  0  0  0
  161.1210  211.4160  137.6360 S   0  0  0  0  0  0  0  0  0  0  0  0
  160.8030  214.4510  148.7920 C   0  0  0  0  0  2  0  0  0  0  0  0
  159.3710  214.3450  149.0140 N   0  0  0  0  0  2  0  0  0  0  0  0
  157.0190  211.6260  154.7580 S   0  0  0  0  0  0  0  0  0  0  0  0
  159.5970  214.1090  153.9560 N   0  0  0  0  0  2  0  0  0  0  0  0
  158.2100  211.8640  156.0880 C   0  0  2  0  0  3  0  0  0  0  0  0
  158.9700  212.8980  155.9650 N   0  0  0  0  0  2  0  0  0  0  0  0
  157.3690  213.3420  154.2380 C   0  0  1  0  0  3  0  0  0  0  0  0
  157.4770  213.5620  150.4050 C   0  0  0  0  0  3  0  0  0  0  0  0
  158.6260  213.7080  154.8850 N   0  0  2  0  0  0  0  0  0  0  0  0
  156.9210  213.2730  151.6650 C   0  0  0  0  0  3  0  0  0  0  0  0
  159.5700  214.2530  151.4510 C   0  0  0  0  0  3  0  0  0  0  0  0
  157.7150  213.4740  152.7920 C   0  0  0  0  0  0  0  0  0  0  0  0
  158.9930  213.9650  152.6850 C   0  0  0  0  0  0  0  0  0  0  0  0
  158.7980  214.0540  150.2940 C   0  0  0  0  0  0  0  0  0  0  0  0
  158.4240  210.8880  157.2060 C   0  0  0  0  0  2  0  0  0  0  0  0
  159.8180  210.2450  157.2560 C   0  0  2  0  0  3  0  0  0  0  0  0
  160.7910  210.9090  155.0380 O   0  0  0  0  0  0  0  0  0  0  0  0
  160.8190  210.9880  156.4250 C   0  0  0  0  0  0  0  0  0  0  0  0
  161.7150  211.6650  156.9920 O   0  0  0  0  0  1  0  0  0  0  0  0
  159.8360  208.7380  156.9930 C   0  0  0  0  0  2  0  0  0  0  0  0
  162.0130  209.4520  156.0540 C   0  0  0  0  0  1  0  0  0  0  0  0
  161.2220  208.2680  156.5770 C   0  0  2  0  0  3  0  0  0  0  0  0
  161.3790  207.5180  154.2510 C   0  0  0  0  0  3  0  0  0  0  0  0
  161.1120  207.2240  155.5170 C   0  0  0  0  0  3  0  0  0  0  0  0
  160.2120  205.8540  153.0220 O   0  0  0  0  0  0  0  0  0  0  0  0
  162.4220  206.3000  152.2760 C   0  0  0  0  0  1  0  0  0  0  0  0
  161.2710  206.5180  153.1850 C   0  0  0  0  0  0  0  0  0  0  0  0
  1  6  1  1  0  0  0
  2  1  1  0  0  0  0
  3 29  1  6  0  0  0
  3  4  1  0  0  0  0
  3  2  1  0  0  0  0
  4  5  1  0  0  0  0
  5  1  1  0  0  0  0
  5 44  1  1  0  0  0
  7  8  1  1  0  0  0
  7  6  1  0  0  0  0
  7  9  1  0  0  0  0
 10 11  1  0  0  0  0
 10  9  1  0  0  0  0
 11 12  2  0  0  0  0
 15 25  1  6  0  0  0
 15 16  1  0  0  0  0
 16 13  1  1  0  0  0
 17 16  1  0  0  0  0
 17 11  1  1  0  0  0
 18 19  1  0  0  0  0
 18 14  1  1  0  0  0
 18 15  1  0  0  0  0
 19 14  1  1  0  0  0
 19 17  1  0  0  0  0
 21 24  1  0  0  0  0
 22 28  1  1  0  0  0
 22 21  1  0  0  0  0
 23 20  1  1  0  0  0
 23 25  1  0  0  0  0
 25 24  1  1  0  0  0
 26 23  1  0  0  0  0
 26 22  1  0  0  0  0
 26 20  1  1  0  0  0
 27 28  1  0  0  0  0
 30 29  1  0  0  0  0
 31 33  1  6  0  0  0
 32 38  1  6  0  0  0
 32 31  1  0  0  0  0
 34 30  1  1  0  0  0
 35 32  1  0  0  0  0
 36 35  1  6  0  0  0
 36 31  1  0  0  0  0
 36 34  1  0  0  0  0
 37 36  1  0  0  0  0
 37 34  1  0  0  0  0
 38 43  1  6  0  0  0
 39 38  1  0  0  0  0
 39 41  1  0  0  0  0
 40 39  2  0  0  0  0
 42 43  1  0  0  0  0
 44 45  1  0  0  0  0
 45 57  1  0  0  0  0
 46 48  1  0  0  0  0
 48 58  1  6  0  0  0
 49 48  1  0  0  0  0
 50 55  1  6  0  0  0
 50 46  1  0  0  0  0
 50 52  1  0  0  0  0
 51 53  1  0  0  0  0
 52 47  1  6  0  0  0
 52 49  1  0  0  0  0
 53 55  2  0  0  0  0
 54 56  2  0  0  0  0
 56 55  1  0  0  0  0
 56 47  1  0  0  0  0
 57 51  2  0  0  0  0
 57 54  1  0  0  0  0
 58 59  1  0  0  0  0
 59 63  1  6  0  0  0
 60 61  2  0  0  0  0
 61 62  1  0  0  0  0
 61 59  1  0  0  0  0
 65 64  1  6  0  0  0
 65 63  1  0  0  0  0
 66 67  2  0  0  0  0
 67 65  1  0  0  0  0
 68 70  2  0  0  0  0
 69 70  1  0  0  0  0
 70 66  1  0  0  0  0
M  END
>  <MODEL>
1

>  <REMARK>
 VINA RESULT:      -3.7      0.000      0.000
  Name = 
  24 active torsions:
  status: ('A' for Active; 'I' for Inactive)
    1  A    between atoms: C_1  and  C_25
    2  A    between atoms: C_1  and  C_34
    3  A    between atoms: C_1  and  C_62
    4  A    between atoms: C_4  and  C_29
    5  A    between atoms: C_4  and  C_33
    6  A    between atoms: C_6  and  C_8
    7  A    between atoms: N_7  and  C_36
    8  A    between atoms: N_7  and  C_69
    9  A    between atoms: C_8  and  C_11
   10  A    between atoms: C_8  and  S_48
   11  A    between atoms: C_9  and  C_44
   12  A    between atoms: C_12  and  O_27
   13  A    between atoms: C_12  and  C_41
   14  A    between atoms: C_18  and  C_62
   15  A    between atoms: C_21  and  C_61
   16  A    between atoms: C_26  and  C_29
   17  A    between atoms: O_27  and  C_53
   18  A    between atoms: C_31  and  C_34
   19  A    between atoms: C_31  and  C_58
   20  A    between atoms: C_32  and  C_44
   21  A    between atoms: C_32  and  C_53
   22  A    between atoms: C_36  and  C_65
   23  A    between atoms: C_40  and  C_67
   24  A    between atoms: C_51  and  C_57
                            x       y       z     vdW  Elec       q    Type
                         _______ _______ _______ _____ _____    ______ ____

>  <TORSDO>
F 24

$$$$
