=
 OpenBabel11042423123D

 29 32  0  0  1  0  0  0  0  0999 V2000
  162.6380  203.5850  151.7980 O   0  0  0  0  0  0  0  0  0  0  0  0
  161.5310  204.5940  151.6690 S   0  0  0  0  0  0  0  0  0  0  0  0
  160.4020  204.2300  152.5920 O   0  0  0  0  0  0  0  0  0  0  0  0
  160.3530  205.9100  149.5670 C   0  0  0  0  0  2  0  0  0  0  0  0
  163.4700  206.3200  151.6380 F   0  0  0  0  0  0  0  0  0  0  0  0
  161.2170  207.1130  149.9320 C   0  0  0  0  0  2  0  0  0  0  0  0
  162.1640  206.2060  152.0850 C   0  0  1  0  0  3  0  0  0  0  0  0
  161.2830  207.2830  151.4470 C   0  0  1  0  0  3  0  0  0  0  0  0
  160.9560  204.6620  150.0320 N   0  0  2  0  0  0  0  0  0  0  0  0
  161.1170  202.4770  145.3410 N   0  0  0  0  0  0  0  0  0  0  0  0
  160.6040  202.1690  149.7020 C   0  0  0  0  0  3  0  0  0  0  0  0
  160.7920  202.0030  147.5740 C   0  0  0  0  0  0  0  0  0  0  0  0
  161.2240  204.2750  146.9080 N   0  0  0  0  0  0  0  0  0  0  0  0
  160.9690  203.3670  147.8740 C   0  0  0  0  0  0  0  0  0  0  0  0
  161.2950  203.8140  145.6210 C   0  0  0  0  0  0  0  0  0  0  0  0
  160.8700  201.5720  146.2980 N   0  0  0  0  0  0  0  0  0  0  0  0
  161.5690  204.7660  144.5140 C   0  0  0  0  0  1  0  0  0  0  0  0
  160.5700  201.2700  148.6770 N   0  0  0  0  0  0  0  0  0  0  0  0
  160.8490  203.4710  149.2360 C   0  0  2  0  0  3  0  0  0  0  0  0
  161.7930  208.6740  151.7820 C   0  0  0  0  0  2  0  0  0  0  0  0
  160.8110  209.3930  152.6910 C   0  0  0  0  0  2  0  0  0  0  0  0
  161.0160  208.5620  154.8660 C   0  0  0  0  0  2  0  0  0  0  0  0
  160.8790  210.9130  154.4810 C   0  0  0  0  0  2  0  0  0  0  0  0
  161.7480  208.6890  156.2110 C   0  0  1  0  0  3  0  0  0  0  0  0
  161.1200  211.1320  155.9870 C   0  0  0  0  0  2  0  0  0  0  0  0
  162.1190  210.1360  156.5770 C   0  0  0  0  0  2  0  0  0  0  0  0
  161.4300  209.6470  153.9810 N   0  0  0  0  0  0  0  0  0  0  0  0
  160.0450  207.2460  156.7420 C   0  0  0  0  0  1  0  0  0  0  0  0
  161.1270  207.9760  157.2610 O   0  0  0  0  0  0  0  0  0  0  0  0
  2  1  2  0  0  0  0
  2  7  1  0  0  0  0
  2  3  2  0  0  0  0
  4  6  1  0  0  0  0
  6  8  1  0  0  0  0
  7  5  1  6  0  0  0
  8 20  1  6  0  0  0
  8  7  1  0  0  0  0
  9  4  1  1  0  0  0
  9  2  1  0  0  0  0
 10 15  2  0  0  0  0
 10 16  1  0  0  0  0
 12 14  1  0  0  0  0
 12 18  1  0  0  0  0
 13 14  2  0  0  0  0
 14 19  1  0  0  0  0
 15 13  1  0  0  0  0
 16 12  2  0  0  0  0
 17 15  1  0  0  0  0
 18 11  2  0  0  0  0
 19 11  1  1  0  0  0
 19  9  1  0  0  0  0
 20 21  1  0  0  0  0
 21 27  1  0  0  0  0
 22 24  1  0  0  0  0
 23 25  1  0  0  0  0
 24 26  1  0  0  0  0
 24 29  1  1  0  0  0
 25 26  1  0  0  0  0
 27 23  1  0  0  0  0
 27 22  1  0  0  0  0
 28 29  1  0  0  0  0
M  END
>  <MODEL>
1

>  <REMARK>
 VINA RESULT:      -8.1      0.000      0.000
  Name = 
  5 active torsions:
  status: ('A' for Active; 'I' for Inactive)
    1  A    between atoms: C_8  and  C_14
    2  A    between atoms: C_8  and  N_26
    3  A    between atoms: C_9  and  O_11
    4  A    between atoms: C_14  and  C_24
    5  A    between atoms: N_27  and  C_29
                            x       y       z     vdW  Elec       q    Type
                         _______ _______ _______ _____ _____    ______ ____

>  <TORSDO>
F 5

$$$$
=
 OpenBabel11042423123D

 29 32  0  0  1  0  0  0  0  0999 V2000
  162.4550  210.0480  152.4400 O   0  0  0  0  0  0  0  0  0  0  0  0
  161.3490  209.0500  152.6420 S   0  0  0  0  0  0  0  0  0  0  0  0
  160.0440  209.6380  152.1870 O   0  0  0  0  0  0  0  0  0  0  0  0
  160.6910  207.2780  154.6340 C   0  0  0  0  0  2  0  0  0  0  0  0
  163.0820  207.3470  151.7260 F   0  0  0  0  0  0  0  0  0  0  0  0
  161.3250  206.1890  153.7740 C   0  0  0  0  0  2  0  0  0  0  0  0
  161.7170  207.5800  151.7070 C   0  0  1  0  0  3  0  0  0  0  0  0
  160.9620  206.3900  152.3050 C   0  0  1  0  0  3  0  0  0  0  0  0
  161.2390  208.5940  154.3150 N   0  0  2  0  0  0  0  0  0  0  0  0
  160.0390  213.2030  156.3470 N   0  0  0  0  0  0  0  0  0  0  0  0
  162.3120  209.4340  156.4570 C   0  0  0  0  0  3  0  0  0  0  0  0
  161.3720  211.3480  156.6690 C   0  0  0  0  0  0  0  0  0  0  0  0
  159.9160  211.4300  154.7540 N   0  0  0  0  0  0  0  0  0  0  0  0
  160.8440  210.7840  155.4920 C   0  0  0  0  0  0  0  0  0  0  0  0
  159.5140  212.6610  155.1950 C   0  0  0  0  0  0  0  0  0  0  0  0
  160.9570  212.5610  157.0850 N   0  0  0  0  0  0  0  0  0  0  0  0
  158.4980  213.4220  154.4230 C   0  0  0  0  0  1  0  0  0  0  0  0
  162.2620  210.5360  157.2610 N   0  0  0  0  0  0  0  0  0  0  0  0
  161.4480  209.5600  155.3590 C   0  0  2  0  0  3  0  0  0  0  0  0
  161.2510  205.1150  151.5300 C   0  0  0  0  0  2  0  0  0  0  0  0
  160.3500  205.0220  150.3100 C   0  0  0  0  0  2  0  0  0  0  0  0
  160.5050  205.8310  148.1230 C   0  0  0  0  0  2  0  0  0  0  0  0
  161.1280  203.5830  148.6240 C   0  0  0  0  0  2  0  0  0  0  0  0
  161.3820  205.9360  146.8660 C   0  0  1  0  0  3  0  0  0  0  0  0
  161.5960  203.4300  147.1650 C   0  0  0  0  0  2  0  0  0  0  0  0
  162.2600  204.6960  146.6210 C   0  0  0  0  0  2  0  0  0  0  0  0
  161.1580  204.9710  149.1040 N   0  0  0  0  0  0  0  0  0  0  0  0
  161.1500  205.6710  144.5990 C   0  0  0  0  0  1  0  0  0  0  0  0
  160.6790  206.3730  145.7220 O   0  0  0  0  0  0  0  0  0  0  0  0
  1  2  2  0  0  0  0
  2  9  1  0  0  0  0
  3  2  2  0  0  0  0
  6  4  1  0  0  0  0
  7  5  1  1  0  0  0
  7  8  1  0  0  0  0
  7  2  1  0  0  0  0
  8 20  1  6  0  0  0
  8  6  1  0  0  0  0
  9  4  1  6  0  0  0
  9 19  1  0  0  0  0
 10 16  1  0  0  0  0
 11 18  2  0  0  0  0
 12 16  2  0  0  0  0
 12 18  1  0  0  0  0
 13 15  1  0  0  0  0
 13 14  2  0  0  0  0
 14 12  1  0  0  0  0
 15 10  2  0  0  0  0
 17 15  1  0  0  0  0
 19 14  1  0  0  0  0
 19 11  1  1  0  0  0
 21 20  1  0  0  0  0
 22 27  1  0  0  0  0
 23 27  1  0  0  0  0
 24 29  1  6  0  0  0
 24 22  1  0  0  0  0
 25 23  1  0  0  0  0
 26 24  1  0  0  0  0
 26 25  1  0  0  0  0
 27 21  1  0  0  0  0
 28 29  1  0  0  0  0
M  END
>  <MODEL>
2

>  <REMARK>
 VINA RESULT:      -7.9      2.835      9.496
  Name = 
  5 active torsions:
  status: ('A' for Active; 'I' for Inactive)
    1  A    between atoms: C_8  and  C_14
    2  A    between atoms: C_8  and  N_26
    3  A    between atoms: C_9  and  O_11
    4  A    between atoms: C_14  and  C_24
    5  A    between atoms: N_27  and  C_29
                            x       y       z     vdW  Elec       q    Type
                         _______ _______ _______ _____ _____    ______ ____

>  <TORSDO>
F 5

$$$$
=
 OpenBabel11042423123D

 29 32  0  0  1  0  0  0  0  0999 V2000
  162.4530  203.2770  151.9120 O   0  0  0  0  0  0  0  0  0  0  0  0
  161.4050  204.3450  151.7710 S   0  0  0  0  0  0  0  0  0  0  0  0
  160.1910  203.9760  152.5770 O   0  0  0  0  0  0  0  0  0  0  0  0
  160.4560  205.8550  149.6830 C   0  0  0  0  0  2  0  0  0  0  0  0
  163.4130  205.9730  152.0110 F   0  0  0  0  0  0  0  0  0  0  0  0
  161.3400  206.9870  150.1970 C   0  0  0  0  0  2  0  0  0  0  0  0
  162.0720  205.8920  152.3470 C   0  0  1  0  0  3  0  0  0  0  0  0
  161.2920  207.0520  151.7210 C   0  0  1  0  0  3  0  0  0  0  0  0
  160.9650  204.5510  150.1040 N   0  0  2  0  0  0  0  0  0  0  0  0
  161.1500  202.7300  145.2610 N   0  0  0  0  0  0  0  0  0  0  0  0
  160.6370  202.0870  149.5850 C   0  0  0  0  0  3  0  0  0  0  0  0
  160.8280  202.0840  147.4510 C   0  0  0  0  0  0  0  0  0  0  0  0
  161.2390  204.4040  146.9590 N   0  0  0  0  0  0  0  0  0  0  0  0
  160.9920  203.4230  147.8530 C   0  0  0  0  0  0  0  0  0  0  0  0
  161.3150  204.0430  145.6420 C   0  0  0  0  0  0  0  0  0  0  0  0
  160.9110  201.7520  146.1470 N   0  0  0  0  0  0  0  0  0  0  0  0
  161.5810  205.0790  144.6100 C   0  0  0  0  0  1  0  0  0  0  0  0
  160.6120  201.2680  148.4950 N   0  0  0  0  0  0  0  0  0  0  0  0
  160.8700  203.4220  149.2200 C   0  0  2  0  0  3  0  0  0  0  0  0
  161.8350  208.3910  152.1920 C   0  0  0  0  0  2  0  0  0  0  0  0
  160.8400  209.5000  151.8910 C   0  0  0  0  0  2  0  0  0  0  0  0
  159.2940  211.0210  152.7610 C   0  0  0  0  0  2  0  0  0  0  0  0
  161.3120  210.5440  153.9410 C   0  0  0  0  0  2  0  0  0  0  0  0
  158.5130  211.4660  154.0070 C   0  0  1  0  0  3  0  0  0  0  0  0
  160.8000  211.4300  155.0930 C   0  0  0  0  0  2  0  0  0  0  0  0
  159.2940  211.2910  155.3200 C   0  0  0  0  0  2  0  0  0  0  0  0
  160.2360  209.9670  153.1260 N   0  0  0  0  0  0  0  0  0  0  0  0
  158.6050  213.4750  152.9030 C   0  0  0  0  0  1  0  0  0  0  0  0
  157.9040  212.7330  153.8690 O   0  0  0  0  0  0  0  0  0  0  0  0
  2  1  2  0  0  0  0
  2  7  1  0  0  0  0
  2  3  2  0  0  0  0
  4  6  1  0  0  0  0
  6  8  1  0  0  0  0
  7  5  1  6  0  0  0
  8 20  1  1  0  0  0
  8  7  1  0  0  0  0
  9  4  1  1  0  0  0
  9  2  1  0  0  0  0
 10 15  2  0  0  0  0
 10 16  1  0  0  0  0
 12 14  1  0  0  0  0
 12 18  1  0  0  0  0
 13 14  2  0  0  0  0
 14 19  1  0  0  0  0
 15 13  1  0  0  0  0
 16 12  2  0  0  0  0
 17 15  1  0  0  0  0
 18 11  2  0  0  0  0
 19 11  1  1  0  0  0
 19  9  1  0  0  0  0
 21 20  1  0  0  0  0
 21 27  1  0  0  0  0
 22 27  1  0  0  0  0
 22 24  1  0  0  0  0
 23 25  1  0  0  0  0
 24 29  1  6  0  0  0
 24 26  1  0  0  0  0
 25 26  1  0  0  0  0
 27 23  1  0  0  0  0
 28 29  1  0  0  0  0
M  END
>  <MODEL>
3

>  <REMARK>
 VINA RESULT:      -7.6      1.694      2.302
  Name = 
  5 active torsions:
  status: ('A' for Active; 'I' for Inactive)
    1  A    between atoms: C_8  and  C_14
    2  A    between atoms: C_8  and  N_26
    3  A    between atoms: C_9  and  O_11
    4  A    between atoms: C_14  and  C_24
    5  A    between atoms: N_27  and  C_29
                            x       y       z     vdW  Elec       q    Type
                         _______ _______ _______ _____ _____    ______ ____

>  <TORSDO>
F 5

$$$$
=
 OpenBabel11042423123D

 29 32  0  0  1  0  0  0  0  0999 V2000
  162.5130  210.0180  152.3670 O   0  0  0  0  0  0  0  0  0  0  0  0
  161.3760  209.0350  152.3820 S   0  0  0  0  0  0  0  0  0  0  0  0
  160.0970  209.7280  152.0060 O   0  0  0  0  0  0  0  0  0  0  0  0
  160.6240  206.9800  154.0420 C   0  0  0  0  0  2  0  0  0  0  0  0
  163.0820  207.4530  151.2290 F   0  0  0  0  0  0  0  0  0  0  0  0
  161.2480  206.0290  153.0250 C   0  0  0  0  0  2  0  0  0  0  0  0
  161.7240  207.7280  151.2240 C   0  0  1  0  0  3  0  0  0  0  0  0
  160.9240  206.4790  151.6040 C   0  0  1  0  0  3  0  0  0  0  0  0
  161.2150  208.3130  153.9540 N   0  0  2  0  0  0  0  0  0  0  0  0
  160.3640  212.7100  156.5520 N   0  0  0  0  0  0  0  0  0  0  0  0
  162.1490  208.6960  156.2840 C   0  0  0  0  0  3  0  0  0  0  0  0
  161.4250  210.6680  156.7020 C   0  0  0  0  0  0  0  0  0  0  0  0
  160.2000  211.2100  154.7030 N   0  0  0  0  0  0  0  0  0  0  0  0
  160.9620  210.3500  155.4120 C   0  0  0  0  0  0  0  0  0  0  0  0
  159.9020  212.4100  155.2900 C   0  0  0  0  0  0  0  0  0  0  0  0
  161.1160  211.8560  157.2610 N   0  0  0  0  0  0  0  0  0  0  0  0
  159.0700  213.3990  154.5570 C   0  0  0  0  0  1  0  0  0  0  0  0
  162.1460  209.6700  157.2390 N   0  0  0  0  0  0  0  0  0  0  0  0
  161.4260  209.0870  155.1470 C   0  0  2  0  0  3  0  0  0  0  0  0
  161.1960  205.3410  150.6340 C   0  0  0  0  0  2  0  0  0  0  0  0
  160.9050  205.7800  149.2090 C   0  0  0  0  0  2  0  0  0  0  0  0
  160.9120  203.4420  149.2130 C   0  0  0  0  0  2  0  0  0  0  0  0
  161.8460  204.6470  147.3780 C   0  0  0  0  0  2  0  0  0  0  0  0
  160.6220  202.1690  148.4040 C   0  0  1  0  0  3  0  0  0  0  0  0
  162.0670  203.3020  146.6610 C   0  0  0  0  0  2  0  0  0  0  0  0
  160.9300  202.3080  146.9040 C   0  0  0  0  0  2  0  0  0  0  0  0
  160.7510  204.6130  148.3570 N   0  0  0  0  0  0  0  0  0  0  0  0
  161.1610  201.1470  150.3860 C   0  0  0  0  0  1  0  0  0  0  0  0
  161.1480  200.9960  148.9890 O   0  0  0  0  0  0  0  0  0  0  0  0
  1  2  2  0  0  0  0
  2  9  1  0  0  0  0
  3  2  2  0  0  0  0
  6  4  1  0  0  0  0
  7  5  1  1  0  0  0
  7  8  1  0  0  0  0
  7  2  1  0  0  0  0
  8 20  1  6  0  0  0
  8  6  1  0  0  0  0
  9  4  1  1  0  0  0
  9 19  1  0  0  0  0
 10 16  1  0  0  0  0
 11 18  2  0  0  0  0
 12 18  1  0  0  0  0
 12 16  2  0  0  0  0
 13 15  1  0  0  0  0
 13 14  2  0  0  0  0
 14 12  1  0  0  0  0
 15 10  2  0  0  0  0
 17 15  1  0  0  0  0
 19 14  1  0  0  0  0
 19 11  1  1  0  0  0
 21 20  1  0  0  0  0
 23 27  1  0  0  0  0
 24 29  1  1  0  0  0
 24 22  1  0  0  0  0
 25 26  1  0  0  0  0
 25 23  1  0  0  0  0
 26 24  1  0  0  0  0
 27 21  1  0  0  0  0
 27 22  1  0  0  0  0
 29 28  1  0  0  0  0
M  END
>  <MODEL>
4

>  <REMARK>
 VINA RESULT:      -7.5      2.521      9.272
  Name = 
  5 active torsions:
  status: ('A' for Active; 'I' for Inactive)
    1  A    between atoms: C_8  and  C_14
    2  A    between atoms: C_8  and  N_26
    3  A    between atoms: C_9  and  O_11
    4  A    between atoms: C_14  and  C_24
    5  A    between atoms: N_27  and  C_29
                            x       y       z     vdW  Elec       q    Type
                         _______ _______ _______ _____ _____    ______ ____

>  <TORSDO>
F 5

$$$$
=
 OpenBabel11042423123D

 29 32  0  0  1  0  0  0  0  0999 V2000
  160.2140  208.7660  156.5790 O   0  0  0  0  0  0  0  0  0  0  0  0
  161.0470  209.2000  155.4060 S   0  0  0  0  0  0  0  0  0  0  0  0
  162.4040  209.6380  155.8810 O   0  0  0  0  0  0  0  0  0  0  0  0
  160.5670  210.6660  153.1340 C   0  0  0  0  0  2  0  0  0  0  0  0
  160.0290  207.1100  154.2500 F   0  0  0  0  0  0  0  0  0  0  0  0
  160.4630  209.3390  152.3890 C   0  0  0  0  0  2  0  0  0  0  0  0
  161.2080  207.8370  154.2720 C   0  0  1  0  0  3  0  0  0  0  0  0
  161.5360  208.3680  152.8740 C   0  0  1  0  0  3  0  0  0  0  0  0
  160.2720  210.5010  154.5560 N   0  0  2  0  0  0  0  0  0  0  0  0
  155.7710  212.2260  156.4470 N   0  0  0  0  0  0  0  0  0  0  0  0
  160.1010  212.7000  155.8140 C   0  0  0  0  0  3  0  0  0  0  0  0
  158.0080  212.7580  156.2650 C   0  0  0  0  0  0  0  0  0  0  0  0
  157.2070  210.7050  155.2980 N   0  0  0  0  0  0  0  0  0  0  0  0
  158.2180  211.5620  155.5530 C   0  0  0  0  0  0  0  0  0  0  0  0
  155.9640  211.0510  155.7540 C   0  0  0  0  0  0  0  0  0  0  0  0
  156.7740  213.0760  156.7070 N   0  0  0  0  0  0  0  0  0  0  0  0
  154.8110  210.1500  155.5010 C   0  0  0  0  0  1  0  0  0  0  0  0
  159.1440  213.4540  156.4280 N   0  0  0  0  0  0  0  0  0  0  0  0
  159.5590  211.5270  155.2670 C   0  0  2  0  0  3  0  0  0  0  0  0
  161.6810  207.2300  151.8780 C   0  0  0  0  0  2  0  0  0  0  0  0
  161.7300  207.7720  150.4590 C   0  0  0  0  0  2  0  0  0  0  0  0
  161.2110  207.0970  148.2830 C   0  0  0  0  0  2  0  0  0  0  0  0
  161.1330  205.5310  150.0820 C   0  0  0  0  0  2  0  0  0  0  0  0
  161.4350  206.0370  147.1930 C   0  0  1  0  0  3  0  0  0  0  0  0
  160.8390  204.4240  149.0520 C   0  0  0  0  0  2  0  0  0  0  0  0
  161.6110  204.6120  147.7450 C   0  0  0  0  0  2  0  0  0  0  0  0
  161.8640  206.6740  149.5180 N   0  0  0  0  0  0  0  0  0  0  0  0
  161.1420  205.6700  144.9480 C   0  0  0  0  0  1  0  0  0  0  0  0
  160.5190  206.1260  146.1220 O   0  0  0  0  0  0  0  0  0  0  0  0
  2  3  2  0  0  0  0
  2  1  2  0  0  0  0
  6  8  1  0  0  0  0
  6  4  1  0  0  0  0
  7  5  1  6  0  0  0
  7  2  1  0  0  0  0
  8 20  1  6  0  0  0
  8  7  1  0  0  0  0
  9  4  1  1  0  0  0
  9 19  1  0  0  0  0
  9  2  1  0  0  0  0
 10 16  1  0  0  0  0
 11 18  2  0  0  0  0
 12 18  1  0  0  0  0
 12 16  2  0  0  0  0
 13 14  2  0  0  0  0
 13 15  1  0  0  0  0
 14 12  1  0  0  0  0
 15 10  2  0  0  0  0
 17 15  1  0  0  0  0
 19 14  1  0  0  0  0
 19 11  1  1  0  0  0
 21 20  1  0  0  0  0
 22 27  1  0  0  0  0
 24 29  1  6  0  0  0
 24 26  1  0  0  0  0
 24 22  1  0  0  0  0
 25 23  1  0  0  0  0
 26 25  1  0  0  0  0
 27 23  1  0  0  0  0
 27 21  1  0  0  0  0
 28 29  1  0  0  0  0
M  END
>  <MODEL>
5

>  <REMARK>
 VINA RESULT:      -7.5      3.506      9.770
  Name = 
  5 active torsions:
  status: ('A' for Active; 'I' for Inactive)
    1  A    between atoms: C_8  and  C_14
    2  A    between atoms: C_8  and  N_26
    3  A    between atoms: C_9  and  O_11
    4  A    between atoms: C_14  and  C_24
    5  A    between atoms: N_27  and  C_29
                            x       y       z     vdW  Elec       q    Type
                         _______ _______ _______ _____ _____    ______ ____

>  <TORSDO>
F 5

$$$$
=
 OpenBabel11042423123D

 29 32  0  0  1  0  0  0  0  0999 V2000
  160.8010  207.4220  149.6950 O   0  0  0  0  0  0  0  0  0  0  0  0
  161.6180  207.2460  150.9440 S   0  0  0  0  0  0  0  0  0  0  0  0
  163.0810  207.3280  150.6120 O   0  0  0  0  0  0  0  0  0  0  0  0
  161.4640  205.5960  153.1340 C   0  0  0  0  0  2  0  0  0  0  0  0
  159.8290  208.7970  152.0110 F   0  0  0  0  0  0  0  0  0  0  0  0
  160.8320  206.7680  153.8800 C   0  0  0  0  0  2  0  0  0  0  0  0
  161.1840  208.5240  152.1060 C   0  0  1  0  0  3  0  0  0  0  0  0
  161.5410  208.0720  153.5240 C   0  0  1  0  0  3  0  0  0  0  0  0
  161.2670  205.7180  151.6910 N   0  0  2  0  0  0  0  0  0  0  0  0
  161.3600  203.4720  147.0270 N   0  0  0  0  0  0  0  0  0  0  0  0
  160.5670  203.3000  151.3540 C   0  0  0  0  0  3  0  0  0  0  0  0
  160.8450  203.0800  149.2400 C   0  0  0  0  0  0  0  0  0  0  0  0
  161.6460  205.2540  148.5890 N   0  0  0  0  0  0  0  0  0  0  0  0
  161.2060  204.4060  149.5430 C   0  0  0  0  0  0  0  0  0  0  0  0
  161.7190  204.7710  147.3100 C   0  0  0  0  0  0  0  0  0  0  0  0
  160.9280  202.6260  147.9730 N   0  0  0  0  0  0  0  0  0  0  0  0
  162.1920  205.6580  146.2160 C   0  0  0  0  0  1  0  0  0  0  0  0
  160.4570  202.4020  150.3330 N   0  0  0  0  0  0  0  0  0  0  0  0
  161.0290  204.5450  150.8960 C   0  0  2  0  0  3  0  0  0  0  0  0
  161.1850  209.1400  154.5440 C   0  0  0  0  0  2  0  0  0  0  0  0
  161.5830  210.5140  154.0310 C   0  0  0  0  0  2  0  0  0  0  0  0
  159.3980  210.6980  154.8400 C   0  0  0  0  0  2  0  0  0  0  0  0
  160.0790  211.9330  152.9160 C   0  0  0  0  0  2  0  0  0  0  0  0
  158.2600  211.6570  155.2190 C   0  0  1  0  0  3  0  0  0  0  0  0
  158.7000  212.6190  152.9180 C   0  0  0  0  0  2  0  0  0  0  0  0
  158.1870  212.9100  154.3290 C   0  0  0  0  0  2  0  0  0  0  0  0
  160.4940  211.4520  154.2400 N   0  0  0  0  0  0  0  0  0  0  0  0
  156.0190  211.9860  155.5820 C   0  0  0  0  0  1  0  0  0  0  0  0
  157.0160  211.0140  155.4020 O   0  0  0  0  0  0  0  0  0  0  0  0
  1  2  2  0  0  0  0
  2  9  1  0  0  0  0
  2  7  1  0  0  0  0
  3  2  2  0  0  0  0
  4  6  1  0  0  0  0
  7  5  1  1  0  0  0
  7  8  1  0  0  0  0
  8  6  1  0  0  0  0
  8 20  1  1  0  0  0
  9  4  1  1  0  0  0
 10 15  2  0  0  0  0
 10 16  1  0  0  0  0
 12 14  1  0  0  0  0
 12 18  1  0  0  0  0
 13 14  2  0  0  0  0
 14 19  1  0  0  0  0
 15 13  1  0  0  0  0
 16 12  2  0  0  0  0
 17 15  1  0  0  0  0
 18 11  2  0  0  0  0
 19 11  1  1  0  0  0
 19  9  1  0  0  0  0
 21 27  1  0  0  0  0
 21 20  1  0  0  0  0
 22 24  1  0  0  0  0
 23 25  1  0  0  0  0
 23 27  1  0  0  0  0
 24 29  1  6  0  0  0
 25 26  1  0  0  0  0
 26 24  1  0  0  0  0
 27 22  1  0  0  0  0
 29 28  1  0  0  0  0
M  END
>  <MODEL>
6

>  <REMARK>
 VINA RESULT:      -7.0      2.610      3.321
  Name = 
  5 active torsions:
  status: ('A' for Active; 'I' for Inactive)
    1  A    between atoms: C_8  and  C_14
    2  A    between atoms: C_8  and  N_26
    3  A    between atoms: C_9  and  O_11
    4  A    between atoms: C_14  and  C_24
    5  A    between atoms: N_27  and  C_29
                            x       y       z     vdW  Elec       q    Type
                         _______ _______ _______ _____ _____    ______ ____

>  <TORSDO>
F 5

$$$$
=
 OpenBabel11042423123D

 29 32  0  0  1  0  0  0  0  0999 V2000
  160.1400  206.5640  148.6980 O   0  0  0  0  0  0  0  0  0  0  0  0
  161.3560  206.5540  149.5810 S   0  0  0  0  0  0  0  0  0  0  0  0
  162.5880  206.7960  148.7550 O   0  0  0  0  0  0  0  0  0  0  0  0
  162.1930  205.0150  151.6960 C   0  0  0  0  0  2  0  0  0  0  0  0
  159.8620  207.9290  151.1990 F   0  0  0  0  0  0  0  0  0  0  0  0
  161.7110  206.1380  152.6090 C   0  0  0  0  0  2  0  0  0  0  0  0
  161.1880  207.8290  150.8140 C   0  0  1  0  0  3  0  0  0  0  0  0
  162.0730  207.4980  152.0180 C   0  0  1  0  0  3  0  0  0  0  0  0
  161.4920  205.0350  150.4130 N   0  0  2  0  0  0  0  0  0  0  0  0
  161.1180  202.3500  146.0020 N   0  0  0  0  0  0  0  0  0  0  0  0
  160.6880  202.6270  150.3750 C   0  0  0  0  0  3  0  0  0  0  0  0
  160.7790  202.1940  148.2780 C   0  0  0  0  0  0  0  0  0  0  0  0
  161.5930  204.2610  147.3520 N   0  0  0  0  0  0  0  0  0  0  0  0
  161.2080  203.5280  148.4180 C   0  0  0  0  0  0  0  0  0  0  0  0
  161.5420  203.6550  146.1260 C   0  0  0  0  0  0  0  0  0  0  0  0
  160.7410  201.6180  147.0600 N   0  0  0  0  0  0  0  0  0  0  0  0
  161.9500  204.4120  144.9150 C   0  0  0  0  0  1  0  0  0  0  0  0
  160.4620  201.6410  149.4600 N   0  0  0  0  0  0  0  0  0  0  0  0
  161.1490  203.8020  149.7610 C   0  0  2  0  0  3  0  0  0  0  0  0
  161.9550  208.5670  153.0920 C   0  0  0  0  0  2  0  0  0  0  0  0
  162.0540  209.9510  152.4720 C   0  0  0  0  0  2  0  0  0  0  0  0
  161.3170  210.4550  154.6320 C   0  0  0  0  0  2  0  0  0  0  0  0
  159.8750  210.7810  152.7590 C   0  0  0  0  0  2  0  0  0  0  0  0
  160.6100  211.4850  155.5260 C   0  0  1  0  0  3  0  0  0  0  0  0
  158.8420  211.4070  153.7150 C   0  0  0  0  0  2  0  0  0  0  0  0
  159.4880  212.2560  154.8100 C   0  0  0  0  0  2  0  0  0  0  0  0
  161.2580  210.8920  153.2410 N   0  0  0  0  0  0  0  0  0  0  0  0
  160.4460  209.5870  156.8030 C   0  0  0  0  0  1  0  0  0  0  0  0
  160.2370  210.9760  156.7890 O   0  0  0  0  0  0  0  0  0  0  0  0
  1  2  2  0  0  0  0
  2  9  1  0  0  0  0
  2  7  1  0  0  0  0
  3  2  2  0  0  0  0
  4  6  1  0  0  0  0
  7  5  1  1  0  0  0
  7  8  1  0  0  0  0
  8  6  1  0  0  0  0
  8 20  1  1  0  0  0
  9  4  1  6  0  0  0
 10 15  2  0  0  0  0
 10 16  1  0  0  0  0
 12 14  1  0  0  0  0
 12 18  1  0  0  0  0
 13 14  2  0  0  0  0
 14 19  1  0  0  0  0
 15 13  1  0  0  0  0
 16 12  2  0  0  0  0
 17 15  1  0  0  0  0
 18 11  2  0  0  0  0
 19 11  1  1  0  0  0
 19  9  1  0  0  0  0
 21 20  1  0  0  0  0
 21 27  1  0  0  0  0
 22 24  1  0  0  0  0
 23 27  1  0  0  0  0
 23 25  1  0  0  0  0
 24 29  1  1  0  0  0
 25 26  1  0  0  0  0
 26 24  1  0  0  0  0
 27 22  1  0  0  0  0
 29 28  1  0  0  0  0
M  END
>  <MODEL>
7

>  <REMARK>
 VINA RESULT:      -6.8      1.942      2.402
  Name = 
  5 active torsions:
  status: ('A' for Active; 'I' for Inactive)
    1  A    between atoms: C_8  and  C_14
    2  A    between atoms: C_8  and  N_26
    3  A    between atoms: C_9  and  O_11
    4  A    between atoms: C_14  and  C_24
    5  A    between atoms: N_27  and  C_29
                            x       y       z     vdW  Elec       q    Type
                         _______ _______ _______ _____ _____    ______ ____

>  <TORSDO>
F 5

$$$$
=
 OpenBabel11042423123D

 29 32  0  0  1  0  0  0  0  0999 V2000
  160.1240  206.5780  148.7890 O   0  0  0  0  0  0  0  0  0  0  0  0
  161.3130  206.4530  149.7010 S   0  0  0  0  0  0  0  0  0  0  0  0
  162.5700  206.7860  148.9480 O   0  0  0  0  0  0  0  0  0  0  0  0
  162.0800  204.6640  151.6370 C   0  0  0  0  0  2  0  0  0  0  0  0
  159.7720  207.6310  151.4280 F   0  0  0  0  0  0  0  0  0  0  0  0
  161.5740  205.6710  152.6650 C   0  0  0  0  0  2  0  0  0  0  0  0
  161.1100  207.5700  151.0730 C   0  0  1  0  0  3  0  0  0  0  0  0
  161.9560  207.0900  152.2550 C   0  0  1  0  0  3  0  0  0  0  0  0
  161.4200  204.8440  150.3460 N   0  0  2  0  0  0  0  0  0  0  0  0
  161.2060  202.7050  145.6360 N   0  0  0  0  0  0  0  0  0  0  0  0
  160.5990  202.4680  149.9900 C   0  0  0  0  0  3  0  0  0  0  0  0
  160.7730  202.2850  147.8620 C   0  0  0  0  0  0  0  0  0  0  0  0
  161.6400  204.4370  147.2210 N   0  0  0  0  0  0  0  0  0  0  0  0
  161.2060  203.5870  148.1760 C   0  0  0  0  0  0  0  0  0  0  0  0
  161.6340  203.9810  145.9300 C   0  0  0  0  0  0  0  0  0  0  0  0
  160.7800  201.8570  146.5830 N   0  0  0  0  0  0  0  0  0  0  0  0
  162.0980  204.8710  144.8350 C   0  0  0  0  0  1  0  0  0  0  0  0
  160.4030  201.6000  148.9560 N   0  0  0  0  0  0  0  0  0  0  0  0
  161.0940  203.7020  149.5380 C   0  0  2  0  0  3  0  0  0  0  0  0
  161.8080  208.0220  153.4460 C   0  0  0  0  0  2  0  0  0  0  0  0
  161.0570  207.3280  154.5710 C   0  0  0  0  0  2  0  0  0  0  0  0
  160.0920  209.4550  154.6530 C   0  0  0  0  0  2  0  0  0  0  0  0
  161.5800  208.7390  156.3750 C   0  0  0  0  0  2  0  0  0  0  0  0
  159.3630  210.4870  155.5280 C   0  0  1  0  0  3  0  0  0  0  0  0
  161.2780  210.0490  157.1250 C   0  0  0  0  0  2  0  0  0  0  0  0
  159.8160  210.4800  156.9980 C   0  0  0  0  0  2  0  0  0  0  0  0
  160.4990  208.3190  155.4740 N   0  0  0  0  0  0  0  0  0  0  0  0
  159.9990  211.7620  153.7300 C   0  0  0  0  0  1  0  0  0  0  0  0
  159.3080  211.7760  154.9530 O   0  0  0  0  0  0  0  0  0  0  0  0
  1  2  2  0  0  0  0
  2  9  1  0  0  0  0
  2  7  1  0  0  0  0
  3  2  2  0  0  0  0
  4  6  1  0  0  0  0
  7  5  1  1  0  0  0
  7  8  1  0  0  0  0
  8  6  1  0  0  0  0
  8 20  1  1  0  0  0
  9  4  1  6  0  0  0
 10 15  2  0  0  0  0
 10 16  1  0  0  0  0
 12 14  1  0  0  0  0
 12 18  1  0  0  0  0
 13 14  2  0  0  0  0
 14 19  1  0  0  0  0
 15 13  1  0  0  0  0
 16 12  2  0  0  0  0
 17 15  1  0  0  0  0
 18 11  2  0  0  0  0
 19 11  1  1  0  0  0
 19  9  1  0  0  0  0
 20 21  1  0  0  0  0
 21 27  1  0  0  0  0
 22 27  1  0  0  0  0
 22 24  1  0  0  0  0
 23 25  1  0  0  0  0
 24 29  1  6  0  0  0
 24 26  1  0  0  0  0
 26 25  1  0  0  0  0
 27 23  1  0  0  0  0
 28 29  1  0  0  0  0
M  END
>  <MODEL>
8

>  <REMARK>
 VINA RESULT:      -6.7      2.012      2.588
  Name = 
  5 active torsions:
  status: ('A' for Active; 'I' for Inactive)
    1  A    between atoms: C_8  and  C_14
    2  A    between atoms: C_8  and  N_26
    3  A    between atoms: C_9  and  O_11
    4  A    between atoms: C_14  and  C_24
    5  A    between atoms: N_27  and  C_29
                            x       y       z     vdW  Elec       q    Type
                         _______ _______ _______ _____ _____    ______ ____

>  <TORSDO>
F 5

$$$$
=
 OpenBabel11042423123D

 29 32  0  0  1  0  0  0  0  0999 V2000
  162.3320  204.0140  151.3640 O   0  0  0  0  0  0  0  0  0  0  0  0
  161.2630  205.0380  151.6220 S   0  0  0  0  0  0  0  0  0  0  0  0
  159.9120  204.3820  151.5940 O   0  0  0  0  0  0  0  0  0  0  0  0
  160.8290  207.6240  150.8040 C   0  0  0  0  0  2  0  0  0  0  0  0
  162.9080  205.9080  153.4330 F   0  0  0  0  0  0  0  0  0  0  0  0
  161.3830  208.0660  152.1550 C   0  0  0  0  0  2  0  0  0  0  0  0
  161.5460  205.7840  153.2140 C   0  0  1  0  0  3  0  0  0  0  0  0
  160.8680  207.1550  153.2670 C   0  0  1  0  0  3  0  0  0  0  0  0
  161.3290  206.3020  150.4320 N   0  0  2  0  0  0  0  0  0  0  0  0
  161.4410  202.8240  146.5980 N   0  0  0  0  0  0  0  0  0  0  0  0
  162.1340  206.9040  148.1000 C   0  0  0  0  0  3  0  0  0  0  0  0
  161.9170  205.0260  147.0900 C   0  0  0  0  0  0  0  0  0  0  0  0
  161.0460  203.5990  148.8210 N   0  0  0  0  0  0  0  0  0  0  0  0
  161.4950  204.8050  148.4150 C   0  0  0  0  0  0  0  0  0  0  0  0
  161.0240  202.5950  147.8910 C   0  0  0  0  0  0  0  0  0  0  0  0
  161.8830  204.0220  146.1910 N   0  0  0  0  0  0  0  0  0  0  0  0
  160.5420  201.2450  148.2790 C   0  0  0  0  0  1  0  0  0  0  0  0
  162.3060  206.2960  146.8910 N   0  0  0  0  0  0  0  0  0  0  0  0
  161.6340  206.0080  149.0590 C   0  0  2  0  0  3  0  0  0  0  0  0
  161.0890  207.8220  154.6140 C   0  0  0  0  0  2  0  0  0  0  0  0
  161.1410  209.3320  154.4560 C   0  0  0  0  0  2  0  0  0  0  0  0
  159.5390  210.9100  153.8160 C   0  0  0  0  0  2  0  0  0  0  0  0
  160.0530  210.5800  156.1230 C   0  0  0  0  0  2  0  0  0  0  0  0
  158.1300  211.4650  154.0710 C   0  0  1  0  0  3  0  0  0  0  0  0
  158.9240  211.5670  156.4730 C   0  0  0  0  0  2  0  0  0  0  0  0
  157.7120  211.4310  155.5510 C   0  0  0  0  0  2  0  0  0  0  0  0
  159.8620  209.9100  154.8300 N   0  0  0  0  0  0  0  0  0  0  0  0
  156.8070  213.3400  154.0720 C   0  0  0  0  0  1  0  0  0  0  0  0
  157.8870  212.7040  153.4370 O   0  0  0  0  0  0  0  0  0  0  0  0
  1  2  2  0  0  0  0
  2  7  1  0  0  0  0
  3  2  2  0  0  0  0
  4  6  1  0  0  0  0
  6  8  1  0  0  0  0
  7  8  1  0  0  0  0
  7  5  1  6  0  0  0
  8 20  1  1  0  0  0
  9  4  1  6  0  0  0
  9  2  1  0  0  0  0
 10 15  2  0  0  0  0
 12 14  1  0  0  0  0
 14 13  2  0  0  0  0
 14 19  1  0  0  0  0
 15 17  1  0  0  0  0
 15 13  1  0  0  0  0
 16 10  1  0  0  0  0
 16 12  2  0  0  0  0
 18 12  1  0  0  0  0
 18 11  2  0  0  0  0
 19 11  1  6  0  0  0
 19  9  1  0  0  0  0
 21 20  1  0  0  0  0
 21 27  1  0  0  0  0
 22 24  1  0  0  0  0
 22 27  1  0  0  0  0
 23 25  1  0  0  0  0
 24 29  1  1  0  0  0
 24 26  1  0  0  0  0
 26 25  1  0  0  0  0
 27 23  1  0  0  0  0
 29 28  1  0  0  0  0
M  END
>  <MODEL>
9

>  <REMARK>
 VINA RESULT:      -6.7      2.226      3.394
  Name = 
  5 active torsions:
  status: ('A' for Active; 'I' for Inactive)
    1  A    between atoms: C_8  and  C_14
    2  A    between atoms: C_8  and  N_26
    3  A    between atoms: C_9  and  O_11
    4  A    between atoms: C_14  and  C_24
    5  A    between atoms: N_27  and  C_29
                            x       y       z     vdW  Elec       q    Type
                         _______ _______ _______ _____ _____    ______ ____

>  <TORSDO>
F 5

$$$$
