=
 OpenBabel11052409403D

 38 41  0  0  1  0  0  0  0  0999 V2000
  160.9200  210.4520  153.7990 C   0  0  0  0  0  2  0  0  0  0  0  0
  161.2670  209.0270  151.7620 C   0  0  1  0  0  3  0  0  0  0  0  0
  161.1490  202.5800  147.1530 C   0  0  0  0  0  1  0  0  0  0  0  0
  161.0700  207.4450  149.8290 O   0  0  0  0  0  0  0  0  0  0  0  0
  161.2770  203.7710  147.9770 N   0  0  0  0  0  0  0  0  0  0  0  0
  161.7170  205.0220  147.3720 C   0  0  0  0  0  2  0  0  0  0  0  0
  160.5130  206.2560  149.2740 C   0  0  1  0  0  3  0  0  0  0  0  0
  161.3380  204.0720  152.2210 O   0  0  0  0  0  1  0  0  0  0  0  0
  161.0840  205.1800  151.4150 C   0  0  0  0  0  0  0  0  0  0  0  0
  161.0930  206.5330  152.0210 C   0  0  0  0  0  0  0  0  0  0  0  0
  160.8670  202.6450  149.9880 O   0  0  0  0  0  0  0  0  0  0  0  0
  161.4350  209.1140  153.2900 C   0  0  2  0  0  3  0  0  0  0  0  0
  160.7690  206.1580  147.7590 C   0  0  0  0  0  2  0  0  0  0  0  0
  161.0060  203.7440  149.3830 C   0  0  0  0  0  0  0  0  0  0  0  0
  161.2080  206.6600  153.5150 C   0  0  0  0  0  2  0  0  0  0  0  0
  162.4070  209.7540  151.0720 C   0  0  0  0  0  1  0  0  0  0  0  0
  161.1510  207.6190  151.2180 C   0  0  0  0  0  0  0  0  0  0  0  0
  160.6720  208.0020  153.9920 C   0  0  0  0  0  2  0  0  0  0  0  0
  160.8860  205.0360  150.0910 C   0  0  0  0  0  0  0  0  0  0  0  0
  159.7340  210.9230  152.9730 C   0  0  2  0  0  3  0  0  0  0  0  0
  159.1250  212.9570  151.5950 C   0  0  0  0  0  0  0  0  0  0  0  0
  157.9170  212.6020  151.5330 O   0  0  0  0  0  0  0  0  0  0  0  0
  160.0890  212.1510  152.2740 N   0  0  0  0  0  2  0  0  0  0  0  0
  159.5480  214.2440  150.9830 C   0  0  0  0  0  2  0  0  0  0  0  0
  160.5090  213.9850  149.8750 C   0  0  0  0  0  3  0  0  0  0  0  0
  160.1110  213.3210  148.7920 C   0  0  0  0  0  3  0  0  0  0  0  0
  161.0540  213.0470  147.6590 C   0  0  1  0  0  3  0  0  0  0  0  0
  162.0840  212.0190  148.1190 C   0  0  0  0  0  2  0  0  0  0  0  0
  163.4840  212.4760  147.7590 C   0  0  0  0  0  1  0  0  0  0  0  0
  160.2790  212.5240  146.4380 C   0  0  1  0  0  3  0  0  0  0  0  0
  158.8500  212.6530  146.6250 N   0  0  0  0  0  0  0  0  0  0  0  0
  158.0890  212.4370  145.7310 O   0  0  0  0  0  0  0  0  0  0  0  0
  161.7020  212.8770  144.5830 O   0  0  0  0  0  0  0  0  0  0  0  0
  160.6950  213.2240  145.1770 C   0  0  0  0  0  3  0  0  0  0  0  0
  158.6460  211.1610  153.8180 O   0  0  0  0  0  0  0  0  0  0  0  0
  159.2120  211.6100  155.0130 C   0  0  0  0  0  3  0  0  0  0  0  0
  158.3920  212.7660  155.5500 C   0  0  0  0  0  2  0  0  0  0  0  0
  158.2270  211.3820  156.1420 C   0  0  0  0  0  2  0  0  0  0  0  0
  2 16  1  6  0  0  0
  2 12  1  0  0  0  0
  3  5  1  0  0  0  0
  4 17  1  0  0  0  0
  5 14  1  0  0  0  0
  6 13  1  0  0  0  0
  6  5  1  0  0  0  0
  7 13  1  6  0  0  0
  7  4  1  0  0  0  0
  7 19  1  0  0  0  0
  9 10  1  0  0  0  0
  9  8  1  0  0  0  0
 10 15  1  0  0  0  0
 12  1  1  1  0  0  0
 12 18  1  0  0  0  0
 14 11  2  0  0  0  0
 14 19  1  0  0  0  0
 15 18  1  0  0  0  0
 17  2  1  0  0  0  0
 17 10  2  0  0  0  0
 19  9  2  0  0  0  0
 20  1  1  1  0  0  0
 20 35  1  0  0  0  0
 21 23  1  0  0  0  0
 22 21  2  0  0  0  0
 23 20  1  0  0  0  0
 24 21  1  0  0  0  0
 25 24  1  0  0  0  0
 26 25  2  0  0  0  0
 27 28  1  1  0  0  0
 27 26  1  0  0  0  0
 29 28  1  0  0  0  0
 30 34  1  6  0  0  0
 30 31  1  0  0  0  0
 30 27  1  0  0  0  0
 32 31  2  0  0  0  0
 33 34  2  0  0  0  0
 35 36  1  0  0  0  0
 36 37  1  0  0  0  0
 36 38  1  0  0  0  0
 37 38  1  0  0  0  0
M  END
>  <MODEL>
1

>  <REMARK>
 VINA RESULT:      -8.0      0.000      0.000
  Name = 
  12 active torsions:
  status: ('A' for Active; 'I' for Inactive)
    1  A    between atoms: C_1  and  O_27
    2  A    between atoms: C_3  and  C_28
    3  A    between atoms: C_6  and  C_20
    4  A    between atoms: C_6  and  C_22
    5  A    between atoms: C_7  and  C_12
    6  A    between atoms: N_9  and  C_30
    7  A    between atoms: C_12  and  C_18
    8  A    between atoms: C_22  and  O_27
    9  A    between atoms: C_22  and  N_38
   10  A    between atoms: C_28  and  C_30
   11  A    between atoms: C_28  and  C_31
   12  A    between atoms: C_30  and  C_33
                            x       y       z     vdW  Elec       q    Type
                         _______ _______ _______ _____ _____    ______ ____

>  <TORSDO>
F 12

$$$$
=
 OpenBabel11052409403D

 38 41  0  0  1  0  0  0  0  0999 V2000
  161.8420  209.7570  153.8620 C   0  0  0  0  0  2  0  0  0  0  0  0
  161.3590  207.3940  153.1660 C   0  0  1  0  0  3  0  0  0  0  0  0
  160.8560  201.0400  148.4550 C   0  0  0  0  0  1  0  0  0  0  0  0
  161.4030  205.0670  152.2400 O   0  0  0  0  0  0  0  0  0  0  0  0
  160.8420  202.1920  149.3440 N   0  0  0  0  0  0  0  0  0  0  0  0
  160.5240  202.0090  150.7540 C   0  0  0  0  0  2  0  0  0  0  0  0
  161.8420  204.1600  151.2320 C   0  0  1  0  0  3  0  0  0  0  0  0
  160.8130  206.3260  148.3360 O   0  0  0  0  0  1  0  0  0  0  0  0
  161.1720  205.8880  149.6090 C   0  0  0  0  0  0  0  0  0  0  0  0
  161.2930  206.8770  150.7080 C   0  0  0  0  0  0  0  0  0  0  0  0
  161.1440  203.7510  147.6240 O   0  0  0  0  0  0  0  0  0  0  0  0
  161.2010  208.8810  152.7970 C   0  0  2  0  0  3  0  0  0  0  0  0
  161.5780  202.6950  151.6260 C   0  0  0  0  0  2  0  0  0  0  0  0
  161.1110  203.5140  148.8630 C   0  0  0  0  0  0  0  0  0  0  0  0
  161.1920  208.3410  150.3820 C   0  0  0  0  0  2  0  0  0  0  0  0
  160.2940  206.9920  154.1710 C   0  0  0  0  0  1  0  0  0  0  0  0
  161.3390  206.4450  151.9880 C   0  0  0  0  0  0  0  0  0  0  0  0
  161.8540  209.1870  151.4580 C   0  0  0  0  0  2  0  0  0  0  0  0
  161.3540  204.5770  149.8610 C   0  0  0  0  0  0  0  0  0  0  0  0
  160.8350  210.7470  154.4240 C   0  0  2  0  0  3  0  0  0  0  0  0
  159.3570  212.0810  152.8610 C   0  0  0  0  0  0  0  0  0  0  0  0
  158.3650  211.3420  153.1060 O   0  0  0  0  0  0  0  0  0  0  0  0
  160.6260  211.8220  153.4650 N   0  0  0  0  0  2  0  0  0  0  0  0
  159.2000  213.2540  151.9610 C   0  0  0  0  0  2  0  0  0  0  0  0
  160.0490  213.0770  150.7500 C   0  0  0  0  0  3  0  0  0  0  0  0
  159.6480  213.5710  149.5800 C   0  0  0  0  0  3  0  0  0  0  0  0
  160.4820  213.4120  148.3440 C   0  0  1  0  0  3  0  0  0  0  0  0
  161.4000  212.2060  148.5270 C   0  0  0  0  0  2  0  0  0  0  0  0
  162.8380  212.5860  148.2300 C   0  0  0  0  0  1  0  0  0  0  0  0
  159.5790  213.2200  147.1150 C   0  0  1  0  0  3  0  0  0  0  0  0
  160.0630  212.1530  146.2660 N   0  0  0  0  0  0  0  0  0  0  0  0
  159.7550  212.0920  145.1140 O   0  0  0  0  0  0  0  0  0  0  0  0
  157.2460  213.5820  146.9930 O   0  0  0  0  0  0  0  0  0  0  0  0
  158.1560  212.9540  147.5090 C   0  0  0  0  0  3  0  0  0  0  0  0
  161.3240  211.2750  155.6220 O   0  0  0  0  0  0  0  0  0  0  0  0
  162.4450  210.4990  155.9250 C   0  0  0  0  0  3  0  0  0  0  0  0
  163.1070  211.0450  157.1750 C   0  0  0  0  0  2  0  0  0  0  0  0
  162.2270  209.8160  157.2600 C   0  0  0  0  0  2  0  0  0  0  0  0
  2 16  1  1  0  0  0
  3  5  1  0  0  0  0
  5  6  1  0  0  0  0
  6 13  1  0  0  0  0
  7 13  1  1  0  0  0
  7  4  1  0  0  0  0
  8  9  1  0  0  0  0
  9 19  2  0  0  0  0
  9 10  1  0  0  0  0
 10 17  2  0  0  0  0
 11 14  2  0  0  0  0
 12  2  1  0  0  0  0
 12  1  1  1  0  0  0
 14  5  1  0  0  0  0
 14 19  1  0  0  0  0
 15 10  1  0  0  0  0
 15 18  1  0  0  0  0
 17  4  1  0  0  0  0
 17  2  1  0  0  0  0
 18 12  1  0  0  0  0
 19  7  1  0  0  0  0
 20  1  1  6  0  0  0
 20 35  1  0  0  0  0
 21 22  2  0  0  0  0
 21 23  1  0  0  0  0
 23 20  1  0  0  0  0
 24 21  1  0  0  0  0
 25 24  1  0  0  0  0
 26 25  2  0  0  0  0
 27 28  1  1  0  0  0
 27 26  1  0  0  0  0
 29 28  1  0  0  0  0
 30 34  1  1  0  0  0
 30 27  1  0  0  0  0
 31 30  1  0  0  0  0
 32 31  2  0  0  0  0
 33 34  2  0  0  0  0
 35 36  1  0  0  0  0
 36 37  1  0  0  0  0
 36 38  1  0  0  0  0
 37 38  1  0  0  0  0
M  END
>  <MODEL>
2

>  <REMARK>
 VINA RESULT:      -7.4      1.725      2.808
  Name = 
  12 active torsions:
  status: ('A' for Active; 'I' for Inactive)
    1  A    between atoms: C_1  and  O_27
    2  A    between atoms: C_3  and  C_28
    3  A    between atoms: C_6  and  C_20
    4  A    between atoms: C_6  and  C_22
    5  A    between atoms: C_7  and  C_12
    6  A    between atoms: N_9  and  C_30
    7  A    between atoms: C_12  and  C_18
    8  A    between atoms: C_22  and  O_27
    9  A    between atoms: C_22  and  N_38
   10  A    between atoms: C_28  and  C_30
   11  A    between atoms: C_28  and  C_31
   12  A    between atoms: C_30  and  C_33
                            x       y       z     vdW  Elec       q    Type
                         _______ _______ _______ _____ _____    ______ ____

>  <TORSDO>
F 12

$$$$
=
 OpenBabel11052409403D

 38 41  0  0  1  0  0  0  0  0999 V2000
  160.0920  209.2910  154.5730 C   0  0  0  0  0  2  0  0  0  0  0  0
  160.6380  208.5200  152.2480 C   0  0  1  0  0  3  0  0  0  0  0  0
  161.7940  203.5220  146.2050 C   0  0  0  0  0  1  0  0  0  0  0  0
  160.7040  207.4380  149.9880 O   0  0  0  0  0  0  0  0  0  0  0  0
  161.6810  204.4790  147.2940 N   0  0  0  0  0  0  0  0  0  0  0  0
  161.7580  205.9070  147.0100 C   0  0  0  0  0  2  0  0  0  0  0  0
  160.4210  206.3110  149.1630 C   0  0  1  0  0  3  0  0  0  0  0  0
  161.9560  203.7830  151.4830 O   0  0  0  0  0  1  0  0  0  0  0  0
  161.3840  204.9460  150.9740 C   0  0  0  0  0  0  0  0  0  0  0  0
  161.1010  206.0760  151.8910 C   0  0  0  0  0  0  0  0  0  0  0  0
  161.6990  202.8480  148.9720 O   0  0  0  0  0  0  0  0  0  0  0  0
  160.8840  208.2870  153.7490 C   0  0  2  0  0  3  0  0  0  0  0  0
  160.5880  206.6400  147.6690 C   0  0  0  0  0  2  0  0  0  0  0  0
  161.5220  204.0550  148.6530 C   0  0  0  0  0  0  0  0  0  0  0  0
  161.2830  205.8750  153.3700 C   0  0  0  0  0  2  0  0  0  0  0  0
  161.5150  209.6550  151.7480 C   0  0  0  0  0  1  0  0  0  0  0  0
  160.8350  207.2970  151.3770 C   0  0  0  0  0  0  0  0  0  0  0  0
  160.4670  206.8840  154.1630 C   0  0  0  0  0  2  0  0  0  0  0  0
  161.1370  205.0710  149.6550 C   0  0  0  0  0  0  0  0  0  0  0  0
  160.9890  210.4200  155.0560 C   0  0  2  0  0  3  0  0  0  0  0  0
  159.6670  212.1160  153.7220 C   0  0  0  0  0  0  0  0  0  0  0  0
  158.5720  211.6460  154.1350 O   0  0  0  0  0  0  0  0  0  0  0  0
  160.9080  211.5340  154.1210 N   0  0  0  0  0  2  0  0  0  0  0  0
  159.6700  213.3110  152.8360 C   0  0  0  0  0  2  0  0  0  0  0  0
  159.3850  212.8990  151.4340 C   0  0  0  0  0  3  0  0  0  0  0  0
  159.8750  213.6090  150.4200 C   0  0  0  0  0  3  0  0  0  0  0  0
  159.6080  213.2180  148.9970 C   0  0  1  0  0  3  0  0  0  0  0  0
  158.5300  214.1400  148.4330 C   0  0  0  0  0  2  0  0  0  0  0  0
  157.2610  213.3580  148.1530 C   0  0  0  0  0  1  0  0  0  0  0  0
  160.8970  213.3250  148.1660 C   0  0  1  0  0  3  0  0  0  0  0  0
  161.5590  212.0440  148.0530 N   0  0  0  0  0  0  0  0  0  0  0  0
  162.6460  211.8680  148.5150 O   0  0  0  0  0  0  0  0  0  0  0  0
  160.8210  213.2040  145.8060 O   0  0  0  0  0  0  0  0  0  0  0  0
  160.6300  213.8860  146.8000 C   0  0  0  0  0  3  0  0  0  0  0  0
  162.3080  209.9630  155.1310 O   0  0  0  0  0  0  0  0  0  0  0  0
  162.5450  209.7740  156.4930 C   0  0  0  0  0  3  0  0  0  0  0  0
  163.5360  210.8140  156.9760 C   0  0  0  0  0  2  0  0  0  0  0  0
  162.0580  210.9910  157.2540 C   0  0  0  0  0  2  0  0  0  0  0  0
  2 16  1  6  0  0  0
  2 12  1  0  0  0  0
  3  5  1  0  0  0  0
  4 17  1  0  0  0  0
  5 14  1  0  0  0  0
  6  5  1  0  0  0  0
  6 13  1  0  0  0  0
  7 13  1  6  0  0  0
  7 19  1  0  0  0  0
  7  4  1  0  0  0  0
  9  8  1  0  0  0  0
  9 10  1  0  0  0  0
 10 15  1  0  0  0  0
 12 18  1  0  0  0  0
 12  1  1  1  0  0  0
 14 11  2  0  0  0  0
 14 19  1  0  0  0  0
 15 18  1  0  0  0  0
 17 10  2  0  0  0  0
 17  2  1  0  0  0  0
 19  9  2  0  0  0  0
 20  1  1  6  0  0  0
 20 35  1  0  0  0  0
 21 23  1  0  0  0  0
 21 22  2  0  0  0  0
 23 20  1  0  0  0  0
 24 21  1  0  0  0  0
 25 24  1  0  0  0  0
 26 25  2  0  0  0  0
 27 28  1  6  0  0  0
 27 26  1  0  0  0  0
 29 28  1  0  0  0  0
 30 34  1  6  0  0  0
 30 27  1  0  0  0  0
 31 30  1  0  0  0  0
 31 32  2  0  0  0  0
 33 34  2  0  0  0  0
 35 36  1  0  0  0  0
 36 37  1  0  0  0  0
 36 38  1  0  0  0  0
 37 38  1  0  0  0  0
M  END
>  <MODEL>
3

>  <REMARK>
 VINA RESULT:      -6.7      1.831      2.534
  Name = 
  12 active torsions:
  status: ('A' for Active; 'I' for Inactive)
    1  A    between atoms: C_1  and  O_27
    2  A    between atoms: C_3  and  C_28
    3  A    between atoms: C_6  and  C_20
    4  A    between atoms: C_6  and  C_22
    5  A    between atoms: C_7  and  C_12
    6  A    between atoms: N_9  and  C_30
    7  A    between atoms: C_12  and  C_18
    8  A    between atoms: C_22  and  O_27
    9  A    between atoms: C_22  and  N_38
   10  A    between atoms: C_28  and  C_30
   11  A    between atoms: C_28  and  C_31
   12  A    between atoms: C_30  and  C_33
                            x       y       z     vdW  Elec       q    Type
                         _______ _______ _______ _____ _____    ______ ____

>  <TORSDO>
F 12

$$$$
=
 OpenBabel11052409403D

 38 41  0  0  1  0  0  0  0  0999 V2000
  159.1730  212.4880  151.2300 C   0  0  0  0  0  2  0  0  0  0  0  0
  159.0630  213.1910  148.8230 C   0  0  1  0  0  3  0  0  0  0  0  0
  161.1920  213.8430  141.2160 C   0  0  0  0  0  1  0  0  0  0  0  0
  159.0680  213.3380  146.3220 O   0  0  0  0  0  0  0  0  0  0  0  0
  160.7960  213.8330  142.6160 N   0  0  0  0  0  0  0  0  0  0  0  0
  159.5110  214.4000  143.0050 C   0  0  0  0  0  2  0  0  0  0  0  0
  159.5720  212.8770  145.0710 C   0  0  1  0  0  3  0  0  0  0  0  0
  163.1950  213.0930  146.0510 O   0  0  0  0  0  1  0  0  0  0  0  0
  161.8050  213.0140  146.1020 C   0  0  0  0  0  0  0  0  0  0  0  0
  161.1320  212.9310  147.4210 C   0  0  0  0  0  0  0  0  0  0  0  0
  162.8570  213.0310  143.3820 O   0  0  0  0  0  0  0  0  0  0  0  0
  159.9620  213.0680  150.0670 C   0  0  2  0  0  3  0  0  0  0  0  0
  158.7450  213.4130  143.8890 C   0  0  0  0  0  2  0  0  0  0  0  0
  161.6500  213.2990  143.6340 C   0  0  0  0  0  0  0  0  0  0  0  0
  161.9720  212.7630  148.6560 C   0  0  0  0  0  2  0  0  0  0  0  0
  158.2240  214.4530  148.9120 C   0  0  0  0  0  1  0  0  0  0  0  0
  159.8020  213.1580  147.5030 C   0  0  0  0  0  0  0  0  0  0  0  0
  161.1570  212.1680  149.7940 C   0  0  0  0  0  2  0  0  0  0  0  0
  161.0710  213.0690  144.9740 C   0  0  0  0  0  0  0  0  0  0  0  0
  160.0920  212.1690  152.3990 C   0  0  2  0  0  3  0  0  0  0  0  0
  161.1360  209.8820  152.6880 C   0  0  0  0  0  0  0  0  0  0  0  0
  162.2690  210.3130  152.3400 O   0  0  0  0  0  0  0  0  0  0  0  0
  160.0010  210.7500  152.7120 N   0  0  0  0  0  2  0  0  0  0  0  0
  160.9820  208.4640  153.1080 C   0  0  0  0  0  2  0  0  0  0  0  0
  160.7810  207.6010  151.9110 C   0  0  0  0  0  3  0  0  0  0  0  0
  161.8160  206.9660  151.3680 C   0  0  0  0  0  3  0  0  0  0  0  0
  161.6440  206.0880  150.1650 C   0  0  1  0  0  3  0  0  0  0  0  0
  160.5680  205.0480  150.4700 C   0  0  0  0  0  2  0  0  0  0  0  0
  161.1700  203.8630  151.1990 C   0  0  0  0  0  1  0  0  0  0  0  0
  161.2470  206.9320  148.9440 C   0  0  1  0  0  3  0  0  0  0  0  0
  162.2640  207.9100  148.6250 N   0  0  0  0  0  0  0  0  0  0  0  0
  162.0270  209.0800  148.6570 O   0  0  0  0  0  0  0  0  0  0  0  0
  161.8880  205.6390  147.0710 O   0  0  0  0  0  0  0  0  0  0  0  0
  160.9690  206.0750  147.7440 C   0  0  0  0  0  3  0  0  0  0  0  0
  159.7020  212.9210  153.5120 O   0  0  0  0  0  0  0  0  0  0  0  0
  158.6920  212.1710  154.1160 C   0  0  0  0  0  3  0  0  0  0  0  0
  158.4910  212.6590  155.5370 C   0  0  0  0  0  2  0  0  0  0  0  0
  157.5290  213.0840  154.4480 C   0  0  0  0  0  2  0  0  0  0  0  0
  2 16  1  1  0  0  0
  2 12  1  0  0  0  0
  3  5  1  0  0  0  0
  4 17  1  0  0  0  0
  5  6  1  0  0  0  0
  5 14  1  0  0  0  0
  6 13  1  0  0  0  0
  7 13  1  6  0  0  0
  7  4  1  0  0  0  0
  8  9  1  0  0  0  0
  9 10  1  0  0  0  0
 10 17  2  0  0  0  0
 10 15  1  0  0  0  0
 11 14  2  0  0  0  0
 12  1  1  1  0  0  0
 14 19  1  0  0  0  0
 15 18  1  0  0  0  0
 17  2  1  0  0  0  0
 18 12  1  0  0  0  0
 19  7  1  0  0  0  0
 19  9  2  0  0  0  0
 20  1  1  6  0  0  0
 20 23  1  0  0  0  0
 20 35  1  0  0  0  0
 21 23  1  0  0  0  0
 21 24  1  0  0  0  0
 22 21  2  0  0  0  0
 25 24  1  0  0  0  0
 26 25  2  0  0  0  0
 27 28  1  1  0  0  0
 27 26  1  0  0  0  0
 28 29  1  0  0  0  0
 30 34  1  6  0  0  0
 30 27  1  0  0  0  0
 31 32  2  0  0  0  0
 31 30  1  0  0  0  0
 33 34  2  0  0  0  0
 35 36  1  0  0  0  0
 36 38  1  0  0  0  0
 36 37  1  0  0  0  0
 38 37  1  0  0  0  0
M  END
>  <MODEL>
4

>  <REMARK>
 VINA RESULT:      -6.0      2.066      7.464
  Name = 
  12 active torsions:
  status: ('A' for Active; 'I' for Inactive)
    1  A    between atoms: C_1  and  O_27
    2  A    between atoms: C_3  and  C_28
    3  A    between atoms: C_6  and  C_20
    4  A    between atoms: C_6  and  C_22
    5  A    between atoms: C_7  and  C_12
    6  A    between atoms: N_9  and  C_30
    7  A    between atoms: C_12  and  C_18
    8  A    between atoms: C_22  and  O_27
    9  A    between atoms: C_22  and  N_38
   10  A    between atoms: C_28  and  C_30
   11  A    between atoms: C_28  and  C_31
   12  A    between atoms: C_30  and  C_33
                            x       y       z     vdW  Elec       q    Type
                         _______ _______ _______ _____ _____    ______ ____

>  <TORSDO>
F 12

$$$$
=
 OpenBabel11052409403D

 38 41  0  0  1  0  0  0  0  0999 V2000
  160.8180  205.0980  148.2940 C   0  0  0  0  0  2  0  0  0  0  0  0
  161.0510  205.6820  150.7240 C   0  0  1  0  0  3  0  0  0  0  0  0
  161.4970  210.1970  157.2240 C   0  0  0  0  0  1  0  0  0  0  0  0
  160.8300  206.6020  153.0440 O   0  0  0  0  0  0  0  0  0  0  0  0
  161.5100  209.3220  156.0620 N   0  0  0  0  0  0  0  0  0  0  0  0
  161.4970  207.8770  156.2470 C   0  0  0  0  0  2  0  0  0  0  0  0
  160.4690  207.6810  153.9030 C   0  0  1  0  0  3  0  0  0  0  0  0
  162.4050  210.2940  152.0160 O   0  0  0  0  0  1  0  0  0  0  0  0
  161.7260  209.1240  152.3530 C   0  0  0  0  0  0  0  0  0  0  0  0
  161.5400  208.0740  151.3230 C   0  0  0  0  0  0  0  0  0  0  0  0
  161.8230  211.0640  154.5290 O   0  0  0  0  0  0  0  0  0  0  0  0
  161.5170  206.0070  149.2930 C   0  0  2  0  0  3  0  0  0  0  0  0
  160.4090  207.2430  155.3780 C   0  0  0  0  0  2  0  0  0  0  0  0
  161.5610  209.8460  154.7290 C   0  0  0  0  0  0  0  0  0  0  0  0
  161.9390  208.3680  149.9040 C   0  0  0  0  0  2  0  0  0  0  0  0
  161.8090  204.4780  151.2560 C   0  0  0  0  0  1  0  0  0  0  0  0
  161.1630  206.8320  151.7020 C   0  0  0  0  0  0  0  0  0  0  0  0
  161.2120  207.4520  148.9300 C   0  0  0  0  0  2  0  0  0  0  0  0
  161.2890  208.9190  153.6100 C   0  0  0  0  0  0  0  0  0  0  0  0
  161.7600  204.7130  147.1640 C   0  0  2  0  0  3  0  0  0  0  0  0
  161.8110  205.4340  144.7390 C   0  0  0  0  0  0  0  0  0  0  0  0
  163.0390  205.7130  144.8070 O   0  0  0  0  0  0  0  0  0  0  0  0
  161.1060  204.9580  145.8860 N   0  0  0  0  0  2  0  0  0  0  0  0
  161.0940  205.5720  143.4440 C   0  0  0  0  0  2  0  0  0  0  0  0
  162.0340  206.0550  142.3950 C   0  0  0  0  0  3  0  0  0  0  0  0
  161.5790  206.7880  141.3820 C   0  0  0  0  0  3  0  0  0  0  0  0
  162.5020  207.2920  140.3120 C   0  0  1  0  0  3  0  0  0  0  0  0
  162.7030  206.1840  139.2810 C   0  0  0  0  0  2  0  0  0  0  0  0
  162.5860  206.7430  137.8760 C   0  0  0  0  0  1  0  0  0  0  0  0
  161.9110  208.5460  139.6480 C   0  0  1  0  0  3  0  0  0  0  0  0
  160.4710  208.4570  139.5410 N   0  0  0  0  0  0  0  0  0  0  0  0
  159.8560  209.2060  138.8420 O   0  0  0  0  0  0  0  0  0  0  0  0
  163.1030  210.5710  139.9050 O   0  0  0  0  0  0  0  0  0  0  0  0
  162.2930  209.7960  140.3850 C   0  0  0  0  0  3  0  0  0  0  0  0
  162.0850  203.3590  147.2740 O   0  0  0  0  0  0  0  0  0  0  0  0
  160.8900  202.7300  147.6290 C   0  0  0  0  0  3  0  0  0  0  0  0
  160.8310  201.3640  146.9750 C   0  0  0  0  0  2  0  0  0  0  0  0
  161.2050  201.4870  148.4370 C   0  0  0  0  0  2  0  0  0  0  0  0
  2 16  1  1  0  0  0
  2 17  1  0  0  0  0
  4  7  1  0  0  0  0
  5  6  1  0  0  0  0
  5  3  1  0  0  0  0
  7 13  1  1  0  0  0
  8  9  1  0  0  0  0
  9 19  2  0  0  0  0
 10 17  2  0  0  0  0
 10  9  1  0  0  0  0
 11 14  2  0  0  0  0
 12  1  1  6  0  0  0
 12  2  1  0  0  0  0
 13  6  1  0  0  0  0
 14  5  1  0  0  0  0
 15 10  1  0  0  0  0
 17  4  1  0  0  0  0
 18 12  1  0  0  0  0
 18 15  1  0  0  0  0
 19  7  1  0  0  0  0
 19 14  1  0  0  0  0
 20 35  1  0  0  0  0
 20  1  1  1  0  0  0
 21 22  2  0  0  0  0
 21 23  1  0  0  0  0
 23 20  1  0  0  0  0
 24 21  1  0  0  0  0
 25 24  1  0  0  0  0
 26 25  2  0  0  0  0
 27 28  1  6  0  0  0
 27 26  1  0  0  0  0
 29 28  1  0  0  0  0
 30 27  1  0  0  0  0
 30 34  1  1  0  0  0
 31 30  1  0  0  0  0
 32 31  2  0  0  0  0
 33 34  2  0  0  0  0
 35 36  1  0  0  0  0
 36 38  1  0  0  0  0
 37 36  1  0  0  0  0
 37 38  1  0  0  0  0
M  END
>  <MODEL>
5

>  <REMARK>
 VINA RESULT:      -6.0      4.255      8.629
  Name = 
  12 active torsions:
  status: ('A' for Active; 'I' for Inactive)
    1  A    between atoms: C_1  and  O_27
    2  A    between atoms: C_3  and  C_28
    3  A    between atoms: C_6  and  C_20
    4  A    between atoms: C_6  and  C_22
    5  A    between atoms: C_7  and  C_12
    6  A    between atoms: N_9  and  C_30
    7  A    between atoms: C_12  and  C_18
    8  A    between atoms: C_22  and  O_27
    9  A    between atoms: C_22  and  N_38
   10  A    between atoms: C_28  and  C_30
   11  A    between atoms: C_28  and  C_31
   12  A    between atoms: C_30  and  C_33
                            x       y       z     vdW  Elec       q    Type
                         _______ _______ _______ _____ _____    ______ ____

>  <TORSDO>
F 12

$$$$
=
 OpenBabel11052409403D

 38 41  0  0  1  0  0  0  0  0999 V2000
  162.0100  208.0100  152.7170 C   0  0  0  0  0  2  0  0  0  0  0  0
  161.3920  205.9370  151.4440 C   0  0  1  0  0  3  0  0  0  0  0  0
  160.4570  201.0750  145.2550 C   0  0  0  0  0  1  0  0  0  0  0  0
  161.2960  203.9360  149.9400 O   0  0  0  0  0  0  0  0  0  0  0  0
  160.5230  201.9510  146.4140 N   0  0  0  0  0  0  0  0  0  0  0  0
  160.2290  201.4170  147.7380 C   0  0  0  0  0  2  0  0  0  0  0  0
  161.6650  203.3080  148.7140 C   0  0  1  0  0  3  0  0  0  0  0  0
  160.6780  206.2020  146.5270 O   0  0  0  0  0  1  0  0  0  0  0  0
  161.0440  205.4300  147.6270 C   0  0  0  0  0  0  0  0  0  0  0  0
  161.2410  206.0880  148.9400 C   0  0  0  0  0  0  0  0  0  0  0  0
  160.8610  203.8940  145.1530 O   0  0  0  0  0  0  0  0  0  0  0  0
  161.3000  207.4730  151.4840 C   0  0  2  0  0  3  0  0  0  0  0  0
  161.3370  201.8040  148.7200 C   0  0  0  0  0  2  0  0  0  0  0  0
  160.8460  203.3410  146.2870 C   0  0  0  0  0  0  0  0  0  0  0  0
  161.2060  207.5890  149.0140 C   0  0  0  0  0  2  0  0  0  0  0  0
  160.3310  205.3300  152.3460 C   0  0  0  0  0  1  0  0  0  0  0  0
  161.2960  205.3330  150.0600 C   0  0  0  0  0  0  0  0  0  0  0  0
  161.9360  208.0930  150.2500 C   0  0  0  0  0  2  0  0  0  0  0  0
  161.1660  204.0920  147.5190 C   0  0  0  0  0  0  0  0  0  0  0  0
  161.0310  208.7250  153.6350 C   0  0  2  0  0  3  0  0  0  0  0  0
  159.9760  210.8960  152.8730 C   0  0  0  0  0  0  0  0  0  0  0  0
  158.8990  210.3130  152.5740 O   0  0  0  0  0  0  0  0  0  0  0  0
  161.0890  210.1580  153.3810 N   0  0  0  0  0  2  0  0  0  0  0  0
  160.0820  212.3720  152.7260 C   0  0  0  0  0  2  0  0  0  0  0  0
  158.7510  212.9990  152.9580 C   0  0  0  0  0  3  0  0  0  0  0  0
  158.2270  213.0130  154.1810 C   0  0  0  0  0  3  0  0  0  0  0  0
  156.8900  213.6400  154.4450 C   0  0  1  0  0  3  0  0  0  0  0  0
  156.2940  214.0950  153.1160 C   0  0  0  0  0  2  0  0  0  0  0  0
  154.8050  214.3430  153.2610 C   0  0  0  0  0  1  0  0  0  0  0  0
  155.9580  212.6310  155.1360 C   0  0  1  0  0  3  0  0  0  0  0  0
  156.5230  211.2990  155.1280 N   0  0  0  0  0  0  0  0  0  0  0  0
  155.8590  210.3450  155.4000 O   0  0  0  0  0  0  0  0  0  0  0  0
  156.1840  214.0190  157.0370 O   0  0  0  0  0  0  0  0  0  0  0  0
  155.6410  213.0440  156.5440 C   0  0  0  0  0  3  0  0  0  0  0  0
  161.3730  208.4690  154.9660 O   0  0  0  0  0  0  0  0  0  0  0  0
  160.1530  208.3470  155.6330 C   0  0  0  0  0  3  0  0  0  0  0  0
  160.4100  207.9660  157.0770 C   0  0  0  0  0  2  0  0  0  0  0  0
  160.0760  209.3990  156.7210 C   0  0  0  0  0  2  0  0  0  0  0  0
  2 12  1  0  0  0  0
  2 16  1  1  0  0  0
  3  5  1  0  0  0  0
  4 17  1  0  0  0  0
  5  6  1  0  0  0  0
  6 13  1  0  0  0  0
  7 13  1  1  0  0  0
  7  4  1  0  0  0  0
  8  9  1  0  0  0  0
  9 10  1  0  0  0  0
 10 15  1  0  0  0  0
 10 17  2  0  0  0  0
 11 14  2  0  0  0  0
 12  1  1  1  0  0  0
 14  5  1  0  0  0  0
 14 19  1  0  0  0  0
 15 18  1  0  0  0  0
 17  2  1  0  0  0  0
 18 12  1  0  0  0  0
 19  9  2  0  0  0  0
 19  7  1  0  0  0  0
 20  1  1  6  0  0  0
 20 35  1  0  0  0  0
 21 23  1  0  0  0  0
 22 21  2  0  0  0  0
 23 20  1  0  0  0  0
 24 21  1  0  0  0  0
 24 25  1  0  0  0  0
 25 26  2  0  0  0  0
 26 27  1  0  0  0  0
 27 28  1  6  0  0  0
 27 30  1  0  0  0  0
 28 29  1  0  0  0  0
 30 34  1  1  0  0  0
 31 30  1  0  0  0  0
 31 32  2  0  0  0  0
 34 33  2  0  0  0  0
 35 36  1  0  0  0  0
 36 38  1  0  0  0  0
 36 37  1  0  0  0  0
 38 37  1  0  0  0  0
M  END
>  <MODEL>
6

>  <REMARK>
 VINA RESULT:      -6.0      3.300      5.774
  Name = 
  12 active torsions:
  status: ('A' for Active; 'I' for Inactive)
    1  A    between atoms: C_1  and  O_27
    2  A    between atoms: C_3  and  C_28
    3  A    between atoms: C_6  and  C_20
    4  A    between atoms: C_6  and  C_22
    5  A    between atoms: C_7  and  C_12
    6  A    between atoms: N_9  and  C_30
    7  A    between atoms: C_12  and  C_18
    8  A    between atoms: C_22  and  O_27
    9  A    between atoms: C_22  and  N_38
   10  A    between atoms: C_28  and  C_30
   11  A    between atoms: C_28  and  C_31
   12  A    between atoms: C_30  and  C_33
                            x       y       z     vdW  Elec       q    Type
                         _______ _______ _______ _____ _____    ______ ____

>  <TORSDO>
F 12

$$$$
=
 OpenBabel11052409403D

 38 41  0  0  1  0  0  0  0  0999 V2000
  160.2700  213.9640  150.9400 C   0  0  0  0  0  2  0  0  0  0  0  0
  161.0710  213.3520  148.6410 C   0  0  1  0  0  3  0  0  0  0  0  0
  161.2230  213.0000  140.7240 C   0  0  0  0  0  1  0  0  0  0  0  0
  161.7870  213.3000  146.2400 O   0  0  0  0  0  0  0  0  0  0  0  0
  161.2000  212.9550  142.1780 N   0  0  0  0  0  0  0  0  0  0  0  0
  162.3220  212.3660  142.8980 C   0  0  0  0  0  2  0  0  0  0  0  0
  161.6610  213.8100  144.9160 C   0  0  1  0  0  3  0  0  0  0  0  0
  157.9100  213.5790  144.8040 O   0  0  0  0  0  1  0  0  0  0  0  0
  159.2270  213.6470  145.2550 C   0  0  0  0  0  0  0  0  0  0  0  0
  159.4910  213.6770  146.7140 C   0  0  0  0  0  0  0  0  0  0  0  0
  159.0010  213.7400  142.3490 O   0  0  0  0  0  0  0  0  0  0  0  0
  159.8520  213.4330  149.5770 C   0  0  2  0  0  3  0  0  0  0  0  0
  162.7960  213.3140  144.0020 C   0  0  0  0  0  2  0  0  0  0  0  0
  160.0860  213.4550  142.9270 C   0  0  0  0  0  0  0  0  0  0  0  0
  158.3310  213.8030  147.6610 C   0  0  0  0  0  2  0  0  0  0  0  0
  161.8560  212.0820  148.9200 C   0  0  0  0  0  1  0  0  0  0  0  0
  160.7430  213.4390  147.1660 C   0  0  0  0  0  0  0  0  0  0  0  0
  158.7810  214.3500  149.0070 C   0  0  0  0  0  2  0  0  0  0  0  0
  160.2550  213.6310  144.3850 C   0  0  0  0  0  0  0  0  0  0  0  0
  159.6080  213.1710  152.0550 C   0  0  2  0  0  3  0  0  0  0  0  0
  160.4490  211.2140  153.4210 C   0  0  0  0  0  0  0  0  0  0  0  0
  160.1160  211.7740  154.5000 O   0  0  0  0  0  0  0  0  0  0  0  0
  160.2490  211.8680  152.1670 N   0  0  0  0  0  2  0  0  0  0  0  0
  161.0280  209.8440  153.4480 C   0  0  0  0  0  2  0  0  0  0  0  0
  161.0770  209.2900  152.0670 C   0  0  0  0  0  3  0  0  0  0  0  0
  160.8540  207.9940  151.8620 C   0  0  0  0  0  3  0  0  0  0  0  0
  160.8940  207.4080  150.4820 C   0  0  1  0  0  3  0  0  0  0  0  0
  162.2760  207.6610  149.8850 C   0  0  0  0  0  2  0  0  0  0  0  0
  162.1620  208.4920  148.6220 C   0  0  0  0  0  1  0  0  0  0  0  0
  160.6000  205.9000  150.5370 C   0  0  1  0  0  3  0  0  0  0  0  0
  161.0610  205.2280  149.3420 N   0  0  0  0  0  0  0  0  0  0  0  0
  160.5710  205.4570  148.2770 O   0  0  0  0  0  0  0  0  0  0  0  0
  162.1000  204.4350  151.6300 O   0  0  0  0  0  0  0  0  0  0  0  0
  161.2090  205.2600  151.7500 C   0  0  0  0  0  3  0  0  0  0  0  0
  158.2510  213.0030  151.7610 O   0  0  0  0  0  0  0  0  0  0  0  0
  157.6100  214.0570  152.4150 C   0  0  0  0  0  3  0  0  0  0  0  0
  156.1480  213.7060  152.6110 C   0  0  0  0  0  2  0  0  0  0  0  0
  157.1190  213.5750  153.7660 C   0  0  0  0  0  2  0  0  0  0  0  0
  2 16  1  6  0  0  0
  2 12  1  0  0  0  0
  3  5  1  0  0  0  0
  4 17  1  0  0  0  0
  5  6  1  0  0  0  0
  5 14  1  0  0  0  0
  6 13  1  0  0  0  0
  7 13  1  6  0  0  0
  7  4  1  0  0  0  0
  8  9  1  0  0  0  0
  9 10  1  0  0  0  0
 10 17  2  0  0  0  0
 10 15  1  0  0  0  0
 11 14  2  0  0  0  0
 12  1  1  1  0  0  0
 14 19  1  0  0  0  0
 15 18  1  0  0  0  0
 17  2  1  0  0  0  0
 18 12  1  0  0  0  0
 19  7  1  0  0  0  0
 19  9  2  0  0  0  0
 20  1  1  6  0  0  0
 20 23  1  0  0  0  0
 21 24  1  0  0  0  0
 21 22  2  0  0  0  0
 23 21  1  0  0  0  0
 25 24  1  0  0  0  0
 26 25  2  0  0  0  0
 27 28  1  1  0  0  0
 27 30  1  0  0  0  0
 27 26  1  0  0  0  0
 29 28  1  0  0  0  0
 30 34  1  1  0  0  0
 31 30  1  0  0  0  0
 32 31  2  0  0  0  0
 33 34  2  0  0  0  0
 35 20  1  0  0  0  0
 35 36  1  0  0  0  0
 36 37  1  0  0  0  0
 36 38  1  0  0  0  0
 37 38  1  0  0  0  0
M  END
>  <MODEL>
7

>  <REMARK>
 VINA RESULT:      -5.9      2.004      7.769
  Name = 
  12 active torsions:
  status: ('A' for Active; 'I' for Inactive)
    1  A    between atoms: C_1  and  O_27
    2  A    between atoms: C_3  and  C_28
    3  A    between atoms: C_6  and  C_20
    4  A    between atoms: C_6  and  C_22
    5  A    between atoms: C_7  and  C_12
    6  A    between atoms: N_9  and  C_30
    7  A    between atoms: C_12  and  C_18
    8  A    between atoms: C_22  and  O_27
    9  A    between atoms: C_22  and  N_38
   10  A    between atoms: C_28  and  C_30
   11  A    between atoms: C_28  and  C_31
   12  A    between atoms: C_30  and  C_33
                            x       y       z     vdW  Elec       q    Type
                         _______ _______ _______ _____ _____    ______ ____

>  <TORSDO>
F 12

$$$$
=
 OpenBabel11052409403D

 38 41  0  0  1  0  0  0  0  0999 V2000
  161.9080  206.4140  151.8080 C   0  0  0  0  0  2  0  0  0  0  0  0
  160.8840  207.9720  153.4890 C   0  0  1  0  0  3  0  0  0  0  0  0
  157.3200  214.4530  156.3380 C   0  0  0  0  0  1  0  0  0  0  0  0
  159.4410  209.5640  154.7770 O   0  0  0  0  0  0  0  0  0  0  0  0
  158.0530  213.2790  155.8900 N   0  0  0  0  0  0  0  0  0  0  0  0
  158.2870  212.1790  156.8170 C   0  0  0  0  0  2  0  0  0  0  0  0
  158.4980  210.6320  154.7780 C   0  0  1  0  0  3  0  0  0  0  0  0
  160.4240  212.8040  152.3890 O   0  0  0  0  0  1  0  0  0  0  0  0
  159.9530  211.7060  153.1050 C   0  0  0  0  0  0  0  0  0  0  0  0
  160.4940  210.3580  152.8040 C   0  0  0  0  0  0  0  0  0  0  0  0
  158.6160  214.1990  153.8130 O   0  0  0  0  0  0  0  0  0  0  0  0
  161.8560  207.8520  152.3010 C   0  0  2  0  0  3  0  0  0  0  0  0
  157.8820  210.8510  156.1720 C   0  0  0  0  0  2  0  0  0  0  0  0
  158.5770  213.1840  154.5610 C   0  0  0  0  0  0  0  0  0  0  0  0
  161.4090  210.1900  151.6230 C   0  0  0  0  0  2  0  0  0  0  0  0
  161.5730  207.5350  154.7700 C   0  0  0  0  0  1  0  0  0  0  0  0
  160.2800  209.3470  153.6750 C   0  0  0  0  0  0  0  0  0  0  0  0
  161.4270  208.7450  151.1470 C   0  0  0  0  0  2  0  0  0  0  0  0
  159.0560  211.8640  154.0980 C   0  0  0  0  0  0  0  0  0  0  0  0
  160.7500  206.1250  150.8670 C   0  0  2  0  0  3  0  0  0  0  0  0
  160.8020  203.5950  150.9050 C   0  0  0  0  0  0  0  0  0  0  0  0
  160.5110  203.5690  152.1310 O   0  0  0  0  0  0  0  0  0  0  0  0
  160.9630  204.8380  150.2200 N   0  0  0  0  0  2  0  0  0  0  0  0
  160.9470  202.3200  150.1530 C   0  0  0  0  0  2  0  0  0  0  0  0
  161.5400  202.5890  148.8130 C   0  0  0  0  0  3  0  0  0  0  0  0
  160.7910  202.4680  147.7200 C   0  0  0  0  0  3  0  0  0  0  0  0
  161.3580  202.7350  146.3570 C   0  0  1  0  0  3  0  0  0  0  0  0
  160.4240  202.1300  145.3130 C   0  0  0  0  0  2  0  0  0  0  0  0
  160.3660  200.6220  145.4660 C   0  0  0  0  0  1  0  0  0  0  0  0
  161.5100  204.2480  146.1320 C   0  0  1  0  0  3  0  0  0  0  0  0
  162.9010  204.6460  146.1380 N   0  0  0  0  0  0  0  0  0  0  0  0
  163.6530  204.2750  145.2880 O   0  0  0  0  0  0  0  0  0  0  0  0
  160.6100  205.8650  144.6600 O   0  0  0  0  0  0  0  0  0  0  0  0
  160.8590  204.6860  144.8520 C   0  0  0  0  0  3  0  0  0  0  0  0
  160.6770  207.1310  149.9000 O   0  0  0  0  0  0  0  0  0  0  0  0
  161.1760  206.5460  148.7340 C   0  0  0  0  0  3  0  0  0  0  0  0
  161.2550  207.5950  147.6440 C   0  0  0  0  0  2  0  0  0  0  0  0
  162.5070  207.1860  148.3910 C   0  0  0  0  0  2  0  0  0  0  0  0
  2 17  1  0  0  0  0
  2 16  1  1  0  0  0
  4  7  1  0  0  0  0
  5  3  1  0  0  0  0
  5  6  1  0  0  0  0
  7 13  1  1  0  0  0
  8  9  1  0  0  0  0
  9 19  2  0  0  0  0
 10  9  1  0  0  0  0
 10 17  2  0  0  0  0
 11 14  2  0  0  0  0
 12  1  1  6  0  0  0
 12  2  1  0  0  0  0
 13  6  1  0  0  0  0
 14  5  1  0  0  0  0
 15 10  1  0  0  0  0
 17  4  1  0  0  0  0
 18 15  1  0  0  0  0
 18 12  1  0  0  0  0
 19 14  1  0  0  0  0
 19  7  1  0  0  0  0
 20  1  1  1  0  0  0
 21 22  2  0  0  0  0
 23 20  1  0  0  0  0
 23 21  1  0  0  0  0
 24 21  1  0  0  0  0
 25 24  1  0  0  0  0
 26 25  2  0  0  0  0
 27 28  1  6  0  0  0
 27 26  1  0  0  0  0
 28 29  1  0  0  0  0
 30 34  1  6  0  0  0
 30 31  1  0  0  0  0
 30 27  1  0  0  0  0
 32 31  2  0  0  0  0
 33 34  2  0  0  0  0
 35 20  1  0  0  0  0
 36 35  1  0  0  0  0
 37 38  1  0  0  0  0
 37 36  1  0  0  0  0
 38 36  1  0  0  0  0
M  END
>  <MODEL>
8

>  <REMARK>
 VINA RESULT:      -5.6      3.339      8.900
  Name = 
  12 active torsions:
  status: ('A' for Active; 'I' for Inactive)
    1  A    between atoms: C_1  and  O_27
    2  A    between atoms: C_3  and  C_28
    3  A    between atoms: C_6  and  C_20
    4  A    between atoms: C_6  and  C_22
    5  A    between atoms: C_7  and  C_12
    6  A    between atoms: N_9  and  C_30
    7  A    between atoms: C_12  and  C_18
    8  A    between atoms: C_22  and  O_27
    9  A    between atoms: C_22  and  N_38
   10  A    between atoms: C_28  and  C_30
   11  A    between atoms: C_28  and  C_31
   12  A    between atoms: C_30  and  C_33
                            x       y       z     vdW  Elec       q    Type
                         _______ _______ _______ _____ _____    ______ ____

>  <TORSDO>
F 12

$$$$
=
 OpenBabel11052409403D

 38 41  0  0  1  0  0  0  0  0999 V2000
  157.8570  212.7690  153.1990 C   0  0  0  0  0  2  0  0  0  0  0  0
  157.4080  213.3280  150.7930 C   0  0  1  0  0  3  0  0  0  0  0  0
  158.8330  214.3860  143.0680 C   0  0  0  0  0  1  0  0  0  0  0  0
  157.2390  213.3930  148.2940 O   0  0  0  0  0  0  0  0  0  0  0  0
  158.5320  214.2940  144.4880 N   0  0  0  0  0  0  0  0  0  0  0  0
  157.1550  214.4390  144.9440 C   0  0  0  0  0  2  0  0  0  0  0  0
  157.7990  213.0770  147.0220 C   0  0  1  0  0  3  0  0  0  0  0  0
  161.2130  214.4520  147.7890 O   0  0  0  0  0  1  0  0  0  0  0  0
  159.9230  213.9420  147.9210 C   0  0  0  0  0  0  0  0  0  0  0  0
  159.3790  213.6900  149.2770 C   0  0  0  0  0  0  0  0  0  0  0  0
  160.7770  214.2060  145.1440 O   0  0  0  0  0  0  0  0  0  0  0  0
  158.3610  213.5330  151.9840 C   0  0  2  0  0  3  0  0  0  0  0  0
  156.7860  213.2890  145.8830 C   0  0  0  0  0  2  0  0  0  0  0  0
  159.5610  214.0880  145.4620 C   0  0  0  0  0  0  0  0  0  0  0  0
  160.2910  213.8330  150.4640 C   0  0  0  0  0  2  0  0  0  0  0  0
  156.2180  214.2640  150.9140 C   0  0  0  0  0  1  0  0  0  0  0  0
  158.0520  213.4890  149.4330 C   0  0  0  0  0  0  0  0  0  0  0  0
  159.7650  213.0470  151.6550 C   0  0  0  0  0  2  0  0  0  0  0  0
  159.1530  213.7280  146.8360 C   0  0  0  0  0  0  0  0  0  0  0  0
  159.0050  212.4220  154.1330 C   0  0  2  0  0  3  0  0  0  0  0  0
  160.4300  210.3310  154.1920 C   0  0  0  0  0  0  0  0  0  0  0  0
  161.4900  211.0040  154.0790 O   0  0  0  0  0  0  0  0  0  0  0  0
  159.1550  210.9750  154.1970 N   0  0  0  0  0  2  0  0  0  0  0  0
  160.5060  208.8550  154.3530 C   0  0  0  0  0  2  0  0  0  0  0  0
  161.3380  208.2710  153.2650 C   0  0  0  0  0  3  0  0  0  0  0  0
  160.7760  207.4920  152.3440 C   0  0  0  0  0  3  0  0  0  0  0  0
  161.5880  206.8910  151.2350 C   0  0  1  0  0  3  0  0  0  0  0  0
  161.2460  205.4070  151.1290 C   0  0  0  0  0  2  0  0  0  0  0  0
  161.4930  204.7120  152.4550 C   0  0  0  0  0  1  0  0  0  0  0  0
  161.2880  207.6090  149.9090 C   0  0  1  0  0  3  0  0  0  0  0  0
  162.0650  208.8220  149.7780 N   0  0  0  0  0  0  0  0  0  0  0  0
  162.1750  209.3750  148.7250 O   0  0  0  0  0  0  0  0  0  0  0  0
  161.1280  207.0320  147.6210 O   0  0  0  0  0  0  0  0  0  0  0  0
  161.5330  206.7150  148.7280 C   0  0  0  0  0  3  0  0  0  0  0  0
  158.7310  212.9230  155.4090 O   0  0  0  0  0  0  0  0  0  0  0  0
  157.4180  212.5290  155.6750 C   0  0  0  0  0  3  0  0  0  0  0  0
  157.2090  212.4710  157.1750 C   0  0  0  0  0  2  0  0  0  0  0  0
  156.6970  213.6570  156.3860 C   0  0  0  0  0  2  0  0  0  0  0  0
  2 16  1  1  0  0  0
  2 12  1  0  0  0  0
  3  5  1  0  0  0  0
  4 17  1  0  0  0  0
  5  6  1  0  0  0  0
  5 14  1  0  0  0  0
  6 13  1  0  0  0  0
  7 13  1  6  0  0  0
  7  4  1  0  0  0  0
  8  9  1  0  0  0  0
  9 10  1  0  0  0  0
 10 17  2  0  0  0  0
 10 15  1  0  0  0  0
 11 14  2  0  0  0  0
 12  1  1  1  0  0  0
 14 19  1  0  0  0  0
 15 18  1  0  0  0  0
 17  2  1  0  0  0  0
 18 12  1  0  0  0  0
 19  7  1  0  0  0  0
 19  9  2  0  0  0  0
 20  1  1  6  0  0  0
 20 23  1  0  0  0  0
 20 35  1  0  0  0  0
 21 23  1  0  0  0  0
 21 24  1  0  0  0  0
 22 21  2  0  0  0  0
 25 24  1  0  0  0  0
 26 25  2  0  0  0  0
 27 28  1  6  0  0  0
 27 26  1  0  0  0  0
 28 29  1  0  0  0  0
 30 34  1  6  0  0  0
 30 27  1  0  0  0  0
 31 30  1  0  0  0  0
 32 31  2  0  0  0  0
 33 34  2  0  0  0  0
 35 36  1  0  0  0  0
 36 38  1  0  0  0  0
 36 37  1  0  0  0  0
 38 37  1  0  0  0  0
M  END
>  <MODEL>
9

>  <REMARK>
 VINA RESULT:      -5.6      2.419      7.466
  Name = 
  12 active torsions:
  status: ('A' for Active; 'I' for Inactive)
    1  A    between atoms: C_1  and  O_27
    2  A    between atoms: C_3  and  C_28
    3  A    between atoms: C_6  and  C_20
    4  A    between atoms: C_6  and  C_22
    5  A    between atoms: C_7  and  C_12
    6  A    between atoms: N_9  and  C_30
    7  A    between atoms: C_12  and  C_18
    8  A    between atoms: C_22  and  O_27
    9  A    between atoms: C_22  and  N_38
   10  A    between atoms: C_28  and  C_30
   11  A    between atoms: C_28  and  C_31
   12  A    between atoms: C_30  and  C_33
                            x       y       z     vdW  Elec       q    Type
                         _______ _______ _______ _____ _____    ______ ____

>  <TORSDO>
F 12

$$$$
