=
 OpenBabel11042422213D

 43 44  0  0  1  0  0  0  0  0999 V2000
  162.1670  209.0390  150.3330 C   0  0  2  0  0  3  0  0  0  0  0  0
  160.7240  209.5040  153.7210 C   0  0  1  0  0  3  0  0  0  0  0  0
  162.8190  210.1970  152.7730 O   0  0  0  0  0  1  0  0  0  0  0  0
  161.0040  207.8220  152.2370 C   0  0  0  0  0  2  0  0  0  0  0  0
  161.1290  209.1230  151.4660 C   0  0  1  0  0  3  0  0  0  0  0  0
  161.4410  210.1300  152.5400 C   0  0  1  0  0  3  0  0  0  0  0  0
  160.7360  208.1020  153.5930 O   0  0  0  0  0  0  0  0  0  0  0  0
  161.2160  209.9740  155.0930 C   0  0  0  0  0  2  0  0  0  0  0  0
  159.7360  209.4880  156.8990 O   0  0  0  0  0  1  0  0  0  0  0  0
  160.0850  210.4760  155.9780 C   0  0  2  0  0  3  0  0  0  0  0  0
  158.8840  210.8210  155.1190 C   0  0  0  0  0  2  0  0  0  0  0  0
  158.3700  212.0610  155.4930 O   0  0  0  0  0  0  0  0  0  0  0  0
  158.9240  212.9650  154.5850 C   0  0  0  0  0  1  0  0  0  0  0  0
  161.8220  209.9840  149.2190 C   0  0  0  0  0  3  0  0  0  0  0  0
  161.9760  211.3030  149.3610 C   0  0  0  0  0  3  0  0  0  0  0  0
  161.6490  212.2670  148.2530 C   0  0  2  0  0  3  0  0  0  0  0  0
  162.9410  212.9230  147.7650 C   0  0  0  0  0  2  0  0  0  0  0  0
  162.4630  213.9080  145.5920 N   0  0  0  0  0  1  0  0  0  0  0  0
  162.6530  214.2040  147.0000 C   0  0  0  0  0  2  0  0  0  0  0  0
  160.6070  213.3140  148.6940 C   0  0  1  0  0  3  0  0  0  0  0  0
  158.3600  214.2540  148.0270 N   0  0  0  0  0  1  0  0  0  0  0  0
  159.3880  213.2940  147.8210 C   0  0  0  0  0  0  0  0  0  0  0  0
  159.2660  212.4340  146.9090 O   0  0  0  0  0  0  0  0  0  0  0  0
  160.1960  213.1150  150.1500 C   0  0  0  0  0  2  0  0  0  0  0  0
  160.3380  214.3130  150.8510 O   0  0  0  0  0  1  0  0  0  0  0  0
  161.6750  207.2390  148.6890 C   0  0  0  0  0  3  0  0  0  0  0  0
  162.2970  207.6340  149.8040 C   0  0  0  0  0  3  0  0  0  0  0  0
  161.8350  205.8460  148.1680 C   0  0  1  0  0  3  0  0  0  0  0  0
  160.6510  205.0120  148.5710 C   0  0  0  0  0  3  0  0  0  0  0  0
  160.9280  203.0300  150.2450 C   0  0  0  0  0  0  0  0  0  0  0  0
  160.7870  204.0200  149.4110 C   0  0  0  0  0  0  0  0  0  0  0  0
  161.4370  203.2630  151.5160 O   0  0  0  0  0  1  0  0  0  0  0  0
  160.5920  201.6440  149.8210 C   0  0  0  0  0  2  0  0  0  0  0  0
  161.5960  201.1570  148.9400 O   0  0  0  0  0  0  0  0  0  0  0  0
  160.2360  201.3050  145.4140 C   0  0  0  0  0  0  0  0  0  0  0  0
  161.6000  199.5550  147.2810 O   0  0  0  0  0  0  0  0  0  0  0  0
  161.2960  200.7220  147.6490 C   0  0  0  0  0  0  0  0  0  0  0  0
  159.5850  202.3510  144.5830 C   0  0  0  0  0  1  0  0  0  0  0  0
  160.6360  201.6210  146.7530 N   0  0  0  0  0  2  0  0  0  0  0  0
  160.4120  200.1530  144.9360 O   0  0  0  0  0  0  0  0  0  0  0  0
  161.8890  204.5820  145.9250 C   0  0  0  0  0  2  0  0  0  0  0  0
  163.3040  204.9850  146.2900 C   0  0  0  0  0  2  0  0  0  0  0  0
  162.1430  205.8920  146.6530 C   0  0  0  0  0  3  0  0  0  0  0  0
  1 14  1  6  0  0  0
  2  8  1  1  0  0  0
  4  7  1  0  0  0  0
  5  1  1  6  0  0  0
  5  4  1  0  0  0  0
  5  6  1  0  0  0  0
  6  3  1  1  0  0  0
  6  2  1  0  0  0  0
  7  2  1  0  0  0  0
  8 10  1  0  0  0  0
 10  9  1  1  0  0  0
 11 12  1  0  0  0  0
 11 10  1  0  0  0  0
 13 12  1  0  0  0  0
 14 15  2  0  0  0  0
 16 17  1  1  0  0  0
 16 20  1  0  0  0  0
 16 15  1  0  0  0  0
 18 19  1  0  0  0  0
 19 17  1  0  0  0  0
 20 24  1  1  0  0  0
 22 21  1  0  0  0  0
 22 20  1  0  0  0  0
 23 22  2  0  0  0  0
 24 25  1  0  0  0  0
 26 27  2  0  0  0  0
 27  1  1  0  0  0  0
 28 29  1  6  0  0  0
 28 26  1  0  0  0  0
 29 31  2  0  0  0  0
 30 32  1  0  0  0  0
 31 30  2  0  0  0  0
 33 30  1  0  0  0  0
 34 33  1  0  0  0  0
 35 39  1  0  0  0  0
 36 37  2  0  0  0  0
 37 34  1  0  0  0  0
 38 35  1  0  0  0  0
 39 37  1  0  0  0  0
 40 35  2  0  0  0  0
 41 42  1  0  0  0  0
 41 43  1  0  0  0  0
 42 43  1  0  0  0  0
 43 28  1  0  0  0  0
M  END
>  <MODEL>
1

>  <REMARK>
 VINA RESULT:      -6.8      0.000      0.000
  Name = 
  19 active torsions:
  status: ('A' for Active; 'I' for Inactive)
    1  A    between atoms: C_1  and  C_36
    2  A    between atoms: C_2  and  C_18
    3  A    between atoms: C_2  and  O_31
    4  A    between atoms: O_3  and  C_11
    5  A    between atoms: C_7  and  C_20
    6  A    between atoms: C_7  and  C_33
    7  A    between atoms: C_7  and  C_35
    8  A    between atoms: C_9  and  C_29
    9  A    between atoms: C_11  and  C_32
   10  A    between atoms: C_12  and  C_27
   11  A    between atoms: C_14  and  C_15
   12  A    between atoms: C_14  and  C_24
   13  A    between atoms: C_15  and  C_29
   14  A    between atoms: C_15  and  C_40
   15  A    between atoms: C_16  and  C_27
   16  A    between atoms: C_19  and  O_31
   17  A    between atoms: C_27  and  C_43
   18  A    between atoms: C_28  and  C_29
   19  A    between atoms: C_32  and  C_36
                            x       y       z     vdW  Elec       q    Type
                         _______ _______ _______ _____ _____    ______ ____

>  <TORSDO>
F 19

$$$$
=
 OpenBabel11042422213D

 43 44  0  0  1  0  0  0  0  0999 V2000
  161.1590  208.3180  151.4190 C   0  0  2  0  0  3  0  0  0  0  0  0
  162.4700  210.8420  149.0330 C   0  0  1  0  0  3  0  0  0  0  0  0
  161.0100  211.0490  150.9280 O   0  0  0  0  0  1  0  0  0  0  0  0
  161.5020  208.8010  148.9470 C   0  0  0  0  0  2  0  0  0  0  0  0
  162.0510  208.9750  150.3510 C   0  0  1  0  0  3  0  0  0  0  0  0
  162.2000  210.4680  150.4780 C   0  0  1  0  0  3  0  0  0  0  0  0
  161.8000  209.9450  148.1790 O   0  0  0  0  0  0  0  0  0  0  0  0
  162.1900  212.3070  148.6860 C   0  0  0  0  0  2  0  0  0  0  0  0
  162.2060  212.8440  146.3620 O   0  0  0  0  0  1  0  0  0  0  0  0
  161.3730  212.4580  147.4120 C   0  0  2  0  0  3  0  0  0  0  0  0
  160.2960  213.5050  147.6220 C   0  0  0  0  0  2  0  0  0  0  0  0
  159.0360  212.9120  147.5660 O   0  0  0  0  0  0  0  0  0  0  0  0
  158.8970  212.4950  146.2410 C   0  0  0  0  0  1  0  0  0  0  0  0
  161.5300  208.7940  152.7940 C   0  0  0  0  0  3  0  0  0  0  0  0
  160.5970  209.2040  153.6560 C   0  0  0  0  0  3  0  0  0  0  0  0
  160.9450  209.6730  155.0430 C   0  0  2  0  0  3  0  0  0  0  0  0
  160.0040  209.0050  156.0460 C   0  0  0  0  0  2  0  0  0  0  0  0
  160.0820  206.8280  157.1290 N   0  0  0  0  0  1  0  0  0  0  0  0
  160.7680  208.1000  156.9980 C   0  0  0  0  0  2  0  0  0  0  0  0
  160.9040  211.2100  155.1550 C   0  0  1  0  0  3  0  0  0  0  0  0
  158.4030  211.5070  154.9820 N   0  0  0  0  0  1  0  0  0  0  0  0
  159.7000  211.7900  154.4760 C   0  0  0  0  0  0  0  0  0  0  0  0
  159.8280  212.5240  153.4600 O   0  0  0  0  0  0  0  0  0  0  0  0
  160.9390  211.6650  156.6110 C   0  0  0  0  0  2  0  0  0  0  0  0
  162.2170  211.4750  157.1390 O   0  0  0  0  0  1  0  0  0  0  0  0
  160.5340  206.1150  150.4490 C   0  0  0  0  0  3  0  0  0  0  0  0
  161.2300  206.8150  151.3500 C   0  0  0  0  0  3  0  0  0  0  0  0
  160.6360  204.6240  150.3830 C   0  0  1  0  0  3  0  0  0  0  0  0
  160.9400  204.1970  148.9740 C   0  0  0  0  0  3  0  0  0  0  0  0
  161.6340  205.9500  147.1710 C   0  0  0  0  0  0  0  0  0  0  0  0
  161.2890  205.0730  148.0700 C   0  0  0  0  0  0  0  0  0  0  0  0
  162.7540  206.7450  147.3730 O   0  0  0  0  0  1  0  0  0  0  0  0
  160.8000  206.1370  145.9530 C   0  0  0  0  0  2  0  0  0  0  0  0
  161.2050  205.2150  144.9490 O   0  0  0  0  0  0  0  0  0  0  0  0
  160.6320  201.5490  145.6780 C   0  0  0  0  0  0  0  0  0  0  0  0
  159.7250  203.7270  143.9920 O   0  0  0  0  0  0  0  0  0  0  0  0
  160.6340  203.9470  144.8390 C   0  0  0  0  0  0  0  0  0  0  0  0
  161.1830  200.5730  146.6540 C   0  0  0  0  0  1  0  0  0  0  0  0
  161.0980  202.9020  145.6990 N   0  0  0  0  0  2  0  0  0  0  0  0
  159.7750  201.1670  144.8360 O   0  0  0  0  0  0  0  0  0  0  0  0
  161.5500  202.6280  151.7280 C   0  0  0  0  0  2  0  0  0  0  0  0
  160.8870  203.5970  152.6870 C   0  0  0  0  0  2  0  0  0  0  0  0
  161.6200  204.1230  151.4660 C   0  0  0  0  0  3  0  0  0  0  0  0
  1 27  1  1  0  0  0
  1 14  1  0  0  0  0
  2  8  1  1  0  0  0
  2  6  1  0  0  0  0
  4  5  1  0  0  0  0
  5  6  1  0  0  0  0
  5  1  1  1  0  0  0
  6  3  1  6  0  0  0
  7  4  1  0  0  0  0
  7  2  1  0  0  0  0
 10  9  1  6  0  0  0
 10 11  1  0  0  0  0
 10  8  1  0  0  0  0
 12 11  1  0  0  0  0
 13 12  1  0  0  0  0
 14 15  2  0  0  0  0
 16 15  1  6  0  0  0
 16 20  1  0  0  0  0
 16 17  1  0  0  0  0
 17 19  1  0  0  0  0
 19 18  1  0  0  0  0
 20 24  1  1  0  0  0
 22 21  1  0  0  0  0
 22 20  1  0  0  0  0
 23 22  2  0  0  0  0
 24 25  1  0  0  0  0
 26 27  2  0  0  0  0
 28 29  1  6  0  0  0
 28 26  1  0  0  0  0
 28 43  1  0  0  0  0
 30 32  1  0  0  0  0
 30 31  2  0  0  0  0
 31 29  2  0  0  0  0
 33 30  1  0  0  0  0
 34 33  1  0  0  0  0
 35 39  1  0  0  0  0
 35 38  1  0  0  0  0
 36 37  2  0  0  0  0
 37 34  1  0  0  0  0
 37 39  1  0  0  0  0
 40 35  2  0  0  0  0
 41 42  1  0  0  0  0
 43 41  1  0  0  0  0
 43 42  1  0  0  0  0
M  END
>  <MODEL>
2

>  <REMARK>
 VINA RESULT:      -6.5      2.937      6.219
  Name = 
  19 active torsions:
  status: ('A' for Active; 'I' for Inactive)
    1  A    between atoms: C_1  and  C_36
    2  A    between atoms: C_2  and  C_18
    3  A    between atoms: C_2  and  O_31
    4  A    between atoms: O_3  and  C_11
    5  A    between atoms: C_7  and  C_20
    6  A    between atoms: C_7  and  C_33
    7  A    between atoms: C_7  and  C_35
    8  A    between atoms: C_9  and  C_29
    9  A    between atoms: C_11  and  C_32
   10  A    between atoms: C_12  and  C_27
   11  A    between atoms: C_14  and  C_15
   12  A    between atoms: C_14  and  C_24
   13  A    between atoms: C_15  and  C_29
   14  A    between atoms: C_15  and  C_40
   15  A    between atoms: C_16  and  C_27
   16  A    between atoms: C_19  and  O_31
   17  A    between atoms: C_27  and  C_43
   18  A    between atoms: C_28  and  C_29
   19  A    between atoms: C_32  and  C_36
                            x       y       z     vdW  Elec       q    Type
                         _______ _______ _______ _____ _____    ______ ____

>  <TORSDO>
F 19

$$$$
=
 OpenBabel11042422213D

 43 44  0  0  1  0  0  0  0  0999 V2000
  161.2440  208.6960  151.4320 C   0  0  2  0  0  3  0  0  0  0  0  0
  162.5440  211.0590  148.8820 C   0  0  1  0  0  3  0  0  0  0  0  0
  160.8640  211.3130  150.5800 O   0  0  0  0  0  1  0  0  0  0  0  0
  161.8130  208.9220  148.9660 C   0  0  0  0  0  2  0  0  0  0  0  0
  162.1770  209.3240  150.3830 C   0  0  1  0  0  3  0  0  0  0  0  0
  162.1530  210.8290  150.3300 C   0  0  1  0  0  3  0  0  0  0  0  0
  162.0740  209.9950  148.0890 O   0  0  0  0  0  0  0  0  0  0  0  0
  162.1520  212.4300  148.3220 C   0  0  0  0  0  2  0  0  0  0  0  0
  161.8360  212.9310  146.0130 O   0  0  0  0  0  1  0  0  0  0  0  0
  161.2330  212.3250  147.1150 C   0  0  2  0  0  3  0  0  0  0  0  0
  159.9160  213.0120  147.4200 C   0  0  0  0  0  2  0  0  0  0  0  0
  159.0350  212.8500  146.3510 O   0  0  0  0  0  0  0  0  0  0  0  0
  157.7790  212.7050  146.9440 C   0  0  0  0  0  1  0  0  0  0  0  0
  161.5560  209.2150  152.8060 C   0  0  0  0  0  3  0  0  0  0  0  0
  160.5810  209.5830  153.6410 C   0  0  0  0  0  3  0  0  0  0  0  0
  160.8700  210.0930  155.0270 C   0  0  2  0  0  3  0  0  0  0  0  0
  160.1190  209.2330  156.0430 C   0  0  0  0  0  2  0  0  0  0  0  0
  160.0640  206.9550  156.8940 N   0  0  0  0  0  1  0  0  0  0  0  0
  160.2210  207.7570  155.6950 C   0  0  0  0  0  2  0  0  0  0  0  0
  160.5200  211.5880  155.1720 C   0  0  1  0  0  3  0  0  0  0  0  0
  159.3820  212.8710  153.3180 N   0  0  0  0  0  1  0  0  0  0  0  0
  159.2880  211.9520  154.3980 C   0  0  0  0  0  0  0  0  0  0  0  0
  158.1710  211.4540  154.6990 O   0  0  0  0  0  0  0  0  0  0  0  0
  160.3400  211.9810  156.6350 C   0  0  0  0  0  2  0  0  0  0  0  0
  159.6370  213.1830  156.7210 O   0  0  0  0  0  1  0  0  0  0  0  0
  160.4580  206.4480  150.7170 C   0  0  0  0  0  3  0  0  0  0  0  0
  161.3230  207.1910  151.4130 C   0  0  0  0  0  3  0  0  0  0  0  0
  160.5670  204.9560  150.6920 C   0  0  1  0  0  3  0  0  0  0  0  0
  160.7030  204.4780  149.2730 C   0  0  0  0  0  3  0  0  0  0  0  0
  160.3680  201.9600  148.6800 C   0  0  0  0  0  0  0  0  0  0  0  0
  160.5340  203.2180  148.9730 C   0  0  0  0  0  0  0  0  0  0  0  0
  159.1660  201.3320  148.9770 O   0  0  0  0  0  1  0  0  0  0  0  0
  161.4830  201.1830  148.0730 C   0  0  0  0  0  2  0  0  0  0  0  0
  161.1990  200.9260  146.7040 O   0  0  0  0  0  0  0  0  0  0  0  0
  161.3000  204.3400  145.0810 C   0  0  0  0  0  0  0  0  0  0  0  0
  159.9530  201.7750  144.9590 O   0  0  0  0  0  0  0  0  0  0  0  0
  160.8610  201.9480  145.8170 C   0  0  0  0  0  0  0  0  0  0  0  0
  162.1280  205.5620  145.2560 C   0  0  0  0  0  1  0  0  0  0  0  0
  161.5590  203.1940  145.8990 N   0  0  0  0  0  2  0  0  0  0  0  0
  160.3730  204.3360  144.2280 O   0  0  0  0  0  0  0  0  0  0  0  0
  161.3830  203.1970  152.3870 C   0  0  0  0  0  2  0  0  0  0  0  0
  161.2040  204.5200  153.1070 C   0  0  0  0  0  2  0  0  0  0  0  0
  161.6800  204.5020  151.6660 C   0  0  0  0  0  3  0  0  0  0  0  0
  1 27  1  1  0  0  0
  1 14  1  0  0  0  0
  2  8  1  6  0  0  0
  2  6  1  0  0  0  0
  4  5  1  0  0  0  0
  5  1  1  1  0  0  0
  6  5  1  0  0  0  0
  6  3  1  6  0  0  0
  7  2  1  0  0  0  0
  7  4  1  0  0  0  0
 10  9  1  6  0  0  0
 10 11  1  0  0  0  0
 10  8  1  0  0  0  0
 12 13  1  0  0  0  0
 12 11  1  0  0  0  0
 14 15  2  0  0  0  0
 16 15  1  6  0  0  0
 16 20  1  0  0  0  0
 16 17  1  0  0  0  0
 19 17  1  0  0  0  0
 19 18  1  0  0  0  0
 20 24  1  1  0  0  0
 21 22  1  0  0  0  0
 22 23  2  0  0  0  0
 22 20  1  0  0  0  0
 24 25  1  0  0  0  0
 26 27  2  0  0  0  0
 28 29  1  6  0  0  0
 28 26  1  0  0  0  0
 28 43  1  0  0  0  0
 30 31  2  0  0  0  0
 30 32  1  0  0  0  0
 31 29  2  0  0  0  0
 33 30  1  0  0  0  0
 34 33  1  0  0  0  0
 35 38  1  0  0  0  0
 35 39  1  0  0  0  0
 36 37  2  0  0  0  0
 37 39  1  0  0  0  0
 37 34  1  0  0  0  0
 40 35  2  0  0  0  0
 41 42  1  0  0  0  0
 43 41  1  0  0  0  0
 43 42  1  0  0  0  0
M  END
>  <MODEL>
3

>  <REMARK>
 VINA RESULT:      -6.3      2.610      6.030
  Name = 
  19 active torsions:
  status: ('A' for Active; 'I' for Inactive)
    1  A    between atoms: C_1  and  C_36
    2  A    between atoms: C_2  and  C_18
    3  A    between atoms: C_2  and  O_31
    4  A    between atoms: O_3  and  C_11
    5  A    between atoms: C_7  and  C_20
    6  A    between atoms: C_7  and  C_33
    7  A    between atoms: C_7  and  C_35
    8  A    between atoms: C_9  and  C_29
    9  A    between atoms: C_11  and  C_32
   10  A    between atoms: C_12  and  C_27
   11  A    between atoms: C_14  and  C_15
   12  A    between atoms: C_14  and  C_24
   13  A    between atoms: C_15  and  C_29
   14  A    between atoms: C_15  and  C_40
   15  A    between atoms: C_16  and  C_27
   16  A    between atoms: C_19  and  O_31
   17  A    between atoms: C_27  and  C_43
   18  A    between atoms: C_28  and  C_29
   19  A    between atoms: C_32  and  C_36
                            x       y       z     vdW  Elec       q    Type
                         _______ _______ _______ _____ _____    ______ ____

>  <TORSDO>
F 19

$$$$
=
 OpenBabel11042422213D

 43 44  0  0  1  0  0  0  0  0999 V2000
  161.4500  210.4890  150.0710 C   0  0  2  0  0  3  0  0  0  0  0  0
  162.3380  213.4400  148.0020 C   0  0  1  0  0  3  0  0  0  0  0  0
  160.2200  212.4210  148.4980 O   0  0  0  0  0  1  0  0  0  0  0  0
  163.0340  211.3040  148.2590 C   0  0  0  0  0  2  0  0  0  0  0  0
  162.2550  211.6730  149.5080 C   0  0  1  0  0  3  0  0  0  0  0  0
  161.4270  212.8490  149.0620 C   0  0  1  0  0  3  0  0  0  0  0  0
  163.0790  212.4120  147.3870 O   0  0  0  0  0  0  0  0  0  0  0  0
  161.6380  214.3480  146.9880 C   0  0  0  0  0  2  0  0  0  0  0  0
  162.6310  214.4490  144.8220 O   0  0  0  0  0  1  0  0  0  0  0  0
  161.6680  213.7800  145.5770 C   0  0  2  0  0  3  0  0  0  0  0  0
  160.3050  213.9480  144.9330 C   0  0  0  0  0  2  0  0  0  0  0  0
  159.5890  212.7550  145.0120 O   0  0  0  0  0  0  0  0  0  0  0  0
  159.8830  212.0840  143.8240 C   0  0  0  0  0  1  0  0  0  0  0  0
  161.5500  210.4360  151.5680 C   0  0  0  0  0  3  0  0  0  0  0  0
  160.6510  211.0510  152.3410 C   0  0  0  0  0  3  0  0  0  0  0  0
  160.7250  211.0000  153.8430 C   0  0  2  0  0  3  0  0  0  0  0  0
  161.4200  209.7060  154.2640 C   0  0  0  0  0  2  0  0  0  0  0  0
  162.9440  210.7220  155.8660 N   0  0  0  0  0  1  0  0  0  0  0  0
  161.8620  209.7670  155.7170 C   0  0  0  0  0  2  0  0  0  0  0  0
  159.3330  211.1390  154.4900 C   0  0  1  0  0  3  0  0  0  0  0  0
  158.9460  211.5410  156.9530 N   0  0  0  0  0  1  0  0  0  0  0  0
  159.3580  212.0410  155.6880 C   0  0  0  0  0  0  0  0  0  0  0  0
  159.7370  213.2370  155.5830 O   0  0  0  0  0  0  0  0  0  0  0  0
  158.2990  211.6480  153.4890 C   0  0  0  0  0  2  0  0  0  0  0  0
  157.0870  211.8860  154.1370 O   0  0  0  0  0  1  0  0  0  0  0  0
  161.2680  208.0310  149.7350 C   0  0  0  0  0  3  0  0  0  0  0  0
  161.8980  209.1800  149.4720 C   0  0  0  0  0  3  0  0  0  0  0  0
  161.7140  206.7470  149.1120 C   0  0  1  0  0  3  0  0  0  0  0  0
  160.7470  205.6490  149.4580 C   0  0  0  0  0  3  0  0  0  0  0  0
  161.1120  204.1740  151.5790 C   0  0  0  0  0  0  0  0  0  0  0  0
  160.9270  204.9110  150.5210 C   0  0  0  0  0  0  0  0  0  0  0  0
  161.1810  204.7680  152.8320 O   0  0  0  0  0  1  0  0  0  0  0  0
  161.3000  202.7050  151.4410 C   0  0  0  0  0  2  0  0  0  0  0  0
  160.3600  202.1870  150.5080 O   0  0  0  0  0  0  0  0  0  0  0  0
  160.9700  201.6430  146.8160 C   0  0  0  0  0  0  0  0  0  0  0  0
  161.2250  200.3580  149.4030 O   0  0  0  0  0  0  0  0  0  0  0  0
  160.7610  201.5290  149.3460 C   0  0  0  0  0  0  0  0  0  0  0  0
  160.8140  202.4730  145.5930 C   0  0  0  0  0  1  0  0  0  0  0  0
  160.6320  202.2020  148.0900 N   0  0  0  0  0  2  0  0  0  0  0  0
  161.3800  200.4570  146.7120 O   0  0  0  0  0  0  0  0  0  0  0  0
  160.9400  206.3230  146.6920 C   0  0  0  0  0  2  0  0  0  0  0  0
  162.2880  205.6600  146.8940 C   0  0  0  0  0  2  0  0  0  0  0  0
  161.9740  206.9650  147.6030 C   0  0  0  0  0  3  0  0  0  0  0  0
  1 27  1  6  0  0  0
  1 14  1  0  0  0  0
  2  8  1  6  0  0  0
  2  6  1  0  0  0  0
  4  5  1  0  0  0  0
  5  1  1  6  0  0  0
  6  3  1  6  0  0  0
  6  5  1  0  0  0  0
  7  2  1  0  0  0  0
  7  4  1  0  0  0  0
 10  9  1  6  0  0  0
 10  8  1  0  0  0  0
 11 12  1  0  0  0  0
 11 10  1  0  0  0  0
 13 12  1  0  0  0  0
 14 15  2  0  0  0  0
 16 15  1  6  0  0  0
 16 17  1  0  0  0  0
 16 20  1  0  0  0  0
 17 19  1  0  0  0  0
 19 18  1  0  0  0  0
 20 24  1  6  0  0  0
 20 22  1  0  0  0  0
 22 21  1  0  0  0  0
 23 22  2  0  0  0  0
 24 25  1  0  0  0  0
 27 26  2  0  0  0  0
 28 29  1  6  0  0  0
 28 26  1  0  0  0  0
 29 31  2  0  0  0  0
 30 32  1  0  0  0  0
 31 30  2  0  0  0  0
 33 30  1  0  0  0  0
 34 33  1  0  0  0  0
 35 39  1  0  0  0  0
 37 36  2  0  0  0  0
 37 34  1  0  0  0  0
 38 35  1  0  0  0  0
 39 37  1  0  0  0  0
 40 35  2  0  0  0  0
 41 42  1  0  0  0  0
 41 43  1  0  0  0  0
 42 43  1  0  0  0  0
 43 28  1  0  0  0  0
M  END
>  <MODEL>
4

>  <REMARK>
 VINA RESULT:      -6.1      2.792      6.143
  Name = 
  19 active torsions:
  status: ('A' for Active; 'I' for Inactive)
    1  A    between atoms: C_1  and  C_36
    2  A    between atoms: C_2  and  C_18
    3  A    between atoms: C_2  and  O_31
    4  A    between atoms: O_3  and  C_11
    5  A    between atoms: C_7  and  C_20
    6  A    between atoms: C_7  and  C_33
    7  A    between atoms: C_7  and  C_35
    8  A    between atoms: C_9  and  C_29
    9  A    between atoms: C_11  and  C_32
   10  A    between atoms: C_12  and  C_27
   11  A    between atoms: C_14  and  C_15
   12  A    between atoms: C_14  and  C_24
   13  A    between atoms: C_15  and  C_29
   14  A    between atoms: C_15  and  C_40
   15  A    between atoms: C_16  and  C_27
   16  A    between atoms: C_19  and  O_31
   17  A    between atoms: C_27  and  C_43
   18  A    between atoms: C_28  and  C_29
   19  A    between atoms: C_32  and  C_36
                            x       y       z     vdW  Elec       q    Type
                         _______ _______ _______ _____ _____    ______ ____

>  <TORSDO>
F 19

$$$$
=
 OpenBabel11042422213D

 43 44  0  0  1  0  0  0  0  0999 V2000
  162.0590  209.3430  151.0030 C   0  0  2  0  0  3  0  0  0  0  0  0
  160.9430  205.8700  150.3160 C   0  0  1  0  0  3  0  0  0  0  0  0
  162.8430  206.7260  151.5110 O   0  0  0  0  0  1  0  0  0  0  0  0
  161.2370  207.7930  149.1640 C   0  0  0  0  0  2  0  0  0  0  0  0
  161.1440  208.1630  150.6330 C   0  0  1  0  0  3  0  0  0  0  0  0
  161.4620  206.8690  151.3340 C   0  0  1  0  0  3  0  0  0  0  0  0
  161.0870  206.3990  149.0190 O   0  0  0  0  0  0  0  0  0  0  0  0
  161.5270  204.4600  150.4450 C   0  0  0  0  0  2  0  0  0  0  0  0
  160.7430  203.4480  152.4570 O   0  0  0  0  0  1  0  0  0  0  0  0
  160.5490  203.4800  151.0770 C   0  0  2  0  0  3  0  0  0  0  0  0
  160.7710  202.0980  150.4950 C   0  0  0  0  0  2  0  0  0  0  0  0
  160.2290  202.0260  149.2130 O   0  0  0  0  0  0  0  0  0  0  0  0
  161.0760  201.1640  148.5160 C   0  0  0  0  0  1  0  0  0  0  0  0
  161.5970  210.0020  152.2710 C   0  0  0  0  0  3  0  0  0  0  0  0
  160.5060  209.5750  152.9120 C   0  0  0  0  0  3  0  0  0  0  0  0
  160.0330  210.2130  154.1900 C   0  0  2  0  0  3  0  0  0  0  0  0
  160.3400  211.7090  154.1450 C   0  0  0  0  0  2  0  0  0  0  0  0
  157.9380  211.7820  153.7670 N   0  0  0  0  0  1  0  0  0  0  0  0
  159.0710  212.5350  154.2720 C   0  0  0  0  0  2  0  0  0  0  0  0
  160.6540  209.5380  155.4300 C   0  0  1  0  0  3  0  0  0  0  0  0
  159.5020  207.3300  155.8440 N   0  0  0  0  0  1  0  0  0  0  0  0
  160.6200  208.0420  155.3310 C   0  0  0  0  0  0  0  0  0  0  0  0
  161.5730  207.4120  154.8010 O   0  0  0  0  0  0  0  0  0  0  0  0
  162.0900  210.0030  155.6590 C   0  0  0  0  0  2  0  0  0  0  0  0
  162.2170  210.5400  156.9400 O   0  0  0  0  0  1  0  0  0  0  0  0
  161.5210  211.5380  149.9640 C   0  0  0  0  0  3  0  0  0  0  0  0
  162.1360  210.3540  149.8880 C   0  0  0  0  0  3  0  0  0  0  0  0
  161.6300  212.5360  148.8550 C   0  0  1  0  0  3  0  0  0  0  0  0
  161.2140  211.9040  147.5570 C   0  0  0  0  0  3  0  0  0  0  0  0
  161.2280  213.2810  145.3410 C   0  0  0  0  0  0  0  0  0  0  0  0
  161.2220  212.5910  146.4450 C   0  0  0  0  0  0  0  0  0  0  0  0
  162.4060  213.8680  144.8980 O   0  0  0  0  0  1  0  0  0  0  0  0
  159.9650  213.4840  144.5810 C   0  0  0  0  0  2  0  0  0  0  0  0
  159.7820  212.4140  143.6620 O   0  0  0  0  0  0  0  0  0  0  0  0
  161.4100  211.1060  140.5100 C   0  0  0  0  0  0  0  0  0  0  0  0
  160.4010  213.5300  141.7420 O   0  0  0  0  0  0  0  0  0  0  0  0
  160.3260  212.4440  142.3790 C   0  0  0  0  0  0  0  0  0  0  0  0
  161.8270  209.7660  140.0210 C   0  0  0  0  0  1  0  0  0  0  0  0
  160.8000  211.2240  141.7990 N   0  0  0  0  0  2  0  0  0  0  0  0
  161.6150  212.1200  139.7900 O   0  0  0  0  0  0  0  0  0  0  0  0
  160.1120  213.7330  150.5570 C   0  0  0  0  0  2  0  0  0  0  0  0
  159.3720  213.6240  149.2390 C   0  0  0  0  0  2  0  0  0  0  0  0
  160.8760  213.8290  149.2470 C   0  0  0  0  0  3  0  0  0  0  0  0
  1 27  1  6  0  0  0
  1 14  1  0  0  0  0
  2  8  1  6  0  0  0
  2  6  1  0  0  0  0
  4  5  1  0  0  0  0
  5  1  1  1  0  0  0
  5  6  1  0  0  0  0
  6  3  1  6  0  0  0
  7  4  1  0  0  0  0
  7  2  1  0  0  0  0
  8 10  1  0  0  0  0
 10  9  1  1  0  0  0
 11 10  1  0  0  0  0
 12 11  1  0  0  0  0
 13 12  1  0  0  0  0
 14 15  2  0  0  0  0
 16 15  1  6  0  0  0
 16 20  1  0  0  0  0
 17 16  1  0  0  0  0
 17 19  1  0  0  0  0
 18 19  1  0  0  0  0
 20 24  1  6  0  0  0
 22 20  1  0  0  0  0
 22 21  1  0  0  0  0
 23 22  2  0  0  0  0
 24 25  1  0  0  0  0
 27 26  2  0  0  0  0
 28 29  1  6  0  0  0
 28 43  1  0  0  0  0
 28 26  1  0  0  0  0
 30 31  2  0  0  0  0
 31 29  2  0  0  0  0
 32 30  1  0  0  0  0
 33 30  1  0  0  0  0
 34 33  1  0  0  0  0
 35 39  1  0  0  0  0
 36 37  2  0  0  0  0
 37 34  1  0  0  0  0
 38 35  1  0  0  0  0
 39 37  1  0  0  0  0
 40 35  2  0  0  0  0
 42 43  1  0  0  0  0
 42 41  1  0  0  0  0
 43 41  1  0  0  0  0
M  END
>  <MODEL>
5

>  <REMARK>
 VINA RESULT:      -5.8      3.478      8.890
  Name = 
  19 active torsions:
  status: ('A' for Active; 'I' for Inactive)
    1  A    between atoms: C_1  and  C_36
    2  A    between atoms: C_2  and  C_18
    3  A    between atoms: C_2  and  O_31
    4  A    between atoms: O_3  and  C_11
    5  A    between atoms: C_7  and  C_20
    6  A    between atoms: C_7  and  C_33
    7  A    between atoms: C_7  and  C_35
    8  A    between atoms: C_9  and  C_29
    9  A    between atoms: C_11  and  C_32
   10  A    between atoms: C_12  and  C_27
   11  A    between atoms: C_14  and  C_15
   12  A    between atoms: C_14  and  C_24
   13  A    between atoms: C_15  and  C_29
   14  A    between atoms: C_15  and  C_40
   15  A    between atoms: C_16  and  C_27
   16  A    between atoms: C_19  and  O_31
   17  A    between atoms: C_27  and  C_43
   18  A    between atoms: C_28  and  C_29
   19  A    between atoms: C_32  and  C_36
                            x       y       z     vdW  Elec       q    Type
                         _______ _______ _______ _____ _____    ______ ____

>  <TORSDO>
F 19

$$$$
=
 OpenBabel11042422213D

 43 44  0  0  1  0  0  0  0  0999 V2000
  161.3590  209.4880  150.5450 C   0  0  2  0  0  3  0  0  0  0  0  0
  162.3560  206.9210  148.0570 C   0  0  1  0  0  3  0  0  0  0  0  0
  161.2060  209.0150  147.8110 O   0  0  0  0  0  1  0  0  0  0  0  0
  161.3350  206.9910  150.0720 C   0  0  0  0  0  2  0  0  0  0  0  0
  162.0950  208.2950  149.9110 C   0  0  1  0  0  3  0  0  0  0  0  0
  162.2990  208.3920  148.4230 C   0  0  1  0  0  3  0  0  0  0  0  0
  161.5410  206.1820  148.9360 O   0  0  0  0  0  0  0  0  0  0  0  0
  162.0640  206.6140  146.5850 C   0  0  0  0  0  2  0  0  0  0  0  0
  163.4760  204.7000  146.7580 O   0  0  0  0  0  1  0  0  0  0  0  0
  162.2570  205.1440  146.2450 C   0  0  2  0  0  3  0  0  0  0  0  0
  162.2390  204.9650  144.7400 C   0  0  0  0  0  2  0  0  0  0  0  0
  160.9780  205.2830  144.2360 O   0  0  0  0  0  0  0  0  0  0  0  0
  160.1930  204.1610  144.5090 C   0  0  0  0  0  1  0  0  0  0  0  0
  161.8930  210.7890  150.0170 C   0  0  0  0  0  3  0  0  0  0  0  0
  161.0690  211.7500  149.5930 C   0  0  0  0  0  3  0  0  0  0  0  0
  161.5820  213.0650  149.0720 C   0  0  2  0  0  3  0  0  0  0  0  0
  160.8770  214.2030  149.8110 C   0  0  0  0  0  2  0  0  0  0  0  0
  159.3160  214.2460  151.6770 N   0  0  0  0  0  1  0  0  0  0  0  0
  159.5140  213.7650  150.3220 C   0  0  0  0  0  2  0  0  0  0  0  0
  161.4120  213.1830  147.5450 C   0  0  1  0  0  3  0  0  0  0  0  0
  162.7800  213.2120  145.4220 N   0  0  0  0  0  1  0  0  0  0  0  0
  162.7040  212.9540  146.8180 C   0  0  0  0  0  0  0  0  0  0  0  0
  163.7200  212.5340  147.4310 O   0  0  0  0  0  0  0  0  0  0  0  0
  160.3540  212.2150  147.0240 C   0  0  0  0  0  2  0  0  0  0  0  0
  159.1330  212.8750  146.8840 O   0  0  0  0  0  1  0  0  0  0  0  0
  160.4740  208.9450  152.8050 C   0  0  0  0  0  3  0  0  0  0  0  0
  161.4490  209.4590  152.0490 C   0  0  0  0  0  3  0  0  0  0  0  0
  160.5940  208.9050  154.2960 C   0  0  1  0  0  3  0  0  0  0  0  0
  160.8310  207.4920  154.7500 C   0  0  0  0  0  3  0  0  0  0  0  0
  161.6590  205.6750  153.0690 C   0  0  0  0  0  0  0  0  0  0  0  0
  161.2480  206.5810  153.9100 C   0  0  0  0  0  0  0  0  0  0  0  0
  162.8520  205.8580  152.3840 O   0  0  0  0  0  1  0  0  0  0  0  0
  160.8260  204.4710  152.8030 C   0  0  0  0  0  2  0  0  0  0  0  0
  160.6940  204.2790  151.4010 O   0  0  0  0  0  0  0  0  0  0  0  0
  160.9630  201.7170  148.6330 C   0  0  0  0  0  0  0  0  0  0  0  0
  161.2280  202.0390  151.5020 O   0  0  0  0  0  0  0  0  0  0  0  0
  160.9200  203.0410  150.8010 C   0  0  0  0  0  0  0  0  0  0  0  0
  160.8330  201.7520  147.1530 C   0  0  0  0  0  1  0  0  0  0  0  0
  160.7940  202.9260  149.3810 N   0  0  0  0  0  2  0  0  0  0  0  0
  161.2030  200.6220  149.2080 O   0  0  0  0  0  0  0  0  0  0  0  0
  161.4630  210.4060  156.1990 C   0  0  0  0  0  2  0  0  0  0  0  0
  160.9940  211.2880  155.0600 C   0  0  0  0  0  2  0  0  0  0  0  0
  161.6370  209.9470  154.7610 C   0  0  0  0  0  3  0  0  0  0  0  0
  1 14  1  6  0  0  0
  1 27  1  0  0  0  0
  2  8  1  6  0  0  0
  2  6  1  0  0  0  0
  2  7  1  0  0  0  0
  5  4  1  0  0  0  0
  5  1  1  6  0  0  0
  6  3  1  6  0  0  0
  6  5  1  0  0  0  0
  7  4  1  0  0  0  0
 10  8  1  0  0  0  0
 10  9  1  6  0  0  0
 11 10  1  0  0  0  0
 12 13  1  0  0  0  0
 12 11  1  0  0  0  0
 15 14  2  0  0  0  0
 16 15  1  1  0  0  0
 16 17  1  0  0  0  0
 17 19  1  0  0  0  0
 19 18  1  0  0  0  0
 20 24  1  6  0  0  0
 20 16  1  0  0  0  0
 21 22  1  0  0  0  0
 22 23  2  0  0  0  0
 22 20  1  0  0  0  0
 25 24  1  0  0  0  0
 27 26  2  0  0  0  0
 28 26  1  6  0  0  0
 28 29  1  0  0  0  0
 28 43  1  0  0  0  0
 30 31  2  0  0  0  0
 31 29  2  0  0  0  0
 32 30  1  0  0  0  0
 33 30  1  0  0  0  0
 34 33  1  0  0  0  0
 35 40  2  0  0  0  0
 35 39  1  0  0  0  0
 37 34  1  0  0  0  0
 37 36  2  0  0  0  0
 38 35  1  0  0  0  0
 39 37  1  0  0  0  0
 42 41  1  0  0  0  0
 43 42  1  0  0  0  0
 43 41  1  0  0  0  0
M  END
>  <MODEL>
6

>  <REMARK>
 VINA RESULT:      -5.7      2.484      6.480
  Name = 
  19 active torsions:
  status: ('A' for Active; 'I' for Inactive)
    1  A    between atoms: C_1  and  C_36
    2  A    between atoms: C_2  and  C_18
    3  A    between atoms: C_2  and  O_31
    4  A    between atoms: O_3  and  C_11
    5  A    between atoms: C_7  and  C_20
    6  A    between atoms: C_7  and  C_33
    7  A    between atoms: C_7  and  C_35
    8  A    between atoms: C_9  and  C_29
    9  A    between atoms: C_11  and  C_32
   10  A    between atoms: C_12  and  C_27
   11  A    between atoms: C_14  and  C_15
   12  A    between atoms: C_14  and  C_24
   13  A    between atoms: C_15  and  C_29
   14  A    between atoms: C_15  and  C_40
   15  A    between atoms: C_16  and  C_27
   16  A    between atoms: C_19  and  O_31
   17  A    between atoms: C_27  and  C_43
   18  A    between atoms: C_28  and  C_29
   19  A    between atoms: C_32  and  C_36
                            x       y       z     vdW  Elec       q    Type
                         _______ _______ _______ _____ _____    ______ ____

>  <TORSDO>
F 19

$$$$
=
 OpenBabel11042422213D

 43 44  0  0  1  0  0  0  0  0999 V2000
  162.2730  209.2910  150.4090 C   0  0  2  0  0  3  0  0  0  0  0  0
  160.9870  205.8140  150.2090 C   0  0  1  0  0  3  0  0  0  0  0  0
  163.0360  206.7070  151.0880 O   0  0  0  0  0  1  0  0  0  0  0  0
  161.1990  207.6030  148.8420 C   0  0  0  0  0  2  0  0  0  0  0  0
  161.2890  208.1170  150.2670 C   0  0  1  0  0  3  0  0  0  0  0  0
  161.6490  206.8860  151.0550 C   0  0  1  0  0  3  0  0  0  0  0  0
  160.9930  206.2080  148.8570 O   0  0  0  0  0  0  0  0  0  0  0  0
  161.5410  204.4020  150.4140 C   0  0  0  0  0  2  0  0  0  0  0  0
  160.6740  203.3980  152.3960 O   0  0  0  0  0  1  0  0  0  0  0  0
  160.5130  203.4530  151.0110 C   0  0  2  0  0  3  0  0  0  0  0  0
  160.6960  202.0690  150.4190 C   0  0  0  0  0  2  0  0  0  0  0  0
  160.6940  202.1420  149.0270 O   0  0  0  0  0  0  0  0  0  0  0  0
  161.2320  200.9240  148.6060 C   0  0  0  0  0  1  0  0  0  0  0  0
  162.1850  209.9020  151.7780 C   0  0  0  0  0  3  0  0  0  0  0  0
  161.2300  209.5350  152.6360 C   0  0  0  0  0  3  0  0  0  0  0  0
  161.1310  210.1250  154.0170 C   0  0  2  0  0  3  0  0  0  0  0  0
  161.4260  209.0350  155.0470 C   0  0  0  0  0  2  0  0  0  0  0  0
  159.8790  207.3010  155.7680 N   0  0  0  0  0  1  0  0  0  0  0  0
  160.7380  207.7310  154.6800 C   0  0  0  0  0  2  0  0  0  0  0  0
  159.7600  210.7870  154.2600 C   0  0  1  0  0  3  0  0  0  0  0  0
  158.7960  210.9180  156.5900 N   0  0  0  0  0  1  0  0  0  0  0  0
  159.6830  211.4380  155.6080 C   0  0  0  0  0  0  0  0  0  0  0  0
  160.3930  212.4430  155.8770 O   0  0  0  0  0  0  0  0  0  0  0  0
  159.4350  211.8120  153.1770 C   0  0  0  0  0  2  0  0  0  0  0  0
  158.1750  211.5500  152.6380 O   0  0  0  0  0  1  0  0  0  0  0  0
  161.8930  211.6310  149.6610 C   0  0  0  0  0  3  0  0  0  0  0  0
  162.0400  210.3400  149.3520 C   0  0  0  0  0  3  0  0  0  0  0  0
  161.6850  212.6600  148.5950 C   0  0  1  0  0  3  0  0  0  0  0  0
  161.0230  212.0320  147.4010 C   0  0  0  0  0  3  0  0  0  0  0  0
  161.3430  213.0410  145.0160 C   0  0  0  0  0  0  0  0  0  0  0  0
  161.1830  212.5350  146.2060 C   0  0  0  0  0  0  0  0  0  0  0  0
  162.6180  213.1650  144.4820 O   0  0  0  0  0  1  0  0  0  0  0  0
  160.1650  213.5340  144.2520 C   0  0  0  0  0  2  0  0  0  0  0  0
  159.5650  212.4550  143.5470 O   0  0  0  0  0  0  0  0  0  0  0  0
  161.2360  211.1740  140.4060 C   0  0  0  0  0  0  0  0  0  0  0  0
  159.0150  212.7910  141.3330 O   0  0  0  0  0  0  0  0  0  0  0  0
  159.7780  212.2560  142.1830 C   0  0  0  0  0  0  0  0  0  0  0  0
  162.3870  210.2790  140.1190 C   0  0  0  0  0  1  0  0  0  0  0  0
  160.8760  211.4400  141.7660 N   0  0  0  0  0  2  0  0  0  0  0  0
  160.6060  211.6990  139.4500 O   0  0  0  0  0  0  0  0  0  0  0  0
  159.9570  213.5540  150.2820 C   0  0  0  0  0  2  0  0  0  0  0  0
  159.4810  213.8790  148.8800 C   0  0  0  0  0  2  0  0  0  0  0  0
  160.9650  213.8900  149.1960 C   0  0  0  0  0  3  0  0  0  0  0  0
  1 27  1  6  0  0  0
  1 14  1  0  0  0  0
  2  8  1  6  0  0  0
  2  6  1  0  0  0  0
  4  7  1  0  0  0  0
  4  5  1  0  0  0  0
  5  1  1  6  0  0  0
  5  6  1  0  0  0  0
  6  3  1  6  0  0  0
  7  2  1  0  0  0  0
  8 10  1  0  0  0  0
 10  9  1  1  0  0  0
 11 10  1  0  0  0  0
 12 11  1  0  0  0  0
 13 12  1  0  0  0  0
 14 15  2  0  0  0  0
 16 15  1  6  0  0  0
 16 20  1  0  0  0  0
 16 17  1  0  0  0  0
 19 17  1  0  0  0  0
 19 18  1  0  0  0  0
 20 24  1  6  0  0  0
 20 22  1  0  0  0  0
 22 23  2  0  0  0  0
 22 21  1  0  0  0  0
 25 24  1  0  0  0  0
 27 26  2  0  0  0  0
 28 29  1  6  0  0  0
 28 43  1  0  0  0  0
 28 26  1  0  0  0  0
 30 31  2  0  0  0  0
 31 29  2  0  0  0  0
 32 30  1  0  0  0  0
 33 30  1  0  0  0  0
 34 33  1  0  0  0  0
 35 39  1  0  0  0  0
 36 37  2  0  0  0  0
 37 34  1  0  0  0  0
 38 35  1  0  0  0  0
 39 37  1  0  0  0  0
 40 35  2  0  0  0  0
 42 43  1  0  0  0  0
 42 41  1  0  0  0  0
 43 41  1  0  0  0  0
M  END
>  <MODEL>
7

>  <REMARK>
 VINA RESULT:      -5.7      3.694      8.855
  Name = 
  19 active torsions:
  status: ('A' for Active; 'I' for Inactive)
    1  A    between atoms: C_1  and  C_36
    2  A    between atoms: C_2  and  C_18
    3  A    between atoms: C_2  and  O_31
    4  A    between atoms: O_3  and  C_11
    5  A    between atoms: C_7  and  C_20
    6  A    between atoms: C_7  and  C_33
    7  A    between atoms: C_7  and  C_35
    8  A    between atoms: C_9  and  C_29
    9  A    between atoms: C_11  and  C_32
   10  A    between atoms: C_12  and  C_27
   11  A    between atoms: C_14  and  C_15
   12  A    between atoms: C_14  and  C_24
   13  A    between atoms: C_15  and  C_29
   14  A    between atoms: C_15  and  C_40
   15  A    between atoms: C_16  and  C_27
   16  A    between atoms: C_19  and  O_31
   17  A    between atoms: C_27  and  C_43
   18  A    between atoms: C_28  and  C_29
   19  A    between atoms: C_32  and  C_36
                            x       y       z     vdW  Elec       q    Type
                         _______ _______ _______ _____ _____    ______ ____

>  <TORSDO>
F 19

$$$$
=
 OpenBabel11042422213D

 43 44  0  0  1  0  0  0  0  0999 V2000
  162.0590  209.0720  149.4230 C   0  0  2  0  0  3  0  0  0  0  0  0
  161.0320  205.6500  148.4150 C   0  0  1  0  0  3  0  0  0  0  0  0
  161.6700  206.5590  150.5440 O   0  0  0  0  0  1  0  0  0  0  0  0
  162.4540  207.2520  147.6930 C   0  0  0  0  0  2  0  0  0  0  0  0
  161.4410  207.9300  148.5980 C   0  0  1  0  0  3  0  0  0  0  0  0
  160.8870  206.7880  149.4080 C   0  0  1  0  0  3  0  0  0  0  0  0
  162.1530  205.8780  147.5940 O   0  0  0  0  0  0  0  0  0  0  0  0
  161.0330  204.2510  149.0380 C   0  0  0  0  0  2  0  0  0  0  0  0
  160.9850  203.3080  146.8490 O   0  0  0  0  0  1  0  0  0  0  0  0
  161.5930  203.1950  148.0990 C   0  0  2  0  0  3  0  0  0  0  0  0
  161.3310  201.8160  148.6720 C   0  0  0  0  0  2  0  0  0  0  0  0
  160.0850  201.3530  148.2530 O   0  0  0  0  0  0  0  0  0  0  0  0
  159.3290  201.2570  149.4230 C   0  0  0  0  0  1  0  0  0  0  0  0
  161.7250  208.9230  150.8790 C   0  0  0  0  0  3  0  0  0  0  0  0
  161.8280  209.9560  151.7190 C   0  0  0  0  0  3  0  0  0  0  0  0
  161.4850  209.8310  153.1790 C   0  0  2  0  0  3  0  0  0  0  0  0
  160.6050  208.5980  153.3820 C   0  0  0  0  0  2  0  0  0  0  0  0
  160.2050  206.9340  155.1110 N   0  0  0  0  0  1  0  0  0  0  0  0
  161.2380  207.6250  154.3610 C   0  0  0  0  0  2  0  0  0  0  0  0
  160.8140  211.1090  153.7210 C   0  0  1  0  0  3  0  0  0  0  0  0
  158.5750  210.8850  154.8670 N   0  0  0  0  0  1  0  0  0  0  0  0
  159.3180  211.0250  153.6630 C   0  0  0  0  0  0  0  0  0  0  0  0
  158.7140  211.0730  152.5590 O   0  0  0  0  0  0  0  0  0  0  0  0
  161.2540  211.4100  155.1500 C   0  0  0  0  0  2  0  0  0  0  0  0
  162.4810  210.7970  155.4080 O   0  0  0  0  0  1  0  0  0  0  0  0
  162.4410  211.4700  148.8870 C   0  0  0  0  0  3  0  0  0  0  0  0
  161.6140  210.4210  148.9210 C   0  0  0  0  0  3  0  0  0  0  0  0
  161.9860  212.7950  148.3630 C   0  0  1  0  0  3  0  0  0  0  0  0
  162.1960  212.8550  146.8760 C   0  0  0  0  0  3  0  0  0  0  0  0
  160.1630  213.0470  145.2520 C   0  0  0  0  0  0  0  0  0  0  0  0
  161.1790  212.9530  146.0610 C   0  0  0  0  0  0  0  0  0  0  0  0
  159.2870  214.1190  145.3630 O   0  0  0  0  0  1  0  0  0  0  0  0
  159.9110  211.9820  144.2440 C   0  0  0  0  0  2  0  0  0  0  0  0
  160.1780  212.4830  142.9400 O   0  0  0  0  0  0  0  0  0  0  0  0
  161.6930  210.4110  140.1640 C   0  0  0  0  0  0  0  0  0  0  0  0
  162.3860  212.1960  142.3420 O   0  0  0  0  0  0  0  0  0  0  0  0
  161.1710  211.9350  142.1290 C   0  0  0  0  0  0  0  0  0  0  0  0
  161.1510  209.5640  139.0700 C   0  0  0  0  0  1  0  0  0  0  0  0
  160.7880  211.0700  141.0550 N   0  0  0  0  0  2  0  0  0  0  0  0
  162.9410  210.5220  140.3010 O   0  0  0  0  0  0  0  0  0  0  0  0
  160.3630  214.4480  149.4890 C   0  0  0  0  0  2  0  0  0  0  0  0
  160.4860  213.2160  150.3630 C   0  0  0  0  0  2  0  0  0  0  0  0
  160.5470  213.0800  148.8530 C   0  0  0  0  0  3  0  0  0  0  0  0
  1 27  1  6  0  0  0
  1 14  1  0  0  0  0
  2  8  1  1  0  0  0
  2  6  1  0  0  0  0
  4  5  1  0  0  0  0
  5  6  1  0  0  0  0
  5  1  1  1  0  0  0
  6  3  1  1  0  0  0
  7  4  1  0  0  0  0
  7  2  1  0  0  0  0
 10  9  1  6  0  0  0
 10 11  1  0  0  0  0
 10  8  1  0  0  0  0
 12 11  1  0  0  0  0
 12 13  1  0  0  0  0
 14 15  2  0  0  0  0
 16 15  1  6  0  0  0
 16 17  1  0  0  0  0
 16 20  1  0  0  0  0
 17 19  1  0  0  0  0
 19 18  1  0  0  0  0
 20 24  1  1  0  0  0
 22 20  1  0  0  0  0
 22 21  1  0  0  0  0
 23 22  2  0  0  0  0
 24 25  1  0  0  0  0
 26 27  2  0  0  0  0
 28 29  1  6  0  0  0
 28 43  1  0  0  0  0
 28 26  1  0  0  0  0
 30 32  1  0  0  0  0
 30 31  2  0  0  0  0
 31 29  2  0  0  0  0
 33 30  1  0  0  0  0
 34 33  1  0  0  0  0
 35 40  2  0  0  0  0
 35 39  1  0  0  0  0
 37 36  2  0  0  0  0
 37 34  1  0  0  0  0
 38 35  1  0  0  0  0
 39 37  1  0  0  0  0
 41 42  1  0  0  0  0
 43 41  1  0  0  0  0
 43 42  1  0  0  0  0
M  END
>  <MODEL>
8

>  <REMARK>
 VINA RESULT:      -5.7      3.697      8.898
  Name = 
  19 active torsions:
  status: ('A' for Active; 'I' for Inactive)
    1  A    between atoms: C_1  and  C_36
    2  A    between atoms: C_2  and  C_18
    3  A    between atoms: C_2  and  O_31
    4  A    between atoms: O_3  and  C_11
    5  A    between atoms: C_7  and  C_20
    6  A    between atoms: C_7  and  C_33
    7  A    between atoms: C_7  and  C_35
    8  A    between atoms: C_9  and  C_29
    9  A    between atoms: C_11  and  C_32
   10  A    between atoms: C_12  and  C_27
   11  A    between atoms: C_14  and  C_15
   12  A    between atoms: C_14  and  C_24
   13  A    between atoms: C_15  and  C_29
   14  A    between atoms: C_15  and  C_40
   15  A    between atoms: C_16  and  C_27
   16  A    between atoms: C_19  and  O_31
   17  A    between atoms: C_27  and  C_43
   18  A    between atoms: C_28  and  C_29
   19  A    between atoms: C_32  and  C_36
                            x       y       z     vdW  Elec       q    Type
                         _______ _______ _______ _____ _____    ______ ____

>  <TORSDO>
F 19

$$$$
=
 OpenBabel11042422213D

 43 44  0  0  1  0  0  0  0  0999 V2000
  161.9840  209.2300  150.5060 C   0  0  2  0  0  3  0  0  0  0  0  0
  160.7410  209.7500  153.9640 C   0  0  1  0  0  3  0  0  0  0  0  0
  162.8350  210.3010  152.9250 O   0  0  0  0  0  1  0  0  0  0  0  0
  160.8250  208.0740  152.4500 C   0  0  0  0  0  2  0  0  0  0  0  0
  161.0100  209.3740  151.6880 C   0  0  1  0  0  3  0  0  0  0  0  0
  161.4460  210.3390  152.7570 C   0  0  1  0  0  3  0  0  0  0  0  0
  160.6420  208.3530  153.8200 O   0  0  0  0  0  0  0  0  0  0  0  0
  161.3300  210.1620  155.3170 C   0  0  0  0  0  2  0  0  0  0  0  0
  159.9040  209.6120  157.1470 O   0  0  0  0  0  1  0  0  0  0  0  0
  160.2690  210.6510  156.2910 C   0  0  2  0  0  3  0  0  0  0  0  0
  159.0550  211.1300  155.5200 C   0  0  0  0  0  2  0  0  0  0  0  0
  158.1340  211.7100  156.3910 O   0  0  0  0  0  0  0  0  0  0  0  0
  156.9120  211.6340  155.7200 C   0  0  0  0  0  1  0  0  0  0  0  0
  161.5600  210.0950  149.3540 C   0  0  0  0  0  3  0  0  0  0  0  0
  161.4330  211.4170  149.4950 C   0  0  0  0  0  3  0  0  0  0  0  0
  161.0220  212.3040  148.3510 C   0  0  2  0  0  3  0  0  0  0  0  0
  162.2730  212.9210  147.7250 C   0  0  0  0  0  2  0  0  0  0  0  0
  160.9840  212.9130  145.6610 N   0  0  0  0  0  1  0  0  0  0  0  0
  161.9340  213.6750  146.4500 C   0  0  0  0  0  2  0  0  0  0  0  0
  160.0120  213.3810  148.7950 C   0  0  1  0  0  3  0  0  0  0  0  0
  158.5190  214.3330  146.9950 N   0  0  0  0  0  1  0  0  0  0  0  0
  158.7530  213.3380  147.9820 C   0  0  0  0  0  0  0  0  0  0  0  0
  157.9000  212.4300  148.1690 O   0  0  0  0  0  0  0  0  0  0  0  0
  159.6700  213.2500  150.2760 C   0  0  0  0  0  2  0  0  0  0  0  0
  158.5740  214.0560  150.5840 O   0  0  0  0  0  1  0  0  0  0  0  0
  161.0760  207.1240  149.5460 C   0  0  0  0  0  3  0  0  0  0  0  0
  162.1090  207.7950  150.0630 C   0  0  0  0  0  3  0  0  0  0  0  0
  161.2260  205.7070  149.0900 C   0  0  1  0  0  3  0  0  0  0  0  0
  162.0490  205.6600  147.8330 C   0  0  0  0  0  3  0  0  0  0  0  0
  160.9050  205.4000  145.5030 C   0  0  0  0  0  0  0  0  0  0  0  0
  161.4780  205.5310  146.6650 C   0  0  0  0  0  0  0  0  0  0  0  0
  159.9700  206.3360  145.0820 O   0  0  0  0  0  1  0  0  0  0  0  0
  161.2130  204.2210  144.6490 C   0  0  0  0  0  2  0  0  0  0  0  0
  160.3470  203.1450  144.9870 O   0  0  0  0  0  0  0  0  0  0  0  0
  161.2150  199.6110  146.0170 C   0  0  0  0  0  0  0  0  0  0  0  0
  161.0420  202.3240  147.0270 O   0  0  0  0  0  0  0  0  0  0  0  0
  160.7560  202.1030  145.8190 C   0  0  0  0  0  0  0  0  0  0  0  0
  161.2950  198.3030  145.3170 C   0  0  0  0  0  1  0  0  0  0  0  0
  160.8430  200.7800  145.2790 N   0  0  0  0  0  2  0  0  0  0  0  0
  161.4590  199.6690  147.2510 O   0  0  0  0  0  0  0  0  0  0  0  0
  161.0570  203.4820  150.3770 C   0  0  0  0  0  2  0  0  0  0  0  0
  160.6560  204.6120  151.3050 C   0  0  0  0  0  2  0  0  0  0  0  0
  161.7360  204.8370  150.2630 C   0  0  0  0  0  3  0  0  0  0  0  0
  1 14  1  6  0  0  0
  2  8  1  1  0  0  0
  4  7  1  0  0  0  0
  5  1  1  6  0  0  0
  5  4  1  0  0  0  0
  5  6  1  0  0  0  0
  6  3  1  1  0  0  0
  6  2  1  0  0  0  0
  7  2  1  0  0  0  0
  8 10  1  0  0  0  0
 10  9  1  1  0  0  0
 11 10  1  0  0  0  0
 11 12  1  0  0  0  0
 13 12  1  0  0  0  0
 14 15  2  0  0  0  0
 16 17  1  1  0  0  0
 16 20  1  0  0  0  0
 16 15  1  0  0  0  0
 18 19  1  0  0  0  0
 19 17  1  0  0  0  0
 20 24  1  1  0  0  0
 21 22  1  0  0  0  0
 22 23  2  0  0  0  0
 22 20  1  0  0  0  0
 24 25  1  0  0  0  0
 26 27  2  0  0  0  0
 27  1  1  0  0  0  0
 28 29  1  6  0  0  0
 28 26  1  0  0  0  0
 28 43  1  0  0  0  0
 30 31  2  0  0  0  0
 31 29  2  0  0  0  0
 32 30  1  0  0  0  0
 33 34  1  0  0  0  0
 33 30  1  0  0  0  0
 34 37  1  0  0  0  0
 35 40  2  0  0  0  0
 37 36  2  0  0  0  0
 38 35  1  0  0  0  0
 39 37  1  0  0  0  0
 39 35  1  0  0  0  0
 41 42  1  0  0  0  0
 43 41  1  0  0  0  0
 43 42  1  0  0  0  0
M  END
>  <MODEL>
9

>  <REMARK>
 VINA RESULT:      -5.6      1.569      2.602
  Name = 
  19 active torsions:
  status: ('A' for Active; 'I' for Inactive)
    1  A    between atoms: C_1  and  C_36
    2  A    between atoms: C_2  and  C_18
    3  A    between atoms: C_2  and  O_31
    4  A    between atoms: O_3  and  C_11
    5  A    between atoms: C_7  and  C_20
    6  A    between atoms: C_7  and  C_33
    7  A    between atoms: C_7  and  C_35
    8  A    between atoms: C_9  and  C_29
    9  A    between atoms: C_11  and  C_32
   10  A    between atoms: C_12  and  C_27
   11  A    between atoms: C_14  and  C_15
   12  A    between atoms: C_14  and  C_24
   13  A    between atoms: C_15  and  C_29
   14  A    between atoms: C_15  and  C_40
   15  A    between atoms: C_16  and  C_27
   16  A    between atoms: C_19  and  O_31
   17  A    between atoms: C_27  and  C_43
   18  A    between atoms: C_28  and  C_29
   19  A    between atoms: C_32  and  C_36
                            x       y       z     vdW  Elec       q    Type
                         _______ _______ _______ _____ _____    ______ ____

>  <TORSDO>
F 19

$$$$
