=
 OpenBabel11052409523D

 26 29  0  0  1  0  0  0  0  0999 V2000
  161.0430  204.2500  148.7230 C   0  0  0  0  0  0  0  0  0  0  0  0
  161.8180  206.3580  147.8090 C   0  0  0  0  0  3  0  0  0  0  0  0
  161.9890  204.8900  151.7340 N   0  0  2  0  0  0  0  0  0  0  0  0
  161.3360  205.0960  153.0190 C   0  0  0  0  0  2  0  0  0  0  0  0
  161.0950  205.6550  148.7810 C   0  0  0  0  0  0  0  0  0  0  0  0
  163.1060  206.9580  151.0120 C   0  0  0  0  0  2  0  0  0  0  0  0
  161.8330  207.7650  151.3300 C   0  0  1  0  0  3  0  0  0  0  0  0
  162.4250  204.3040  146.7620 N   0  0  0  0  0  0  0  0  0  0  0  0
  162.4770  205.6600  146.7970 C   0  0  0  0  0  3  0  0  0  0  0  0
  161.7390  203.5930  147.6940 C   0  0  0  0  0  3  0  0  0  0  0  0
  160.4550  206.3380  152.9660 C   0  0  0  0  0  2  0  0  0  0  0  0
  159.6040  202.2880  149.2580 C   0  0  0  0  0  3  0  0  0  0  0  0
  162.3040  203.4760  151.6220 C   0  0  0  0  0  2  0  0  0  0  0  0
  160.4340  206.3580  149.8410 N   0  0  0  0  0  2  0  0  0  0  0  0
  161.3260  202.7920  150.7160 C   0  0  0  0  0  0  0  0  0  0  0  0
  160.7750  207.7250  150.2160 C   0  0  0  0  0  2  0  0  0  0  0  0
  160.3440  203.4660  149.8070 C   0  0  1  0  0  3  0  0  0  0  0  0
  160.0970  201.1650  149.7620 C   0  0  0  0  0  3  0  0  0  0  0  0
  161.2900  207.6050  152.7690 C   0  0  2  0  0  3  0  0  0  0  0  0
  163.2410  205.6310  151.7660 C   0  0  0  0  0  2  0  0  0  0  0  0
  161.1800  201.4780  150.6840 C   0  0  0  0  0  3  0  0  0  0  0  0
  160.5290  208.8340  153.2750 C   0  0  2  0  0  3  0  0  0  0  0  0
  161.0000  210.0120  152.6870 O   0  0  0  0  0  1  0  0  0  0  0  0
  161.5600  208.2780  155.4870 O   0  0  0  0  0  1  0  0  0  0  0  0
  159.6920  209.5990  155.3700 O   0  0  0  0  0  0  0  0  0  0  0  0
  160.5740  208.9380  154.7640 C   0  0  0  0  0  0  0  0  0  0  0  0
  1  5  1  0  0  0  0
  1 17  1  0  0  0  0
  2  5  2  0  0  0  0
  3 13  1  1  0  0  0
  3 20  1  0  0  0  0
  3  4  1  0  0  0  0
  5 14  1  0  0  0  0
  6  7  1  0  0  0  0
  6 20  1  0  0  0  0
  7 16  1  6  0  0  0
  7 19  1  0  0  0  0
  8  9  2  0  0  0  0
  8 10  1  0  0  0  0
  9  2  1  0  0  0  0
 10  1  2  0  0  0  0
 11  4  1  0  0  0  0
 12 18  2  0  0  0  0
 14 16  1  0  0  0  0
 15 13  1  0  0  0  0
 17 12  1  6  0  0  0
 17 15  1  0  0  0  0
 18 21  1  0  0  0  0
 19 11  1  0  0  0  0
 19 22  1  6  0  0  0
 21 15  2  0  0  0  0
 22 23  1  6  0  0  0
 22 26  1  0  0  0  0
 26 25  2  0  0  0  0
 26 24  1  0  0  0  0
M  END
>  <MODEL>
1

>  <REMARK>
 VINA RESULT:      -6.2      0.000      0.000
  Name = 
  2 active torsions:
  status: ('A' for Active; 'I' for Inactive)
    1  A    between atoms: C_1  and  C_12
    2  A    between atoms: C_1  and  C_23
                            x       y       z     vdW  Elec       q    Type
                         _______ _______ _______ _____ _____    ______ ____

>  <TORSDO>
F 2

$$$$
=
 OpenBabel11052409523D

 26 29  0  0  1  0  0  0  0  0999 V2000
  160.7200  209.1840  153.9080 C   0  0  0  0  0  0  0  0  0  0  0  0
  161.4970  207.3310  155.2650 C   0  0  0  0  0  3  0  0  0  0  0  0
  161.8400  207.9860  151.1370 N   0  0  2  0  0  0  0  0  0  0  0  0
  161.2620  207.5030  149.8910 C   0  0  0  0  0  2  0  0  0  0  0  0
  160.8100  207.7990  154.1380 C   0  0  0  0  0  0  0  0  0  0  0  0
  162.9680  206.1460  152.3140 C   0  0  0  0  0  2  0  0  0  0  0  0
  161.7350  205.2470  152.1060 C   0  0  1  0  0  3  0  0  0  0  0  0
  161.9960  209.5730  155.9030 N   0  0  0  0  0  0  0  0  0  0  0  0
  162.0840  208.2400  156.1450 C   0  0  0  0  0  3  0  0  0  0  0  0
  161.3430  210.0580  154.8150 C   0  0  0  0  0  3  0  0  0  0  0  0
  160.4110  206.2670  150.1520 C   0  0  0  0  0  2  0  0  0  0  0  0
  159.2630  210.9470  152.9200 C   0  0  0  0  0  3  0  0  0  0  0  0
  162.1140  209.4040  150.9750 C   0  0  0  0  0  2  0  0  0  0  0  0
  160.2240  206.8740  153.2120 N   0  0  0  0  0  2  0  0  0  0  0  0
  161.0720  210.2210  151.6770 C   0  0  0  0  0  0  0  0  0  0  0  0
  160.6180  205.4720  153.1380 C   0  0  0  0  0  2  0  0  0  0  0  0
  160.0600  209.7090  152.6560 C   0  0  1  0  0  3  0  0  0  0  0  0
  159.7540  211.9630  152.2240 C   0  0  0  0  0  3  0  0  0  0  0  0
  161.2650  205.0960  150.6400 C   0  0  2  0  0  3  0  0  0  0  0  0
  163.1100  207.2980  151.3140 C   0  0  0  0  0  2  0  0  0  0  0  0
  160.8930  211.5080  151.4360 C   0  0  0  0  0  3  0  0  0  0  0  0
  160.5630  203.7640  150.3590 C   0  0  2  0  0  3  0  0  0  0  0  0
  160.8530  202.8090  151.3370 O   0  0  0  0  0  1  0  0  0  0  0  0
  161.6600  203.9990  148.1210 O   0  0  0  0  0  0  0  0  0  0  0  0
  160.4530  202.1200  148.6370 O   0  0  0  0  0  1  0  0  0  0  0  0
  160.8960  203.2410  149.0000 C   0  0  0  0  0  0  0  0  0  0  0  0
  1  5  2  0  0  0  0
  1 10  1  0  0  0  0
  2  9  2  0  0  0  0
  3  4  1  6  0  0  0
  3 20  1  0  0  0  0
  4 11  1  0  0  0  0
  5  2  1  0  0  0  0
  7  6  1  6  0  0  0
  7 16  1  0  0  0  0
  8  9  1  0  0  0  0
 10  8  2  0  0  0  0
 11 19  1  0  0  0  0
 13  3  1  0  0  0  0
 13 15  1  0  0  0  0
 14  5  1  0  0  0  0
 15 17  1  0  0  0  0
 16 14  1  0  0  0  0
 17 12  1  1  0  0  0
 17  1  1  0  0  0  0
 18 12  2  0  0  0  0
 19 22  1  1  0  0  0
 19  7  1  0  0  0  0
 20  6  1  0  0  0  0
 21 15  2  0  0  0  0
 21 18  1  0  0  0  0
 22 23  1  1  0  0  0
 24 26  2  0  0  0  0
 25 26  1  0  0  0  0
 26 22  1  0  0  0  0
M  END
>  <MODEL>
2

>  <REMARK>
 VINA RESULT:      -5.3      3.392      7.074
  Name = 
  2 active torsions:
  status: ('A' for Active; 'I' for Inactive)
    1  A    between atoms: C_1  and  C_12
    2  A    between atoms: C_1  and  C_23
                            x       y       z     vdW  Elec       q    Type
                         _______ _______ _______ _____ _____    ______ ____

>  <TORSDO>
F 2

$$$$
=
 OpenBabel11052409523D

 26 29  0  0  1  0  0  0  0  0999 V2000
  160.7060  211.3250  140.2510 C   0  0  0  0  0  0  0  0  0  0  0  0
  161.0160  210.1170  138.1710 C   0  0  0  0  0  3  0  0  0  0  0  0
  158.0300  212.8380  139.2950 N   0  0  2  0  0  0  0  0  0  0  0  0
  156.6270  212.8390  139.6840 C   0  0  0  0  0  2  0  0  0  0  0  0
  160.1870  210.5060  139.2320 C   0  0  0  0  0  0  0  0  0  0  0  0
  158.2720  211.9610  137.0110 C   0  0  0  0  0  2  0  0  0  0  0  0
  157.3680  210.7660  137.3660 C   0  0  1  0  0  3  0  0  0  0  0  0
  162.8250  211.3440  139.1240 N   0  0  0  0  0  0  0  0  0  0  0  0
  162.3430  210.5460  138.1370 C   0  0  0  0  0  3  0  0  0  0  0  0
  162.0440  211.7450  140.1610 C   0  0  0  0  0  3  0  0  0  0  0  0
  156.0130  211.4670  139.4350 C   0  0  0  0  0  2  0  0  0  0  0  0
  160.5090  211.8460  142.6790 C   0  0  0  0  0  3  0  0  0  0  0  0
  158.6980  213.8790  140.0560 C   0  0  0  0  0  2  0  0  0  0  0  0
  158.8150  210.0930  139.2650 N   0  0  0  0  0  2  0  0  0  0  0  0
  159.4860  213.2800  141.1820 C   0  0  0  0  0  0  0  0  0  0  0  0
  158.1010  209.6220  138.0840 C   0  0  0  0  0  2  0  0  0  0  0  0
  159.8100  211.8270  141.3570 C   0  0  1  0  0  3  0  0  0  0  0  0
  160.5720  213.0860  143.1440 C   0  0  0  0  0  3  0  0  0  0  0  0
  155.9810  211.1330  137.9430 C   0  0  2  0  0  3  0  0  0  0  0  0
  158.0830  213.2040  137.8870 C   0  0  0  0  0  2  0  0  0  0  0  0
  159.9250  213.9920  142.2050 C   0  0  0  0  0  3  0  0  0  0  0  0
  154.9010  210.0880  137.6490 C   0  0  2  0  0  3  0  0  0  0  0  0
  153.7930  210.6540  137.0130 O   0  0  0  0  0  1  0  0  0  0  0  0
  153.3290  209.7340  139.5650 O   0  0  0  0  0  1  0  0  0  0  0  0
  155.1980  208.4290  139.3340 O   0  0  0  0  0  0  0  0  0  0  0  0
  154.4830  209.3620  138.8850 C   0  0  0  0  0  0  0  0  0  0  0  0
  1 17  1  0  0  0  0
  2  5  1  0  0  0  0
  3 20  1  6  0  0  0
  3  4  1  0  0  0  0
  3 13  1  0  0  0  0
  5 14  1  0  0  0  0
  5  1  2  0  0  0  0
  6 20  1  0  0  0  0
  7  6  1  1  0  0  0
  7 19  1  0  0  0  0
  7 16  1  0  0  0  0
  8 10  2  0  0  0  0
  9  2  2  0  0  0  0
  9  8  1  0  0  0  0
 10  1  1  0  0  0  0
 11  4  1  0  0  0  0
 12 18  2  0  0  0  0
 13 15  1  0  0  0  0
 15 17  1  0  0  0  0
 15 21  2  0  0  0  0
 16 14  1  0  0  0  0
 17 12  1  1  0  0  0
 19 22  1  1  0  0  0
 19 11  1  0  0  0  0
 21 18  1  0  0  0  0
 22 23  1  1  0  0  0
 22 26  1  0  0  0  0
 26 25  2  0  0  0  0
 26 24  1  0  0  0  0
M  END
>  <MODEL>
3

>  <REMARK>
 VINA RESULT:      -3.9     11.723     14.290
  Name = 
  2 active torsions:
  status: ('A' for Active; 'I' for Inactive)
    1  A    between atoms: C_1  and  C_12
    2  A    between atoms: C_1  and  C_23
                            x       y       z     vdW  Elec       q    Type
                         _______ _______ _______ _____ _____    ______ ____

>  <TORSDO>
F 2

$$$$
=
 OpenBabel11052409523D

 26 29  0  0  1  0  0  0  0  0999 V2000
  158.6330  212.6960  154.7080 C   0  0  0  0  0  0  0  0  0  0  0  0
  159.4970  211.9460  156.8450 C   0  0  0  0  0  3  0  0  0  0  0  0
  160.6940  210.9550  152.9510 N   0  0  2  0  0  0  0  0  0  0  0  0
  160.5990  209.8430  152.0160 C   0  0  0  0  0  2  0  0  0  0  0  0
  159.0210  211.6480  155.5620 C   0  0  0  0  0  0  0  0  0  0  0  0
  161.9270  210.2660  154.9620 C   0  0  0  0  0  2  0  0  0  0  0  0
  161.0680  208.9920  155.0620 C   0  0  1  0  0  3  0  0  0  0  0  0
  159.2120  214.2750  156.4200 N   0  0  0  0  0  0  0  0  0  0  0  0
  159.5820  213.2760  157.2610 C   0  0  0  0  0  3  0  0  0  0  0  0
  158.7530  214.0190  155.1670 C   0  0  0  0  0  3  0  0  0  0  0  0
  160.0650  208.6050  152.7260 C   0  0  0  0  0  2  0  0  0  0  0  0
  157.0650  213.2820  152.8620 C   0  0  0  0  0  3  0  0  0  0  0  0
  160.6180  212.1850  152.1800 C   0  0  0  0  0  2  0  0  0  0  0  0
  158.9540  210.2890  155.1140 N   0  0  0  0  0  2  0  0  0  0  0  0
  159.2550  212.7970  152.3040 C   0  0  0  0  0  0  0  0  0  0  0  0
  159.7070  209.2100  155.7420 C   0  0  0  0  0  2  0  0  0  0  0  0
  158.1990  212.4050  153.2910 C   0  0  1  0  0  3  0  0  0  0  0  0
  157.4330  214.0310  151.8320 C   0  0  0  0  0  3  0  0  0  0  0  0
  161.0430  208.1090  153.7920 C   0  0  2  0  0  3  0  0  0  0  0  0
  162.0120  210.8880  153.5640 C   0  0  0  0  0  2  0  0  0  0  0  0
  158.8120  213.7260  151.4750 C   0  0  0  0  0  3  0  0  0  0  0  0
  160.8100  206.6240  154.0860 C   0  0  2  0  0  3  0  0  0  0  0  0
  161.1950  206.2880  155.3870 O   0  0  0  0  0  1  0  0  0  0  0  0
  162.5400  206.2490  152.3160 O   0  0  0  0  0  0  0  0  0  0  0  0
  161.1180  204.5620  152.9320 O   0  0  0  0  0  1  0  0  0  0  0  0
  161.5010  205.7500  153.0920 C   0  0  0  0  0  0  0  0  0  0  0  0
  1 10  2  0  0  0  0
  1  5  1  0  0  0  0
  2  9  1  0  0  0  0
  3  4  1  6  0  0  0
  3 20  1  0  0  0  0
  4 11  1  0  0  0  0
  5  2  2  0  0  0  0
  7  6  1  6  0  0  0
  7 16  1  0  0  0  0
  8  9  2  0  0  0  0
 10  8  1  0  0  0  0
 11 19  1  0  0  0  0
 13 15  1  0  0  0  0
 13  3  1  0  0  0  0
 14  5  1  0  0  0  0
 14 16  1  0  0  0  0
 15 17  1  0  0  0  0
 17 12  1  6  0  0  0
 17  1  1  0  0  0  0
 18 12  2  0  0  0  0
 19 22  1  1  0  0  0
 19  7  1  0  0  0  0
 20  6  1  0  0  0  0
 21 18  1  0  0  0  0
 21 15  2  0  0  0  0
 22 23  1  1  0  0  0
 24 26  2  0  0  0  0
 25 26  1  0  0  0  0
 26 22  1  0  0  0  0
M  END
>  <MODEL>
4

>  <REMARK>
 VINA RESULT:      -3.5      4.352      8.641
  Name = 
  2 active torsions:
  status: ('A' for Active; 'I' for Inactive)
    1  A    between atoms: C_1  and  C_12
    2  A    between atoms: C_1  and  C_23
                            x       y       z     vdW  Elec       q    Type
                         _______ _______ _______ _____ _____    ______ ____

>  <TORSDO>
F 2

$$$$
=
 OpenBabel11052409523D

 26 29  0  0  1  0  0  0  0  0999 V2000
  160.4370  210.5270  139.5230 C   0  0  0  0  0  0  0  0  0  0  0  0
  159.4320  209.0190  137.9120 C   0  0  0  0  0  3  0  0  0  0  0  0
  158.4400  212.9730  138.8950 N   0  0  2  0  0  0  0  0  0  0  0  0
  157.4130  213.7050  139.6240 C   0  0  0  0  0  2  0  0  0  0  0  0
  159.2930  209.9130  138.9810 C   0  0  0  0  0  0  0  0  0  0  0  0
  157.4330  211.7530  137.0140 C   0  0  0  0  0  2  0  0  0  0  0  0
  156.3350  211.2070  137.9450 C   0  0  1  0  0  3  0  0  0  0  0  0
  161.7920  209.3570  137.9240 N   0  0  0  0  0  0  0  0  0  0  0  0
  160.7000  208.7490  137.3960 C   0  0  0  0  0  3  0  0  0  0  0  0
  161.6890  210.2350  138.9570 C   0  0  0  0  0  3  0  0  0  0  0  0
  156.2600  212.7760  139.9810 C   0  0  0  0  0  2  0  0  0  0  0  0
  161.3950  211.4390  141.6340 C   0  0  0  0  0  3  0  0  0  0  0  0
  159.7000  213.6680  139.0940 C   0  0  0  0  0  2  0  0  0  0  0  0
  157.9940  210.2190  139.5030 N   0  0  0  0  0  2  0  0  0  0  0  0
  160.5450  212.9420  140.0980 C   0  0  0  0  0  0  0  0  0  0  0  0
  156.7640  209.9750  138.7590 C   0  0  0  0  0  2  0  0  0  0  0  0
  160.3040  211.5580  140.6180 C   0  0  1  0  0  3  0  0  0  0  0  0
  162.1160  212.5510  141.6610 C   0  0  0  0  0  3  0  0  0  0  0  0
  155.5380  212.2760  138.7290 C   0  0  2  0  0  3  0  0  0  0  0  0
  158.0990  213.0510  137.4830 C   0  0  0  0  0  2  0  0  0  0  0  0
  161.5810  213.5030  140.6970 C   0  0  0  0  0  3  0  0  0  0  0  0
  154.1080  211.8460  139.0680 C   0  0  2  0  0  3  0  0  0  0  0  0
  153.4970  211.1910  137.9950 O   0  0  0  0  0  1  0  0  0  0  0  0
  153.3940  214.2390  138.9010 O   0  0  0  0  0  0  0  0  0  0  0  0
  152.4880  212.8590  140.4900 O   0  0  0  0  0  1  0  0  0  0  0  0
  153.2760  213.0000  139.5200 C   0  0  0  0  0  0  0  0  0  0  0  0
  1 17  1  0  0  0  0
  2  5  2  0  0  0  0
  3 20  1  6  0  0  0
  3 13  1  0  0  0  0
  3  4  1  0  0  0  0
  4 11  1  0  0  0  0
  5 14  1  0  0  0  0
  5  1  1  0  0  0  0
  6 20  1  0  0  0  0
  7  6  1  1  0  0  0
  7 19  1  0  0  0  0
  7 16  1  0  0  0  0
  8 10  1  0  0  0  0
  9  2  1  0  0  0  0
  9  8  2  0  0  0  0
 10  1  2  0  0  0  0
 12 18  2  0  0  0  0
 13 15  1  0  0  0  0
 15 17  1  0  0  0  0
 15 21  2  0  0  0  0
 16 14  1  0  0  0  0
 17 12  1  1  0  0  0
 19 22  1  1  0  0  0
 19 11  1  0  0  0  0
 21 18  1  0  0  0  0
 22 23  1  6  0  0  0
 22 26  1  0  0  0  0
 24 26  2  0  0  0  0
 26 25  1  0  0  0  0
M  END
>  <MODEL>
5

>  <REMARK>
 VINA RESULT:      -3.4     12.188     14.438
  Name = 
  2 active torsions:
  status: ('A' for Active; 'I' for Inactive)
    1  A    between atoms: C_1  and  C_12
    2  A    between atoms: C_1  and  C_23
                            x       y       z     vdW  Elec       q    Type
                         _______ _______ _______ _____ _____    ______ ____

>  <TORSDO>
F 2

$$$$
=
 OpenBabel11052409523D

 26 29  0  0  1  0  0  0  0  0999 V2000
  161.8200  203.4150  147.6580 C   0  0  0  0  0  0  0  0  0  0  0  0
  160.8320  202.1600  149.4830 C   0  0  0  0  0  3  0  0  0  0  0  0
  160.8000  206.2820  148.7100 N   0  0  2  0  0  0  0  0  0  0  0  0
  161.4230  207.5020  149.2030 C   0  0  0  0  0  2  0  0  0  0  0  0
  161.6210  203.2290  149.0380 C   0  0  0  0  0  0  0  0  0  0  0  0
  159.4750  205.2290  150.4930 C   0  0  0  0  0  2  0  0  0  0  0  0
  160.6540  205.3840  151.4710 C   0  0  1  0  0  3  0  0  0  0  0  0
  160.4480  201.4930  147.2260 N   0  0  0  0  0  0  0  0  0  0  0  0
  160.2540  201.2940  148.5550 C   0  0  0  0  0  3  0  0  0  0  0  0
  161.2020  202.5250  146.7630 C   0  0  0  0  0  3  0  0  0  0  0  0
  162.1680  207.2230  150.5020 C   0  0  0  0  0  2  0  0  0  0  0  0
  163.4550  204.2610  145.9800 C   0  0  0  0  0  3  0  0  0  0  0  0
  160.6350  206.4220  147.2730 C   0  0  0  0  0  2  0  0  0  0  0  0
  162.2000  204.1420  149.9800 N   0  0  0  0  0  2  0  0  0  0  0  0
  161.6850  205.6340  146.5470 C   0  0  0  0  0  0  0  0  0  0  0  0
  161.7150  204.2780  151.3490 C   0  0  0  0  0  2  0  0  0  0  0  0
  162.5940  204.6080  147.1520 C   0  0  1  0  0  3  0  0  0  0  0  0
  163.0810  204.9590  144.9160 C   0  0  0  0  0  3  0  0  0  0  0  0
  161.2060  206.8210  151.6210 C   0  0  2  0  0  3  0  0  0  0  0  0
  159.4770  206.2030  149.3100 C   0  0  0  0  0  2  0  0  0  0  0  0
  161.9670  205.8280  145.2710 C   0  0  0  0  0  3  0  0  0  0  0  0
  161.8310  207.0950  152.9920 C   0  0  2  0  0  3  0  0  0  0  0  0
  161.7670  205.9730  153.8230 O   0  0  0  0  0  1  0  0  0  0  0  0
  160.6590  209.3050  152.9000 O   0  0  0  0  0  0  0  0  0  0  0  0
  161.2060  208.3580  154.9140 O   0  0  0  0  0  1  0  0  0  0  0  0
  161.2060  208.2770  153.6580 C   0  0  0  0  0  0  0  0  0  0  0  0
  1  5  1  0  0  0  0
  3 13  1  6  0  0  0
  3  4  1  0  0  0  0
  3 20  1  0  0  0  0
  4 11  1  0  0  0  0
  5  2  2  0  0  0  0
  5 14  1  0  0  0  0
  7  6  1  6  0  0  0
  7 19  1  0  0  0  0
  8  9  2  0  0  0  0
  9  2  1  0  0  0  0
 10  8  1  0  0  0  0
 10  1  2  0  0  0  0
 11 19  1  0  0  0  0
 14 16  1  0  0  0  0
 15 17  1  0  0  0  0
 15 13  1  0  0  0  0
 16  7  1  0  0  0  0
 17 12  1  6  0  0  0
 17  1  1  0  0  0  0
 18 21  1  0  0  0  0
 18 12  2  0  0  0  0
 19 22  1  1  0  0  0
 20  6  1  0  0  0  0
 21 15  2  0  0  0  0
 22 26  1  0  0  0  0
 22 23  1  1  0  0  0
 24 26  2  0  0  0  0
 26 25  1  0  0  0  0
M  END
>  <MODEL>
6

>  <REMARK>
 VINA RESULT:      -3.4      1.575      3.992
  Name = 
  2 active torsions:
  status: ('A' for Active; 'I' for Inactive)
    1  A    between atoms: C_1  and  C_12
    2  A    between atoms: C_1  and  C_23
                            x       y       z     vdW  Elec       q    Type
                         _______ _______ _______ _____ _____    ______ ____

>  <TORSDO>
F 2

$$$$
=
 OpenBabel11052409523D

 26 29  0  0  1  0  0  0  0  0999 V2000
  160.5620  208.7030  153.3680 C   0  0  0  0  0  0  0  0  0  0  0  0
  161.1470  206.5260  154.2610 C   0  0  0  0  0  3  0  0  0  0  0  0
  162.1270  208.2910  150.5860 N   0  0  2  0  0  0  0  0  0  0  0  0
  161.7620  208.1890  149.1800 C   0  0  0  0  0  2  0  0  0  0  0  0
  160.6390  207.3070  153.2150 C   0  0  0  0  0  0  0  0  0  0  0  0
  163.0880  206.1670  151.3660 C   0  0  0  0  0  2  0  0  0  0  0  0
  161.9190  205.3940  150.7250 C   0  0  1  0  0  3  0  0  0  0  0  0
  161.4990  208.4890  155.5680 N   0  0  0  0  0  0  0  0  0  0  0  0
  161.5710  207.1400  155.4400 C   0  0  0  0  0  3  0  0  0  0  0  0
  161.0180  209.2750  154.5680 C   0  0  0  0  0  3  0  0  0  0  0  0
  160.9030  206.9520  148.9490 C   0  0  0  0  0  2  0  0  0  0  0  0
  159.2480  210.7100  152.6940 C   0  0  0  0  0  3  0  0  0  0  0  0
  162.3980  209.6900  150.8690 C   0  0  0  0  0  2  0  0  0  0  0  0
  160.2240  206.6910  151.9890 N   0  0  0  0  0  2  0  0  0  0  0  0
  161.2430  210.3090  151.5980 C   0  0  0  0  0  0  0  0  0  0  0  0
  160.6500  205.3550  151.5910 C   0  0  0  0  0  2  0  0  0  0  0  0
  160.0980  209.5730  152.2240 C   0  0  1  0  0  3  0  0  0  0  0  0
  159.8250  211.8650  152.3930 C   0  0  0  0  0  3  0  0  0  0  0  0
  161.6900  205.6680  149.2210 C   0  0  2  0  0  3  0  0  0  0  0  0
  163.3660  207.5470  150.7610 C   0  0  0  0  0  2  0  0  0  0  0  0
  161.0810  211.6170  151.6990 C   0  0  0  0  0  3  0  0  0  0  0  0
  161.0660  204.4860  148.4730 C   0  0  2  0  0  3  0  0  0  0  0  0
  161.2610  203.2820  149.1550 O   0  0  0  0  0  1  0  0  0  0  0  0
  160.7840  203.8390  146.0710 O   0  0  0  0  0  0  0  0  0  0  0  0
  162.7460  204.7680  146.8070 O   0  0  0  0  0  1  0  0  0  0  0  0
  161.5770  204.3860  147.0730 C   0  0  0  0  0  0  0  0  0  0  0  0
  1 10  1  0  0  0  0
  2  9  2  0  0  0  0
  3  4  1  6  0  0  0
  3 20  1  0  0  0  0
  3 13  1  0  0  0  0
  5  1  2  0  0  0  0
  5  2  1  0  0  0  0
  7  6  1  1  0  0  0
  7 16  1  0  0  0  0
  9  8  1  0  0  0  0
 10  8  2  0  0  0  0
 11  4  1  0  0  0  0
 11 19  1  0  0  0  0
 13 15  1  0  0  0  0
 14  5  1  0  0  0  0
 15 21  2  0  0  0  0
 15 17  1  0  0  0  0
 16 14  1  0  0  0  0
 17 12  1  1  0  0  0
 17  1  1  0  0  0  0
 18 12  2  0  0  0  0
 19 22  1  1  0  0  0
 19  7  1  0  0  0  0
 20  6  1  0  0  0  0
 21 18  1  0  0  0  0
 22 23  1  1  0  0  0
 24 26  2  0  0  0  0
 25 26  1  0  0  0  0
 26 22  1  0  0  0  0
M  END
>  <MODEL>
7

>  <REMARK>
 VINA RESULT:      -3.4      3.471      7.066
  Name = 
  2 active torsions:
  status: ('A' for Active; 'I' for Inactive)
    1  A    between atoms: C_1  and  C_12
    2  A    between atoms: C_1  and  C_23
                            x       y       z     vdW  Elec       q    Type
                         _______ _______ _______ _____ _____    ______ ____

>  <TORSDO>
F 2

$$$$
=
 OpenBabel11052409523D

 26 29  0  0  1  0  0  0  0  0999 V2000
  160.8430  213.0580  144.0890 C   0  0  0  0  0  0  0  0  0  0  0  0
  163.0520  212.9460  143.0950 C   0  0  0  0  0  3  0  0  0  0  0  0
  159.3150  213.5960  141.3070 N   0  0  2  0  0  0  0  0  0  0  0  0
  158.3460  212.8850  140.4860 C   0  0  0  0  0  2  0  0  0  0  0  0
  161.7110  212.5420  143.1090 C   0  0  0  0  0  0  0  0  0  0  0  0
  161.4480  213.8110  140.1030 C   0  0  0  0  0  2  0  0  0  0  0  0
  161.4020  212.3150  139.7400 C   0  0  1  0  0  3  0  0  0  0  0  0
  162.6580  214.3490  144.9830 N   0  0  0  0  0  0  0  0  0  0  0  0
  163.5110  213.8540  144.0500 C   0  0  0  0  0  3  0  0  0  0  0  0
  161.3500  213.9820  145.0180 C   0  0  0  0  0  3  0  0  0  0  0  0
  158.9480  211.5830  139.9730 C   0  0  0  0  0  2  0  0  0  0  0  0
  158.8300  212.5100  145.4510 C   0  0  0  0  0  3  0  0  0  0  0  0
  158.5760  214.4530  142.2180 C   0  0  0  0  0  2  0  0  0  0  0  0
  161.2200  211.6310  142.1180 N   0  0  0  0  0  2  0  0  0  0  0  0
  158.5420  213.8510  143.5910 C   0  0  0  0  0  0  0  0  0  0  0  0
  161.9100  211.3870  140.8560 C   0  0  0  0  0  2  0  0  0  0  0  0
  159.3760  212.7040  144.0720 C   0  0  1  0  0  3  0  0  0  0  0  0
  157.8760  213.3990  145.6930 C   0  0  0  0  0  3  0  0  0  0  0  0
  160.1160  211.8460  139.0210 C   0  0  2  0  0  3  0  0  0  0  0  0
  160.0890  214.4470  140.4160 C   0  0  0  0  0  2  0  0  0  0  0  0
  157.6890  214.2440  144.5210 C   0  0  0  0  0  3  0  0  0  0  0  0
  160.3360  210.6460  138.0950 C   0  0  2  0  0  3  0  0  0  0  0  0
  160.0690  209.4370  138.7440 O   0  0  0  0  0  1  0  0  0  0  0  0
  162.2720  211.8050  137.0110 O   0  0  0  0  0  0  0  0  0  0  0  0
  162.3620  209.5610  137.4640 O   0  0  0  0  0  1  0  0  0  0  0  0
  161.7150  210.6380  137.5190 C   0  0  0  0  0  0  0  0  0  0  0  0
  1 10  1  0  0  0  0
  2  5  1  0  0  0  0
  2  9  2  0  0  0  0
  3 20  1  6  0  0  0
  3 13  1  0  0  0  0
  4  3  1  0  0  0  0
  5  1  2  0  0  0  0
  6 20  1  0  0  0  0
  7  6  1  1  0  0  0
  7 16  1  0  0  0  0
  8 10  2  0  0  0  0
  9  8  1  0  0  0  0
 11  4  1  0  0  0  0
 12 18  2  0  0  0  0
 13 15  1  0  0  0  0
 14  5  1  0  0  0  0
 15 17  1  0  0  0  0
 15 21  2  0  0  0  0
 16 14  1  0  0  0  0
 17  1  1  0  0  0  0
 17 12  1  1  0  0  0
 19 22  1  1  0  0  0
 19  7  1  0  0  0  0
 19 11  1  0  0  0  0
 21 18  1  0  0  0  0
 22 23  1  1  0  0  0
 24 26  2  0  0  0  0
 25 26  1  0  0  0  0
 26 22  1  0  0  0  0
M  END
>  <MODEL>
8

>  <REMARK>
 VINA RESULT:      -3.3     10.703     13.210
  Name = 
  2 active torsions:
  status: ('A' for Active; 'I' for Inactive)
    1  A    between atoms: C_1  and  C_12
    2  A    between atoms: C_1  and  C_23
                            x       y       z     vdW  Elec       q    Type
                         _______ _______ _______ _____ _____    ______ ____

>  <TORSDO>
F 2

$$$$
