=
 OpenBabel11052409473D

 63 70  0  0  1  0  0  0  0  0999 V2000
  161.7880  213.3910  148.5860 N   0  0  0  0  0  0  0  0  0  0  0  0
  161.3330  213.0970  146.1030 C   0  0  2  0  0  3  0  0  0  0  0  0
  161.6790  214.0280  147.2650 C   0  0  2  0  0  3  0  0  0  0  0  0
  162.7200  213.2970  145.5280 C   0  0  1  0  0  3  0  0  0  0  0  0
  161.5140  213.8630  144.8020 C   0  0  1  0  0  3  0  0  0  0  0  0
  163.0700  214.2130  146.6900 C   0  0  0  0  0  2  0  0  0  0  0  0
  161.1920  213.0450  143.5420 C   0  0  2  0  0  3  0  0  0  0  0  0
  162.3780  212.4900  143.0480 O   0  0  0  0  0  1  0  0  0  0  0  0
  160.5660  213.8010  142.5320 O   0  0  0  0  0  0  0  0  0  0  0  0
  159.2640  213.2920  142.4420 C   0  0  1  0  0  3  0  0  0  0  0  0
  158.2810  214.4440  142.1710 C   0  0  0  0  0  2  0  0  0  0  0  0
  158.5820  212.0550  139.1260 N   0  0  0  0  0  0  0  0  0  0  0  0
  159.1590  212.3820  141.2770 C   0  0  0  0  0  0  0  0  0  0  0  0
  158.2750  212.6720  140.3680 C   0  0  0  0  0  0  0  0  0  0  0  0
  157.3090  214.1350  140.6300 S   0  0  0  0  0  0  0  0  0  0  0  0
  160.4500  210.5780  138.5880 C   0  0  0  0  0  1  0  0  0  0  0  0
  160.1490  211.4700  140.8140 N   0  0  0  0  0  0  0  0  0  0  0  0
  159.7130  211.2460  139.4720 C   0  0  0  0  0  0  0  0  0  0  0  0
  157.5880  211.7780  138.0980 C   0  0  0  0  0  2  0  0  0  0  0  0
  157.6340  210.4380  137.7250 O   0  0  0  0  0  1  0  0  0  0  0  0
  160.4350  213.0430  148.9890 C   0  0  0  0  0  2  0  0  0  0  0  0
  159.9660  213.9770  150.0910 C   0  0  0  0  0  2  0  0  0  0  0  0
  158.4540  214.0980  150.0450 C   0  0  0  0  0  2  0  0  0  0  0  0
  157.8880  214.4520  151.3880 C   0  0  0  0  0  3  0  0  0  0  0  0
  156.8390  213.8140  151.9050 C   0  0  0  0  0  3  0  0  0  0  0  0
  156.3460  214.2050  153.2600 C   0  0  0  0  0  2  0  0  0  0  0  0
  157.4440  214.0380  154.2920 C   0  0  2  0  0  3  0  0  0  0  0  0
  157.3270  212.6910  154.9080 C   0  0  2  0  0  3  0  0  0  0  0  0
  156.8710  213.8480  155.5660 O   0  0  0  0  0  0  0  0  0  0  0  0
  158.6320  212.1730  155.5200 C   0  0  0  0  0  2  0  0  0  0  0  0
  159.0670  210.7670  155.1060 C   0  0  0  0  0  2  0  0  0  0  0  0
  159.5490  210.0320  156.2660 N   0  0  0  0  0  2  0  0  0  0  0  0
  160.3630  208.9410  155.7520 C   0  0  0  0  0  2  0  0  0  0  0  0
  159.6730  207.6280  156.0370 C   0  0  0  0  0  1  0  0  0  0  0  0
  162.5390  212.1320  148.5800 C   0  0  0  0  0  2  0  0  0  0  0  0
  161.8850  209.8110  149.2560 C   0  0  0  0  0  3  0  0  0  0  0  0
  160.9490  210.7310  151.7340 C   0  0  0  0  0  3  0  0  0  0  0  0
  161.9420  211.1790  149.5640 C   0  0  0  0  0  0  0  0  0  0  0  0
  161.4610  211.6340  150.8010 C   0  0  0  0  0  3  0  0  0  0  0  0
  161.3700  208.9030  150.1890 C   0  0  0  0  0  3  0  0  0  0  0  0
  160.9060  209.3630  151.4300 C   0  0  0  0  0  0  0  0  0  0  0  0
  160.4630  208.3930  152.4740 C   0  0  0  0  0  2  0  0  0  0  0  0
  161.0560  207.0790  152.2700 N   0  0  0  0  0  0  0  0  0  0  0  0
  162.1790  206.6930  153.1220 C   0  0  0  0  0  2  0  0  0  0  0  0
  163.1110  205.6900  151.1470 O   0  0  0  0  0  0  0  0  0  0  0  0
  162.9330  205.4860  152.5270 C   0  0  0  0  0  2  0  0  0  0  0  0
  159.6990  206.4940  150.4500 O   0  0  0  0  0  0  0  0  0  0  0  0
  160.8050  206.3660  151.0510 C   0  0  0  0  0  0  0  0  0  0  0  0
  161.8690  205.4270  150.5230 C   0  0  1  0  0  3  0  0  0  0  0  0
  162.0120  205.6420  149.0140 C   0  0  0  0  0  2  0  0  0  0  0  0
  162.5940  204.0050  147.2590 N   0  0  0  0  0  0  0  0  0  0  0  0
  160.9110  202.1240  148.1930 O   0  0  0  0  0  0  0  0  0  0  0  0
  161.0640  202.1590  146.8530 O   0  0  0  0  0  0  0  0  0  0  0  0
  161.4860  204.4990  148.1150 C   0  0  1  0  0  0  0  0  0  0  0  0
  160.7350  203.3610  150.1310 O   0  0  0  0  0  0  0  0  0  0  0  0
  162.8800  204.9210  146.2920 O   0  0  0  0  0  1  0  0  0  0  0  0
  162.3490  202.6980  146.5930 C   0  0  0  0  0  2  0  0  0  0  0  0
  160.9870  203.3170  148.9000 C   0  0  0  0  0  0  0  0  0  0  0  0
  160.3400  205.0650  147.2370 C   0  0  0  0  0  2  0  0  0  0  0  0
  160.6270  206.3860  146.5720 C   0  0  0  0  0  0  0  0  0  0  0  0
  161.1100  207.3500  147.2320 O   0  0  0  0  0  0  0  0  0  0  0  0
  160.6100  205.5480  144.3370 C   0  0  0  0  0  2  0  0  0  0  0  0
  160.4020  206.5160  145.1700 N   0  0  0  0  0  0  0  0  0  0  0  0
  1 21  1  0  0  0  0
  2  3  1  0  0  0  0
  3  1  1  0  0  0  0
  4  2  1  0  0  0  0
  4  6  1  0  0  0  0
  5  4  1  0  0  0  0
  5  2  1  0  0  0  0
  6  3  1  0  0  0  0
  7  5  1  0  0  0  0
  8  7  1  0  0  0  0
  9  7  1  0  0  0  0
 10  9  1  0  0  0  0
 11 10  1  0  0  0  0
 12 18  1  0  0  0  0
 12 14  1  0  0  0  0
 13 10  1  0  0  0  0
 14 15  1  0  0  0  0
 14 13  2  0  0  0  0
 15 11  1  0  0  0  0
 16 18  1  0  0  0  0
 17 13  1  0  0  0  0
 18 17  2  0  0  0  0
 19 12  1  0  0  0  0
 20 19  1  0  0  0  0
 21 22  1  0  0  0  0
 23 22  1  0  0  0  0
 23 24  1  0  0  0  0
 24 25  2  0  0  0  0
 25 26  1  0  0  0  0
 26 27  1  0  0  0  0
 27 28  1  0  0  0  0
 27 29  1  0  0  0  0
 28 30  1  0  0  0  0
 28 29  1  0  0  0  0
 31 30  1  0  0  0  0
 31 32  1  0  0  0  0
 33 34  1  0  0  0  0
 33 32  1  0  0  0  0
 35  1  1  0  0  0  0
 35 38  1  0  0  0  0
 36 38  2  0  0  0  0
 36 40  1  0  0  0  0
 38 39  1  0  0  0  0
 39 37  2  0  0  0  0
 40 41  2  0  0  0  0
 41 37  1  0  0  0  0
 41 42  1  0  0  0  0
 43 42  1  0  0  0  0
 43 44  1  0  0  0  0
 45 46  1  0  0  0  0
 46 44  1  0  0  0  0
 47 48  2  0  0  0  0
 48 43  1  0  0  0  0
 49 48  1  0  0  0  0
 49 45  1  0  0  0  0
 50 49  1  0  0  0  0
 51 54  1  0  0  0  0
 52 58  1  0  0  0  0
 53 52  1  0  0  0  0
 54 58  1  0  0  0  0
 54 50  1  0  0  0  0
 56 51  1  0  0  0  0
 57 53  1  0  0  0  0
 57 51  1  0  0  0  0
 58 55  2  0  0  0  0
 59 54  1  0  0  0  0
 60 61  2  0  0  0  0
 60 59  1  0  0  0  0
 62 63  2  0  0  0  0
 63 60  1  0  0  0  0
M  END
>  <MODEL>
1

>  <REMARK>
 VINA RESULT:      -3.3      0.000      0.000
  Name = 
  24 active torsions:
  status: ('A' for Active; 'I' for Inactive)
    1  A    between atoms: C_1  and  N_27
    2  A    between atoms: C_1  and  C_48
    3  A    between atoms: C_2  and  N_14
    4  A    between atoms: C_2  and  C_57
    5  A    between atoms: C_3  and  C_4
    6  A    between atoms: C_3  and  N_26
    7  A    between atoms: C_4  and  C_34
    8  A    between atoms: N_6  and  C_12
    9  A    between atoms: N_6  and  C_17
   10  A    between atoms: N_6  and  C_45
   11  A    between atoms: C_7  and  C_56
   12  A    between atoms: C_10  and  O_47
   13  A    between atoms: C_12  and  C_31
   14  A    between atoms: C_13  and  C_25
   15  A    between atoms: C_13  and  C_61
   16  A    between atoms: C_15  and  C_39
   17  A    between atoms: C_15  and  O_47
   18  A    between atoms: N_21  and  C_32
   19  A    between atoms: C_22  and  C_29
   20  A    between atoms: C_23  and  C_29
   21  A    between atoms: C_23  and  C_45
   22  A    between atoms: C_25  and  C_48
   23  A    between atoms: N_26  and  C_43
   24  A    between atoms: C_56  and  C_59
                            x       y       z     vdW  Elec       q    Type
                         _______ _______ _______ _____ _____    ______ ____

>  <TORSDO>
F 24

$$$$
=
 OpenBabel11052409473D

 63 70  0  0  1  0  0  0  0  0999 V2000
  161.7950  205.0810  151.6140 N   0  0  0  0  0  0  0  0  0  0  0  0
  161.1330  203.1490  150.1010 C   0  0  2  0  0  3  0  0  0  0  0  0
  162.0140  203.6780  151.2330 C   0  0  2  0  0  3  0  0  0  0  0  0
  160.4120  202.2470  151.0800 C   0  0  1  0  0  3  0  0  0  0  0  0
  161.3090  201.6410  150.0160 C   0  0  1  0  0  3  0  0  0  0  0  0
  161.2790  202.7810  152.2100 C   0  0  0  0  0  2  0  0  0  0  0  0
  160.4810  200.9730  148.9080 C   0  0  2  0  0  3  0  0  0  0  0  0
  161.2930  200.0620  148.2230 O   0  0  0  0  0  1  0  0  0  0  0  0
  159.9270  201.8930  147.9970 O   0  0  0  0  0  0  0  0  0  0  0  0
  160.5440  201.6170  146.7710 C   0  0  1  0  0  3  0  0  0  0  0  0
  159.5060  201.0390  145.7930 C   0  0  0  0  0  2  0  0  0  0  0  0
  160.7070  204.5680  144.7080 N   0  0  0  0  0  0  0  0  0  0  0  0
  161.0290  202.8760  146.1560 C   0  0  0  0  0  0  0  0  0  0  0  0
  160.5760  203.1790  144.9760 C   0  0  0  0  0  0  0  0  0  0  0  0
  159.4200  202.0500  144.2480 S   0  0  0  0  0  0  0  0  0  0  0  0
  161.6680  206.3020  146.1310 C   0  0  0  0  0  1  0  0  0  0  0  0
  161.6010  203.9910  146.8320 N   0  0  0  0  0  0  0  0  0  0  0  0
  161.4280  205.0220  145.8590 C   0  0  0  0  0  0  0  0  0  0  0  0
  160.7610  205.1260  143.3630 C   0  0  0  0  0  2  0  0  0  0  0  0
  161.9720  205.7800  143.1550 O   0  0  0  0  0  1  0  0  0  0  0  0
  161.2310  205.7420  150.4490 C   0  0  0  0  0  2  0  0  0  0  0  0
  161.7110  207.1820  150.3870 C   0  0  0  0  0  2  0  0  0  0  0  0
  161.9540  207.5740  148.9410 C   0  0  0  0  0  2  0  0  0  0  0  0
  162.4590  208.9820  148.8300 C   0  0  0  0  0  3  0  0  0  0  0  0
  161.7400  210.0260  149.2400 C   0  0  0  0  0  3  0  0  0  0  0  0
  162.3190  211.3990  149.1200 C   0  0  0  0  0  2  0  0  0  0  0  0
  161.2970  212.3540  148.5330 C   0  0  2  0  0  3  0  0  0  0  0  0
  161.6640  212.6460  147.1240 C   0  0  2  0  0  3  0  0  0  0  0  0
  161.9330  213.5570  148.1620 O   0  0  0  0  0  0  0  0  0  0  0  0
  160.4870  213.1110  146.2600 C   0  0  0  0  0  2  0  0  0  0  0  0
  160.7320  213.1690  144.7510 C   0  0  0  0  0  2  0  0  0  0  0  0
  159.7120  212.4010  144.0510 N   0  0  0  0  0  2  0  0  0  0  0  0
  159.8290  212.7510  142.6440 C   0  0  0  0  0  2  0  0  0  0  0  0
  161.0870  212.1340  142.0800 C   0  0  0  0  0  1  0  0  0  0  0  0
  160.8140  205.2590  152.6880 C   0  0  0  0  0  2  0  0  0  0  0  0
  161.3560  206.7320  154.6400 C   0  0  0  0  0  3  0  0  0  0  0  0
  160.9420  209.0350  153.0960 C   0  0  0  0  0  3  0  0  0  0  0  0
  160.9670  206.6150  153.2970 C   0  0  0  0  0  0  0  0  0  0  0  0
  160.7490  207.7720  152.5330 C   0  0  0  0  0  3  0  0  0  0  0  0
  161.5470  207.9970  155.2070 C   0  0  0  0  0  3  0  0  0  0  0  0
  161.3440  209.1490  154.4340 C   0  0  0  0  0  0  0  0  0  0  0  0
  161.6560  210.4970  154.9950 C   0  0  0  0  0  2  0  0  0  0  0  0
  160.6730  210.9020  155.9890 N   0  0  0  0  0  0  0  0  0  0  0  0
  159.8020  209.8730  156.5530 C   0  0  0  0  0  2  0  0  0  0  0  0
  158.0630  211.5280  156.4460 O   0  0  0  0  0  0  0  0  0  0  0  0
  158.5860  210.5070  157.2590 C   0  0  0  0  0  2  0  0  0  0  0  0
  161.1790  213.1890  155.8940 O   0  0  0  0  0  0  0  0  0  0  0  0
  160.3210  212.2860  156.1200 C   0  0  0  0  0  0  0  0  0  0  0  0
  158.9230  212.6440  156.5760 C   0  0  1  0  0  3  0  0  0  0  0  0
  158.3960  213.7850  155.7010 C   0  0  0  0  0  2  0  0  0  0  0  0
  157.0450  212.0540  154.5700 N   0  0  0  0  0  0  0  0  0  0  0  0
  154.6950  213.1510  155.2890 O   0  0  0  0  0  0  0  0  0  0  0  0
  154.7150  212.5470  154.0830 O   0  0  0  0  0  0  0  0  0  0  0  0
  157.0890  213.4950  154.9270 C   0  0  1  0  0  0  0  0  0  0  0  0
  155.8590  214.4530  156.7950 O   0  0  0  0  0  0  0  0  0  0  0  0
  157.9420  211.7930  153.5780 O   0  0  0  0  0  1  0  0  0  0  0  0
  155.7180  211.5470  154.1310 C   0  0  0  0  0  2  0  0  0  0  0  0
  155.8520  213.7760  155.7350 C   0  0  0  0  0  0  0  0  0  0  0  0
  157.0850  214.3660  153.6450 C   0  0  0  0  0  2  0  0  0  0  0  0
  157.9620  213.8720  152.5240 C   0  0  0  0  0  0  0  0  0  0  0  0
  157.4740  213.2020  151.5700 O   0  0  0  0  0  0  0  0  0  0  0  0
  160.1170  214.0140  151.5080 C   0  0  0  0  0  2  0  0  0  0  0  0
  159.3440  214.2230  152.5240 N   0  0  0  0  0  0  0  0  0  0  0  0
  1 35  1  0  0  0  0
  2  4  1  0  0  0  0
  2  3  1  0  0  0  0
  3  1  1  0  0  0  0
  3  6  1  0  0  0  0
  4  6  1  0  0  0  0
  5  2  1  0  0  0  0
  5  4  1  0  0  0  0
  7  5  1  0  0  0  0
  8  7  1  0  0  0  0
  9  7  1  0  0  0  0
 10  9  1  0  0  0  0
 11 10  1  0  0  0  0
 12 14  1  0  0  0  0
 12 18  1  0  0  0  0
 13 10  1  0  0  0  0
 13 17  1  0  0  0  0
 14 13  2  0  0  0  0
 15 14  1  0  0  0  0
 15 11  1  0  0  0  0
 18 16  1  0  0  0  0
 18 17  2  0  0  0  0
 19 12  1  0  0  0  0
 20 19  1  0  0  0  0
 21  1  1  0  0  0  0
 22 21  1  0  0  0  0
 23 22  1  0  0  0  0
 24 23  1  0  0  0  0
 24 25  2  0  0  0  0
 26 25  1  0  0  0  0
 27 26  1  0  0  0  0
 28 29  1  0  0  0  0
 28 27  1  0  0  0  0
 29 27  1  0  0  0  0
 30 28  1  0  0  0  0
 31 30  1  0  0  0  0
 32 31  1  0  0  0  0
 33 32  1  0  0  0  0
 34 33  1  0  0  0  0
 35 38  1  0  0  0  0
 36 40  1  0  0  0  0
 37 41  1  0  0  0  0
 38 36  2  0  0  0  0
 39 37  2  0  0  0  0
 39 38  1  0  0  0  0
 41 42  1  0  0  0  0
 41 40  2  0  0  0  0
 42 43  1  0  0  0  0
 43 48  1  0  0  0  0
 43 44  1  0  0  0  0
 44 46  1  0  0  0  0
 45 49  1  0  0  0  0
 45 46  1  0  0  0  0
 47 48  2  0  0  0  0
 48 49  1  0  0  0  0
 50 49  1  0  0  0  0
 51 54  1  0  0  0  0
 52 58  1  0  0  0  0
 53 57  1  0  0  0  0
 53 52  1  0  0  0  0
 54 50  1  0  0  0  0
 54 58  1  0  0  0  0
 56 51  1  0  0  0  0
 57 51  1  0  0  0  0
 58 55  2  0  0  0  0
 59 54  1  0  0  0  0
 60 59  1  0  0  0  0
 61 60  2  0  0  0  0
 62 63  2  0  0  0  0
 63 60  1  0  0  0  0
M  END
>  <MODEL>
2

>  <REMARK>
 VINA RESULT:      -2.9      3.136     10.234
  Name = 
  24 active torsions:
  status: ('A' for Active; 'I' for Inactive)
    1  A    between atoms: C_1  and  N_27
    2  A    between atoms: C_1  and  C_48
    3  A    between atoms: C_2  and  N_14
    4  A    between atoms: C_2  and  C_57
    5  A    between atoms: C_3  and  C_4
    6  A    between atoms: C_3  and  N_26
    7  A    between atoms: C_4  and  C_34
    8  A    between atoms: N_6  and  C_12
    9  A    between atoms: N_6  and  C_17
   10  A    between atoms: N_6  and  C_45
   11  A    between atoms: C_7  and  C_56
   12  A    between atoms: C_10  and  O_47
   13  A    between atoms: C_12  and  C_31
   14  A    between atoms: C_13  and  C_25
   15  A    between atoms: C_13  and  C_61
   16  A    between atoms: C_15  and  C_39
   17  A    between atoms: C_15  and  O_47
   18  A    between atoms: N_21  and  C_32
   19  A    between atoms: C_22  and  C_29
   20  A    between atoms: C_23  and  C_29
   21  A    between atoms: C_23  and  C_45
   22  A    between atoms: C_25  and  C_48
   23  A    between atoms: N_26  and  C_43
   24  A    between atoms: C_56  and  C_59
                            x       y       z     vdW  Elec       q    Type
                         _______ _______ _______ _____ _____    ______ ____

>  <TORSDO>
F 24

$$$$
=
 OpenBabel11052409473D

 63 70  0  0  1  0  0  0  0  0999 V2000
  161.8170  205.1460  151.6480 N   0  0  0  0  0  0  0  0  0  0  0  0
  161.1290  203.1940  150.1720 C   0  0  2  0  0  3  0  0  0  0  0  0
  162.0990  203.7730  151.2020 C   0  0  2  0  0  3  0  0  0  0  0  0
  160.6120  202.2160  151.2070 C   0  0  1  0  0  3  0  0  0  0  0  0
  161.4150  201.7080  150.0230 C   0  0  1  0  0  3  0  0  0  0  0  0
  161.5680  202.8000  152.2360 C   0  0  0  0  0  2  0  0  0  0  0  0
  160.5110  200.9930  149.0070 C   0  0  2  0  0  3  0  0  0  0  0  0
  161.2690  200.0360  148.3230 O   0  0  0  0  0  1  0  0  0  0  0  0
  159.9100  201.8700  148.0840 O   0  0  0  0  0  0  0  0  0  0  0  0
  160.4930  201.5640  146.8480 C   0  0  1  0  0  3  0  0  0  0  0  0
  159.3870  201.2970  145.8120 C   0  0  0  0  0  2  0  0  0  0  0  0
  161.3420  204.5590  145.0340 N   0  0  0  0  0  0  0  0  0  0  0  0
  161.2530  202.7320  146.3440 C   0  0  0  0  0  0  0  0  0  0  0  0
  160.9110  203.2140  145.1860 C   0  0  0  0  0  0  0  0  0  0  0  0
  159.5650  202.4180  144.3530 S   0  0  0  0  0  0  0  0  0  0  0  0
  162.6050  205.9340  146.6060 C   0  0  0  0  0  1  0  0  0  0  0  0
  162.0270  203.6440  147.1160 N   0  0  0  0  0  0  0  0  0  0  0  0
  162.1070  204.7590  146.2280 C   0  0  0  0  0  0  0  0  0  0  0  0
  161.5550  205.1940  143.7400 C   0  0  0  0  0  2  0  0  0  0  0  0
  160.8360  206.3830  143.6570 O   0  0  0  0  0  1  0  0  0  0  0  0
  161.2320  205.8370  150.5100 C   0  0  0  0  0  2  0  0  0  0  0  0
  162.2350  206.8190  149.9290 C   0  0  0  0  0  2  0  0  0  0  0  0
  161.5090  207.8360  149.0680 C   0  0  0  0  0  2  0  0  0  0  0  0
  162.2110  209.1620  149.0710 C   0  0  0  0  0  3  0  0  0  0  0  0
  161.5870  210.2920  149.3960 C   0  0  0  0  0  3  0  0  0  0  0  0
  162.3570  211.5730  149.4010 C   0  0  0  0  0  2  0  0  0  0  0  0
  162.1220  212.3380  148.1130 C   0  0  2  0  0  3  0  0  0  0  0  0
  160.6660  212.5920  147.9620 C   0  0  2  0  0  3  0  0  0  0  0  0
  161.3160  211.5700  147.2470 O   0  0  0  0  0  0  0  0  0  0  0  0
  160.3340  213.7850  147.0600 C   0  0  0  0  0  2  0  0  0  0  0  0
  158.8910  213.8800  146.5620 C   0  0  0  0  0  2  0  0  0  0  0  0
  158.4560  212.5900  146.0470 N   0  0  0  0  0  2  0  0  0  0  0  0
  157.0680  212.4330  146.4530 C   0  0  0  0  0  2  0  0  0  0  0  0
  156.5720  213.7310  147.0440 C   0  0  0  0  0  1  0  0  0  0  0  0
  160.8210  205.2300  152.7200 C   0  0  0  0  0  2  0  0  0  0  0  0
  161.2150  206.6090  154.7730 C   0  0  0  0  0  3  0  0  0  0  0  0
  160.8870  208.9820  153.3170 C   0  0  0  0  0  3  0  0  0  0  0  0
  160.9200  206.5560  153.4020 C   0  0  0  0  0  0  0  0  0  0  0  0
  160.7450  207.7470  152.6820 C   0  0  0  0  0  3  0  0  0  0  0  0
  161.3560  207.8460  155.4130 C   0  0  0  0  0  3  0  0  0  0  0  0
  161.1950  209.0330  154.6840 C   0  0  0  0  0  0  0  0  0  0  0  0
  161.4560  210.3540  155.3290 C   0  0  0  0  0  2  0  0  0  0  0  0
  160.3960  210.7120  156.2590 N   0  0  0  0  0  0  0  0  0  0  0  0
  159.4140  209.6870  156.6110 C   0  0  0  0  0  2  0  0  0  0  0  0
  157.7890  211.4550  156.5200 O   0  0  0  0  0  0  0  0  0  0  0  0
  158.1650  210.3190  157.2580 C   0  0  0  0  0  2  0  0  0  0  0  0
  161.0310  212.9580  156.4800 O   0  0  0  0  0  0  0  0  0  0  0  0
  160.1070  212.0940  156.5120 C   0  0  0  0  0  0  0  0  0  0  0  0
  158.6880  212.4910  156.8630 C   0  0  1  0  0  3  0  0  0  0  0  0
  158.3210  213.7520  156.0770 C   0  0  0  0  0  2  0  0  0  0  0  0
  156.0900  214.2420  155.1360 N   0  0  0  0  0  0  0  0  0  0  0  0
  156.9780  214.3550  152.5980 O   0  0  0  0  0  0  0  0  0  0  0  0
  155.7330  213.8620  152.7610 O   0  0  0  0  0  0  0  0  0  0  0  0
  157.3750  213.5450  154.8710 C   0  0  1  0  0  0  0  0  0  0  0  0
  159.1230  214.4510  153.4400 O   0  0  0  0  0  0  0  0  0  0  0  0
  155.3800  213.5650  156.0820 O   0  0  0  0  0  1  0  0  0  0  0  0
  155.2120  214.4280  153.9510 C   0  0  0  0  0  2  0  0  0  0  0  0
  157.9200  214.1180  153.5910 C   0  0  0  0  0  0  0  0  0  0  0  0
  157.1360  212.0230  154.7020 C   0  0  0  0  0  2  0  0  0  0  0  0
  157.6210  211.4320  153.4040 C   0  0  0  0  0  0  0  0  0  0  0  0
  156.8220  211.2410  152.4440 O   0  0  0  0  0  0  0  0  0  0  0  0
  159.5850  211.0660  152.0960 C   0  0  0  0  0  2  0  0  0  0  0  0
  159.0100  211.1460  153.2530 N   0  0  0  0  0  0  0  0  0  0  0  0
  1 35  1  0  0  0  0
  2  3  1  0  0  0  0
  2  4  1  0  0  0  0
  3  1  1  0  0  0  0
  3  6  1  0  0  0  0
  4  6  1  0  0  0  0
  5  2  1  0  0  0  0
  5  4  1  0  0  0  0
  7  5  1  0  0  0  0
  8  7  1  0  0  0  0
  9  7  1  0  0  0  0
 10  9  1  0  0  0  0
 11 10  1  0  0  0  0
 12 14  1  0  0  0  0
 12 18  1  0  0  0  0
 13 10  1  0  0  0  0
 13 17  1  0  0  0  0
 14 13  2  0  0  0  0
 15 14  1  0  0  0  0
 15 11  1  0  0  0  0
 18 16  1  0  0  0  0
 18 17  2  0  0  0  0
 19 12  1  0  0  0  0
 20 19  1  0  0  0  0
 21  1  1  0  0  0  0
 22 21  1  0  0  0  0
 23 24  1  0  0  0  0
 23 22  1  0  0  0  0
 24 25  2  0  0  0  0
 25 26  1  0  0  0  0
 27 26  1  0  0  0  0
 28 27  1  0  0  0  0
 29 28  1  0  0  0  0
 29 27  1  0  0  0  0
 30 28  1  0  0  0  0
 31 30  1  0  0  0  0
 32 33  1  0  0  0  0
 32 31  1  0  0  0  0
 33 34  1  0  0  0  0
 35 38  1  0  0  0  0
 36 40  1  0  0  0  0
 37 41  1  0  0  0  0
 38 36  2  0  0  0  0
 39 37  2  0  0  0  0
 39 38  1  0  0  0  0
 41 42  1  0  0  0  0
 41 40  2  0  0  0  0
 42 43  1  0  0  0  0
 43 48  1  0  0  0  0
 43 44  1  0  0  0  0
 44 46  1  0  0  0  0
 45 49  1  0  0  0  0
 45 46  1  0  0  0  0
 47 48  2  0  0  0  0
 48 49  1  0  0  0  0
 50 49  1  0  0  0  0
 51 56  1  0  0  0  0
 52 53  1  0  0  0  0
 52 58  1  0  0  0  0
 53 57  1  0  0  0  0
 54 51  1  0  0  0  0
 54 50  1  0  0  0  0
 55 58  2  0  0  0  0
 57 51  1  0  0  0  0
 58 54  1  0  0  0  0
 59 54  1  0  0  0  0
 60 59  1  0  0  0  0
 61 60  2  0  0  0  0
 62 63  2  0  0  0  0
 63 60  1  0  0  0  0
M  END
>  <MODEL>
3

>  <REMARK>
 VINA RESULT:      -2.7      3.752     10.085
  Name = 
  24 active torsions:
  status: ('A' for Active; 'I' for Inactive)
    1  A    between atoms: C_1  and  N_27
    2  A    between atoms: C_1  and  C_48
    3  A    between atoms: C_2  and  N_14
    4  A    between atoms: C_2  and  C_57
    5  A    between atoms: C_3  and  C_4
    6  A    between atoms: C_3  and  N_26
    7  A    between atoms: C_4  and  C_34
    8  A    between atoms: N_6  and  C_12
    9  A    between atoms: N_6  and  C_17
   10  A    between atoms: N_6  and  C_45
   11  A    between atoms: C_7  and  C_56
   12  A    between atoms: C_10  and  O_47
   13  A    between atoms: C_12  and  C_31
   14  A    between atoms: C_13  and  C_25
   15  A    between atoms: C_13  and  C_61
   16  A    between atoms: C_15  and  C_39
   17  A    between atoms: C_15  and  O_47
   18  A    between atoms: N_21  and  C_32
   19  A    between atoms: C_22  and  C_29
   20  A    between atoms: C_23  and  C_29
   21  A    between atoms: C_23  and  C_45
   22  A    between atoms: C_25  and  C_48
   23  A    between atoms: N_26  and  C_43
   24  A    between atoms: C_56  and  C_59
                            x       y       z     vdW  Elec       q    Type
                         _______ _______ _______ _____ _____    ______ ____

>  <TORSDO>
F 24

$$$$
=
 OpenBabel11052409473D

 63 70  0  0  1  0  0  0  0  0999 V2000
  162.0720  212.9630  148.5660 N   0  0  0  0  0  0  0  0  0  0  0  0
  160.7190  213.5670  146.5010 C   0  0  2  0  0  3  0  0  0  0  0  0
  161.9920  213.7510  147.3280 C   0  0  2  0  0  3  0  0  0  0  0  0
  161.5200  212.8780  145.4170 C   0  0  1  0  0  3  0  0  0  0  0  0
  160.9170  214.2450  145.1540 C   0  0  1  0  0  3  0  0  0  0  0  0
  162.7850  213.0480  146.2430 C   0  0  0  0  0  2  0  0  0  0  0  0
  159.7040  214.1430  144.2160 C   0  0  2  0  0  3  0  0  0  0  0  0
  158.9950  212.9750  144.5190 O   0  0  0  0  0  1  0  0  0  0  0  0
  160.0530  214.1470  142.8520 O   0  0  0  0  0  0  0  0  0  0  0  0
  159.1600  213.2590  142.2390 C   0  0  1  0  0  3  0  0  0  0  0  0
  158.2530  214.0350  141.2670 C   0  0  0  0  0  2  0  0  0  0  0  0
  160.6780  211.6520  139.3930 N   0  0  0  0  0  0  0  0  0  0  0  0
  159.9080  212.2840  141.4110 C   0  0  0  0  0  0  0  0  0  0  0  0
  159.6190  212.2280  140.1440 C   0  0  0  0  0  0  0  0  0  0  0  0
  158.3680  213.3390  139.5590 S   0  0  0  0  0  0  0  0  0  0  0  0
  162.8120  210.7850  140.1990 C   0  0  0  0  0  1  0  0  0  0  0  0
  161.1640  211.6900  141.7180 N   0  0  0  0  0  0  0  0  0  0  0  0
  161.5870  211.2540  140.4250 C   0  0  0  0  0  0  0  0  0  0  0  0
  160.4900  211.0160  138.0960 C   0  0  0  0  0  2  0  0  0  0  0  0
  161.4520  211.4580  137.1920 O   0  0  0  0  0  1  0  0  0  0  0  0
  160.7060  212.7920  149.0350 C   0  0  0  0  0  2  0  0  0  0  0  0
  160.3560  213.8920  150.0220 C   0  0  0  0  0  2  0  0  0  0  0  0
  158.8490  213.9730  150.1790 C   0  0  0  0  0  2  0  0  0  0  0  0
  158.4270  213.7120  151.5950 C   0  0  0  0  0  3  0  0  0  0  0  0
  158.3180  212.4780  152.0840 C   0  0  0  0  0  3  0  0  0  0  0  0
  157.9170  212.2960  153.5120 C   0  0  0  0  0  2  0  0  0  0  0  0
  159.0530  211.6830  154.3080 C   0  0  2  0  0  3  0  0  0  0  0  0
  159.0280  212.2330  155.6870 C   0  0  2  0  0  3  0  0  0  0  0  0
  159.9410  212.6970  154.7230 O   0  0  0  0  0  0  0  0  0  0  0  0
  159.7130  211.3370  156.7250 C   0  0  0  0  0  2  0  0  0  0  0  0
  161.2310  211.1950  156.6030 C   0  0  0  0  0  2  0  0  0  0  0  0
  161.6460  209.8750  157.0540 N   0  0  0  0  0  2  0  0  0  0  0  0
  161.5800  209.0030  155.8920 C   0  0  0  0  0  2  0  0  0  0  0  0
  160.8560  207.7310  156.2640 C   0  0  0  0  0  1  0  0  0  0  0  0
  162.6000  211.6090  148.3770 C   0  0  0  0  0  2  0  0  0  0  0  0
  161.7990  209.3570  149.1230 C   0  0  0  0  0  3  0  0  0  0  0  0
  161.3780  210.3010  151.7280 C   0  0  0  0  0  3  0  0  0  0  0  0
  162.0610  210.7000  149.4330 C   0  0  0  0  0  0  0  0  0  0  0  0
  161.8360  211.1690  150.7360 C   0  0  0  0  0  3  0  0  0  0  0  0
  161.3380  208.4850  150.1160 C   0  0  0  0  0  3  0  0  0  0  0  0
  161.1310  208.9560  151.4200 C   0  0  0  0  0  0  0  0  0  0  0  0
  160.7490  208.0110  152.5110 C   0  0  0  0  0  2  0  0  0  0  0  0
  161.6280  206.8520  152.5450 N   0  0  0  0  0  0  0  0  0  0  0  0
  163.0030  207.0180  152.0760 C   0  0  0  0  0  2  0  0  0  0  0  0
  162.7510  204.8380  151.0980 O   0  0  0  0  0  0  0  0  0  0  0  0
  163.6600  205.6500  151.7990 C   0  0  0  0  0  2  0  0  0  0  0  0
  160.0030  205.3530  153.3230 O   0  0  0  0  0  0  0  0  0  0  0  0
  161.0690  205.5370  152.6660 C   0  0  0  0  0  0  0  0  0  0  0  0
  161.8000  204.3710  152.0350 C   0  0  1  0  0  3  0  0  0  0  0  0
  160.7820  203.4830  151.3140 C   0  0  0  0  0  2  0  0  0  0  0  0
  160.9050  204.9960  149.3660 N   0  0  0  0  0  0  0  0  0  0  0  0
  162.2420  203.2290  147.8400 O   0  0  0  0  0  0  0  0  0  0  0  0
  161.3770  204.0300  147.1850 O   0  0  0  0  0  0  0  0  0  0  0  0
  160.7810  203.5730  149.7700 C   0  0  1  0  0  0  0  0  0  0  0  0
  162.6440  202.0060  149.7540 O   0  0  0  0  0  0  0  0  0  0  0  0
  159.7380  205.6540  149.6180 O   0  0  0  0  0  1  0  0  0  0  0  0
  161.2590  205.2240  147.9400 C   0  0  0  0  0  2  0  0  0  0  0  0
  161.9350  202.8440  149.1380 C   0  0  0  0  0  0  0  0  0  0  0  0
  159.4440  202.9810  149.2550 C   0  0  0  0  0  2  0  0  0  0  0  0
  159.4260  201.4860  149.0720 C   0  0  0  0  0  0  0  0  0  0  0  0
  159.3920  200.7140  150.0720 O   0  0  0  0  0  0  0  0  0  0  0  0
  160.3710  201.0780  146.9180 C   0  0  0  0  0  2  0  0  0  0  0  0
  159.3880  200.9530  147.7500 N   0  0  0  0  0  0  0  0  0  0  0  0
  1 21  1  0  0  0  0
  2  3  1  0  0  0  0
  3  1  1  0  0  0  0
  4  6  1  0  0  0  0
  4  2  1  0  0  0  0
  5  4  1  0  0  0  0
  5  2  1  0  0  0  0
  6  3  1  0  0  0  0
  7  8  1  0  0  0  0
  7  5  1  0  0  0  0
  9  7  1  0  0  0  0
 10  9  1  0  0  0  0
 11 10  1  0  0  0  0
 12 14  1  0  0  0  0
 12 18  1  0  0  0  0
 13 17  1  0  0  0  0
 13 10  1  0  0  0  0
 14 13  2  0  0  0  0
 15 14  1  0  0  0  0
 15 11  1  0  0  0  0
 16 18  1  0  0  0  0
 18 17  2  0  0  0  0
 19 12  1  0  0  0  0
 20 19  1  0  0  0  0
 21 22  1  0  0  0  0
 22 23  1  0  0  0  0
 23 24  1  0  0  0  0
 24 25  2  0  0  0  0
 25 26  1  0  0  0  0
 26 27  1  0  0  0  0
 27 29  1  0  0  0  0
 27 28  1  0  0  0  0
 28 30  1  0  0  0  0
 29 28  1  0  0  0  0
 31 30  1  0  0  0  0
 31 32  1  0  0  0  0
 33 34  1  0  0  0  0
 33 32  1  0  0  0  0
 35  1  1  0  0  0  0
 35 38  1  0  0  0  0
 36 38  2  0  0  0  0
 36 40  1  0  0  0  0
 38 39  1  0  0  0  0
 39 37  2  0  0  0  0
 40 41  2  0  0  0  0
 41 37  1  0  0  0  0
 41 42  1  0  0  0  0
 42 43  1  0  0  0  0
 43 48  1  0  0  0  0
 44 43  1  0  0  0  0
 45 46  1  0  0  0  0
 45 49  1  0  0  0  0
 46 44  1  0  0  0  0
 48 47  2  0  0  0  0
 49 48  1  0  0  0  0
 50 49  1  0  0  0  0
 51 56  1  0  0  0  0
 51 54  1  0  0  0  0
 52 58  1  0  0  0  0
 53 52  1  0  0  0  0
 53 57  1  0  0  0  0
 54 50  1  0  0  0  0
 57 51  1  0  0  0  0
 58 55  2  0  0  0  0
 58 54  1  0  0  0  0
 59 54  1  0  0  0  0
 60 59  1  0  0  0  0
 60 61  2  0  0  0  0
 62 63  2  0  0  0  0
 63 60  1  0  0  0  0
M  END
>  <MODEL>
4

>  <REMARK>
 VINA RESULT:      -2.0      1.742      2.455
  Name = 
  24 active torsions:
  status: ('A' for Active; 'I' for Inactive)
    1  A    between atoms: C_1  and  N_27
    2  A    between atoms: C_1  and  C_48
    3  A    between atoms: C_2  and  N_14
    4  A    between atoms: C_2  and  C_57
    5  A    between atoms: C_3  and  C_4
    6  A    between atoms: C_3  and  N_26
    7  A    between atoms: C_4  and  C_34
    8  A    between atoms: N_6  and  C_12
    9  A    between atoms: N_6  and  C_17
   10  A    between atoms: N_6  and  C_45
   11  A    between atoms: C_7  and  C_56
   12  A    between atoms: C_10  and  O_47
   13  A    between atoms: C_12  and  C_31
   14  A    between atoms: C_13  and  C_25
   15  A    between atoms: C_13  and  C_61
   16  A    between atoms: C_15  and  C_39
   17  A    between atoms: C_15  and  O_47
   18  A    between atoms: N_21  and  C_32
   19  A    between atoms: C_22  and  C_29
   20  A    between atoms: C_23  and  C_29
   21  A    between atoms: C_23  and  C_45
   22  A    between atoms: C_25  and  C_48
   23  A    between atoms: N_26  and  C_43
   24  A    between atoms: C_56  and  C_59
                            x       y       z     vdW  Elec       q    Type
                         _______ _______ _______ _____ _____    ______ ____

>  <TORSDO>
F 24

$$$$
=
 OpenBabel11052409473D

 63 70  0  0  1  0  0  0  0  0999 V2000
  161.6130  208.0790  151.6310 N   0  0  0  0  0  0  0  0  0  0  0  0
  161.3240  205.5790  151.2720 C   0  0  2  0  0  3  0  0  0  0  0  0
  162.2020  206.7370  151.7490 C   0  0  2  0  0  3  0  0  0  0  0  0
  161.1830  205.0950  152.6990 C   0  0  1  0  0  3  0  0  0  0  0  0
  161.9750  204.2730  151.7000 C   0  0  1  0  0  3  0  0  0  0  0  0
  162.0440  206.2540  153.1780 C   0  0  0  0  0  2  0  0  0  0  0  0
  161.1980  203.0170  151.2770 C   0  0  2  0  0  3  0  0  0  0  0  0
  160.3060  202.6710  152.2990 O   0  0  0  0  0  1  0  0  0  0  0  0
  162.0300  201.9210  150.9820 O   0  0  0  0  0  0  0  0  0  0  0  0
  161.1950  200.9730  150.3780 C   0  0  1  0  0  3  0  0  0  0  0  0
  159.7430  201.2040  150.8340 C   0  0  0  0  0  2  0  0  0  0  0  0
  160.2250  202.0200  147.0690 N   0  0  0  0  0  0  0  0  0  0  0  0
  161.1980  201.1630  148.9090 C   0  0  0  0  0  0  0  0  0  0  0  0
  160.0550  201.3930  148.3320 C   0  0  0  0  0  0  0  0  0  0  0  0
  158.6290  201.4630  149.3830 S   0  0  0  0  0  0  0  0  0  0  0  0
  162.3050  202.6250  145.9440 C   0  0  0  0  0  1  0  0  0  0  0  0
  162.3090  201.5270  148.0970 N   0  0  0  0  0  0  0  0  0  0  0  0
  161.6490  202.0080  146.9250 C   0  0  0  0  0  0  0  0  0  0  0  0
  159.2350  201.9610  146.0020 C   0  0  0  0  0  2  0  0  0  0  0  0
  159.6740  201.1290  144.9760 O   0  0  0  0  0  1  0  0  0  0  0  0
  161.1290  208.1980  150.2650 C   0  0  0  0  0  2  0  0  0  0  0  0
  162.0120  209.1570  149.4840 C   0  0  0  0  0  2  0  0  0  0  0  0
  162.6290  208.4310  148.3030 C   0  0  0  0  0  2  0  0  0  0  0  0
  161.8510  207.2000  147.9450 C   0  0  0  0  0  3  0  0  0  0  0  0
  161.3250  207.0230  146.7340 C   0  0  0  0  0  3  0  0  0  0  0  0
  160.5830  205.7590  146.4410 C   0  0  0  0  0  2  0  0  0  0  0  0
  161.1810  205.0620  145.2340 C   0  0  2  0  0  3  0  0  0  0  0  0
  161.0080  205.9300  144.0420 C   0  0  2  0  0  3  0  0  0  0  0  0
  160.1730  204.8240  144.2780 O   0  0  0  0  0  0  0  0  0  0  0  0
  162.0100  205.6480  142.9170 C   0  0  0  0  0  2  0  0  0  0  0  0
  161.6610  206.2090  141.5380 C   0  0  0  0  0  2  0  0  0  0  0  0
  162.5330  207.3300  141.2200 N   0  0  0  0  0  2  0  0  0  0  0  0
  162.0900  207.8440  139.9340 C   0  0  0  0  0  2  0  0  0  0  0  0
  161.9550  206.6980  138.9600 C   0  0  0  0  0  1  0  0  0  0  0  0
  160.4430  208.2930  152.4880 C   0  0  0  0  0  2  0  0  0  0  0  0
  161.0030  210.6790  151.9720 C   0  0  0  0  0  3  0  0  0  0  0  0
  158.6940  211.5700  153.2900 C   0  0  0  0  0  3  0  0  0  0  0  0
  160.1410  209.7540  152.5810 C   0  0  0  0  0  0  0  0  0  0  0  0
  158.9940  210.2070  153.2500 C   0  0  0  0  0  3  0  0  0  0  0  0
  160.7050  212.0460  152.0130 C   0  0  0  0  0  3  0  0  0  0  0  0
  159.5490  212.4920  152.6690 C   0  0  0  0  0  0  0  0  0  0  0  0
  159.1640  213.9330  152.6200 C   0  0  0  0  0  2  0  0  0  0  0  0
  158.2990  214.2170  151.4850 N   0  0  0  0  0  0  0  0  0  0  0  0
  156.8530  214.1860  151.6980 C   0  0  0  0  0  2  0  0  0  0  0  0
  156.7280  213.1520  149.5320 O   0  0  0  0  0  0  0  0  0  0  0  0
  156.0990  214.1030  150.3550 C   0  0  0  0  0  2  0  0  0  0  0  0
  160.0340  214.4530  149.9260 O   0  0  0  0  0  0  0  0  0  0  0  0
  158.8260  214.1490  150.1530 C   0  0  0  0  0  0  0  0  0  0  0  0
  157.9010  213.7540  149.0210 C   0  0  1  0  0  3  0  0  0  0  0  0
  158.6260  212.7500  148.1200 C   0  0  0  0  0  2  0  0  0  0  0  0
  159.2870  212.0620  145.8420 N   0  0  0  0  0  0  0  0  0  0  0  0
  157.8330  213.9800  144.6380 O   0  0  0  0  0  0  0  0  0  0  0  0
  158.9900  213.6530  144.0270 O   0  0  0  0  0  0  0  0  0  0  0  0
  158.9420  213.2350  146.6860 C   0  0  1  0  0  0  0  0  0  0  0  0
  156.7630  214.3180  146.6530 O   0  0  0  0  0  0  0  0  0  0  0  0
  160.5200  211.5900  146.1830 O   0  0  0  0  0  1  0  0  0  0  0  0
  159.2830  212.3100  144.3760 C   0  0  0  0  0  2  0  0  0  0  0  0
  157.7740  213.9130  146.0240 C   0  0  0  0  0  0  0  0  0  0  0  0
  160.1420  214.2140  146.7610 C   0  0  0  0  0  2  0  0  0  0  0  0
  161.5020  213.5830  146.6170 C   0  0  0  0  0  0  0  0  0  0  0  0
  161.8850  212.6830  147.4160 O   0  0  0  0  0  0  0  0  0  0  0  0
  163.2920  213.2350  145.0760 C   0  0  0  0  0  2  0  0  0  0  0  0
  162.3310  213.9760  145.5250 N   0  0  0  0  0  0  0  0  0  0  0  0
  1  3  1  0  0  0  0
  1 35  1  0  0  0  0
  2  5  1  0  0  0  0
  2  3  1  0  0  0  0
  2  4  1  0  0  0  0
  3  6  1  0  0  0  0
  4  6  1  0  0  0  0
  5  4  1  0  0  0  0
  7  5  1  0  0  0  0
  7  8  1  0  0  0  0
  9  7  1  0  0  0  0
 10 11  1  0  0  0  0
 10  9  1  0  0  0  0
 12 14  1  0  0  0  0
 13 10  1  0  0  0  0
 14 13  2  0  0  0  0
 14 15  1  0  0  0  0
 15 11  1  0  0  0  0
 16 18  1  0  0  0  0
 17 13  1  0  0  0  0
 18 12  1  0  0  0  0
 18 17  2  0  0  0  0
 19 12  1  0  0  0  0
 20 19  1  0  0  0  0
 21  1  1  0  0  0  0
 22 21  1  0  0  0  0
 23 22  1  0  0  0  0
 24 23  1  0  0  0  0
 25 24  2  0  0  0  0
 26 25  1  0  0  0  0
 27 26  1  0  0  0  0
 28 29  1  0  0  0  0
 28 27  1  0  0  0  0
 29 27  1  0  0  0  0
 30 28  1  0  0  0  0
 31 30  1  0  0  0  0
 32 31  1  0  0  0  0
 33 32  1  0  0  0  0
 34 33  1  0  0  0  0
 35 38  1  0  0  0  0
 36 40  2  0  0  0  0
 36 38  1  0  0  0  0
 38 39  2  0  0  0  0
 39 37  1  0  0  0  0
 40 41  1  0  0  0  0
 41 37  2  0  0  0  0
 42 41  1  0  0  0  0
 43 44  1  0  0  0  0
 43 42  1  0  0  0  0
 45 46  1  0  0  0  0
 46 44  1  0  0  0  0
 47 48  2  0  0  0  0
 48 43  1  0  0  0  0
 49 45  1  0  0  0  0
 49 48  1  0  0  0  0
 50 49  1  0  0  0  0
 51 56  1  0  0  0  0
 51 54  1  0  0  0  0
 52 58  1  0  0  0  0
 53 57  1  0  0  0  0
 53 52  1  0  0  0  0
 54 59  1  0  0  0  0
 54 50  1  0  0  0  0
 57 51  1  0  0  0  0
 58 55  2  0  0  0  0
 58 54  1  0  0  0  0
 60 59  1  0  0  0  0
 60 61  2  0  0  0  0
 62 63  2  0  0  0  0
 63 60  1  0  0  0  0
M  END
>  <MODEL>
5

>  <REMARK>
 VINA RESULT:      -1.3      3.508     10.766
  Name = 
  24 active torsions:
  status: ('A' for Active; 'I' for Inactive)
    1  A    between atoms: C_1  and  N_27
    2  A    between atoms: C_1  and  C_48
    3  A    between atoms: C_2  and  N_14
    4  A    between atoms: C_2  and  C_57
    5  A    between atoms: C_3  and  C_4
    6  A    between atoms: C_3  and  N_26
    7  A    between atoms: C_4  and  C_34
    8  A    between atoms: N_6  and  C_12
    9  A    between atoms: N_6  and  C_17
   10  A    between atoms: N_6  and  C_45
   11  A    between atoms: C_7  and  C_56
   12  A    between atoms: C_10  and  O_47
   13  A    between atoms: C_12  and  C_31
   14  A    between atoms: C_13  and  C_25
   15  A    between atoms: C_13  and  C_61
   16  A    between atoms: C_15  and  C_39
   17  A    between atoms: C_15  and  O_47
   18  A    between atoms: N_21  and  C_32
   19  A    between atoms: C_22  and  C_29
   20  A    between atoms: C_23  and  C_29
   21  A    between atoms: C_23  and  C_45
   22  A    between atoms: C_25  and  C_48
   23  A    between atoms: N_26  and  C_43
   24  A    between atoms: C_56  and  C_59
                            x       y       z     vdW  Elec       q    Type
                         _______ _______ _______ _____ _____    ______ ____

>  <TORSDO>
F 24

$$$$
=
 OpenBabel11052409473D

 63 70  0  0  1  0  0  0  0  0999 V2000
  161.8910  206.7020  147.7220 N   0  0  0  0  0  0  0  0  0  0  0  0
  161.9270  209.2380  147.8970 C   0  0  2  0  0  3  0  0  0  0  0  0
  161.4140  207.8990  148.4290 C   0  0  2  0  0  3  0  0  0  0  0  0
  162.7400  209.4300  149.1600 C   0  0  1  0  0  3  0  0  0  0  0  0
  161.5480  210.3280  148.8870 C   0  0  1  0  0  3  0  0  0  0  0  0
  162.2400  208.0930  149.6850 C   0  0  0  0  0  2  0  0  0  0  0  0
  161.9990  211.7370  148.4720 C   0  0  2  0  0  3  0  0  0  0  0  0
  163.2950  211.9560  148.9530 O   0  0  0  0  0  1  0  0  0  0  0  0
  161.1430  212.7540  148.9350 O   0  0  0  0  0  0  0  0  0  0  0  0
  161.1260  213.7160  147.9170 C   0  0  1  0  0  3  0  0  0  0  0  0
  161.6260  213.0840  146.6060 C   0  0  0  0  0  2  0  0  0  0  0  0
  157.8520  213.9800  146.4340 N   0  0  0  0  0  0  0  0  0  0  0  0
  159.7340  214.1510  147.6570 C   0  0  0  0  0  0  0  0  0  0  0  0
  159.2730  213.9950  146.4510 C   0  0  0  0  0  0  0  0  0  0  0  0
  160.3680  213.2660  145.2640 S   0  0  0  0  0  0  0  0  0  0  0  0
  156.3100  214.2410  148.3080 C   0  0  0  0  0  1  0  0  0  0  0  0
  158.7040  214.3400  148.6220 N   0  0  0  0  0  0  0  0  0  0  0  0
  157.5390  214.2830  147.7980 C   0  0  0  0  0  0  0  0  0  0  0  0
  157.0590  214.3100  145.2580 C   0  0  0  0  0  2  0  0  0  0  0  0
  155.7000  214.2380  145.5510 O   0  0  0  0  0  1  0  0  0  0  0  0
  162.3130  205.7590  148.7450 C   0  0  0  0  0  2  0  0  0  0  0  0
  161.1000  205.2210  149.4850 C   0  0  0  0  0  2  0  0  0  0  0  0
  161.5480  204.2170  150.5310 C   0  0  0  0  0  2  0  0  0  0  0  0
  161.3690  204.7520  151.9210 C   0  0  0  0  0  3  0  0  0  0  0  0
  161.3370  206.0580  152.1770 C   0  0  0  0  0  3  0  0  0  0  0  0
  161.1300  206.5180  153.5840 C   0  0  0  0  0  2  0  0  0  0  0  0
  160.3780  207.8350  153.6060 C   0  0  2  0  0  3  0  0  0  0  0  0
  161.3560  208.9480  153.6990 C   0  0  2  0  0  3  0  0  0  0  0  0
  160.6310  208.5050  154.8200 O   0  0  0  0  0  0  0  0  0  0  0  0
  160.8240  210.2870  153.1800 C   0  0  0  0  0  2  0  0  0  0  0  0
  160.7690  211.4350  154.1890 C   0  0  0  0  0  2  0  0  0  0  0  0
  159.3840  211.7980  154.4560 N   0  0  0  0  0  2  0  0  0  0  0  0
  159.3800  212.4910  155.7350 C   0  0  0  0  0  2  0  0  0  0  0  0
  158.0130  212.3640  156.3640 C   0  0  0  0  0  1  0  0  0  0  0  0
  160.8530  206.0140  146.9500 C   0  0  0  0  0  2  0  0  0  0  0  0
  162.4680  205.5560  145.0920 C   0  0  0  0  0  3  0  0  0  0  0  0
  160.6110  206.4270  143.1800 C   0  0  0  0  0  3  0  0  0  0  0  0
  161.2080  206.0220  145.4990 C   0  0  0  0  0  0  0  0  0  0  0  0
  160.2880  206.4680  144.5380 C   0  0  0  0  0  3  0  0  0  0  0  0
  162.7950  205.5160  143.7310 C   0  0  0  0  0  3  0  0  0  0  0  0
  161.8640  205.9480  142.7750 C   0  0  0  0  0  0  0  0  0  0  0  0
  162.1590  205.8020  141.3190 C   0  0  0  0  0  2  0  0  0  0  0  0
  162.5060  207.0790  140.7130 N   0  0  0  0  0  0  0  0  0  0  0  0
  163.4940  207.9160  141.3920 C   0  0  0  0  0  2  0  0  0  0  0  0
  162.1050  209.7720  140.7580 O   0  0  0  0  0  0  0  0  0  0  0  0
  163.4460  209.3640  140.8630 C   0  0  0  0  0  2  0  0  0  0  0  0
  160.9910  206.9090  138.9320 O   0  0  0  0  0  0  0  0  0  0  0  0
  161.6460  207.6530  139.7190 C   0  0  0  0  0  0  0  0  0  0  0  0
  161.5730  209.1610  139.5990 C   0  0  1  0  0  3  0  0  0  0  0  0
  160.1060  209.5720  139.4460 C   0  0  0  0  0  2  0  0  0  0  0  0
  160.3830  211.9010  140.2200 N   0  0  0  0  0  0  0  0  0  0  0  0
  160.7260  212.8840  137.7380 O   0  0  0  0  0  0  0  0  0  0  0  0
  160.0850  213.6940  138.6050 O   0  0  0  0  0  0  0  0  0  0  0  0
  159.8530  211.0620  139.1150 C   0  0  1  0  0  0  0  0  0  0  0  0
  161.0250  210.7150  137.0110 O   0  0  0  0  0  0  0  0  0  0  0  0
  159.5810  211.7880  141.3160 O   0  0  0  0  0  1  0  0  0  0  0  0
  160.5260  213.3470  139.9060 C   0  0  0  0  0  2  0  0  0  0  0  0
  160.5490  211.5120  137.8600 C   0  0  0  0  0  0  0  0  0  0  0  0
  158.3230  211.2690  138.9680 C   0  0  0  0  0  2  0  0  0  0  0  0
  157.6020  210.2150  138.1700 C   0  0  0  0  0  0  0  0  0  0  0  0
  157.9950  209.9010  137.0110 O   0  0  0  0  0  0  0  0  0  0  0  0
  155.4460  210.1490  139.1940 C   0  0  0  0  0  2  0  0  0  0  0  0
  156.5000  209.5330  138.7650 N   0  0  0  0  0  0  0  0  0  0  0  0
  1  3  1  0  0  0  0
  1 21  1  0  0  0  0
  2  3  1  0  0  0  0
  2  5  1  0  0  0  0
  2  4  1  0  0  0  0
  3  6  1  0  0  0  0
  4  6  1  0  0  0  0
  5  4  1  0  0  0  0
  7  5  1  0  0  0  0
  7  9  1  0  0  0  0
  7  8  1  0  0  0  0
 10  9  1  0  0  0  0
 11 10  1  0  0  0  0
 12 14  1  0  0  0  0
 12 18  1  0  0  0  0
 13 10  1  0  0  0  0
 13 17  1  0  0  0  0
 14 13  2  0  0  0  0
 15 14  1  0  0  0  0
 15 11  1  0  0  0  0
 18 16  1  0  0  0  0
 18 17  2  0  0  0  0
 19 20  1  0  0  0  0
 19 12  1  0  0  0  0
 21 22  1  0  0  0  0
 22 23  1  0  0  0  0
 23 24  1  0  0  0  0
 24 25  2  0  0  0  0
 25 26  1  0  0  0  0
 26 27  1  0  0  0  0
 27 28  1  0  0  0  0
 27 29  1  0  0  0  0
 28 29  1  0  0  0  0
 30 28  1  0  0  0  0
 30 31  1  0  0  0  0
 31 32  1  0  0  0  0
 32 33  1  0  0  0  0
 33 34  1  0  0  0  0
 35  1  1  0  0  0  0
 36 38  1  0  0  0  0
 37 39  1  0  0  0  0
 38 35  1  0  0  0  0
 39 38  2  0  0  0  0
 40 36  2  0  0  0  0
 41 37  2  0  0  0  0
 41 40  1  0  0  0  0
 42 41  1  0  0  0  0
 43 42  1  0  0  0  0
 43 44  1  0  0  0  0
 45 46  1  0  0  0  0
 46 44  1  0  0  0  0
 47 48  2  0  0  0  0
 48 43  1  0  0  0  0
 49 48  1  0  0  0  0
 49 45  1  0  0  0  0
 50 49  1  0  0  0  0
 51 56  1  0  0  0  0
 52 58  1  0  0  0  0
 52 53  1  0  0  0  0
 53 57  1  0  0  0  0
 54 50  1  0  0  0  0
 54 51  1  0  0  0  0
 55 58  2  0  0  0  0
 57 51  1  0  0  0  0
 58 54  1  0  0  0  0
 59 54  1  0  0  0  0
 60 63  1  0  0  0  0
 60 59  1  0  0  0  0
 61 60  2  0  0  0  0
 63 62  2  0  0  0  0
M  END
>  <MODEL>
6

>  <REMARK>
 VINA RESULT:      -1.3      3.294      8.983
  Name = 
  24 active torsions:
  status: ('A' for Active; 'I' for Inactive)
    1  A    between atoms: C_1  and  N_27
    2  A    between atoms: C_1  and  C_48
    3  A    between atoms: C_2  and  N_14
    4  A    between atoms: C_2  and  C_57
    5  A    between atoms: C_3  and  C_4
    6  A    between atoms: C_3  and  N_26
    7  A    between atoms: C_4  and  C_34
    8  A    between atoms: N_6  and  C_12
    9  A    between atoms: N_6  and  C_17
   10  A    between atoms: N_6  and  C_45
   11  A    between atoms: C_7  and  C_56
   12  A    between atoms: C_10  and  O_47
   13  A    between atoms: C_12  and  C_31
   14  A    between atoms: C_13  and  C_25
   15  A    between atoms: C_13  and  C_61
   16  A    between atoms: C_15  and  C_39
   17  A    between atoms: C_15  and  O_47
   18  A    between atoms: N_21  and  C_32
   19  A    between atoms: C_22  and  C_29
   20  A    between atoms: C_23  and  C_29
   21  A    between atoms: C_23  and  C_45
   22  A    between atoms: C_25  and  C_48
   23  A    between atoms: N_26  and  C_43
   24  A    between atoms: C_56  and  C_59
                            x       y       z     vdW  Elec       q    Type
                         _______ _______ _______ _____ _____    ______ ____

>  <TORSDO>
F 24

$$$$
=
 OpenBabel11052409473D

 63 70  0  0  1  0  0  0  0  0999 V2000
  161.6820  206.5840  147.8970 N   0  0  0  0  0  0  0  0  0  0  0  0
  161.3300  204.5720  149.4090 C   0  0  2  0  0  3  0  0  0  0  0  0
  161.5180  206.0830  149.2690 C   0  0  2  0  0  3  0  0  0  0  0  0
  159.8990  204.7890  149.8530 C   0  0  1  0  0  3  0  0  0  0  0  0
  160.9240  204.2670  150.8430 C   0  0  1  0  0  3  0  0  0  0  0  0
  160.0800  206.2910  149.7030 C   0  0  0  0  0  2  0  0  0  0  0  0
  160.7070  202.7730  151.1290 C   0  0  2  0  0  3  0  0  0  0  0  0
  160.4990  202.6020  152.5030 O   0  0  0  0  0  1  0  0  0  0  0  0
  161.7790  201.9640  150.7070 O   0  0  0  0  0  0  0  0  0  0  0  0
  161.2010  200.9710  149.9070 C   0  0  1  0  0  3  0  0  0  0  0  0
  159.6810  200.9380  150.1490 C   0  0  0  0  0  2  0  0  0  0  0  0
  160.5510  202.1990  146.5820 N   0  0  0  0  0  0  0  0  0  0  0  0
  161.3800  201.3090  148.4750 C   0  0  0  0  0  0  0  0  0  0  0  0
  160.3080  201.4260  147.7490 C   0  0  0  0  0  0  0  0  0  0  0  0
  158.7550  201.1780  148.5670 S   0  0  0  0  0  0  0  0  0  0  0  0
  162.6450  203.2150  145.8450 C   0  0  0  0  0  1  0  0  0  0  0  0
  162.5220  201.9140  147.8780 N   0  0  0  0  0  0  0  0  0  0  0  0
  161.9650  202.4110  146.6600 C   0  0  0  0  0  0  0  0  0  0  0  0
  159.7440  202.1040  145.3720 C   0  0  0  0  0  2  0  0  0  0  0  0
  159.8480  200.8330  144.8160 O   0  0  0  0  0  1  0  0  0  0  0  0
  160.5030  206.1600  147.1590 C   0  0  0  0  0  2  0  0  0  0  0  0
  160.6530  206.5210  145.6910 C   0  0  0  0  0  2  0  0  0  0  0  0
  161.4870  205.4640  144.9910 C   0  0  0  0  0  2  0  0  0  0  0  0
  161.2350  205.4540  143.5120 C   0  0  0  0  0  3  0  0  0  0  0  0
  161.8620  206.2850  142.6820 C   0  0  0  0  0  3  0  0  0  0  0  0
  161.5790  206.2000  141.2160 C   0  0  0  0  0  2  0  0  0  0  0  0
  162.4420  207.1850  140.4520 C   0  0  2  0  0  3  0  0  0  0  0  0
  161.5840  208.2900  139.9520 C   0  0  2  0  0  3  0  0  0  0  0  0
  162.0140  207.2480  139.1100 O   0  0  0  0  0  0  0  0  0  0  0  0
  162.3460  209.5890  139.6710 C   0  0  0  0  0  2  0  0  0  0  0  0
  161.7880  210.8580  140.3180 C   0  0  0  0  0  2  0  0  0  0  0  0
  161.3930  211.8100  139.2900 N   0  0  0  0  0  2  0  0  0  0  0  0
  161.5390  213.1330  139.8760 C   0  0  0  0  0  2  0  0  0  0  0  0
  163.0070  213.4660  139.9940 C   0  0  0  0  0  1  0  0  0  0  0  0
  161.7090  208.0460  147.7970 C   0  0  0  0  0  2  0  0  0  0  0  0
  161.8650  210.0210  149.3290 C   0  0  0  0  0  3  0  0  0  0  0  0
  162.7010  208.3880  151.4490 C   0  0  0  0  0  3  0  0  0  0  0  0
  162.0250  208.6410  149.1310 C   0  0  0  0  0  0  0  0  0  0  0  0
  162.4550  207.8310  150.1930 C   0  0  0  0  0  3  0  0  0  0  0  0
  162.1130  210.5820  150.5880 C   0  0  0  0  0  3  0  0  0  0  0  0
  162.5280  209.7640  151.6490 C   0  0  0  0  0  0  0  0  0  0  0  0
  162.6840  210.3330  153.0200 C   0  0  0  0  0  2  0  0  0  0  0  0
  161.7230  209.7590  153.9500 N   0  0  0  0  0  0  0  0  0  0  0  0
  160.7960  208.7480  153.4430 C   0  0  0  0  0  2  0  0  0  0  0  0
  159.1500  209.8050  154.8380 O   0  0  0  0  0  0  0  0  0  0  0  0
  159.6140  208.5480  154.4130 C   0  0  0  0  0  2  0  0  0  0  0  0
  162.3520  211.0820  155.7800 O   0  0  0  0  0  0  0  0  0  0  0  0
  161.4460  210.4240  155.1900 C   0  0  0  0  0  0  0  0  0  0  0  0
  160.0670  210.2850  155.8010 C   0  0  1  0  0  3  0  0  0  0  0  0
  159.6050  211.6600  156.2910 C   0  0  0  0  0  2  0  0  0  0  0  0
  157.1390  211.5920  156.4130 N   0  0  0  0  0  0  0  0  0  0  0  0
  156.8440  214.1620  155.6700 O   0  0  0  0  0  0  0  0  0  0  0  0
  155.8810  213.3170  155.2500 O   0  0  0  0  0  0  0  0  0  0  0  0
  158.2860  212.1870  155.6790 C   0  0  1  0  0  0  0  0  0  0  0  0
  159.0980  214.4480  156.0640 O   0  0  0  0  0  0  0  0  0  0  0  0
  157.0130  210.2740  156.0890 O   0  0  0  0  0  1  0  0  0  0  0  0
  155.8260  212.2480  156.1800 C   0  0  0  0  0  2  0  0  0  0  0  0
  158.1410  213.6800  155.7910 C   0  0  0  0  0  0  0  0  0  0  0  0
  158.2450  211.7680  154.1870 C   0  0  0  0  0  2  0  0  0  0  0  0
  158.8880  212.7330  153.2270 C   0  0  0  0  0  0  0  0  0  0  0  0
  160.0740  212.5550  152.8290 O   0  0  0  0  0  0  0  0  0  0  0  0
  157.2570  213.6880  151.7670 C   0  0  0  0  0  2  0  0  0  0  0  0
  158.1170  213.8230  152.7250 N   0  0  0  0  0  0  0  0  0  0  0  0
  1  3  1  0  0  0  0
  2  4  1  0  0  0  0
  2  5  1  0  0  0  0
  3  2  1  0  0  0  0
  3  6  1  0  0  0  0
  4  5  1  0  0  0  0
  5  7  1  0  0  0  0
  6  4  1  0  0  0  0
  7  8  1  0  0  0  0
  9  7  1  0  0  0  0
 10 11  1  0  0  0  0
 10  9  1  0  0  0  0
 12 18  1  0  0  0  0
 12 14  1  0  0  0  0
 13 10  1  0  0  0  0
 14 13  2  0  0  0  0
 14 15  1  0  0  0  0
 15 11  1  0  0  0  0
 16 18  1  0  0  0  0
 17 13  1  0  0  0  0
 18 17  2  0  0  0  0
 19 12  1  0  0  0  0
 20 19  1  0  0  0  0
 21  1  1  0  0  0  0
 22 21  1  0  0  0  0
 23 22  1  0  0  0  0
 24 23  1  0  0  0  0
 25 24  2  0  0  0  0
 26 25  1  0  0  0  0
 27 26  1  0  0  0  0
 28 27  1  0  0  0  0
 29 28  1  0  0  0  0
 29 27  1  0  0  0  0
 30 28  1  0  0  0  0
 30 31  1  0  0  0  0
 32 33  1  0  0  0  0
 32 31  1  0  0  0  0
 33 34  1  0  0  0  0
 35  1  1  0  0  0  0
 35 38  1  0  0  0  0
 36 40  1  0  0  0  0
 37 41  1  0  0  0  0
 38 36  2  0  0  0  0
 38 39  1  0  0  0  0
 39 37  2  0  0  0  0
 40 41  2  0  0  0  0
 41 42  1  0  0  0  0
 42 43  1  0  0  0  0
 43 48  1  0  0  0  0
 44 43  1  0  0  0  0
 44 46  1  0  0  0  0
 45 49  1  0  0  0  0
 46 45  1  0  0  0  0
 48 47  2  0  0  0  0
 48 49  1  0  0  0  0
 49 50  1  0  0  0  0
 52 58  1  0  0  0  0
 53 52  1  0  0  0  0
 53 57  1  0  0  0  0
 54 58  1  0  0  0  0
 54 50  1  0  0  0  0
 54 51  1  0  0  0  0
 56 51  1  0  0  0  0
 57 51  1  0  0  0  0
 58 55  2  0  0  0  0
 59 54  1  0  0  0  0
 60 59  1  0  0  0  0
 61 60  2  0  0  0  0
 62 63  2  0  0  0  0
 63 60  1  0  0  0  0
M  END
>  <MODEL>
7

>  <REMARK>
 VINA RESULT:      -1.2      3.691     11.498
  Name = 
  24 active torsions:
  status: ('A' for Active; 'I' for Inactive)
    1  A    between atoms: C_1  and  N_27
    2  A    between atoms: C_1  and  C_48
    3  A    between atoms: C_2  and  N_14
    4  A    between atoms: C_2  and  C_57
    5  A    between atoms: C_3  and  C_4
    6  A    between atoms: C_3  and  N_26
    7  A    between atoms: C_4  and  C_34
    8  A    between atoms: N_6  and  C_12
    9  A    between atoms: N_6  and  C_17
   10  A    between atoms: N_6  and  C_45
   11  A    between atoms: C_7  and  C_56
   12  A    between atoms: C_10  and  O_47
   13  A    between atoms: C_12  and  C_31
   14  A    between atoms: C_13  and  C_25
   15  A    between atoms: C_13  and  C_61
   16  A    between atoms: C_15  and  C_39
   17  A    between atoms: C_15  and  O_47
   18  A    between atoms: N_21  and  C_32
   19  A    between atoms: C_22  and  C_29
   20  A    between atoms: C_23  and  C_29
   21  A    between atoms: C_23  and  C_45
   22  A    between atoms: C_25  and  C_48
   23  A    between atoms: N_26  and  C_43
   24  A    between atoms: C_56  and  C_59
                            x       y       z     vdW  Elec       q    Type
                         _______ _______ _______ _____ _____    ______ ____

>  <TORSDO>
F 24

$$$$
=
 OpenBabel11052409473D

 63 70  0  0  1  0  0  0  0  0999 V2000
  162.2060  207.4980  148.2630 N   0  0  0  0  0  0  0  0  0  0  0  0
  161.7400  205.6280  149.9210 C   0  0  2  0  0  3  0  0  0  0  0  0
  161.8020  207.1270  149.6270 C   0  0  2  0  0  3  0  0  0  0  0  0
  160.2330  205.7100  150.0350 C   0  0  1  0  0  3  0  0  0  0  0  0
  161.0680  205.4280  151.2700 C   0  0  1  0  0  3  0  0  0  0  0  0
  160.2910  207.1990  149.7310 C   0  0  0  0  0  2  0  0  0  0  0  0
  160.9450  203.9570  151.6980 C   0  0  2  0  0  3  0  0  0  0  0  0
  162.2200  203.4670  152.0020 O   0  0  0  0  0  1  0  0  0  0  0  0
  160.3440  203.1420  150.7200 O   0  0  0  0  0  0  0  0  0  0  0  0
  161.2710  202.1240  150.4660 C   0  0  1  0  0  3  0  0  0  0  0  0
  160.6950  200.7760  150.9370 C   0  0  0  0  0  2  0  0  0  0  0  0
  161.0050  200.9450  147.0700 N   0  0  0  0  0  0  0  0  0  0  0  0
  161.4840  201.9890  149.0050 C   0  0  0  0  0  0  0  0  0  0  0  0
  161.2350  200.8320  148.4680 C   0  0  0  0  0  0  0  0  0  0  0  0
  160.6580  199.5540  149.5510 S   0  0  0  0  0  0  0  0  0  0  0  0
  161.0670  202.9500  145.6810 C   0  0  0  0  0  1  0  0  0  0  0  0
  161.5350  203.0430  148.0500 N   0  0  0  0  0  0  0  0  0  0  0  0
  161.2850  202.3300  146.8380 C   0  0  0  0  0  0  0  0  0  0  0  0
  161.1870  199.8440  146.1340 C   0  0  0  0  0  2  0  0  0  0  0  0
  160.0900  199.7430  145.2820 O   0  0  0  0  0  1  0  0  0  0  0  0
  161.0100  207.9850  147.5960 C   0  0  0  0  0  2  0  0  0  0  0  0
  160.4230  206.8920  146.7190 C   0  0  0  0  0  2  0  0  0  0  0  0
  161.5310  206.2380  145.9140 C   0  0  0  0  0  2  0  0  0  0  0  0
  161.1400  206.0660  144.4760 C   0  0  0  0  0  3  0  0  0  0  0  0
  162.0340  206.1120  143.4900 C   0  0  0  0  0  3  0  0  0  0  0  0
  161.5740  205.9070  142.0820 C   0  0  0  0  0  2  0  0  0  0  0  0
  162.2750  206.8770  141.1500 C   0  0  2  0  0  3  0  0  0  0  0  0
  161.5990  206.8480  139.8280 C   0  0  2  0  0  3  0  0  0  0  0  0
  162.8130  206.1740  140.0530 O   0  0  0  0  0  0  0  0  0  0  0  0
  161.8080  208.1180  138.9960 C   0  0  0  0  0  2  0  0  0  0  0  0
  161.5290  209.4460  139.7020 C   0  0  0  0  0  2  0  0  0  0  0  0
  162.1540  210.5390  138.9730 N   0  0  0  0  0  2  0  0  0  0  0  0
  162.3450  211.6180  139.9310 C   0  0  0  0  0  2  0  0  0  0  0  0
  163.3820  212.5780  139.3990 C   0  0  0  0  0  1  0  0  0  0  0  0
  163.1710  208.6000  148.2070 C   0  0  0  0  0  2  0  0  0  0  0  0
  162.1800  210.8810  147.9180 C   0  0  0  0  0  3  0  0  0  0  0  0
  161.7270  211.1010  150.6760 C   0  0  0  0  0  3  0  0  0  0  0  0
  162.5600  209.8390  148.7770 C   0  0  0  0  0  0  0  0  0  0  0  0
  162.3420  209.9600  150.1580 C   0  0  0  0  0  3  0  0  0  0  0  0
  161.5650  212.0270  148.4360 C   0  0  0  0  0  3  0  0  0  0  0  0
  161.3350  212.1350  149.8160 C   0  0  0  0  0  0  0  0  0  0  0  0
  160.5790  213.3000  150.3630 C   0  0  0  0  0  2  0  0  0  0  0  0
  159.2900  212.8940  150.9030 N   0  0  0  0  0  0  0  0  0  0  0  0
  158.0830  213.3400  150.2080 C   0  0  0  0  0  2  0  0  0  0  0  0
  157.1410  213.6440  152.3980 O   0  0  0  0  0  0  0  0  0  0  0  0
  156.8390  213.1790  151.1060 C   0  0  0  0  0  2  0  0  0  0  0  0
  160.1620  211.7700  152.7660 O   0  0  0  0  0  0  0  0  0  0  0  0
  159.2010  212.4130  152.2510 C   0  0  0  0  0  0  0  0  0  0  0  0
  157.9220  212.6470  153.0270 C   0  0  1  0  0  3  0  0  0  0  0  0
  158.2820  213.1120  154.4410 C   0  0  0  0  0  2  0  0  0  0  0  0
  156.5100  213.5150  156.1140 N   0  0  0  0  0  0  0  0  0  0  0  0
  155.5500  211.0040  155.9770 O   0  0  0  0  0  0  0  0  0  0  0  0
  155.4840  211.5910  157.1900 O   0  0  0  0  0  0  0  0  0  0  0  0
  157.4510  212.4920  155.5890 C   0  0  1  0  0  0  0  0  0  0  0  0
  156.7910  210.7230  154.0530 O   0  0  0  0  0  0  0  0  0  0  0  0
  157.1940  214.4520  156.8290 O   0  0  0  0  0  1  0  0  0  0  0  0
  155.4170  212.9900  156.9750 C   0  0  0  0  0  2  0  0  0  0  0  0
  156.6140  211.3250  155.1440 C   0  0  0  0  0  0  0  0  0  0  0  0
  158.4300  212.0400  156.7020 C   0  0  0  0  0  2  0  0  0  0  0  0
  159.3990  210.9560  156.3100 C   0  0  0  0  0  0  0  0  0  0  0  0
  159.0060  209.7660  156.1450 O   0  0  0  0  0  0  0  0  0  0  0  0
  161.5820  210.5190  155.4470 C   0  0  0  0  0  2  0  0  0  0  0  0
  160.7610  211.3030  156.0670 N   0  0  0  0  0  0  0  0  0  0  0  0
  1  3  1  0  0  0  0
  2  4  1  0  0  0  0
  2  5  1  0  0  0  0
  3  6  1  0  0  0  0
  3  2  1  0  0  0  0
  4  5  1  0  0  0  0
  5  7  1  0  0  0  0
  6  4  1  0  0  0  0
  7  8  1  0  0  0  0
  9  7  1  0  0  0  0
 10  9  1  0  0  0  0
 10 11  1  0  0  0  0
 12 14  1  0  0  0  0
 13 10  1  0  0  0  0
 14 13  2  0  0  0  0
 14 15  1  0  0  0  0
 15 11  1  0  0  0  0
 16 18  1  0  0  0  0
 17 13  1  0  0  0  0
 18 12  1  0  0  0  0
 18 17  2  0  0  0  0
 19 12  1  0  0  0  0
 20 19  1  0  0  0  0
 21  1  1  0  0  0  0
 22 21  1  0  0  0  0
 23 22  1  0  0  0  0
 24 23  1  0  0  0  0
 25 24  2  0  0  0  0
 26 25  1  0  0  0  0
 27 26  1  0  0  0  0
 28 29  1  0  0  0  0
 28 27  1  0  0  0  0
 29 27  1  0  0  0  0
 30 31  1  0  0  0  0
 30 28  1  0  0  0  0
 32 31  1  0  0  0  0
 32 33  1  0  0  0  0
 34 33  1  0  0  0  0
 35  1  1  0  0  0  0
 35 38  1  0  0  0  0
 36 40  2  0  0  0  0
 36 38  1  0  0  0  0
 38 39  2  0  0  0  0
 39 37  1  0  0  0  0
 40 41  1  0  0  0  0
 41 42  1  0  0  0  0
 41 37  2  0  0  0  0
 42 43  1  0  0  0  0
 43 48  1  0  0  0  0
 44 43  1  0  0  0  0
 44 46  1  0  0  0  0
 45 49  1  0  0  0  0
 46 45  1  0  0  0  0
 48 47  2  0  0  0  0
 48 49  1  0  0  0  0
 49 50  1  0  0  0  0
 50 54  1  0  0  0  0
 51 56  1  0  0  0  0
 51 57  1  0  0  0  0
 52 53  1  0  0  0  0
 54 51  1  0  0  0  0
 54 59  1  0  0  0  0
 55 58  2  0  0  0  0
 57 53  1  0  0  0  0
 58 54  1  0  0  0  0
 58 52  1  0  0  0  0
 60 59  1  0  0  0  0
 61 60  2  0  0  0  0
 62 63  2  0  0  0  0
 63 60  1  0  0  0  0
M  END
>  <MODEL>
8

>  <REMARK>
 VINA RESULT:      -1.1      3.780     11.760
  Name = 
  24 active torsions:
  status: ('A' for Active; 'I' for Inactive)
    1  A    between atoms: C_1  and  N_27
    2  A    between atoms: C_1  and  C_48
    3  A    between atoms: C_2  and  N_14
    4  A    between atoms: C_2  and  C_57
    5  A    between atoms: C_3  and  C_4
    6  A    between atoms: C_3  and  N_26
    7  A    between atoms: C_4  and  C_34
    8  A    between atoms: N_6  and  C_12
    9  A    between atoms: N_6  and  C_17
   10  A    between atoms: N_6  and  C_45
   11  A    between atoms: C_7  and  C_56
   12  A    between atoms: C_10  and  O_47
   13  A    between atoms: C_12  and  C_31
   14  A    between atoms: C_13  and  C_25
   15  A    between atoms: C_13  and  C_61
   16  A    between atoms: C_15  and  C_39
   17  A    between atoms: C_15  and  O_47
   18  A    between atoms: N_21  and  C_32
   19  A    between atoms: C_22  and  C_29
   20  A    between atoms: C_23  and  C_29
   21  A    between atoms: C_23  and  C_45
   22  A    between atoms: C_25  and  C_48
   23  A    between atoms: N_26  and  C_43
   24  A    between atoms: C_56  and  C_59
                            x       y       z     vdW  Elec       q    Type
                         _______ _______ _______ _____ _____    ______ ____

>  <TORSDO>
F 24

$$$$
=
 OpenBabel11052409473D

 63 70  0  0  1  0  0  0  0  0999 V2000
  160.5410  210.5020  151.6530 N   0  0  0  0  0  0  0  0  0  0  0  0
  159.2360  211.8630  153.3580 C   0  0  2  0  0  3  0  0  0  0  0  0
  160.4760  211.7190  152.4750 C   0  0  2  0  0  3  0  0  0  0  0  0
  158.7590  213.0180  152.5030 C   0  0  1  0  0  3  0  0  0  0  0  0
  159.2120  213.2720  153.9290 C   0  0  1  0  0  3  0  0  0  0  0  0
  159.9860  212.8690  151.6160 C   0  0  0  0  0  2  0  0  0  0  0  0
  158.0140  213.5550  154.8490 C   0  0  2  0  0  3  0  0  0  0  0  0
  157.1470  214.4420  154.2000 O   0  0  0  0  0  1  0  0  0  0  0  0
  158.3850  214.0840  156.0990 O   0  0  0  0  0  0  0  0  0  0  0  0
  158.1160  213.0690  157.0260 C   0  0  1  0  0  3  0  0  0  0  0  0
  156.8010  212.3650  156.6470 C   0  0  0  0  0  2  0  0  0  0  0  0
  159.8740  210.0390  156.1770 N   0  0  0  0  0  0  0  0  0  0  0  0
  159.1710  212.0310  156.9560 C   0  0  0  0  0  0  0  0  0  0  0  0
  158.7970  210.8150  156.6860 C   0  0  0  0  0  0  0  0  0  0  0  0
  157.0650  210.5500  156.4210 S   0  0  0  0  0  0  0  0  0  0  0  0
  162.1940  210.7120  155.8280 C   0  0  0  0  0  1  0  0  0  0  0  0
  160.5630  212.2410  156.7450 N   0  0  0  0  0  0  0  0  0  0  0  0
  160.9750  210.9440  156.3110 C   0  0  0  0  0  0  0  0  0  0  0  0
  159.9200  208.5850  156.2460 C   0  0  0  0  0  2  0  0  0  0  0  0
  160.7990  208.1730  157.2440 O   0  0  0  0  0  1  0  0  0  0  0  0
  161.9140  210.0290  151.7230 C   0  0  0  0  0  2  0  0  0  0  0  0
  162.5300  210.0200  150.3340 C   0  0  0  0  0  2  0  0  0  0  0  0
  162.7220  211.4470  149.8540 C   0  0  0  0  0  2  0  0  0  0  0  0
  161.5880  211.8920  148.9790 C   0  0  0  0  0  3  0  0  0  0  0  0
  161.7870  212.3650  147.7500 C   0  0  0  0  0  3  0  0  0  0  0  0
  160.6060  212.7660  146.9260 C   0  0  0  0  0  2  0  0  0  0  0  0
  160.8460  212.4400  145.4640 C   0  0  2  0  0  3  0  0  0  0  0  0
  159.8760  213.2000  144.6350 C   0  0  2  0  0  3  0  0  0  0  0  0
  159.6950  211.8350  144.9190 O   0  0  0  0  0  0  0  0  0  0  0  0
  160.3320  213.4180  143.1890 C   0  0  0  0  0  2  0  0  0  0  0  0
  160.2910  212.1940  142.2720 C   0  0  0  0  0  2  0  0  0  0  0  0
  161.6210  211.9190  141.7480 N   0  0  0  0  0  2  0  0  0  0  0  0
  161.5170  211.9960  140.2990 C   0  0  0  0  0  2  0  0  0  0  0  0
  162.3270  210.8800  139.6820 C   0  0  0  0  0  1  0  0  0  0  0  0
  159.7140  209.4010  152.1550 C   0  0  0  0  0  2  0  0  0  0  0  0
  161.1450  207.5750  153.0970 C   0  0  0  0  0  3  0  0  0  0  0  0
  161.0640  206.1740  150.6700 C   0  0  0  0  0  3  0  0  0  0  0  0
  160.4450  208.1060  152.0040 C   0  0  0  0  0  0  0  0  0  0  0  0
  160.4190  207.4060  150.7880 C   0  0  0  0  0  3  0  0  0  0  0  0
  161.7950  206.3400  152.9810 C   0  0  0  0  0  3  0  0  0  0  0  0
  161.7510  205.6380  151.7680 C   0  0  0  0  0  0  0  0  0  0  0  0
  162.3420  204.2710  151.6680 C   0  0  0  0  0  2  0  0  0  0  0  0
  161.3980  203.3200  151.1010 N   0  0  0  0  0  0  0  0  0  0  0  0
  160.8420  202.2950  151.9830 C   0  0  0  0  0  2  0  0  0  0  0  0
  161.0590  200.8070  150.1070 O   0  0  0  0  0  0  0  0  0  0  0  0
  160.2010  201.1540  151.1660 C   0  0  0  0  0  2  0  0  0  0  0  0
  161.5310  204.1410  148.9090 O   0  0  0  0  0  0  0  0  0  0  0  0
  161.3160  203.1590  149.6780 C   0  0  0  0  0  0  0  0  0  0  0  0
  160.9250  201.8080  149.1170 C   0  0  1  0  0  3  0  0  0  0  0  0
  161.8480  201.4760  147.9420 C   0  0  0  0  0  2  0  0  0  0  0  0
  161.2120  199.7620  146.2820 N   0  0  0  0  0  0  0  0  0  0  0  0
  158.9230  201.0020  145.5990 O   0  0  0  0  0  0  0  0  0  0  0  0
  159.5510  200.3440  144.6040 O   0  0  0  0  0  0  0  0  0  0  0  0
  161.1500  201.2140  146.5870 C   0  0  1  0  0  0  0  0  0  0  0  0
  159.1720  202.3150  147.4790 O   0  0  0  0  0  0  0  0  0  0  0  0
  162.4830  199.4120  145.9370 O   0  0  0  0  0  1  0  0  0  0  0  0
  160.3020  199.3000  145.2010 C   0  0  0  0  0  2  0  0  0  0  0  0
  159.6940  201.5910  146.5930 C   0  0  0  0  0  0  0  0  0  0  0  0
  161.8960  202.0250  145.4960 C   0  0  0  0  0  2  0  0  0  0  0  0
  161.4170  203.4400  145.3020 C   0  0  0  0  0  0  0  0  0  0  0  0
  160.2740  203.6740  144.8180 O   0  0  0  0  0  0  0  0  0  0  0  0
  162.1520  205.7110  145.2450 C   0  0  0  0  0  2  0  0  0  0  0  0
  162.2520  204.5150  145.7280 N   0  0  0  0  0  0  0  0  0  0  0  0
  1 21  1  0  0  0  0
  1 35  1  0  0  0  0
  1  3  1  0  0  0  0
  2  5  1  0  0  0  0
  3  2  1  0  0  0  0
  4  2  1  0  0  0  0
  4  5  1  0  0  0  0
  5  7  1  0  0  0  0
  6  3  1  0  0  0  0
  6  4  1  0  0  0  0
  7  9  1  0  0  0  0
  8  7  1  0  0  0  0
  9 10  1  0  0  0  0
 11 10  1  0  0  0  0
 12 19  1  0  0  0  0
 12 18  1  0  0  0  0
 12 14  1  0  0  0  0
 13 10  1  0  0  0  0
 14 13  2  0  0  0  0
 15 11  1  0  0  0  0
 15 14  1  0  0  0  0
 16 18  1  0  0  0  0
 17 13  1  0  0  0  0
 18 17  2  0  0  0  0
 19 20  1  0  0  0  0
 22 21  1  0  0  0  0
 23 22  1  0  0  0  0
 24 23  1  0  0  0  0
 25 24  2  0  0  0  0
 26 25  1  0  0  0  0
 27 26  1  0  0  0  0
 28 29  1  0  0  0  0
 28 27  1  0  0  0  0
 29 27  1  0  0  0  0
 30 28  1  0  0  0  0
 31 30  1  0  0  0  0
 32 31  1  0  0  0  0
 33 32  1  0  0  0  0
 34 33  1  0  0  0  0
 37 39  2  0  0  0  0
 37 41  1  0  0  0  0
 38 35  1  0  0  0  0
 38 36  2  0  0  0  0
 39 38  1  0  0  0  0
 40 36  1  0  0  0  0
 41 40  2  0  0  0  0
 42 41  1  0  0  0  0
 43 42  1  0  0  0  0
 43 44  1  0  0  0  0
 45 46  1  0  0  0  0
 46 44  1  0  0  0  0
 47 48  2  0  0  0  0
 48 43  1  0  0  0  0
 49 48  1  0  0  0  0
 49 45  1  0  0  0  0
 50 49  1  0  0  0  0
 51 54  1  0  0  0  0
 52 58  1  0  0  0  0
 53 57  1  0  0  0  0
 53 52  1  0  0  0  0
 54 58  1  0  0  0  0
 54 50  1  0  0  0  0
 56 51  1  0  0  0  0
 57 51  1  0  0  0  0
 58 55  2  0  0  0  0
 59 54  1  0  0  0  0
 60 59  1  0  0  0  0
 60 63  1  0  0  0  0
 61 60  2  0  0  0  0
 62 63  2  0  0  0  0
M  END
>  <MODEL>
9

>  <REMARK>
 VINA RESULT:      -0.4      3.094      9.732
  Name = 
  24 active torsions:
  status: ('A' for Active; 'I' for Inactive)
    1  A    between atoms: C_1  and  N_27
    2  A    between atoms: C_1  and  C_48
    3  A    between atoms: C_2  and  N_14
    4  A    between atoms: C_2  and  C_57
    5  A    between atoms: C_3  and  C_4
    6  A    between atoms: C_3  and  N_26
    7  A    between atoms: C_4  and  C_34
    8  A    between atoms: N_6  and  C_12
    9  A    between atoms: N_6  and  C_17
   10  A    between atoms: N_6  and  C_45
   11  A    between atoms: C_7  and  C_56
   12  A    between atoms: C_10  and  O_47
   13  A    between atoms: C_12  and  C_31
   14  A    between atoms: C_13  and  C_25
   15  A    between atoms: C_13  and  C_61
   16  A    between atoms: C_15  and  C_39
   17  A    between atoms: C_15  and  O_47
   18  A    between atoms: N_21  and  C_32
   19  A    between atoms: C_22  and  C_29
   20  A    between atoms: C_23  and  C_29
   21  A    between atoms: C_23  and  C_45
   22  A    between atoms: C_25  and  C_48
   23  A    between atoms: N_26  and  C_43
   24  A    between atoms: C_56  and  C_59
                            x       y       z     vdW  Elec       q    Type
                         _______ _______ _______ _____ _____    ______ ____

>  <TORSDO>
F 24

$$$$
