=
 OpenBabel11042423063D

 48 52  0  0  1  0  0  0  0  0999 V2000
  160.7000  211.3600  149.8720 C   0  0  0  0  0  2  0  0  0  0  0  0
  161.9210  208.8340  150.7820 C   0  0  0  0  0  0  0  0  0  0  0  0
  162.4480  211.1800  149.4470 S   0  0  0  0  0  0  0  0  0  0  0  0
  160.7260  206.6900  154.1340 C   0  0  0  0  0  0  0  0  0  0  0  0
  161.0700  207.6450  153.1030 C   0  0  0  0  0  0  0  0  0  0  0  0
  161.1950  205.5100  153.8670 N   0  0  0  0  0  0  0  0  0  0  0  0
  160.4460  210.9020  151.3020 C   0  0  1  0  0  3  0  0  0  0  0  0
  162.2820  207.5520  151.0730 N   0  0  0  0  0  0  0  0  0  0  0  0
  162.0040  205.5580  152.6410 C   0  0  0  0  0  2  0  0  0  0  0  0
  161.0310  209.5460  151.6480 C   0  0  0  0  0  0  0  0  0  0  0  0
  160.2100  207.9170  156.2900 C   0  0  0  0  0  0  0  0  0  0  0  0
  159.3380  208.1790  157.1630 O   0  0  0  0  0  0  0  0  0  0  0  0
  162.3210  209.3610  149.4350 C   0  0  2  0  0  3  0  0  0  0  0  0
  161.8770  206.9810  152.2330 C   0  0  0  0  0  0  0  0  0  0  0  0
  159.9050  206.9460  155.2730 N   0  0  0  0  0  2  0  0  0  0  0  0
  160.6030  208.9260  152.8380 C   0  0  0  0  0  3  0  0  0  0  0  0
  161.6540  209.9640  156.1120 N   0  0  0  0  0  2  0  0  0  0  0  0
  162.5610  207.9050  156.7260 O   0  0  0  0  0  0  0  0  0  0  0  0
  161.5330  208.5650  156.4020 C   0  0  0  0  0  0  0  0  0  0  0  0
  162.8350  210.7170  156.5090 C   0  0  1  0  0  3  0  0  0  0  0  0
  163.7700  210.8650  155.3220 C   0  0  0  0  0  1  0  0  0  0  0  0
  162.4300  212.0570  157.0340 C   0  0  0  0  0  0  0  0  0  0  0  0
  161.0850  212.3290  157.2590 O   0  0  0  0  0  0  0  0  0  0  0  0
  163.2950  212.9460  157.2610 O   0  0  0  0  0  1  0  0  0  0  0  0
  161.3260  208.8480  148.3970 C   0  0  0  0  0  2  0  0  0  0  0  0
  160.8670  206.4240  147.9810 C   0  0  0  0  0  0  0  0  0  0  0  0
  159.7880  206.5200  148.6320 O   0  0  0  0  0  0  0  0  0  0  0  0
  161.7280  207.5600  147.8480 N   0  0  0  0  0  2  0  0  0  0  0  0
  161.6980  204.2980  149.4740 O   0  0  0  0  0  1  0  0  0  0  0  0
  162.9630  204.7050  145.7480 C   0  0  2  0  0  3  0  0  0  0  0  0
  161.1630  205.1540  147.2390 C   0  0  2  0  0  3  0  0  0  0  0  0
  161.6260  204.0420  148.1020 C   0  0  2  0  0  0  0  0  0  0  0  0
  161.0470  202.6880  147.6820 C   0  0  0  0  0  1  0  0  0  0  0  0
  163.3210  203.6990  146.6130 O   0  0  0  0  0  0  0  0  0  0  0  0
  162.6930  204.8030  147.2610 C   0  0  1  0  0  0  0  0  0  0  0  0
  161.9360  204.1160  144.8180 C   0  0  0  0  0  3  0  0  0  0  0  0
  161.2050  204.9290  144.0600 C   0  0  0  0  0  2  0  0  0  0  0  0
  160.8600  211.9770  152.3000 C   0  0  0  0  0  2  0  0  0  0  0  0
  159.6300  212.6970  152.8700 C   0  0  1  0  0  3  0  0  0  0  0  0
  158.5340  213.9580  151.3030 C   0  0  0  0  0  1  0  0  0  0  0  0
  159.4900  214.0000  152.3320 O   0  0  0  0  0  0  0  0  0  0  0  0
  158.3910  211.9210  152.7230 N   0  0  0  0  0  2  0  0  0  0  0  0
  157.5700  211.5360  153.8200 C   0  0  0  0  0  3  0  0  0  0  0  0
  156.7590  212.4260  154.3800 C   0  0  0  0  0  3  0  0  0  0  0  0
  156.0680  210.7580  155.9070 F   0  0  0  0  0  0  0  0  0  0  0  0
  155.8740  212.0770  155.5350 C   0  0  1  0  0  3  0  0  0  0  0  0
  156.1070  212.9920  156.7310 C   0  0  0  0  0  2  0  0  0  0  0  0
  157.4790  213.1730  156.9270 O   0  0  0  0  0  1  0  0  0  0  0  0
  1  7  1  0  0  0  0
  2  8  2  0  0  0  0
  2 10  1  0  0  0  0
  3  1  1  0  0  0  0
  4 15  1  0  0  0  0
  5  4  1  0  0  0  0
  6  4  2  0  0  0  0
  7 10  1  0  0  0  0
  7 38  1  1  0  0  0
  8 14  1  0  0  0  0
  9  6  1  0  0  0  0
 10 16  2  0  0  0  0
 11 19  1  0  0  0  0
 11 12  2  0  0  0  0
 13 25  1  6  0  0  0
 13  3  1  0  0  0  0
 13  2  1  0  0  0  0
 14  9  1  0  0  0  0
 14  5  2  0  0  0  0
 15 11  1  0  0  0  0
 16  5  1  0  0  0  0
 17 19  1  0  0  0  0
 17 20  1  0  0  0  0
 19 18  2  0  0  0  0
 20 21  1  6  0  0  0
 20 22  1  0  0  0  0
 22 23  2  0  0  0  0
 22 24  1  0  0  0  0
 26 27  2  0  0  0  0
 28 26  1  0  0  0  0
 28 25  1  0  0  0  0
 30 36  1  6  0  0  0
 30 34  1  0  0  0  0
 30 35  1  0  0  0  0
 31 35  1  0  0  0  0
 31 26  1  1  0  0  0
 31 32  1  0  0  0  0
 32 33  1  6  0  0  0
 32 29  1  0  0  0  0
 35 34  1  1  0  0  0
 35 32  1  0  0  0  0
 37 36  2  0  0  0  0
 39 38  1  6  0  0  0
 40 41  1  0  0  0  0
 41 39  1  0  0  0  0
 42 39  1  0  0  0  0
 42 43  1  0  0  0  0
 43 44  2  0  0  0  0
 44 46  1  0  0  0  0
 46 45  1  1  0  0  0
 46 47  1  0  0  0  0
 47 48  1  0  0  0  0
M  END
>  <MODEL>
1

>  <REMARK>
 VINA RESULT:      -2.2      0.000      0.000
  Name = 
  14 active torsions:
  status: ('A' for Active; 'I' for Inactive)
    1  A    between atoms: C_2  and  CA_42
    2  A    between atoms: C_3  and  C_22
    3  A    between atoms: C_4  and  C_14
    4  A    between atoms: N_6  and  CA_42
    5  A    between atoms: C_12  and  C_31
    6  A    between atoms: C_18  and  C_43
    7  A    between atoms: O_21  and  C_35
    8  A    between atoms: C_22  and  C_34
    9  A    between atoms: N_23  and  C_37
   10  A    between atoms: C_27  and  C_47
   11  A    between atoms: C_30  and  N_44
   12  A    between atoms: C_35  and  C_43
   13  A    between atoms: C_35  and  N_44
   14  A    between atoms: C_37  and  C_38
                            x       y       z     vdW  Elec       q    Type
                         _______ _______ _______ _____ _____    ______ ____

>  <TORSDO>
F 14

$$$$
=
 OpenBabel11042423063D

 48 52  0  0  1  0  0  0  0  0999 V2000
  160.8060  211.2080  149.8060 C   0  0  0  0  0  2  0  0  0  0  0  0
  162.2340  208.8360  150.8220 C   0  0  0  0  0  0  0  0  0  0  0  0
  162.6060  211.3030  149.6660 S   0  0  0  0  0  0  0  0  0  0  0  0
  160.8640  206.3600  153.8640 C   0  0  0  0  0  0  0  0  0  0  0  0
  161.2180  207.4100  152.9340 C   0  0  0  0  0  0  0  0  0  0  0  0
  161.5400  205.2760  153.6390 N   0  0  0  0  0  0  0  0  0  0  0  0
  160.4030  210.6400  151.1600 C   0  0  1  0  0  3  0  0  0  0  0  0
  162.7330  207.6040  151.1270 N   0  0  0  0  0  0  0  0  0  0  0  0
  162.5150  205.5060  152.5650 C   0  0  0  0  0  2  0  0  0  0  0  0
  161.1230  209.3640  151.5530 C   0  0  0  0  0  0  0  0  0  0  0  0
  159.8390  207.3790  155.9450 C   0  0  0  0  0  0  0  0  0  0  0  0
  158.8120  207.4650  156.6730 O   0  0  0  0  0  0  0  0  0  0  0  0
  162.7570  209.4880  149.5750 C   0  0  2  0  0  3  0  0  0  0  0  0
  162.2420  206.9180  152.1860 C   0  0  0  0  0  0  0  0  0  0  0  0
  159.8460  206.4330  154.8610 N   0  0  0  0  0  2  0  0  0  0  0  0
  160.6110  208.6240  152.6370 C   0  0  0  0  0  3  0  0  0  0  0  0
  160.9180  209.6300  156.2140 N   0  0  0  0  0  2  0  0  0  0  0  0
  162.1100  207.6710  156.6340 O   0  0  0  0  0  0  0  0  0  0  0  0
  161.0160  208.2020  156.2920 C   0  0  0  0  0  0  0  0  0  0  0  0
  161.9140  210.4900  156.8390 C   0  0  1  0  0  3  0  0  0  0  0  0
  163.1240  210.6150  155.9320 C   0  0  0  0  0  1  0  0  0  0  0  0
  161.3210  211.8340  157.1190 C   0  0  0  0  0  0  0  0  0  0  0  0
  162.1560  212.9370  157.2600 O   0  0  0  0  0  1  0  0  0  0  0  0
  160.0750  211.9730  157.2430 O   0  0  0  0  0  0  0  0  0  0  0  0
  162.0240  208.8970  148.3740 C   0  0  0  0  0  2  0  0  0  0  0  0
  161.5830  206.4450  148.1400 C   0  0  0  0  0  0  0  0  0  0  0  0
  160.3990  206.6230  148.5430 O   0  0  0  0  0  0  0  0  0  0  0  0
  162.4890  207.5520  148.0620 N   0  0  0  0  0  2  0  0  0  0  0  0
  162.4450  206.3380  145.5540 O   0  0  0  0  0  1  0  0  0  0  0  0
  160.5860  203.2280  147.1440 C   0  0  2  0  0  3  0  0  0  0  0  0
  161.9830  205.0960  147.6170 C   0  0  2  0  0  3  0  0  0  0  0  0
  162.4240  205.1000  146.2030 C   0  0  2  0  0  0  0  0  0  0  0  0
  163.6150  204.1710  145.9540 C   0  0  0  0  0  1  0  0  0  0  0  0
  161.0480  203.3140  145.8520 O   0  0  0  0  0  0  0  0  0  0  0  0
  160.9930  204.5750  146.5170 C   0  0  1  0  0  0  0  0  0  0  0  0
  161.5900  202.3930  147.8960 C   0  0  0  0  0  3  0  0  0  0  0  0
  161.1560  201.4180  148.6910 C   0  0  0  0  0  2  0  0  0  0  0  0
  160.4900  211.7060  152.2460 C   0  0  0  0  0  2  0  0  0  0  0  0
  159.1820  212.5040  152.3360 C   0  0  1  0  0  3  0  0  0  0  0  0
  159.1290  213.5800  154.3580 C   0  0  0  0  0  1  0  0  0  0  0  0
  158.6380  212.4730  153.6440 O   0  0  0  0  0  0  0  0  0  0  0  0
  159.3150  213.8820  151.8440 N   0  0  0  0  0  2  0  0  0  0  0  0
  159.3110  214.2270  150.4630 C   0  0  0  0  0  3  0  0  0  0  0  0
  158.3550  213.7590  149.6690 C   0  0  0  0  0  3  0  0  0  0  0  0
  159.3430  213.4720  147.5400 F   0  0  0  0  0  0  0  0  0  0  0  0
  158.3010  214.0900  148.2110 C   0  0  1  0  0  3  0  0  0  0  0  0
  156.9720  213.6900  147.5830 C   0  0  0  0  0  2  0  0  0  0  0  0
  157.1200  212.4860  146.8890 O   0  0  0  0  0  1  0  0  0  0  0  0
  1  7  1  0  0  0  0
  2  8  2  0  0  0  0
  2 10  1  0  0  0  0
  3  1  1  0  0  0  0
  4 15  1  0  0  0  0
  5  4  1  0  0  0  0
  6  4  2  0  0  0  0
  7 10  1  0  0  0  0
  7 38  1  1  0  0  0
  8 14  1  0  0  0  0
  9  6  1  0  0  0  0
 10 16  2  0  0  0  0
 11 19  1  0  0  0  0
 11 12  2  0  0  0  0
 13 25  1  6  0  0  0
 13  3  1  0  0  0  0
 13  2  1  0  0  0  0
 14  9  1  0  0  0  0
 14  5  2  0  0  0  0
 15 11  1  0  0  0  0
 16  5  1  0  0  0  0
 17 19  1  0  0  0  0
 17 20  1  0  0  0  0
 19 18  2  0  0  0  0
 20 21  1  6  0  0  0
 20 22  1  0  0  0  0
 22 24  2  0  0  0  0
 22 23  1  0  0  0  0
 26 27  2  0  0  0  0
 28 26  1  0  0  0  0
 28 25  1  0  0  0  0
 29 32  1  0  0  0  0
 30 36  1  1  0  0  0
 31 26  1  6  0  0  0
 32 33  1  6  0  0  0
 32 35  1  0  0  0  0
 32 31  1  0  0  0  0
 34 30  1  0  0  0  0
 35 34  1  6  0  0  0
 35 30  1  0  0  0  0
 35 31  1  0  0  0  0
 36 37  2  0  0  0  0
 39 38  1  1  0  0  0
 39 41  1  0  0  0  0
 41 40  1  0  0  0  0
 42 39  1  0  0  0  0
 43 42  1  0  0  0  0
 44 43  2  0  0  0  0
 46 45  1  6  0  0  0
 46 44  1  0  0  0  0
 47 46  1  0  0  0  0
 48 47  1  0  0  0  0
M  END
>  <MODEL>
2

>  <REMARK>
 VINA RESULT:      -2.2      2.062      3.334
  Name = 
  14 active torsions:
  status: ('A' for Active; 'I' for Inactive)
    1  A    between atoms: C_2  and  CA_42
    2  A    between atoms: C_3  and  C_22
    3  A    between atoms: C_4  and  C_14
    4  A    between atoms: N_6  and  CA_42
    5  A    between atoms: C_12  and  C_31
    6  A    between atoms: C_18  and  C_43
    7  A    between atoms: O_21  and  C_35
    8  A    between atoms: C_22  and  C_34
    9  A    between atoms: N_23  and  C_37
   10  A    between atoms: C_27  and  C_47
   11  A    between atoms: C_30  and  N_44
   12  A    between atoms: C_35  and  C_43
   13  A    between atoms: C_35  and  N_44
   14  A    between atoms: C_37  and  C_38
                            x       y       z     vdW  Elec       q    Type
                         _______ _______ _______ _____ _____    ______ ____

>  <TORSDO>
F 14

$$$$
=
 OpenBabel11042423063D

 48 52  0  0  1  0  0  0  0  0999 V2000
  160.9050  211.0740  149.5950 C   0  0  0  0  0  2  0  0  0  0  0  0
  162.1560  208.6630  150.7450 C   0  0  0  0  0  0  0  0  0  0  0  0
  162.6930  210.9700  149.3490 S   0  0  0  0  0  0  0  0  0  0  0  0
  160.7450  206.6120  154.0720 C   0  0  0  0  0  0  0  0  0  0  0  0
  161.1410  207.5370  153.0320 C   0  0  0  0  0  0  0  0  0  0  0  0
  161.2960  205.4490  153.9110 N   0  0  0  0  0  0  0  0  0  0  0  0
  160.5360  210.6690  151.0160 C   0  0  1  0  0  3  0  0  0  0  0  0
  162.5490  207.4160  151.1340 N   0  0  0  0  0  0  0  0  0  0  0  0
  162.2180  205.4840  152.7680 C   0  0  0  0  0  2  0  0  0  0  0  0
  161.1500  209.3640  151.4850 C   0  0  0  0  0  0  0  0  0  0  0  0
  159.9610  207.9070  156.1040 C   0  0  0  0  0  0  0  0  0  0  0  0
  158.9960  208.1610  156.8760 O   0  0  0  0  0  0  0  0  0  0  0  0
  162.6590  209.1480  149.4170 C   0  0  2  0  0  3  0  0  0  0  0  0
  162.0610  206.8780  152.2770 C   0  0  0  0  0  0  0  0  0  0  0  0
  159.8050  206.8760  155.1130 N   0  0  0  0  0  2  0  0  0  0  0  0
  160.6390  208.7770  152.6580 C   0  0  0  0  0  3  0  0  0  0  0  0
  161.2390  210.0630  156.2530 N   0  0  0  0  0  2  0  0  0  0  0  0
  162.3150  208.0100  156.5090 O   0  0  0  0  0  0  0  0  0  0  0  0
  161.2320  208.6300  156.3090 C   0  0  0  0  0  0  0  0  0  0  0  0
  162.3690  210.8320  156.7570 C   0  0  1  0  0  3  0  0  0  0  0  0
  163.4680  210.8710  155.7120 C   0  0  0  0  0  1  0  0  0  0  0  0
  161.9240  212.2150  157.1110 C   0  0  0  0  0  0  0  0  0  0  0  0
  160.5680  212.4830  157.2610 O   0  0  0  0  0  1  0  0  0  0  0  0
  162.7650  213.1420  157.2590 O   0  0  0  0  0  0  0  0  0  0  0  0
  161.7960  208.5350  148.3170 C   0  0  0  0  0  2  0  0  0  0  0  0
  161.4150  206.0990  147.8940 C   0  0  0  0  0  0  0  0  0  0  0  0
  160.2280  206.2160  148.3120 O   0  0  0  0  0  0  0  0  0  0  0  0
  162.2930  207.2300  147.9010 N   0  0  0  0  0  2  0  0  0  0  0  0
  162.3980  206.2340  145.3530 O   0  0  0  0  0  1  0  0  0  0  0  0
  160.4830  202.9880  146.5570 C   0  0  2  0  0  3  0  0  0  0  0  0
  161.8460  204.8050  147.2680 C   0  0  2  0  0  3  0  0  0  0  0  0
  162.3530  204.9410  145.8830 C   0  0  2  0  0  0  0  0  0  0  0  0
  163.5590  204.0400  145.6050 C   0  0  0  0  0  1  0  0  0  0  0  0
  161.0040  203.1940  145.3020 O   0  0  0  0  0  0  0  0  0  0  0  0
  160.9110  204.3880  146.0780 C   0  0  1  0  0  0  0  0  0  0  0  0
  161.4540  202.0870  147.2740 C   0  0  0  0  0  3  0  0  0  0  0  0
  161.0870  201.5230  148.4220 C   0  0  0  0  0  2  0  0  0  0  0  0
  160.7970  211.8090  151.9930 C   0  0  0  0  0  2  0  0  0  0  0  0
  159.4800  212.4670  152.4310 C   0  0  1  0  0  3  0  0  0  0  0  0
  158.2560  214.3790  152.1210 C   0  0  0  0  0  1  0  0  0  0  0  0
  159.0100  213.3910  151.4650 O   0  0  0  0  0  0  0  0  0  0  0  0
  158.4410  211.4900  152.7870 N   0  0  0  0  0  2  0  0  0  0  0  0
  158.0540  211.2090  154.1270 C   0  0  0  0  0  3  0  0  0  0  0  0
  157.0810  211.9120  154.6940 C   0  0  0  0  0  3  0  0  0  0  0  0
  157.6990  211.7820  156.9720 F   0  0  0  0  0  0  0  0  0  0  0  0
  156.6330  211.6590  156.0990 C   0  0  1  0  0  3  0  0  0  0  0  0
  155.5090  212.5990  156.5180 C   0  0  0  0  0  2  0  0  0  0  0  0
  155.1210  213.3860  155.4310 O   0  0  0  0  0  1  0  0  0  0  0  0
  1  7  1  0  0  0  0
  2  8  2  0  0  0  0
  2 10  1  0  0  0  0
  3 13  1  0  0  0  0
  3  1  1  0  0  0  0
  4 15  1  0  0  0  0
  5  4  1  0  0  0  0
  6  4  2  0  0  0  0
  7 10  1  0  0  0  0
  7 38  1  1  0  0  0
  8 14  1  0  0  0  0
  9  6  1  0  0  0  0
 10 16  2  0  0  0  0
 11 19  1  0  0  0  0
 11 12  2  0  0  0  0
 13 25  1  6  0  0  0
 13  2  1  0  0  0  0
 14  9  1  0  0  0  0
 14  5  2  0  0  0  0
 15 11  1  0  0  0  0
 16  5  1  0  0  0  0
 17 19  1  0  0  0  0
 17 20  1  0  0  0  0
 19 18  2  0  0  0  0
 20 21  1  6  0  0  0
 20 22  1  0  0  0  0
 22 24  2  0  0  0  0
 22 23  1  0  0  0  0
 26 28  1  0  0  0  0
 26 27  2  0  0  0  0
 28 25  1  0  0  0  0
 29 32  1  0  0  0  0
 30 36  1  1  0  0  0
 31 26  1  6  0  0  0
 32 33  1  6  0  0  0
 32 35  1  0  0  0  0
 32 31  1  0  0  0  0
 34 30  1  0  0  0  0
 35 34  1  6  0  0  0
 35 30  1  0  0  0  0
 35 31  1  0  0  0  0
 36 37  2  0  0  0  0
 39 38  1  6  0  0  0
 39 42  1  0  0  0  0
 41 40  1  0  0  0  0
 41 39  1  0  0  0  0
 42 43  1  0  0  0  0
 43 44  2  0  0  0  0
 44 46  1  0  0  0  0
 46 47  1  0  0  0  0
 46 45  1  1  0  0  0
 48 47  1  0  0  0  0
M  END
>  <MODEL>
3

>  <REMARK>
 VINA RESULT:      -2.1      0.997      1.622
  Name = 
  14 active torsions:
  status: ('A' for Active; 'I' for Inactive)
    1  A    between atoms: C_2  and  CA_42
    2  A    between atoms: C_3  and  C_22
    3  A    between atoms: C_4  and  C_14
    4  A    between atoms: N_6  and  CA_42
    5  A    between atoms: C_12  and  C_31
    6  A    between atoms: C_18  and  C_43
    7  A    between atoms: O_21  and  C_35
    8  A    between atoms: C_22  and  C_34
    9  A    between atoms: N_23  and  C_37
   10  A    between atoms: C_27  and  C_47
   11  A    between atoms: C_30  and  N_44
   12  A    between atoms: C_35  and  C_43
   13  A    between atoms: C_35  and  N_44
   14  A    between atoms: C_37  and  C_38
                            x       y       z     vdW  Elec       q    Type
                         _______ _______ _______ _____ _____    ______ ____

>  <TORSDO>
F 14

$$$$
=
 OpenBabel11042423063D

 48 52  0  0  1  0  0  0  0  0999 V2000
  160.4990  213.8500  149.1870 C   0  0  0  0  0  2  0  0  0  0  0  0
  159.5130  212.0640  151.3180 C   0  0  0  0  0  0  0  0  0  0  0  0
  158.6980  213.7170  149.2770 S   0  0  0  0  0  0  0  0  0  0  0  0
  161.5670  208.7670  152.7930 C   0  0  0  0  0  0  0  0  0  0  0  0
  160.9680  209.8580  152.0550 C   0  0  0  0  0  0  0  0  0  0  0  0
  161.0000  208.6060  153.9490 N   0  0  0  0  0  0  0  0  0  0  0  0
  161.1450  212.4810  149.3470 C   0  0  1  0  0  3  0  0  0  0  0  0
  159.2110  211.3890  152.4630 N   0  0  0  0  0  0  0  0  0  0  0  0
  159.8690  209.5340  154.0870 C   0  0  0  0  0  2  0  0  0  0  0  0
  160.6430  211.6740  150.5280 C   0  0  0  0  0  0  0  0  0  0  0  0
  162.7340  207.1950  151.1860 C   0  0  0  0  0  0  0  0  0  0  0  0
  163.8320  206.6860  150.8300 O   0  0  0  0  0  0  0  0  0  0  0  0
  158.7540  213.3330  151.0590 C   0  0  2  0  0  3  0  0  0  0  0  0
  159.9190  210.2870  152.8060 C   0  0  0  0  0  0  0  0  0  0  0  0
  162.6940  207.9960  152.3800 N   0  0  0  0  0  2  0  0  0  0  0  0
  161.3800  210.5380  150.9150 C   0  0  0  0  0  3  0  0  0  0  0  0
  161.6430  206.6810  148.9830 N   0  0  0  0  0  2  0  0  0  0  0  0
  160.3890  206.7960  150.9450 O   0  0  0  0  0  0  0  0  0  0  0  0
  161.5250  206.8760  150.3980 C   0  0  0  0  0  0  0  0  0  0  0  0
  160.5740  206.0590  148.2160 C   0  0  1  0  0  3  0  0  0  0  0  0
  160.5710  206.6100  146.8020 C   0  0  0  0  0  1  0  0  0  0  0  0
  160.7520  204.5740  148.2050 C   0  0  0  0  0  0  0  0  0  0  0  0
  161.5440  203.9850  147.2250 O   0  0  0  0  0  0  0  0  0  0  0  0
  160.1800  203.8530  149.0650 O   0  0  0  0  0  1  0  0  0  0  0  0
  159.3830  214.4530  151.8830 C   0  0  0  0  0  2  0  0  0  0  0  0
  157.5770  214.0380  153.5640 C   0  0  0  0  0  0  0  0  0  0  0  0
  156.7740  213.7600  152.6270 O   0  0  0  0  0  0  0  0  0  0  0  0
  158.9180  214.4390  153.2630 N   0  0  0  0  0  2  0  0  0  0  0  0
  159.3620  212.7710  155.1910 O   0  0  0  0  0  1  0  0  0  0  0  0
  155.4780  212.3260  155.8000 C   0  0  2  0  0  3  0  0  0  0  0  0
  157.1500  213.8100  154.9840 C   0  0  2  0  0  3  0  0  0  0  0  0
  158.1540  213.1030  155.8130 C   0  0  2  0  0  0  0  0  0  0  0  0
  158.2410  213.6580  157.2370 C   0  0  0  0  0  1  0  0  0  0  0  0
  156.4790  211.7280  156.5270 O   0  0  0  0  0  0  0  0  0  0  0  0
  156.9330  212.2880  155.2960 C   0  0  1  0  0  0  0  0  0  0  0  0
  154.9800  213.4780  156.6330 C   0  0  0  0  0  3  0  0  0  0  0  0
  154.2900  214.4520  156.0460 C   0  0  0  0  0  2  0  0  0  0  0  0
  161.0790  211.6910  148.0440 C   0  0  0  0  0  2  0  0  0  0  0  0
  160.8820  212.6290  146.8450 C   0  0  1  0  0  3  0  0  0  0  0  0
  162.4070  214.2120  146.1960 C   0  0  0  0  0  1  0  0  0  0  0  0
  162.0940  212.8420  146.1430 O   0  0  0  0  0  0  0  0  0  0  0  0
  159.8100  212.1890  145.9410 N   0  0  0  0  0  2  0  0  0  0  0  0
  159.7490  212.5410  144.5640 C   0  0  0  0  0  3  0  0  0  0  0  0
  160.5610  211.9500  143.6950 C   0  0  0  0  0  3  0  0  0  0  0  0
  159.5670  211.5390  141.5890 F   0  0  0  0  0  0  0  0  0  0  0  0
  160.5400  212.2810  142.2360 C   0  0  1  0  0  3  0  0  0  0  0  0
  160.3060  213.7670  141.9910 C   0  0  0  0  0  2  0  0  0  0  0  0
  160.1990  214.0080  140.6180 O   0  0  0  0  0  1  0  0  0  0  0  0
  1  3  1  0  0  0  0
  1  7  1  0  0  0  0
  2  8  1  0  0  0  0
  3 13  1  0  0  0  0
  4  6  2  0  0  0  0
  5  4  1  0  0  0  0
  5 14  1  0  0  0  0
  6  9  1  0  0  0  0
  7 38  1  6  0  0  0
  7 10  1  0  0  0  0
  8 14  2  0  0  0  0
 10 16  1  0  0  0  0
 10  2  2  0  0  0  0
 11 15  1  0  0  0  0
 12 11  2  0  0  0  0
 13  2  1  0  0  0  0
 13 25  1  1  0  0  0
 14  9  1  0  0  0  0
 15  4  1  0  0  0  0
 16  5  2  0  0  0  0
 17 19  1  0  0  0  0
 19 18  2  0  0  0  0
 19 11  1  0  0  0  0
 20 21  1  6  0  0  0
 20 17  1  0  0  0  0
 22 20  1  0  0  0  0
 22 24  1  0  0  0  0
 23 22  2  0  0  0  0
 25 28  1  0  0  0  0
 27 26  2  0  0  0  0
 28 26  1  0  0  0  0
 29 32  1  0  0  0  0
 30 34  1  0  0  0  0
 30 36  1  1  0  0  0
 31 26  1  6  0  0  0
 31 35  1  0  0  0  0
 31 32  1  0  0  0  0
 32 33  1  1  0  0  0
 35 30  1  0  0  0  0
 35 32  1  0  0  0  0
 35 34  1  6  0  0  0
 37 36  2  0  0  0  0
 39 38  1  1  0  0  0
 41 40  1  0  0  0  0
 41 39  1  0  0  0  0
 42 39  1  0  0  0  0
 43 42  1  0  0  0  0
 44 43  2  0  0  0  0
 46 45  1  6  0  0  0
 46 44  1  0  0  0  0
 47 46  1  0  0  0  0
 48 47  1  0  0  0  0
M  END
>  <MODEL>
4

>  <REMARK>
 VINA RESULT:      -0.9      3.992      9.698
  Name = 
  14 active torsions:
  status: ('A' for Active; 'I' for Inactive)
    1  A    between atoms: C_2  and  CA_42
    2  A    between atoms: C_3  and  C_22
    3  A    between atoms: C_4  and  C_14
    4  A    between atoms: N_6  and  CA_42
    5  A    between atoms: C_12  and  C_31
    6  A    between atoms: C_18  and  C_43
    7  A    between atoms: O_21  and  C_35
    8  A    between atoms: C_22  and  C_34
    9  A    between atoms: N_23  and  C_37
   10  A    between atoms: C_27  and  C_47
   11  A    between atoms: C_30  and  N_44
   12  A    between atoms: C_35  and  C_43
   13  A    between atoms: C_35  and  N_44
   14  A    between atoms: C_37  and  C_38
                            x       y       z     vdW  Elec       q    Type
                         _______ _______ _______ _____ _____    ______ ____

>  <TORSDO>
F 14

$$$$
