=
 OpenBabel11042420513D

 52 56  0  0  1  0  0  0  0  0999 V2000
  161.3880  204.3310  152.7420 C   0  0  1  0  0  3  0  0  0  0  0  0
  161.0120  205.0800  149.5040 C   0  0  0  0  0  2  0  0  0  0  0  0
  161.9820  205.6910  152.7410 N   0  0  0  0  0  0  0  0  0  0  0  0
  159.8550  204.2840  152.9210 C   0  0  0  0  0  1  0  0  0  0  0  0
  161.8500  203.6390  151.4550 C   0  0  2  0  0  3  0  0  0  0  0  0
  162.5260  207.3000  150.8140 C   0  0  0  0  0  3  0  0  0  0  0  0
  162.1640  204.7480  150.4650 C   0  0  2  0  0  3  0  0  0  0  0  0
  162.5440  205.9000  151.3880 C   0  0  2  0  0  3  0  0  0  0  0  0
  160.0820  207.3720  150.0890 C   0  0  0  0  0  2  0  0  0  0  0  0
  161.4840  207.9440  150.2710 C   0  0  0  0  0  0  0  0  0  0  0  0
  159.8980  205.8550  150.1920 C   0  0  0  0  0  2  0  0  0  0  0  0
  161.0070  210.3300  152.0230 C   0  0  0  0  0  1  0  0  0  0  0  0
  162.1640  211.8680  148.8320 C   0  0  0  0  0  0  0  0  0  0  0  0
  161.7070  211.6870  150.1030 N   0  0  0  0  0  0  0  0  0  0  0  0
  162.4190  210.7470  148.0330 C   0  0  0  0  0  3  0  0  0  0  0  0
  162.1960  209.5040  148.5320 N   0  0  0  0  0  0  0  0  0  0  0  0
  162.3870  213.1970  148.3370 N   0  0  0  0  0  0  0  0  0  0  0  0
  161.7200  209.3180  149.7960 C   0  0  0  0  0  0  0  0  0  0  0  0
  161.4750  210.4490  150.6070 C   0  0  0  0  0  0  0  0  0  0  0  0
  162.2240  214.2550  149.1630 O   0  0  0  0  0  1  0  0  0  0  0  0
  162.6450  213.4580  146.9270 C   0  0  0  0  0  2  0  0  0  0  0  0
  161.3590  213.7300  146.1680 C   0  0  0  0  0  2  0  0  0  0  0  0
  161.4470  213.2190  144.7400 C   0  0  0  0  0  2  0  0  0  0  0  0
  162.7800  213.0150  144.3750 O   0  0  0  0  0  1  0  0  0  0  0  0
  161.0720  206.7660  153.1690 C   0  0  0  0  0  2  0  0  0  0  0  0
  159.5610  207.0570  155.6070 O   0  0  0  0  0  0  0  0  0  0  0  0
  160.7200  207.5530  155.5560 C   0  0  0  0  0  0  0  0  0  0  0  0
  161.5460  207.3720  154.4050 N   0  0  0  0  0  2  0  0  0  0  0  0
  161.2190  208.3630  156.7060 C   0  0  0  0  0  2  0  0  0  0  0  0
  161.4980  209.7910  156.3270 C   0  0  0  0  0  0  0  0  0  0  0  0
  162.5810  210.3110  156.5540 O   0  0  0  0  0  0  0  0  0  0  0  0
  160.9470  211.7950  155.1810 O   0  0  0  0  0  1  0  0  0  0  0  0
  160.4380  210.5580  155.5990 C   0  0  2  0  0  3  0  0  0  0  0  0
  157.9590  210.7970  155.6500 C   0  0  0  0  0  2  0  0  0  0  0  0
  158.5680  212.1020  156.1430 C   0  0  0  0  0  2  0  0  0  0  0  0
  159.2260  210.7760  156.4990 C   0  0  0  0  0  3  0  0  0  0  0  0
  160.9870  202.4910  150.9340 C   0  0  0  0  0  2  0  0  0  0  0  0
  161.7300  201.7510  149.8440 C   0  0  0  0  0  2  0  0  0  0  0  0
  160.7540  200.3520  146.7750 C   0  0  2  0  0  3  0  0  0  0  0  0
  160.4210  200.7410  148.0990 O   0  0  0  0  0  0  0  0  0  0  0  0
  162.0000  199.7200  146.7570 O   0  0  0  0  0  1  0  0  0  0  0  0
  161.2090  202.7880  146.4430 C   0  0  2  0  0  3  0  0  0  0  0  0
  161.9790  202.4550  147.5650 O   0  0  0  0  0  0  0  0  0  0  0  0
  160.7260  201.5100  145.7630 C   0  0  2  0  0  3  0  0  0  0  0  0
  161.0550  201.9540  148.5020 C   0  0  2  0  0  3  0  0  0  0  0  0
  159.3160  201.7190  145.2380 C   0  0  0  0  0  2  0  0  0  0  0  0
  159.2890  202.7940  144.3520 O   0  0  0  0  0  1  0  0  0  0  0  0
  162.0200  203.6370  145.4780 C   0  0  0  0  0  2  0  0  0  0  0  0
  161.7450  206.0340  146.2350 C   0  0  0  0  0  0  0  0  0  0  0  0
  160.5380  206.1540  145.5410 O   0  0  0  0  0  0  0  0  0  0  0  0
  162.5090  204.8330  146.1550 N   0  0  0  0  0  2  0  0  0  0  0  0
  162.1810  207.0010  146.9090 O   0  0  0  0  0  1  0  0  0  0  0  0
  1  4  1  6  0  0  0
  2 11  1  0  0  0  0
  3  1  1  0  0  0  0
  3 25  1  0  0  0  0
  5 37  1  6  0  0  0
  5  1  1  0  0  0  0
  7  2  1  1  0  0  0
  7  8  1  0  0  0  0
  7  5  1  0  0  0  0
  8  6  1  6  0  0  0
  8  3  1  0  0  0  0
  9 11  1  0  0  0  0
  9 10  1  0  0  0  0
 10  6  2  0  0  0  0
 13 14  1  0  0  0  0
 14 19  2  0  0  0  0
 15 16  1  0  0  0  0
 15 13  2  0  0  0  0
 16 18  2  0  0  0  0
 17 13  1  0  0  0  0
 17 20  1  0  0  0  0
 18 10  1  0  0  0  0
 18 19  1  0  0  0  0
 19 12  1  0  0  0  0
 21 17  1  0  0  0  0
 22 21  1  0  0  0  0
 23 22  1  0  0  0  0
 24 23  1  0  0  0  0
 25 28  1  0  0  0  0
 27 26  2  0  0  0  0
 27 29  1  0  0  0  0
 28 27  1  0  0  0  0
 30 31  2  0  0  0  0
 30 29  1  0  0  0  0
 33 32  1  1  0  0  0
 33 30  1  0  0  0  0
 33 36  1  0  0  0  0
 34 35  1  0  0  0  0
 34 36  1  0  0  0  0
 35 36  1  0  0  0  0
 38 37  1  0  0  0  0
 39 41  1  1  0  0  0
 39 40  1  0  0  0  0
 40 45  1  0  0  0  0
 42 48  1  6  0  0  0
 42 43  1  0  0  0  0
 43 45  1  0  0  0  0
 44 46  1  1  0  0  0
 44 42  1  0  0  0  0
 44 39  1  0  0  0  0
 45 38  1  1  0  0  0
 47 46  1  0  0  0  0
 48 51  1  0  0  0  0
 49 52  1  0  0  0  0
 50 49  2  0  0  0  0
 51 49  1  0  0  0  0
M  END
>  <MODEL>
1

>  <REMARK>
 VINA RESULT:      -3.8      0.000      0.000
  Name = 
  16 active torsions:
  status: ('A' for Active; 'I' for Inactive)
    1  A    between atoms: C_1  and  C_24
    2  A    between atoms: C_1  and  C_47
    3  A    between atoms: C_10  and  C_17
    4  A    between atoms: N_12  and  C_32
    5  A    between atoms: C_13  and  C_24
    6  A    between atoms: C_13  and  C_42
    7  A    between atoms: C_15  and  C_43
    8  A    between atoms: C_17  and  C_29
    9  A    between atoms: C_21  and  C_48
   10  A    between atoms: C_22  and  C_49
   11  A    between atoms: C_29  and  N_36
   12  A    between atoms: C_32  and  N_51
   13  A    between atoms: C_34  and  C_44
   14  A    between atoms: C_34  and  C_49
   15  A    between atoms: C_37  and  C_39
   16  A    between atoms: N_38  and  C_48
                            x       y       z     vdW  Elec       q    Type
                         _______ _______ _______ _____ _____    ______ ____

>  <TORSDO>
F 16

$$$$
=
 OpenBabel11042420513D

 52 56  0  0  1  0  0  0  0  0999 V2000
  162.0600  210.6270  152.9890 C   0  0  1  0  0  3  0  0  0  0  0  0
  160.7240  207.6010  153.4840 C   0  0  0  0  0  2  0  0  0  0  0  0
  162.6010  209.9290  151.7970 N   0  0  0  0  0  0  0  0  0  0  0  0
  160.6520  211.2330  152.8130 C   0  0  0  0  0  1  0  0  0  0  0  0
  162.1320  209.6380  154.1580 C   0  0  2  0  0  3  0  0  0  0  0  0
  162.5170  207.4590  151.0960 C   0  0  0  0  0  3  0  0  0  0  0  0
  162.1160  208.2490  153.5410 C   0  0  2  0  0  3  0  0  0  0  0  0
  162.7310  208.5030  152.1700 C   0  0  2  0  0  3  0  0  0  0  0  0
  159.9670  207.4830  151.0600 C   0  0  0  0  0  2  0  0  0  0  0  0
  161.3480  207.0250  150.6050 C   0  0  0  0  0  0  0  0  0  0  0  0
  159.8510  208.2150  152.4010 C   0  0  0  0  0  2  0  0  0  0  0  0
  162.5280  207.6100  147.9110 C   0  0  0  0  0  1  0  0  0  0  0  0
  161.4630  204.0550  147.5890 C   0  0  0  0  0  0  0  0  0  0  0  0
  161.9540  205.2980  147.3270 N   0  0  0  0  0  0  0  0  0  0  0  0
  160.9470  203.7790  148.8610 C   0  0  0  0  0  3  0  0  0  0  0  0
  160.9340  204.7550  149.8050 N   0  0  0  0  0  0  0  0  0  0  0  0
  161.4910  203.0470  146.5660 N   0  0  0  0  0  0  0  0  0  0  0  0
  161.4060  206.0060  149.5420 C   0  0  0  0  0  0  0  0  0  0  0  0
  161.9390  206.2810  148.2620 C   0  0  0  0  0  0  0  0  0  0  0  0
  162.0830  203.3140  145.3800 O   0  0  0  0  0  1  0  0  0  0  0  0
  160.7740  201.7860  146.7090 C   0  0  0  0  0  2  0  0  0  0  0  0
  160.2350  201.3010  145.3760 C   0  0  0  0  0  2  0  0  0  0  0  0
  160.6230  199.8550  145.1220 C   0  0  0  0  0  2  0  0  0  0  0  0
  161.5040  199.4040  146.1090 O   0  0  0  0  0  1  0  0  0  0  0  0
  161.8390  210.1410  150.5550 C   0  0  0  0  0  2  0  0  0  0  0  0
  161.2340  211.0070  147.8730 O   0  0  0  0  0  0  0  0  0  0  0  0
  161.8910  211.7830  148.6200 C   0  0  0  0  0  0  0  0  0  0  0  0
  162.1520  211.4430  149.9820 N   0  0  0  0  0  2  0  0  0  0  0  0
  162.4240  213.0590  148.0590 C   0  0  0  0  0  2  0  0  0  0  0  0
  161.3980  213.8080  147.2540 C   0  0  0  0  0  0  0  0  0  0  0  0
  160.3660  214.2200  147.7620 O   0  0  0  0  0  0  0  0  0  0  0  0
  160.4990  214.1270  145.0810 O   0  0  0  0  0  1  0  0  0  0  0  0
  161.6920  214.1010  145.8150 C   0  0  2  0  0  3  0  0  0  0  0  0
  163.5050  213.6780  144.1600 C   0  0  0  0  0  2  0  0  0  0  0  0
  162.3020  212.8330  143.7670 C   0  0  0  0  0  2  0  0  0  0  0  0
  162.6310  213.0470  145.2380 C   0  0  0  0  0  3  0  0  0  0  0  0
  161.1750  209.8700  155.3260 C   0  0  0  0  0  2  0  0  0  0  0  0
  161.4910  211.1930  155.9860 C   0  0  0  0  0  2  0  0  0  0  0  0
  157.9920  211.1270  156.2600 C   0  0  2  0  0  3  0  0  0  0  0  0
  159.2650  211.0620  156.8840 O   0  0  0  0  0  0  0  0  0  0  0  0
  157.9920  210.3780  155.0810 O   0  0  0  0  0  1  0  0  0  0  0  0
  158.7070  213.4340  155.6150 C   0  0  2  0  0  3  0  0  0  0  0  0
  159.7520  212.6210  155.1570 O   0  0  0  0  0  0  0  0  0  0  0  0
  157.5100  212.5620  155.9840 C   0  0  2  0  0  3  0  0  0  0  0  0
  160.2190  211.9510  156.3050 C   0  0  2  0  0  3  0  0  0  0  0  0
  156.8260  213.1370  157.2120 C   0  0  0  0  0  2  0  0  0  0  0  0
  156.1580  214.3130  156.8820 O   0  0  0  0  0  1  0  0  0  0  0  0
  158.3240  214.4510  154.5530 C   0  0  0  0  0  2  0  0  0  0  0  0
  157.4480  213.7430  152.2890 C   0  0  0  0  0  0  0  0  0  0  0  0
  156.1340  214.0260  152.6670 O   0  0  0  0  0  1  0  0  0  0  0  0
  158.5160  213.8820  153.2230 N   0  0  0  0  0  2  0  0  0  0  0  0
  157.6930  213.3300  151.1270 O   0  0  0  0  0  0  0  0  0  0  0  0
  1  4  1  6  0  0  0
  1  5  1  0  0  0  0
  3  8  1  0  0  0  0
  3  1  1  0  0  0  0
  5 37  1  1  0  0  0
  7  2  1  6  0  0  0
  7  5  1  0  0  0  0
  8  6  1  6  0  0  0
  8  7  1  0  0  0  0
  9 11  1  0  0  0  0
 10  9  1  0  0  0  0
 10  6  2  0  0  0  0
 11  2  1  0  0  0  0
 12 19  1  0  0  0  0
 13 15  1  0  0  0  0
 14 13  2  0  0  0  0
 14 19  1  0  0  0  0
 15 16  2  0  0  0  0
 17 21  1  0  0  0  0
 17 13  1  0  0  0  0
 18 16  1  0  0  0  0
 18 10  1  0  0  0  0
 19 18  2  0  0  0  0
 20 17  1  0  0  0  0
 22 21  1  0  0  0  0
 23 22  1  0  0  0  0
 23 24  1  0  0  0  0
 25  3  1  0  0  0  0
 26 27  2  0  0  0  0
 27 28  1  0  0  0  0
 28 25  1  0  0  0  0
 29 27  1  0  0  0  0
 30 31  2  0  0  0  0
 30 29  1  0  0  0  0
 33 32  1  6  0  0  0
 33 30  1  0  0  0  0
 34 36  1  0  0  0  0
 35 34  1  0  0  0  0
 35 36  1  0  0  0  0
 36 33  1  0  0  0  0
 37 38  1  0  0  0  0
 39 41  1  6  0  0  0
 39 40  1  0  0  0  0
 42 48  1  6  0  0  0
 42 44  1  0  0  0  0
 43 42  1  0  0  0  0
 43 45  1  0  0  0  0
 44 39  1  0  0  0  0
 44 46  1  1  0  0  0
 45 38  1  6  0  0  0
 45 40  1  0  0  0  0
 47 46  1  0  0  0  0
 49 50  1  0  0  0  0
 49 51  1  0  0  0  0
 51 48  1  0  0  0  0
 52 49  2  0  0  0  0
M  END
>  <MODEL>
2

>  <REMARK>
 VINA RESULT:      -2.3      2.351     10.189
  Name = 
  16 active torsions:
  status: ('A' for Active; 'I' for Inactive)
    1  A    between atoms: C_1  and  C_24
    2  A    between atoms: C_1  and  C_47
    3  A    between atoms: C_10  and  C_17
    4  A    between atoms: N_12  and  C_32
    5  A    between atoms: C_13  and  C_24
    6  A    between atoms: C_13  and  C_42
    7  A    between atoms: C_15  and  C_43
    8  A    between atoms: C_17  and  C_29
    9  A    between atoms: C_21  and  C_48
   10  A    between atoms: C_22  and  C_49
   11  A    between atoms: C_29  and  N_36
   12  A    between atoms: C_32  and  N_51
   13  A    between atoms: C_34  and  C_44
   14  A    between atoms: C_34  and  C_49
   15  A    between atoms: C_37  and  C_39
   16  A    between atoms: N_38  and  C_48
                            x       y       z     vdW  Elec       q    Type
                         _______ _______ _______ _____ _____    ______ ____

>  <TORSDO>
F 16

$$$$
=
 OpenBabel11042420513D

 52 56  0  0  1  0  0  0  0  0999 V2000
  160.8610  209.1320  155.0340 C   0  0  1  0  0  3  0  0  0  0  0  0
  160.8430  210.8790  152.1820 C   0  0  0  0  0  2  0  0  0  0  0  0
  160.8620  208.0080  154.0650 N   0  0  0  0  0  0  0  0  0  0  0  0
  162.2530  209.6970  155.3850 C   0  0  0  0  0  1  0  0  0  0  0  0
  159.9150  210.2020  154.4770 C   0  0  2  0  0  3  0  0  0  0  0  0
  160.6200  207.9750  151.5080 C   0  0  0  0  0  3  0  0  0  0  0  0
  159.8720  209.9900  152.9730 C   0  0  2  0  0  3  0  0  0  0  0  0
  160.1690  208.4990  152.8540 C   0  0  2  0  0  3  0  0  0  0  0  0
  162.6970  209.4280  151.2220 C   0  0  0  0  0  2  0  0  0  0  0  0
  161.6990  208.3510  150.8090 C   0  0  0  0  0  0  0  0  0  0  0  0
  162.2850  210.4150  152.3190 C   0  0  0  0  0  2  0  0  0  0  0  0
  161.4640  209.7930  148.1910 C   0  0  0  0  0  1  0  0  0  0  0  0
  162.3620  206.3310  147.1460 C   0  0  0  0  0  0  0  0  0  0  0  0
  162.0220  207.6500  147.1350 N   0  0  0  0  0  0  0  0  0  0  0  0
  162.5060  205.6740  148.3740 C   0  0  0  0  0  3  0  0  0  0  0  0
  162.2930  206.3570  149.5280 N   0  0  0  0  0  0  0  0  0  0  0  0
  162.5790  205.6400  145.9070 N   0  0  0  0  0  0  0  0  0  0  0  0
  161.9320  207.6720  149.5220 C   0  0  0  0  0  0  0  0  0  0  0  0
  161.8000  208.3380  148.2830 C   0  0  0  0  0  0  0  0  0  0  0  0
  162.5270  206.3240  144.7410 O   0  0  0  0  0  1  0  0  0  0  0  0
  162.7120  204.1900  145.8480 C   0  0  0  0  0  2  0  0  0  0  0  0
  161.4090  203.4990  146.2060 C   0  0  0  0  0  2  0  0  0  0  0  0
  160.6860  203.0140  144.9620 C   0  0  0  0  0  2  0  0  0  0  0  0
  160.2730  201.6880  145.1210 O   0  0  0  0  0  1  0  0  0  0  0  0
  162.1870  207.4300  153.7870 C   0  0  0  0  0  2  0  0  0  0  0  0
  160.6610  205.0380  154.2960 O   0  0  0  0  0  0  0  0  0  0  0  0
  161.3530  205.0950  153.2420 C   0  0  0  0  0  0  0  0  0  0  0  0
  162.0660  206.2840  152.8970 N   0  0  0  0  0  2  0  0  0  0  0  0
  161.4460  203.8930  152.3630 C   0  0  0  0  0  2  0  0  0  0  0  0
  160.5190  203.9700  151.1820 C   0  0  0  0  0  0  0  0  0  0  0  0
  159.5350  204.6960  151.1890 O   0  0  0  0  0  0  0  0  0  0  0  0
  160.4350  203.8760  148.8120 O   0  0  0  0  0  1  0  0  0  0  0  0
  160.8580  203.1830  149.9530 C   0  0  2  0  0  3  0  0  0  0  0  0
  161.2650  200.7270  150.0400 C   0  0  0  0  0  2  0  0  0  0  0  0
  160.5450  201.0390  148.7360 C   0  0  0  0  0  2  0  0  0  0  0  0
  160.1930  201.8110  150.0010 C   0  0  0  0  0  3  0  0  0  0  0  0
  160.1340  211.6380  154.9510 C   0  0  0  0  0  2  0  0  0  0  0  0
  159.4960  211.8280  156.3090 C   0  0  0  0  0  2  0  0  0  0  0  0
  156.0070  212.1540  156.5310 C   0  0  2  0  0  3  0  0  0  0  0  0
  157.2860  212.3000  157.1290 O   0  0  0  0  0  0  0  0  0  0  0  0
  155.9290  210.9370  155.8510 O   0  0  0  0  0  1  0  0  0  0  0  0
  156.8690  213.8180  154.8770 C   0  0  2  0  0  3  0  0  0  0  0  0
  157.8440  212.8120  154.8760 O   0  0  0  0  0  0  0  0  0  0  0  0
  155.6230  213.3160  155.5990 C   0  0  2  0  0  3  0  0  0  0  0  0
  158.2870  212.7360  156.2110 C   0  0  2  0  0  3  0  0  0  0  0  0
  155.0080  214.4530  156.3970 C   0  0  0  0  0  2  0  0  0  0  0  0
  153.6180  214.3630  156.3670 O   0  0  0  0  0  1  0  0  0  0  0  0
  156.5360  214.2340  153.4540 C   0  0  0  0  0  2  0  0  0  0  0  0
  157.4130  213.7760  151.1270 C   0  0  0  0  0  0  0  0  0  0  0  0
  156.1750  214.0830  150.5590 O   0  0  0  0  0  1  0  0  0  0  0  0
  157.5810  213.7790  152.5430 N   0  0  0  0  0  2  0  0  0  0  0  0
  158.3810  213.4590  150.3910 O   0  0  0  0  0  0  0  0  0  0  0  0
  1  4  1  6  0  0  0
  2 11  1  0  0  0  0
  3  1  1  0  0  0  0
  5 37  1  6  0  0  0
  5  1  1  0  0  0  0
  7  2  1  6  0  0  0
  7  5  1  0  0  0  0
  8  6  1  6  0  0  0
  8  7  1  0  0  0  0
  8  3  1  0  0  0  0
  9 11  1  0  0  0  0
 10  9  1  0  0  0  0
 10  6  2  0  0  0  0
 12 19  1  0  0  0  0
 13 15  1  0  0  0  0
 14 13  2  0  0  0  0
 14 19  1  0  0  0  0
 15 16  2  0  0  0  0
 17 13  1  0  0  0  0
 18 16  1  0  0  0  0
 18 10  1  0  0  0  0
 19 18  2  0  0  0  0
 20 17  1  0  0  0  0
 21 17  1  0  0  0  0
 21 22  1  0  0  0  0
 23 24  1  0  0  0  0
 23 22  1  0  0  0  0
 25  3  1  0  0  0  0
 27 26  2  0  0  0  0
 28 27  1  0  0  0  0
 28 25  1  0  0  0  0
 29 27  1  0  0  0  0
 30 31  2  0  0  0  0
 30 29  1  0  0  0  0
 33 32  1  6  0  0  0
 33 36  1  0  0  0  0
 33 30  1  0  0  0  0
 35 36  1  0  0  0  0
 35 34  1  0  0  0  0
 36 34  1  0  0  0  0
 37 38  1  0  0  0  0
 39 41  1  6  0  0  0
 39 40  1  0  0  0  0
 42 48  1  6  0  0  0
 42 44  1  0  0  0  0
 43 42  1  0  0  0  0
 43 45  1  0  0  0  0
 44 46  1  1  0  0  0
 44 39  1  0  0  0  0
 45 38  1  6  0  0  0
 45 40  1  0  0  0  0
 47 46  1  0  0  0  0
 49 51  1  0  0  0  0
 50 49  1  0  0  0  0
 51 48  1  0  0  0  0
 52 49  2  0  0  0  0
M  END
>  <MODEL>
3

>  <REMARK>
 VINA RESULT:      -2.3      2.756      9.674
  Name = 
  16 active torsions:
  status: ('A' for Active; 'I' for Inactive)
    1  A    between atoms: C_1  and  C_24
    2  A    between atoms: C_1  and  C_47
    3  A    between atoms: C_10  and  C_17
    4  A    between atoms: N_12  and  C_32
    5  A    between atoms: C_13  and  C_24
    6  A    between atoms: C_13  and  C_42
    7  A    between atoms: C_15  and  C_43
    8  A    between atoms: C_17  and  C_29
    9  A    between atoms: C_21  and  C_48
   10  A    between atoms: C_22  and  C_49
   11  A    between atoms: C_29  and  N_36
   12  A    between atoms: C_32  and  N_51
   13  A    between atoms: C_34  and  C_44
   14  A    between atoms: C_34  and  C_49
   15  A    between atoms: C_37  and  C_39
   16  A    between atoms: N_38  and  C_48
                            x       y       z     vdW  Elec       q    Type
                         _______ _______ _______ _____ _____    ______ ____

>  <TORSDO>
F 16

$$$$
=
 OpenBabel11042420513D

 52 56  0  0  1  0  0  0  0  0999 V2000
  161.8170  210.2610  153.1780 C   0  0  1  0  0  3  0  0  0  0  0  0
  160.7240  207.2550  154.1580 C   0  0  0  0  0  2  0  0  0  0  0  0
  162.2950  209.4480  152.0330 N   0  0  0  0  0  0  0  0  0  0  0  0
  160.3620  210.7650  153.0640 C   0  0  0  0  0  1  0  0  0  0  0  0
  162.0530  209.4320  154.4460 C   0  0  2  0  0  3  0  0  0  0  0  0
  162.3080  206.9080  151.6460 C   0  0  0  0  0  3  0  0  0  0  0  0
  162.0720  207.9770  154.0050 C   0  0  2  0  0  3  0  0  0  0  0  0
  162.5480  208.0890  152.5610 C   0  0  2  0  0  3  0  0  0  0  0  0
  159.7670  206.7930  151.8490 C   0  0  0  0  0  2  0  0  0  0  0  0
  161.1300  206.3550  151.3240 C   0  0  0  0  0  0  0  0  0  0  0  0
  159.7230  207.6820  153.0960 C   0  0  0  0  0  2  0  0  0  0  0  0
  161.0640  203.5170  152.2870 C   0  0  0  0  0  1  0  0  0  0  0  0
  161.2410  203.1260  148.5860 C   0  0  0  0  0  0  0  0  0  0  0  0
  161.1900  202.8720  149.9230 N   0  0  0  0  0  0  0  0  0  0  0  0
  161.2340  204.4540  148.1430 C   0  0  0  0  0  3  0  0  0  0  0  0
  161.1900  205.4630  149.0500 N   0  0  0  0  0  0  0  0  0  0  0  0
  161.2880  202.0350  147.6550 N   0  0  0  0  0  0  0  0  0  0  0  0
  161.1600  205.2150  150.3910 C   0  0  0  0  0  0  0  0  0  0  0  0
  161.1540  203.8740  150.8370 C   0  0  0  0  0  0  0  0  0  0  0  0
  161.1950  200.7630  148.1080 O   0  0  0  0  0  1  0  0  0  0  0  0
  161.5770  202.2410  146.2410 C   0  0  0  0  0  2  0  0  0  0  0  0
  160.5420  201.5680  145.3600 C   0  0  0  0  0  2  0  0  0  0  0  0
  159.6600  202.5930  144.6680 C   0  0  0  0  0  2  0  0  0  0  0  0
  160.3640  203.7830  144.4610 O   0  0  0  0  0  1  0  0  0  0  0  0
  161.4150  209.4610  150.8520 C   0  0  0  0  0  2  0  0  0  0  0  0
  161.8940  209.5330  148.0100 O   0  0  0  0  0  0  0  0  0  0  0  0
  161.9610  210.6140  148.6570 C   0  0  0  0  0  0  0  0  0  0  0  0
  161.6560  210.6540  150.0520 N   0  0  0  0  0  2  0  0  0  0  0  0
  162.3930  211.8590  147.9570 C   0  0  0  0  0  2  0  0  0  0  0  0
  161.6060  213.0650  148.3890 C   0  0  0  0  0  0  0  0  0  0  0  0
  161.8230  213.6210  149.4550 O   0  0  0  0  0  0  0  0  0  0  0  0
  159.3170  213.5940  148.0540 O   0  0  0  0  0  1  0  0  0  0  0  0
  160.5800  213.6240  147.4500 C   0  0  2  0  0  3  0  0  0  0  0  0
  160.0450  213.7040  145.0180 C   0  0  0  0  0  2  0  0  0  0  0  0
  159.1140  212.6940  145.6730 C   0  0  0  0  0  2  0  0  0  0  0  0
  160.5530  212.8210  146.1530 C   0  0  0  0  0  3  0  0  0  0  0  0
  161.1890  209.7590  155.6620 C   0  0  0  0  0  2  0  0  0  0  0  0
  161.6370  211.0710  156.2660 C   0  0  0  0  0  2  0  0  0  0  0  0
  158.1530  211.4000  156.5440 C   0  0  2  0  0  3  0  0  0  0  0  0
  159.4200  211.2750  157.1720 O   0  0  0  0  0  0  0  0  0  0  0  0
  158.0630  210.5240  155.4600 O   0  0  0  0  0  1  0  0  0  0  0  0
  159.0940  213.5300  155.6360 C   0  0  2  0  0  3  0  0  0  0  0  0
  160.0440  212.5660  155.2760 O   0  0  0  0  0  0  0  0  0  0  0  0
  157.8190  212.8350  156.1030 C   0  0  2  0  0  3  0  0  0  0  0  0
  160.4530  211.9880  156.4940 C   0  0  2  0  0  3  0  0  0  0  0  0
  157.2120  213.6160  157.2570 C   0  0  0  0  0  2  0  0  0  0  0  0
  156.0860  214.3130  156.8230 O   0  0  0  0  0  1  0  0  0  0  0  0
  158.8060  214.4520  154.4630 C   0  0  0  0  0  2  0  0  0  0  0  0
  158.1430  213.5950  152.1790 C   0  0  0  0  0  0  0  0  0  0  0  0
  156.8080  213.9450  152.3940 O   0  0  0  0  0  1  0  0  0  0  0  0
  159.1130  213.7750  153.2070 N   0  0  0  0  0  2  0  0  0  0  0  0
  158.4910  213.0850  151.0840 O   0  0  0  0  0  0  0  0  0  0  0  0
  1  4  1  6  0  0  0
  1  5  1  0  0  0  0
  3  8  1  0  0  0  0
  3  1  1  0  0  0  0
  5 37  1  1  0  0  0
  7  2  1  6  0  0  0
  7  5  1  0  0  0  0
  8  6  1  6  0  0  0
  8  7  1  0  0  0  0
  9 11  1  0  0  0  0
 10  6  2  0  0  0  0
 10  9  1  0  0  0  0
 11  2  1  0  0  0  0
 13 14  1  0  0  0  0
 14 19  2  0  0  0  0
 15 13  2  0  0  0  0
 15 16  1  0  0  0  0
 16 18  2  0  0  0  0
 17 20  1  0  0  0  0
 17 13  1  0  0  0  0
 18 19  1  0  0  0  0
 18 10  1  0  0  0  0
 19 12  1  0  0  0  0
 21 17  1  0  0  0  0
 22 21  1  0  0  0  0
 23 22  1  0  0  0  0
 24 23  1  0  0  0  0
 25  3  1  0  0  0  0
 26 27  2  0  0  0  0
 27 28  1  0  0  0  0
 28 25  1  0  0  0  0
 29 30  1  0  0  0  0
 29 27  1  0  0  0  0
 30 31  2  0  0  0  0
 33 32  1  1  0  0  0
 33 30  1  0  0  0  0
 34 35  1  0  0  0  0
 34 36  1  0  0  0  0
 35 36  1  0  0  0  0
 36 33  1  0  0  0  0
 37 38  1  0  0  0  0
 39 41  1  6  0  0  0
 39 40  1  0  0  0  0
 42 48  1  6  0  0  0
 42 44  1  0  0  0  0
 43 42  1  0  0  0  0
 43 45  1  0  0  0  0
 44 39  1  0  0  0  0
 44 46  1  1  0  0  0
 45 38  1  6  0  0  0
 45 40  1  0  0  0  0
 47 46  1  0  0  0  0
 49 50  1  0  0  0  0
 49 51  1  0  0  0  0
 51 48  1  0  0  0  0
 52 49  2  0  0  0  0
M  END
>  <MODEL>
4

>  <REMARK>
 VINA RESULT:      -1.5      2.327      9.850
  Name = 
  16 active torsions:
  status: ('A' for Active; 'I' for Inactive)
    1  A    between atoms: C_1  and  C_24
    2  A    between atoms: C_1  and  C_47
    3  A    between atoms: C_10  and  C_17
    4  A    between atoms: N_12  and  C_32
    5  A    between atoms: C_13  and  C_24
    6  A    between atoms: C_13  and  C_42
    7  A    between atoms: C_15  and  C_43
    8  A    between atoms: C_17  and  C_29
    9  A    between atoms: C_21  and  C_48
   10  A    between atoms: C_22  and  C_49
   11  A    between atoms: C_29  and  N_36
   12  A    between atoms: C_32  and  N_51
   13  A    between atoms: C_34  and  C_44
   14  A    between atoms: C_34  and  C_49
   15  A    between atoms: C_37  and  C_39
   16  A    between atoms: N_38  and  C_48
                            x       y       z     vdW  Elec       q    Type
                         _______ _______ _______ _____ _____    ______ ____

>  <TORSDO>
F 16

$$$$
=
 OpenBabel11042420513D

 52 56  0  0  1  0  0  0  0  0999 V2000
  161.5890  203.9570  144.8610 C   0  0  1  0  0  3  0  0  0  0  0  0
  161.1480  207.2600  145.1410 C   0  0  0  0  0  2  0  0  0  0  0  0
  162.0020  204.1340  146.2750 N   0  0  0  0  0  0  0  0  0  0  0  0
  160.0740  203.7620  144.6390 C   0  0  0  0  0  1  0  0  0  0  0  0
  162.1490  205.1490  144.0780 C   0  0  2  0  0  3  0  0  0  0  0  0
  162.3510  206.2520  147.6860 C   0  0  0  0  0  3  0  0  0  0  0  0
  162.3250  206.2740  145.0850 C   0  0  2  0  0  3  0  0  0  0  0  0
  162.5440  205.5060  146.3840 C   0  0  2  0  0  3  0  0  0  0  0  0
  159.9240  206.9620  147.3480 C   0  0  0  0  0  2  0  0  0  0  0  0
  161.2390  206.8640  148.1150 C   0  0  0  0  0  0  0  0  0  0  0  0
  159.9380  206.6680  145.8450 C   0  0  0  0  0  2  0  0  0  0  0  0
  162.2180  209.6770  148.4610 C   0  0  0  0  0  1  0  0  0  0  0  0
  161.4050  208.6530  151.9490 C   0  0  0  0  0  0  0  0  0  0  0  0
  161.8170  209.3590  150.8600 N   0  0  0  0  0  0  0  0  0  0  0  0
  160.9140  207.3540  151.7750 C   0  0  0  0  0  3  0  0  0  0  0  0
  160.8690  206.8160  150.5290 N   0  0  0  0  0  0  0  0  0  0  0  0
  161.4690  209.2520  153.2530 N   0  0  0  0  0  0  0  0  0  0  0  0
  161.2990  207.5110  149.4380 C   0  0  0  0  0  0  0  0  0  0  0  0
  161.7820  208.8280  149.6120 C   0  0  0  0  0  0  0  0  0  0  0  0
  161.8560  210.5420  153.3780 O   0  0  0  0  0  1  0  0  0  0  0  0
  161.2670  208.4730  154.4680 C   0  0  0  0  0  2  0  0  0  0  0  0
  160.5240  209.2740  155.5220 C   0  0  0  0  0  2  0  0  0  0  0  0
  160.0730  208.3840  156.6680 C   0  0  0  0  0  2  0  0  0  0  0  0
  159.6760  207.1330  156.1890 O   0  0  0  0  0  1  0  0  0  0  0  0
  160.9560  203.8380  147.2680 C   0  0  0  0  0  2  0  0  0  0  0  0
  160.8710  200.9890  146.8350 O   0  0  0  0  0  0  0  0  0  0  0  0
  161.2720  201.4140  147.9530 C   0  0  0  0  0  0  0  0  0  0  0  0
  161.4120  202.8150  148.1980 N   0  0  0  0  0  2  0  0  0  0  0  0
  161.5780  200.4380  149.0390 C   0  0  0  0  0  2  0  0  0  0  0  0
  161.0070  200.8550  150.3660 C   0  0  0  0  0  0  0  0  0  0  0  0
  160.0090  200.3210  150.8280 O   0  0  0  0  0  0  0  0  0  0  0  0
  162.6660  201.3030  152.0030 O   0  0  0  0  0  1  0  0  0  0  0  0
  161.7260  201.9050  151.1560 C   0  0  2  0  0  3  0  0  0  0  0  0
  160.3190  203.9600  151.1920 C   0  0  0  0  0  2  0  0  0  0  0  0
  161.3530  204.0770  152.3040 C   0  0  0  0  0  2  0  0  0  0  0  0
  160.7360  202.7220  151.9800 C   0  0  0  0  0  3  0  0  0  0  0  0
  161.4470  205.5150  142.7710 C   0  0  0  0  0  2  0  0  0  0  0  0
  162.4420  206.1330  141.8150 C   0  0  0  0  0  2  0  0  0  0  0  0
  161.9170  206.9810  138.4490 C   0  0  2  0  0  3  0  0  0  0  0  0
  161.4820  206.3030  139.6180 O   0  0  0  0  0  0  0  0  0  0  0  0
  163.2910  206.8060  138.2730 O   0  0  0  0  0  1  0  0  0  0  0  0
  161.6530  209.0350  139.8490 C   0  0  2  0  0  3  0  0  0  0  0  0
  162.4840  208.2110  140.6190 O   0  0  0  0  0  0  0  0  0  0  0  0
  161.5590  208.4770  138.4320 C   0  0  2  0  0  3  0  0  0  0  0  0
  161.7400  207.0310  140.8170 C   0  0  2  0  0  3  0  0  0  0  0  0
  160.1490  208.6780  137.9030 C   0  0  0  0  0  2  0  0  0  0  0  0
  159.3510  209.2690  138.8800 O   0  0  0  0  0  1  0  0  0  0  0  0
  162.1880  210.4580  139.8330 C   0  0  0  0  0  2  0  0  0  0  0  0
  160.8080  211.8450  141.4330 C   0  0  0  0  0  0  0  0  0  0  0  0
  159.8720  212.1320  140.4370 O   0  0  0  0  0  0  0  0  0  0  0  0
  161.9770  211.0870  141.1320 N   0  0  0  0  0  2  0  0  0  0  0  0
  160.6410  212.2860  142.5980 O   0  0  0  0  0  1  0  0  0  0  0  0
  1  4  1  1  0  0  0
  1  3  1  0  0  0  0
  2 11  1  0  0  0  0
  3  8  1  0  0  0  0
  3 25  1  0  0  0  0
  5 37  1  6  0  0  0
  5  1  1  0  0  0  0
  5  7  1  0  0  0  0
  6 10  2  0  0  0  0
  7  2  1  1  0  0  0
  7  8  1  0  0  0  0
  8  6  1  1  0  0  0
  9 10  1  0  0  0  0
 10 18  1  0  0  0  0
 11  9  1  0  0  0  0
 12 19  1  0  0  0  0
 13 17  1  0  0  0  0
 14 13  2  0  0  0  0
 15 13  1  0  0  0  0
 16 15  2  0  0  0  0
 17 20  1  0  0  0  0
 17 21  1  0  0  0  0
 18 19  2  0  0  0  0
 18 16  1  0  0  0  0
 19 14  1  0  0  0  0
 21 22  1  0  0  0  0
 22 23  1  0  0  0  0
 24 23  1  0  0  0  0
 25 28  1  0  0  0  0
 26 27  2  0  0  0  0
 27 28  1  0  0  0  0
 27 29  1  0  0  0  0
 29 30  1  0  0  0  0
 30 31  2  0  0  0  0
 30 33  1  0  0  0  0
 33 36  1  0  0  0  0
 33 32  1  1  0  0  0
 34 36  1  0  0  0  0
 34 35  1  0  0  0  0
 36 35  1  0  0  0  0
 38 37  1  0  0  0  0
 39 41  1  1  0  0  0
 39 40  1  0  0  0  0
 40 45  1  0  0  0  0
 42 48  1  6  0  0  0
 42 43  1  0  0  0  0
 43 45  1  0  0  0  0
 44 46  1  1  0  0  0
 44 39  1  0  0  0  0
 44 42  1  0  0  0  0
 45 38  1  1  0  0  0
 46 47  1  0  0  0  0
 48 51  1  0  0  0  0
 49 52  1  0  0  0  0
 50 49  2  0  0  0  0
 51 49  1  0  0  0  0
M  END
>  <MODEL>
5

>  <REMARK>
 VINA RESULT:      -0.9      3.759      8.274
  Name = 
  16 active torsions:
  status: ('A' for Active; 'I' for Inactive)
    1  A    between atoms: C_1  and  C_24
    2  A    between atoms: C_1  and  C_47
    3  A    between atoms: C_10  and  C_17
    4  A    between atoms: N_12  and  C_32
    5  A    between atoms: C_13  and  C_24
    6  A    between atoms: C_13  and  C_42
    7  A    between atoms: C_15  and  C_43
    8  A    between atoms: C_17  and  C_29
    9  A    between atoms: C_21  and  C_48
   10  A    between atoms: C_22  and  C_49
   11  A    between atoms: C_29  and  N_36
   12  A    between atoms: C_32  and  N_51
   13  A    between atoms: C_34  and  C_44
   14  A    between atoms: C_34  and  C_49
   15  A    between atoms: C_37  and  C_39
   16  A    between atoms: N_38  and  C_48
                            x       y       z     vdW  Elec       q    Type
                         _______ _______ _______ _____ _____    ______ ____

>  <TORSDO>
F 16

$$$$
