=
 OpenBabel11052410423D

 68 75  0  0  1  0  0  0  0  0999 V2000
  161.4660  205.7650  143.6500 C   0  0  0  0  0  0  0  0  0  0  0  0
  161.5960  205.4020  142.2600 N   0  0  0  0  0  0  0  0  0  0  0  0
  160.3240  211.6890  146.2310 C   0  0  1  0  0  3  0  0  0  0  0  0
  160.8300  208.7710  145.5830 C   0  0  0  0  0  2  0  0  0  0  0  0
  160.7370  209.8430  140.7660 O   0  0  0  0  0  0  0  0  0  0  0  0
  161.9240  206.7500  151.8210 C   0  0  1  0  0  3  0  0  0  0  0  0
  162.0950  209.0990  150.9770 C   0  0  1  0  0  3  0  0  0  0  0  0
  161.1500  209.3250  152.0830 N   0  0  0  0  0  0  0  0  0  0  0  0
  160.5570  210.3050  142.0790 C   0  0  0  0  0  0  0  0  0  0  0  0
  161.9230  204.1880  147.9370 C   0  0  0  0  0  2  0  0  0  0  0  0
  160.0310  208.4050  152.3070 C   0  0  0  0  0  2  0  0  0  0  0  0
  160.3720  211.1890  144.8160 C   0  0  0  0  0  0  0  0  0  0  0  0
  160.1790  209.7130  144.5610 C   0  0  1  0  0  3  0  0  0  0  0  0
  160.5150  206.9470  152.3920 C   0  0  0  0  0  2  0  0  0  0  0  0
  161.1980  207.6280  141.5250 C   0  0  0  0  0  0  0  0  0  0  0  0
  160.6110  207.4310  145.1880 O   0  0  0  0  0  0  0  0  0  0  0  0
  160.1420  211.0750  153.5330 N   0  0  0  0  0  2  0  0  0  0  0  0
  162.3040  205.2710  151.6540 C   0  0  0  0  0  2  0  0  0  0  0  0
  160.5960  209.3270  143.1690 C   0  0  0  0  0  0  0  0  0  0  0  0
  161.4190  207.2080  144.0540 C   0  0  2  0  0  3  0  0  0  0  0  0
  162.2530  212.2090  147.7370 C   0  0  0  0  0  2  0  0  0  0  0  0
  162.1700  207.6200  150.5910 C   0  0  0  0  0  2  0  0  0  0  0  0
  162.1610  204.0660  145.4940 C   0  0  0  0  0  3  0  0  0  0  0  0
  161.0500  208.4920  140.5040 C   0  0  0  0  0  0  0  0  0  0  0  0
  161.0820  202.0170  150.1750 C   0  0  0  0  0  2  0  0  0  0  0  0
  161.4850  206.2420  141.3020 N   0  0  0  0  0  0  0  0  0  0  0  0
  159.6330  202.4490  150.4670 C   0  0  0  0  0  2  0  0  0  0  0  0
  162.1020  203.0100  150.7410 C   0  0  0  0  0  2  0  0  0  0  0  0
  160.9960  208.0830  142.9070 C   0  0  0  0  0  0  0  0  0  0  0  0
  162.1030  211.3670  149.9160 C   0  0  0  0  0  2  0  0  0  0  0  0
  159.5550  203.6690  151.1720 O   0  0  0  0  0  0  0  0  0  0  0  0
  160.4580  211.6090  142.3730 C   0  0  0  0  0  0  0  0  0  0  0  0
  162.4270  211.0140  153.0750 O   0  0  0  0  0  0  0  0  0  0  0  0
  160.1970  204.6370  150.3830 C   0  0  0  0  0  2  0  0  0  0  0  0
  162.7540  204.6130  146.7450 C   0  0  0  0  0  2  0  0  0  0  0  0
  160.4250  212.0550  143.7860 C   0  0  0  0  0  3  0  0  0  0  0  0
  161.2910  210.4920  152.9110 C   0  0  0  0  0  0  0  0  0  0  0  0
  161.4270  212.1930  148.9340 N   0  0  0  0  0  2  0  0  0  0  0  0
  161.4370  212.6860  146.5400 C   0  0  0  0  0  2  0  0  0  0  0  0
  161.7990  204.8930  144.5590 C   0  0  0  0  0  0  0  0  0  0  0  0
  161.7270  204.4770  150.4680 C   0  0  1  0  0  0  0  0  0  0  0  0
  162.4000  204.9490  149.1720 C   0  0  0  0  0  2  0  0  0  0  0  0
  161.6890  209.9110  149.7540 C   0  0  0  0  0  2  0  0  0  0  0  0
  158.9610  212.2530  146.5860 C   0  0  0  0  0  2  0  0  0  0  0  0
  159.0620  213.6980  146.7260 N   0  0  0  0  0  1  0  0  0  0  0  0
  162.3530  207.2340  138.7700 C   0  0  0  0  0  1  0  0  0  0  0  0
  161.2150  208.0470  139.1590 N   0  0  0  0  0  2  0  0  0  0  0  0
  160.6400  213.4390  140.4810 C   0  0  0  0  0  0  0  0  0  0  0  0
  160.5830  212.6040  141.3430 C   0  0  0  0  0  0  0  0  0  0  0  0
  160.6840  214.4520  139.4270 C   0  0  0  0  0  2  0  0  0  0  0  0
  160.1170  213.8880  138.1400 C   0  0  0  0  0  2  0  0  0  0  0  0
  161.1610  213.4710  137.3150 O   0  0  0  0  0  0  0  0  0  0  0  0
  160.8900  212.1320  137.0130 C   0  0  1  0  0  3  0  0  0  0  0  0
  161.8100  211.2030  137.8150 C   0  0  1  0  0  3  0  0  0  0  0  0
  162.8500  210.7360  137.0110 O   0  0  0  0  0  1  0  0  0  0  0  0
  162.3690  211.8310  139.0960 C   0  0  0  0  0  2  0  0  0  0  0  0
  164.7530  212.6600  138.9370 C   0  0  0  0  0  3  0  0  0  0  0  0
  164.3780  213.8430  138.7190 O   0  0  0  0  0  0  0  0  0  0  0  0
  163.8050  211.6280  139.2120 N   0  0  0  0  0  2  0  0  0  0  0  0
  159.4150  211.8210  137.2630 C   0  0  0  0  0  2  0  0  0  0  0  0
  159.2330  210.7560  138.3320 C   0  0  0  0  0  2  0  0  0  0  0  0
  158.2910  209.8130  137.9140 O   0  0  0  0  0  0  0  0  0  0  0  0
  156.0220  209.3940  138.4060 C   0  0  0  0  0  2  0  0  0  0  0  0
  157.0610  210.4440  138.0890 C   0  0  0  0  0  3  0  0  0  0  0  0
  156.5840  210.2520  139.5170 C   0  0  0  0  0  2  0  0  0  0  0  0
  160.2420  212.3190  154.2840 C   0  0  0  0  0  2  0  0  0  0  0  0
  160.4270  212.0250  155.7670 C   0  0  0  0  0  2  0  0  0  0  0  0
  159.1240  211.5520  156.3890 C   0  0  0  0  0  1  0  0  0  0  0  0
  1 20  1  0  0  0  0
  1 40  2  0  0  0  0
  2  1  1  0  0  0  0
  3 39  1  0  0  0  0
  3 44  1  6  0  0  0
  5  9  1  0  0  0  0
  6 22  1  6  0  0  0
  6 14  1  0  0  0  0
  7 43  1  6  0  0  0
  7  8  1  0  0  0  0
  8 11  1  0  0  0  0
  8 37  1  0  0  0  0
  9 32  2  0  0  0  0
  9 19  1  0  0  0  0
 10 42  1  0  0  0  0
 11 14  1  0  0  0  0
 12  3  1  0  0  0  0
 13 12  1  0  0  0  0
 13  4  1  1  0  0  0
 15 29  1  0  0  0  0
 16  4  1  0  0  0  0
 17 66  1  0  0  0  0
 18  6  1  0  0  0  0
 19 13  1  0  0  0  0
 20 29  1  6  0  0  0
 20 16  1  0  0  0  0
 21 38  1  0  0  0  0
 22  7  1  0  0  0  0
 23 35  1  0  0  0  0
 24  5  1  0  0  0  0
 24 15  2  0  0  0  0
 25 27  1  0  0  0  0
 25 28  1  0  0  0  0
 26 15  1  0  0  0  0
 26  2  2  0  0  0  0
 27 31  1  0  0  0  0
 29 19  2  0  0  0  0
 32 36  1  0  0  0  0
 34 41  1  0  0  0  0
 34 31  1  0  0  0  0
 35 10  1  0  0  0  0
 36 12  2  0  0  0  0
 37 33  2  0  0  0  0
 37 17  1  0  0  0  0
 38 30  1  0  0  0  0
 39 21  1  0  0  0  0
 40 23  2  0  0  0  0
 41 42  1  6  0  0  0
 41 28  1  0  0  0  0
 41 18  1  0  0  0  0
 43 30  1  0  0  0  0
 44 45  1  0  0  0  0
 46 47  1  0  0  0  0
 47 24  1  0  0  0  0
 48 49  3  0  0  0  0
 49 32  1  0  0  0  0
 50 48  1  0  0  0  0
 51 50  1  0  0  0  0
 52 51  1  0  0  0  0
 53 60  1  1  0  0  0
 53 52  1  0  0  0  0
 53 54  1  0  0  0  0
 54 55  1  6  0  0  0
 54 56  1  0  0  0  0
 56 59  1  0  0  0  0
 57 59  1  0  0  0  0
 58 57  2  0  0  0  0
 60 61  1  0  0  0  0
 62 64  1  0  0  0  0
 62 61  1  0  0  0  0
 63 65  1  0  0  0  0
 64 63  1  0  0  0  0
 64 65  1  0  0  0  0
 66 67  1  0  0  0  0
 67 68  1  0  0  0  0
M  END
>  <MODEL>
1

>  <REMARK>
 VINA RESULT:      21.1      0.000      0.000
  Name = 
  16 active torsions:
  status: ('A' for Active; 'I' for Inactive)
    1  A    between atoms: C_2  and  C_13
    2  A    between atoms: C_2  and  N_56
    3  A    between atoms: C_5  and  C_54
    4  A    between atoms: O_9  and  C_39
    5  A    between atoms: O_9  and  C_68
    6  A    between atoms: C_13  and  C_68
    7  A    between atoms: C_21  and  O_46
    8  A    between atoms: N_23  and  C_29
    9  A    between atoms: C_29  and  C_45
   10  A    between atoms: C_32  and  N_64
   11  A    between atoms: C_39  and  C_52
   12  A    between atoms: C_41  and  C_52
   13  A    between atoms: C_44  and  C_55
   14  A    between atoms: O_46  and  C_53
   15  A    between atoms: C_53  and  C_61
   16  A    between atoms: C_61  and  C_68
                            x       y       z     vdW  Elec       q    Type
                         _______ _______ _______ _____ _____    ______ ____

>  <TORSDO>
F 16

$$$$
=
 OpenBabel11052410423D

 68 75  0  0  1  0  0  0  0  0999 V2000
  161.3360  205.8030  143.8940 C   0  0  0  0  0  0  0  0  0  0  0  0
  161.4470  205.4540  142.4980 N   0  0  0  0  0  0  0  0  0  0  0  0
  160.3450  211.7200  146.5520 C   0  0  1  0  0  3  0  0  0  0  0  0
  160.7810  208.7990  145.8670 C   0  0  0  0  0  2  0  0  0  0  0  0
  160.6770  209.9300  141.0630 O   0  0  0  0  0  0  0  0  0  0  0  0
  161.8770  206.6810  152.0720 C   0  0  1  0  0  3  0  0  0  0  0  0
  162.0950  209.0360  151.2540 C   0  0  1  0  0  3  0  0  0  0  0  0
  161.1630  209.2690  152.3690 N   0  0  0  0  0  0  0  0  0  0  0  0
  160.5170  210.3800  142.3830 C   0  0  0  0  0  0  0  0  0  0  0  0
  161.7900  204.1660  148.1580 C   0  0  0  0  0  2  0  0  0  0  0  0
  160.0260  208.3720  152.5920 C   0  0  0  0  0  2  0  0  0  0  0  0
  160.3720  211.2360  145.1310 C   0  0  0  0  0  0  0  0  0  0  0  0
  160.1440  209.7670  144.8610 C   0  0  1  0  0  3  0  0  0  0  0  0
  160.4780  206.9020  152.6560 C   0  0  0  0  0  2  0  0  0  0  0  0
  161.0940  207.6960  141.7930 C   0  0  0  0  0  0  0  0  0  0  0  0
  160.5300  207.4690  145.4570 O   0  0  0  0  0  0  0  0  0  0  0  0
  160.2050  211.0230  153.8480 N   0  0  0  0  0  2  0  0  0  0  0  0
  162.2230  205.1960  151.8840 C   0  0  0  0  0  2  0  0  0  0  0  0
  160.5420  209.3890  143.4610 C   0  0  0  0  0  0  0  0  0  0  0  0
  161.3240  207.2420  144.3140 C   0  0  2  0  0  3  0  0  0  0  0  0
  162.2970  212.1790  148.0490 C   0  0  0  0  0  2  0  0  0  0  0  0
  162.1330  207.5600  150.8500 C   0  0  0  0  0  2  0  0  0  0  0  0
  162.0070  204.0680  145.7120 C   0  0  0  0  0  3  0  0  0  0  0  0
  160.9570  208.5750  140.7830 C   0  0  0  0  0  0  0  0  0  0  0  0
  160.9180  201.9870  150.3770 C   0  0  0  0  0  2  0  0  0  0  0  0
  161.3480  206.3070  141.5510 N   0  0  0  0  0  0  0  0  0  0  0  0
  159.4810  202.4480  150.6850 C   0  0  0  0  0  2  0  0  0  0  0  0
  161.9640  202.9510  150.9470 C   0  0  0  0  0  2  0  0  0  0  0  0
  160.9120  208.1390  143.1810 C   0  0  0  0  0  0  0  0  0  0  0  0
  162.1450  211.3150  150.2190 C   0  0  0  0  0  2  0  0  0  0  0  0
  159.4360  203.6610  151.4050 O   0  0  0  0  0  0  0  0  0  0  0  0
  160.4490  211.6830  142.6930 C   0  0  0  0  0  0  0  0  0  0  0  0
  162.4850  210.9180  153.3710 O   0  0  0  0  0  0  0  0  0  0  0  0
  160.0930  204.6230  150.6230 C   0  0  0  0  0  2  0  0  0  0  0  0
  162.6210  204.5870  146.9640 C   0  0  0  0  0  2  0  0  0  0  0  0
  160.4360  212.1130  144.1110 C   0  0  0  0  0  3  0  0  0  0  0  0
  161.3360  210.4220  153.2100 C   0  0  0  0  0  0  0  0  0  0  0  0
  161.4800  212.1670  149.2520 N   0  0  0  0  0  2  0  0  0  0  0  0
  161.4830  212.6880  146.8640 C   0  0  0  0  0  2  0  0  0  0  0  0
  161.6560  204.9130  144.7900 C   0  0  0  0  0  0  0  0  0  0  0  0
  161.6200  204.4290  150.6940 C   0  0  1  0  0  0  0  0  0  0  0  0
  162.2930  204.9010  149.3980 C   0  0  0  0  0  2  0  0  0  0  0  0
  161.6970  209.8700  150.0430 C   0  0  0  0  0  2  0  0  0  0  0  0
  158.9980  212.3090  146.9240 C   0  0  0  0  0  2  0  0  0  0  0  0
  159.2050  213.5370  147.6780 N   0  0  0  0  0  1  0  0  0  0  0  0
  162.1140  208.7150  138.5630 C   0  0  0  0  0  1  0  0  0  0  0  0
  161.1020  208.1430  139.4310 N   0  0  0  0  0  2  0  0  0  0  0  0
  160.6970  213.4910  140.7870 C   0  0  0  0  0  0  0  0  0  0  0  0
  160.5880  212.6860  141.6730 C   0  0  0  0  0  0  0  0  0  0  0  0
  160.8330  214.4520  139.6930 C   0  0  0  0  0  2  0  0  0  0  0  0
  159.8020  214.1670  138.6200 C   0  0  0  0  0  2  0  0  0  0  0  0
  159.9300  212.8460  138.1920 O   0  0  0  0  0  0  0  0  0  0  0  0
  158.9270  212.6620  137.2340 C   0  0  1  0  0  3  0  0  0  0  0  0
  158.2680  211.2880  137.4020 C   0  0  1  0  0  3  0  0  0  0  0  0
  159.1450  210.2760  137.0130 O   0  0  0  0  0  1  0  0  0  0  0  0
  157.7380  211.0170  138.8140 C   0  0  0  0  0  2  0  0  0  0  0  0
  156.0900  209.2070  139.4520 C   0  0  0  0  0  3  0  0  0  0  0  0
  155.1530  210.0390  139.5820 O   0  0  0  0  0  0  0  0  0  0  0  0
  157.3800  209.6190  138.9950 N   0  0  0  0  0  2  0  0  0  0  0  0
  157.9030  213.7940  137.3150 C   0  0  0  0  0  2  0  0  0  0  0  0
  157.1000  213.7410  138.6050 C   0  0  0  0  0  2  0  0  0  0  0  0
  155.7450  213.9500  138.3350 O   0  0  0  0  0  0  0  0  0  0  0  0
  154.3540  214.4500  140.1730 C   0  0  0  0  0  2  0  0  0  0  0  0
  155.0780  213.3660  139.4090 C   0  0  0  0  0  3  0  0  0  0  0  0
  153.5800  213.5450  139.2420 C   0  0  0  0  0  2  0  0  0  0  0  0
  160.3390  212.2560  154.6130 C   0  0  0  0  0  2  0  0  0  0  0  0
  158.9860  212.9440  154.7420 C   0  0  0  0  0  2  0  0  0  0  0  0
  158.3300  213.1020  153.3810 C   0  0  0  0  0  1  0  0  0  0  0  0
  1 20  1  0  0  0  0
  1 40  2  0  0  0  0
  2  1  1  0  0  0  0
  3 39  1  0  0  0  0
  3 44  1  6  0  0  0
  5  9  1  0  0  0  0
  6 22  1  6  0  0  0
  6 14  1  0  0  0  0
  7 43  1  6  0  0  0
  7  8  1  0  0  0  0
  8 11  1  0  0  0  0
  8 37  1  0  0  0  0
  9 32  2  0  0  0  0
  9 19  1  0  0  0  0
 10 42  1  0  0  0  0
 11 14  1  0  0  0  0
 12  3  1  0  0  0  0
 13 12  1  0  0  0  0
 13  4  1  1  0  0  0
 15 29  1  0  0  0  0
 16  4  1  0  0  0  0
 17 66  1  0  0  0  0
 18  6  1  0  0  0  0
 19 13  1  0  0  0  0
 20 29  1  6  0  0  0
 20 16  1  0  0  0  0
 21 38  1  0  0  0  0
 22  7  1  0  0  0  0
 23 35  1  0  0  0  0
 24  5  1  0  0  0  0
 24 15  2  0  0  0  0
 25 27  1  0  0  0  0
 25 28  1  0  0  0  0
 26 15  1  0  0  0  0
 26  2  2  0  0  0  0
 27 31  1  0  0  0  0
 29 19  2  0  0  0  0
 32 36  1  0  0  0  0
 34 41  1  0  0  0  0
 34 31  1  0  0  0  0
 35 10  1  0  0  0  0
 36 12  2  0  0  0  0
 37 33  2  0  0  0  0
 37 17  1  0  0  0  0
 38 30  1  0  0  0  0
 39 21  1  0  0  0  0
 40 23  2  0  0  0  0
 41 42  1  6  0  0  0
 41 28  1  0  0  0  0
 41 18  1  0  0  0  0
 43 30  1  0  0  0  0
 44 45  1  0  0  0  0
 46 47  1  0  0  0  0
 47 24  1  0  0  0  0
 48 49  3  0  0  0  0
 49 32  1  0  0  0  0
 50 48  1  0  0  0  0
 51 50  1  0  0  0  0
 52 51  1  0  0  0  0
 53 60  1  1  0  0  0
 53 54  1  0  0  0  0
 53 52  1  0  0  0  0
 54 55  1  1  0  0  0
 54 56  1  0  0  0  0
 56 59  1  0  0  0  0
 57 58  2  0  0  0  0
 59 57  1  0  0  0  0
 60 61  1  0  0  0  0
 62 61  1  0  0  0  0
 62 64  1  0  0  0  0
 64 63  1  0  0  0  0
 65 64  1  0  0  0  0
 65 63  1  0  0  0  0
 66 67  1  0  0  0  0
 68 67  1  0  0  0  0
M  END
>  <MODEL>
2

>  <REMARK>
 VINA RESULT:      21.2      1.476      2.490
  Name = 
  16 active torsions:
  status: ('A' for Active; 'I' for Inactive)
    1  A    between atoms: C_2  and  C_13
    2  A    between atoms: C_2  and  N_56
    3  A    between atoms: C_5  and  C_54
    4  A    between atoms: O_9  and  C_39
    5  A    between atoms: O_9  and  C_68
    6  A    between atoms: C_13  and  C_68
    7  A    between atoms: C_21  and  O_46
    8  A    between atoms: N_23  and  C_29
    9  A    between atoms: C_29  and  C_45
   10  A    between atoms: C_32  and  N_64
   11  A    between atoms: C_39  and  C_52
   12  A    between atoms: C_41  and  C_52
   13  A    between atoms: C_44  and  C_55
   14  A    between atoms: O_46  and  C_53
   15  A    between atoms: C_53  and  C_61
   16  A    between atoms: C_61  and  C_68
                            x       y       z     vdW  Elec       q    Type
                         _______ _______ _______ _____ _____    ______ ____

>  <TORSDO>
F 16

$$$$
