=
 OpenBabel11042422583D

 32 33  0  0  1  0  0  0  0  0999 V2000
  162.5870  209.9790  152.8220 O   0  0  0  0  0  1  0  0  0  0  0  0
  161.2140  210.2430  152.7210 C   0  0  1  0  0  3  0  0  0  0  0  0
  160.6010  209.3240  151.7600 N   0  0  0  0  0  2  0  0  0  0  0  0
  160.8520  207.9410  152.1550 C   0  0  0  0  0  2  0  0  0  0  0  0
  161.7230  207.2490  151.1170 C   0  0  1  0  0  3  0  0  0  0  0  0
  161.5940  204.8020  151.5730 C   0  0  0  0  0  1  0  0  0  0  0  0
  162.4220  206.0590  151.7540 C   0  0  0  0  0  2  0  0  0  0  0  0
  160.8610  206.7830  149.9510 C   0  0  0  0  0  2  0  0  0  0  0  0
  161.2700  207.4770  148.6640 C   0  0  0  0  0  2  0  0  0  0  0  0
  162.0620  206.5280  147.7870 C   0  0  0  0  0  2  0  0  0  0  0  0
  161.1520  205.6130  147.1210 N   0  0  0  0  0  2  0  0  0  0  0  0
  160.9580  202.1410  146.5600 C   0  0  0  0  0  2  0  0  0  0  0  0
  161.2870  203.6380  148.3600 O   0  0  0  0  0  0  0  0  0  0  0  0
  161.7440  204.2880  147.2020 C   0  0  1  0  0  3  0  0  0  0  0  0
  161.2510  202.2740  148.0340 C   0  0  1  0  0  3  0  0  0  0  0  0
  161.3360  203.4760  145.9950 C   0  0  0  0  0  2  0  0  0  0  0  0
  160.1580  201.5900  148.8310 C   0  0  0  0  0  1  0  0  0  0  0  0
  160.5170  210.2000  154.1010 C   0  0  2  0  0  3  0  0  0  0  0  0
  159.7340  211.4980  154.4180 C   0  0  2  0  0  3  0  0  0  0  0  0
  157.9780  211.1670  154.7980 S   0  0  0  0  0  0  0  0  0  0  0  0
  156.4860  213.4620  154.7630 C   0  0  0  0  0  1  0  0  0  0  0  0
  159.7610  212.5020  153.2800 C   0  0  0  0  0  2  0  0  0  0  0  0
  157.4240  212.6490  153.8970 C   0  0  1  0  0  3  0  0  0  0  0  0
  158.6380  213.4740  153.5370 C   0  0  0  0  0  2  0  0  0  0  0  0
  161.5320  209.8060  155.2060 C   0  0  2  0  0  3  0  0  0  0  0  0
  160.0870  209.4510  157.2570 C   0  0  0  0  0  1  0  0  0  0  0  0
  160.9570  208.7770  156.1930 C   0  0  1  0  0  3  0  0  0  0  0  0
  159.5470  206.9170  156.4250 N   0  0  0  0  0  1  0  0  0  0  0  0
  161.1600  206.9030  154.8970 O   0  0  0  0  0  1  0  0  0  0  0  0
  160.2400  207.7040  155.4900 N   0  0  0  0  0  0  0  0  0  0  0  0
  163.3580  210.9270  156.4300 C   0  0  0  0  0  2  0  0  0  0  0  0
  162.1370  210.9900  155.9100 C   0  0  0  0  0  3  0  0  0  0  0  0
  2  1  1  1  0  0  0
  3  4  1  0  0  0  0
  3  2  1  0  0  0  0
  5  8  1  6  0  0  0
  5  7  1  0  0  0  0
  5  4  1  0  0  0  0
  6  7  1  0  0  0  0
  9  8  1  0  0  0  0
 10  9  1  0  0  0  0
 11 10  1  0  0  0  0
 12 15  1  0  0  0  0
 14 11  1  6  0  0  0
 14 13  1  0  0  0  0
 15 13  1  0  0  0  0
 15 17  1  1  0  0  0
 16 12  1  0  0  0  0
 16 14  1  0  0  0  0
 18  2  1  6  0  0  0
 18 25  1  0  0  0  0
 19 18  1  6  0  0  0
 19 20  1  0  0  0  0
 22 24  1  0  0  0  0
 22 19  1  0  0  0  0
 23 21  1  1  0  0  0
 23 20  1  0  0  0  0
 24 23  1  0  0  0  0
 25 32  1  1  0  0  0
 25 27  1  0  0  0  0
 27 26  1  1  0  0  0
 29 30  1  0  0  0  0
 30 27  1  0  0  0  0
 30 28  1  0  0  0  0
 32 31  2  0  0  0  0
M  END
>  <MODEL>
1

>  <REMARK>
 VINA RESULT:      -6.1      0.000      0.000
  Name = 
  15 active torsions:
  status: ('A' for Active; 'I' for Inactive)
    1  A    between atoms: C_1  and  C_19
    2  A    between atoms: C_2  and  C_6
    3  A    between atoms: C_2  and  C_7
    4  A    between atoms: C_2  and  C_8
    5  A    between atoms: N_3  and  C_6
    6  A    between atoms: N_3  and  C_31
    7  A    between atoms: C_8  and  C_26
    8  A    between atoms: N_12  and  C_13
    9  A    between atoms: N_12  and  C_16
   10  A    between atoms: C_13  and  C_26
   11  A    between atoms: C_19  and  C_22
   12  A    between atoms: C_19  and  C_31
   13  A    between atoms: N_20  and  C_27
   14  A    between atoms: C_22  and  C_27
   15  A    between atoms: C_22  and  C_30
                            x       y       z     vdW  Elec       q    Type
                         _______ _______ _______ _____ _____    ______ ____

>  <TORSDO>
F 15

$$$$
=
 OpenBabel11042422583D

 32 33  0  0  1  0  0  0  0  0999 V2000
  162.4660  207.6800  147.9630 O   0  0  0  0  0  1  0  0  0  0  0  0
  161.9510  206.8160  148.9380 C   0  0  1  0  0  3  0  0  0  0  0  0
  160.9910  207.5340  149.7800 N   0  0  0  0  0  2  0  0  0  0  0  0
  161.6960  208.3310  150.7800 C   0  0  0  0  0  2  0  0  0  0  0  0
  160.7670  208.6600  151.9380 C   0  0  1  0  0  3  0  0  0  0  0  0
  162.0670  206.7570  152.8870 C   0  0  0  0  0  1  0  0  0  0  0  0
  160.7440  207.4970  152.9170 C   0  0  0  0  0  2  0  0  0  0  0  0
  161.2490  209.9220  152.6420 C   0  0  0  0  0  2  0  0  0  0  0  0
  160.1070  210.9040  152.8360 C   0  0  0  0  0  2  0  0  0  0  0  0
  159.6900  210.9390  154.2930 C   0  0  0  0  0  2  0  0  0  0  0  0
  160.7880  211.4460  155.0970 N   0  0  0  0  0  2  0  0  0  0  0  0
  161.8830  208.4530  156.5940 C   0  0  0  0  0  2  0  0  0  0  0  0
  159.8650  209.6320  156.2420 O   0  0  0  0  0  0  0  0  0  0  0  0
  160.8950  210.5860  156.2640 C   0  0  1  0  0  3  0  0  0  0  0  0
  160.3990  208.4910  156.8590 C   0  0  1  0  0  3  0  0  0  0  0  0
  162.2250  209.8690  156.2430 C   0  0  0  0  0  2  0  0  0  0  0  0
  159.7490  207.2490  156.2820 C   0  0  0  0  0  1  0  0  0  0  0  0
  161.3420  205.5390  148.3140 C   0  0  2  0  0  3  0  0  0  0  0  0
  161.5680  204.2790  149.1860 C   0  0  2  0  0  3  0  0  0  0  0  0
  160.9410  202.7630  148.3820 S   0  0  0  0  0  0  0  0  0  0  0  0
  160.7930  200.6720  150.1430 C   0  0  0  0  0  1  0  0  0  0  0  0
  160.9020  204.3690  150.5460 C   0  0  0  0  0  2  0  0  0  0  0  0
  160.3150  202.0950  149.9560 C   0  0  1  0  0  3  0  0  0  0  0  0
  160.8270  202.9630  151.0830 C   0  0  0  0  0  2  0  0  0  0  0  0
  161.8270  205.3710  146.8500 C   0  0  2  0  0  3  0  0  0  0  0  0
  160.0430  206.5910  145.5270 C   0  0  0  0  0  1  0  0  0  0  0  0
  160.6620  205.2300  145.8570 C   0  0  1  0  0  3  0  0  0  0  0  0
  161.2950  205.4170  143.6060 N   0  0  0  0  0  1  0  0  0  0  0  0
  160.0460  203.7040  144.2680 O   0  0  0  0  0  1  0  0  0  0  0  0
  161.0740  204.5020  144.6480 N   0  0  0  0  0  0  0  0  0  0  0  0
  163.9710  204.4930  146.0000 C   0  0  0  0  0  2  0  0  0  0  0  0
  162.8500  204.2810  146.6810 C   0  0  0  0  0  3  0  0  0  0  0  0
  2  1  1  6  0  0  0
  2  3  1  0  0  0  0
  3  4  1  0  0  0  0
  5  4  1  6  0  0  0
  5  8  1  0  0  0  0
  5  7  1  0  0  0  0
  6  7  1  0  0  0  0
  8  9  1  0  0  0  0
  9 10  1  0  0  0  0
 10 11  1  0  0  0  0
 12 15  1  0  0  0  0
 13 14  1  0  0  0  0
 13 15  1  0  0  0  0
 14 11  1  6  0  0  0
 15 17  1  6  0  0  0
 16 14  1  0  0  0  0
 16 12  1  0  0  0  0
 18 25  1  6  0  0  0
 18  2  1  0  0  0  0
 19 18  1  6  0  0  0
 19 22  1  0  0  0  0
 20 19  1  0  0  0  0
 20 23  1  0  0  0  0
 22 24  1  0  0  0  0
 23 21  1  1  0  0  0
 23 24  1  0  0  0  0
 25 32  1  1  0  0  0
 27 26  1  6  0  0  0
 27 25  1  0  0  0  0
 28 30  1  0  0  0  0
 29 30  1  0  0  0  0
 30 27  1  0  0  0  0
 31 32  2  0  0  0  0
M  END
>  <MODEL>
2

>  <REMARK>
 VINA RESULT:      -6.0      3.040      9.458
  Name = 
  15 active torsions:
  status: ('A' for Active; 'I' for Inactive)
    1  A    between atoms: C_1  and  C_19
    2  A    between atoms: C_2  and  C_6
    3  A    between atoms: C_2  and  C_7
    4  A    between atoms: C_2  and  C_8
    5  A    between atoms: N_3  and  C_6
    6  A    between atoms: N_3  and  C_31
    7  A    between atoms: C_8  and  C_26
    8  A    between atoms: N_12  and  C_13
    9  A    between atoms: N_12  and  C_16
   10  A    between atoms: C_13  and  C_26
   11  A    between atoms: C_19  and  C_22
   12  A    between atoms: C_19  and  C_31
   13  A    between atoms: N_20  and  C_27
   14  A    between atoms: C_22  and  C_27
   15  A    between atoms: C_22  and  C_30
                            x       y       z     vdW  Elec       q    Type
                         _______ _______ _______ _____ _____    ______ ____

>  <TORSDO>
F 15

$$$$
=
 OpenBabel11042422583D

 32 33  0  0  1  0  0  0  0  0999 V2000
  162.7020  207.5120  148.0700 O   0  0  0  0  0  1  0  0  0  0  0  0
  162.0120  206.7350  149.0090 C   0  0  1  0  0  3  0  0  0  0  0  0
  161.0120  207.5560  149.6950 N   0  0  0  0  0  2  0  0  0  0  0  0
  161.6490  208.7200  150.3060 C   0  0  0  0  0  2  0  0  0  0  0  0
  161.9290  208.4520  151.7770 C   0  0  1  0  0  3  0  0  0  0  0  0
  160.6470  210.4930  152.4130 C   0  0  0  0  0  1  0  0  0  0  0  0
  161.9750  209.7700  152.5320 C   0  0  0  0  0  2  0  0  0  0  0  0
  160.8380  207.5600  152.3530 C   0  0  0  0  0  2  0  0  0  0  0  0
  161.2710  206.9680  153.6840 C   0  0  0  0  0  2  0  0  0  0  0  0
  160.2330  207.2630  154.7490 C   0  0  0  0  0  2  0  0  0  0  0  0
  160.7830  206.9600  156.0580 N   0  0  0  0  0  2  0  0  0  0  0  0
  160.7470  210.4800  156.1400 C   0  0  0  0  0  2  0  0  0  0  0  0
  162.1210  208.6970  156.8620 O   0  0  0  0  0  0  0  0  0  0  0  0
  160.8070  208.2030  156.8100 C   0  0  1  0  0  3  0  0  0  0  0  0
  161.9940  210.0940  156.8950 C   0  0  1  0  0  3  0  0  0  0  0  0
  159.9290  209.2250  156.1260 C   0  0  0  0  0  2  0  0  0  0  0  0
  163.2020  210.7300  156.2370 C   0  0  0  0  0  1  0  0  0  0  0  0
  161.3930  205.4710  148.3670 C   0  0  2  0  0  3  0  0  0  0  0  0
  161.6230  204.1950  149.2120 C   0  0  2  0  0  3  0  0  0  0  0  0
  160.8150  202.7280  148.4800 S   0  0  0  0  0  0  0  0  0  0  0  0
  160.7100  200.6420  150.2500 C   0  0  0  0  0  1  0  0  0  0  0  0
  161.1080  204.3210  150.6340 C   0  0  0  0  0  2  0  0  0  0  0  0
  160.3120  202.0950  150.1120 C   0  0  1  0  0  3  0  0  0  0  0  0
  160.9950  202.9210  151.1780 C   0  0  0  0  0  2  0  0  0  0  0  0
  161.8630  205.3300  146.8950 C   0  0  2  0  0  3  0  0  0  0  0  0
  160.1060  206.5920  145.5760 C   0  0  0  0  0  1  0  0  0  0  0  0
  160.6870  205.2170  145.9110 C   0  0  1  0  0  3  0  0  0  0  0  0
  161.2990  205.3700  143.6510 N   0  0  0  0  0  1  0  0  0  0  0  0
  160.0210  203.6900  144.3430 O   0  0  0  0  0  1  0  0  0  0  0  0
  161.0700  204.4690  144.7040 N   0  0  0  0  0  0  0  0  0  0  0  0
  163.9960  204.4570  146.0130 C   0  0  0  0  0  2  0  0  0  0  0  0
  162.8760  204.2360  146.6950 C   0  0  0  0  0  3  0  0  0  0  0  0
  2  1  1  6  0  0  0
  2  3  1  0  0  0  0
  3  4  1  0  0  0  0
  5  4  1  6  0  0  0
  5  8  1  0  0  0  0
  5  7  1  0  0  0  0
  6  7  1  0  0  0  0
  8  9  1  0  0  0  0
  9 10  1  0  0  0  0
 10 11  1  0  0  0  0
 12 15  1  0  0  0  0
 13 15  1  0  0  0  0
 14 11  1  6  0  0  0
 14 13  1  0  0  0  0
 15 17  1  6  0  0  0
 16 12  1  0  0  0  0
 16 14  1  0  0  0  0
 18 25  1  6  0  0  0
 18  2  1  0  0  0  0
 19 18  1  6  0  0  0
 19 22  1  0  0  0  0
 20 19  1  0  0  0  0
 20 23  1  0  0  0  0
 22 24  1  0  0  0  0
 23 21  1  6  0  0  0
 23 24  1  0  0  0  0
 25 32  1  1  0  0  0
 27 26  1  6  0  0  0
 27 25  1  0  0  0  0
 28 30  1  0  0  0  0
 29 30  1  0  0  0  0
 30 27  1  0  0  0  0
 31 32  2  0  0  0  0
M  END
>  <MODEL>
3

>  <REMARK>
 VINA RESULT:      -6.0      3.027      9.561
  Name = 
  15 active torsions:
  status: ('A' for Active; 'I' for Inactive)
    1  A    between atoms: C_1  and  C_19
    2  A    between atoms: C_2  and  C_6
    3  A    between atoms: C_2  and  C_7
    4  A    between atoms: C_2  and  C_8
    5  A    between atoms: N_3  and  C_6
    6  A    between atoms: N_3  and  C_31
    7  A    between atoms: C_8  and  C_26
    8  A    between atoms: N_12  and  C_13
    9  A    between atoms: N_12  and  C_16
   10  A    between atoms: C_13  and  C_26
   11  A    between atoms: C_19  and  C_22
   12  A    between atoms: C_19  and  C_31
   13  A    between atoms: N_20  and  C_27
   14  A    between atoms: C_22  and  C_27
   15  A    between atoms: C_22  and  C_30
                            x       y       z     vdW  Elec       q    Type
                         _______ _______ _______ _____ _____    ______ ____

>  <TORSDO>
F 15

$$$$
=
 OpenBabel11042422583D

 32 33  0  0  1  0  0  0  0  0999 V2000
  162.7190  210.1160  152.6550 O   0  0  0  0  0  1  0  0  0  0  0  0
  161.3210  210.1230  152.5600 C   0  0  1  0  0  3  0  0  0  0  0  0
  160.8740  208.9850  151.7540 N   0  0  0  0  0  2  0  0  0  0  0  0
  161.9530  208.5290  150.8830 C   0  0  0  0  0  2  0  0  0  0  0  0
  161.7300  209.0320  149.4640 C   0  0  1  0  0  3  0  0  0  0  0  0
  161.6710  211.1830  148.2070 C   0  0  0  0  0  1  0  0  0  0  0  0
  162.3650  210.4040  149.3070 C   0  0  0  0  0  2  0  0  0  0  0  0
  162.3470  208.0560  148.4710 C   0  0  0  0  0  2  0  0  0  0  0  0
  161.3230  207.0300  148.0140 C   0  0  0  0  0  2  0  0  0  0  0  0
  161.8860  206.2030  146.8750 C   0  0  0  0  0  2  0  0  0  0  0  0
  162.3700  204.9350  147.3920 N   0  0  0  0  0  2  0  0  0  0  0  0
  160.8510  202.8080  149.7520 C   0  0  0  0  0  2  0  0  0  0  0  0
  161.3050  202.8580  147.4320 O   0  0  0  0  0  0  0  0  0  0  0  0
  161.2110  204.1930  147.8570 C   0  0  1  0  0  3  0  0  0  0  0  0
  160.6720  202.1020  148.4300 C   0  0  1  0  0  3  0  0  0  0  0  0
  161.1630  204.2220  149.3670 C   0  0  0  0  0  2  0  0  0  0  0  0
  161.3030  200.7260  148.5030 C   0  0  0  0  0  1  0  0  0  0  0  0
  160.6500  210.1570  153.9520 C   0  0  2  0  0  3  0  0  0  0  0  0
  159.9770  211.5170  154.2600 C   0  0  2  0  0  3  0  0  0  0  0  0
  158.3330  211.3140  155.0330 S   0  0  0  0  0  0  0  0  0  0  0  0
  156.9140  213.6550  155.0220 C   0  0  0  0  0  1  0  0  0  0  0  0
  159.7840  212.3790  153.0270 C   0  0  0  0  0  2  0  0  0  0  0  0
  157.6320  212.7040  154.0890 C   0  0  1  0  0  3  0  0  0  0  0  0
  158.7610  213.4250  153.3870 C   0  0  0  0  0  2  0  0  0  0  0  0
  161.6520  209.7020  155.0450 C   0  0  2  0  0  3  0  0  0  0  0  0
  160.5160  208.8550  157.1460 C   0  0  0  0  0  1  0  0  0  0  0  0
  161.1620  208.4640  155.8140 C   0  0  1  0  0  3  0  0  0  0  0  0
  159.3880  206.9290  155.8190 N   0  0  0  0  0  1  0  0  0  0  0  0
  161.0280  206.7240  154.3350 O   0  0  0  0  0  1  0  0  0  0  0  0
  160.2690  207.6390  154.9870 N   0  0  0  0  0  0  0  0  0  0  0  0
  163.2880  210.8340  156.5050 C   0  0  0  0  0  2  0  0  0  0  0  0
  162.0720  210.8130  155.9690 C   0  0  0  0  0  3  0  0  0  0  0  0
  2  1  1  1  0  0  0
  3  2  1  0  0  0  0
  4  3  1  0  0  0  0
  5  8  1  6  0  0  0
  5  4  1  0  0  0  0
  6  7  1  0  0  0  0
  7  5  1  0  0  0  0
  9  8  1  0  0  0  0
 10 11  1  0  0  0  0
 10  9  1  0  0  0  0
 13 14  1  0  0  0  0
 13 15  1  0  0  0  0
 14 11  1  1  0  0  0
 14 16  1  0  0  0  0
 15 17  1  1  0  0  0
 15 12  1  0  0  0  0
 16 12  1  0  0  0  0
 18  2  1  6  0  0  0
 18 25  1  0  0  0  0
 19 18  1  6  0  0  0
 19 20  1  0  0  0  0
 22 24  1  0  0  0  0
 22 19  1  0  0  0  0
 23 21  1  1  0  0  0
 23 20  1  0  0  0  0
 24 23  1  0  0  0  0
 25 27  1  0  0  0  0
 25 32  1  1  0  0  0
 27 26  1  1  0  0  0
 29 30  1  0  0  0  0
 30 27  1  0  0  0  0
 30 28  1  0  0  0  0
 32 31  2  0  0  0  0
M  END
>  <MODEL>
4

>  <REMARK>
 VINA RESULT:      -6.0      1.253      1.986
  Name = 
  15 active torsions:
  status: ('A' for Active; 'I' for Inactive)
    1  A    between atoms: C_1  and  C_19
    2  A    between atoms: C_2  and  C_6
    3  A    between atoms: C_2  and  C_7
    4  A    between atoms: C_2  and  C_8
    5  A    between atoms: N_3  and  C_6
    6  A    between atoms: N_3  and  C_31
    7  A    between atoms: C_8  and  C_26
    8  A    between atoms: N_12  and  C_13
    9  A    between atoms: N_12  and  C_16
   10  A    between atoms: C_13  and  C_26
   11  A    between atoms: C_19  and  C_22
   12  A    between atoms: C_19  and  C_31
   13  A    between atoms: N_20  and  C_27
   14  A    between atoms: C_22  and  C_27
   15  A    between atoms: C_22  and  C_30
                            x       y       z     vdW  Elec       q    Type
                         _______ _______ _______ _____ _____    ______ ____

>  <TORSDO>
F 15

$$$$
=
 OpenBabel11042422583D

 32 33  0  0  1  0  0  0  0  0999 V2000
  162.5320  207.6130  148.0480 O   0  0  0  0  0  1  0  0  0  0  0  0
  161.9390  206.7720  149.0000 C   0  0  1  0  0  3  0  0  0  0  0  0
  160.9460  207.5220  149.7730 N   0  0  0  0  0  2  0  0  0  0  0  0
  161.6100  208.3520  150.7740 C   0  0  0  0  0  2  0  0  0  0  0  0
  160.8530  208.2890  152.0920 C   0  0  1  0  0  3  0  0  0  0  0  0
  160.8120  207.1420  154.3050 C   0  0  0  0  0  1  0  0  0  0  0  0
  161.2890  207.0570  152.8680 C   0  0  0  0  0  2  0  0  0  0  0  0
  161.1370  209.5440  152.9080 C   0  0  0  0  0  2  0  0  0  0  0  0
  160.0410  210.5770  152.7090 C   0  0  0  0  0  2  0  0  0  0  0  0
  159.3910  210.9110  154.0370 C   0  0  0  0  0  2  0  0  0  0  0  0
  159.3800  212.3510  154.2210 N   0  0  0  0  0  2  0  0  0  0  0  0
  156.8020  211.8420  156.5660 C   0  0  0  0  0  2  0  0  0  0  0  0
  157.1000  211.8450  154.2210 O   0  0  0  0  0  0  0  0  0  0  0  0
  158.0750  212.7030  154.7560 C   0  0  1  0  0  3  0  0  0  0  0  0
  156.1270  211.7130  155.2230 C   0  0  1  0  0  3  0  0  0  0  0  0
  158.0860  212.5510  156.2590 C   0  0  0  0  0  2  0  0  0  0  0  0
  155.4680  210.3530  155.1160 C   0  0  0  0  0  1  0  0  0  0  0  0
  161.3420  205.5010  148.3530 C   0  0  2  0  0  3  0  0  0  0  0  0
  161.5800  204.2280  149.2020 C   0  0  2  0  0  3  0  0  0  0  0  0
  160.8590  202.7380  148.4280 S   0  0  0  0  0  0  0  0  0  0  0  0
  160.7500  200.6390  150.1810 C   0  0  0  0  0  1  0  0  0  0  0  0
  160.9980  204.3280  150.6000 C   0  0  0  0  0  2  0  0  0  0  0  0
  160.3060  202.0780  150.0320 C   0  0  1  0  0  3  0  0  0  0  0  0
  160.9110  202.9200  151.1320 C   0  0  0  0  0  2  0  0  0  0  0  0
  161.8270  205.3640  146.8860 C   0  0  2  0  0  3  0  0  0  0  0  0
  160.0760  206.5910  145.5260 C   0  0  0  0  0  1  0  0  0  0  0  0
  160.6620  205.2250  145.8920 C   0  0  1  0  0  3  0  0  0  0  0  0
  161.3080  205.3430  143.6400 N   0  0  0  0  0  1  0  0  0  0  0  0
  160.0170  203.6750  144.3380 O   0  0  0  0  0  1  0  0  0  0  0  0
  161.0630  204.4590  144.7030 N   0  0  0  0  0  0  0  0  0  0  0  0
  163.9830  204.5280  146.0250 C   0  0  0  0  0  2  0  0  0  0  0  0
  162.8630  204.2890  146.6980 C   0  0  0  0  0  3  0  0  0  0  0  0
  2  1  1  6  0  0  0
  2  3  1  0  0  0  0
  3  4  1  0  0  0  0
  5  4  1  6  0  0  0
  5  7  1  0  0  0  0
  5  8  1  0  0  0  0
  7  6  1  0  0  0  0
  9  8  1  0  0  0  0
  9 10  1  0  0  0  0
 10 11  1  0  0  0  0
 13 14  1  0  0  0  0
 13 15  1  0  0  0  0
 14 11  1  6  0  0  0
 14 16  1  0  0  0  0
 15 17  1  1  0  0  0
 15 12  1  0  0  0  0
 16 12  1  0  0  0  0
 18 25  1  6  0  0  0
 18  2  1  0  0  0  0
 19 18  1  6  0  0  0
 19 22  1  0  0  0  0
 20 19  1  0  0  0  0
 20 23  1  0  0  0  0
 22 24  1  0  0  0  0
 23 21  1  1  0  0  0
 23 24  1  0  0  0  0
 25 32  1  1  0  0  0
 27 26  1  6  0  0  0
 27 25  1  0  0  0  0
 28 30  1  0  0  0  0
 29 30  1  0  0  0  0
 30 27  1  0  0  0  0
 31 32  2  0  0  0  0
M  END
>  <MODEL>
5

>  <REMARK>
 VINA RESULT:      -5.7      3.440      9.870
  Name = 
  15 active torsions:
  status: ('A' for Active; 'I' for Inactive)
    1  A    between atoms: C_1  and  C_19
    2  A    between atoms: C_2  and  C_6
    3  A    between atoms: C_2  and  C_7
    4  A    between atoms: C_2  and  C_8
    5  A    between atoms: N_3  and  C_6
    6  A    between atoms: N_3  and  C_31
    7  A    between atoms: C_8  and  C_26
    8  A    between atoms: N_12  and  C_13
    9  A    between atoms: N_12  and  C_16
   10  A    between atoms: C_13  and  C_26
   11  A    between atoms: C_19  and  C_22
   12  A    between atoms: C_19  and  C_31
   13  A    between atoms: N_20  and  C_27
   14  A    between atoms: C_22  and  C_27
   15  A    between atoms: C_22  and  C_30
                            x       y       z     vdW  Elec       q    Type
                         _______ _______ _______ _____ _____    ______ ____

>  <TORSDO>
F 15

$$$$
=
 OpenBabel11042422583D

 32 33  0  0  1  0  0  0  0  0999 V2000
  162.4170  210.4160  153.9960 O   0  0  0  0  0  1  0  0  0  0  0  0
  161.1290  210.1840  153.4960 C   0  0  1  0  0  3  0  0  0  0  0  0
  161.0450  208.8280  152.9500 N   0  0  0  0  0  2  0  0  0  0  0  0
  161.7440  208.7570  151.6690 C   0  0  0  0  0  2  0  0  0  0  0  0
  161.5590  207.3810  151.0470 C   0  0  1  0  0  3  0  0  0  0  0  0
  160.7200  206.8530  148.7600 C   0  0  0  0  0  1  0  0  0  0  0  0
  161.8610  207.4520  149.5590 C   0  0  0  0  0  2  0  0  0  0  0  0
  162.4930  206.3840  151.7200 C   0  0  0  0  0  2  0  0  0  0  0  0
  161.7720  205.6230  152.8190 C   0  0  0  0  0  2  0  0  0  0  0  0
  160.7680  204.6600  152.2160 C   0  0  0  0  0  2  0  0  0  0  0  0
  161.4720  203.5350  151.6270 N   0  0  0  0  0  2  0  0  0  0  0  0
  161.1530  201.5830  148.7130 C   0  0  0  0  0  2  0  0  0  0  0  0
  161.0170  203.8530  149.3590 O   0  0  0  0  0  0  0  0  0  0  0  0
  160.6860  203.0880  150.4890 C   0  0  1  0  0  3  0  0  0  0  0  0
  160.8540  202.9920  148.2640 C   0  0  1  0  0  3  0  0  0  0  0  0
  160.9910  201.6370  150.2020 C   0  0  0  0  0  2  0  0  0  0  0  0
  161.8160  203.3860  147.1600 C   0  0  0  0  0  1  0  0  0  0  0  0
  160.0410  210.4570  154.5610 C   0  0  2  0  0  3  0  0  0  0  0  0
  159.4110  211.8650  154.4270 C   0  0  2  0  0  3  0  0  0  0  0  0
  157.5900  211.8220  154.5780 S   0  0  0  0  0  0  0  0  0  0  0  0
  156.4510  214.1700  153.7530 C   0  0  0  0  0  1  0  0  0  0  0  0
  159.7310  212.5370  153.1050 C   0  0  0  0  0  2  0  0  0  0  0  0
  157.3750  213.0730  153.2720 C   0  0  1  0  0  3  0  0  0  0  0  0
  158.7300  213.6510  152.9350 C   0  0  0  0  0  2  0  0  0  0  0  0
  160.5900  210.1580  155.9800 C   0  0  2  0  0  3  0  0  0  0  0  0
  159.0270  208.1950  155.6260 C   0  0  0  0  0  1  0  0  0  0  0  0
  159.9130  208.9400  156.6290 C   0  0  1  0  0  3  0  0  0  0  0  0
  162.1530  208.2440  156.6550 N   0  0  0  0  0  1  0  0  0  0  0  0
  160.5300  206.7710  157.0160 O   0  0  0  0  0  1  0  0  0  0  0  0
  160.9010  208.0520  157.2610 N   0  0  0  0  0  0  0  0  0  0  0  0
  161.7170  211.9430  157.2590 C   0  0  0  0  0  2  0  0  0  0  0  0
  160.5830  211.3590  156.8870 C   0  0  0  0  0  3  0  0  0  0  0  0
  2  1  1  1  0  0  0
  3  2  1  0  0  0  0
  4  3  1  0  0  0  0
  5  7  1  6  0  0  0
  5  4  1  0  0  0  0
  5  8  1  0  0  0  0
  6  7  1  0  0  0  0
  8  9  1  0  0  0  0
 10  9  1  0  0  0  0
 11 10  1  0  0  0  0
 12 16  1  0  0  0  0
 13 14  1  0  0  0  0
 14 11  1  1  0  0  0
 15 17  1  6  0  0  0
 15 12  1  0  0  0  0
 15 13  1  0  0  0  0
 16 14  1  0  0  0  0
 18  2  1  6  0  0  0
 18 25  1  0  0  0  0
 19 18  1  6  0  0  0
 19 20  1  0  0  0  0
 22 19  1  0  0  0  0
 23 21  1  1  0  0  0
 23 20  1  0  0  0  0
 24 22  1  0  0  0  0
 24 23  1  0  0  0  0
 25 27  1  0  0  0  0
 25 32  1  1  0  0  0
 27 26  1  6  0  0  0
 27 30  1  0  0  0  0
 28 30  1  0  0  0  0
 29 30  1  0  0  0  0
 32 31  2  0  0  0  0
M  END
>  <MODEL>
6

>  <REMARK>
 VINA RESULT:      -5.7      1.555      2.434
  Name = 
  15 active torsions:
  status: ('A' for Active; 'I' for Inactive)
    1  A    between atoms: C_1  and  C_19
    2  A    between atoms: C_2  and  C_6
    3  A    between atoms: C_2  and  C_7
    4  A    between atoms: C_2  and  C_8
    5  A    between atoms: N_3  and  C_6
    6  A    between atoms: N_3  and  C_31
    7  A    between atoms: C_8  and  C_26
    8  A    between atoms: N_12  and  C_13
    9  A    between atoms: N_12  and  C_16
   10  A    between atoms: C_13  and  C_26
   11  A    between atoms: C_19  and  C_22
   12  A    between atoms: C_19  and  C_31
   13  A    between atoms: N_20  and  C_27
   14  A    between atoms: C_22  and  C_27
   15  A    between atoms: C_22  and  C_30
                            x       y       z     vdW  Elec       q    Type
                         _______ _______ _______ _____ _____    ______ ____

>  <TORSDO>
F 15

$$$$
=
 OpenBabel11042422583D

 32 33  0  0  1  0  0  0  0  0999 V2000
  162.0540  207.7750  148.1930 O   0  0  0  0  0  1  0  0  0  0  0  0
  161.7960  206.7420  149.1040 C   0  0  1  0  0  3  0  0  0  0  0  0
  160.8990  207.2210  150.1580 N   0  0  0  0  0  2  0  0  0  0  0  0
  161.6730  207.7760  151.2650 C   0  0  0  0  0  2  0  0  0  0  0  0
  160.8430  208.8010  152.0230 C   0  0  1  0  0  3  0  0  0  0  0  0
  161.1720  206.9860  153.6990 C   0  0  0  0  0  1  0  0  0  0  0  0
  160.8300  208.4500  153.5020 C   0  0  0  0  0  2  0  0  0  0  0  0
  161.4350  210.1900  151.8240 C   0  0  0  0  0  2  0  0  0  0  0  0
  162.2530  210.2510  150.5450 C   0  0  0  0  0  2  0  0  0  0  0  0
  161.6420  211.2480  149.5810 C   0  0  0  0  0  2  0  0  0  0  0  0
  162.6860  211.8160  148.7470 N   0  0  0  0  0  2  0  0  0  0  0  0
  159.8580  213.6140  147.6660 C   0  0  0  0  0  2  0  0  0  0  0  0
  161.7690  212.5770  146.7390 O   0  0  0  0  0  0  0  0  0  0  0  0
  162.1050  212.9510  148.0500 C   0  0  1  0  0  3  0  0  0  0  0  0
  160.6440  213.3470  146.4070 C   0  0  1  0  0  3  0  0  0  0  0  0
  160.8520  213.3970  148.7660 C   0  0  0  0  0  2  0  0  0  0  0  0
  159.7800  212.5850  145.4220 C   0  0  0  0  0  1  0  0  0  0  0  0
  161.2530  205.4760  148.4010 C   0  0  2  0  0  3  0  0  0  0  0  0
  161.5030  204.1840  149.2160 C   0  0  2  0  0  3  0  0  0  0  0  0
  160.8110  202.7060  148.3940 S   0  0  0  0  0  0  0  0  0  0  0  0
  160.7200  200.5560  150.0870 C   0  0  0  0  0  1  0  0  0  0  0  0
  160.9080  204.2350  150.6120 C   0  0  0  0  0  2  0  0  0  0  0  0
  160.2550  201.9920  149.9740 C   0  0  1  0  0  3  0  0  0  0  0  0
  160.8380  202.8120  151.1020 C   0  0  0  0  0  2  0  0  0  0  0  0
  161.7810  205.4000  146.9450 C   0  0  2  0  0  3  0  0  0  0  0  0
  160.0840  206.5780  145.4780 C   0  0  0  0  0  1  0  0  0  0  0  0
  160.6510  205.2260  145.9170 C   0  0  1  0  0  3  0  0  0  0  0  0
  161.2070  205.2290  143.6380 N   0  0  0  0  0  1  0  0  0  0  0  0
  160.1180  203.5010  144.5120 O   0  0  0  0  0  1  0  0  0  0  0  0
  161.0880  204.4110  144.7740 N   0  0  0  0  0  0  0  0  0  0  0  0
  164.0030  204.7000  146.1320 C   0  0  0  0  0  2  0  0  0  0  0  0
  162.8760  204.3850  146.7600 C   0  0  0  0  0  3  0  0  0  0  0  0
  2  1  1  6  0  0  0
  2  3  1  0  0  0  0
  3  4  1  0  0  0  0
  5  4  1  6  0  0  0
  5  7  1  0  0  0  0
  7  6  1  0  0  0  0
  8  5  1  0  0  0  0
  9  8  1  0  0  0  0
 10  9  1  0  0  0  0
 11 10  1  0  0  0  0
 12 16  1  0  0  0  0
 13 14  1  0  0  0  0
 14 11  1  1  0  0  0
 14 16  1  0  0  0  0
 15 17  1  6  0  0  0
 15 13  1  0  0  0  0
 15 12  1  0  0  0  0
 18 25  1  6  0  0  0
 18  2  1  0  0  0  0
 19 18  1  6  0  0  0
 19 22  1  0  0  0  0
 20 19  1  0  0  0  0
 20 23  1  0  0  0  0
 22 24  1  0  0  0  0
 23 21  1  1  0  0  0
 23 24  1  0  0  0  0
 25 32  1  1  0  0  0
 27 26  1  6  0  0  0
 27 25  1  0  0  0  0
 28 30  1  0  0  0  0
 29 30  1  0  0  0  0
 30 27  1  0  0  0  0
 31 32  2  0  0  0  0
M  END
>  <MODEL>
7

>  <REMARK>
 VINA RESULT:      -5.4      3.977      9.162
  Name = 
  15 active torsions:
  status: ('A' for Active; 'I' for Inactive)
    1  A    between atoms: C_1  and  C_19
    2  A    between atoms: C_2  and  C_6
    3  A    between atoms: C_2  and  C_7
    4  A    between atoms: C_2  and  C_8
    5  A    between atoms: N_3  and  C_6
    6  A    between atoms: N_3  and  C_31
    7  A    between atoms: C_8  and  C_26
    8  A    between atoms: N_12  and  C_13
    9  A    between atoms: N_12  and  C_16
   10  A    between atoms: C_13  and  C_26
   11  A    between atoms: C_19  and  C_22
   12  A    between atoms: C_19  and  C_31
   13  A    between atoms: N_20  and  C_27
   14  A    between atoms: C_22  and  C_27
   15  A    between atoms: C_22  and  C_30
                            x       y       z     vdW  Elec       q    Type
                         _______ _______ _______ _____ _____    ______ ____

>  <TORSDO>
F 15

$$$$
=
 OpenBabel11042422583D

 32 33  0  0  1  0  0  0  0  0999 V2000
  162.0190  210.3030  153.2650 O   0  0  0  0  0  1  0  0  0  0  0  0
  160.6310  210.1490  153.1500 C   0  0  1  0  0  3  0  0  0  0  0  0
  160.3140  208.7690  152.7740 N   0  0  0  0  0  2  0  0  0  0  0  0
  161.5290  207.9590  152.7620 C   0  0  0  0  0  2  0  0  0  0  0  0
  161.5930  207.1290  151.4880 C   0  0  1  0  0  3  0  0  0  0  0  0
  161.9610  208.7090  149.5960 C   0  0  0  0  0  1  0  0  0  0  0  0
  162.6220  207.7280  150.5430 C   0  0  0  0  0  2  0  0  0  0  0  0
  161.9730  205.6940  151.8290 C   0  0  0  0  0  2  0  0  0  0  0  0
  160.9510  204.7170  151.2730 C   0  0  0  0  0  2  0  0  0  0  0  0
  160.6380  205.0540  149.8290 C   0  0  0  0  0  2  0  0  0  0  0  0
  161.5660  204.3550  148.9580 N   0  0  0  0  0  2  0  0  0  0  0  0
  160.3910  206.1430  146.1610 C   0  0  0  0  0  2  0  0  0  0  0  0
  161.9600  204.4460  146.6580 O   0  0  0  0  0  0  0  0  0  0  0  0
  161.8190  205.2230  147.8190 C   0  0  1  0  0  3  0  0  0  0  0  0
  161.4720  205.2440  145.6130 C   0  0  1  0  0  3  0  0  0  0  0  0
  160.6550  206.1680  147.6360 C   0  0  0  0  0  2  0  0  0  0  0  0
  160.8930  204.3600  144.5260 C   0  0  0  0  0  1  0  0  0  0  0  0
  159.8940  210.5910  154.4360 C   0  0  2  0  0  3  0  0  0  0  0  0
  159.1780  211.9550  154.2780 C   0  0  2  0  0  3  0  0  0  0  0  0
  157.3660  211.8080  154.4650 S   0  0  0  0  0  0  0  0  0  0  0  0
  156.0740  214.0620  153.6020 C   0  0  0  0  0  1  0  0  0  0  0  0
  159.4340  212.6090  152.9330 C   0  0  0  0  0  2  0  0  0  0  0  0
  157.0540  213.0080  153.1320 C   0  0  1  0  0  3  0  0  0  0  0  0
  158.3660  213.6570  152.7530 C   0  0  0  0  0  2  0  0  0  0  0  0
  160.8530  210.5340  155.6530 C   0  0  2  0  0  3  0  0  0  0  0  0
  159.3360  208.5570  156.1100 C   0  0  0  0  0  1  0  0  0  0  0  0
  160.4790  209.4230  156.6460 C   0  0  1  0  0  3  0  0  0  0  0  0
  162.7510  209.4710  157.2280 N   0  0  0  0  0  1  0  0  0  0  0  0
  161.9630  207.8180  155.9710 O   0  0  0  0  0  1  0  0  0  0  0  0
  161.6530  208.6200  157.0190 N   0  0  0  0  0  0  0  0  0  0  0  0
  160.0910  212.3600  157.1280 C   0  0  0  0  0  2  0  0  0  0  0  0
  161.0330  211.8640  156.3330 C   0  0  0  0  0  3  0  0  0  0  0  0
  2  1  1  1  0  0  0
  3  2  1  0  0  0  0
  4  3  1  0  0  0  0
  5  7  1  6  0  0  0
  5  8  1  0  0  0  0
  5  4  1  0  0  0  0
  6  7  1  0  0  0  0
  9  8  1  0  0  0  0
 10  9  1  0  0  0  0
 11 10  1  0  0  0  0
 12 16  1  0  0  0  0
 13 14  1  0  0  0  0
 14 11  1  1  0  0  0
 15 17  1  6  0  0  0
 15 12  1  0  0  0  0
 15 13  1  0  0  0  0
 16 14  1  0  0  0  0
 18  2  1  6  0  0  0
 18 25  1  0  0  0  0
 19 18  1  6  0  0  0
 19 20  1  0  0  0  0
 22 19  1  0  0  0  0
 23 21  1  1  0  0  0
 23 20  1  0  0  0  0
 24 22  1  0  0  0  0
 24 23  1  0  0  0  0
 25 32  1  1  0  0  0
 25 27  1  0  0  0  0
 27 26  1  6  0  0  0
 27 30  1  0  0  0  0
 29 30  1  0  0  0  0
 30 28  1  0  0  0  0
 32 31  2  0  0  0  0
M  END
>  <MODEL>
8

>  <REMARK>
 VINA RESULT:      -5.4      1.668      2.410
  Name = 
  15 active torsions:
  status: ('A' for Active; 'I' for Inactive)
    1  A    between atoms: C_1  and  C_19
    2  A    between atoms: C_2  and  C_6
    3  A    between atoms: C_2  and  C_7
    4  A    between atoms: C_2  and  C_8
    5  A    between atoms: N_3  and  C_6
    6  A    between atoms: N_3  and  C_31
    7  A    between atoms: C_8  and  C_26
    8  A    between atoms: N_12  and  C_13
    9  A    between atoms: N_12  and  C_16
   10  A    between atoms: C_13  and  C_26
   11  A    between atoms: C_19  and  C_22
   12  A    between atoms: C_19  and  C_31
   13  A    between atoms: N_20  and  C_27
   14  A    between atoms: C_22  and  C_27
   15  A    between atoms: C_22  and  C_30
                            x       y       z     vdW  Elec       q    Type
                         _______ _______ _______ _____ _____    ______ ____

>  <TORSDO>
F 15

$$$$
=
 OpenBabel11042422583D

 32 33  0  0  1  0  0  0  0  0999 V2000
  162.8790  210.1740  152.9000 O   0  0  0  0  0  1  0  0  0  0  0  0
  161.5550  209.7170  152.9230 C   0  0  1  0  0  3  0  0  0  0  0  0
  161.0500  209.5890  151.5540 N   0  0  0  0  0  2  0  0  0  0  0  0
  162.0760  209.9980  150.5990 C   0  0  0  0  0  2  0  0  0  0  0  0
  161.6930  209.5530  149.1960 C   0  0  1  0  0  3  0  0  0  0  0  0
  161.9000  212.0050  148.7990 C   0  0  0  0  0  1  0  0  0  0  0  0
  162.0900  210.6270  148.1960 C   0  0  0  0  0  2  0  0  0  0  0  0
  162.4000  208.2450  148.8610 C   0  0  0  0  0  2  0  0  0  0  0  0
  161.8230  207.6260  147.6000 C   0  0  0  0  0  2  0  0  0  0  0  0
  161.3250  206.2240  147.8870 C   0  0  0  0  0  2  0  0  0  0  0  0
  161.2470  205.4750  146.6460 N   0  0  0  0  0  2  0  0  0  0  0  0
  160.8940  201.9710  146.5880 C   0  0  0  0  0  2  0  0  0  0  0  0
  161.3090  203.6930  148.1540 O   0  0  0  0  0  0  0  0  0  0  0  0
  161.7810  204.1490  146.9120 C   0  0  1  0  0  3  0  0  0  0  0  0
  161.2090  202.2990  148.0260 C   0  0  1  0  0  3  0  0  0  0  0  0
  161.3240  203.1940  145.8350 C   0  0  0  0  0  2  0  0  0  0  0  0
  160.0970  201.7860  148.9180 C   0  0  0  0  0  1  0  0  0  0  0  0
  161.4130  208.4040  153.7260 C   0  0  2  0  0  3  0  0  0  0  0  0
  161.0190  207.1980  152.8380 C   0  0  2  0  0  3  0  0  0  0  0  0
  160.8000  205.6670  153.8120 S   0  0  0  0  0  0  0  0  0  0  0  0
  160.7020  203.4520  152.2070 C   0  0  0  0  0  1  0  0  0  0  0  0
  162.0420  206.8940  151.7590 C   0  0  0  0  0  2  0  0  0  0  0  0
  161.5790  204.6440  152.5240 C   0  0  1  0  0  3  0  0  0  0  0  0
  161.7650  205.4900  151.2860 C   0  0  0  0  0  2  0  0  0  0  0  0
  160.4680  208.6120  154.9380 C   0  0  2  0  0  3  0  0  0  0  0  0
  158.7170  210.4070  155.3020 C   0  0  0  0  0  1  0  0  0  0  0  0
  160.2150  210.0990  155.2370 C   0  0  1  0  0  3  0  0  0  0  0  0
  160.1690  211.5220  157.1020 N   0  0  0  0  0  1  0  0  0  0  0  0
  162.0950  211.0940  156.0800 O   0  0  0  0  0  1  0  0  0  0  0  0
  160.9200  210.5270  156.4540 N   0  0  0  0  0  0  0  0  0  0  0  0
  160.0180  207.1500  156.8750 C   0  0  0  0  0  2  0  0  0  0  0  0
  160.8940  207.8530  156.1650 C   0  0  0  0  0  3  0  0  0  0  0  0
  2  1  1  6  0  0  0
  3  2  1  0  0  0  0
  4  3  1  0  0  0  0
  5  7  1  6  0  0  0
  5  4  1  0  0  0  0
  7  6  1  0  0  0  0
  8  5  1  0  0  0  0
  9 10  1  0  0  0  0
  9  8  1  0  0  0  0
 11 10  1  0  0  0  0
 12 15  1  0  0  0  0
 14 11  1  6  0  0  0
 14 13  1  0  0  0  0
 15 13  1  0  0  0  0
 15 17  1  1  0  0  0
 16 12  1  0  0  0  0
 16 14  1  0  0  0  0
 18  2  1  6  0  0  0
 18 25  1  0  0  0  0
 19 18  1  1  0  0  0
 19 20  1  0  0  0  0
 22 19  1  0  0  0  0
 23 21  1  6  0  0  0
 23 20  1  0  0  0  0
 24 22  1  0  0  0  0
 24 23  1  0  0  0  0
 25 27  1  0  0  0  0
 25 32  1  1  0  0  0
 27 26  1  1  0  0  0
 27 30  1  0  0  0  0
 29 30  1  0  0  0  0
 30 28  1  0  0  0  0
 32 31  2  0  0  0  0
M  END
>  <MODEL>
9

>  <REMARK>
 VINA RESULT:      -5.3      2.276      4.372
  Name = 
  15 active torsions:
  status: ('A' for Active; 'I' for Inactive)
    1  A    between atoms: C_1  and  C_19
    2  A    between atoms: C_2  and  C_6
    3  A    between atoms: C_2  and  C_7
    4  A    between atoms: C_2  and  C_8
    5  A    between atoms: N_3  and  C_6
    6  A    between atoms: N_3  and  C_31
    7  A    between atoms: C_8  and  C_26
    8  A    between atoms: N_12  and  C_13
    9  A    between atoms: N_12  and  C_16
   10  A    between atoms: C_13  and  C_26
   11  A    between atoms: C_19  and  C_22
   12  A    between atoms: C_19  and  C_31
   13  A    between atoms: N_20  and  C_27
   14  A    between atoms: C_22  and  C_27
   15  A    between atoms: C_22  and  C_30
                            x       y       z     vdW  Elec       q    Type
                         _______ _______ _______ _____ _____    ______ ____

>  <TORSDO>
F 15

$$$$
