=
 OpenBabel11042422323D

 26 27  0  0  1  0  0  0  0  0999 V2000
  161.5460  204.9900  150.4850 C   0  0  1  0  0  3  0  0  0  0  0  0
  161.3260  205.2970  149.0320 C   0  0  0  0  0  0  0  0  0  0  0  0
  160.4470  206.3130  148.6240 C   0  0  0  0  0  3  0  0  0  0  0  0
  160.2600  206.5750  147.2640 C   0  0  0  0  0  3  0  0  0  0  0  0
  162.0120  204.5490  148.0680 C   0  0  0  0  0  3  0  0  0  0  0  0
  161.8230  204.8120  146.7080 C   0  0  0  0  0  3  0  0  0  0  0  0
  160.9470  205.8240  146.3060 C   0  0  0  0  0  0  0  0  0  0  0  0
  160.7600  206.0850  144.9560 O   0  0  0  0  0  1  0  0  0  0  0  0
  161.6500  206.2310  151.3170 C   0  0  0  0  0  0  0  0  0  0  0  0
  161.2610  209.2380  151.7680 C   0  0  0  0  0  3  0  0  0  0  0  0
  160.9640  207.3990  153.4240 C   0  0  0  0  0  3  0  0  0  0  0  0
  161.0990  208.7070  153.1370 C   0  0  0  0  0  0  0  0  0  0  0  0
  161.8880  208.6260  150.7640 C   0  0  0  0  0  3  0  0  0  0  0  0
  160.9950  206.2650  152.4780 C   0  0  0  0  0  3  0  0  0  0  0  0
  162.5960  207.3230  150.9210 C   0  0  0  0  0  2  0  0  0  0  0  0
  161.0120  209.6430  154.1690 O   0  0  0  0  0  0  0  0  0  0  0  0
  161.7770  210.7440  154.1860 O   0  0  0  0  0  1  0  0  0  0  0  0
  160.5110  204.0160  151.0450 C   0  0  0  0  0  2  0  0  0  0  0  0
  160.6850  201.7460  149.9360 C   0  0  0  0  0  0  0  0  0  0  0  0
  161.5270  201.3510  150.7860 O   0  0  0  0  0  0  0  0  0  0  0  0
  160.1120  203.0510  150.0280 N   0  0  0  0  0  2  0  0  0  0  0  0
  160.3110  200.8580  148.8030 C   0  0  0  0  0  2  0  0  0  0  0  0
  161.5390  200.5540  147.9660 C   0  0  0  0  0  2  0  0  0  0  0  0
  161.2890  199.2600  145.9830 O   0  0  0  0  0  0  0  0  0  0  0  0
  160.5930  201.4700  145.8170 N   0  0  0  0  0  1  0  0  0  0  0  0
  161.1510  200.3800  146.5400 C   0  0  0  0  0  0  0  0  0  0  0  0
  1 18  1  1  0  0  0
  1  9  1  0  0  0  0
  2  1  1  0  0  0  0
  3  2  1  0  0  0  0
  4  3  2  0  0  0  0
  5  2  2  0  0  0  0
  6  5  1  0  0  0  0
  7  6  2  0  0  0  0
  7  4  1  0  0  0  0
  8  7  1  0  0  0  0
  9 14  2  0  0  0  0
 10 12  1  0  0  0  0
 12 11  2  0  0  0  0
 12 16  1  0  0  0  0
 13 15  1  0  0  0  0
 13 10  2  0  0  0  0
 14 11  1  0  0  0  0
 15  9  1  0  0  0  0
 16 17  1  0  0  0  0
 19 21  1  0  0  0  0
 19 20  2  0  0  0  0
 21 18  1  0  0  0  0
 22 19  1  0  0  0  0
 23 22  1  0  0  0  0
 24 26  2  0  0  0  0
 25 26  1  0  0  0  0
 26 23  1  0  0  0  0
M  END
>  <MODEL>
1

>  <REMARK>
 VINA RESULT:      -7.7      0.000      0.000
  Name = 
  8 active torsions:
  status: ('A' for Active; 'I' for Inactive)
    1  A    between atoms: C_1  and  C_3
    2  A    between atoms: C_2  and  C_5
    3  A    between atoms: C_3  and  C_10
    4  A    between atoms: C_3  and  C_11
    5  A    between atoms: O_4  and  C_19
    6  A    between atoms: C_5  and  C_20
    7  A    between atoms: C_11  and  N_24
    8  A    between atoms: C_20  and  C_25
                            x       y       z     vdW  Elec       q    Type
                         _______ _______ _______ _____ _____    ______ ____

>  <TORSDO>
F 8

$$$$
=
 OpenBabel11042422323D

 26 27  0  0  1  0  0  0  0  0999 V2000
  162.1810  206.8030  151.9370 C   0  0  1  0  0  3  0  0  0  0  0  0
  161.4690  207.4110  153.1110 C   0  0  0  0  0  0  0  0  0  0  0  0
  161.0300  206.6250  154.1880 C   0  0  0  0  0  3  0  0  0  0  0  0
  160.3680  207.2200  155.2660 C   0  0  0  0  0  3  0  0  0  0  0  0
  161.2400  208.7920  153.1230 C   0  0  0  0  0  3  0  0  0  0  0  0
  160.5770  209.3840  154.2020 C   0  0  0  0  0  3  0  0  0  0  0  0
  160.1410  208.5990  155.2720 C   0  0  0  0  0  0  0  0  0  0  0  0
  159.4830  209.1880  156.3430 O   0  0  0  0  0  1  0  0  0  0  0  0
  161.5490  205.5180  151.4960 C   0  0  0  0  0  0  0  0  0  0  0  0
  160.7190  203.4990  149.3440 C   0  0  0  0  0  3  0  0  0  0  0  0
  161.5820  203.0170  151.6310 C   0  0  0  0  0  3  0  0  0  0  0  0
  160.9750  202.6150  150.5000 C   0  0  0  0  0  0  0  0  0  0  0  0
  160.4480  204.8020  149.4040 C   0  0  0  0  0  3  0  0  0  0  0  0
  162.0570  204.3760  151.9610 C   0  0  0  0  0  3  0  0  0  0  0  0
  160.2870  205.5400  150.6900 C   0  0  0  0  0  2  0  0  0  0  0  0
  160.6230  201.2720  150.3550 O   0  0  0  0  0  0  0  0  0  0  0  0
  160.9870  200.5620  149.2780 O   0  0  0  0  0  1  0  0  0  0  0  0
  162.3460  207.7810  150.7760 C   0  0  0  0  0  2  0  0  0  0  0  0
  162.1520  207.4640  148.2700 C   0  0  0  0  0  0  0  0  0  0  0  0
  161.4500  208.5030  148.1540 O   0  0  0  0  0  0  0  0  0  0  0  0
  162.6610  207.0670  149.5450 N   0  0  0  0  0  2  0  0  0  0  0  0
  162.4240  206.6200  147.0760 C   0  0  0  0  0  2  0  0  0  0  0  0
  161.1170  206.2800  146.3840 C   0  0  0  0  0  2  0  0  0  0  0  0
  161.4580  203.9770  145.8850 O   0  0  0  0  0  0  0  0  0  0  0  0
  161.3280  205.3820  144.0390 N   0  0  0  0  0  1  0  0  0  0  0  0
  161.3220  205.1470  145.4420 C   0  0  0  0  0  0  0  0  0  0  0  0
  1 18  1  6  0  0  0
  1  2  1  0  0  0  0
  2  5  2  0  0  0  0
  2  3  1  0  0  0  0
  3  4  2  0  0  0  0
  4  7  1  0  0  0  0
  5  6  1  0  0  0  0
  6  7  2  0  0  0  0
  7  8  1  0  0  0  0
  9  1  1  0  0  0  0
  9 14  2  0  0  0  0
 10 13  2  0  0  0  0
 10 12  1  0  0  0  0
 11 14  1  0  0  0  0
 12 11  2  0  0  0  0
 13 15  1  0  0  0  0
 15  9  1  0  0  0  0
 16 12  1  0  0  0  0
 17 16  1  0  0  0  0
 19 21  1  0  0  0  0
 20 19  2  0  0  0  0
 21 18  1  0  0  0  0
 22 19  1  0  0  0  0
 23 22  1  0  0  0  0
 25 26  1  0  0  0  0
 26 24  2  0  0  0  0
 26 23  1  0  0  0  0
M  END
>  <MODEL>
2

>  <REMARK>
 VINA RESULT:      -7.3      2.314      6.518
  Name = 
  8 active torsions:
  status: ('A' for Active; 'I' for Inactive)
    1  A    between atoms: C_1  and  C_3
    2  A    between atoms: C_2  and  C_5
    3  A    between atoms: C_3  and  C_10
    4  A    between atoms: C_3  and  C_11
    5  A    between atoms: O_4  and  C_19
    6  A    between atoms: C_5  and  C_20
    7  A    between atoms: C_11  and  N_24
    8  A    between atoms: C_20  and  C_25
                            x       y       z     vdW  Elec       q    Type
                         _______ _______ _______ _____ _____    ______ ____

>  <TORSDO>
F 8

$$$$
=
 OpenBabel11042422323D

 26 27  0  0  1  0  0  0  0  0999 V2000
  162.1680  206.7650  151.5420 C   0  0  1  0  0  3  0  0  0  0  0  0
  161.7500  206.7020  150.1020 C   0  0  0  0  0  0  0  0  0  0  0  0
  160.4590  206.2920  149.7320 C   0  0  0  0  0  3  0  0  0  0  0  0
  160.0990  206.2420  148.3820 C   0  0  0  0  0  3  0  0  0  0  0  0
  162.6720  207.0600  149.1110 C   0  0  0  0  0  3  0  0  0  0  0  0
  162.3100  207.0080  147.7620 C   0  0  0  0  0  3  0  0  0  0  0  0
  161.0240  206.5990  147.3970 C   0  0  0  0  0  0  0  0  0  0  0  0
  160.6650  206.5490  146.0580 O   0  0  0  0  0  1  0  0  0  0  0  0
  161.4250  207.8190  152.3030 C   0  0  0  0  0  0  0  0  0  0  0  0
  160.9960  209.6030  154.7590 C   0  0  0  0  0  3  0  0  0  0  0  0
  160.6540  210.2020  152.3640 C   0  0  0  0  0  3  0  0  0  0  0  0
  160.4790  210.4600  153.6720 C   0  0  0  0  0  0  0  0  0  0  0  0
  161.1250  208.2780  154.7110 C   0  0  0  0  0  3  0  0  0  0  0  0
  161.3310  209.0350  151.7620 C   0  0  0  0  0  3  0  0  0  0  0  0
  160.6750  207.4590  153.5480 C   0  0  0  0  0  2  0  0  0  0  0  0
  159.8360  211.6400  154.0540 O   0  0  0  0  0  0  0  0  0  0  0  0
  160.1820  212.3010  155.1680 O   0  0  0  0  0  1  0  0  0  0  0  0
  162.0940  205.4060  152.2370 C   0  0  0  0  0  2  0  0  0  0  0  0
  161.0780  203.1960  151.5300 C   0  0  0  0  0  0  0  0  0  0  0  0
  160.4530  203.0900  152.6190 O   0  0  0  0  0  0  0  0  0  0  0  0
  161.8850  204.3430  151.2610 N   0  0  0  0  0  2  0  0  0  0  0  0
  161.0040  202.0990  150.5290 C   0  0  0  0  0  2  0  0  0  0  0  0
  160.8150  202.6850  149.1420 C   0  0  0  0  0  2  0  0  0  0  0  0
  161.3660  200.4710  148.4610 O   0  0  0  0  0  0  0  0  0  0  0  0
  160.8420  201.9350  146.7360 N   0  0  0  0  0  1  0  0  0  0  0  0
  161.0370  201.6340  148.1130 C   0  0  0  0  0  0  0  0  0  0  0  0
  1 18  1  1  0  0  0
  1  9  1  0  0  0  0
  2  1  1  0  0  0  0
  3  2  1  0  0  0  0
  4  3  2  0  0  0  0
  5  2  2  0  0  0  0
  6  5  1  0  0  0  0
  7  6  2  0  0  0  0
  7  4  1  0  0  0  0
  8  7  1  0  0  0  0
  9 15  1  0  0  0  0
 11 12  2  0  0  0  0
 12 16  1  0  0  0  0
 12 10  1  0  0  0  0
 13 10  2  0  0  0  0
 14  9  2  0  0  0  0
 14 11  1  0  0  0  0
 15 13  1  0  0  0  0
 16 17  1  0  0  0  0
 19 20  2  0  0  0  0
 21 19  1  0  0  0  0
 21 18  1  0  0  0  0
 22 19  1  0  0  0  0
 23 22  1  0  0  0  0
 25 26  1  0  0  0  0
 26 24  2  0  0  0  0
 26 23  1  0  0  0  0
M  END
>  <MODEL>
3

>  <REMARK>
 VINA RESULT:      -7.3      1.595      2.391
  Name = 
  8 active torsions:
  status: ('A' for Active; 'I' for Inactive)
    1  A    between atoms: C_1  and  C_3
    2  A    between atoms: C_2  and  C_5
    3  A    between atoms: C_3  and  C_10
    4  A    between atoms: C_3  and  C_11
    5  A    between atoms: O_4  and  C_19
    6  A    between atoms: C_5  and  C_20
    7  A    between atoms: C_11  and  N_24
    8  A    between atoms: C_20  and  C_25
                            x       y       z     vdW  Elec       q    Type
                         _______ _______ _______ _____ _____    ______ ____

>  <TORSDO>
F 8

$$$$
=
 OpenBabel11042422323D

 26 27  0  0  1  0  0  0  0  0999 V2000
  160.7520  206.4300  150.3390 C   0  0  1  0  0  3  0  0  0  0  0  0
  160.8660  204.9350  150.3990 C   0  0  0  0  0  0  0  0  0  0  0  0
  161.1910  204.2730  151.5930 C   0  0  0  0  0  3  0  0  0  0  0  0
  161.2920  202.8790  151.6170 C   0  0  0  0  0  3  0  0  0  0  0  0
  160.6440  204.1910  149.2340 C   0  0  0  0  0  3  0  0  0  0  0  0
  160.7460  202.7970  149.2600 C   0  0  0  0  0  3  0  0  0  0  0  0
  161.0710  202.1410  150.4510 C   0  0  0  0  0  0  0  0  0  0  0  0
  161.1720  200.7570  150.4760 O   0  0  0  0  0  1  0  0  0  0  0  0
  161.1350  207.0800  151.6330 C   0  0  0  0  0  0  0  0  0  0  0  0
  161.0840  209.4130  153.6210 C   0  0  0  0  0  3  0  0  0  0  0  0
  161.0380  206.9750  154.1340 C   0  0  0  0  0  3  0  0  0  0  0  0
  161.2010  208.2510  154.5260 C   0  0  0  0  0  0  0  0  0  0  0  0
  161.4180  209.4320  152.3310 C   0  0  0  0  0  3  0  0  0  0  0  0
  160.7670  206.4830  152.7680 C   0  0  0  0  0  3  0  0  0  0  0  0
  162.0430  208.2700  151.6360 C   0  0  0  0  0  2  0  0  0  0  0  0
  161.4220  208.5270  155.8770 O   0  0  0  0  0  0  0  0  0  0  0  0
  162.2560  209.5000  156.2690 O   0  0  0  0  0  1  0  0  0  0  0  0
  161.5090  207.0320  149.1570 C   0  0  0  0  0  2  0  0  0  0  0  0
  161.3570  206.2850  146.7410 C   0  0  0  0  0  0  0  0  0  0  0  0
  162.5500  205.8810  146.7500 O   0  0  0  0  0  0  0  0  0  0  0  0
  160.7650  206.8370  147.9190 N   0  0  0  0  0  2  0  0  0  0  0  0
  160.5670  206.2210  145.4830 C   0  0  0  0  0  2  0  0  0  0  0  0
  161.1880  205.2060  144.5420 C   0  0  0  0  0  2  0  0  0  0  0  0
  159.5120  203.5460  144.2170 O   0  0  0  0  0  0  0  0  0  0  0  0
  161.2620  202.9260  145.6130 N   0  0  0  0  0  1  0  0  0  0  0  0
  160.5920  203.8640  144.7790 C   0  0  0  0  0  0  0  0  0  0  0  0
  1 18  1  6  0  0  0
  1  2  1  0  0  0  0
  1  9  1  0  0  0  0
  2  3  1  0  0  0  0
  3  4  2  0  0  0  0
  5  6  1  0  0  0  0
  5  2  2  0  0  0  0
  6  7  2  0  0  0  0
  7  8  1  0  0  0  0
  7  4  1  0  0  0  0
  9 15  1  0  0  0  0
  9 14  2  0  0  0  0
 10 12  1  0  0  0  0
 11 12  2  0  0  0  0
 12 16  1  0  0  0  0
 13 10  2  0  0  0  0
 14 11  1  0  0  0  0
 15 13  1  0  0  0  0
 16 17  1  0  0  0  0
 19 20  2  0  0  0  0
 19 21  1  0  0  0  0
 21 18  1  0  0  0  0
 22 19  1  0  0  0  0
 23 26  1  0  0  0  0
 23 22  1  0  0  0  0
 24 26  2  0  0  0  0
 26 25  1  0  0  0  0
M  END
>  <MODEL>
4

>  <REMARK>
 VINA RESULT:      -7.3      2.017      3.914
  Name = 
  8 active torsions:
  status: ('A' for Active; 'I' for Inactive)
    1  A    between atoms: C_1  and  C_3
    2  A    between atoms: C_2  and  C_5
    3  A    between atoms: C_3  and  C_10
    4  A    between atoms: C_3  and  C_11
    5  A    between atoms: O_4  and  C_19
    6  A    between atoms: C_5  and  C_20
    7  A    between atoms: C_11  and  N_24
    8  A    between atoms: C_20  and  C_25
                            x       y       z     vdW  Elec       q    Type
                         _______ _______ _______ _____ _____    ______ ____

>  <TORSDO>
F 8

$$$$
=
 OpenBabel11042422323D

 26 27  0  0  1  0  0  0  0  0999 V2000
  160.7370  205.7450  149.3760 C   0  0  1  0  0  3  0  0  0  0  0  0
  161.1730  206.9240  150.1970 C   0  0  0  0  0  0  0  0  0  0  0  0
  161.5750  208.1260  149.5950 C   0  0  0  0  0  3  0  0  0  0  0  0
  161.9790  209.2060  150.3860 C   0  0  0  0  0  3  0  0  0  0  0  0
  161.1790  206.8130  151.5920 C   0  0  0  0  0  3  0  0  0  0  0  0
  161.5830  207.8930  152.3820 C   0  0  0  0  0  3  0  0  0  0  0  0
  161.9840  209.0890  151.7790 C   0  0  0  0  0  0  0  0  0  0  0  0
  162.3840  210.1620  152.5630 O   0  0  0  0  0  1  0  0  0  0  0  0
  161.0970  205.8990  147.9300 C   0  0  0  0  0  0  0  0  0  0  0  0
  162.3470  204.8870  145.3200 C   0  0  0  0  0  3  0  0  0  0  0  0
  160.2620  206.2250  145.5900 C   0  0  0  0  0  3  0  0  0  0  0  0
  161.2460  205.7320  144.8160 C   0  0  0  0  0  0  0  0  0  0  0  0
  162.9070  204.9740  146.5270 C   0  0  0  0  0  3  0  0  0  0  0  0
  160.1080  206.0700  147.0510 C   0  0  0  0  0  3  0  0  0  0  0  0
  162.5330  206.0190  147.5220 C   0  0  0  0  0  2  0  0  0  0  0  0
  161.2070  205.9580  143.4390 O   0  0  0  0  0  0  0  0  0  0  0  0
  162.2750  205.7370  142.6590 O   0  0  0  0  0  1  0  0  0  0  0  0
  161.2300  204.4160  149.9440 C   0  0  0  0  0  2  0  0  0  0  0  0
  161.1420  201.9700  149.2910 C   0  0  0  0  0  0  0  0  0  0  0  0
  161.2190  201.6050  150.4950 O   0  0  0  0  0  0  0  0  0  0  0  0
  161.1070  203.3570  148.9510 N   0  0  0  0  0  2  0  0  0  0  0  0
  161.1260  200.9470  148.2120 C   0  0  0  0  0  2  0  0  0  0  0  0
  160.8020  201.6110  146.8860 C   0  0  0  0  0  2  0  0  0  0  0  0
  160.0790  200.8590  144.7460 O   0  0  0  0  0  0  0  0  0  0  0  0
  161.2320  199.2880  146.0090 N   0  0  0  0  0  1  0  0  0  0  0  0
  160.6670  200.5790  145.8230 C   0  0  0  0  0  0  0  0  0  0  0  0
  1 18  1  1  0  0  0
  1  2  1  0  0  0  0
  2  5  1  0  0  0  0
  3  2  2  0  0  0  0
  3  4  1  0  0  0  0
  4  7  2  0  0  0  0
  5  6  2  0  0  0  0
  7  6  1  0  0  0  0
  7  8  1  0  0  0  0
  9  1  1  0  0  0  0
 10 13  2  0  0  0  0
 11 14  1  0  0  0  0
 12 10  1  0  0  0  0
 12 11  2  0  0  0  0
 13 15  1  0  0  0  0
 14  9  2  0  0  0  0
 15  9  1  0  0  0  0
 16 12  1  0  0  0  0
 17 16  1  0  0  0  0
 19 20  2  0  0  0  0
 21 19  1  0  0  0  0
 21 18  1  0  0  0  0
 22 19  1  0  0  0  0
 23 22  1  0  0  0  0
 24 26  2  0  0  0  0
 26 25  1  0  0  0  0
 26 23  1  0  0  0  0
M  END
>  <MODEL>
5

>  <REMARK>
 VINA RESULT:      -7.2      1.380      5.577
  Name = 
  8 active torsions:
  status: ('A' for Active; 'I' for Inactive)
    1  A    between atoms: C_1  and  C_3
    2  A    between atoms: C_2  and  C_5
    3  A    between atoms: C_3  and  C_10
    4  A    between atoms: C_3  and  C_11
    5  A    between atoms: O_4  and  C_19
    6  A    between atoms: C_5  and  C_20
    7  A    between atoms: C_11  and  N_24
    8  A    between atoms: C_20  and  C_25
                            x       y       z     vdW  Elec       q    Type
                         _______ _______ _______ _____ _____    ______ ____

>  <TORSDO>
F 8

$$$$
=
 OpenBabel11042422323D

 26 27  0  0  1  0  0  0  0  0999 V2000
  162.2000  207.4300  150.1690 C   0  0  1  0  0  3  0  0  0  0  0  0
  161.7750  208.3070  151.3110 C   0  0  0  0  0  0  0  0  0  0  0  0
  160.8350  207.8700  152.2580 C   0  0  0  0  0  3  0  0  0  0  0  0
  160.4560  208.7090  153.3090 C   0  0  0  0  0  3  0  0  0  0  0  0
  162.3300  209.5870  151.4270 C   0  0  0  0  0  3  0  0  0  0  0  0
  161.9490  210.4250  152.4790 C   0  0  0  0  0  3  0  0  0  0  0  0
  161.0130  209.9870  153.4200 C   0  0  0  0  0  0  0  0  0  0  0  0
  160.6360  210.8190  154.4640 O   0  0  0  0  0  1  0  0  0  0  0  0
  161.9800  205.9770  150.4580 C   0  0  0  0  0  0  0  0  0  0  0  0
  160.8210  203.6870  152.1350 C   0  0  0  0  0  3  0  0  0  0  0  0
  161.0200  203.8070  149.6540 C   0  0  0  0  0  3  0  0  0  0  0  0
  160.8090  203.1010  150.7790 C   0  0  0  0  0  0  0  0  0  0  0  0
  161.5830  204.7040  152.5370 C   0  0  0  0  0  3  0  0  0  0  0  0
  161.3420  205.2450  149.5440 C   0  0  0  0  0  3  0  0  0  0  0  0
  162.6070  205.3470  151.6640 C   0  0  0  0  0  2  0  0  0  0  0  0
  160.4830  201.7470  150.6820 O   0  0  0  0  0  0  0  0  0  0  0  0
  161.1490  200.9200  149.8620 O   0  0  0  0  0  1  0  0  0  0  0  0
  161.5710  207.8460  148.8410 C   0  0  0  0  0  2  0  0  0  0  0  0
  161.5280  206.5390  146.6720 C   0  0  0  0  0  0  0  0  0  0  0  0
  160.2690  206.5710  146.6320 O   0  0  0  0  0  0  0  0  0  0  0  0
  162.2400  207.1860  147.7280 N   0  0  0  0  0  2  0  0  0  0  0  0
  162.2790  205.7880  145.6310 C   0  0  0  0  0  2  0  0  0  0  0  0
  162.3850  204.3280  146.0310 C   0  0  0  0  0  2  0  0  0  0  0  0
  160.5760  204.0310  144.5120 O   0  0  0  0  0  0  0  0  0  0  0  0
  160.8960  202.2950  146.0210 N   0  0  0  0  0  1  0  0  0  0  0  0
  161.2330  203.5660  145.4790 C   0  0  0  0  0  0  0  0  0  0  0  0
  1 18  1  6  0  0  0
  1  9  1  0  0  0  0
  1  2  1  0  0  0  0
  2  5  2  0  0  0  0
  2  3  1  0  0  0  0
  3  4  2  0  0  0  0
  4  7  1  0  0  0  0
  5  6  1  0  0  0  0
  6  7  2  0  0  0  0
  7  8  1  0  0  0  0
  9 15  1  0  0  0  0
 10 13  2  0  0  0  0
 11 12  2  0  0  0  0
 12 10  1  0  0  0  0
 14 11  1  0  0  0  0
 14  9  2  0  0  0  0
 15 13  1  0  0  0  0
 16 12  1  0  0  0  0
 17 16  1  0  0  0  0
 19 21  1  0  0  0  0
 20 19  2  0  0  0  0
 21 18  1  0  0  0  0
 22 23  1  0  0  0  0
 22 19  1  0  0  0  0
 24 26  2  0  0  0  0
 26 25  1  0  0  0  0
 26 23  1  0  0  0  0
M  END
>  <MODEL>
6

>  <REMARK>
 VINA RESULT:      -7.1      1.964      5.891
  Name = 
  8 active torsions:
  status: ('A' for Active; 'I' for Inactive)
    1  A    between atoms: C_1  and  C_3
    2  A    between atoms: C_2  and  C_5
    3  A    between atoms: C_3  and  C_10
    4  A    between atoms: C_3  and  C_11
    5  A    between atoms: O_4  and  C_19
    6  A    between atoms: C_5  and  C_20
    7  A    between atoms: C_11  and  N_24
    8  A    between atoms: C_20  and  C_25
                            x       y       z     vdW  Elec       q    Type
                         _______ _______ _______ _____ _____    ______ ____

>  <TORSDO>
F 8

$$$$
=
 OpenBabel11042422323D

 26 27  0  0  1  0  0  0  0  0999 V2000
  161.0930  207.7390  150.4470 C   0  0  1  0  0  3  0  0  0  0  0  0
  161.2440  206.2820  150.7780 C   0  0  0  0  0  0  0  0  0  0  0  0
  162.2380  205.8320  151.6610 C   0  0  0  0  0  3  0  0  0  0  0  0
  162.3560  204.4700  151.9490 C   0  0  0  0  0  3  0  0  0  0  0  0
  160.3740  205.3590  150.1880 C   0  0  0  0  0  3  0  0  0  0  0  0
  160.4940  203.9960  150.4760 C   0  0  0  0  0  3  0  0  0  0  0  0
  161.4840  203.5510  151.3550 C   0  0  0  0  0  0  0  0  0  0  0  0
  161.6030  202.1990  151.6420 O   0  0  0  0  0  1  0  0  0  0  0  0
  161.1540  208.6060  151.6660 C   0  0  0  0  0  0  0  0  0  0  0  0
  160.3210  211.0680  153.2930 C   0  0  0  0  0  3  0  0  0  0  0  0
  160.7800  208.7680  154.1380 C   0  0  0  0  0  3  0  0  0  0  0  0
  160.5930  210.0820  154.3600 C   0  0  0  0  0  0  0  0  0  0  0  0
  160.7970  211.0200  152.0490 C   0  0  0  0  0  3  0  0  0  0  0  0
  160.7990  208.0720  152.8350 C   0  0  0  0  0  3  0  0  0  0  0  0
  161.7550  209.9760  151.5840 C   0  0  0  0  0  2  0  0  0  0  0  0
  160.5770  210.5560  155.6730 O   0  0  0  0  0  0  0  0  0  0  0  0
  161.5760  211.3040  156.1630 O   0  0  0  0  0  1  0  0  0  0  0  0
  162.0740  208.2030  149.3710 C   0  0  0  0  0  2  0  0  0  0  0  0
  162.0640  206.5260  147.4730 C   0  0  0  0  0  0  0  0  0  0  0  0
  161.0620  207.0740  146.9420 O   0  0  0  0  0  0  0  0  0  0  0  0
  162.6400  207.0600  148.6660 N   0  0  0  0  0  2  0  0  0  0  0  0
  162.6310  205.2890  146.8740 C   0  0  0  0  0  2  0  0  0  0  0  0
  161.6000  204.1760  146.9300 C   0  0  0  0  0  2  0  0  0  0  0  0
  160.9090  202.5490  145.3360 O   0  0  0  0  0  0  0  0  0  0  0  0
  161.2610  204.6810  144.4840 N   0  0  0  0  0  1  0  0  0  0  0  0
  161.2480  203.7410  145.5520 C   0  0  0  0  0  0  0  0  0  0  0  0
  1 18  1  6  0  0  0
  1  2  1  0  0  0  0
  1  9  1  0  0  0  0
  2  3  1  0  0  0  0
  3  4  2  0  0  0  0
  5  6  1  0  0  0  0
  5  2  2  0  0  0  0
  6  7  2  0  0  0  0
  7  8  1  0  0  0  0
  7  4  1  0  0  0  0
  9 14  2  0  0  0  0
 10 12  1  0  0  0  0
 11 12  2  0  0  0  0
 12 16  1  0  0  0  0
 13 10  2  0  0  0  0
 14 11  1  0  0  0  0
 15  9  1  0  0  0  0
 15 13  1  0  0  0  0
 16 17  1  0  0  0  0
 19 21  1  0  0  0  0
 20 19  2  0  0  0  0
 21 18  1  0  0  0  0
 22 23  1  0  0  0  0
 22 19  1  0  0  0  0
 24 26  2  0  0  0  0
 25 26  1  0  0  0  0
 26 23  1  0  0  0  0
M  END
>  <MODEL>
7

>  <REMARK>
 VINA RESULT:      -7.0      2.244      4.030
  Name = 
  8 active torsions:
  status: ('A' for Active; 'I' for Inactive)
    1  A    between atoms: C_1  and  C_3
    2  A    between atoms: C_2  and  C_5
    3  A    between atoms: C_3  and  C_10
    4  A    between atoms: C_3  and  C_11
    5  A    between atoms: O_4  and  C_19
    6  A    between atoms: C_5  and  C_20
    7  A    between atoms: C_11  and  N_24
    8  A    between atoms: C_20  and  C_25
                            x       y       z     vdW  Elec       q    Type
                         _______ _______ _______ _____ _____    ______ ____

>  <TORSDO>
F 8

$$$$
=
 OpenBabel11042422323D

 26 27  0  0  1  0  0  0  0  0999 V2000
  161.6770  206.0610  152.0990 C   0  0  1  0  0  3  0  0  0  0  0  0
  161.3600  204.8460  151.2760 C   0  0  0  0  0  0  0  0  0  0  0  0
  161.0690  204.9460  149.9060 C   0  0  0  0  0  3  0  0  0  0  0  0
  160.7760  203.7980  149.1660 C   0  0  0  0  0  3  0  0  0  0  0  0
  161.3540  203.5900  151.8940 C   0  0  0  0  0  3  0  0  0  0  0  0
  161.0590  202.4430  151.1520 C   0  0  0  0  0  3  0  0  0  0  0  0
  160.7700  202.5460  149.7890 C   0  0  0  0  0  0  0  0  0  0  0  0
  160.4780  201.4070  149.0520 O   0  0  0  0  0  1  0  0  0  0  0  0
  161.5580  207.3270  151.3080 C   0  0  0  0  0  0  0  0  0  0  0  0
  162.0400  210.3270  150.8950 C   0  0  0  0  0  3  0  0  0  0  0  0
  162.1100  208.5230  149.1770 C   0  0  0  0  0  3  0  0  0  0  0  0
  162.0590  209.8260  149.5050 C   0  0  0  0  0  0  0  0  0  0  0  0
  161.4750  209.7150  151.9360 C   0  0  0  0  0  3  0  0  0  0  0  0
  162.1110  207.3650  150.0960 C   0  0  0  0  0  3  0  0  0  0  0  0
  160.6990  208.4470  151.8100 C   0  0  0  0  0  2  0  0  0  0  0  0
  162.0990  210.7860  148.4920 O   0  0  0  0  0  0  0  0  0  0  0  0
  162.6340  211.9990  148.6930 O   0  0  0  0  0  1  0  0  0  0  0  0
  160.8690  206.1220  153.3940 C   0  0  0  0  0  2  0  0  0  0  0  0
  160.9010  207.4870  155.5270 C   0  0  0  0  0  0  0  0  0  0  0  0
  159.6820  207.2520  155.7430 O   0  0  0  0  0  0  0  0  0  0  0  0
  161.5630  206.9250  154.3930 N   0  0  0  0  0  2  0  0  0  0  0  0
  161.6500  208.3890  156.4420 C   0  0  0  0  0  2  0  0  0  0  0  0
  160.9390  209.7260  156.5350 C   0  0  0  0  0  2  0  0  0  0  0  0
  160.9000  211.5280  154.9790 O   0  0  0  0  0  0  0  0  0  0  0  0
  163.0160  210.7630  155.5550 N   0  0  0  0  0  1  0  0  0  0  0  0
  161.5970  210.7140  155.6400 C   0  0  0  0  0  0  0  0  0  0  0  0
  1 18  1  1  0  0  0
  2  5  1  0  0  0  0
  2  1  1  0  0  0  0
  3  2  2  0  0  0  0
  4  7  2  0  0  0  0
  4  3  1  0  0  0  0
  6  5  2  0  0  0  0
  7  6  1  0  0  0  0
  8  7  1  0  0  0  0
  9 15  1  0  0  0  0
  9  1  1  0  0  0  0
 10 13  2  0  0  0  0
 11 12  2  0  0  0  0
 11 14  1  0  0  0  0
 12 10  1  0  0  0  0
 14  9  2  0  0  0  0
 15 13  1  0  0  0  0
 16 17  1  0  0  0  0
 16 12  1  0  0  0  0
 18 21  1  0  0  0  0
 19 20  2  0  0  0  0
 19 22  1  0  0  0  0
 21 19  1  0  0  0  0
 22 23  1  0  0  0  0
 24 26  2  0  0  0  0
 25 26  1  0  0  0  0
 26 23  1  0  0  0  0
M  END
>  <MODEL>
8

>  <REMARK>
 VINA RESULT:      -7.0      3.276      7.093
  Name = 
  8 active torsions:
  status: ('A' for Active; 'I' for Inactive)
    1  A    between atoms: C_1  and  C_3
    2  A    between atoms: C_2  and  C_5
    3  A    between atoms: C_3  and  C_10
    4  A    between atoms: C_3  and  C_11
    5  A    between atoms: O_4  and  C_19
    6  A    between atoms: C_5  and  C_20
    7  A    between atoms: C_11  and  N_24
    8  A    between atoms: C_20  and  C_25
                            x       y       z     vdW  Elec       q    Type
                         _______ _______ _______ _____ _____    ______ ____

>  <TORSDO>
F 8

$$$$
=
 OpenBabel11042422323D

 26 27  0  0  1  0  0  0  0  0999 V2000
  160.9320  206.5940  151.6830 C   0  0  1  0  0  3  0  0  0  0  0  0
  161.3570  207.7890  150.8790 C   0  0  0  0  0  0  0  0  0  0  0  0
  161.5580  207.7030  149.4920 C   0  0  0  0  0  3  0  0  0  0  0  0
  161.9560  208.8320  148.7700 C   0  0  0  0  0  3  0  0  0  0  0  0
  161.5580  209.0100  151.5330 C   0  0  0  0  0  3  0  0  0  0  0  0
  161.9560  210.1380  150.8090 C   0  0  0  0  0  3  0  0  0  0  0  0
  162.1560  210.0490  149.4280 C   0  0  0  0  0  0  0  0  0  0  0  0
  162.5500  211.1690  148.7100 O   0  0  0  0  0  1  0  0  0  0  0  0
  161.1630  205.3080  150.9510 C   0  0  0  0  0  0  0  0  0  0  0  0
  160.7630  202.2930  150.5660 C   0  0  0  0  0  3  0  0  0  0  0  0
  160.8960  204.0480  148.8020 C   0  0  0  0  0  3  0  0  0  0  0  0
  160.9160  202.7550  149.1710 C   0  0  0  0  0  0  0  0  0  0  0  0
  161.1860  202.9400  151.6520 C   0  0  0  0  0  3  0  0  0  0  0  0
  160.7680  205.2300  149.6790 C   0  0  0  0  0  3  0  0  0  0  0  0
  161.9600  204.2130  151.5890 C   0  0  0  0  0  2  0  0  0  0  0  0
  161.0140  201.7670  148.1890 O   0  0  0  0  0  0  0  0  0  0  0  0
  161.5800  200.5780  148.4410 O   0  0  0  0  0  1  0  0  0  0  0  0
  161.5550  206.5720  153.0780 C   0  0  0  0  0  2  0  0  0  0  0  0
  160.8450  207.9570  155.0760 C   0  0  0  0  0  0  0  0  0  0  0  0
  161.9390  208.5810  155.0820 O   0  0  0  0  0  0  0  0  0  0  0  0
  160.5760  206.9670  154.0820 N   0  0  0  0  0  2  0  0  0  0  0  0
  159.8380  208.2260  156.1370 C   0  0  0  0  0  2  0  0  0  0  0  0
  160.0820  209.6000  156.7340 C   0  0  0  0  0  2  0  0  0  0  0  0
  160.3110  211.4910  155.3060 O   0  0  0  0  0  0  0  0  0  0  0  0
  158.1460  210.6810  155.5370 N   0  0  0  0  0  1  0  0  0  0  0  0
  159.5370  210.6490  155.8320 C   0  0  0  0  0  0  0  0  0  0  0  0
  1 18  1  1  0  0  0
  2  5  1  0  0  0  0
  2  1  1  0  0  0  0
  3  2  2  0  0  0  0
  4  7  2  0  0  0  0
  4  3  1  0  0  0  0
  6  5  2  0  0  0  0
  7  6  1  0  0  0  0
  8  7  1  0  0  0  0
  9 15  1  0  0  0  0
  9  1  1  0  0  0  0
 10 13  2  0  0  0  0
 11 12  2  0  0  0  0
 11 14  1  0  0  0  0
 12 10  1  0  0  0  0
 14  9  2  0  0  0  0
 15 13  1  0  0  0  0
 16 17  1  0  0  0  0
 16 12  1  0  0  0  0
 18 21  1  0  0  0  0
 19 20  2  0  0  0  0
 19 22  1  0  0  0  0
 21 19  1  0  0  0  0
 22 23  1  0  0  0  0
 24 26  2  0  0  0  0
 25 26  1  0  0  0  0
 26 23  1  0  0  0  0
M  END
>  <MODEL>
9

>  <REMARK>
 VINA RESULT:      -7.0      3.061      8.004
  Name = 
  8 active torsions:
  status: ('A' for Active; 'I' for Inactive)
    1  A    between atoms: C_1  and  C_3
    2  A    between atoms: C_2  and  C_5
    3  A    between atoms: C_3  and  C_10
    4  A    between atoms: C_3  and  C_11
    5  A    between atoms: O_4  and  C_19
    6  A    between atoms: C_5  and  C_20
    7  A    between atoms: C_11  and  N_24
    8  A    between atoms: C_20  and  C_25
                            x       y       z     vdW  Elec       q    Type
                         _______ _______ _______ _____ _____    ______ ____

>  <TORSDO>
F 8

$$$$
