=
 OpenBabel11042420563D

 46 51  0  0  1  0  0  0  0  0999 V2000
  161.2860  206.9630  151.4560 C   0  0  0  0  0  3  0  0  0  0  0  0
  161.1900  205.5800  151.6370 C   0  0  0  0  0  0  0  0  0  0  0  0
  161.0320  205.9270  154.0210 C   0  0  0  0  0  3  0  0  0  0  0  0
  161.1130  207.3200  153.8600 C   0  0  0  0  0  0  0  0  0  0  0  0
  161.0670  205.0660  152.9240 C   0  0  0  0  0  3  0  0  0  0  0  0
  161.2520  207.8460  152.5430 C   0  0  0  0  0  0  0  0  0  0  0  0
  160.8610  212.0330  150.5320 C   0  0  0  0  0  0  0  0  0  0  0  0
  160.7720  212.2520  145.9500 C   0  0  0  0  0  2  0  0  0  0  0  0
  160.5630  211.6120  151.9460 C   0  0  0  0  0  2  0  0  0  0  0  0
  161.4160  209.2970  152.1880 C   0  0  1  0  0  3  0  0  0  0  0  0
  160.8370  213.5850  147.8810 C   0  0  0  0  0  0  0  0  0  0  0  0
  161.4910  211.0900  149.5480 C   0  0  0  0  0  0  0  0  0  0  0  0
  160.7670  213.7310  145.6880 C   0  0  0  0  0  3  0  0  0  0  0  0
  160.5960  213.2830  150.2830 N   0  0  0  0  0  0  0  0  0  0  0  0
  160.7260  214.0270  149.0930 N   0  0  0  0  0  0  0  0  0  0  0  0
  162.6170  209.6580  151.3080 C   0  0  0  0  0  2  0  0  0  0  0  0
  160.8010  214.4520  146.7630 N   0  0  0  0  0  0  0  0  0  0  0  0
  161.2220  211.1470  148.1130 C   0  0  0  0  0  3  0  0  0  0  0  0
  160.8610  212.2180  147.4320 C   0  0  0  0  0  0  0  0  0  0  0  0
  162.2290  210.0330  149.9120 C   0  0  0  0  0  3  0  0  0  0  0  0
  160.1610  210.1500  152.0640 C   0  0  0  0  0  2  0  0  0  0  0  0
  161.0460  208.1360  155.0960 C   0  0  0  0  0  0  0  0  0  0  0  0
  159.9360  208.9950  155.3540 N   0  0  0  0  0  2  0  0  0  0  0  0
  161.9530  208.0180  155.9650 O   0  0  0  0  0  0  0  0  0  0  0  0
  159.7580  209.7080  156.6130 C   0  0  0  0  0  2  0  0  0  0  0  0
  160.9550  211.4410  155.2570 C   0  0  0  0  0  1  0  0  0  0  0  0
  160.0310  211.2060  156.4470 C   0  0  1  0  0  3  0  0  0  0  0  0
  159.0860  214.4000  155.2540 C   0  0  0  0  0  2  0  0  0  0  0  0
  157.8150  211.2060  154.3190 O   0  0  0  0  0  0  0  0  0  0  0  0
  158.2420  213.5230  154.3510 C   0  0  0  0  0  2  0  0  0  0  0  0
  158.2320  212.1650  154.9500 C   0  0  0  0  0  0  0  0  0  0  0  0
  159.0390  213.7380  156.9530 S   0  0  0  0  0  0  0  0  0  0  0  0
  158.7290  212.0360  156.3620 C   0  0  2  0  0  0  0  0  0  0  0  0
  156.3840  211.8860  156.9540 O   0  0  0  0  0  1  0  0  0  0  0  0
  157.6590  211.4030  157.2600 C   0  0  0  0  0  2  0  0  0  0  0  0
  161.2210  204.6830  150.5240 N   0  0  0  0  0  2  0  0  0  0  0  0
  161.3360  203.2400  150.6810 C   0  0  0  0  0  2  0  0  0  0  0  0
  160.5520  202.5320  149.5910 C   0  0  0  0  0  2  0  0  0  0  0  0
  161.5010  201.9050  148.5890 C   0  0  0  0  0  2  0  0  0  0  0  0
  161.0230  202.1720  147.2410 N   0  0  0  0  0  2  0  0  0  0  0  0
  161.3640  204.7510  144.4250 C   0  0  0  0  0  2  0  0  0  0  0  0
  160.7480  203.5670  145.1630 C   0  0  0  0  0  2  0  0  0  0  0  0
  161.3230  203.3810  146.5430 C   0  0  0  0  0  0  0  0  0  0  0  0
  162.3660  205.5980  146.5070 C   0  0  0  0  0  2  0  0  0  0  0  0
  161.4360  205.9500  145.3540 C   0  0  0  0  0  2  0  0  0  0  0  0
  161.9810  204.3360  147.1420 N   0  0  0  0  0  0  0  0  0  0  0  0
  1  2  2  0  0  0  0
  1  6  1  0  0  0  0
  2  5  1  0  0  0  0
  4  3  1  0  0  0  0
  4 22  1  0  0  0  0
  5  3  2  0  0  0  0
  6  4  2  0  0  0  0
  7  9  1  0  0  0  0
  8 19  1  0  0  0  0
  9 21  1  0  0  0  0
 10  6  1  6  0  0  0
 11 15  2  0  0  0  0
 12 20  2  0  0  0  0
 12  7  1  0  0  0  0
 13  8  1  0  0  0  0
 13 17  2  0  0  0  0
 14  7  2  0  0  0  0
 15 14  1  0  0  0  0
 16 10  1  0  0  0  0
 17 11  1  0  0  0  0
 18 12  1  0  0  0  0
 19 11  1  0  0  0  0
 19 18  2  0  0  0  0
 20 16  1  0  0  0  0
 21 10  1  0  0  0  0
 22 23  1  0  0  0  0
 22 24  2  0  0  0  0
 23 25  1  0  0  0  0
 27 26  1  6  0  0  0
 27 25  1  0  0  0  0
 28 32  1  0  0  0  0
 29 31  2  0  0  0  0
 30 31  1  0  0  0  0
 30 28  1  0  0  0  0
 31 33  1  0  0  0  0
 33 27  1  0  0  0  0
 33 32  1  0  0  0  0
 33 35  1  1  0  0  0
 34 35  1  0  0  0  0
 36 37  1  0  0  0  0
 36  2  1  0  0  0  0
 38 37  1  0  0  0  0
 39 38  1  0  0  0  0
 40 39  1  0  0  0  0
 41 42  1  0  0  0  0
 41 45  1  0  0  0  0
 42 43  1  0  0  0  0
 43 46  2  0  0  0  0
 43 40  1  0  0  0  0
 44 46  1  0  0  0  0
 45 44  1  0  0  0  0
M  END
>  <MODEL>
1

>  <REMARK>
 VINA RESULT:      -7.0      0.000      0.000
  Name = 
  11 active torsions:
  status: ('A' for Active; 'I' for Inactive)
    1  A    between atoms: N_1  and  C_36
    2  A    between atoms: C_3  and  C_40
    3  A    between atoms: C_7  and  N_18
    4  A    between atoms: C_7  and  C_37
    5  A    between atoms: C_9  and  C_44
    6  A    between atoms: N_13  and  C_30
    7  A    between atoms: C_14  and  N_18
    8  A    between atoms: C_16  and  C_30
    9  A    between atoms: C_16  and  C_46
   10  A    between atoms: C_36  and  C_37
   11  A    between atoms: C_38  and  C_46
                            x       y       z     vdW  Elec       q    Type
                         _______ _______ _______ _____ _____    ______ ____

>  <TORSDO>
F 11

$$$$
=
 OpenBabel11042420563D

 46 51  0  0  1  0  0  0  0  0999 V2000
  161.8950  208.7290  150.1300 C   0  0  0  0  0  3  0  0  0  0  0  0
  162.1850  210.0680  149.8490 C   0  0  0  0  0  0  0  0  0  0  0  0
  161.5450  210.6550  152.1020 C   0  0  0  0  0  3  0  0  0  0  0  0
  161.2620  209.3130  152.4090 C   0  0  0  0  0  0  0  0  0  0  0  0
  162.0040  211.0290  150.8390 C   0  0  0  0  0  3  0  0  0  0  0  0
  161.4340  208.3310  151.3920 C   0  0  0  0  0  0  0  0  0  0  0  0
  161.3750  203.7020  150.8430 C   0  0  0  0  0  0  0  0  0  0  0  0
  161.3780  202.0110  146.5780 C   0  0  0  0  0  2  0  0  0  0  0  0
  161.7350  204.5250  152.0520 C   0  0  0  0  0  2  0  0  0  0  0  0
  161.1210  206.8670  151.5190 C   0  0  1  0  0  3  0  0  0  0  0  0
  161.2070  201.3850  148.8340 C   0  0  0  0  0  0  0  0  0  0  0  0
  160.8300  204.3350  149.5960 C   0  0  0  0  0  0  0  0  0  0  0  0
  161.2310  200.5330  146.8070 C   0  0  0  0  0  3  0  0  0  0  0  0
  161.5110  202.4190  151.0150 N   0  0  0  0  0  0  0  0  0  0  0  0
  161.2910  201.3480  150.1260 N   0  0  0  0  0  0  0  0  0  0  0  0
  159.8770  206.3620  150.7800 C   0  0  0  0  0  2  0  0  0  0  0  0
  161.1410  200.2040  148.0560 N   0  0  0  0  0  0  0  0  0  0  0  0
  161.0710  203.7930  148.2610 C   0  0  0  0  0  3  0  0  0  0  0  0
  161.3130  202.5290  147.9690 C   0  0  0  0  0  0  0  0  0  0  0  0
  160.2060  205.5220  149.5860 C   0  0  0  0  0  3  0  0  0  0  0  0
  162.2820  205.9000  151.7010 C   0  0  0  0  0  2  0  0  0  0  0  0
  160.7980  209.0320  153.7890 C   0  0  0  0  0  0  0  0  0  0  0  0
  160.0960  210.0170  154.5460 N   0  0  0  0  0  2  0  0  0  0  0  0
  160.9710  207.8820  154.2770 O   0  0  0  0  0  0  0  0  0  0  0  0
  159.5010  209.7430  155.8490 C   0  0  0  0  0  2  0  0  0  0  0  0
  160.3640  211.9560  156.6450 C   0  0  0  0  0  1  0  0  0  0  0  0
  159.1460  211.0400  156.5810 C   0  0  1  0  0  3  0  0  0  0  0  0
  157.7290  214.2820  156.6430 C   0  0  0  0  0  2  0  0  0  0  0  0
  158.7660  212.3560  153.8310 O   0  0  0  0  0  0  0  0  0  0  0  0
  158.0240  214.1530  155.1610 C   0  0  0  0  0  2  0  0  0  0  0  0
  158.2840  212.7170  154.8930 C   0  0  0  0  0  0  0  0  0  0  0  0
  157.0470  212.7090  157.2610 S   0  0  0  0  0  0  0  0  0  0  0  0
  157.9080  211.7410  155.9720 C   0  0  2  0  0  0  0  0  0  0  0  0
  155.8530  211.2740  154.7760 O   0  0  0  0  0  1  0  0  0  0  0  0
  156.9360  210.6840  155.4340 C   0  0  0  0  0  2  0  0  0  0  0  0
  162.6600  210.4690  148.5610 N   0  0  0  0  0  2  0  0  0  0  0  0
  162.7050  211.8620  148.1400 C   0  0  0  0  0  2  0  0  0  0  0  0
  161.4250  212.2290  147.4110 C   0  0  0  0  0  2  0  0  0  0  0  0
  161.5710  213.5850  146.7490 C   0  0  0  0  0  2  0  0  0  0  0  0
  162.3770  213.4500  145.5460 N   0  0  0  0  0  2  0  0  0  0  0  0
  162.0270  212.6860  141.8060 C   0  0  0  0  0  2  0  0  0  0  0  0
  162.7670  212.8790  143.1250 C   0  0  0  0  0  2  0  0  0  0  0  0
  161.8340  213.0150  144.2990 C   0  0  0  0  0  0  0  0  0  0  0  0
  159.9240  212.2090  142.9920 C   0  0  0  0  0  2  0  0  0  0  0  0
  160.9250  211.6580  141.9840 C   0  0  0  0  0  2  0  0  0  0  0  0
  160.5860  212.6400  144.2250 N   0  0  0  0  0  0  0  0  0  0  0  0
  1  6  1  0  0  0  0
  2  1  2  0  0  0  0
  2  5  1  0  0  0  0
  3  4  1  0  0  0  0
  4 22  1  0  0  0  0
  5  3  2  0  0  0  0
  6  4  2  0  0  0  0
  7 14  2  0  0  0  0
  7  9  1  0  0  0  0
  8 13  1  0  0  0  0
  8 19  1  0  0  0  0
 10  6  1  6  0  0  0
 10 21  1  0  0  0  0
 11 15  2  0  0  0  0
 12  7  1  0  0  0  0
 13 17  2  0  0  0  0
 15 14  1  0  0  0  0
 16 10  1  0  0  0  0
 17 11  1  0  0  0  0
 18 12  1  0  0  0  0
 19 18  2  0  0  0  0
 19 11  1  0  0  0  0
 20 12  2  0  0  0  0
 20 16  1  0  0  0  0
 21  9  1  0  0  0  0
 22 24  2  0  0  0  0
 22 23  1  0  0  0  0
 23 25  1  0  0  0  0
 25 27  1  0  0  0  0
 27 26  1  6  0  0  0
 28 32  1  0  0  0  0
 29 31  2  0  0  0  0
 30 28  1  0  0  0  0
 31 30  1  0  0  0  0
 31 33  1  0  0  0  0
 33 35  1  6  0  0  0
 33 27  1  0  0  0  0
 33 32  1  0  0  0  0
 34 35  1  0  0  0  0
 36  2  1  0  0  0  0
 37 36  1  0  0  0  0
 38 37  1  0  0  0  0
 39 38  1  0  0  0  0
 40 39  1  0  0  0  0
 41 45  1  0  0  0  0
 41 42  1  0  0  0  0
 42 43  1  0  0  0  0
 43 40  1  0  0  0  0
 44 46  1  0  0  0  0
 45 44  1  0  0  0  0
 46 43  2  0  0  0  0
M  END
>  <MODEL>
2

>  <REMARK>
 VINA RESULT:      -6.3      1.959      7.205
  Name = 
  11 active torsions:
  status: ('A' for Active; 'I' for Inactive)
    1  A    between atoms: N_1  and  C_36
    2  A    between atoms: C_3  and  C_40
    3  A    between atoms: C_7  and  N_18
    4  A    between atoms: C_7  and  C_37
    5  A    between atoms: C_9  and  C_44
    6  A    between atoms: N_13  and  C_30
    7  A    between atoms: C_14  and  N_18
    8  A    between atoms: C_16  and  C_30
    9  A    between atoms: C_16  and  C_46
   10  A    between atoms: C_36  and  C_37
   11  A    between atoms: C_38  and  C_46
                            x       y       z     vdW  Elec       q    Type
                         _______ _______ _______ _____ _____    ______ ____

>  <TORSDO>
F 11

$$$$
=
 OpenBabel11042420563D

 46 51  0  0  1  0  0  0  0  0999 V2000
  161.8970  208.8350  150.1090 C   0  0  0  0  0  3  0  0  0  0  0  0
  162.2040  210.1680  149.8190 C   0  0  0  0  0  0  0  0  0  0  0  0
  161.5960  210.7740  152.0760 C   0  0  0  0  0  3  0  0  0  0  0  0
  161.2960  209.4380  152.3920 C   0  0  0  0  0  0  0  0  0  0  0  0
  162.0470  211.1360  150.8060 C   0  0  0  0  0  3  0  0  0  0  0  0
  161.4440  208.4490  151.3770 C   0  0  0  0  0  0  0  0  0  0  0  0
  161.3550  203.8130  150.8950 C   0  0  0  0  0  0  0  0  0  0  0  0
  161.4890  202.0590  146.6570 C   0  0  0  0  0  2  0  0  0  0  0  0
  161.6800  204.6510  152.1030 C   0  0  0  0  0  2  0  0  0  0  0  0
  161.1100  206.9900  151.5150 C   0  0  1  0  0  3  0  0  0  0  0  0
  161.2320  201.4680  148.9150 C   0  0  0  0  0  0  0  0  0  0  0  0
  160.8600  204.4330  149.6200 C   0  0  0  0  0  0  0  0  0  0  0  0
  161.3180  200.5860  146.9020 C   0  0  0  0  0  3  0  0  0  0  0  0
  161.4710  202.5310  151.0900 N   0  0  0  0  0  0  0  0  0  0  0  0
  161.2700  201.4500  150.2090 N   0  0  0  0  0  0  0  0  0  0  0  0
  159.8880  206.4870  150.7400 C   0  0  0  0  0  2  0  0  0  0  0  0
  161.1810  200.2770  148.1520 N   0  0  0  0  0  0  0  0  0  0  0  0
  161.1420  203.8690  148.3030 C   0  0  0  0  0  3  0  0  0  0  0  0
  161.3810  202.5990  148.0370 C   0  0  0  0  0  0  0  0  0  0  0  0
  160.2500  205.6260  149.5710 C   0  0  0  0  0  3  0  0  0  0  0  0
  162.2540  206.0140  151.7510 C   0  0  0  0  0  2  0  0  0  0  0  0
  160.8420  209.1710  153.7770 C   0  0  0  0  0  0  0  0  0  0  0  0
  160.0460  210.1170  154.4900 N   0  0  0  0  0  2  0  0  0  0  0  0
  161.1100  208.0600  154.3120 O   0  0  0  0  0  0  0  0  0  0  0  0
  159.4620  209.8420  155.7960 C   0  0  0  0  0  2  0  0  0  0  0  0
  160.7180  211.8070  156.7100 C   0  0  0  0  0  1  0  0  0  0  0  0
  159.3600  211.1160  156.6390 C   0  0  1  0  0  3  0  0  0  0  0  0
  158.8830  213.3660  153.9500 C   0  0  0  0  0  2  0  0  0  0  0  0
  156.9180  210.5380  154.8670 O   0  0  0  0  0  0  0  0  0  0  0  0
  157.7750  212.3720  153.6610 C   0  0  0  0  0  2  0  0  0  0  0  0
  157.5890  211.5590  154.8880 C   0  0  0  0  0  0  0  0  0  0  0  0
  158.9410  213.6990  155.7410 S   0  0  0  0  0  0  0  0  0  0  0  0
  158.2390  212.0610  156.1460 C   0  0  2  0  0  0  0  0  0  0  0  0
  156.2600  213.2240  156.9240 O   0  0  0  0  0  1  0  0  0  0  0  0
  157.2000  212.2450  157.2590 C   0  0  0  0  0  2  0  0  0  0  0  0
  162.6720  210.5560  148.5250 N   0  0  0  0  0  2  0  0  0  0  0  0
  162.9060  211.9450  148.1590 C   0  0  0  0  0  2  0  0  0  0  0  0
  161.8370  212.4180  147.1910 C   0  0  0  0  0  2  0  0  0  0  0  0
  161.2140  213.7080  147.6880 C   0  0  0  0  0  2  0  0  0  0  0  0
  159.8620  213.8230  147.1650 N   0  0  0  0  0  2  0  0  0  0  0  0
  156.2520  214.3400  148.3480 C   0  0  0  0  0  2  0  0  0  0  0  0
  157.3570  213.9820  147.3590 C   0  0  0  0  0  2  0  0  0  0  0  0
  158.7130  213.8980  148.0090 C   0  0  0  0  0  0  0  0  0  0  0  0
  157.7360  213.8750  150.2560 C   0  0  0  0  0  2  0  0  0  0  0  0
  156.4070  213.5070  149.6090 C   0  0  0  0  0  2  0  0  0  0  0  0
  158.8430  213.7800  149.3020 N   0  0  0  0  0  0  0  0  0  0  0  0
  1  6  1  0  0  0  0
  2  1  2  0  0  0  0
  2  5  1  0  0  0  0
  3  4  1  0  0  0  0
  4 22  1  0  0  0  0
  5  3  2  0  0  0  0
  6  4  2  0  0  0  0
  7 14  2  0  0  0  0
  7  9  1  0  0  0  0
  8 13  1  0  0  0  0
  8 19  1  0  0  0  0
 10  6  1  6  0  0  0
 10 21  1  0  0  0  0
 11 15  2  0  0  0  0
 12  7  1  0  0  0  0
 13 17  2  0  0  0  0
 15 14  1  0  0  0  0
 16 10  1  0  0  0  0
 17 11  1  0  0  0  0
 18 12  1  0  0  0  0
 19 18  2  0  0  0  0
 19 11  1  0  0  0  0
 20 12  2  0  0  0  0
 20 16  1  0  0  0  0
 21  9  1  0  0  0  0
 22 24  2  0  0  0  0
 22 23  1  0  0  0  0
 23 25  1  0  0  0  0
 25 27  1  0  0  0  0
 27 26  1  6  0  0  0
 28 32  1  0  0  0  0
 29 31  2  0  0  0  0
 30 28  1  0  0  0  0
 30 31  1  0  0  0  0
 31 33  1  0  0  0  0
 32 33  1  0  0  0  0
 33 27  1  0  0  0  0
 33 35  1  1  0  0  0
 34 35  1  0  0  0  0
 36  2  1  0  0  0  0
 37 36  1  0  0  0  0
 38 39  1  0  0  0  0
 38 37  1  0  0  0  0
 40 39  1  0  0  0  0
 40 43  1  0  0  0  0
 41 45  1  0  0  0  0
 42 43  1  0  0  0  0
 42 41  1  0  0  0  0
 43 46  2  0  0  0  0
 45 44  1  0  0  0  0
 46 44  1  0  0  0  0
M  END
>  <MODEL>
3

>  <REMARK>
 VINA RESULT:      -6.0      1.919      7.534
  Name = 
  11 active torsions:
  status: ('A' for Active; 'I' for Inactive)
    1  A    between atoms: N_1  and  C_36
    2  A    between atoms: C_3  and  C_40
    3  A    between atoms: C_7  and  N_18
    4  A    between atoms: C_7  and  C_37
    5  A    between atoms: C_9  and  C_44
    6  A    between atoms: N_13  and  C_30
    7  A    between atoms: C_14  and  N_18
    8  A    between atoms: C_16  and  C_30
    9  A    between atoms: C_16  and  C_46
   10  A    between atoms: C_36  and  C_37
   11  A    between atoms: C_38  and  C_46
                            x       y       z     vdW  Elec       q    Type
                         _______ _______ _______ _____ _____    ______ ____

>  <TORSDO>
F 11

$$$$
=
 OpenBabel11042420563D

 46 51  0  0  1  0  0  0  0  0999 V2000
  161.3780  207.5440  150.7610 C   0  0  0  0  0  3  0  0  0  0  0  0
  161.3960  208.1260  152.0320 C   0  0  0  0  0  0  0  0  0  0  0  0
  161.9340  210.2540  151.0250 C   0  0  0  0  0  3  0  0  0  0  0  0
  161.9070  209.6910  149.7380 C   0  0  0  0  0  0  0  0  0  0  0  0
  161.6790  209.4830  152.1600 C   0  0  0  0  0  3  0  0  0  0  0  0
  161.6300  208.3000  149.6080 C   0  0  0  0  0  0  0  0  0  0  0  0
  160.8240  205.0880  146.3270 C   0  0  0  0  0  0  0  0  0  0  0  0
  161.0200  200.6610  147.5130 C   0  0  0  0  0  2  0  0  0  0  0  0
  160.4880  206.5560  146.3430 C   0  0  0  0  0  2  0  0  0  0  0  0
  161.6240  207.5190  148.3240 C   0  0  1  0  0  3  0  0  0  0  0  0
  160.7750  202.0890  145.6670 C   0  0  0  0  0  0  0  0  0  0  0  0
  161.6390  204.4580  147.4190 C   0  0  0  0  0  0  0  0  0  0  0  0
  160.8360  199.9560  146.1990 C   0  0  0  0  0  3  0  0  0  0  0  0
  160.4120  204.4600  145.2630 N   0  0  0  0  0  0  0  0  0  0  0  0
  160.5230  203.1030  144.9020 N   0  0  0  0  0  0  0  0  0  0  0  0
  162.8230  206.6010  148.0710 C   0  0  0  0  0  2  0  0  0  0  0  0
  160.6990  200.7580  145.1910 N   0  0  0  0  0  0  0  0  0  0  0  0
  161.4640  203.0690  147.8370 C   0  0  0  0  0  3  0  0  0  0  0  0
  161.0110  202.0830  147.0860 C   0  0  0  0  0  0  0  0  0  0  0  0
  162.4850  205.1480  148.1960 C   0  0  0  0  0  3  0  0  0  0  0  0
  160.2780  207.1090  147.7440 C   0  0  0  0  0  2  0  0  0  0  0  0
  162.1750  210.6110  148.6070 C   0  0  0  0  0  0  0  0  0  0  0  0
  161.2060  211.5740  148.1930 N   0  0  0  0  0  2  0  0  0  0  0  0
  163.3040  210.5870  148.0430 O   0  0  0  0  0  0  0  0  0  0  0  0
  161.4740  212.5890  147.1820 C   0  0  0  0  0  2  0  0  0  0  0  0
  159.0550  213.0830  146.7580 C   0  0  0  0  0  1  0  0  0  0  0  0
  160.3660  212.6280  146.1260 C   0  0  1  0  0  3  0  0  0  0  0  0
  163.3210  213.3210  144.3060 C   0  0  0  0  0  2  0  0  0  0  0  0
  160.2490  211.9480  143.1320 O   0  0  0  0  0  0  0  0  0  0  0  0
  162.4950  212.6550  143.2220 C   0  0  0  0  0  2  0  0  0  0  0  0
  161.0910  212.6250  143.7020 C   0  0  0  0  0  0  0  0  0  0  0  0
  162.2580  214.4520  145.2630 S   0  0  0  0  0  0  0  0  0  0  0  0
  160.7570  213.4770  144.8930 C   0  0  2  0  0  0  0  0  0  0  0  0
  159.1720  214.2870  143.2490 O   0  0  0  0  0  1  0  0  0  0  0  0
  159.6200  214.4520  144.5630 C   0  0  0  0  0  2  0  0  0  0  0  0
  161.1330  207.3520  153.2060 N   0  0  0  0  0  2  0  0  0  0  0  0
  161.3740  207.8570  154.5500 C   0  0  0  0  0  2  0  0  0  0  0  0
  160.0560  208.1420  155.2450 C   0  0  0  0  0  2  0  0  0  0  0  0
  160.0770  209.5280  155.8590 C   0  0  0  0  0  2  0  0  0  0  0  0
  158.7700  210.1450  155.7010 N   0  0  0  0  0  2  0  0  0  0  0  0
  156.9470  212.7250  153.5280 C   0  0  0  0  0  2  0  0  0  0  0  0
  157.1430  211.8020  154.7260 C   0  0  0  0  0  2  0  0  0  0  0  0
  158.5290  211.2140  154.7850 C   0  0  0  0  0  0  0  0  0  0  0  0
  159.3730  212.8050  153.1230 C   0  0  0  0  0  2  0  0  0  0  0  0
  158.1400  213.6550  153.4000 C   0  0  0  0  0  2  0  0  0  0  0  0
  159.5180  211.7310  154.1080 N   0  0  0  0  0  0  0  0  0  0  0  0
  1  2  1  0  0  0  0
  2  5  2  0  0  0  0
  2 36  1  0  0  0  0
  3  5  1  0  0  0  0
  4  3  2  0  0  0  0
  6  4  1  0  0  0  0
  6  1  2  0  0  0  0
  7  9  1  0  0  0  0
  7 12  1  0  0  0  0
  9 21  1  0  0  0  0
 10  6  1  1  0  0  0
 11 19  1  0  0  0  0
 12 18  1  0  0  0  0
 12 20  2  0  0  0  0
 13  8  1  0  0  0  0
 14  7  2  0  0  0  0
 15 14  1  0  0  0  0
 15 11  2  0  0  0  0
 16 20  1  0  0  0  0
 16 10  1  0  0  0  0
 17 11  1  0  0  0  0
 17 13  2  0  0  0  0
 19  8  1  0  0  0  0
 19 18  2  0  0  0  0
 21 10  1  0  0  0  0
 22  4  1  0  0  0  0
 23 22  1  0  0  0  0
 24 22  2  0  0  0  0
 25 23  1  0  0  0  0
 27 26  1  1  0  0  0
 27 25  1  0  0  0  0
 28 32  1  0  0  0  0
 29 31  2  0  0  0  0
 30 31  1  0  0  0  0
 30 28  1  0  0  0  0
 31 33  1  0  0  0  0
 33 35  1  6  0  0  0
 33 32  1  0  0  0  0
 33 27  1  0  0  0  0
 34 35  1  0  0  0  0
 36 37  1  0  0  0  0
 37 38  1  0  0  0  0
 38 39  1  0  0  0  0
 40 39  1  0  0  0  0
 41 42  1  0  0  0  0
 42 43  1  0  0  0  0
 43 40  1  0  0  0  0
 44 45  1  0  0  0  0
 44 46  1  0  0  0  0
 45 41  1  0  0  0  0
 46 43  2  0  0  0  0
M  END
>  <MODEL>
4

>  <REMARK>
 VINA RESULT:      -6.0      3.700      9.650
  Name = 
  11 active torsions:
  status: ('A' for Active; 'I' for Inactive)
    1  A    between atoms: N_1  and  C_36
    2  A    between atoms: C_3  and  C_40
    3  A    between atoms: C_7  and  N_18
    4  A    between atoms: C_7  and  C_37
    5  A    between atoms: C_9  and  C_44
    6  A    between atoms: N_13  and  C_30
    7  A    between atoms: C_14  and  N_18
    8  A    between atoms: C_16  and  C_30
    9  A    between atoms: C_16  and  C_46
   10  A    between atoms: C_36  and  C_37
   11  A    between atoms: C_38  and  C_46
                            x       y       z     vdW  Elec       q    Type
                         _______ _______ _______ _____ _____    ______ ____

>  <TORSDO>
F 11

$$$$
=
 OpenBabel11042420563D

 46 51  0  0  1  0  0  0  0  0999 V2000
  162.0920  206.9210  151.0960 C   0  0  0  0  0  3  0  0  0  0  0  0
  161.6680  205.8840  151.9320 C   0  0  0  0  0  0  0  0  0  0  0  0
  160.8080  207.5200  153.4860 C   0  0  0  0  0  3  0  0  0  0  0  0
  161.2140  208.5770  152.6530 C   0  0  0  0  0  0  0  0  0  0  0  0
  161.0290  206.1890  153.1300 C   0  0  0  0  0  3  0  0  0  0  0  0
  161.8790  208.2650  151.4330 C   0  0  0  0  0  0  0  0  0  0  0  0
  162.4130  211.8830  148.5430 C   0  0  0  0  0  0  0  0  0  0  0  0
  159.0110  212.8640  145.6250 C   0  0  0  0  0  2  0  0  0  0  0  0
  163.1520  211.5440  149.8100 C   0  0  0  0  0  2  0  0  0  0  0  0
  162.4370  209.2600  150.4550 C   0  0  1  0  0  3  0  0  0  0  0  0
  161.2070  213.4600  146.1990 C   0  0  0  0  0  0  0  0  0  0  0  0
  161.4050  210.9430  147.9470 C   0  0  0  0  0  0  0  0  0  0  0  0
  159.5910  213.9780  144.8010 C   0  0  0  0  0  3  0  0  0  0  0  0
  162.7830  213.0050  147.9950 N   0  0  0  0  0  0  0  0  0  0  0  0
  162.3200  213.6520  146.8330 N   0  0  0  0  0  0  0  0  0  0  0  0
  162.4140  208.8600  148.9770 C   0  0  0  0  0  2  0  0  0  0  0  0
  160.8020  214.2970  145.1320 N   0  0  0  0  0  0  0  0  0  0  0  0
  160.2420  211.4040  147.1920 C   0  0  0  0  0  3  0  0  0  0  0  0
  160.1530  212.5320  146.5140 C   0  0  0  0  0  0  0  0  0  0  0  0
  161.4030  209.6230  148.1790 C   0  0  0  0  0  3  0  0  0  0  0  0
  162.3190  210.7390  150.7940 C   0  0  0  0  0  2  0  0  0  0  0  0
  160.9090  209.9480  153.1260 C   0  0  0  0  0  0  0  0  0  0  0  0
  159.6910  210.5990  152.7670 N   0  0  0  0  0  2  0  0  0  0  0  0
  161.7100  210.5240  153.9120 O   0  0  0  0  0  0  0  0  0  0  0  0
  159.2840  211.8860  153.3170 C   0  0  0  0  0  2  0  0  0  0  0  0
  158.5610  210.8490  155.4800 C   0  0  0  0  0  1  0  0  0  0  0  0
  158.1290  211.7260  154.3100 C   0  0  1  0  0  3  0  0  0  0  0  0
  156.1680  214.3060  152.8890 C   0  0  0  0  0  2  0  0  0  0  0  0
  155.5310  212.3750  155.8150 O   0  0  0  0  0  0  0  0  0  0  0  0
  155.2500  213.8680  154.0130 C   0  0  0  0  0  2  0  0  0  0  0  0
  156.0630  213.0420  154.9410 C   0  0  0  0  0  0  0  0  0  0  0  0
  157.8850  214.3600  153.4990 S   0  0  0  0  0  0  0  0  0  0  0  0
  157.5550  213.0870  154.7690 C   0  0  2  0  0  0  0  0  0  0  0  0
  159.2510  214.4530  155.8320 O   0  0  0  0  0  1  0  0  0  0  0  0
  158.2400  213.5190  156.0710 C   0  0  0  0  0  2  0  0  0  0  0  0
  161.8830  204.5140  151.5820 N   0  0  0  0  0  2  0  0  0  0  0  0
  160.8590  203.4920  151.7460 C   0  0  0  0  0  2  0  0  0  0  0  0
  161.2300  202.2500  150.9570 C   0  0  0  0  0  2  0  0  0  0  0  0
  160.4220  202.1830  149.6760 C   0  0  0  0  0  2  0  0  0  0  0  0
  161.2740  202.5310  148.5490 N   0  0  0  0  0  2  0  0  0  0  0  0
  162.4110  205.5740  146.5140 C   0  0  0  0  0  2  0  0  0  0  0  0
  162.2230  204.0910  146.8160 C   0  0  0  0  0  2  0  0  0  0  0  0
  161.3310  203.8500  148.0050 C   0  0  0  0  0  0  0  0  0  0  0  0
  160.5400  206.1700  147.9980 C   0  0  0  0  0  2  0  0  0  0  0  0
  161.0680  206.2810  146.5740 C   0  0  0  0  0  2  0  0  0  0  0  0
  160.5390  204.7810  148.4630 N   0  0  0  0  0  0  0  0  0  0  0  0
  1  6  2  0  0  0  0
  1  2  1  0  0  0  0
  2  5  2  0  0  0  0
  4 22  1  0  0  0  0
  4  3  2  0  0  0  0
  5  3  1  0  0  0  0
  6  4  1  0  0  0  0
  7  9  1  0  0  0  0
  8 19  1  0  0  0  0
  9 21  1  0  0  0  0
 10 21  1  0  0  0  0
 10  6  1  1  0  0  0
 11 19  1  0  0  0  0
 11 15  2  0  0  0  0
 12 20  2  0  0  0  0
 12  7  1  0  0  0  0
 13 17  2  0  0  0  0
 13  8  1  0  0  0  0
 14  7  2  0  0  0  0
 15 14  1  0  0  0  0
 16 10  1  0  0  0  0
 17 11  1  0  0  0  0
 18 12  1  0  0  0  0
 19 18  2  0  0  0  0
 20 16  1  0  0  0  0
 22 24  2  0  0  0  0
 23 22  1  0  0  0  0
 23 25  1  0  0  0  0
 25 27  1  0  0  0  0
 27 33  1  0  0  0  0
 27 26  1  1  0  0  0
 28 32  1  0  0  0  0
 28 30  1  0  0  0  0
 30 31  1  0  0  0  0
 31 29  2  0  0  0  0
 32 33  1  0  0  0  0
 33 31  1  0  0  0  0
 33 35  1  1  0  0  0
 34 35  1  0  0  0  0
 36 37  1  0  0  0  0
 36  2  1  0  0  0  0
 38 37  1  0  0  0  0
 39 38  1  0  0  0  0
 40 39  1  0  0  0  0
 41 45  1  0  0  0  0
 41 42  1  0  0  0  0
 42 43  1  0  0  0  0
 43 46  2  0  0  0  0
 43 40  1  0  0  0  0
 44 46  1  0  0  0  0
 45 44  1  0  0  0  0
M  END
>  <MODEL>
5

>  <REMARK>
 VINA RESULT:      -5.9      1.756      2.354
  Name = 
  11 active torsions:
  status: ('A' for Active; 'I' for Inactive)
    1  A    between atoms: N_1  and  C_36
    2  A    between atoms: C_3  and  C_40
    3  A    between atoms: C_7  and  N_18
    4  A    between atoms: C_7  and  C_37
    5  A    between atoms: C_9  and  C_44
    6  A    between atoms: N_13  and  C_30
    7  A    between atoms: C_14  and  N_18
    8  A    between atoms: C_16  and  C_30
    9  A    between atoms: C_16  and  C_46
   10  A    between atoms: C_36  and  C_37
   11  A    between atoms: C_38  and  C_46
                            x       y       z     vdW  Elec       q    Type
                         _______ _______ _______ _____ _____    ______ ____

>  <TORSDO>
F 11

$$$$
=
 OpenBabel11042420563D

 46 51  0  0  1  0  0  0  0  0999 V2000
  159.8170  213.0840  151.8830 C   0  0  0  0  0  3  0  0  0  0  0  0
  159.9960  212.4420  153.1130 C   0  0  0  0  0  0  0  0  0  0  0  0
  161.2810  210.7250  152.0040 C   0  0  0  0  0  3  0  0  0  0  0  0
  161.1260  211.3620  150.7610 C   0  0  0  0  0  0  0  0  0  0  0  0
  160.7260  211.2590  153.1670 C   0  0  0  0  0  3  0  0  0  0  0  0
  160.3670  212.5660  150.7030 C   0  0  0  0  0  0  0  0  0  0  0  0
  159.7710  213.8660  146.2660 C   0  0  0  0  0  0  0  0  0  0  0  0
  163.0800  212.8830  143.2430 C   0  0  0  0  0  2  0  0  0  0  0  0
  158.7600  213.7190  147.3720 C   0  0  0  0  0  2  0  0  0  0  0  0
  160.0440  213.3440  149.4580 C   0  0  1  0  0  3  0  0  0  0  0  0
  161.0430  214.0260  143.4740 C   0  0  0  0  0  0  0  0  0  0  0  0
  161.2420  213.7090  146.5220 C   0  0  0  0  0  0  0  0  0  0  0  0
  162.5940  213.5540  141.9890 C   0  0  0  0  0  3  0  0  0  0  0  0
  159.2590  214.2070  145.1190 N   0  0  0  0  0  0  0  0  0  0  0  0
  159.8740  214.4200  143.8690 N   0  0  0  0  0  0  0  0  0  0  0  0
  161.1050  214.3370  148.9730 C   0  0  0  0  0  2  0  0  0  0  0  0
  161.4680  214.1770  142.1330 N   0  0  0  0  0  0  0  0  0  0  0  0
  162.1710  213.1940  145.5190 C   0  0  0  0  0  3  0  0  0  0  0  0
  162.0210  213.2700  144.2100 C   0  0  0  0  0  0  0  0  0  0  0  0
  161.8020  213.8870  147.7270 C   0  0  0  0  0  3  0  0  0  0  0  0
  159.1550  212.6840  148.4140 C   0  0  0  0  0  2  0  0  0  0  0  0
  161.7760  210.7120  149.5980 C   0  0  0  0  0  0  0  0  0  0  0  0
  161.6330  209.3130  149.3580 N   0  0  0  0  0  2  0  0  0  0  0  0
  162.4110  211.4200  148.7690 O   0  0  0  0  0  0  0  0  0  0  0  0
  162.1340  208.6550  148.1580 C   0  0  0  0  0  2  0  0  0  0  0  0
  162.5920  206.9560  149.9410 C   0  0  0  0  0  1  0  0  0  0  0  0
  162.5050  207.1960  148.4370 C   0  0  1  0  0  3  0  0  0  0  0  0
  162.4050  203.7100  147.8380 C   0  0  0  0  0  2  0  0  0  0  0  0
  160.0030  205.7580  149.4910 O   0  0  0  0  0  0  0  0  0  0  0  0
  161.1490  203.8690  148.6730 C   0  0  0  0  0  2  0  0  0  0  0  0
  160.8320  205.3180  148.7090 C   0  0  0  0  0  0  0  0  0  0  0  0
  162.5150  205.0870  146.6470 S   0  0  0  0  0  0  0  0  0  0  0  0
  161.5530  206.2020  147.7310 C   0  0  2  0  0  0  0  0  0  0  0  0
  160.3200  206.3220  145.6490 O   0  0  0  0  0  1  0  0  0  0  0  0
  160.5570  206.9770  146.8610 C   0  0  0  0  0  2  0  0  0  0  0  0
  159.4370  212.9770  154.3160 N   0  0  0  0  0  2  0  0  0  0  0  0
  158.0040  213.0210  154.5640 C   0  0  0  0  0  2  0  0  0  0  0  0
  157.4100  211.6290  154.4460 C   0  0  0  0  0  2  0  0  0  0  0  0
  157.3230  210.9800  155.8140 C   0  0  0  0  0  2  0  0  0  0  0  0
  158.5700  211.1970  156.5310 N   0  0  0  0  0  2  0  0  0  0  0  0
  162.0950  209.7290  156.8720 C   0  0  0  0  0  2  0  0  0  0  0  0
  160.9040  210.6000  157.2600 C   0  0  0  0  0  2  0  0  0  0  0  0
  159.6730  210.2940  156.4490 C   0  0  0  0  0  0  0  0  0  0  0  0
  160.6360  208.2050  155.6040 C   0  0  0  0  0  2  0  0  0  0  0  0
  161.6480  208.2830  156.7390 C   0  0  0  0  0  2  0  0  0  0  0  0
  159.5580  209.1810  155.7760 N   0  0  0  0  0  0  0  0  0  0  0  0
  1  2  1  0  0  0  0
  2  5  2  0  0  0  0
  2 36  1  0  0  0  0
  3  5  1  0  0  0  0
  4  3  2  0  0  0  0
  6  4  1  0  0  0  0
  6  1  2  0  0  0  0
  7 12  1  0  0  0  0
  7  9  1  0  0  0  0
  8 19  1  0  0  0  0
  9 21  1  0  0  0  0
 10  6  1  6  0  0  0
 11 15  2  0  0  0  0
 11 19  1  0  0  0  0
 12 20  2  0  0  0  0
 13 17  2  0  0  0  0
 13  8  1  0  0  0  0
 14  7  2  0  0  0  0
 15 14  1  0  0  0  0
 16 10  1  0  0  0  0
 17 11  1  0  0  0  0
 18 12  1  0  0  0  0
 19 18  2  0  0  0  0
 20 16  1  0  0  0  0
 21 10  1  0  0  0  0
 22  4  1  0  0  0  0
 23 22  1  0  0  0  0
 24 22  2  0  0  0  0
 25 27  1  0  0  0  0
 25 23  1  0  0  0  0
 27 26  1  1  0  0  0
 28 30  1  0  0  0  0
 30 31  1  0  0  0  0
 31 29  2  0  0  0  0
 32 33  1  0  0  0  0
 32 28  1  0  0  0  0
 33 35  1  6  0  0  0
 33 27  1  0  0  0  0
 33 31  1  0  0  0  0
 34 35  1  0  0  0  0
 36 37  1  0  0  0  0
 38 37  1  0  0  0  0
 38 39  1  0  0  0  0
 39 40  1  0  0  0  0
 41 42  1  0  0  0  0
 43 40  1  0  0  0  0
 43 42  1  0  0  0  0
 44 46  1  0  0  0  0
 44 45  1  0  0  0  0
 45 41  1  0  0  0  0
 46 43  2  0  0  0  0
M  END
>  <MODEL>
6

>  <REMARK>
 VINA RESULT:      -4.7      3.831      8.688
  Name = 
  11 active torsions:
  status: ('A' for Active; 'I' for Inactive)
    1  A    between atoms: N_1  and  C_36
    2  A    between atoms: C_3  and  C_40
    3  A    between atoms: C_7  and  N_18
    4  A    between atoms: C_7  and  C_37
    5  A    between atoms: C_9  and  C_44
    6  A    between atoms: N_13  and  C_30
    7  A    between atoms: C_14  and  N_18
    8  A    between atoms: C_16  and  C_30
    9  A    between atoms: C_16  and  C_46
   10  A    between atoms: C_36  and  C_37
   11  A    between atoms: C_38  and  C_46
                            x       y       z     vdW  Elec       q    Type
                         _______ _______ _______ _____ _____    ______ ____

>  <TORSDO>
F 11

$$$$
=
 OpenBabel11042420563D

 46 51  0  0  1  0  0  0  0  0999 V2000
  160.0330  212.8350  151.3770 C   0  0  0  0  0  3  0  0  0  0  0  0
  159.2470  212.6400  152.5170 C   0  0  0  0  0  0  0  0  0  0  0  0
  160.0090  210.3520  152.6240 C   0  0  0  0  0  3  0  0  0  0  0  0
  160.8170  210.5300  151.4880 C   0  0  0  0  0  0  0  0  0  0  0  0
  159.2360  211.3940  153.1350 C   0  0  0  0  0  3  0  0  0  0  0  0
  160.8180  211.8030  150.8470 C   0  0  0  0  0  0  0  0  0  0  0  0
  162.0200  213.5460  146.6940 C   0  0  0  0  0  0  0  0  0  0  0  0
  158.9600  213.3580  143.2810 C   0  0  0  0  0  2  0  0  0  0  0  0
  162.6320  213.7770  148.0500 C   0  0  0  0  0  2  0  0  0  0  0  0
  161.5660  212.1550  149.5920 C   0  0  1  0  0  3  0  0  0  0  0  0
  161.1830  213.9340  143.7640 C   0  0  0  0  0  0  0  0  0  0  0  0
  160.9240  212.5410  146.4880 C   0  0  0  0  0  0  0  0  0  0  0  0
  159.7370  213.8840  142.1080 C   0  0  0  0  0  3  0  0  0  0  0  0
  162.5760  214.2310  145.7360 N   0  0  0  0  0  0  0  0  0  0  0  0
  162.2750  214.2930  144.3610 N   0  0  0  0  0  0  0  0  0  0  0  0
  161.5680  211.1070  148.4750 C   0  0  0  0  0  2  0  0  0  0  0  0
  160.9610  214.2000  142.3920 N   0  0  0  0  0  0  0  0  0  0  0  0
  159.8820  212.7010  145.4770 C   0  0  0  0  0  3  0  0  0  0  0  0
  159.9930  213.3760  144.3480 C   0  0  0  0  0  0  0  0  0  0  0  0
  160.7220  211.4970  147.3030 C   0  0  0  0  0  3  0  0  0  0  0  0
  161.6390  213.6220  149.1910 C   0  0  0  0  0  2  0  0  0  0  0  0
  161.6090  209.3580  151.0470 C   0  0  0  0  0  0  0  0  0  0  0  0
  160.9760  208.1980  150.5080 N   0  0  0  0  0  2  0  0  0  0  0  0
  162.8700  209.4120  151.0870 O   0  0  0  0  0  0  0  0  0  0  0  0
  161.7150  207.0810  149.9340 C   0  0  0  0  0  2  0  0  0  0  0  0
  163.0970  207.7370  147.9500 C   0  0  0  0  0  1  0  0  0  0  0  0
  161.7570  207.1680  148.4070 C   0  0  1  0  0  3  0  0  0  0  0  0
  160.8390  206.0640  145.1730 C   0  0  0  0  0  2  0  0  0  0  0  0
  163.6170  205.0610  147.1660 O   0  0  0  0  0  0  0  0  0  0  0  0
  162.1530  205.3260  145.3390 C   0  0  0  0  0  2  0  0  0  0  0  0
  162.5030  205.3800  146.7810 C   0  0  0  0  0  0  0  0  0  0  0  0
  159.9010  205.9820  146.7340 S   0  0  0  0  0  0  0  0  0  0  0  0
  161.4240  205.8180  147.7300 C   0  0  2  0  0  0  0  0  0  0  0  0
  160.9770  203.4910  148.2400 O   0  0  0  0  0  1  0  0  0  0  0  0
  161.1820  204.7530  148.8060 C   0  0  0  0  0  2  0  0  0  0  0  0
  158.4500  213.6980  153.0570 N   0  0  0  0  0  2  0  0  0  0  0  0
  158.6030  214.1770  154.4230 C   0  0  0  0  0  2  0  0  0  0  0  0
  157.6260  213.4640  155.3390 C   0  0  0  0  0  2  0  0  0  0  0  0
  158.3420  212.9590  156.5770 C   0  0  0  0  0  2  0  0  0  0  0  0
  158.5740  211.5290  156.4500 N   0  0  0  0  0  2  0  0  0  0  0  0
  161.2990  208.8970  157.0400 C   0  0  0  0  0  2  0  0  0  0  0  0
  159.9850  209.4440  156.4910 C   0  0  0  0  0  2  0  0  0  0  0  0
  159.8490  210.9310  156.6850 C   0  0  0  0  0  0  0  0  0  0  0  0
  162.2260  211.1690  157.2340 C   0  0  0  0  0  2  0  0  0  0  0  0
  162.4440  209.7970  156.6110 C   0  0  0  0  0  2  0  0  0  0  0  0
  160.8840  211.6820  156.9470 N   0  0  0  0  0  0  0  0  0  0  0  0
  1  2  1  0  0  0  0
  2 36  1  0  0  0  0
  2  5  2  0  0  0  0
  3  5  1  0  0  0  0
  4  3  2  0  0  0  0
  6  1  2  0  0  0  0
  6  4  1  0  0  0  0
  7  9  1  0  0  0  0
  8 19  1  0  0  0  0
  9 21  1  0  0  0  0
 10  6  1  6  0  0  0
 11 19  1  0  0  0  0
 11 15  2  0  0  0  0
 12  7  1  0  0  0  0
 12 20  2  0  0  0  0
 13 17  2  0  0  0  0
 13  8  1  0  0  0  0
 14  7  2  0  0  0  0
 15 14  1  0  0  0  0
 16 10  1  0  0  0  0
 17 11  1  0  0  0  0
 18 12  1  0  0  0  0
 19 18  2  0  0  0  0
 20 16  1  0  0  0  0
 21 10  1  0  0  0  0
 22 24  2  0  0  0  0
 22  4  1  0  0  0  0
 23 22  1  0  0  0  0
 25 23  1  0  0  0  0
 27 26  1  1  0  0  0
 27 25  1  0  0  0  0
 28 30  1  0  0  0  0
 28 32  1  0  0  0  0
 30 31  1  0  0  0  0
 31 29  2  0  0  0  0
 31 33  1  0  0  0  0
 32 33  1  0  0  0  0
 33 27  1  0  0  0  0
 33 35  1  1  0  0  0
 34 35  1  0  0  0  0
 36 37  1  0  0  0  0
 37 38  1  0  0  0  0
 38 39  1  0  0  0  0
 40 39  1  0  0  0  0
 40 43  1  0  0  0  0
 42 43  1  0  0  0  0
 42 41  1  0  0  0  0
 43 46  2  0  0  0  0
 45 41  1  0  0  0  0
 45 44  1  0  0  0  0
 46 44  1  0  0  0  0
M  END
>  <MODEL>
7

>  <REMARK>
 VINA RESULT:      -4.3      3.488      8.856
  Name = 
  11 active torsions:
  status: ('A' for Active; 'I' for Inactive)
    1  A    between atoms: N_1  and  C_36
    2  A    between atoms: C_3  and  C_40
    3  A    between atoms: C_7  and  N_18
    4  A    between atoms: C_7  and  C_37
    5  A    between atoms: C_9  and  C_44
    6  A    between atoms: N_13  and  C_30
    7  A    between atoms: C_14  and  N_18
    8  A    between atoms: C_16  and  C_30
    9  A    between atoms: C_16  and  C_46
   10  A    between atoms: C_36  and  C_37
   11  A    between atoms: C_38  and  C_46
                            x       y       z     vdW  Elec       q    Type
                         _______ _______ _______ _____ _____    ______ ____

>  <TORSDO>
F 11

$$$$
=
 OpenBabel11042420563D

 46 51  0  0  1  0  0  0  0  0999 V2000
  161.0070  210.5320  152.0220 C   0  0  0  0  0  3  0  0  0  0  0  0
  160.3970  210.0760  153.1950 C   0  0  0  0  0  0  0  0  0  0  0  0
  160.9610  207.8100  152.5790 C   0  0  0  0  0  3  0  0  0  0  0  0
  161.5910  208.2480  151.4030 C   0  0  0  0  0  0  0  0  0  0  0  0
  160.3730  208.7110  153.4670 C   0  0  0  0  0  3  0  0  0  0  0  0
  161.6040  209.6440  151.1170 C   0  0  0  0  0  0  0  0  0  0  0  0
  162.2770  212.3640  147.3910 C   0  0  0  0  0  0  0  0  0  0  0  0
  158.7170  213.1750  144.6120 C   0  0  0  0  0  2  0  0  0  0  0  0
  163.1080  212.2130  148.6370 C   0  0  0  0  0  2  0  0  0  0  0  0
  162.1720  210.2840  149.8820 C   0  0  1  0  0  3  0  0  0  0  0  0
  161.0270  213.5290  144.8390 C   0  0  0  0  0  0  0  0  0  0  0  0
  161.0880  211.4860  147.1300 C   0  0  0  0  0  0  0  0  0  0  0  0
  159.3410  213.9610  143.4940 C   0  0  0  0  0  3  0  0  0  0  0  0
  162.7280  213.2550  146.5560 N   0  0  0  0  0  0  0  0  0  0  0  0
  162.2230  213.6820  145.3120 N   0  0  0  0  0  0  0  0  0  0  0  0
  161.9200  209.5630  148.5550 C   0  0  0  0  0  2  0  0  0  0  0  0
  160.6150  214.1500  143.6360 N   0  0  0  0  0  0  0  0  0  0  0  0
  159.9170  211.9390  146.3830 C   0  0  0  0  0  3  0  0  0  0  0  0
  159.9020  212.8800  145.4580 C   0  0  0  0  0  0  0  0  0  0  0  0
  160.9340  210.2730  147.6800 C   0  0  0  0  0  3  0  0  0  0  0  0
  162.2960  211.8010  149.8550 C   0  0  0  0  0  2  0  0  0  0  0  0
  162.1970  207.2020  150.5450 C   0  0  0  0  0  0  0  0  0  0  0  0
  161.3910  206.3880  149.6930 N   0  0  0  0  0  2  0  0  0  0  0  0
  163.4520  207.0730  150.5200 O   0  0  0  0  0  0  0  0  0  0  0  0
  161.9500  205.4450  148.7330 C   0  0  0  0  0  2  0  0  0  0  0  0
  160.5100  206.5300  146.9940 C   0  0  0  0  0  1  0  0  0  0  0  0
  160.9860  205.2000  147.5690 C   0  0  1  0  0  3  0  0  0  0  0  0
  160.1730  202.0790  146.1120 C   0  0  0  0  0  2  0  0  0  0  0  0
  160.6540  205.2280  144.5150 O   0  0  0  0  0  0  0  0  0  0  0  0
  160.0960  202.9690  144.8870 C   0  0  0  0  0  2  0  0  0  0  0  0
  160.7640  204.2480  145.2360 C   0  0  0  0  0  0  0  0  0  0  0  0
  161.6270  202.5490  147.1080 S   0  0  0  0  0  0  0  0  0  0  0  0
  161.5890  204.2690  146.4910 C   0  0  2  0  0  0  0  0  0  0  0  0
  163.5560  203.9990  145.1010 O   0  0  0  0  0  1  0  0  0  0  0  0
  163.0280  204.7020  146.1870 C   0  0  0  0  0  2  0  0  0  0  0  0
  159.7930  210.9850  154.1180 N   0  0  0  0  0  2  0  0  0  0  0  0
  158.3700  211.2890  154.1040 C   0  0  0  0  0  2  0  0  0  0  0  0
  158.1340  212.7130  154.5730 C   0  0  0  0  0  2  0  0  0  0  0  0
  157.5130  213.5340  153.4590 C   0  0  0  0  0  2  0  0  0  0  0  0
  158.4210  213.5710  152.3240 N   0  0  0  0  0  2  0  0  0  0  0  0
  158.4330  214.2560  148.5520 C   0  0  0  0  0  2  0  0  0  0  0  0
  158.9950  213.7580  149.8800 C   0  0  0  0  0  2  0  0  0  0  0  0
  157.9700  213.7700  150.9840 C   0  0  0  0  0  0  0  0  0  0  0  0
  156.1280  214.0760  149.3960 C   0  0  0  0  0  2  0  0  0  0  0  0
  157.0790  213.6170  148.2990 C   0  0  0  0  0  2  0  0  0  0  0  0
  156.6930  213.8420  150.7280 N   0  0  0  0  0  0  0  0  0  0  0  0
  1  2  1  0  0  0  0
  2  5  2  0  0  0  0
  2 36  1  0  0  0  0
  3  5  1  0  0  0  0
  4  3  2  0  0  0  0
  6  4  1  0  0  0  0
  6  1  2  0  0  0  0
  7  9  1  0  0  0  0
  8 19  1  0  0  0  0
  9 21  1  0  0  0  0
 10  6  1  1  0  0  0
 11 15  2  0  0  0  0
 11 19  1  0  0  0  0
 12  7  1  0  0  0  0
 12 20  2  0  0  0  0
 13 17  2  0  0  0  0
 13  8  1  0  0  0  0
 14  7  2  0  0  0  0
 15 14  1  0  0  0  0
 16 10  1  0  0  0  0
 17 11  1  0  0  0  0
 18 12  1  0  0  0  0
 19 18  2  0  0  0  0
 20 16  1  0  0  0  0
 21 10  1  0  0  0  0
 22  4  1  0  0  0  0
 23 22  1  0  0  0  0
 24 22  2  0  0  0  0
 25 23  1  0  0  0  0
 27 26  1  6  0  0  0
 27 25  1  0  0  0  0
 28 32  1  0  0  0  0
 29 31  2  0  0  0  0
 30 31  1  0  0  0  0
 30 28  1  0  0  0  0
 31 33  1  0  0  0  0
 33 35  1  6  0  0  0
 33 32  1  0  0  0  0
 33 27  1  0  0  0  0
 34 35  1  0  0  0  0
 37 36  1  0  0  0  0
 37 38  1  0  0  0  0
 39 38  1  0  0  0  0
 40 39  1  0  0  0  0
 41 42  1  0  0  0  0
 42 43  1  0  0  0  0
 43 40  1  0  0  0  0
 44 46  1  0  0  0  0
 45 41  1  0  0  0  0
 45 44  1  0  0  0  0
 46 43  2  0  0  0  0
M  END
>  <MODEL>
8

>  <REMARK>
 VINA RESULT:      -4.3      3.942      8.759
  Name = 
  11 active torsions:
  status: ('A' for Active; 'I' for Inactive)
    1  A    between atoms: N_1  and  C_36
    2  A    between atoms: C_3  and  C_40
    3  A    between atoms: C_7  and  N_18
    4  A    between atoms: C_7  and  C_37
    5  A    between atoms: C_9  and  C_44
    6  A    between atoms: N_13  and  C_30
    7  A    between atoms: C_14  and  N_18
    8  A    between atoms: C_16  and  C_30
    9  A    between atoms: C_16  and  C_46
   10  A    between atoms: C_36  and  C_37
   11  A    between atoms: C_38  and  C_46
                            x       y       z     vdW  Elec       q    Type
                         _______ _______ _______ _____ _____    ______ ____

>  <TORSDO>
F 11

$$$$
