=
 OpenBabel11052411253D

 43 49  0  0  1  0  0  0  0  0999 V2000
  161.5050  213.3790  147.3860 C   0  0  0  0  0  2  0  0  0  0  0  0
  161.4680  207.6820  150.6560 C   0  0  1  0  0  3  0  0  0  0  0  0
  160.9940  210.0090  151.0990 C   0  0  0  0  0  0  0  0  0  0  0  0
  161.5430  209.0730  150.1250 C   0  0  0  0  0  0  0  0  0  0  0  0
  160.8560  210.9680  147.4230 C   0  0  0  0  0  3  0  0  0  0  0  0
  160.6240  212.2140  146.9940 C   0  0  0  0  0  0  0  0  0  0  0  0
  160.8970  207.8170  152.0720 C   0  0  2  0  0  3  0  0  0  0  0  0
  162.7860  212.9830  148.1470 C   0  0  0  0  0  2  0  0  0  0  0  0
  162.0840  210.6470  148.2210 C   0  0  1  0  0  3  0  0  0  0  0  0
  161.5350  212.1820  150.0710 N   0  0  0  0  0  2  0  0  0  0  0  0
  162.5460  211.8050  149.0900 C   0  0  2  0  0  3  0  0  0  0  0  0
  160.9560  211.3430  151.0740 C   0  0  0  0  0  3  0  0  0  0  0  0
  162.0280  209.3240  148.9070 C   0  0  0  0  0  3  0  0  0  0  0  0
  159.5030  212.4560  146.2130 O   0  0  0  0  0  1  0  0  0  0  0  0
  160.4420  209.2690  152.2560 C   0  0  0  0  0  2  0  0  0  0  0  0
  161.9560  207.4500  153.1120 C   0  0  2  0  0  3  0  0  0  0  0  0
  162.4780  206.1780  152.8580 O   0  0  0  0  0  1  0  0  0  0  0  0
  161.4080  207.4990  154.4660 N   0  0  0  0  0  2  0  0  0  0  0  0
  160.1460  208.7340  156.2020 C   0  0  0  0  0  3  0  0  0  0  0  0
  160.6220  211.0670  156.5610 C   0  0  0  0  0  0  0  0  0  0  0  0
  161.8240  209.8680  154.8990 C   0  0  0  0  0  3  0  0  0  0  0  0
  161.5610  211.0170  155.5770 N   0  0  0  0  0  0  0  0  0  0  0  0
  159.8910  209.9230  156.8870 C   0  0  0  0  0  3  0  0  0  0  0  0
  161.1200  208.6980  155.1970 C   0  0  0  0  0  0  0  0  0  0  0  0
  160.3430  212.3510  157.2560 C   0  0  0  0  0  2  0  0  0  0  0  0
  157.4580  212.9330  157.0490 C   0  0  0  0  0  2  0  0  0  0  0  0
  158.5960  213.9160  156.9140 C   0  0  1  0  0  3  0  0  0  0  0  0
  159.7910  213.3110  156.3090 N   0  0  0  0  0  0  0  0  0  0  0  0
  158.4530  212.8380  155.9110 C   0  0  1  0  0  0  0  0  0  0  0  0
  156.7670  212.9330  154.2060 O   0  0  0  0  0  1  0  0  0  0  0  0
  159.0030  213.3250  153.5210 C   0  0  0  0  0  1  0  0  0  0  0  0
  157.9730  213.5010  154.6220 C   0  0  2  0  0  3  0  0  0  0  0  0
  160.5530  206.8800  149.8530 N   0  0  0  0  0  2  0  0  0  0  0  0
  161.4270  203.7470  147.9850 C   0  0  0  0  0  0  0  0  0  0  0  0
  160.5530  204.5380  150.5340 C   0  0  0  0  0  3  0  0  0  0  0  0
  160.7640  203.1850  150.2570 C   0  0  0  0  0  3  0  0  0  0  0  0
  161.1970  202.7920  148.9890 C   0  0  0  0  0  3  0  0  0  0  0  0
  161.2130  205.0990  148.2760 C   0  0  0  0  0  3  0  0  0  0  0  0
  160.7740  205.5000  149.5470 C   0  0  0  0  0  0  0  0  0  0  0  0
  161.8600  203.4090  146.6910 O   0  0  0  0  0  0  0  0  0  0  0  0
  162.0040  204.2620  145.5830 C   0  0  0  0  0  3  0  0  0  0  0  0
  161.2510  205.5600  143.7340 N   0  0  0  0  0  1  0  0  0  0  0  0
  160.9970  204.6970  144.8350 C   0  0  0  0  0  3  0  0  0  0  0  0
  1  8  1  0  0  0  0
  2 33  1  6  0  0  0
  2  7  1  0  0  0  0
  3 15  1  0  0  0  0
  4  2  1  0  0  0  0
  4  3  1  0  0  0  0
  6  1  1  0  0  0  0
  6  5  2  0  0  0  0
  7 15  1  0  0  0  0
  7 16  1  1  0  0  0
  9  5  1  1  0  0  0
  9 13  1  0  0  0  0
  9 11  1  0  0  0  0
 10 12  1  0  0  0  0
 11  8  1  6  0  0  0
 11 10  1  0  0  0  0
 12  3  2  0  0  0  0
 13  4  2  0  0  0  0
 14  6  1  0  0  0  0
 16 17  1  6  0  0  0
 16 18  1  0  0  0  0
 18 24  1  0  0  0  0
 19 23  1  0  0  0  0
 20 23  2  0  0  0  0
 20 25  1  0  0  0  0
 21 24  1  0  0  0  0
 21 22  2  0  0  0  0
 22 20  1  0  0  0  0
 24 19  2  0  0  0  0
 27 26  1  1  0  0  0
 28 27  1  0  0  0  0
 28 25  1  0  0  0  0
 29 32  1  6  0  0  0
 29 28  1  0  0  0  0
 29 27  1  0  0  0  0
 29 26  1  0  0  0  0
 30 32  1  0  0  0  0
 32 31  1  6  0  0  0
 34 38  2  0  0  0  0
 34 37  1  0  0  0  0
 36 35  1  0  0  0  0
 37 36  2  0  0  0  0
 38 39  1  0  0  0  0
 39 33  1  0  0  0  0
 39 35  2  0  0  0  0
 40 34  1  0  0  0  0
 41 40  1  0  0  0  0
 42 43  1  0  0  0  0
 43 41  2  0  0  0  0
M  END
>  <MODEL>
1

>  <REMARK>
 VINA RESULT:      -6.4      0.000      0.000
  Name = 
  10 active torsions:
  status: ('A' for Active; 'I' for Inactive)
    1  A    between atoms: C_3  and  N_15
    2  A    between atoms: C_3  and  C_21
    3  A    between atoms: C_7  and  O_14
    4  A    between atoms: C_8  and  C_40
    5  A    between atoms: N_9  and  C_12
    6  A    between atoms: N_9  and  C_41
    7  A    between atoms: C_11  and  O_14
    8  A    between atoms: N_15  and  C_36
    9  A    between atoms: C_22  and  C_43
   10  A    between atoms: N_28  and  C_43
                            x       y       z     vdW  Elec       q    Type
                         _______ _______ _______ _____ _____    ______ ____

>  <TORSDO>
F 10

$$$$
=
 OpenBabel11052411253D

 43 49  0  0  1  0  0  0  0  0999 V2000
  157.1180  212.5230  156.2340 C   0  0  0  0  0  2  0  0  0  0  0  0
  160.2790  212.0020  150.4980 C   0  0  1  0  0  3  0  0  0  0  0  0
  159.3620  213.7510  151.8900 C   0  0  0  0  0  0  0  0  0  0  0  0
  159.4490  212.3080  151.6980 C   0  0  0  0  0  0  0  0  0  0  0  0
  159.0050  211.5150  154.9440 C   0  0  0  0  0  3  0  0  0  0  0  0
  158.5070  211.9370  156.1120 C   0  0  0  0  0  0  0  0  0  0  0  0
  160.6520  213.3640  149.9030 C   0  0  2  0  0  3  0  0  0  0  0  0
  156.2650  212.4120  154.9540 C   0  0  0  0  0  2  0  0  0  0  0  0
  158.1530  211.4920  153.7100 C   0  0  1  0  0  3  0  0  0  0  0  0
  157.7160  213.9200  153.7160 N   0  0  0  0  0  2  0  0  0  0  0  0
  157.1060  212.5950  153.6910 C   0  0  2  0  0  3  0  0  0  0  0  0
  158.6470  214.4530  152.7720 C   0  0  0  0  0  3  0  0  0  0  0  0
  158.9280  211.3330  152.4460 C   0  0  0  0  0  3  0  0  0  0  0  0
  159.3140  211.8920  157.2400 O   0  0  0  0  0  1  0  0  0  0  0  0
  160.2130  214.4450  150.8970 C   0  0  0  0  0  2  0  0  0  0  0  0
  159.9610  213.5640  148.5530 C   0  0  2  0  0  3  0  0  0  0  0  0
  158.5780  213.6710  148.7180 O   0  0  0  0  0  1  0  0  0  0  0  0
  160.2680  212.4690  147.6340 N   0  0  0  0  0  2  0  0  0  0  0  0
  162.0630  213.1980  146.0930 C   0  0  0  0  0  3  0  0  0  0  0  0
  161.7670  212.8960  143.7220 C   0  0  0  0  0  0  0  0  0  0  0  0
  160.0530  212.2030  145.2150 C   0  0  0  0  0  3  0  0  0  0  0  0
  160.5430  212.3480  143.9540 N   0  0  0  0  0  0  0  0  0  0  0  0
  162.5490  213.3370  144.7920 C   0  0  0  0  0  3  0  0  0  0  0  0
  160.8040  212.6250  146.3140 C   0  0  0  0  0  0  0  0  0  0  0  0
  162.2520  213.0670  142.3270 C   0  0  0  0  0  2  0  0  0  0  0  0
  162.6980  211.0000  140.2700 C   0  0  0  0  0  2  0  0  0  0  0  0
  161.4440  211.2200  141.0810 C   0  0  1  0  0  3  0  0  0  0  0  0
  161.2190  212.6380  141.3930 N   0  0  0  0  0  0  0  0  0  0  0  0
  161.8770  212.2650  140.1290 C   0  0  1  0  0  0  0  0  0  0  0  0
  161.4430  212.8640  137.8460 O   0  0  0  0  0  1  0  0  0  0  0  0
  159.6000  212.9280  139.3370 C   0  0  0  0  0  1  0  0  0  0  0  0
  160.8930  212.2280  138.9620 C   0  0  2  0  0  3  0  0  0  0  0  0
  161.5000  211.3090  150.8900 N   0  0  0  0  0  2  0  0  0  0  0  0
  162.1700  207.9780  149.3000 C   0  0  0  0  0  0  0  0  0  0  0  0
  161.6160  209.0620  151.8310 C   0  0  0  0  0  3  0  0  0  0  0  0
  161.8080  207.6860  151.6880 C   0  0  0  0  0  3  0  0  0  0  0  0
  162.0820  207.1470  150.4290 C   0  0  0  0  0  3  0  0  0  0  0  0
  161.9780  209.3550  149.4570 C   0  0  0  0  0  3  0  0  0  0  0  0
  161.6980  209.9020  150.7190 C   0  0  0  0  0  0  0  0  0  0  0  0
  162.4400  207.4910  148.0100 O   0  0  0  0  0  0  0  0  0  0  0  0
  162.0050  206.2820  147.4390 C   0  0  0  0  0  3  0  0  0  0  0  0
  161.9910  204.5240  145.8330 N   0  0  0  0  0  1  0  0  0  0  0  0
  162.5020  205.7560  146.3270 C   0  0  0  0  0  3  0  0  0  0  0  0
  2 33  1  1  0  0  0
  2  4  1  0  0  0  0
  3 12  2  0  0  0  0
  4  3  1  0  0  0  0
  4 13  2  0  0  0  0
  5  6  2  0  0  0  0
  6  1  1  0  0  0  0
  6 14  1  0  0  0  0
  7 16  1  6  0  0  0
  7  2  1  0  0  0  0
  7 15  1  0  0  0  0
  8  1  1  0  0  0  0
  9 13  1  6  0  0  0
  9  5  1  0  0  0  0
 11  9  1  0  0  0  0
 11 10  1  0  0  0  0
 11  8  1  1  0  0  0
 12 10  1  0  0  0  0
 15  3  1  0  0  0  0
 16 17  1  1  0  0  0
 18 16  1  0  0  0  0
 19 24  1  0  0  0  0
 20 22  2  0  0  0  0
 20 23  1  0  0  0  0
 21 24  2  0  0  0  0
 22 21  1  0  0  0  0
 23 19  2  0  0  0  0
 24 18  1  0  0  0  0
 25 20  1  0  0  0  0
 27 26  1  1  0  0  0
 27 28  1  0  0  0  0
 28 25  1  0  0  0  0
 29 32  1  6  0  0  0
 29 26  1  0  0  0  0
 29 27  1  0  0  0  0
 29 28  1  0  0  0  0
 30 32  1  0  0  0  0
 32 31  1  1  0  0  0
 34 38  2  0  0  0  0
 34 37  1  0  0  0  0
 36 35  1  0  0  0  0
 37 36  2  0  0  0  0
 38 39  1  0  0  0  0
 39 33  1  0  0  0  0
 39 35  2  0  0  0  0
 40 34  1  0  0  0  0
 41 40  1  0  0  0  0
 42 43  1  0  0  0  0
 43 41  2  0  0  0  0
M  END
>  <MODEL>
2

>  <REMARK>
 VINA RESULT:      -6.3      3.775      9.640
  Name = 
  10 active torsions:
  status: ('A' for Active; 'I' for Inactive)
    1  A    between atoms: C_3  and  N_15
    2  A    between atoms: C_3  and  C_21
    3  A    between atoms: C_7  and  O_14
    4  A    between atoms: C_8  and  C_40
    5  A    between atoms: N_9  and  C_12
    6  A    between atoms: N_9  and  C_41
    7  A    between atoms: C_11  and  O_14
    8  A    between atoms: N_15  and  C_36
    9  A    between atoms: C_22  and  C_43
   10  A    between atoms: N_28  and  C_43
                            x       y       z     vdW  Elec       q    Type
                         _______ _______ _______ _____ _____    ______ ____

>  <TORSDO>
F 10

$$$$
=
 OpenBabel11052411253D

 43 49  0  0  1  0  0  0  0  0999 V2000
  161.3820  213.8410  147.6990 C   0  0  0  0  0  2  0  0  0  0  0  0
  161.7130  207.6690  149.9240 C   0  0  1  0  0  3  0  0  0  0  0  0
  161.1440  209.8560  150.7770 C   0  0  0  0  0  0  0  0  0  0  0  0
  161.7060  209.1320  149.6420 C   0  0  0  0  0  0  0  0  0  0  0  0
  160.8480  211.4290  147.3290 C   0  0  0  0  0  3  0  0  0  0  0  0
  160.5440  212.7170  147.1300 C   0  0  0  0  0  0  0  0  0  0  0  0
  161.1800  207.5260  151.3530 C   0  0  2  0  0  3  0  0  0  0  0  0
  162.7030  213.3850  148.3500 C   0  0  0  0  0  2  0  0  0  0  0  0
  162.1140  211.0380  148.0300 C   0  0  1  0  0  3  0  0  0  0  0  0
  161.5510  212.2000  150.1330 N   0  0  0  0  0  2  0  0  0  0  0  0
  162.5480  212.0510  149.0780 C   0  0  2  0  0  3  0  0  0  0  0  0
  161.0440  211.1710  150.9860 C   0  0  0  0  0  3  0  0  0  0  0  0
  162.1400  209.6150  148.4760 C   0  0  0  0  0  3  0  0  0  0  0  0
  159.3890  213.0340  146.4290 O   0  0  0  0  0  1  0  0  0  0  0  0
  160.6640  208.8990  151.7990 C   0  0  0  0  0  2  0  0  0  0  0  0
  162.2870  207.0390  152.2900 C   0  0  2  0  0  3  0  0  0  0  0  0
  162.9600  205.9480  151.7320 O   0  0  0  0  0  1  0  0  0  0  0  0
  161.7510  206.6750  153.6000 N   0  0  0  0  0  2  0  0  0  0  0  0
  160.0990  207.2310  155.3590 C   0  0  0  0  0  3  0  0  0  0  0  0
  160.1210  209.4340  156.3320 C   0  0  0  0  0  0  0  0  0  0  0  0
  161.6980  208.8840  154.6430 C   0  0  0  0  0  3  0  0  0  0  0  0
  161.1630  209.7710  155.5250 N   0  0  0  0  0  0  0  0  0  0  0  0
  159.5650  208.1550  156.2580 C   0  0  0  0  0  3  0  0  0  0  0  0
  161.1770  207.5920  154.5400 C   0  0  0  0  0  0  0  0  0  0  0  0
  159.5440  210.4420  157.2600 C   0  0  0  0  0  2  0  0  0  0  0  0
  156.9550  211.7640  156.7550 C   0  0  0  0  0  2  0  0  0  0  0  0
  158.2580  212.4290  157.1280 C   0  0  1  0  0  3  0  0  0  0  0  0
  159.4250  211.7240  156.5780 N   0  0  0  0  0  0  0  0  0  0  0  0
  158.1540  211.7240  155.8310 C   0  0  1  0  0  0  0  0  0  0  0  0
  157.0360  212.6080  153.9010 O   0  0  0  0  0  1  0  0  0  0  0  0
  159.4030  212.7560  153.9260 C   0  0  0  0  0  1  0  0  0  0  0  0
  158.1290  212.8020  154.7490 C   0  0  2  0  0  3  0  0  0  0  0  0
  160.8110  206.9720  149.0140 N   0  0  0  0  0  2  0  0  0  0  0  0
  161.4770  203.7900  147.1430 C   0  0  0  0  0  0  0  0  0  0  0  0
  161.9170  206.5520  146.8820 C   0  0  0  0  0  3  0  0  0  0  0  0
  162.3600  205.6760  145.8870 C   0  0  0  0  0  3  0  0  0  0  0  0
  162.1420  204.3030  146.0170 C   0  0  0  0  0  3  0  0  0  0  0  0
  161.0380  204.6770  148.1320 C   0  0  0  0  0  3  0  0  0  0  0  0
  161.2570  206.0580  148.0080 C   0  0  0  0  0  0  0  0  0  0  0  0
  161.2330  202.4180  147.3290 O   0  0  0  0  0  0  0  0  0  0  0  0
  161.2220  201.7040  148.5390 C   0  0  0  0  0  3  0  0  0  0  0  0
  160.2480  200.8080  150.5190 N   0  0  0  0  0  1  0  0  0  0  0  0
  160.1530  201.5520  149.3110 C   0  0  0  0  0  3  0  0  0  0  0  0
  1  8  1  0  0  0  0
  2 33  1  6  0  0  0
  2  7  1  0  0  0  0
  3 12  2  0  0  0  0
  3 15  1  0  0  0  0
  4  2  1  0  0  0  0
  4  3  1  0  0  0  0
  6  5  2  0  0  0  0
  6  1  1  0  0  0  0
  7 15  1  0  0  0  0
  7 16  1  1  0  0  0
  9  5  1  1  0  0  0
  9 13  1  0  0  0  0
  9 11  1  0  0  0  0
 10 12  1  0  0  0  0
 11  8  1  6  0  0  0
 11 10  1  0  0  0  0
 13  4  2  0  0  0  0
 14  6  1  0  0  0  0
 16 17  1  6  0  0  0
 16 18  1  0  0  0  0
 18 24  1  0  0  0  0
 19 23  1  0  0  0  0
 20 25  1  0  0  0  0
 21 22  2  0  0  0  0
 22 20  1  0  0  0  0
 23 20  2  0  0  0  0
 24 21  1  0  0  0  0
 24 19  2  0  0  0  0
 27 26  1  1  0  0  0
 28 27  1  0  0  0  0
 28 25  1  0  0  0  0
 29 32  1  6  0  0  0
 29 28  1  0  0  0  0
 29 26  1  0  0  0  0
 29 27  1  0  0  0  0
 30 32  1  0  0  0  0
 32 31  1  6  0  0  0
 34 40  1  0  0  0  0
 34 38  1  0  0  0  0
 35 39  1  0  0  0  0
 36 37  1  0  0  0  0
 36 35  2  0  0  0  0
 37 34  2  0  0  0  0
 39 38  2  0  0  0  0
 39 33  1  0  0  0  0
 40 41  1  0  0  0  0
 41 43  2  0  0  0  0
 43 42  1  0  0  0  0
M  END
>  <MODEL>
3

>  <REMARK>
 VINA RESULT:      -6.0      1.351      2.250
  Name = 
  10 active torsions:
  status: ('A' for Active; 'I' for Inactive)
    1  A    between atoms: C_3  and  N_15
    2  A    between atoms: C_3  and  C_21
    3  A    between atoms: C_7  and  O_14
    4  A    between atoms: C_8  and  C_40
    5  A    between atoms: N_9  and  C_12
    6  A    between atoms: N_9  and  C_41
    7  A    between atoms: C_11  and  O_14
    8  A    between atoms: N_15  and  C_36
    9  A    between atoms: C_22  and  C_43
   10  A    between atoms: N_28  and  C_43
                            x       y       z     vdW  Elec       q    Type
                         _______ _______ _______ _____ _____    ______ ____

>  <TORSDO>
F 10

$$$$
=
 OpenBabel11052411253D

 43 49  0  0  1  0  0  0  0  0999 V2000
  155.6810  214.2710  156.9300 C   0  0  0  0  0  2  0  0  0  0  0  0
  159.7020  212.6040  152.0110 C   0  0  1  0  0  3  0  0  0  0  0  0
  158.6380  211.5370  153.8990 C   0  0  0  0  0  0  0  0  0  0  0  0
  158.9110  212.8170  153.2550 C   0  0  0  0  0  0  0  0  0  0  0  0
  156.1980  214.3910  154.4900 C   0  0  0  0  0  3  0  0  0  0  0  0
  155.2920  214.3950  155.4740 C   0  0  0  0  0  0  0  0  0  0  0  0
  159.9720  211.0960  151.9530 C   0  0  2  0  0  3  0  0  0  0  0  0
  157.1990  214.3390  157.1930 C   0  0  0  0  0  2  0  0  0  0  0  0
  157.6650  214.3870  154.7970 C   0  0  1  0  0  3  0  0  0  0  0  0
  157.6120  212.2480  156.0230 N   0  0  0  0  0  2  0  0  0  0  0  0
  157.9990  213.6530  156.0860 C   0  0  2  0  0  3  0  0  0  0  0  0
  158.0540  211.2780  155.0710 C   0  0  0  0  0  3  0  0  0  0  0  0
  158.5250  214.0380  153.6300 C   0  0  0  0  0  3  0  0  0  0  0  0
  153.9440  214.4520  155.1450 O   0  0  0  0  0  1  0  0  0  0  0  0
  159.1420  210.4300  153.0550 C   0  0  0  0  0  2  0  0  0  0  0  0
  161.4620  210.8120  152.1570 C   0  0  2  0  0  3  0  0  0  0  0  0
  162.1000  210.6190  150.9290 O   0  0  0  0  0  1  0  0  0  0  0  0
  161.6660  209.6440  153.0110 N   0  0  0  0  0  2  0  0  0  0  0  0
  160.9120  207.2960  153.2380 C   0  0  0  0  0  3  0  0  0  0  0  0
  161.6630  205.6640  151.6340 C   0  0  0  0  0  0  0  0  0  0  0  0
  162.3770  207.9210  151.4320 C   0  0  0  0  0  3  0  0  0  0  0  0
  162.3750  206.6320  150.9950 N   0  0  0  0  0  0  0  0  0  0  0  0
  160.9210  205.9800  152.7750 C   0  0  0  0  0  3  0  0  0  0  0  0
  161.6450  208.2820  152.5650 C   0  0  0  0  0  0  0  0  0  0  0  0
  161.7130  204.2610  151.1450 C   0  0  0  0  0  2  0  0  0  0  0  0
  160.6190  201.7280  150.0980 C   0  0  0  0  0  2  0  0  0  0  0  0
  160.0050  203.1030  149.9790 C   0  0  1  0  0  3  0  0  0  0  0  0
  161.0180  204.1620  149.8680 N   0  0  0  0  0  0  0  0  0  0  0  0
  161.2930  202.8290  149.3040 C   0  0  1  0  0  0  0  0  0  0  0  0
  161.5940  201.6400  147.2410 O   0  0  0  0  0  1  0  0  0  0  0  0
  161.5370  204.0080  147.1130 C   0  0  0  0  0  1  0  0  0  0  0  0
  160.9990  202.7700  147.8070 C   0  0  2  0  0  3  0  0  0  0  0  0
  158.9220  212.9870  150.8400 N   0  0  0  0  0  2  0  0  0  0  0  0
  159.3660  213.9470  147.2420 C   0  0  0  0  0  0  0  0  0  0  0  0
  160.8110  213.9700  149.6510 C   0  0  0  0  0  3  0  0  0  0  0  0
  161.3990  214.4520  148.4790 C   0  0  0  0  0  3  0  0  0  0  0  0
  160.6810  214.4390  147.2810 C   0  0  0  0  0  3  0  0  0  0  0  0
  158.7880  213.4680  148.4220 C   0  0  0  0  0  3  0  0  0  0  0  0
  159.5050  213.4750  149.6280 C   0  0  0  0  0  0  0  0  0  0  0  0
  158.5980  213.9080  146.0650 O   0  0  0  0  0  0  0  0  0  0  0  0
  158.9930  213.4490  144.7970 C   0  0  0  0  0  3  0  0  0  0  0  0
  159.9970  211.9380  143.2540 N   0  0  0  0  0  1  0  0  0  0  0  0
  159.6430  212.3120  144.5790 C   0  0  0  0  0  3  0  0  0  0  0  0
  1  8  1  0  0  0  0
  2 33  1  6  0  0  0
  2  4  1  0  0  0  0
  3 12  2  0  0  0  0
  4 13  2  0  0  0  0
  4  3  1  0  0  0  0
  5  9  1  0  0  0  0
  5  6  2  0  0  0  0
  6  1  1  0  0  0  0
  7  2  1  0  0  0  0
  7 16  1  1  0  0  0
  7 15  1  0  0  0  0
  9 13  1  6  0  0  0
  9 11  1  0  0  0  0
 10 11  1  0  0  0  0
 11  8  1  1  0  0  0
 12 10  1  0  0  0  0
 14  6  1  0  0  0  0
 15  3  1  0  0  0  0
 16 17  1  6  0  0  0
 16 18  1  0  0  0  0
 20 23  2  0  0  0  0
 21 24  1  0  0  0  0
 22 21  2  0  0  0  0
 22 20  1  0  0  0  0
 23 19  1  0  0  0  0
 24 18  1  0  0  0  0
 24 19  2  0  0  0  0
 25 20  1  0  0  0  0
 27 26  1  1  0  0  0
 28 27  1  0  0  0  0
 28 25  1  0  0  0  0
 29 32  1  6  0  0  0
 29 28  1  0  0  0  0
 29 27  1  0  0  0  0
 29 26  1  0  0  0  0
 30 32  1  0  0  0  0
 32 31  1  6  0  0  0
 34 37  2  0  0  0  0
 34 38  1  0  0  0  0
 36 35  2  0  0  0  0
 37 36  1  0  0  0  0
 38 39  2  0  0  0  0
 39 35  1  0  0  0  0
 39 33  1  0  0  0  0
 40 34  1  0  0  0  0
 41 40  1  0  0  0  0
 42 43  1  0  0  0  0
 43 41  2  0  0  0  0
M  END
>  <MODEL>
4

>  <REMARK>
 VINA RESULT:      -6.0      2.445      8.799
  Name = 
  10 active torsions:
  status: ('A' for Active; 'I' for Inactive)
    1  A    between atoms: C_3  and  N_15
    2  A    between atoms: C_3  and  C_21
    3  A    between atoms: C_7  and  O_14
    4  A    between atoms: C_8  and  C_40
    5  A    between atoms: N_9  and  C_12
    6  A    between atoms: N_9  and  C_41
    7  A    between atoms: C_11  and  O_14
    8  A    between atoms: N_15  and  C_36
    9  A    between atoms: C_22  and  C_43
   10  A    between atoms: N_28  and  C_43
                            x       y       z     vdW  Elec       q    Type
                         _______ _______ _______ _____ _____    ______ ____

>  <TORSDO>
F 10

$$$$
=
 OpenBabel11052411253D

 43 49  0  0  1  0  0  0  0  0999 V2000
  160.9260  201.9380  148.3020 C   0  0  0  0  0  2  0  0  0  0  0  0
  161.2700  207.7030  151.4330 C   0  0  1  0  0  3  0  0  0  0  0  0
  161.8800  205.4020  151.8380 C   0  0  0  0  0  0  0  0  0  0  0  0
  161.1610  206.3000  150.9420 C   0  0  0  0  0  0  0  0  0  0  0  0
  161.4950  204.3680  148.2000 C   0  0  0  0  0  3  0  0  0  0  0  0
  161.7000  203.1210  147.7620 C   0  0  0  0  0  0  0  0  0  0  0  0
  162.0510  207.6160  152.7480 C   0  0  2  0  0  3  0  0  0  0  0  0
  159.7620  202.3130  149.2410 C   0  0  0  0  0  2  0  0  0  0  0  0
  160.3910  204.6700  149.1690 C   0  0  1  0  0  3  0  0  0  0  0  0
  161.2620  203.1920  150.9410 N   0  0  0  0  0  2  0  0  0  0  0  0
  160.1030  203.5180  150.1170 C   0  0  2  0  0  3  0  0  0  0  0  0
  161.9560  204.0690  151.8300 C   0  0  0  0  0  3  0  0  0  0  0  0
  160.5070  206.0090  149.8160 C   0  0  0  0  0  3  0  0  0  0  0  0
  162.6990  202.8940  146.8260 O   0  0  0  0  0  1  0  0  0  0  0  0
  162.5750  206.1830  152.8860 C   0  0  0  0  0  2  0  0  0  0  0  0
  161.1490  207.9750  153.9300 C   0  0  2  0  0  3  0  0  0  0  0  0
  159.8460  208.2330  153.4950 O   0  0  0  0  0  1  0  0  0  0  0  0
  161.6670  209.1300  154.6600 N   0  0  0  0  0  2  0  0  0  0  0  0
  160.0960  209.8320  156.4410 C   0  0  0  0  0  3  0  0  0  0  0  0
  159.3280  212.1130  156.4950 C   0  0  0  0  0  0  0  0  0  0  0  0
  160.8350  211.4240  154.7920 C   0  0  0  0  0  3  0  0  0  0  0  0
  160.0740  212.3810  155.3880 N   0  0  0  0  0  0  0  0  0  0  0  0
  159.3230  210.8270  157.0390 C   0  0  0  0  0  3  0  0  0  0  0  0
  160.8630  210.1250  155.3060 C   0  0  0  0  0  0  0  0  0  0  0  0
  158.4840  213.1790  157.0970 C   0  0  0  0  0  2  0  0  0  0  0  0
  155.6050  213.3110  156.4680 C   0  0  0  0  0  2  0  0  0  0  0  0
  156.5930  214.4530  156.4530 C   0  0  1  0  0  3  0  0  0  0  0  0
  157.9390  214.0250  156.0450 N   0  0  0  0  0  0  0  0  0  0  0  0
  156.7560  213.3470  155.4840 C   0  0  1  0  0  0  0  0  0  0  0  0
  155.1960  213.3040  153.6620 O   0  0  0  0  0  1  0  0  0  0  0  0
  157.4780  213.6390  153.1080 C   0  0  0  0  0  1  0  0  0  0  0  0
  156.3730  213.9040  154.1150 C   0  0  2  0  0  3  0  0  0  0  0  0
  162.0270  208.5150  150.4880 N   0  0  0  0  0  2  0  0  0  0  0  0
  161.8070  211.8350  148.7560 C   0  0  0  0  0  0  0  0  0  0  0  0
  161.1130  210.6570  151.2100 C   0  0  0  0  0  3  0  0  0  0  0  0
  160.8270  212.0040  150.9750 C   0  0  0  0  0  3  0  0  0  0  0  0
  161.1730  212.5900  149.7560 C   0  0  0  0  0  3  0  0  0  0  0  0
  162.0870  210.4860  149.0020 C   0  0  0  0  0  3  0  0  0  0  0  0
  161.7450  209.8930  150.2270 C   0  0  0  0  0  0  0  0  0  0  0  0
  162.1800  212.3720  147.5110 O   0  0  0  0  0  0  0  0  0  0  0  0
  161.3980  213.1540  146.6450 C   0  0  0  0  0  3  0  0  0  0  0  0
  160.8080  214.1550  144.5660 N   0  0  0  0  0  1  0  0  0  0  0  0
  161.6660  213.3440  145.3580 C   0  0  0  0  0  3  0  0  0  0  0  0
  1  8  1  0  0  0  0
  2 33  1  6  0  0  0
  2  7  1  0  0  0  0
  3 15  1  0  0  0  0
  4  2  1  0  0  0  0
  4  3  1  0  0  0  0
  6  5  2  0  0  0  0
  6  1  1  0  0  0  0
  7 15  1  0  0  0  0
  7 16  1  1  0  0  0
  9  5  1  1  0  0  0
  9 13  1  0  0  0  0
  9 11  1  0  0  0  0
 10 12  1  0  0  0  0
 11  8  1  6  0  0  0
 11 10  1  0  0  0  0
 12  3  2  0  0  0  0
 13  4  2  0  0  0  0
 14  6  1  0  0  0  0
 16 17  1  6  0  0  0
 16 18  1  0  0  0  0
 18 24  1  0  0  0  0
 19 23  1  0  0  0  0
 20 23  2  0  0  0  0
 20 25  1  0  0  0  0
 21 24  1  0  0  0  0
 21 22  2  0  0  0  0
 22 20  1  0  0  0  0
 24 19  2  0  0  0  0
 27 26  1  1  0  0  0
 28 27  1  0  0  0  0
 28 25  1  0  0  0  0
 29 32  1  6  0  0  0
 29 28  1  0  0  0  0
 29 27  1  0  0  0  0
 29 26  1  0  0  0  0
 30 32  1  0  0  0  0
 32 31  1  6  0  0  0
 34 38  2  0  0  0  0
 34 37  1  0  0  0  0
 36 35  1  0  0  0  0
 37 36  2  0  0  0  0
 38 39  1  0  0  0  0
 39 33  1  0  0  0  0
 39 35  2  0  0  0  0
 40 34  1  0  0  0  0
 41 40  1  0  0  0  0
 42 43  1  0  0  0  0
 43 41  2  0  0  0  0
M  END
>  <MODEL>
5

>  <REMARK>
 VINA RESULT:      -5.5      1.948      5.921
  Name = 
  10 active torsions:
  status: ('A' for Active; 'I' for Inactive)
    1  A    between atoms: C_3  and  N_15
    2  A    between atoms: C_3  and  C_21
    3  A    between atoms: C_7  and  O_14
    4  A    between atoms: C_8  and  C_40
    5  A    between atoms: N_9  and  C_12
    6  A    between atoms: N_9  and  C_41
    7  A    between atoms: C_11  and  O_14
    8  A    between atoms: N_15  and  C_36
    9  A    between atoms: C_22  and  C_43
   10  A    between atoms: N_28  and  C_43
                            x       y       z     vdW  Elec       q    Type
                         _______ _______ _______ _____ _____    ______ ____

>  <TORSDO>
F 10

$$$$
=
 OpenBabel11052411253D

 43 49  0  0  1  0  0  0  0  0999 V2000
  160.6520  209.4930  156.8800 C   0  0  0  0  0  2  0  0  0  0  0  0
  161.4340  208.0420  150.5210 C   0  0  1  0  0  3  0  0  0  0  0  0
  161.9460  209.8640  152.0220 C   0  0  0  0  0  0  0  0  0  0  0  0
  161.2320  208.5990  151.8890 C   0  0  0  0  0  0  0  0  0  0  0  0
  161.3380  207.8120  155.1650 C   0  0  0  0  0  3  0  0  0  0  0  0
  161.4590  208.3050  156.4020 C   0  0  0  0  0  0  0  0  0  0  0  0
  162.2720  209.0860  149.7750 C   0  0  2  0  0  3  0  0  0  0  0  0
  159.5540  209.9530  155.9010 C   0  0  0  0  0  2  0  0  0  0  0  0
  160.2980  208.3420  154.2250 C   0  0  1  0  0  3  0  0  0  0  0  0
  161.1750  210.6480  154.2270 N   0  0  0  0  0  2  0  0  0  0  0  0
  159.9960  209.8160  154.4450 C   0  0  2  0  0  3  0  0  0  0  0  0
  161.9540  210.7370  153.0330 C   0  0  0  0  0  3  0  0  0  0  0  0
  160.5120  207.9460  152.8030 C   0  0  0  0  0  3  0  0  0  0  0  0
  162.4000  207.7490  157.2580 O   0  0  0  0  0  1  0  0  0  0  0  0
  162.7280  210.1340  150.7950 C   0  0  0  0  0  2  0  0  0  0  0  0
  161.4450  209.7390  148.6660 C   0  0  2  0  0  3  0  0  0  0  0  0
  161.7710  209.1940  147.4220 O   0  0  0  0  0  1  0  0  0  0  0  0
  161.6440  211.1870  148.6410 N   0  0  0  0  0  2  0  0  0  0  0  0
  160.2620  212.4310  147.0060 C   0  0  0  0  0  3  0  0  0  0  0  0
  161.3490  213.6230  145.2180 C   0  0  0  0  0  0  0  0  0  0  0  0
  162.6610  212.4240  146.7950 C   0  0  0  0  0  3  0  0  0  0  0  0
  162.5570  213.2080  145.6880 N   0  0  0  0  0  0  0  0  0  0  0  0
  160.1760  213.2360  145.8690 C   0  0  0  0  0  3  0  0  0  0  0  0
  161.5140  212.0180  147.4800 C   0  0  0  0  0  0  0  0  0  0  0  0
  161.2770  214.4520  143.9860 C   0  0  0  0  0  2  0  0  0  0  0  0
  162.8830  213.8150  141.5950 C   0  0  0  0  0  2  0  0  0  0  0  0
  161.9050  212.9070  142.3020 C   0  0  1  0  0  3  0  0  0  0  0  0
  160.7740  213.6450  142.8820 N   0  0  0  0  0  0  0  0  0  0  0  0
  161.4030  214.1320  141.6410 C   0  0  1  0  0  0  0  0  0  0  0  0
  161.0600  214.4040  139.2820 O   0  0  0  0  0  1  0  0  0  0  0  0
  159.1490  213.8850  140.5860 C   0  0  0  0  0  1  0  0  0  0  0  0
  160.6410  213.6770  140.3980 C   0  0  2  0  0  3  0  0  0  0  0  0
  162.1870  206.7950  150.5870 N   0  0  0  0  0  2  0  0  0  0  0  0
  161.1060  203.6860  148.7870 C   0  0  0  0  0  0  0  0  0  0  0  0
  160.9910  204.8140  151.3570 C   0  0  0  0  0  3  0  0  0  0  0  0
  160.4260  203.5590  151.1190 C   0  0  0  0  0  3  0  0  0  0  0  0
  160.4820  202.9990  149.8410 C   0  0  0  0  0  3  0  0  0  0  0  0
  161.6700  204.9420  149.0390 C   0  0  0  0  0  3  0  0  0  0  0  0
  161.6140  205.5120  150.3200 C   0  0  0  0  0  0  0  0  0  0  0  0
  161.1910  203.1730  147.4810 O   0  0  0  0  0  0  0  0  0  0  0  0
  161.8210  203.7560  146.3690 C   0  0  0  0  0  3  0  0  0  0  0  0
  161.9130  204.8400  144.2500 N   0  0  0  0  0  1  0  0  0  0  0  0
  161.1790  204.2720  145.3270 C   0  0  0  0  0  3  0  0  0  0  0  0
  2 33  1  1  0  0  0
  2  4  1  0  0  0  0
  3 12  2  0  0  0  0
  4  3  1  0  0  0  0
  4 13  2  0  0  0  0
  5  6  2  0  0  0  0
  6  1  1  0  0  0  0
  6 14  1  0  0  0  0
  7 16  1  6  0  0  0
  7  2  1  0  0  0  0
  7 15  1  0  0  0  0
  8  1  1  0  0  0  0
  9 13  1  6  0  0  0
  9 11  1  0  0  0  0
  9  5  1  0  0  0  0
 10 11  1  0  0  0  0
 11  8  1  1  0  0  0
 12 10  1  0  0  0  0
 15  3  1  0  0  0  0
 16 17  1  6  0  0  0
 18 16  1  0  0  0  0
 19 24  1  0  0  0  0
 20 22  2  0  0  0  0
 20 23  1  0  0  0  0
 21 24  2  0  0  0  0
 22 21  1  0  0  0  0
 23 19  2  0  0  0  0
 24 18  1  0  0  0  0
 25 20  1  0  0  0  0
 26 29  1  0  0  0  0
 27 26  1  1  0  0  0
 27 28  1  0  0  0  0
 28 25  1  0  0  0  0
 29 32  1  6  0  0  0
 29 27  1  0  0  0  0
 29 28  1  0  0  0  0
 30 32  1  0  0  0  0
 32 31  1  1  0  0  0
 34 38  2  0  0  0  0
 34 37  1  0  0  0  0
 36 35  1  0  0  0  0
 37 36  2  0  0  0  0
 38 39  1  0  0  0  0
 39 33  1  0  0  0  0
 39 35  2  0  0  0  0
 40 34  1  0  0  0  0
 41 40  1  0  0  0  0
 42 43  1  0  0  0  0
 43 41  2  0  0  0  0
M  END
>  <MODEL>
6

>  <REMARK>
 VINA RESULT:      -5.5      3.107      8.482
  Name = 
  10 active torsions:
  status: ('A' for Active; 'I' for Inactive)
    1  A    between atoms: C_3  and  N_15
    2  A    between atoms: C_3  and  C_21
    3  A    between atoms: C_7  and  O_14
    4  A    between atoms: C_8  and  C_40
    5  A    between atoms: N_9  and  C_12
    6  A    between atoms: N_9  and  C_41
    7  A    between atoms: C_11  and  O_14
    8  A    between atoms: N_15  and  C_36
    9  A    between atoms: C_22  and  C_43
   10  A    between atoms: N_28  and  C_43
                            x       y       z     vdW  Elec       q    Type
                         _______ _______ _______ _____ _____    ______ ____

>  <TORSDO>
F 10

$$$$
=
 OpenBabel11052411253D

 43 49  0  0  1  0  0  0  0  0999 V2000
  157.0780  212.4910  156.2750 C   0  0  0  0  0  2  0  0  0  0  0  0
  160.1810  211.9610  150.5090 C   0  0  1  0  0  3  0  0  0  0  0  0
  159.2780  213.7120  151.9070 C   0  0  0  0  0  0  0  0  0  0  0  0
  159.3630  212.2680  151.7160 C   0  0  0  0  0  0  0  0  0  0  0  0
  158.9510  211.4800  154.9680 C   0  0  0  0  0  3  0  0  0  0  0  0
  158.4660  211.9030  156.1400 C   0  0  0  0  0  0  0  0  0  0  0  0
  160.5480  213.3210  149.9080 C   0  0  2  0  0  3  0  0  0  0  0  0
  156.2120  212.3780  155.0040 C   0  0  0  0  0  2  0  0  0  0  0  0
  158.0870  211.4550  153.7430 C   0  0  1  0  0  3  0  0  0  0  0  0
  157.6510  213.8830  153.7500 N   0  0  0  0  0  2  0  0  0  0  0  0
  157.0400  212.5580  153.7330 C   0  0  2  0  0  3  0  0  0  0  0  0
  158.5720  214.4150  152.7950 C   0  0  0  0  0  3  0  0  0  0  0  0
  158.8490  211.2950  152.4710 C   0  0  0  0  0  3  0  0  0  0  0  0
  159.2840  211.8600  157.2610 O   0  0  0  0  0  1  0  0  0  0  0  0
  160.1190  214.4030  150.9050 C   0  0  0  0  0  2  0  0  0  0  0  0
  159.8440  213.5200  148.5650 C   0  0  2  0  0  3  0  0  0  0  0  0
  158.4630  213.6410  148.7450 O   0  0  0  0  0  1  0  0  0  0  0  0
  160.1300  212.4160  147.6500 N   0  0  0  0  0  2  0  0  0  0  0  0
  161.6510  212.9650  145.7740 C   0  0  0  0  0  3  0  0  0  0  0  0
  160.8320  212.8030  143.5150 C   0  0  0  0  0  0  0  0  0  0  0  0
  159.3850  212.2820  145.3260 C   0  0  0  0  0  3  0  0  0  0  0  0
  159.6180  212.4130  143.9920 N   0  0  0  0  0  0  0  0  0  0  0  0
  161.8710  213.0930  144.4020 C   0  0  0  0  0  3  0  0  0  0  0  0
  160.3980  212.5550  146.2490 C   0  0  0  0  0  0  0  0  0  0  0  0
  161.0370  212.9670  142.0520 C   0  0  0  0  0  2  0  0  0  0  0  0
  161.6080  212.1570  139.2730 C   0  0  0  0  0  2  0  0  0  0  0  0
  161.1320  211.2700  140.3990 C   0  0  1  0  0  3  0  0  0  0  0  0
  160.2450  211.9780  141.3330 N   0  0  0  0  0  0  0  0  0  0  0  0
  160.2450  212.3470  139.9060 C   0  0  1  0  0  0  0  0  0  0  0  0
  159.3330  211.7670  137.7630 O   0  0  0  0  0  1  0  0  0  0  0  0
  157.7830  212.3090  139.4740 C   0  0  0  0  0  1  0  0  0  0  0  0
  159.1150  211.6640  139.1390 C   0  0  2  0  0  3  0  0  0  0  0  0
  161.4060  211.2670  150.8890 N   0  0  0  0  0  2  0  0  0  0  0  0
  161.5170  207.6130  151.7270 C   0  0  0  0  0  0  0  0  0  0  0  0
  161.9960  209.3180  149.5470 C   0  0  0  0  0  3  0  0  0  0  0  0
  162.1720  207.9390  149.4080 C   0  0  0  0  0  3  0  0  0  0  0  0
  161.9350  207.0920  150.4920 C   0  0  0  0  0  3  0  0  0  0  0  0
  161.3420  208.9960  151.8540 C   0  0  0  0  0  3  0  0  0  0  0  0
  161.5820  209.8530  150.7690 C   0  0  0  0  0  0  0  0  0  0  0  0
  161.2660  206.8090  152.8530 O   0  0  0  0  0  0  0  0  0  0  0  0
  161.3590  207.1730  154.2070 C   0  0  0  0  0  3  0  0  0  0  0  0
  160.5200  207.7000  156.3730 N   0  0  0  0  0  1  0  0  0  0  0  0
  160.3170  207.3290  155.0150 C   0  0  0  0  0  3  0  0  0  0  0  0
  2 33  1  1  0  0  0
  2  4  1  0  0  0  0
  3 12  2  0  0  0  0
  4  3  1  0  0  0  0
  4 13  2  0  0  0  0
  5  6  2  0  0  0  0
  6  1  1  0  0  0  0
  6 14  1  0  0  0  0
  7 16  1  6  0  0  0
  7  2  1  0  0  0  0
  7 15  1  0  0  0  0
  8  1  1  0  0  0  0
  9 13  1  6  0  0  0
  9  5  1  0  0  0  0
 11  9  1  0  0  0  0
 11 10  1  0  0  0  0
 11  8  1  1  0  0  0
 12 10  1  0  0  0  0
 15  3  1  0  0  0  0
 16 17  1  1  0  0  0
 18 16  1  0  0  0  0
 19 24  1  0  0  0  0
 20 22  2  0  0  0  0
 20 23  1  0  0  0  0
 21 24  2  0  0  0  0
 22 21  1  0  0  0  0
 23 19  2  0  0  0  0
 24 18  1  0  0  0  0
 25 20  1  0  0  0  0
 26 29  1  0  0  0  0
 27 26  1  1  0  0  0
 27 28  1  0  0  0  0
 28 25  1  0  0  0  0
 29 32  1  6  0  0  0
 29 27  1  0  0  0  0
 29 28  1  0  0  0  0
 30 32  1  0  0  0  0
 32 31  1  6  0  0  0
 34 38  1  0  0  0  0
 34 40  1  0  0  0  0
 35 39  1  0  0  0  0
 36 35  2  0  0  0  0
 36 37  1  0  0  0  0
 37 34  2  0  0  0  0
 39 33  1  0  0  0  0
 39 38  2  0  0  0  0
 40 41  1  0  0  0  0
 41 43  2  0  0  0  0
 43 42  1  0  0  0  0
M  END
>  <MODEL>
7

>  <REMARK>
 VINA RESULT:      -5.5      3.773     10.151
  Name = 
  10 active torsions:
  status: ('A' for Active; 'I' for Inactive)
    1  A    between atoms: C_3  and  N_15
    2  A    between atoms: C_3  and  C_21
    3  A    between atoms: C_7  and  O_14
    4  A    between atoms: C_8  and  C_40
    5  A    between atoms: N_9  and  C_12
    6  A    between atoms: N_9  and  C_41
    7  A    between atoms: C_11  and  O_14
    8  A    between atoms: N_15  and  C_36
    9  A    between atoms: C_22  and  C_43
   10  A    between atoms: N_28  and  C_43
                            x       y       z     vdW  Elec       q    Type
                         _______ _______ _______ _____ _____    ______ ____

>  <TORSDO>
F 10

$$$$
=
 OpenBabel11052411253D

 43 49  0  0  1  0  0  0  0  0999 V2000
  159.8630  213.1530  157.0440 C   0  0  0  0  0  2  0  0  0  0  0  0
  161.1750  208.1460  152.9990 C   0  0  1  0  0  3  0  0  0  0  0  0
  160.1200  208.4900  155.1450 C   0  0  0  0  0  0  0  0  0  0  0  0
  160.9120  209.1210  154.0940 C   0  0  0  0  0  0  0  0  0  0  0  0
  159.8400  212.2570  154.7130 C   0  0  0  0  0  3  0  0  0  0  0  0
  159.3130  213.0680  155.6370 C   0  0  0  0  0  0  0  0  0  0  0  0
  160.5520  206.8270  153.4700 C   0  0  2  0  0  3  0  0  0  0  0  0
  161.1830  212.3850  157.2610 C   0  0  0  0  0  2  0  0  0  0  0  0
  161.0890  211.4770  154.9970 C   0  0  1  0  0  3  0  0  0  0  0  0
  160.1240  210.2280  156.8920 N   0  0  0  0  0  2  0  0  0  0  0  0
  161.2220  211.0840  156.4600 C   0  0  2  0  0  3  0  0  0  0  0  0
  159.7500  208.9660  156.3360 C   0  0  0  0  0  3  0  0  0  0  0  0
  161.3490  210.3800  154.0210 C   0  0  0  0  0  3  0  0  0  0  0  0
  158.1870  213.8120  155.3140 O   0  0  0  0  0  1  0  0  0  0  0  0
  159.7430  207.1180  154.7380 C   0  0  0  0  0  2  0  0  0  0  0  0
  161.6440  205.7930  153.7550 C   0  0  2  0  0  3  0  0  0  0  0  0
  162.8110  206.1010  153.0510 O   0  0  0  0  0  1  0  0  0  0  0  0
  161.1980  204.4440  153.4090 N   0  0  0  0  0  2  0  0  0  0  0  0
  160.8640  204.7610  150.9760 C   0  0  0  0  0  3  0  0  0  0  0  0
  160.8970  202.8370  149.5280 C   0  0  0  0  0  0  0  0  0  0  0  0
  161.2150  202.5500  151.8650 C   0  0  0  0  0  3  0  0  0  0  0  0
  161.1130  202.0380  150.6090 N   0  0  0  0  0  0  0  0  0  0  0  0
  160.7630  204.2170  149.6950 C   0  0  0  0  0  3  0  0  0  0  0  0
  161.0930  203.9260  152.0770 C   0  0  0  0  0  0  0  0  0  0  0  0
  160.7580  202.2350  148.1760 C   0  0  0  0  0  2  0  0  0  0  0  0
  160.8210  201.6930  145.2770 C   0  0  0  0  0  2  0  0  0  0  0  0
  160.0420  202.7770  145.9830 C   0  0  1  0  0  3  0  0  0  0  0  0
  160.7420  203.2880  147.1700 N   0  0  0  0  0  0  0  0  0  0  0  0
  161.5210  202.8190  146.0100 C   0  0  1  0  0  0  0  0  0  0  0  0
  163.1150  204.5610  145.5780 O   0  0  0  0  0  1  0  0  0  0  0  0
  160.8520  205.0270  145.0440 C   0  0  0  0  0  1  0  0  0  0  0  0
  161.9420  203.9720  145.1010 C   0  0  2  0  0  3  0  0  0  0  0  0
  160.5120  208.5680  151.7720 N   0  0  0  0  0  2  0  0  0  0  0  0
  162.3180  210.4680  149.0900 C   0  0  0  0  0  0  0  0  0  0  0  0
  161.4780  207.8480  149.6520 C   0  0  0  0  0  3  0  0  0  0  0  0
  162.1610  208.1230  148.4640 C   0  0  0  0  0  3  0  0  0  0  0  0
  162.5770  209.4260  148.1840 C   0  0  0  0  0  3  0  0  0  0  0  0
  161.6350  210.1800  150.2760 C   0  0  0  0  0  3  0  0  0  0  0  0
  161.2110  208.8730  150.5620 C   0  0  0  0  0  0  0  0  0  0  0  0
  162.7110  211.7980  148.8590 O   0  0  0  0  0  0  0  0  0  0  0  0
  162.4500  212.5860  147.7250 C   0  0  0  0  0  3  0  0  0  0  0  0
  161.1130  213.4920  145.9750 N   0  0  0  0  0  1  0  0  0  0  0  0
  161.2720  212.6610  147.1180 C   0  0  0  0  0  3  0  0  0  0  0  0
  1  8  1  0  0  0  0
  2 33  1  6  0  0  0
  2  7  1  0  0  0  0
  2  4  1  0  0  0  0
  3 12  2  0  0  0  0
  4  3  1  0  0  0  0
  5  9  1  0  0  0  0
  5  6  2  0  0  0  0
  6  1  1  0  0  0  0
  7 16  1  1  0  0  0
  7 15  1  0  0  0  0
  9 13  1  6  0  0  0
  9 11  1  0  0  0  0
 11 10  1  0  0  0  0
 11  8  1  1  0  0  0
 12 10  1  0  0  0  0
 13  4  2  0  0  0  0
 14  6  1  0  0  0  0
 15  3  1  0  0  0  0
 16 17  1  6  0  0  0
 18 16  1  0  0  0  0
 19 24  1  0  0  0  0
 20 23  1  0  0  0  0
 20 22  2  0  0  0  0
 21 24  2  0  0  0  0
 22 21  1  0  0  0  0
 23 19  2  0  0  0  0
 24 18  1  0  0  0  0
 25 20  1  0  0  0  0
 26 29  1  0  0  0  0
 27 26  1  1  0  0  0
 27 29  1  0  0  0  0
 27 28  1  0  0  0  0
 28 25  1  0  0  0  0
 29 32  1  6  0  0  0
 29 28  1  0  0  0  0
 32 31  1  1  0  0  0
 32 30  1  0  0  0  0
 34 38  1  0  0  0  0
 35 39  1  0  0  0  0
 36 35  2  0  0  0  0
 37 36  1  0  0  0  0
 37 34  2  0  0  0  0
 38 39  2  0  0  0  0
 39 33  1  0  0  0  0
 40 34  1  0  0  0  0
 41 40  1  0  0  0  0
 42 43  1  0  0  0  0
 43 41  2  0  0  0  0
M  END
>  <MODEL>
8

>  <REMARK>
 VINA RESULT:      -5.4      1.958      8.673
  Name = 
  10 active torsions:
  status: ('A' for Active; 'I' for Inactive)
    1  A    between atoms: C_3  and  N_15
    2  A    between atoms: C_3  and  C_21
    3  A    between atoms: C_7  and  O_14
    4  A    between atoms: C_8  and  C_40
    5  A    between atoms: N_9  and  C_12
    6  A    between atoms: N_9  and  C_41
    7  A    between atoms: C_11  and  O_14
    8  A    between atoms: N_15  and  C_36
    9  A    between atoms: C_22  and  C_43
   10  A    between atoms: N_28  and  C_43
                            x       y       z     vdW  Elec       q    Type
                         _______ _______ _______ _____ _____    ______ ____

>  <TORSDO>
F 10

$$$$
=
 OpenBabel11052411253D

 43 49  0  0  1  0  0  0  0  0999 V2000
  160.3460  200.6470  147.9470 C   0  0  0  0  0  2  0  0  0  0  0  0
  161.4660  206.7760  150.0300 C   0  0  1  0  0  3  0  0  0  0  0  0
  160.9380  205.6530  147.9570 C   0  0  0  0  0  0  0  0  0  0  0  0
  161.3170  205.4570  149.3520 C   0  0  0  0  0  0  0  0  0  0  0  0
  159.8980  202.4150  149.6550 C   0  0  0  0  0  3  0  0  0  0  0  0
  159.4850  201.3310  148.9870 C   0  0  0  0  0  0  0  0  0  0  0  0
  161.2230  207.8250  148.9390 C   0  0  2  0  0  3  0  0  0  0  0  0
  161.7920  201.1770  147.8680 C   0  0  0  0  0  2  0  0  0  0  0  0
  161.2960  202.9320  149.4900 C   0  0  1  0  0  3  0  0  0  0  0  0
  161.0720  203.3580  147.0700 N   0  0  0  0  0  2  0  0  0  0  0  0
  161.8580  202.6860  148.0990 C   0  0  2  0  0  3  0  0  0  0  0  0
  160.7990  204.7580  146.9770 C   0  0  0  0  0  3  0  0  0  0  0  0
  161.4920  204.3130  150.0170 C   0  0  0  0  0  3  0  0  0  0  0  0
  158.2010  200.8550  149.2100 O   0  0  0  0  0  1  0  0  0  0  0  0
  160.7190  207.0930  147.6910 C   0  0  0  0  0  2  0  0  0  0  0  0
  162.5150  208.5840  148.6310 C   0  0  2  0  0  3  0  0  0  0  0  0
  163.6060  207.9750  149.2590 O   0  0  0  0  0  1  0  0  0  0  0  0
  162.4200  209.9820  149.0470 N   0  0  0  0  0  2  0  0  0  0  0  0
  160.7640  211.1280  147.6070 C   0  0  0  0  0  3  0  0  0  0  0  0
  161.3640  213.2140  146.5630 C   0  0  0  0  0  0  0  0  0  0  0  0
  162.9420  212.1010  147.9470 C   0  0  0  0  0  3  0  0  0  0  0  0
  162.5940  213.1390  147.1410 N   0  0  0  0  0  0  0  0  0  0  0  0
  160.4260  212.2030  146.7830 C   0  0  0  0  0  3  0  0  0  0  0  0
  162.0330  211.0700  148.1990 C   0  0  0  0  0  0  0  0  0  0  0  0
  161.0350  214.3500  145.6620 C   0  0  0  0  0  2  0  0  0  0  0  0
  159.0420  213.6370  143.6070 C   0  0  0  0  0  2  0  0  0  0  0  0
  160.3020  214.4450  143.4100 C   0  0  1  0  0  3  0  0  0  0  0  0
  161.3930  214.0070  144.2920 N   0  0  0  0  0  0  0  0  0  0  0  0
  160.4130  213.0230  143.7990 C   0  0  1  0  0  0  0  0  0  0  0  0
  160.4150  210.9710  142.5540 O   0  0  0  0  0  1  0  0  0  0  0  0
  162.4400  212.2050  142.5860 C   0  0  0  0  0  1  0  0  0  0  0  0
  160.9240  212.2720  142.5720 C   0  0  2  0  0  3  0  0  0  0  0  0
  160.4520  206.9320  151.0660 N   0  0  0  0  0  2  0  0  0  0  0  0
  161.0570  209.3560  153.8650 C   0  0  0  0  0  0  0  0  0  0  0  0
  160.9380  206.5830  153.4310 C   0  0  0  0  0  3  0  0  0  0  0  0
  161.2070  207.0800  154.7090 C   0  0  0  0  0  3  0  0  0  0  0  0
  161.2680  208.4580  154.9240 C   0  0  0  0  0  3  0  0  0  0  0  0
  160.7870  208.8460  152.5900 C   0  0  0  0  0  3  0  0  0  0  0  0
  160.7280  207.4620  152.3660 C   0  0  0  0  0  0  0  0  0  0  0  0
  161.1080  210.7520  154.0220 O   0  0  0  0  0  0  0  0  0  0  0  0
  160.0290  211.6390  154.1760 C   0  0  0  0  0  3  0  0  0  0  0  0
  158.5400  213.3760  153.5160 N   0  0  0  0  0  1  0  0  0  0  0  0
  159.6490  212.5230  153.2610 C   0  0  0  0  0  3  0  0  0  0  0  0
  1  6  1  0  0  0  0
  2 33  1  1  0  0  0
  3  4  1  0  0  0  0
  4 13  2  0  0  0  0
  4  2  1  0  0  0  0
  6 14  1  0  0  0  0
  6  5  2  0  0  0  0
  7 16  1  6  0  0  0
  7  2  1  0  0  0  0
  8  1  1  0  0  0  0
  9  5  1  6  0  0  0
  9 13  1  0  0  0  0
 10 11  1  0  0  0  0
 11  8  1  6  0  0  0
 11  9  1  0  0  0  0
 12 10  1  0  0  0  0
 12  3  2  0  0  0  0
 15  3  1  0  0  0  0
 15  7  1  0  0  0  0
 16 18  1  0  0  0  0
 16 17  1  1  0  0  0
 19 24  1  0  0  0  0
 20 23  1  0  0  0  0
 20 22  2  0  0  0  0
 21 24  2  0  0  0  0
 22 21  1  0  0  0  0
 23 19  2  0  0  0  0
 24 18  1  0  0  0  0
 25 20  1  0  0  0  0
 26 29  1  0  0  0  0
 27 26  1  1  0  0  0
 27 29  1  0  0  0  0
 27 28  1  0  0  0  0
 28 25  1  0  0  0  0
 29 32  1  6  0  0  0
 29 28  1  0  0  0  0
 30 32  1  0  0  0  0
 32 31  1  1  0  0  0
 33 39  1  0  0  0  0
 34 40  1  0  0  0  0
 34 37  1  0  0  0  0
 35 36  1  0  0  0  0
 36 37  2  0  0  0  0
 38 34  2  0  0  0  0
 39 38  1  0  0  0  0
 39 35  2  0  0  0  0
 40 41  1  0  0  0  0
 43 42  1  0  0  0  0
 43 41  2  0  0  0  0
M  END
>  <MODEL>
9

>  <REMARK>
 VINA RESULT:      -5.1      2.656      9.176
  Name = 
  10 active torsions:
  status: ('A' for Active; 'I' for Inactive)
    1  A    between atoms: C_3  and  N_15
    2  A    between atoms: C_3  and  C_21
    3  A    between atoms: C_7  and  O_14
    4  A    between atoms: C_8  and  C_40
    5  A    between atoms: N_9  and  C_12
    6  A    between atoms: N_9  and  C_41
    7  A    between atoms: C_11  and  O_14
    8  A    between atoms: N_15  and  C_36
    9  A    between atoms: C_22  and  C_43
   10  A    between atoms: N_28  and  C_43
                            x       y       z     vdW  Elec       q    Type
                         _______ _______ _______ _____ _____    ______ ____

>  <TORSDO>
F 10

$$$$
