=
 OpenBabel11052412013D

 61 67  0  0  1  0  0  0  0  0999 V2000
  159.2840  211.4160  152.7300 C   0  0  1  0  0  3  0  0  0  0  0  0
  158.5130  210.9680  156.5970 S   0  0  0  0  0  0  0  0  0  0  0  0
  158.5570  213.7690  152.4990 N   0  0  0  0  0  0  0  0  0  0  0  0
  159.1800  212.9340  154.6950 C   0  0  1  0  0  3  0  0  0  0  0  0
  159.5700  211.5200  155.1770 C   0  0  2  0  0  3  0  0  0  0  0  0
  162.0100  211.0280  148.6950 C   0  0  0  0  0  2  0  0  0  0  0  0
  157.2920  214.4470  155.6590 C   0  0  0  0  0  3  0  0  0  0  0  0
  159.4000  213.5520  150.1900 C   0  0  0  0  0  3  0  0  0  0  0  0
  158.9980  212.7870  153.2310 C   0  0  0  0  0  0  0  0  0  0  0  0
  160.5420  210.2920  151.2660 C   0  0  0  0  0  2  0  0  0  0  0  0
  161.9850  209.9170  150.9590 C   0  0  2  0  0  3  0  0  0  0  0  0
  160.5310  211.4150  152.0990 O   0  0  0  0  0  0  0  0  0  0  0  0
  161.7410  213.4990  148.3590 C   0  0  0  0  0  2  0  0  0  0  0  0
  160.0630  213.4800  146.5310 C   0  0  0  0  0  3  0  0  0  0  0  0
  156.8270  214.0630  149.2130 C   0  0  0  0  0  3  0  0  0  0  0  0
  156.5440  214.2240  156.7290 O   0  0  0  0  0  0  0  0  0  0  0  0
  159.1890  213.6240  148.8000 C   0  0  0  0  0  0  0  0  0  0  0  0
  156.6810  213.0090  157.1870 N   0  0  0  0  0  0  0  0  0  0  0  0
  157.4990  212.3910  156.3240 C   0  0  0  0  0  0  0  0  0  0  0  0
  157.0490  214.0000  150.5890 C   0  0  0  0  0  0  0  0  0  0  0  0
  159.3560  210.5730  154.0000 C   0  0  0  0  0  2  0  0  0  0  0  0
  157.8870  213.8780  148.3270 C   0  0  0  0  0  3  0  0  0  0  0  0
  162.6390  210.9780  150.0780 C   0  0  0  0  0  2  0  0  0  0  0  0
  158.3320  213.7270  151.0850 C   0  0  0  0  0  0  0  0  0  0  0  0
  160.3220  213.5010  147.8450 C   0  0  0  0  0  0  0  0  0  0  0  0
  162.5080  212.2470  147.9460 C   0  0  0  0  0  2  0  0  0  0  0  0
  157.9070  213.2470  155.3800 C   0  0  0  0  0  0  0  0  0  0  0  0
  155.9870  214.2050  151.4610 O   0  0  0  0  0  1  0  0  0  0  0  0
  161.1040  213.4410  145.4600 C   0  0  0  0  0  2  0  0  0  0  0  0
  160.5940  214.1270  144.2000 C   0  0  0  0  0  2  0  0  0  0  0  0
  160.6190  213.1830  143.0030 C   0  0  0  0  0  2  0  0  0  0  0  0
  162.6520  212.9120  140.4750 C   0  0  1  0  0  3  0  0  0  0  0  0
  162.4130  214.4530  141.3710 S   0  0  0  0  0  0  0  0  0  0  0  0
  160.7070  213.9510  141.6890 C   0  0  1  0  0  3  0  0  0  0  0  0
  161.3170  212.5180  139.8610 C   0  0  2  0  0  3  0  0  0  0  0  0
  160.2040  213.1380  140.5850 N   0  0  0  0  0  2  0  0  0  0  0  0
  161.1400  210.9980  139.8140 C   0  0  0  0  0  0  0  0  0  0  0  0
  161.1490  210.5580  138.5030 F   0  0  0  0  0  0  0  0  0  0  0  0
  159.9280  210.6590  140.3880 F   0  0  0  0  0  0  0  0  0  0  0  0
  162.1630  210.3750  140.5130 F   0  0  0  0  0  0  0  0  0  0  0  0
  163.8310  212.2150  138.5140 O   0  0  0  0  0  0  0  0  0  0  0  0
  164.5330  214.2370  139.4440 N   0  0  0  0  0  2  0  0  0  0  0  0
  165.5750  214.4530  138.4550 C   0  0  0  0  0  1  0  0  0  0  0  0
  163.6960  213.0820  139.4190 C   0  0  0  0  0  0  0  0  0  0  0  0
  162.0700  208.6080  150.3230 N   0  0  0  0  0  2  0  0  0  0  0  0
  160.1590  204.1080  150.2460 O   0  0  0  0  0  1  0  0  0  0  0  0
  162.1690  207.1490  152.3070 C   0  0  0  0  0  3  0  0  0  0  0  0
  161.8900  205.9360  152.9370 C   0  0  0  0  0  3  0  0  0  0  0  0
  160.8130  205.1320  150.9210 C   0  0  0  0  0  0  0  0  0  0  0  0
  161.0740  206.3620  150.2840 C   0  0  0  0  0  0  0  0  0  0  0  0
  161.2150  204.9290  152.2440 C   0  0  0  0  0  3  0  0  0  0  0  0
  161.7660  207.3720  150.9800 C   0  0  0  0  0  0  0  0  0  0  0  0
  160.6950  206.5790  148.8470 C   0  0  0  0  0  2  0  0  0  0  0  0
  163.0370  206.6830  148.3770 O   0  0  0  0  0  0  0  0  0  0  0  0
  161.8750  206.4810  147.9320 C   0  0  0  0  0  0  0  0  0  0  0  0
  161.7010  206.1330  146.5930 O   0  0  0  0  0  0  0  0  0  0  0  0
  160.5130  206.2880  145.9960 O   0  0  0  0  0  0  0  0  0  0  0  0
  160.5480  205.4410  144.8870 C   0  0  0  0  0  2  0  0  0  0  0  0
  161.6940  204.4600  145.0420 C   0  0  0  0  0  2  0  0  0  0  0  0
  161.2350  202.9730  146.8560 O   0  0  0  0  0  1  0  0  0  0  0  0
  161.1700  203.1010  145.4690 C   0  0  0  0  0  2  0  0  0  0  0  0
  1  9  1  0  0  0  0
  1 21  1  1  0  0  0
  3  9  2  0  0  0  0
  4  9  1  6  0  0  0
  4  5  1  0  0  0  0
  4 27  1  0  0  0  0
  5 21  1  6  0  0  0
  5  2  1  0  0  0  0
  6 23  1  0  0  0  0
  7 16  1  0  0  0  0
  8 24  1  0  0  0  0
 10 12  1  0  0  0  0
 11 45  1  6  0  0  0
 11 10  1  0  0  0  0
 12  1  1  0  0  0  0
 14 25  2  0  0  0  0
 15 20  1  0  0  0  0
 16 18  1  0  0  0  0
 17  8  2  0  0  0  0
 19  2  1  0  0  0  0
 19 18  2  0  0  0  0
 20 24  2  0  0  0  0
 20 28  1  0  0  0  0
 22 17  1  0  0  0  0
 22 15  2  0  0  0  0
 23 11  1  0  0  0  0
 24  3  1  0  0  0  0
 25 13  1  0  0  0  0
 25 17  1  0  0  0  0
 26 13  1  0  0  0  0
 26  6  1  0  0  0  0
 27  7  2  0  0  0  0
 27 19  1  0  0  0  0
 29 14  1  0  0  0  0
 30 29  1  0  0  0  0
 31 30  1  0  0  0  0
 32 44  1  6  0  0  0
 32 33  1  0  0  0  0
 33 34  1  0  0  0  0
 34 31  1  1  0  0  0
 35 37  1  1  0  0  0
 35 32  1  0  0  0  0
 35 36  1  0  0  0  0
 36 34  1  0  0  0  0
 37 39  1  0  0  0  0
 37 40  1  0  0  0  0
 38 37  1  0  0  0  0
 41 44  2  0  0  0  0
 43 42  1  0  0  0  0
 44 42  1  0  0  0  0
 45 52  1  0  0  0  0
 46 49  1  0  0  0  0
 47 48  1  0  0  0  0
 49 51  1  0  0  0  0
 50 49  2  0  0  0  0
 50 52  1  0  0  0  0
 51 48  2  0  0  0  0
 52 47  2  0  0  0  0
 53 50  1  0  0  0  0
 55 54  2  0  0  0  0
 55 53  1  0  0  0  0
 56 55  1  0  0  0  0
 57 56  1  0  0  0  0
 58 59  1  0  0  0  0
 58 57  1  0  0  0  0
 59 61  1  0  0  0  0
 61 60  1  0  0  0  0
M  END
>  <MODEL>
1

>  <REMARK>
 VINA RESULT:      -7.9      0.000      0.000
  Name = 
  15 active torsions:
  status: ('A' for Active; 'I' for Inactive)
    1  A    between atoms: C_1  and  C_8
    2  A    between atoms: C_1  and  C_25
    3  A    between atoms: O_2  and  C_58
    4  A    between atoms: O_2  and  O_59
    5  A    between atoms: C_8  and  C_26
    6  A    between atoms: C_9  and  C_57
    7  A    between atoms: C_11  and  C_49
    8  A    between atoms: C_11  and  C_58
    9  A    between atoms: C_20  and  C_29
   10  A    between atoms: C_21  and  N_35
   11  A    between atoms: C_23  and  C_37
   12  A    between atoms: C_23  and  O_59
   13  A    between atoms: C_25  and  C_28
   14  A    between atoms: N_35  and  C_55
   15  A    between atoms: C_37  and  C_47
                            x       y       z     vdW  Elec       q    Type
                         _______ _______ _______ _____ _____    ______ ____

>  <TORSDO>
F 15

$$$$
=
 OpenBabel11052412013D

 61 67  0  0  1  0  0  0  0  0999 V2000
  159.1360  211.3400  152.8110 C   0  0  1  0  0  3  0  0  0  0  0  0
  158.1870  211.0920  156.6560 S   0  0  0  0  0  0  0  0  0  0  0  0
  158.3290  213.6410  152.3990 N   0  0  0  0  0  0  0  0  0  0  0  0
  158.8720  212.9670  154.6710 C   0  0  1  0  0  3  0  0  0  0  0  0
  159.2930  211.6020  155.2570 C   0  0  2  0  0  3  0  0  0  0  0  0
  162.0780  210.8270  148.9440 C   0  0  0  0  0  2  0  0  0  0  0  0
  156.8790  214.4530  155.4460 C   0  0  0  0  0  3  0  0  0  0  0  0
  159.2970  213.3230  150.1520 C   0  0  0  0  0  3  0  0  0  0  0  0
  158.7710  212.7250  153.2110 C   0  0  0  0  0  0  0  0  0  0  0  0
  160.5100  210.1850  151.4810 C   0  0  0  0  0  2  0  0  0  0  0  0
  161.9810  209.8540  151.2680 C   0  0  2  0  0  3  0  0  0  0  0  0
  160.4130  211.3540  152.2420 O   0  0  0  0  0  0  0  0  0  0  0  0
  161.7290  213.2600  148.4430 C   0  0  0  0  0  2  0  0  0  0  0  0
  160.1480  213.0600  146.5400 C   0  0  0  0  0  3  0  0  0  0  0  0
  156.7590  213.6650  149.0210 C   0  0  0  0  0  3  0  0  0  0  0  0
  156.0880  214.2630  156.4900 O   0  0  0  0  0  0  0  0  0  0  0  0
  159.1540  213.3030  148.7510 C   0  0  0  0  0  0  0  0  0  0  0  0
  156.2490  213.0850  157.0290 N   0  0  0  0  0  0  0  0  0  0  0  0
  157.1330  212.4520  156.2470 C   0  0  0  0  0  0  0  0  0  0  0  0
  156.9130  213.6940  150.4080 C   0  0  0  0  0  0  0  0  0  0  0  0
  159.1760  210.5780  154.1320 C   0  0  0  0  0  2  0  0  0  0  0  0
  157.8700  213.4720  148.2000 C   0  0  0  0  0  3  0  0  0  0  0  0
  162.6370  210.8860  150.3560 C   0  0  0  0  0  2  0  0  0  0  0  0
  158.1790  213.5060  150.9820 C   0  0  0  0  0  0  0  0  0  0  0  0
  160.3380  213.1710  147.8610 C   0  0  0  0  0  0  0  0  0  0  0  0
  162.5640  212.0190  148.1460 C   0  0  0  0  0  2  0  0  0  0  0  0
  157.5550  213.2660  155.2720 C   0  0  0  0  0  0  0  0  0  0  0  0
  155.8000  213.9060  151.2130 O   0  0  0  0  0  1  0  0  0  0  0  0
  161.2420  213.0020  145.5260 C   0  0  0  0  0  2  0  0  0  0  0  0
  161.1130  214.1540  144.5400 C   0  0  0  0  0  2  0  0  0  0  0  0
  161.2220  213.6690  143.0980 C   0  0  0  0  0  2  0  0  0  0  0  0
  159.8290  212.7670  140.2970 C   0  0  1  0  0  3  0  0  0  0  0  0
  158.8800  213.3000  141.7290 S   0  0  0  0  0  0  0  0  0  0  0  0
  160.1720  212.6090  142.7860 C   0  0  1  0  0  3  0  0  0  0  0  0
  160.6050  211.5180  140.6910 C   0  0  2  0  0  3  0  0  0  0  0  0
  160.7870  211.4500  142.1430 N   0  0  0  0  0  2  0  0  0  0  0  0
  161.9580  211.4440  139.9800 C   0  0  0  0  0  0  0  0  0  0  0  0
  162.4740  212.7150  139.8030 F   0  0  0  0  0  0  0  0  0  0  0  0
  161.7930  210.8550  138.7390 F   0  0  0  0  0  0  0  0  0  0  0  0
  162.8510  210.6890  140.7260 F   0  0  0  0  0  0  0  0  0  0  0  0
  158.5640  211.3060  138.8870 O   0  0  0  0  0  0  0  0  0  0  0  0
  158.4530  213.5740  138.3450 N   0  0  0  0  0  2  0  0  0  0  0  0
  157.5780  213.3680  137.2040 C   0  0  0  0  0  1  0  0  0  0  0  0
  158.9180  212.4890  139.1450 C   0  0  0  0  0  0  0  0  0  0  0  0
  162.1490  208.5140  150.7200 N   0  0  0  0  0  2  0  0  0  0  0  0
  161.4450  203.6750  150.7550 O   0  0  0  0  0  1  0  0  0  0  0  0
  161.5430  207.3310  152.7950 C   0  0  0  0  0  3  0  0  0  0  0  0
  161.2340  206.1530  153.4750 C   0  0  0  0  0  3  0  0  0  0  0  0
  161.4680  204.8980  151.4150 C   0  0  0  0  0  0  0  0  0  0  0  0
  161.7620  206.0870  150.7180 C   0  0  0  0  0  0  0  0  0  0  0  0
  161.1980  204.9380  152.7860 C   0  0  0  0  0  3  0  0  0  0  0  0
  161.8100  207.3090  151.4170 C   0  0  0  0  0  0  0  0  0  0  0  0
  162.1050  206.0550  149.2560 C   0  0  0  0  0  2  0  0  0  0  0  0
  159.8480  206.4130  148.5520 O   0  0  0  0  0  0  0  0  0  0  0  0
  160.9120  205.7540  148.4040 C   0  0  0  0  0  0  0  0  0  0  0  0
  160.9810  204.7700  147.4190 O   0  0  0  0  0  0  0  0  0  0  0  0
  161.2820  205.0900  146.1540 O   0  0  0  0  0  0  0  0  0  0  0  0
  161.7500  203.9070  145.5800 C   0  0  0  0  0  2  0  0  0  0  0  0
  161.1570  202.7220  146.3170 C   0  0  0  0  0  2  0  0  0  0  0  0
  159.5650  202.4700  144.5520 O   0  0  0  0  0  1  0  0  0  0  0  0
  160.4840  201.7770  145.3390 C   0  0  0  0  0  2  0  0  0  0  0  0
  1  9  1  0  0  0  0
  1 21  1  1  0  0  0
  3  9  2  0  0  0  0
  4  9  1  6  0  0  0
  4  5  1  0  0  0  0
  4 27  1  0  0  0  0
  5 21  1  6  0  0  0
  5  2  1  0  0  0  0
  6 23  1  0  0  0  0
  7 16  1  0  0  0  0
  8 24  1  0  0  0  0
 10 12  1  0  0  0  0
 11 45  1  6  0  0  0
 11 10  1  0  0  0  0
 12  1  1  0  0  0  0
 14 25  2  0  0  0  0
 15 20  1  0  0  0  0
 16 18  1  0  0  0  0
 17  8  2  0  0  0  0
 19  2  1  0  0  0  0
 19 18  2  0  0  0  0
 20 24  2  0  0  0  0
 20 28  1  0  0  0  0
 22 17  1  0  0  0  0
 22 15  2  0  0  0  0
 23 11  1  0  0  0  0
 24  3  1  0  0  0  0
 25 13  1  0  0  0  0
 25 17  1  0  0  0  0
 26 13  1  0  0  0  0
 26  6  1  0  0  0  0
 27  7  2  0  0  0  0
 27 19  1  0  0  0  0
 29 14  1  0  0  0  0
 30 29  1  0  0  0  0
 31 30  1  0  0  0  0
 32 44  1  6  0  0  0
 32 35  1  0  0  0  0
 32 33  1  0  0  0  0
 33 34  1  0  0  0  0
 34 31  1  6  0  0  0
 35 37  1  6  0  0  0
 35 36  1  0  0  0  0
 36 34  1  0  0  0  0
 37 40  1  0  0  0  0
 38 37  1  0  0  0  0
 39 37  1  0  0  0  0
 41 44  2  0  0  0  0
 42 44  1  0  0  0  0
 43 42  1  0  0  0  0
 45 52  1  0  0  0  0
 46 49  1  0  0  0  0
 47 48  1  0  0  0  0
 49 51  1  0  0  0  0
 50 49  2  0  0  0  0
 50 52  1  0  0  0  0
 51 48  2  0  0  0  0
 52 47  2  0  0  0  0
 53 50  1  0  0  0  0
 55 54  2  0  0  0  0
 55 53  1  0  0  0  0
 56 55  1  0  0  0  0
 57 56  1  0  0  0  0
 58 57  1  0  0  0  0
 58 59  1  0  0  0  0
 60 61  1  0  0  0  0
 61 59  1  0  0  0  0
M  END
>  <MODEL>
2

>  <REMARK>
 VINA RESULT:      -7.9      1.606      2.047
  Name = 
  15 active torsions:
  status: ('A' for Active; 'I' for Inactive)
    1  A    between atoms: C_1  and  C_8
    2  A    between atoms: C_1  and  C_25
    3  A    between atoms: O_2  and  C_58
    4  A    between atoms: O_2  and  O_59
    5  A    between atoms: C_8  and  C_26
    6  A    between atoms: C_9  and  C_57
    7  A    between atoms: C_11  and  C_49
    8  A    between atoms: C_11  and  C_58
    9  A    between atoms: C_20  and  C_29
   10  A    between atoms: C_21  and  N_35
   11  A    between atoms: C_23  and  C_37
   12  A    between atoms: C_23  and  O_59
   13  A    between atoms: C_25  and  C_28
   14  A    between atoms: N_35  and  C_55
   15  A    between atoms: C_37  and  C_47
                            x       y       z     vdW  Elec       q    Type
                         _______ _______ _______ _____ _____    ______ ____

>  <TORSDO>
F 15

$$$$
=
 OpenBabel11052412013D

 61 67  0  0  1  0  0  0  0  0999 V2000
  159.0340  211.3060  152.7700 C   0  0  1  0  0  3  0  0  0  0  0  0
  157.8620  211.1080  156.5560 S   0  0  0  0  0  0  0  0  0  0  0  0
  158.2540  213.6020  152.2830 N   0  0  0  0  0  0  0  0  0  0  0  0
  158.6640  212.9570  154.5910 C   0  0  1  0  0  3  0  0  0  0  0  0
  159.0480  211.5990  155.2180 C   0  0  2  0  0  3  0  0  0  0  0  0
  162.1940  210.7430  149.0870 C   0  0  0  0  0  2  0  0  0  0  0  0
  156.6310  214.4530  155.2300 C   0  0  0  0  0  3  0  0  0  0  0  0
  159.3510  213.2550  150.1000 C   0  0  0  0  0  3  0  0  0  0  0  0
  158.6480  212.6960  153.1300 C   0  0  0  0  0  0  0  0  0  0  0  0
  160.4810  210.1340  151.5370 C   0  0  0  0  0  2  0  0  0  0  0  0
  161.9610  209.7990  151.4140 C   0  0  2  0  0  3  0  0  0  0  0  0
  160.3410  211.3130  152.2760 O   0  0  0  0  0  0  0  0  0  0  0  0
  161.8770  213.1690  148.5360 C   0  0  0  0  0  2  0  0  0  0  0  0
  160.4090  212.9460  146.5470 C   0  0  0  0  0  3  0  0  0  0  0  0
  156.8830  213.5830  148.8200 C   0  0  0  0  0  3  0  0  0  0  0  0
  155.7800  214.2770  156.2290 O   0  0  0  0  0  0  0  0  0  0  0  0
  159.2890  213.2170  148.6930 C   0  0  0  0  0  0  0  0  0  0  0  0
  155.9080  213.1050  156.7910 N   0  0  0  0  0  0  0  0  0  0  0  0
  156.8360  212.4620  156.0690 C   0  0  0  0  0  0  0  0  0  0  0  0
  156.9560  213.6300  150.2120 C   0  0  0  0  0  0  0  0  0  0  0  0
  158.9960  210.5610  154.1010 C   0  0  0  0  0  2  0  0  0  0  0  0
  158.0390  213.3790  148.0670 C   0  0  0  0  0  3  0  0  0  0  0  0
  162.6700  210.8200  150.5290 C   0  0  0  0  0  2  0  0  0  0  0  0
  158.1860  213.4490  150.8610 C   0  0  0  0  0  0  0  0  0  0  0  0
  160.5230  213.0740  147.8760 C   0  0  0  0  0  0  0  0  0  0  0  0
  162.7270  211.9250  148.3040 C   0  0  0  0  0  2  0  0  0  0  0  0
  157.3140  213.2630  155.1110 C   0  0  0  0  0  0  0  0  0  0  0  0
  155.7990  213.8520  150.9490 O   0  0  0  0  0  1  0  0  0  0  0  0
  161.5610  212.8740  145.5990 C   0  0  0  0  0  2  0  0  0  0  0  0
  161.5350  214.0590  144.6440 C   0  0  0  0  0  2  0  0  0  0  0  0
  162.6550  213.9680  143.6130 C   0  0  0  0  0  2  0  0  0  0  0  0
  161.8170  212.3280  140.9280 C   0  0  1  0  0  3  0  0  0  0  0  0
  163.1050  213.5850  140.9400 S   0  0  0  0  0  0  0  0  0  0  0  0
  162.1920  214.4430  142.2410 C   0  0  1  0  0  3  0  0  0  0  0  0
  160.5090  212.9980  141.3210 C   0  0  2  0  0  3  0  0  0  0  0  0
  160.7560  214.2260  142.0810 N   0  0  0  0  0  2  0  0  0  0  0  0
  159.6050  212.0530  142.1160 C   0  0  0  0  0  0  0  0  0  0  0  0
  158.6950  211.4420  141.2720 F   0  0  0  0  0  0  0  0  0  0  0  0
  158.9090  212.7770  143.0680 F   0  0  0  0  0  0  0  0  0  0  0  0
  160.3640  211.0820  142.7500 F   0  0  0  0  0  0  0  0  0  0  0  0
  161.8150  212.4170  138.5380 O   0  0  0  0  0  0  0  0  0  0  0  0
  161.5010  210.2990  139.4660 N   0  0  0  0  0  2  0  0  0  0  0  0
  161.3760  209.6360  138.1790 C   0  0  0  0  0  1  0  0  0  0  0  0
  161.7130  211.7050  139.5740 C   0  0  0  0  0  0  0  0  0  0  0  0
  162.1600  208.4530  150.8940 N   0  0  0  0  0  2  0  0  0  0  0  0
  161.4060  203.6210  150.9470 O   0  0  0  0  0  1  0  0  0  0  0  0
  161.4940  207.2910  152.9630 C   0  0  0  0  0  3  0  0  0  0  0  0
  161.1570  206.1210  153.6440 C   0  0  0  0  0  3  0  0  0  0  0  0
  161.4270  204.8490  151.5990 C   0  0  0  0  0  0  0  0  0  0  0  0
  161.7490  206.0290  150.9000 C   0  0  0  0  0  0  0  0  0  0  0  0
  161.1260  204.9020  152.9630 C   0  0  0  0  0  3  0  0  0  0  0  0
  161.7930  207.2560  151.5910 C   0  0  0  0  0  0  0  0  0  0  0  0
  162.1250  205.9840  149.4470 C   0  0  0  0  0  2  0  0  0  0  0  0
  159.8250  206.4900  149.0340 O   0  0  0  0  0  0  0  0  0  0  0  0
  160.9360  206.1430  148.5520 C   0  0  0  0  0  0  0  0  0  0  0  0
  161.0580  205.9430  147.1770 O   0  0  0  0  0  0  0  0  0  0  0  0
  161.5680  204.8030  146.6950 O   0  0  0  0  0  0  0  0  0  0  0  0
  160.7010  204.4180  145.6730 C   0  0  0  0  0  2  0  0  0  0  0  0
  161.1730  203.1030  145.0820 C   0  0  0  0  0  2  0  0  0  0  0  0
  161.0980  201.0660  146.3320 O   0  0  0  0  0  1  0  0  0  0  0  0
  160.3180  201.9590  145.5960 C   0  0  0  0  0  2  0  0  0  0  0  0
  1  9  1  0  0  0  0
  1 21  1  1  0  0  0
  3  9  2  0  0  0  0
  4  9  1  6  0  0  0
  4 27  1  0  0  0  0
  4  5  1  0  0  0  0
  5 21  1  6  0  0  0
  5  2  1  0  0  0  0
  6 23  1  0  0  0  0
  7 16  1  0  0  0  0
  8 24  1  0  0  0  0
 10 12  1  0  0  0  0
 11 45  1  6  0  0  0
 11 10  1  0  0  0  0
 12  1  1  0  0  0  0
 14 25  2  0  0  0  0
 15 20  1  0  0  0  0
 16 18  1  0  0  0  0
 17  8  2  0  0  0  0
 19  2  1  0  0  0  0
 19 18  2  0  0  0  0
 20 24  2  0  0  0  0
 20 28  1  0  0  0  0
 22 17  1  0  0  0  0
 22 15  2  0  0  0  0
 23 11  1  0  0  0  0
 24  3  1  0  0  0  0
 25 13  1  0  0  0  0
 25 17  1  0  0  0  0
 26 13  1  0  0  0  0
 26  6  1  0  0  0  0
 27  7  2  0  0  0  0
 27 19  1  0  0  0  0
 29 14  1  0  0  0  0
 30 29  1  0  0  0  0
 31 30  1  0  0  0  0
 32 44  1  6  0  0  0
 32 33  1  0  0  0  0
 32 35  1  0  0  0  0
 33 34  1  0  0  0  0
 34 31  1  1  0  0  0
 35 36  1  0  0  0  0
 35 37  1  1  0  0  0
 36 34  1  0  0  0  0
 37 40  1  0  0  0  0
 37 39  1  0  0  0  0
 38 37  1  0  0  0  0
 41 44  2  0  0  0  0
 42 44  1  0  0  0  0
 43 42  1  0  0  0  0
 45 52  1  0  0  0  0
 46 49  1  0  0  0  0
 47 48  1  0  0  0  0
 49 51  1  0  0  0  0
 50 52  1  0  0  0  0
 50 49  2  0  0  0  0
 51 48  2  0  0  0  0
 52 47  2  0  0  0  0
 53 50  1  0  0  0  0
 55 54  2  0  0  0  0
 55 53  1  0  0  0  0
 56 55  1  0  0  0  0
 57 56  1  0  0  0  0
 58 57  1  0  0  0  0
 59 61  1  0  0  0  0
 59 58  1  0  0  0  0
 61 60  1  0  0  0  0
M  END
>  <MODEL>
3

>  <REMARK>
 VINA RESULT:      -7.4      1.445      1.739
  Name = 
  15 active torsions:
  status: ('A' for Active; 'I' for Inactive)
    1  A    between atoms: C_1  and  C_8
    2  A    between atoms: C_1  and  C_25
    3  A    between atoms: O_2  and  C_58
    4  A    between atoms: O_2  and  O_59
    5  A    between atoms: C_8  and  C_26
    6  A    between atoms: C_9  and  C_57
    7  A    between atoms: C_11  and  C_49
    8  A    between atoms: C_11  and  C_58
    9  A    between atoms: C_20  and  C_29
   10  A    between atoms: C_21  and  N_35
   11  A    between atoms: C_23  and  C_37
   12  A    between atoms: C_23  and  O_59
   13  A    between atoms: C_25  and  C_28
   14  A    between atoms: N_35  and  C_55
   15  A    between atoms: C_37  and  C_47
                            x       y       z     vdW  Elec       q    Type
                         _______ _______ _______ _____ _____    ______ ____

>  <TORSDO>
F 15

$$$$
