=
 OpenBabel11042421343D

 45 47  0  0  1  0  0  0  0  0999 V2000
  158.5120  213.5170  149.0780 C   0  0  0  0  0  2  0  0  0  0  0  0
  155.6830  214.0440  145.1900 O   0  0  0  0  0  0  0  0  0  0  0  0
  156.9370  213.8040  147.1690 C   0  0  0  0  0  2  0  0  0  0  0  0
  160.4850  212.4980  147.2900 N   0  0  0  0  0  2  0  0  0  0  0  0
  160.0960  212.4410  144.4810 C   0  0  0  0  0  1  0  0  0  0  0  0
  158.3960  213.9270  147.6140 C   0  0  2  0  0  3  0  0  0  0  0  0
  157.9980  213.8870  144.7770 C   0  0  0  0  0  2  0  0  0  0  0  0
  160.6670  212.3440  148.7330 C   0  0  2  0  0  3  0  0  0  0  0  0
  156.7940  213.9120  145.6760 C   0  0  0  0  0  0  0  0  0  0  0  0
  159.1360  213.1240  145.3950 C   0  0  0  0  0  0  0  0  0  0  0  0
  159.3260  213.1260  146.7250 C   0  0  0  0  0  0  0  0  0  0  0  0
  159.9770  213.4690  149.5030 C   0  0  2  0  0  3  0  0  0  0  0  0
  160.0710  213.2120  150.9000 O   0  0  0  0  0  0  0  0  0  0  0  0
  157.8790  212.6610  151.3940 O   0  0  0  0  0  0  0  0  0  0  0  0
  158.9590  213.2100  151.7440 C   0  0  0  0  0  0  0  0  0  0  0  0
  159.0560  213.8760  153.0700 C   0  0  0  0  0  2  0  0  0  0  0  0
  159.6920  214.3720  155.8010 O   0  0  0  0  0  0  0  0  0  0  0  0
  159.4600  213.1800  155.4660 C   0  0  0  0  0  0  0  0  0  0  0  0
  159.1000  212.8670  154.1190 N   0  0  0  0  0  2  0  0  0  0  0  0
  159.5460  212.1470  156.4530 N   0  0  0  0  0  2  0  0  0  0  0  0
  159.3760  210.7220  156.1810 C   0  0  1  0  0  3  0  0  0  0  0  0
  159.9320  210.3610  154.8140 C   0  0  0  0  0  1  0  0  0  0  0  0
  160.0330  209.8730  157.2610 C   0  0  0  0  0  2  0  0  0  0  0  0
  161.2440  209.2400  156.7350 N   0  0  0  0  0  0  0  0  0  0  0  0
  162.4700  209.8570  157.2600 C   0  0  0  0  0  2  0  0  0  0  0  0
  163.1960  210.7410  156.2500 C   0  0  0  0  0  1  0  0  0  0  0  0
  161.2390  207.7790  156.9100 C   0  0  0  0  0  2  0  0  0  0  0  0
  160.2280  207.0470  156.0240 C   0  0  0  0  0  2  0  0  0  0  0  0
  160.7800  206.8850  154.6200 C   0  0  0  0  0  1  0  0  0  0  0  0
  162.1550  212.2220  149.1030 C   0  0  1  0  0  3  0  0  0  0  0  0
  161.9610  209.8660  148.4420 N   0  0  0  0  0  2  0  0  0  0  0  0
  161.3320  208.7430  150.4590 C   0  0  0  0  0  2  0  0  0  0  0  0
  162.5510  210.7750  149.4180 C   0  0  2  0  0  3  0  0  0  0  0  0
  161.9930  210.2990  151.0920 S   0  0  0  0  0  0  0  0  0  0  0  0
  161.9070  208.5620  149.0720 C   0  0  1  0  0  3  0  0  0  0  0  0
  161.0400  207.6310  148.2440 C   0  0  0  0  0  2  0  0  0  0  0  0
  161.9030  206.6410  147.4750 C   0  0  0  0  0  2  0  0  0  0  0  0
  161.6380  205.2860  147.9300 N   0  0  0  0  0  0  0  0  0  0  0  0
  161.7430  204.1430  145.7970 C   0  0  0  0  0  2  0  0  0  0  0  0
  162.0210  204.1830  147.0960 C   0  0  0  0  0  3  0  0  0  0  0  0
  160.8570  205.1090  149.1510 C   0  0  0  0  0  2  0  0  0  0  0  0
  160.9150  203.6600  149.6080 C   0  0  0  0  0  1  0  0  0  0  0  0
  162.9280  214.1260  147.7720 C   0  0  0  0  0  2  0  0  0  0  0  0
  163.0500  212.8390  148.0650 C   0  0  0  0  0  0  0  0  0  0  0  0
  163.9940  212.0710  147.3940 O   0  0  0  0  0  1  0  0  0  0  0  0
  1 12  1  0  0  0  0
  2  9  2  0  0  0  0
  4  8  1  0  0  0  0
  5 10  1  0  0  0  0
  6  3  1  6  0  0  0
  6  1  1  0  0  0  0
  7 10  1  0  0  0  0
  7  9  1  0  0  0  0
  8 30  1  6  0  0  0
  8 12  1  0  0  0  0
  9  3  1  0  0  0  0
 10 11  2  0  0  0  0
 11  4  1  0  0  0  0
 11  6  1  0  0  0  0
 12 13  1  1  0  0  0
 13 15  1  0  0  0  0
 14 15  2  0  0  0  0
 15 16  1  0  0  0  0
 16 19  1  0  0  0  0
 18 17  2  0  0  0  0
 18 20  1  0  0  0  0
 19 18  1  0  0  0  0
 21 22  1  6  0  0  0
 21 20  1  0  0  0  0
 21 23  1  0  0  0  0
 24 27  1  0  0  0  0
 24 25  1  0  0  0  0
 24 23  1  0  0  0  0
 26 25  1  0  0  0  0
 28 27  1  0  0  0  0
 29 28  1  0  0  0  0
 30 44  1  6  0  0  0
 31 35  1  0  0  0  0
 31 33  1  0  0  0  0
 32 34  1  0  0  0  0
 33 30  1  6  0  0  0
 33 34  1  0  0  0  0
 35 36  1  6  0  0  0
 35 32  1  0  0  0  0
 37 38  1  0  0  0  0
 37 36  1  0  0  0  0
 38 41  1  0  0  0  0
 39 40  2  0  0  0  0
 40 38  1  0  0  0  0
 41 42  1  0  0  0  0
 43 44  2  0  0  0  0
 45 44  1  0  0  0  0
M  END
>  <MODEL>
1

>  <REMARK>
 VINA RESULT:      -5.5      0.000      0.000
  Name = 
  18 active torsions:
  status: ('A' for Active; 'I' for Inactive)
    1  A    between atoms: C_1  and  C_11
    2  A    between atoms: C_1  and  N_14
    3  A    between atoms: C_3  and  C_27
    4  A    between atoms: C_3  and  C_30
    5  A    between atoms: C_3  and  C_33
    6  A    between atoms: C_7  and  C_12
    7  A    between atoms: C_7  and  N_14
    8  A    between atoms: N_10  and  C_18
    9  A    between atoms: C_12  and  N_23
   10  A    between atoms: N_14  and  C_17
   11  A    between atoms: C_15  and  C_24
   12  A    between atoms: C_15  and  C_42
   13  A    between atoms: N_16  and  C_24
   14  A    between atoms: N_16  and  C_26
   15  A    between atoms: N_16  and  C_43
   16  A    between atoms: C_18  and  C_45
   17  A    between atoms: C_38  and  O_41
   18  A    between atoms: O_41  and  C_45
                            x       y       z     vdW  Elec       q    Type
                         _______ _______ _______ _____ _____    ______ ____

>  <TORSDO>
F 18

$$$$
=
 OpenBabel11042421343D

 45 47  0  0  1  0  0  0  0  0999 V2000
  160.8390  207.6600  152.4830 C   0  0  0  0  0  2  0  0  0  0  0  0
  160.8970  206.9120  157.2610 O   0  0  0  0  0  0  0  0  0  0  0  0
  160.8350  207.1300  154.9170 C   0  0  0  0  0  2  0  0  0  0  0  0
  160.7360  210.4420  153.0940 N   0  0  0  0  0  2  0  0  0  0  0  0
  160.9000  211.4140  155.7530 C   0  0  0  0  0  1  0  0  0  0  0  0
  161.3650  208.0880  153.8490 C   0  0  2  0  0  3  0  0  0  0  0  0
  161.5460  209.0590  156.5380 C   0  0  0  0  0  2  0  0  0  0  0  0
  160.4750  209.9920  151.7280 C   0  0  2  0  0  3  0  0  0  0  0  0
  161.0720  207.6520  156.3080 C   0  0  0  0  0  0  0  0  0  0  0  0
  161.1210  209.9760  155.4260 C   0  0  0  0  0  0  0  0  0  0  0  0
  161.0220  209.5290  154.1630 C   0  0  0  0  0  0  0  0  0  0  0  0
  161.2150  208.6900  151.4220 C   0  0  2  0  0  3  0  0  0  0  0  0
  160.8330  208.2220  150.1320 O   0  0  0  0  0  0  0  0  0  0  0  0
  162.6970  206.8930  149.7970 O   0  0  0  0  0  0  0  0  0  0  0  0
  161.6850  207.4730  149.3180 C   0  0  0  0  0  0  0  0  0  0  0  0
  161.3910  207.3710  147.8640 C   0  0  0  0  0  2  0  0  0  0  0  0
  162.7080  206.1780  145.6400 O   0  0  0  0  0  0  0  0  0  0  0  0
  161.9590  205.4410  146.3330 C   0  0  0  0  0  0  0  0  0  0  0  0
  161.2950  205.9690  147.4850 N   0  0  0  0  0  2  0  0  0  0  0  0
  161.7920  204.0680  145.9650 N   0  0  0  0  0  2  0  0  0  0  0  0
  160.8960  203.1310  146.6380 C   0  0  1  0  0  3  0  0  0  0  0  0
  160.5260  201.9790  145.7180 C   0  0  0  0  0  1  0  0  0  0  0  0
  161.5170  202.6020  147.9240 C   0  0  0  0  0  2  0  0  0  0  0  0
  160.5580  202.7070  149.0250 N   0  0  0  0  0  0  0  0  0  0  0  0
  160.2660  201.4040  149.6380 C   0  0  0  0  0  2  0  0  0  0  0  0
  158.8100  200.9700  149.5000 C   0  0  0  0  0  1  0  0  0  0  0  0
  160.9510  203.7150  150.0230 C   0  0  0  0  0  2  0  0  0  0  0  0
  161.1370  203.1560  151.4360 C   0  0  0  0  0  2  0  0  0  0  0  0
  161.1410  204.2840  152.4500 C   0  0  0  0  0  1  0  0  0  0  0  0
  160.7940  211.0910  150.7010 C   0  0  1  0  0  3  0  0  0  0  0  0
  159.4330  212.4060  152.2630 N   0  0  0  0  0  2  0  0  0  0  0  0
  158.5040  214.1450  150.9080 C   0  0  0  0  0  2  0  0  0  0  0  0
  160.4650  212.4890  151.2360 C   0  0  2  0  0  3  0  0  0  0  0  0
  159.8830  213.5800  149.8910 S   0  0  0  0  0  0  0  0  0  0  0  0
  158.8070  213.7120  152.3250 C   0  0  1  0  0  3  0  0  0  0  0  0
  157.5340  213.6280  153.1500 C   0  0  0  0  0  2  0  0  0  0  0  0
  157.6270  212.4970  154.1630 C   0  0  0  0  0  2  0  0  0  0  0  0
  156.4710  212.5180  155.0440 N   0  0  0  0  0  0  0  0  0  0  0  0
  154.9170  213.9440  156.2360 C   0  0  0  0  0  2  0  0  0  0  0  0
  155.7510  213.7470  155.2190 C   0  0  0  0  0  3  0  0  0  0  0  0
  156.1820  211.3230  155.8300 C   0  0  0  0  0  2  0  0  0  0  0  0
  155.2720  210.3860  155.0500 C   0  0  0  0  0  1  0  0  0  0  0  0
  162.4720  211.3110  148.9320 C   0  0  0  0  0  2  0  0  0  0  0  0
  162.2050  210.9980  150.1910 C   0  0  0  0  0  0  0  0  0  0  0  0
  163.2330  210.5680  151.0230 O   0  0  0  0  0  1  0  0  0  0  0  0
  3  9  1  0  0  0  0
  4 11  1  0  0  0  0
  6  1  1  6  0  0  0
  6 11  1  0  0  0  0
  6  3  1  0  0  0  0
  8 30  1  6  0  0  0
  8  4  1  0  0  0  0
  9  7  1  0  0  0  0
  9  2  2  0  0  0  0
 10  5  1  0  0  0  0
 10  7  1  0  0  0  0
 11 10  2  0  0  0  0
 12 13  1  6  0  0  0
 12  8  1  0  0  0  0
 12  1  1  0  0  0  0
 15 14  2  0  0  0  0
 15 13  1  0  0  0  0
 16 15  1  0  0  0  0
 17 18  2  0  0  0  0
 18 19  1  0  0  0  0
 19 16  1  0  0  0  0
 20 18  1  0  0  0  0
 20 21  1  0  0  0  0
 21 22  1  6  0  0  0
 21 23  1  0  0  0  0
 23 24  1  0  0  0  0
 24 25  1  0  0  0  0
 24 27  1  0  0  0  0
 26 25  1  0  0  0  0
 27 28  1  0  0  0  0
 28 29  1  0  0  0  0
 30 44  1  1  0  0  0
 31 35  1  0  0  0  0
 32 35  1  0  0  0  0
 33 30  1  6  0  0  0
 33 31  1  0  0  0  0
 34 32  1  0  0  0  0
 34 33  1  0  0  0  0
 35 36  1  1  0  0  0
 36 37  1  0  0  0  0
 37 38  1  0  0  0  0
 38 40  1  0  0  0  0
 38 41  1  0  0  0  0
 40 39  2  0  0  0  0
 42 41  1  0  0  0  0
 43 44  2  0  0  0  0
 44 45  1  0  0  0  0
M  END
>  <MODEL>
2

>  <REMARK>
 VINA RESULT:      -5.2      3.389      9.572
  Name = 
  18 active torsions:
  status: ('A' for Active; 'I' for Inactive)
    1  A    between atoms: C_1  and  C_11
    2  A    between atoms: C_1  and  N_14
    3  A    between atoms: C_3  and  C_27
    4  A    between atoms: C_3  and  C_30
    5  A    between atoms: C_3  and  C_33
    6  A    between atoms: C_7  and  C_12
    7  A    between atoms: C_7  and  N_14
    8  A    between atoms: N_10  and  C_18
    9  A    between atoms: C_12  and  N_23
   10  A    between atoms: N_14  and  C_17
   11  A    between atoms: C_15  and  C_24
   12  A    between atoms: C_15  and  C_42
   13  A    between atoms: N_16  and  C_24
   14  A    between atoms: N_16  and  C_26
   15  A    between atoms: N_16  and  C_43
   16  A    between atoms: C_18  and  C_45
   17  A    between atoms: C_38  and  O_41
   18  A    between atoms: O_41  and  C_45
                            x       y       z     vdW  Elec       q    Type
                         _______ _______ _______ _____ _____    ______ ____

>  <TORSDO>
F 18

$$$$
=
 OpenBabel11042421343D

 45 47  0  0  1  0  0  0  0  0999 V2000
  161.5730  205.1330  153.0360 C   0  0  0  0  0  2  0  0  0  0  0  0
  160.8460  201.1560  150.3810 O   0  0  0  0  0  0  0  0  0  0  0  0
  161.2220  203.0030  151.7940 C   0  0  0  0  0  2  0  0  0  0  0  0
  161.8610  206.5220  150.5640 N   0  0  0  0  0  2  0  0  0  0  0  0
  161.4580  205.2530  148.0600 C   0  0  0  0  0  1  0  0  0  0  0  0
  160.9230  204.5020  151.8090 C   0  0  2  0  0  3  0  0  0  0  0  0
  160.4990  203.2140  149.2860 C   0  0  0  0  0  2  0  0  0  0  0  0
  162.2480  207.1780  151.8120 C   0  0  2  0  0  3  0  0  0  0  0  0
  160.8630  202.3720  150.4760 C   0  0  0  0  0  0  0  0  0  0  0  0
  161.1450  204.5700  149.3480 C   0  0  0  0  0  0  0  0  0  0  0  0
  161.3590  205.1790  150.5260 C   0  0  0  0  0  0  0  0  0  0  0  0
  161.4330  206.6520  152.9920 C   0  0  2  0  0  3  0  0  0  0  0  0
  161.9270  207.2220  154.2000 O   0  0  0  0  0  0  0  0  0  0  0  0
  159.9140  207.1370  155.3360 O   0  0  0  0  0  0  0  0  0  0  0  0
  161.0960  207.5690  155.2660 C   0  0  0  0  0  0  0  0  0  0  0  0
  161.6190  208.4710  156.3270 C   0  0  0  0  0  2  0  0  0  0  0  0
  162.5940  211.0440  155.5960 O   0  0  0  0  0  0  0  0  0  0  0  0
  161.4030  210.9680  155.9990 C   0  0  0  0  0  0  0  0  0  0  0  0
  160.8400  209.7010  156.3480 N   0  0  0  0  0  2  0  0  0  0  0  0
  160.6150  212.1600  156.0870 N   0  0  0  0  0  2  0  0  0  0  0  0
  159.2520  212.2190  156.6080 C   0  0  1  0  0  3  0  0  0  0  0  0
  158.9780  213.5630  157.2600 C   0  0  0  0  0  1  0  0  0  0  0  0
  158.2320  211.9450  155.5110 C   0  0  0  0  0  2  0  0  0  0  0  0
  157.2990  213.0680  155.4010 N   0  0  0  0  0  0  0  0  0  0  0  0
  157.5820  213.9160  154.2350 C   0  0  0  0  0  2  0  0  0  0  0  0
  157.8720  213.1330  152.9580 C   0  0  0  0  0  1  0  0  0  0  0  0
  155.8920  212.6400  155.4470 C   0  0  0  0  0  2  0  0  0  0  0  0
  155.6210  211.4850  156.4140 C   0  0  0  0  0  2  0  0  0  0  0  0
  155.0130  210.3100  155.6720 C   0  0  0  0  0  1  0  0  0  0  0  0
  162.1660  208.7090  151.6920 C   0  0  1  0  0  3  0  0  0  0  0  0
  162.5470  210.6580  150.2500 N   0  0  0  0  0  2  0  0  0  0  0  0
  161.4290  210.1020  148.2090 C   0  0  0  0  0  2  0  0  0  0  0  0
  162.6300  209.2040  150.3170 C   0  0  2  0  0  3  0  0  0  0  0  0
  161.6040  208.4840  148.9880 S   0  0  0  0  0  0  0  0  0  0  0  0
  162.4650  211.0010  148.8440 C   0  0  1  0  0  3  0  0  0  0  0  0
  162.0780  212.4630  148.6980 C   0  0  0  0  0  2  0  0  0  0  0  0
  161.2620  212.6760  147.4320 C   0  0  0  0  0  2  0  0  0  0  0  0
  160.0170  213.3580  147.7470 N   0  0  0  0  0  0  0  0  0  0  0  0
  159.7160  214.2050  149.9970 C   0  0  0  0  0  2  0  0  0  0  0  0
  160.0280  214.4120  148.7210 C   0  0  0  0  0  3  0  0  0  0  0  0
  158.7820  212.8400  147.1680 C   0  0  0  0  0  2  0  0  0  0  0  0
  157.8260  213.9820  146.8600 C   0  0  0  0  0  1  0  0  0  0  0  0
  160.6670  210.4850  152.4630 C   0  0  0  0  0  2  0  0  0  0  0  0
  160.8030  209.2330  152.0510 C   0  0  0  0  0  0  0  0  0  0  0  0
  159.6850  208.4120  151.9740 O   0  0  0  0  0  1  0  0  0  0  0  0
  2  9  2  0  0  0  0
  4  8  1  0  0  0  0
  5 10  1  0  0  0  0
  6  3  1  6  0  0  0
  6  1  1  0  0  0  0
  7 10  1  0  0  0  0
  7  9  1  0  0  0  0
  8 30  1  6  0  0  0
  8 12  1  0  0  0  0
  9  3  1  0  0  0  0
 10 11  2  0  0  0  0
 11  4  1  0  0  0  0
 11  6  1  0  0  0  0
 12  1  1  0  0  0  0
 12 13  1  1  0  0  0
 13 15  1  0  0  0  0
 15 14  2  0  0  0  0
 15 16  1  0  0  0  0
 16 19  1  0  0  0  0
 17 18  2  0  0  0  0
 18 20  1  0  0  0  0
 18 19  1  0  0  0  0
 20 21  1  0  0  0  0
 21 22  1  6  0  0  0
 23 21  1  0  0  0  0
 24 27  1  0  0  0  0
 24 23  1  0  0  0  0
 25 24  1  0  0  0  0
 26 25  1  0  0  0  0
 27 28  1  0  0  0  0
 29 28  1  0  0  0  0
 30 44  1  6  0  0  0
 31 33  1  0  0  0  0
 32 35  1  0  0  0  0
 32 34  1  0  0  0  0
 33 30  1  1  0  0  0
 34 33  1  0  0  0  0
 35 36  1  1  0  0  0
 35 31  1  0  0  0  0
 37 38  1  0  0  0  0
 37 36  1  0  0  0  0
 38 40  1  0  0  0  0
 40 39  2  0  0  0  0
 41 38  1  0  0  0  0
 42 41  1  0  0  0  0
 44 43  2  0  0  0  0
 45 44  1  0  0  0  0
M  END
>  <MODEL>
3

>  <REMARK>
 VINA RESULT:      -4.7      3.092      7.539
  Name = 
  18 active torsions:
  status: ('A' for Active; 'I' for Inactive)
    1  A    between atoms: C_1  and  C_11
    2  A    between atoms: C_1  and  N_14
    3  A    between atoms: C_3  and  C_27
    4  A    between atoms: C_3  and  C_30
    5  A    between atoms: C_3  and  C_33
    6  A    between atoms: C_7  and  C_12
    7  A    between atoms: C_7  and  N_14
    8  A    between atoms: N_10  and  C_18
    9  A    between atoms: C_12  and  N_23
   10  A    between atoms: N_14  and  C_17
   11  A    between atoms: C_15  and  C_24
   12  A    between atoms: C_15  and  C_42
   13  A    between atoms: N_16  and  C_24
   14  A    between atoms: N_16  and  C_26
   15  A    between atoms: N_16  and  C_43
   16  A    between atoms: C_18  and  C_45
   17  A    between atoms: C_38  and  O_41
   18  A    between atoms: O_41  and  C_45
                            x       y       z     vdW  Elec       q    Type
                         _______ _______ _______ _____ _____    ______ ____

>  <TORSDO>
F 18

$$$$
=
 OpenBabel11042421343D

 45 47  0  0  1  0  0  0  0  0999 V2000
  159.5570  211.6960  153.6460 C   0  0  0  0  0  2  0  0  0  0  0  0
  155.2700  213.9120  153.9660 O   0  0  0  0  0  0  0  0  0  0  0  0
  157.3310  212.7720  153.9460 C   0  0  0  0  0  2  0  0  0  0  0  0
  159.4780  212.3180  150.8660 N   0  0  0  0  0  2  0  0  0  0  0  0
  157.4010  213.8760  149.7230 C   0  0  0  0  0  1  0  0  0  0  0  0
  158.6760  212.8670  153.2250 C   0  0  2  0  0  3  0  0  0  0  0  0
  156.5810  214.4530  152.0830 C   0  0  0  0  0  2  0  0  0  0  0  0
  160.4730  211.3720  151.3670 C   0  0  2  0  0  3  0  0  0  0  0  0
  156.3150  213.7200  153.3680 C   0  0  0  0  0  0  0  0  0  0  0  0
  157.5280  213.6930  151.1980 C   0  0  0  0  0  0  0  0  0  0  0  0
  158.5070  212.9380  151.7210 C   0  0  0  0  0  0  0  0  0  0  0  0
  160.8400  211.6700  152.8210 C   0  0  2  0  0  3  0  0  0  0  0  0
  161.7110  210.6540  153.3060 O   0  0  0  0  0  0  0  0  0  0  0  0
  162.7130  210.9270  155.3730 O   0  0  0  0  0  0  0  0  0  0  0  0
  161.8410  210.3560  154.6630 C   0  0  0  0  0  0  0  0  0  0  0  0
  160.9400  209.3400  155.2710 C   0  0  0  0  0  2  0  0  0  0  0  0
  160.3940  206.7020  156.1900 O   0  0  0  0  0  0  0  0  0  0  0  0
  160.6670  206.8460  154.9690 C   0  0  0  0  0  0  0  0  0  0  0  0
  160.9160  208.1490  154.4350 N   0  0  0  0  0  2  0  0  0  0  0  0
  160.7090  205.6940  154.1200 N   0  0  0  0  0  2  0  0  0  0  0  0
  161.0860  205.7150  152.7090 C   0  0  1  0  0  3  0  0  0  0  0  0
  162.5840  205.5190  152.5450 C   0  0  0  0  0  1  0  0  0  0  0  0
  160.3250  204.6590  151.9200 C   0  0  0  0  0  2  0  0  0  0  0  0
  161.2640  203.7490  151.2630 N   0  0  0  0  0  0  0  0  0  0  0  0
  161.2840  202.4190  151.8880 C   0  0  0  0  0  2  0  0  0  0  0  0
  162.6650  201.7700  151.9120 C   0  0  0  0  0  1  0  0  0  0  0  0
  161.0540  203.6740  149.8080 C   0  0  0  0  0  2  0  0  0  0  0  0
  161.1300  202.2560  149.2370 C   0  0  0  0  0  2  0  0  0  0  0  0
  159.7490  201.7820  148.8240 C   0  0  0  0  0  1  0  0  0  0  0  0
  161.7140  211.3250  150.4590 C   0  0  1  0  0  3  0  0  0  0  0  0
  162.1660  209.5340  148.8430 N   0  0  0  0  0  2  0  0  0  0  0  0
  161.0910  207.6140  149.7820 C   0  0  0  0  0  2  0  0  0  0  0  0
  162.2210  209.8930  150.2550 C   0  0  2  0  0  3  0  0  0  0  0  0
  161.2170  208.7050  151.2140 S   0  0  0  0  0  0  0  0  0  0  0  0
  162.1260  208.0870  148.7860 C   0  0  1  0  0  3  0  0  0  0  0  0
  161.7690  207.6410  147.3790 C   0  0  0  0  0  2  0  0  0  0  0  0
  160.8890  206.4010  147.4190 C   0  0  0  0  0  2  0  0  0  0  0  0
  161.2550  205.4920  146.3440 N   0  0  0  0  0  0  0  0  0  0  0  0
  163.4760  204.5560  146.0930 C   0  0  0  0  0  2  0  0  0  0  0  0
  162.2450  204.4830  146.5910 C   0  0  0  0  0  3  0  0  0  0  0  0
  160.7070  205.7420  145.0140 C   0  0  0  0  0  2  0  0  0  0  0  0
  160.3520  204.4270  144.3360 C   0  0  0  0  0  1  0  0  0  0  0  0
  161.5670  213.3580  149.1030 C   0  0  0  0  0  2  0  0  0  0  0  0
  161.4880  212.0360  149.1540 C   0  0  0  0  0  0  0  0  0  0  0  0
  161.1780  211.3230  148.0020 O   0  0  0  0  0  1  0  0  0  0  0  0
  4  8  1  0  0  0  0
  4 11  1  0  0  0  0
  5 10  1  0  0  0  0
  6  1  1  6  0  0  0
  6  3  1  0  0  0  0
  7  9  1  0  0  0  0
  8 30  1  6  0  0  0
  8 12  1  0  0  0  0
  9  3  1  0  0  0  0
  9  2  2  0  0  0  0
 10 11  2  0  0  0  0
 10  7  1  0  0  0  0
 11  6  1  0  0  0  0
 12 13  1  1  0  0  0
 12  1  1  0  0  0  0
 13 15  1  0  0  0  0
 15 16  1  0  0  0  0
 15 14  2  0  0  0  0
 18 17  2  0  0  0  0
 19 18  1  0  0  0  0
 19 16  1  0  0  0  0
 20 18  1  0  0  0  0
 21 22  1  1  0  0  0
 21 20  1  0  0  0  0
 23 21  1  0  0  0  0
 24 25  1  0  0  0  0
 24 23  1  0  0  0  0
 25 26  1  0  0  0  0
 27 24  1  0  0  0  0
 28 27  1  0  0  0  0
 29 28  1  0  0  0  0
 30 44  1  6  0  0  0
 31 33  1  0  0  0  0
 32 34  1  0  0  0  0
 33 30  1  6  0  0  0
 33 34  1  0  0  0  0
 35 36  1  6  0  0  0
 35 31  1  0  0  0  0
 35 32  1  0  0  0  0
 36 37  1  0  0  0  0
 38 40  1  0  0  0  0
 38 37  1  0  0  0  0
 39 40  2  0  0  0  0
 41 38  1  0  0  0  0
 42 41  1  0  0  0  0
 43 44  2  0  0  0  0
 45 44  1  0  0  0  0
M  END
>  <MODEL>
4

>  <REMARK>
 VINA RESULT:      -3.9      2.717      5.531
  Name = 
  18 active torsions:
  status: ('A' for Active; 'I' for Inactive)
    1  A    between atoms: C_1  and  C_11
    2  A    between atoms: C_1  and  N_14
    3  A    between atoms: C_3  and  C_27
    4  A    between atoms: C_3  and  C_30
    5  A    between atoms: C_3  and  C_33
    6  A    between atoms: C_7  and  C_12
    7  A    between atoms: C_7  and  N_14
    8  A    between atoms: N_10  and  C_18
    9  A    between atoms: C_12  and  N_23
   10  A    between atoms: N_14  and  C_17
   11  A    between atoms: C_15  and  C_24
   12  A    between atoms: C_15  and  C_42
   13  A    between atoms: N_16  and  C_24
   14  A    between atoms: N_16  and  C_26
   15  A    between atoms: N_16  and  C_43
   16  A    between atoms: C_18  and  C_45
   17  A    between atoms: C_38  and  O_41
   18  A    between atoms: O_41  and  C_45
                            x       y       z     vdW  Elec       q    Type
                         _______ _______ _______ _____ _____    ______ ____

>  <TORSDO>
F 18

$$$$
=
 OpenBabel11042421343D

 45 47  0  0  1  0  0  0  0  0999 V2000
  160.8080  207.5990  152.5210 C   0  0  0  0  0  2  0  0  0  0  0  0
  160.6240  206.5850  157.2470 O   0  0  0  0  0  0  0  0  0  0  0  0
  160.6860  206.9320  154.9180 C   0  0  0  0  0  2  0  0  0  0  0  0
  160.5560  210.3360  153.2750 N   0  0  0  0  0  2  0  0  0  0  0  0
  160.5280  211.1620  155.9880 C   0  0  0  0  0  1  0  0  0  0  0  0
  161.2370  207.9680  153.9370 C   0  0  2  0  0  3  0  0  0  0  0  0
  161.2240  208.7930  156.6810 C   0  0  0  0  0  2  0  0  0  0  0  0
  160.3910  209.9540  151.8740 C   0  0  2  0  0  3  0  0  0  0  0  0
  160.8220  207.3830  156.3470 C   0  0  0  0  0  0  0  0  0  0  0  0
  160.8260  209.7540  155.5970 C   0  0  0  0  0  0  0  0  0  0  0  0
  160.8180  209.3760  154.3080 C   0  0  0  0  0  0  0  0  0  0  0  0
  161.2000  208.7010  151.5410 C   0  0  2  0  0  3  0  0  0  0  0  0
  160.9120  208.2920  150.2080 O   0  0  0  0  0  0  0  0  0  0  0  0
  162.4200  206.5400  150.1310 O   0  0  0  0  0  0  0  0  0  0  0  0
  161.3920  207.1000  149.6630 C   0  0  0  0  0  0  0  0  0  0  0  0
  160.6780  206.4930  148.5080 C   0  0  0  0  0  2  0  0  0  0  0  0
  159.9440  204.9020  150.7520 O   0  0  0  0  0  0  0  0  0  0  0  0
  160.4270  204.3080  149.7530 C   0  0  0  0  0  0  0  0  0  0  0  0
  160.7830  205.0430  148.5790 N   0  0  0  0  0  2  0  0  0  0  0  0
  160.5990  202.8870  149.7980 N   0  0  0  0  0  2  0  0  0  0  0  0
  161.2150  202.0910  148.7400 C   0  0  1  0  0  3  0  0  0  0  0  0
  161.4760  200.6710  149.2140 C   0  0  0  0  0  1  0  0  0  0  0  0
  160.3520  202.0800  147.4860 C   0  0  0  0  0  2  0  0  0  0  0  0
  161.1950  201.9590  146.2960 N   0  0  0  0  0  0  0  0  0  0  0  0
  160.4770  201.3660  145.1600 C   0  0  0  0  0  2  0  0  0  0  0  0
  159.0610  201.9040  144.9770 C   0  0  0  0  0  1  0  0  0  0  0  0
  161.8520  203.2260  145.9380 C   0  0  0  0  0  2  0  0  0  0  0  0
  160.9640  204.1890  145.1450 C   0  0  0  0  0  2  0  0  0  0  0  0
  161.6930  205.4950  144.8990 C   0  0  0  0  0  1  0  0  0  0  0  0
  160.7230  211.1210  150.9280 C   0  0  1  0  0  3  0  0  0  0  0  0
  159.2130  212.3800  152.3970 N   0  0  0  0  0  2  0  0  0  0  0  0
  158.6370  214.3190  151.1190 C   0  0  0  0  0  2  0  0  0  0  0  0
  160.4030  212.4810  151.5600 C   0  0  2  0  0  3  0  0  0  0  0  0
  160.1240  213.7460  150.2730 S   0  0  0  0  0  0  0  0  0  0  0  0
  158.6720  213.7200  152.5070 C   0  0  1  0  0  3  0  0  0  0  0  0
  157.2780  213.6600  153.1070 C   0  0  0  0  0  2  0  0  0  0  0  0
  157.3310  213.9070  154.6080 C   0  0  0  0  0  2  0  0  0  0  0  0
  156.8380  212.7420  155.3240 N   0  0  0  0  0  0  0  0  0  0  0  0
  155.6990  210.6080  155.1790 C   0  0  0  0  0  2  0  0  0  0  0  0
  156.1620  211.7080  154.5930 C   0  0  0  0  0  3  0  0  0  0  0  0
  156.9210  212.7430  156.7810 C   0  0  0  0  0  2  0  0  0  0  0  0
  157.9410  213.7700  157.2500 C   0  0  0  0  0  1  0  0  0  0  0  0
  162.3830  211.2800  149.1360 C   0  0  0  0  0  2  0  0  0  0  0  0
  162.1360  211.0530  150.4180 C   0  0  0  0  0  0  0  0  0  0  0  0
  163.1840  210.7350  151.2730 O   0  0  0  0  0  1  0  0  0  0  0  0
  3  9  1  0  0  0  0
  4 11  1  0  0  0  0
  6  1  1  6  0  0  0
  6 11  1  0  0  0  0
  6  3  1  0  0  0  0
  8 30  1  6  0  0  0
  8  4  1  0  0  0  0
  9  7  1  0  0  0  0
  9  2  2  0  0  0  0
 10  5  1  0  0  0  0
 10  7  1  0  0  0  0
 11 10  2  0  0  0  0
 12 13  1  6  0  0  0
 12  8  1  0  0  0  0
 12  1  1  0  0  0  0
 15 14  2  0  0  0  0
 15 13  1  0  0  0  0
 16 19  1  0  0  0  0
 16 15  1  0  0  0  0
 18 20  1  0  0  0  0
 18 17  2  0  0  0  0
 19 18  1  0  0  0  0
 21 22  1  1  0  0  0
 21 20  1  0  0  0  0
 23 21  1  0  0  0  0
 24 23  1  0  0  0  0
 25 24  1  0  0  0  0
 26 25  1  0  0  0  0
 27 24  1  0  0  0  0
 28 27  1  0  0  0  0
 29 28  1  0  0  0  0
 30 44  1  1  0  0  0
 31 35  1  0  0  0  0
 32 35  1  0  0  0  0
 33 30  1  6  0  0  0
 33 31  1  0  0  0  0
 34 32  1  0  0  0  0
 34 33  1  0  0  0  0
 35 36  1  6  0  0  0
 36 37  1  0  0  0  0
 37 38  1  0  0  0  0
 38 41  1  0  0  0  0
 40 39  2  0  0  0  0
 40 38  1  0  0  0  0
 41 42  1  0  0  0  0
 43 44  2  0  0  0  0
 44 45  1  0  0  0  0
M  END
>  <MODEL>
5

>  <REMARK>
 VINA RESULT:      -3.9      3.456      9.926
  Name = 
  18 active torsions:
  status: ('A' for Active; 'I' for Inactive)
    1  A    between atoms: C_1  and  C_11
    2  A    between atoms: C_1  and  N_14
    3  A    between atoms: C_3  and  C_27
    4  A    between atoms: C_3  and  C_30
    5  A    between atoms: C_3  and  C_33
    6  A    between atoms: C_7  and  C_12
    7  A    between atoms: C_7  and  N_14
    8  A    between atoms: N_10  and  C_18
    9  A    between atoms: C_12  and  N_23
   10  A    between atoms: N_14  and  C_17
   11  A    between atoms: C_15  and  C_24
   12  A    between atoms: C_15  and  C_42
   13  A    between atoms: N_16  and  C_24
   14  A    between atoms: N_16  and  C_26
   15  A    between atoms: N_16  and  C_43
   16  A    between atoms: C_18  and  C_45
   17  A    between atoms: C_38  and  O_41
   18  A    between atoms: O_41  and  C_45
                            x       y       z     vdW  Elec       q    Type
                         _______ _______ _______ _____ _____    ______ ____

>  <TORSDO>
F 18

$$$$
=
 OpenBabel11042421343D

 45 47  0  0  1  0  0  0  0  0999 V2000
  161.1870  208.2350  148.5870 C   0  0  0  0  0  2  0  0  0  0  0  0
  160.6760  205.8000  144.4390 O   0  0  0  0  0  0  0  0  0  0  0  0
  160.8730  207.1090  146.3870 C   0  0  0  0  0  2  0  0  0  0  0  0
  161.3940  205.6910  149.8540 N   0  0  0  0  0  2  0  0  0  0  0  0
  161.4240  203.2650  148.3840 C   0  0  0  0  0  1  0  0  0  0  0  0
  161.6280  207.0630  147.7160 C   0  0  2  0  0  3  0  0  0  0  0  0
  161.6710  204.6210  146.2200 C   0  0  0  0  0  2  0  0  0  0  0  0
  161.2110  206.8910  150.6680 C   0  0  2  0  0  3  0  0  0  0  0  0
  161.0390  205.8360  145.6020 C   0  0  0  0  0  0  0  0  0  0  0  0
  161.4830  204.5950  147.7100 C   0  0  0  0  0  0  0  0  0  0  0  0
  161.4500  205.7340  148.4220 C   0  0  0  0  0  0  0  0  0  0  0  0
  161.7980  208.1230  149.9800 C   0  0  2  0  0  3  0  0  0  0  0  0
  161.4860  209.2840  150.7440 O   0  0  0  0  0  0  0  0  0  0  0  0
  162.6740  210.7990  149.4620 O   0  0  0  0  0  0  0  0  0  0  0  0
  161.7520  210.5780  150.2930 C   0  0  0  0  0  0  0  0  0  0  0  0
  160.9360  211.7070  150.8130 C   0  0  0  0  0  2  0  0  0  0  0  0
  159.8500  214.3330  150.9870 O   0  0  0  0  0  0  0  0  0  0  0  0
  159.8230  213.7670  149.8620 C   0  0  0  0  0  0  0  0  0  0  0  0
  160.3840  212.4630  149.6980 N   0  0  0  0  0  2  0  0  0  0  0  0
  159.2410  214.4510  148.7470 N   0  0  0  0  0  2  0  0  0  0  0  0
  159.0790  213.8790  147.4130 C   0  0  1  0  0  3  0  0  0  0  0  0
  157.6810  214.1360  146.8790 C   0  0  0  0  0  1  0  0  0  0  0  0
  160.1230  214.4280  146.4500 C   0  0  0  0  0  2  0  0  0  0  0  0
  160.4320  213.4310  145.4230 N   0  0  0  0  0  0  0  0  0  0  0  0
  160.0740  213.8890  144.0730 C   0  0  0  0  0  2  0  0  0  0  0  0
  159.0020  213.0380  143.3980 C   0  0  0  0  0  1  0  0  0  0  0  0
  161.8230  212.9560  145.4970 C   0  0  0  0  0  2  0  0  0  0  0  0
  162.5530  213.3570  146.7810 C   0  0  0  0  0  2  0  0  0  0  0  0
  163.7490  212.4520  147.0100 C   0  0  0  0  0  1  0  0  0  0  0  0
  161.7730  206.7010  152.0870 C   0  0  1  0  0  3  0  0  0  0  0  0
  160.5240  208.6010  153.0120 N   0  0  0  0  0  2  0  0  0  0  0  0
  161.0050  208.5310  155.3550 C   0  0  0  0  0  2  0  0  0  0  0  0
  160.7880  207.1740  153.1620 C   0  0  2  0  0  3  0  0  0  0  0  0
  161.4520  206.8620  154.8350 S   0  0  0  0  0  0  0  0  0  0  0  0
  160.0640  209.0730  154.3030 C   0  0  1  0  0  3  0  0  0  0  0  0
  160.0520  210.5920  154.3150 C   0  0  0  0  0  2  0  0  0  0  0  0
  159.7800  211.1130  155.7180 C   0  0  0  0  0  2  0  0  0  0  0  0
  158.7090  212.0960  155.6890 N   0  0  0  0  0  0  0  0  0  0  0  0
  156.2860  212.1170  155.6620 C   0  0  0  0  0  2  0  0  0  0  0  0
  157.4400  211.7270  155.1290 C   0  0  0  0  0  3  0  0  0  0  0  0
  159.0170  213.4630  156.0940 C   0  0  0  0  0  2  0  0  0  0  0  0
  158.4460  214.4520  155.0890 C   0  0  0  0  0  1  0  0  0  0  0  0
  161.3660  204.2980  152.3110 C   0  0  0  0  0  2  0  0  0  0  0  0
  162.2400  205.2930  152.3290 C   0  0  0  0  0  0  0  0  0  0  0  0
  163.5790  205.0250  152.5910 O   0  0  0  0  0  1  0  0  0  0  0  0
  1 12  1  0  0  0  0
  2  9  2  0  0  0  0
  4  8  1  0  0  0  0
  6  3  1  6  0  0  0
  6 11  1  0  0  0  0
  6  1  1  0  0  0  0
  7 10  1  0  0  0  0
  8 30  1  1  0  0  0
  9  7  1  0  0  0  0
  9  3  1  0  0  0  0
 10  5  1  0  0  0  0
 10 11  2  0  0  0  0
 11  4  1  0  0  0  0
 12  8  1  0  0  0  0
 12 13  1  1  0  0  0
 14 15  2  0  0  0  0
 15 13  1  0  0  0  0
 15 16  1  0  0  0  0
 18 17  2  0  0  0  0
 19 18  1  0  0  0  0
 19 16  1  0  0  0  0
 20 18  1  0  0  0  0
 21 22  1  6  0  0  0
 21 20  1  0  0  0  0
 23 21  1  0  0  0  0
 24 27  1  0  0  0  0
 24 23  1  0  0  0  0
 25 24  1  0  0  0  0
 26 25  1  0  0  0  0
 27 28  1  0  0  0  0
 28 29  1  0  0  0  0
 30 44  1  1  0  0  0
 31 33  1  0  0  0  0
 31 35  1  0  0  0  0
 33 30  1  6  0  0  0
 33 34  1  0  0  0  0
 34 32  1  0  0  0  0
 35 36  1  6  0  0  0
 35 32  1  0  0  0  0
 36 37  1  0  0  0  0
 38 37  1  0  0  0  0
 38 41  1  0  0  0  0
 40 39  2  0  0  0  0
 40 38  1  0  0  0  0
 42 41  1  0  0  0  0
 43 44  2  0  0  0  0
 44 45  1  0  0  0  0
M  END
>  <MODEL>
6

>  <REMARK>
 VINA RESULT:      -3.8      2.657      8.881
  Name = 
  18 active torsions:
  status: ('A' for Active; 'I' for Inactive)
    1  A    between atoms: C_1  and  C_11
    2  A    between atoms: C_1  and  N_14
    3  A    between atoms: C_3  and  C_27
    4  A    between atoms: C_3  and  C_30
    5  A    between atoms: C_3  and  C_33
    6  A    between atoms: C_7  and  C_12
    7  A    between atoms: C_7  and  N_14
    8  A    between atoms: N_10  and  C_18
    9  A    between atoms: C_12  and  N_23
   10  A    between atoms: N_14  and  C_17
   11  A    between atoms: C_15  and  C_24
   12  A    between atoms: C_15  and  C_42
   13  A    between atoms: N_16  and  C_24
   14  A    between atoms: N_16  and  C_26
   15  A    between atoms: N_16  and  C_43
   16  A    between atoms: C_18  and  C_45
   17  A    between atoms: C_38  and  O_41
   18  A    between atoms: O_41  and  C_45
                            x       y       z     vdW  Elec       q    Type
                         _______ _______ _______ _____ _____    ______ ____

>  <TORSDO>
F 18

$$$$
=
 OpenBabel11042421343D

 45 47  0  0  1  0  0  0  0  0999 V2000
  161.8600  210.1340  151.2660 C   0  0  0  0  0  2  0  0  0  0  0  0
  160.0460  214.1460  149.2640 O   0  0  0  0  0  0  0  0  0  0  0  0
  161.0210  212.1800  150.1190 C   0  0  0  0  0  2  0  0  0  0  0  0
  160.6260  210.9910  153.6870 N   0  0  0  0  0  2  0  0  0  0  0  0
  158.9800  213.2980  153.8130 C   0  0  0  0  0  1  0  0  0  0  0  0
  160.6800  211.0920  151.1390 C   0  0  2  0  0  3  0  0  0  0  0  0
  159.0090  213.4160  151.2510 C   0  0  0  0  0  2  0  0  0  0  0  0
  161.5980  209.9000  153.7180 C   0  0  2  0  0  3  0  0  0  0  0  0
  160.0310  213.3120  150.1540 C   0  0  0  0  0  0  0  0  0  0  0  0
  159.4860  212.7620  152.5170 C   0  0  0  0  0  0  0  0  0  0  0  0
  160.2790  211.6780  152.4770 C   0  0  0  0  0  0  0  0  0  0  0  0
  161.6170  209.1370  152.3950 C   0  0  2  0  0  3  0  0  0  0  0  0
  162.6610  208.1690  152.4230 O   0  0  0  0  0  0  0  0  0  0  0  0
  162.9390  207.0680  150.4070 O   0  0  0  0  0  0  0  0  0  0  0  0
  162.6460  207.0180  151.6320 C   0  0  0  0  0  0  0  0  0  0  0  0
  162.2670  205.7200  152.2520 C   0  0  0  0  0  2  0  0  0  0  0  0
  160.0730  205.9590  150.4540 O   0  0  0  0  0  0  0  0  0  0  0  0
  160.7910  204.9290  150.3590 C   0  0  0  0  0  0  0  0  0  0  0  0
  161.9290  204.7630  151.2080 N   0  0  0  0  0  2  0  0  0  0  0  0
  160.4640  203.9340  149.3830 N   0  0  0  0  0  2  0  0  0  0  0  0
  161.1670  202.6640  149.2230 C   0  0  1  0  0  3  0  0  0  0  0  0
  160.3120  201.5060  149.7090 C   0  0  0  0  0  1  0  0  0  0  0  0
  161.5820  202.4440  147.7750 C   0  0  0  0  0  2  0  0  0  0  0  0
  161.2940  203.6400  146.9810 N   0  0  0  0  0  0  0  0  0  0  0  0
  162.3250  204.6750  147.1350 C   0  0  0  0  0  2  0  0  0  0  0  0
  161.7780  206.1000  147.1030 C   0  0  0  0  0  1  0  0  0  0  0  0
  161.0250  203.3300  145.5680 C   0  0  0  0  0  2  0  0  0  0  0  0
  160.5300  201.9020  145.3250 C   0  0  0  0  0  2  0  0  0  0  0  0
  159.0510  201.9100  144.9850 C   0  0  0  0  0  1  0  0  0  0  0  0
  161.3590  208.9660  154.9170 C   0  0  1  0  0  3  0  0  0  0  0  0
  159.8380  210.5140  156.0640 N   0  0  0  0  0  2  0  0  0  0  0  0
  161.2770  212.2290  156.9080 C   0  0  0  0  0  2  0  0  0  0  0  0
  161.0710  209.7480  156.2040 C   0  0  2  0  0  3  0  0  0  0  0  0
  162.4440  210.8890  156.5930 S   0  0  0  0  0  0  0  0  0  0  0  0
  159.9110  211.5930  157.0290 C   0  0  1  0  0  3  0  0  0  0  0  0
  158.8140  212.6040  156.7470 C   0  0  0  0  0  2  0  0  0  0  0  0
  157.4570  212.0480  157.1500 C   0  0  0  0  0  2  0  0  0  0  0  0
  156.4770  212.3140  156.1080 N   0  0  0  0  0  0  0  0  0  0  0  0
  154.7120  213.5130  157.2570 C   0  0  0  0  0  2  0  0  0  0  0  0
  155.5860  213.4290  156.2590 C   0  0  0  0  0  3  0  0  0  0  0  0
  156.3430  211.3470  155.0250 C   0  0  0  0  0  2  0  0  0  0  0  0
  155.4670  210.1820  155.4640 C   0  0  0  0  0  1  0  0  0  0  0  0
  159.7040  207.3130  155.6370 C   0  0  0  0  0  2  0  0  0  0  0  0
  160.3020  207.9360  154.6330 C   0  0  0  0  0  0  0  0  0  0  0  0
  159.9590  207.6160  153.3240 O   0  0  0  0  0  1  0  0  0  0  0  0
  1 12  1  0  0  0  0
  2  9  2  0  0  0  0
  3  9  1  0  0  0  0
  4  8  1  0  0  0  0
  6  3  1  6  0  0  0
  6  1  1  0  0  0  0
  6 11  1  0  0  0  0
  7 10  1  0  0  0  0
  8 30  1  1  0  0  0
  9  7  1  0  0  0  0
 10  5  1  0  0  0  0
 11 10  2  0  0  0  0
 11  4  1  0  0  0  0
 12 13  1  1  0  0  0
 12  8  1  0  0  0  0
 14 15  2  0  0  0  0
 15 16  1  0  0  0  0
 15 13  1  0  0  0  0
 18 17  2  0  0  0  0
 18 19  1  0  0  0  0
 19 16  1  0  0  0  0
 20 18  1  0  0  0  0
 21 20  1  0  0  0  0
 21 22  1  6  0  0  0
 23 21  1  0  0  0  0
 24 25  1  0  0  0  0
 24 23  1  0  0  0  0
 26 25  1  0  0  0  0
 27 24  1  0  0  0  0
 28 27  1  0  0  0  0
 29 28  1  0  0  0  0
 30 44  1  6  0  0  0
 31 33  1  0  0  0  0
 31 35  1  0  0  0  0
 32 35  1  0  0  0  0
 33 30  1  6  0  0  0
 33 34  1  0  0  0  0
 34 32  1  0  0  0  0
 35 36  1  6  0  0  0
 36 37  1  0  0  0  0
 38 40  1  0  0  0  0
 38 37  1  0  0  0  0
 40 39  2  0  0  0  0
 41 42  1  0  0  0  0
 41 38  1  0  0  0  0
 44 43  2  0  0  0  0
 45 44  1  0  0  0  0
M  END
>  <MODEL>
7

>  <REMARK>
 VINA RESULT:      -3.2      3.260      9.288
  Name = 
  18 active torsions:
  status: ('A' for Active; 'I' for Inactive)
    1  A    between atoms: C_1  and  C_11
    2  A    between atoms: C_1  and  N_14
    3  A    between atoms: C_3  and  C_27
    4  A    between atoms: C_3  and  C_30
    5  A    between atoms: C_3  and  C_33
    6  A    between atoms: C_7  and  C_12
    7  A    between atoms: C_7  and  N_14
    8  A    between atoms: N_10  and  C_18
    9  A    between atoms: C_12  and  N_23
   10  A    between atoms: N_14  and  C_17
   11  A    between atoms: C_15  and  C_24
   12  A    between atoms: C_15  and  C_42
   13  A    between atoms: N_16  and  C_24
   14  A    between atoms: N_16  and  C_26
   15  A    between atoms: N_16  and  C_43
   16  A    between atoms: C_18  and  C_45
   17  A    between atoms: C_38  and  O_41
   18  A    between atoms: O_41  and  C_45
                            x       y       z     vdW  Elec       q    Type
                         _______ _______ _______ _____ _____    ______ ____

>  <TORSDO>
F 18

$$$$
=
 OpenBabel11042421343D

 45 47  0  0  1  0  0  0  0  0999 V2000
  159.0030  211.5910  154.2700 C   0  0  0  0  0  2  0  0  0  0  0  0
  155.1620  211.3280  157.1980 O   0  0  0  0  0  0  0  0  0  0  0  0
  157.0910  211.3380  155.8470 C   0  0  0  0  0  2  0  0  0  0  0  0
  157.3950  213.2420  152.5930 N   0  0  0  0  0  2  0  0  0  0  0  0
  154.7790  214.0550  153.3300 C   0  0  0  0  0  1  0  0  0  0  0  0
  157.8320  212.3120  154.9290 C   0  0  2  0  0  3  0  0  0  0  0  0
  155.1960  213.1380  155.6890 C   0  0  0  0  0  2  0  0  0  0  0  0
  158.6620  212.7150  152.0890 C   0  0  2  0  0  3  0  0  0  0  0  0
  155.7680  211.8910  156.3020 C   0  0  0  0  0  0  0  0  0  0  0  0
  155.6760  213.3320  154.2780 C   0  0  0  0  0  0  0  0  0  0  0  0
  156.9060  212.9390  153.9070 C   0  0  0  0  0  0  0  0  0  0  0  0
  159.6590  212.4870  153.2240 C   0  0  2  0  0  3  0  0  0  0  0  0
  160.8280  211.8570  152.7070 O   0  0  0  0  0  0  0  0  0  0  0  0
  162.6850  210.6210  153.3200 O   0  0  0  0  0  0  0  0  0  0  0  0
  161.4320  210.7620  153.3270 C   0  0  0  0  0  0  0  0  0  0  0  0
  160.5760  209.7450  153.9950 C   0  0  0  0  0  2  0  0  0  0  0  0
  160.4640  207.2150  155.2960 O   0  0  0  0  0  0  0  0  0  0  0  0
  160.7150  207.2220  154.0620 C   0  0  0  0  0  0  0  0  0  0  0  0
  160.7500  208.4570  153.3410 N   0  0  0  0  0  2  0  0  0  0  0  0
  160.9480  205.9820  153.3870 N   0  0  0  0  0  2  0  0  0  0  0  0
  161.3220  205.8580  151.9800 C   0  0  1  0  0  3  0  0  0  0  0  0
  162.8260  205.7160  151.8300 C   0  0  0  0  0  1  0  0  0  0  0  0
  160.6110  204.6830  151.3230 C   0  0  0  0  0  2  0  0  0  0  0  0
  161.1050  204.4960  149.9580 N   0  0  0  0  0  0  0  0  0  0  0  0
  160.8590  203.1370  149.4550 C   0  0  0  0  0  2  0  0  0  0  0  0
  160.9620  202.0560  150.5270 C   0  0  0  0  0  1  0  0  0  0  0  0
  160.6120  205.5280  149.0320 C   0  0  0  0  0  2  0  0  0  0  0  0
  161.5800  205.8600  147.8930 C   0  0  0  0  0  2  0  0  0  0  0  0
  160.8340  205.9320  146.5740 C   0  0  0  0  0  1  0  0  0  0  0  0
  159.2450  213.6100  150.9820 C   0  0  1  0  0  3  0  0  0  0  0  0
  161.1510  214.0100  149.4890 N   0  0  0  0  0  2  0  0  0  0  0  0
  161.7030  211.8370  148.6530 C   0  0  0  0  0  2  0  0  0  0  0  0
  160.6690  213.1940  150.5980 C   0  0  2  0  0  3  0  0  0  0  0  0
  160.7230  211.4340  150.1130 S   0  0  0  0  0  0  0  0  0  0  0  0
  162.2050  213.2500  148.8460 C   0  0  1  0  0  3  0  0  0  0  0  0
  162.5540  213.8890  147.5140 C   0  0  0  0  0  2  0  0  0  0  0  0
  162.3930  212.8860  146.3810 C   0  0  0  0  0  2  0  0  0  0  0  0
  161.6020  213.4650  145.3080 N   0  0  0  0  0  0  0  0  0  0  0  0
  162.9020  213.5410  143.2640 C   0  0  0  0  0  2  0  0  0  0  0  0
  162.2700  214.1700  144.2510 C   0  0  0  0  0  3  0  0  0  0  0  0
  160.1480  213.4330  145.4290 C   0  0  0  0  0  2  0  0  0  0  0  0
  159.5450  212.5990  144.3090 C   0  0  0  0  0  1  0  0  0  0  0  0
  157.1690  214.3110  149.8890 C   0  0  0  0  0  2  0  0  0  0  0  0
  158.3380  213.6960  149.7860 C   0  0  0  0  0  0  0  0  0  0  0  0
  158.7050  213.1200  148.5760 O   0  0  0  0  0  1  0  0  0  0  0  0
  3  9  1  0  0  0  0
  4 11  1  0  0  0  0
  5 10  1  0  0  0  0
  6  1  1  6  0  0  0
  6  3  1  0  0  0  0
  7  9  1  0  0  0  0
  8 30  1  6  0  0  0
  8  4  1  0  0  0  0
  8 12  1  0  0  0  0
  9  2  2  0  0  0  0
 10  7  1  0  0  0  0
 11 10  2  0  0  0  0
 11  6  1  0  0  0  0
 12 13  1  6  0  0  0
 12  1  1  0  0  0  0
 13 15  1  0  0  0  0
 14 15  2  0  0  0  0
 15 16  1  0  0  0  0
 18 17  2  0  0  0  0
 19 16  1  0  0  0  0
 19 18  1  0  0  0  0
 20 18  1  0  0  0  0
 21 22  1  1  0  0  0
 21 20  1  0  0  0  0
 23 21  1  0  0  0  0
 24 23  1  0  0  0  0
 25 24  1  0  0  0  0
 25 26  1  0  0  0  0
 27 24  1  0  0  0  0
 28 27  1  0  0  0  0
 29 28  1  0  0  0  0
 30 44  1  6  0  0  0
 31 33  1  0  0  0  0
 32 35  1  0  0  0  0
 32 34  1  0  0  0  0
 33 30  1  6  0  0  0
 34 33  1  0  0  0  0
 35 36  1  6  0  0  0
 35 31  1  0  0  0  0
 37 36  1  0  0  0  0
 38 41  1  0  0  0  0
 38 37  1  0  0  0  0
 39 40  2  0  0  0  0
 40 38  1  0  0  0  0
 42 41  1  0  0  0  0
 44 43  2  0  0  0  0
 45 44  1  0  0  0  0
M  END
>  <MODEL>
8

>  <REMARK>
 VINA RESULT:      -3.2      2.716      7.449
  Name = 
  18 active torsions:
  status: ('A' for Active; 'I' for Inactive)
    1  A    between atoms: C_1  and  C_11
    2  A    between atoms: C_1  and  N_14
    3  A    between atoms: C_3  and  C_27
    4  A    between atoms: C_3  and  C_30
    5  A    between atoms: C_3  and  C_33
    6  A    between atoms: C_7  and  C_12
    7  A    between atoms: C_7  and  N_14
    8  A    between atoms: N_10  and  C_18
    9  A    between atoms: C_12  and  N_23
   10  A    between atoms: N_14  and  C_17
   11  A    between atoms: C_15  and  C_24
   12  A    between atoms: C_15  and  C_42
   13  A    between atoms: N_16  and  C_24
   14  A    between atoms: N_16  and  C_26
   15  A    between atoms: N_16  and  C_43
   16  A    between atoms: C_18  and  C_45
   17  A    between atoms: C_38  and  O_41
   18  A    between atoms: O_41  and  C_45
                            x       y       z     vdW  Elec       q    Type
                         _______ _______ _______ _____ _____    ______ ____

>  <TORSDO>
F 18

$$$$
=
 OpenBabel11042421343D

 45 47  0  0  1  0  0  0  0  0999 V2000
  158.5530  213.5260  149.1720 C   0  0  0  0  0  2  0  0  0  0  0  0
  155.6760  213.8940  145.3010 O   0  0  0  0  0  0  0  0  0  0  0  0
  156.9540  213.7330  147.2730 C   0  0  0  0  0  2  0  0  0  0  0  0
  160.5180  212.4730  147.3970 N   0  0  0  0  0  2  0  0  0  0  0  0
  160.1000  212.3210  144.5950 C   0  0  0  0  0  1  0  0  0  0  0  0
  158.4160  213.8870  147.6970 C   0  0  2  0  0  3  0  0  0  0  0  0
  157.9880  213.7510  144.8670 C   0  0  0  0  0  2  0  0  0  0  0  0
  160.7180  212.3680  148.8410 C   0  0  2  0  0  3  0  0  0  0  0  0
  156.7940  213.7910  145.7780 C   0  0  0  0  0  0  0  0  0  0  0  0
  159.1420  213.0220  145.4970 C   0  0  0  0  0  0  0  0  0  0  0  0
  159.3460  213.0700  146.8240 C   0  0  0  0  0  0  0  0  0  0  0  0
  160.0230  213.5100  149.5820 C   0  0  2  0  0  3  0  0  0  0  0  0
  160.1350  213.2990  150.9860 O   0  0  0  0  0  0  0  0  0  0  0  0
  158.1350  212.4010  151.7250 O   0  0  0  0  0  0  0  0  0  0  0  0
  159.0290  213.2830  151.8370 C   0  0  0  0  0  0  0  0  0  0  0  0
  158.9070  214.3320  152.8850 C   0  0  0  0  0  2  0  0  0  0  0  0
  160.3310  211.9400  153.4780 O   0  0  0  0  0  0  0  0  0  0  0  0
  159.7110  212.4950  154.4230 C   0  0  0  0  0  0  0  0  0  0  0  0
  159.0050  213.7190  154.2010 N   0  0  0  0  0  2  0  0  0  0  0  0
  159.7350  211.8980  155.7240 N   0  0  0  0  0  2  0  0  0  0  0  0
  158.9980  212.3980  156.8820 C   0  0  1  0  0  3  0  0  0  0  0  0
  158.5810  213.8440  156.6750 C   0  0  0  0  0  1  0  0  0  0  0  0
  157.7810  211.5330  157.1750 C   0  0  0  0  0  2  0  0  0  0  0  0
  156.6610  211.9340  156.3230 N   0  0  0  0  0  0  0  0  0  0  0  0
  156.0760  210.7990  155.5960 C   0  0  0  0  0  2  0  0  0  0  0  0
  155.7730  211.0960  154.1300 C   0  0  0  0  0  1  0  0  0  0  0  0
  155.6440  212.7090  157.0530 C   0  0  0  0  0  2  0  0  0  0  0  0
  155.4750  214.1460  156.5530 C   0  0  0  0  0  2  0  0  0  0  0  0
  154.1230  214.3150  155.8870 C   0  0  0  0  0  1  0  0  0  0  0  0
  162.2110  212.2760  149.1980 C   0  0  1  0  0  3  0  0  0  0  0  0
  162.1040  209.9180  148.5260 N   0  0  0  0  0  2  0  0  0  0  0  0
  161.4370  208.7720  150.5180 C   0  0  0  0  0  2  0  0  0  0  0  0
  162.6350  210.8390  149.5240 C   0  0  2  0  0  3  0  0  0  0  0  0
  162.0340  210.3430  151.1760 S   0  0  0  0  0  0  0  0  0  0  0  0
  162.0640  208.6110  149.1520 C   0  0  1  0  0  3  0  0  0  0  0  0
  161.2510  207.6590  148.2920 C   0  0  0  0  0  2  0  0  0  0  0  0
  162.1680  206.7240  147.5160 C   0  0  0  0  0  2  0  0  0  0  0  0
  161.7450  205.3450  147.6970 N   0  0  0  0  0  0  0  0  0  0  0  0
  160.5980  203.7530  149.1190 C   0  0  0  0  0  2  0  0  0  0  0  0
  161.1060  204.9670  148.9250 C   0  0  0  0  0  3  0  0  0  0  0  0
  162.1240  204.3690  146.6800 C   0  0  0  0  0  2  0  0  0  0  0  0
  161.0310  204.2540  145.6280 C   0  0  0  0  0  1  0  0  0  0  0  0
  163.1210  214.2160  148.0150 C   0  0  0  0  0  2  0  0  0  0  0  0
  163.0860  212.8980  148.1460 C   0  0  0  0  0  0  0  0  0  0  0  0
  163.8450  212.1050  147.2940 O   0  0  0  0  0  1  0  0  0  0  0  0
  1 12  1  0  0  0  0
  2  9  2  0  0  0  0
  4  8  1  0  0  0  0
  5 10  1  0  0  0  0
  6  3  1  6  0  0  0
  6  1  1  0  0  0  0
  7 10  1  0  0  0  0
  7  9  1  0  0  0  0
  8 30  1  6  0  0  0
  8 12  1  0  0  0  0
  9  3  1  0  0  0  0
 10 11  2  0  0  0  0
 11  4  1  0  0  0  0
 11  6  1  0  0  0  0
 12 13  1  1  0  0  0
 13 15  1  0  0  0  0
 14 15  2  0  0  0  0
 15 16  1  0  0  0  0
 16 19  1  0  0  0  0
 17 18  2  0  0  0  0
 18 20  1  0  0  0  0
 19 18  1  0  0  0  0
 20 21  1  0  0  0  0
 21 22  1  6  0  0  0
 21 23  1  0  0  0  0
 24 27  1  0  0  0  0
 24 23  1  0  0  0  0
 25 24  1  0  0  0  0
 26 25  1  0  0  0  0
 28 27  1  0  0  0  0
 29 28  1  0  0  0  0
 30 44  1  6  0  0  0
 31 35  1  0  0  0  0
 31 33  1  0  0  0  0
 32 34  1  0  0  0  0
 33 30  1  6  0  0  0
 33 34  1  0  0  0  0
 35 36  1  6  0  0  0
 35 32  1  0  0  0  0
 37 38  1  0  0  0  0
 37 36  1  0  0  0  0
 38 40  1  0  0  0  0
 40 39  2  0  0  0  0
 41 38  1  0  0  0  0
 42 41  1  0  0  0  0
 43 44  2  0  0  0  0
 45 44  1  0  0  0  0
M  END
>  <MODEL>
9

>  <REMARK>
 VINA RESULT:      -3.1      1.856      3.159
  Name = 
  18 active torsions:
  status: ('A' for Active; 'I' for Inactive)
    1  A    between atoms: C_1  and  C_11
    2  A    between atoms: C_1  and  N_14
    3  A    between atoms: C_3  and  C_27
    4  A    between atoms: C_3  and  C_30
    5  A    between atoms: C_3  and  C_33
    6  A    between atoms: C_7  and  C_12
    7  A    between atoms: C_7  and  N_14
    8  A    between atoms: N_10  and  C_18
    9  A    between atoms: C_12  and  N_23
   10  A    between atoms: N_14  and  C_17
   11  A    between atoms: C_15  and  C_24
   12  A    between atoms: C_15  and  C_42
   13  A    between atoms: N_16  and  C_24
   14  A    between atoms: N_16  and  C_26
   15  A    between atoms: N_16  and  C_43
   16  A    between atoms: C_18  and  C_45
   17  A    between atoms: C_38  and  O_41
   18  A    between atoms: O_41  and  C_45
                            x       y       z     vdW  Elec       q    Type
                         _______ _______ _______ _____ _____    ______ ____

>  <TORSDO>
F 18

$$$$
