=
 OpenBabel11042421513D

 47 51  0  0  1  0  0  0  0  0999 V2000
  161.9940  209.6920  150.5390 C   0  0  0  0  0  0  0  0  0  0  0  0
  162.1570  210.1300  149.3180 N   0  0  0  0  0  0  0  0  0  0  0  0
  154.9150  210.5620  156.4180 N   0  0  0  0  0  1  0  0  0  0  0  0
  159.0180  212.0230  154.5130 C   0  0  0  0  0  0  0  0  0  0  0  0
  155.4630  211.8990  156.5840 C   0  0  1  0  0  3  0  0  0  0  0  0
  160.7480  211.5780  151.3680 N   0  0  0  0  0  0  0  0  0  0  0  0
  160.0800  212.3260  152.3940 C   0  0  0  0  0  0  0  0  0  0  0  0
  160.9910  210.6850  154.0480 C   0  0  0  0  0  0  0  0  0  0  0  0
  160.0480  211.7850  153.7570 C   0  0  0  0  0  0  0  0  0  0  0  0
  157.9080  211.8890  156.6420 C   0  0  0  0  0  3  0  0  0  0  0  0
  156.7680  211.7980  157.2610 N   0  0  0  0  0  0  0  0  0  0  0  0
  156.7130  212.6780  154.5800 C   0  0  0  0  0  3  0  0  0  0  0  0
  159.4770  213.4020  152.1050 O   0  0  0  0  0  0  0  0  0  0  0  0
  157.9470  212.2240  155.2210 C   0  0  0  0  0  0  0  0  0  0  0  0
  161.5800  210.6020  151.6270 C   0  0  0  0  0  0  0  0  0  0  0  0
  162.0360  210.3250  153.0380 C   0  0  0  0  0  2  0  0  0  0  0  0
  160.9730  210.0130  155.1910 C   0  0  0  0  0  2  0  0  0  0  0  0
  155.5500  212.5720  155.2310 C   0  0  0  0  0  3  0  0  0  0  0  0
  161.0960  211.6330  147.6980 C   0  0  1  0  0  3  0  0  0  0  0  0
  161.0710  214.2020  147.9430 C   0  0  0  0  0  2  0  0  0  0  0  0
  162.6160  211.7710  147.5960 C   0  0  2  0  0  3  0  0  0  0  0  0
  161.9540  211.5230  148.9350 C   0  0  2  0  0  3  0  0  0  0  0  0
  163.2280  213.1880  147.6110 C   0  0  0  0  0  2  0  0  0  0  0  0
  160.2810  212.9340  147.6560 C   0  0  0  0  0  2  0  0  0  0  0  0
  162.3150  214.2650  147.1880 N   0  0  0  0  0  0  0  0  0  0  0  0
  162.0480  214.2080  145.7500 C   0  0  0  0  0  2  0  0  0  0  0  0
  163.2510  213.6580  145.0220 C   0  0  0  0  0  2  0  0  0  0  0  0
  162.8940  213.4110  143.5730 C   0  0  0  0  0  2  0  0  0  0  0  0
  161.6190  212.6050  143.5020 C   0  0  0  0  0  2  0  0  0  0  0  0
  161.1100  212.5610  142.0690 C   0  0  0  0  0  2  0  0  0  0  0  0
  162.2180  212.1960  141.0880 C   0  0  0  0  0  2  0  0  0  0  0  0
  161.7250  211.1990  140.0520 C   0  0  0  0  0  2  0  0  0  0  0  0
  161.5880  209.9360  140.6250 O   0  0  0  0  0  0  0  0  0  0  0  0
  161.7470  209.0360  139.5730 C   0  0  0  0  0  2  0  0  0  0  0  0
  160.7940  209.3540  138.5200 N   0  0  0  0  0  1  0  0  0  0  0  0
  162.1930  208.2400  150.8420 C   0  0  1  0  0  3  0  0  0  0  0  0
  161.0320  207.6830  151.5340 C   0  0  0  0  0  2  0  0  0  0  0  0
  161.1860  207.4760  150.0980 N   0  0  0  0  0  0  0  0  0  0  0  0
  161.7160  206.1280  149.9140 C   0  0  0  0  0  2  0  0  0  0  0  0
  160.5810  205.1610  149.6080 C   0  0  2  0  0  3  0  0  0  0  0  0
  159.8270  204.9030  150.7460 F   0  0  0  0  0  0  0  0  0  0  0  0
  161.0940  203.9010  148.9810 C   0  0  0  0  0  0  0  0  0  0  0  0
  161.9560  203.9690  148.1210 O   0  0  0  0  0  0  0  0  0  0  0  0
  160.4910  202.5690  149.3380 C   0  0  1  0  0  3  0  0  0  0  0  0
  160.4640  201.6530  148.1290 C   0  0  0  0  0  1  0  0  0  0  0  0
  161.2250  201.8930  150.5040 C   0  0  0  0  0  2  0  0  0  0  0  0
  161.4980  202.8190  151.5170 O   0  0  0  0  0  1  0  0  0  0  0  0
  1 15  1  0  0  0  0
  2  1  2  0  0  0  0
  4 14  2  0  0  0  0
  5  3  1  6  0  0  0
  5 11  1  0  0  0  0
  6 15  2  0  0  0  0
  6  7  1  0  0  0  0
  7  9  1  0  0  0  0
  8 17  2  0  0  0  0
  9  8  1  0  0  0  0
  9  4  2  0  0  0  0
 10 11  2  0  0  0  0
 12 14  1  0  0  0  0
 12 18  2  0  0  0  0
 13  7  2  0  0  0  0
 14 10  1  0  0  0  0
 15 16  1  0  0  0  0
 16  8  1  0  0  0  0
 18  5  1  0  0  0  0
 19 24  1  1  0  0  0
 19 22  1  0  0  0  0
 21 23  1  1  0  0  0
 21 19  1  0  0  0  0
 21 22  1  0  0  0  0
 22  2  1  6  0  0  0
 24 20  1  0  0  0  0
 25 23  1  0  0  0  0
 25 20  1  0  0  0  0
 26 25  1  0  0  0  0
 27 26  1  0  0  0  0
 28 27  1  0  0  0  0
 29 28  1  0  0  0  0
 30 29  1  0  0  0  0
 31 30  1  0  0  0  0
 32 33  1  0  0  0  0
 32 31  1  0  0  0  0
 34 33  1  0  0  0  0
 35 34  1  0  0  0  0
 36  1  1  6  0  0  0
 36 37  1  0  0  0  0
 38 36  1  0  0  0  0
 38 37  1  0  0  0  0
 39 38  1  0  0  0  0
 40 39  1  0  0  0  0
 40 41  1  1  0  0  0
 42 44  1  0  0  0  0
 42 40  1  0  0  0  0
 43 42  2  0  0  0  0
 44 45  1  6  0  0  0
 44 46  1  0  0  0  0
 46 47  1  0  0  0  0
M  END
>  <MODEL>
1

>  <REMARK>
 VINA RESULT:      -6.4      0.000      0.000
  Name = 
  17 active torsions:
  status: ('A' for Active; 'I' for Inactive)
    1  A    between atoms: C_2  and  C_10
    2  A    between atoms: C_2  and  C_13
    3  A    between atoms: C_4  and  C_26
    4  A    between atoms: C_4  and  C_33
    5  A    between atoms: C_9  and  C_17
    6  A    between atoms: C_10  and  C_31
    7  A    between atoms: C_13  and  C_27
    8  A    between atoms: C_17  and  C_34
    9  A    between atoms: C_18  and  C_19
   10  A    between atoms: C_18  and  N_46
   11  A    between atoms: C_19  and  C_27
   12  A    between atoms: C_23  and  O_44
   13  A    between atoms: C_24  and  C_36
   14  A    between atoms: C_26  and  C_36
   15  A    between atoms: N_30  and  C_37
   16  A    between atoms: C_31  and  O_44
   17  A    between atoms: C_33  and  N_40
                            x       y       z     vdW  Elec       q    Type
                         _______ _______ _______ _____ _____    ______ ____

>  <TORSDO>
F 17

$$$$
=
 OpenBabel11042421513D

 47 51  0  0  1  0  0  0  0  0999 V2000
  161.9510  209.7850  150.4010 C   0  0  0  0  0  0  0  0  0  0  0  0
  162.0820  210.2480  149.1840 N   0  0  0  0  0  0  0  0  0  0  0  0
  154.9760  210.5880  156.4110 N   0  0  0  0  0  1  0  0  0  0  0  0
  159.0640  212.0510  154.4770 C   0  0  0  0  0  0  0  0  0  0  0  0
  155.5410  211.9140  156.6010 C   0  0  1  0  0  3  0  0  0  0  0  0
  160.7400  211.6640  151.2950 N   0  0  0  0  0  0  0  0  0  0  0  0
  160.0960  212.3940  152.3490 C   0  0  0  0  0  0  0  0  0  0  0  0
  161.0150  210.7030  153.9480 C   0  0  0  0  0  0  0  0  0  0  0  0
  160.0790  211.8200  153.6990 C   0  0  0  0  0  0  0  0  0  0  0  0
  157.9870  211.8770  156.6200 C   0  0  0  0  0  3  0  0  0  0  0  0
  156.8550  211.7830  157.2540 N   0  0  0  0  0  0  0  0  0  0  0  0
  156.7680  212.7290  154.5970 C   0  0  0  0  0  3  0  0  0  0  0  0
  159.5010  213.4830  152.0970 O   0  0  0  0  0  0  0  0  0  0  0  0
  158.0060  212.2460  155.2070 C   0  0  0  0  0  0  0  0  0  0  0  0
  161.5640  210.6730  151.5170 C   0  0  0  0  0  0  0  0  0  0  0  0
  162.0390  210.3570  152.9130 C   0  0  0  0  0  2  0  0  0  0  0  0
  161.0070  210.0040  155.0750 C   0  0  0  0  0  2  0  0  0  0  0  0
  155.6140  212.6200  155.2630 C   0  0  0  0  0  3  0  0  0  0  0  0
  161.0400  211.7800  147.5780 C   0  0  1  0  0  3  0  0  0  0  0  0
  160.9690  214.3410  147.8930 C   0  0  0  0  0  2  0  0  0  0  0  0
  162.5600  211.9430  147.5210 C   0  0  2  0  0  3  0  0  0  0  0  0
  161.8670  211.6480  148.8340 C   0  0  2  0  0  3  0  0  0  0  0  0
  163.1490  213.3670  147.5910 C   0  0  0  0  0  2  0  0  0  0  0  0
  160.2070  213.0690  147.5510 C   0  0  0  0  0  2  0  0  0  0  0  0
  162.2310  214.4430  147.1740 N   0  0  0  0  0  0  0  0  0  0  0  0
  162.0030  214.4220  145.7280 C   0  0  0  0  0  2  0  0  0  0  0  0
  163.3100  214.2130  145.0010 C   0  0  0  0  0  2  0  0  0  0  0  0
  163.0640  213.4050  143.7460 C   0  0  0  0  0  2  0  0  0  0  0  0
  161.6310  212.9300  143.7280 C   0  0  0  0  0  2  0  0  0  0  0  0
  161.1510  212.7800  142.2920 C   0  0  0  0  0  2  0  0  0  0  0  0
  162.1620  212.0290  141.4350 C   0  0  0  0  0  2  0  0  0  0  0  0
  161.7950  212.1030  139.9620 C   0  0  0  0  0  2  0  0  0  0  0  0
  160.6810  211.3060  139.7030 O   0  0  0  0  0  0  0  0  0  0  0  0
  161.1560  209.9960  139.7110 C   0  0  0  0  0  2  0  0  0  0  0  0
  161.9850  209.7770  138.5350 N   0  0  0  0  0  1  0  0  0  0  0  0
  162.1590  208.3280  150.6690 C   0  0  1  0  0  3  0  0  0  0  0  0
  160.9840  207.7370  151.3070 C   0  0  0  0  0  2  0  0  0  0  0  0
  161.1870  207.5730  149.8710 N   0  0  0  0  0  0  0  0  0  0  0  0
  161.7420  206.2370  149.6670 C   0  0  0  0  0  2  0  0  0  0  0  0
  162.2000  206.0800  148.2240 C   0  0  2  0  0  3  0  0  0  0  0  0
  162.0190  207.2590  147.5130 F   0  0  0  0  0  0  0  0  0  0  0  0
  161.5220  204.9190  147.5620 C   0  0  0  0  0  0  0  0  0  0  0  0
  160.7750  204.2110  148.2150 O   0  0  0  0  0  0  0  0  0  0  0  0
  161.8290  204.5710  146.1310 C   0  0  1  0  0  3  0  0  0  0  0  0
  161.4740  203.1240  145.8450 C   0  0  0  0  0  1  0  0  0  0  0  0
  161.1140  205.5010  145.1420 C   0  0  0  0  0  2  0  0  0  0  0  0
  160.1050  204.8130  144.4580 O   0  0  0  0  0  1  0  0  0  0  0  0
  1 15  1  0  0  0  0
  2  1  2  0  0  0  0
  4 14  2  0  0  0  0
  5  3  1  6  0  0  0
  5 11  1  0  0  0  0
  6 15  2  0  0  0  0
  6  7  1  0  0  0  0
  7  9  1  0  0  0  0
  8 17  2  0  0  0  0
  9  8  1  0  0  0  0
  9  4  2  0  0  0  0
 10 11  2  0  0  0  0
 12 14  1  0  0  0  0
 12 18  2  0  0  0  0
 13  7  2  0  0  0  0
 14 10  1  0  0  0  0
 15 16  1  0  0  0  0
 16  8  1  0  0  0  0
 18  5  1  0  0  0  0
 19 24  1  1  0  0  0
 19 22  1  0  0  0  0
 21 19  1  0  0  0  0
 21 23  1  1  0  0  0
 21 22  1  0  0  0  0
 22  2  1  6  0  0  0
 24 20  1  0  0  0  0
 25 23  1  0  0  0  0
 25 20  1  0  0  0  0
 26 25  1  0  0  0  0
 27 26  1  0  0  0  0
 28 27  1  0  0  0  0
 29 28  1  0  0  0  0
 30 29  1  0  0  0  0
 31 30  1  0  0  0  0
 32 31  1  0  0  0  0
 33 34  1  0  0  0  0
 33 32  1  0  0  0  0
 35 34  1  0  0  0  0
 36  1  1  6  0  0  0
 36 37  1  0  0  0  0
 38 36  1  0  0  0  0
 38 37  1  0  0  0  0
 39 38  1  0  0  0  0
 40 41  1  6  0  0  0
 40 39  1  0  0  0  0
 42 43  2  0  0  0  0
 42 40  1  0  0  0  0
 44 45  1  6  0  0  0
 44 42  1  0  0  0  0
 46 44  1  0  0  0  0
 47 46  1  0  0  0  0
M  END
>  <MODEL>
2

>  <REMARK>
 VINA RESULT:      -6.2      1.382      1.855
  Name = 
  17 active torsions:
  status: ('A' for Active; 'I' for Inactive)
    1  A    between atoms: C_2  and  C_10
    2  A    between atoms: C_2  and  C_13
    3  A    between atoms: C_4  and  C_26
    4  A    between atoms: C_4  and  C_33
    5  A    between atoms: C_9  and  C_17
    6  A    between atoms: C_10  and  C_31
    7  A    between atoms: C_13  and  C_27
    8  A    between atoms: C_17  and  C_34
    9  A    between atoms: C_18  and  C_19
   10  A    between atoms: C_18  and  N_46
   11  A    between atoms: C_19  and  C_27
   12  A    between atoms: C_23  and  O_44
   13  A    between atoms: C_24  and  C_36
   14  A    between atoms: C_26  and  C_36
   15  A    between atoms: N_30  and  C_37
   16  A    between atoms: C_31  and  O_44
   17  A    between atoms: C_33  and  N_40
                            x       y       z     vdW  Elec       q    Type
                         _______ _______ _______ _____ _____    ______ ____

>  <TORSDO>
F 17

$$$$
=
 OpenBabel11042421513D

 47 51  0  0  1  0  0  0  0  0999 V2000
  161.9420  210.5980  149.3130 C   0  0  0  0  0  0  0  0  0  0  0  0
  161.8960  209.3190  149.0470 N   0  0  0  0  0  0  0  0  0  0  0  0
  154.9260  209.9680  155.2960 N   0  0  0  0  0  1  0  0  0  0  0  0
  159.1470  211.6590  153.9120 C   0  0  0  0  0  0  0  0  0  0  0  0
  155.5820  211.1180  155.8970 C   0  0  1  0  0  3  0  0  0  0  0  0
  160.8530  212.1800  150.7640 N   0  0  0  0  0  0  0  0  0  0  0  0
  160.2430  212.5830  151.9990 C   0  0  0  0  0  0  0  0  0  0  0  0
  161.0050  210.4070  152.9720 C   0  0  0  0  0  0  0  0  0  0  0  0
  160.1580  211.6120  153.0960 C   0  0  0  0  0  0  0  0  0  0  0  0
  158.0180  210.8940  155.8920 C   0  0  0  0  0  3  0  0  0  0  0  0
  156.8700  210.6880  156.4680 N   0  0  0  0  0  0  0  0  0  0  0  0
  156.9040  212.4330  154.2510 C   0  0  0  0  0  3  0  0  0  0  0  0
  159.7330  213.7370  152.1090 O   0  0  0  0  0  0  0  0  0  0  0  0
  158.0920  211.6900  154.6700 C   0  0  0  0  0  0  0  0  0  0  0  0
  161.5990  211.1110  150.6560 C   0  0  0  0  0  0  0  0  0  0  0  0
  162.0220  210.3320  151.8760 C   0  0  0  0  0  2  0  0  0  0  0  0
  160.9250  209.3890  153.8170 C   0  0  0  0  0  2  0  0  0  0  0  0
  155.7330  212.2050  154.8540 C   0  0  0  0  0  3  0  0  0  0  0  0
  162.6040  207.2980  150.2410 C   0  0  1  0  0  3  0  0  0  0  0  0
  161.2360  206.2150  152.1430 C   0  0  0  0  0  2  0  0  0  0  0  0
  161.4100  206.9640  149.3450 C   0  0  2  0  0  3  0  0  0  0  0  0
  161.5060  208.3120  150.0280 C   0  0  2  0  0  3  0  0  0  0  0  0
  160.2240  206.1920  149.9600 C   0  0  0  0  0  2  0  0  0  0  0  0
  162.5920  206.7010  151.6550 C   0  0  0  0  0  2  0  0  0  0  0  0
  160.5520  205.3930  151.1540 N   0  0  0  0  0  0  0  0  0  0  0  0
  161.3600  204.2220  150.8100 C   0  0  0  0  0  2  0  0  0  0  0  0
  160.7850  203.5350  149.5950 C   0  0  0  0  0  2  0  0  0  0  0  0
  160.5310  202.0780  149.9130 C   0  0  0  0  0  2  0  0  0  0  0  0
  160.9710  201.2270  148.7460 C   0  0  0  0  0  2  0  0  0  0  0  0
  161.4130  202.1140  147.5910 C   0  0  0  0  0  2  0  0  0  0  0  0
  160.6880  201.7590  146.2990 C   0  0  0  0  0  2  0  0  0  0  0  0
  160.7040  202.9250  145.3240 C   0  0  0  0  0  2  0  0  0  0  0  0
  161.9330  203.5810  145.3770 O   0  0  0  0  0  0  0  0  0  0  0  0
  161.6510  204.9160  145.0940 C   0  0  0  0  0  2  0  0  0  0  0  0
  162.2280  205.7600  146.1300 N   0  0  0  0  0  1  0  0  0  0  0  0
  162.3830  211.5620  148.2570 C   0  0  1  0  0  3  0  0  0  0  0  0
  161.5400  211.4610  147.0660 C   0  0  0  0  0  2  0  0  0  0  0  0
  161.2990  212.5250  148.0350 N   0  0  0  0  0  0  0  0  0  0  0  0
  161.9040  213.7400  147.4960 C   0  0  0  0  0  2  0  0  0  0  0  0
  160.9510  214.4030  146.5120 C   0  0  2  0  0  3  0  0  0  0  0  0
  159.6640  213.8980  146.6490 F   0  0  0  0  0  0  0  0  0  0  0  0
  161.4510  214.2820  145.1050 C   0  0  0  0  0  0  0  0  0  0  0  0
  162.6380  214.4490  144.8770 O   0  0  0  0  0  0  0  0  0  0  0  0
  160.4920  214.0520  143.9700 C   0  0  1  0  0  3  0  0  0  0  0  0
  161.1190  214.4530  142.6490 C   0  0  0  0  0  1  0  0  0  0  0  0
  160.0040  212.5980  143.9090 C   0  0  0  0  0  2  0  0  0  0  0  0
  159.5330  212.2890  142.6280 O   0  0  0  0  0  1  0  0  0  0  0  0
  1 15  1  0  0  0  0
  2  1  2  0  0  0  0
  4 14  2  0  0  0  0
  5  3  1  6  0  0  0
  5 11  1  0  0  0  0
  6  7  1  0  0  0  0
  7 13  2  0  0  0  0
  7  9  1  0  0  0  0
  8  9  1  0  0  0  0
  8 17  2  0  0  0  0
  9  4  2  0  0  0  0
 10 11  2  0  0  0  0
 12 14  1  0  0  0  0
 12 18  2  0  0  0  0
 14 10  1  0  0  0  0
 15  6  2  0  0  0  0
 15 16  1  0  0  0  0
 16  8  1  0  0  0  0
 18  5  1  0  0  0  0
 19 24  1  1  0  0  0
 21 23  1  1  0  0  0
 21 22  1  0  0  0  0
 21 19  1  0  0  0  0
 22  2  1  6  0  0  0
 22 19  1  0  0  0  0
 23 25  1  0  0  0  0
 24 20  1  0  0  0  0
 25 20  1  0  0  0  0
 26 25  1  0  0  0  0
 27 28  1  0  0  0  0
 27 26  1  0  0  0  0
 29 28  1  0  0  0  0
 30 29  1  0  0  0  0
 31 30  1  0  0  0  0
 32 33  1  0  0  0  0
 32 31  1  0  0  0  0
 34 33  1  0  0  0  0
 34 35  1  0  0  0  0
 36  1  1  1  0  0  0
 37 38  1  0  0  0  0
 37 36  1  0  0  0  0
 38 36  1  0  0  0  0
 39 38  1  0  0  0  0
 40 41  1  6  0  0  0
 40 39  1  0  0  0  0
 42 40  1  0  0  0  0
 43 42  2  0  0  0  0
 44 45  1  6  0  0  0
 44 42  1  0  0  0  0
 46 44  1  0  0  0  0
 47 46  1  0  0  0  0
M  END
>  <MODEL>
3

>  <REMARK>
 VINA RESULT:      -6.2      2.737      7.723
  Name = 
  17 active torsions:
  status: ('A' for Active; 'I' for Inactive)
    1  A    between atoms: C_2  and  C_10
    2  A    between atoms: C_2  and  C_13
    3  A    between atoms: C_4  and  C_26
    4  A    between atoms: C_4  and  C_33
    5  A    between atoms: C_9  and  C_17
    6  A    between atoms: C_10  and  C_31
    7  A    between atoms: C_13  and  C_27
    8  A    between atoms: C_17  and  C_34
    9  A    between atoms: C_18  and  C_19
   10  A    between atoms: C_18  and  N_46
   11  A    between atoms: C_19  and  C_27
   12  A    between atoms: C_23  and  O_44
   13  A    between atoms: C_24  and  C_36
   14  A    between atoms: C_26  and  C_36
   15  A    between atoms: N_30  and  C_37
   16  A    between atoms: C_31  and  O_44
   17  A    between atoms: C_33  and  N_40
                            x       y       z     vdW  Elec       q    Type
                         _______ _______ _______ _____ _____    ______ ____

>  <TORSDO>
F 17

$$$$
=
 OpenBabel11042421513D

 47 51  0  0  1  0  0  0  0  0999 V2000
  161.3590  210.4400  150.9630 C   0  0  0  0  0  0  0  0  0  0  0  0
  160.5380  210.5850  151.9710 N   0  0  0  0  0  0  0  0  0  0  0  0
  159.4050  212.3720  142.1390 N   0  0  0  0  0  1  0  0  0  0  0  0
  161.4380  213.3590  146.3210 C   0  0  0  0  0  0  0  0  0  0  0  0
  160.4330  213.3820  142.3290 C   0  0  1  0  0  3  0  0  0  0  0  0
  162.6020  211.4670  149.1760 N   0  0  0  0  0  0  0  0  0  0  0  0
  162.7420  212.3350  148.0410 C   0  0  0  0  0  0  0  0  0  0  0  0
  160.4390  213.1830  148.5280 C   0  0  0  0  0  0  0  0  0  0  0  0
  161.5760  213.0990  147.5870 C   0  0  0  0  0  0  0  0  0  0  0  0
  160.2750  214.4530  144.5230 C   0  0  0  0  0  3  0  0  0  0  0  0
  159.9330  214.4010  143.2690 N   0  0  0  0  0  0  0  0  0  0  0  0
  162.0750  212.7570  144.0890 C   0  0  0  0  0  3  0  0  0  0  0  0
  163.8400  212.3850  147.4120 O   0  0  0  0  0  0  0  0  0  0  0  0
  161.2950  213.5470  145.0420 C   0  0  0  0  0  0  0  0  0  0  0  0
  161.5940  211.5410  150.0060 C   0  0  0  0  0  0  0  0  0  0  0  0
  160.6040  212.6770  149.9270 C   0  0  0  0  0  2  0  0  0  0  0  0
  159.2750  213.7220  148.1940 C   0  0  0  0  0  2  0  0  0  0  0  0
  161.7050  212.7130  142.8060 C   0  0  0  0  0  3  0  0  0  0  0  0
  159.7960  212.1600  153.6960 C   0  0  1  0  0  3  0  0  0  0  0  0
  158.6100  214.3920  153.1720 C   0  0  0  0  0  2  0  0  0  0  0  0
  158.5750  211.4930  153.0620 C   0  0  2  0  0  3  0  0  0  0  0  0
  159.7960  211.8150  152.2270 C   0  0  2  0  0  3  0  0  0  0  0  0
  157.4120  212.3880  152.5870 C   0  0  0  0  0  2  0  0  0  0  0  0
  159.7020  213.6720  153.9480 C   0  0  0  0  0  2  0  0  0  0  0  0
  157.3290  213.7040  153.2470 N   0  0  0  0  0  0  0  0  0  0  0  0
  156.8920  213.5780  154.6390 C   0  0  0  0  0  2  0  0  0  0  0  0
  156.1380  212.2850  154.8300 C   0  0  0  0  0  2  0  0  0  0  0  0
  156.6540  211.5780  156.0640 C   0  0  0  0  0  2  0  0  0  0  0  0
  157.3520  212.5750  156.9570 C   0  0  0  0  0  2  0  0  0  0  0  0
  158.8080  212.1760  157.1440 C   0  0  0  0  0  2  0  0  0  0  0  0
  158.9920  210.6650  157.0780 C   0  0  0  0  0  2  0  0  0  0  0  0
  160.4530  210.2830  157.2470 C   0  0  0  0  0  2  0  0  0  0  0  0
  161.2750  211.3540  156.9000 O   0  0  0  0  0  0  0  0  0  0  0  0
  162.3450  210.7890  156.2110 C   0  0  0  0  0  2  0  0  0  0  0  0
  163.4580  210.5920  157.1280 N   0  0  0  0  0  1  0  0  0  0  0  0
  162.1060  209.1540  150.7900 C   0  0  1  0  0  3  0  0  0  0  0  0
  161.5440  208.1020  151.6360 C   0  0  0  0  0  2  0  0  0  0  0  0
  161.1840  208.1640  150.2230 N   0  0  0  0  0  0  0  0  0  0  0  0
  161.9960  207.1660  149.5310 C   0  0  0  0  0  2  0  0  0  0  0  0
  161.1060  206.2760  148.6750 C   0  0  2  0  0  3  0  0  0  0  0  0
  159.7640  206.5730  148.8770 F   0  0  0  0  0  0  0  0  0  0  0  0
  161.3990  204.8260  148.9120 C   0  0  0  0  0  0  0  0  0  0  0  0
  161.3830  204.3910  150.0510 O   0  0  0  0  0  0  0  0  0  0  0  0
  161.8010  203.9320  147.7710 C   0  0  1  0  0  3  0  0  0  0  0  0
  161.0770  202.6020  147.8530 C   0  0  0  0  0  1  0  0  0  0  0  0
  161.5570  204.5890  146.4050 C   0  0  0  0  0  2  0  0  0  0  0  0
  162.4450  204.0830  145.4490 O   0  0  0  0  0  1  0  0  0  0  0  0
  1  2  2  0  0  0  0
  4  9  2  0  0  0  0
  5  3  1  1  0  0  0
  5 18  1  0  0  0  0
  5 11  1  0  0  0  0
  6 15  2  0  0  0  0
  7  6  1  0  0  0  0
  8 16  1  0  0  0  0
  9  7  1  0  0  0  0
  9  8  1  0  0  0  0
 10 14  1  0  0  0  0
 11 10  2  0  0  0  0
 12 14  1  0  0  0  0
 13  7  2  0  0  0  0
 14  4  2  0  0  0  0
 15  1  1  0  0  0  0
 16 15  1  0  0  0  0
 17  8  2  0  0  0  0
 18 12  2  0  0  0  0
 19 24  1  6  0  0  0
 20 25  1  0  0  0  0
 20 24  1  0  0  0  0
 21 23  1  6  0  0  0
 21 19  1  0  0  0  0
 22  2  1  1  0  0  0
 22 21  1  0  0  0  0
 22 19  1  0  0  0  0
 23 25  1  0  0  0  0
 25 26  1  0  0  0  0
 26 27  1  0  0  0  0
 27 28  1  0  0  0  0
 28 29  1  0  0  0  0
 29 30  1  0  0  0  0
 31 30  1  0  0  0  0
 31 32  1  0  0  0  0
 33 32  1  0  0  0  0
 34 33  1  0  0  0  0
 34 35  1  0  0  0  0
 36  1  1  1  0  0  0
 36 37  1  0  0  0  0
 38 36  1  0  0  0  0
 38 37  1  0  0  0  0
 39 38  1  0  0  0  0
 40 41  1  1  0  0  0
 40 42  1  0  0  0  0
 40 39  1  0  0  0  0
 42 43  2  0  0  0  0
 44 45  1  6  0  0  0
 44 42  1  0  0  0  0
 46 44  1  0  0  0  0
 47 46  1  0  0  0  0
M  END
>  <MODEL>
4

>  <REMARK>
 VINA RESULT:      -5.6      2.434      9.610
  Name = 
  17 active torsions:
  status: ('A' for Active; 'I' for Inactive)
    1  A    between atoms: C_2  and  C_10
    2  A    between atoms: C_2  and  C_13
    3  A    between atoms: C_4  and  C_26
    4  A    between atoms: C_4  and  C_33
    5  A    between atoms: C_9  and  C_17
    6  A    between atoms: C_10  and  C_31
    7  A    between atoms: C_13  and  C_27
    8  A    between atoms: C_17  and  C_34
    9  A    between atoms: C_18  and  C_19
   10  A    between atoms: C_18  and  N_46
   11  A    between atoms: C_19  and  C_27
   12  A    between atoms: C_23  and  O_44
   13  A    between atoms: C_24  and  C_36
   14  A    between atoms: C_26  and  C_36
   15  A    between atoms: N_30  and  C_37
   16  A    between atoms: C_31  and  O_44
   17  A    between atoms: C_33  and  N_40
                            x       y       z     vdW  Elec       q    Type
                         _______ _______ _______ _____ _____    ______ ____

>  <TORSDO>
F 17

$$$$
=
 OpenBabel11042421513D

 47 51  0  0  1  0  0  0  0  0999 V2000
  160.8990  207.8870  152.9820 C   0  0  0  0  0  0  0  0  0  0  0  0
  160.8050  206.6230  152.6590 N   0  0  0  0  0  0  0  0  0  0  0  0
  157.8360  213.4820  146.2940 N   0  0  0  0  0  1  0  0  0  0  0  0
  161.2960  211.5520  148.9210 C   0  0  0  0  0  0  0  0  0  0  0  0
  159.2490  213.5370  145.9520 C   0  0  1  0  0  3  0  0  0  0  0  0
  161.7510  208.5050  150.8170 N   0  0  0  0  0  0  0  0  0  0  0  0
  162.0300  209.4410  149.7650 C   0  0  0  0  0  0  0  0  0  0  0  0
  161.3340  211.2620  151.3320 C   0  0  0  0  0  0  0  0  0  0  0  0
  161.6570  210.8470  149.9510 C   0  0  0  0  0  0  0  0  0  0  0  0
  160.6700  213.6560  147.9390 C   0  0  0  0  0  3  0  0  0  0  0  0
  159.9700  214.2520  147.0200 N   0  0  0  0  0  0  0  0  0  0  0  0
  160.4860  211.5010  146.6650 C   0  0  0  0  0  3  0  0  0  0  0  0
  162.5330  209.0380  148.6750 O   0  0  0  0  0  0  0  0  0  0  0  0
  160.8770  212.2120  147.8820 C   0  0  0  0  0  0  0  0  0  0  0  0
  161.4620  208.8750  152.0380 C   0  0  0  0  0  0  0  0  0  0  0  0
  161.5890  210.3160  152.4640 C   0  0  0  0  0  2  0  0  0  0  0  0
  160.8490  212.4620  151.6220 C   0  0  0  0  0  2  0  0  0  0  0  0
  159.7620  212.1300  145.7340 C   0  0  0  0  0  3  0  0  0  0  0  0
  160.0670  205.7790  150.4790 C   0  0  1  0  0  3  0  0  0  0  0  0
  161.6830  205.2210  148.5460 C   0  0  0  0  0  2  0  0  0  0  0  0
  160.7730  204.6580  151.2430 C   0  0  2  0  0  3  0  0  0  0  0  0
  161.2430  206.0910  151.3730 C   0  0  2  0  0  3  0  0  0  0  0  0
  161.8690  203.8510  150.5160 C   0  0  0  0  0  2  0  0  0  0  0  0
  160.4040  205.9160  148.9880 C   0  0  0  0  0  2  0  0  0  0  0  0
  161.7740  203.8560  149.0450 N   0  0  0  0  0  0  0  0  0  0  0  0
  160.6380  203.0600  148.5790 C   0  0  0  0  0  2  0  0  0  0  0  0
  160.7120  201.6660  149.1540 C   0  0  0  0  0  2  0  0  0  0  0  0
  161.1210  200.6940  148.0690 C   0  0  0  0  0  2  0  0  0  0  0  0
  161.3610  201.4500  146.7840 C   0  0  0  0  0  2  0  0  0  0  0  0
  160.4290  200.9360  145.6960 C   0  0  0  0  0  2  0  0  0  0  0  0
  159.9940  202.0520  144.7540 C   0  0  0  0  0  2  0  0  0  0  0  0
  160.6370  203.3740  145.1370 C   0  0  0  0  0  2  0  0  0  0  0  0
  160.4310  204.3200  144.1340 O   0  0  0  0  0  0  0  0  0  0  0  0
  161.1290  205.4530  144.5460 C   0  0  0  0  0  2  0  0  0  0  0  0
  160.2660  206.2730  145.3820 N   0  0  0  0  0  1  0  0  0  0  0  0
  160.3980  208.3550  154.3120 C   0  0  1  0  0  3  0  0  0  0  0  0
  160.4410  207.2770  155.2990 C   0  0  0  0  0  2  0  0  0  0  0  0
  161.5050  208.2760  155.2710 N   0  0  0  0  0  0  0  0  0  0  0  0
  161.2220  209.2340  156.3370 C   0  0  0  0  0  2  0  0  0  0  0  0
  161.7570  210.6060  155.9570 C   0  0  2  0  0  3  0  0  0  0  0  0
  162.9620  210.8660  156.5980 F   0  0  0  0  0  0  0  0  0  0  0  0
  160.7430  211.6780  156.2190 C   0  0  0  0  0  0  0  0  0  0  0  0
  160.7990  212.3110  157.2600 O   0  0  0  0  0  0  0  0  0  0  0  0
  159.6110  211.9110  155.2560 C   0  0  1  0  0  3  0  0  0  0  0  0
  158.3730  211.1520  155.6920 C   0  0  0  0  0  1  0  0  0  0  0  0
  159.2920  213.4020  155.0870 C   0  0  0  0  0  2  0  0  0  0  0  0
  157.9140  213.6270  155.1960 O   0  0  0  0  0  1  0  0  0  0  0  0
  2  1  2  0  0  0  0
  4  9  2  0  0  0  0
  5  3  1  1  0  0  0
  5 11  1  0  0  0  0
  6 15  2  0  0  0  0
  7  9  1  0  0  0  0
  7  6  1  0  0  0  0
  8 17  2  0  0  0  0
  8 16  1  0  0  0  0
  9  8  1  0  0  0  0
 11 10  2  0  0  0  0
 12 14  1  0  0  0  0
 13  7  2  0  0  0  0
 14 10  1  0  0  0  0
 14  4  2  0  0  0  0
 15 16  1  0  0  0  0
 15  1  1  0  0  0  0
 18  5  1  0  0  0  0
 18 12  2  0  0  0  0
 19 24  1  6  0  0  0
 19 21  1  0  0  0  0
 19 22  1  0  0  0  0
 20 24  1  0  0  0  0
 20 25  1  0  0  0  0
 21 23  1  6  0  0  0
 21 22  1  0  0  0  0
 22  2  1  1  0  0  0
 25 23  1  0  0  0  0
 26 25  1  0  0  0  0
 26 27  1  0  0  0  0
 28 27  1  0  0  0  0
 29 28  1  0  0  0  0
 30 29  1  0  0  0  0
 31 32  1  0  0  0  0
 31 30  1  0  0  0  0
 33 34  1  0  0  0  0
 33 32  1  0  0  0  0
 34 35  1  0  0  0  0
 36  1  1  6  0  0  0
 36 38  1  0  0  0  0
 36 37  1  0  0  0  0
 38 37  1  0  0  0  0
 38 39  1  0  0  0  0
 40 42  1  0  0  0  0
 40 39  1  0  0  0  0
 40 41  1  1  0  0  0
 42 43  2  0  0  0  0
 44 45  1  1  0  0  0
 44 42  1  0  0  0  0
 46 47  1  0  0  0  0
 46 44  1  0  0  0  0
M  END
>  <MODEL>
5

>  <REMARK>
 VINA RESULT:      -5.6      3.578      8.761
  Name = 
  17 active torsions:
  status: ('A' for Active; 'I' for Inactive)
    1  A    between atoms: C_2  and  C_10
    2  A    between atoms: C_2  and  C_13
    3  A    between atoms: C_4  and  C_26
    4  A    between atoms: C_4  and  C_33
    5  A    between atoms: C_9  and  C_17
    6  A    between atoms: C_10  and  C_31
    7  A    between atoms: C_13  and  C_27
    8  A    between atoms: C_17  and  C_34
    9  A    between atoms: C_18  and  C_19
   10  A    between atoms: C_18  and  N_46
   11  A    between atoms: C_19  and  C_27
   12  A    between atoms: C_23  and  O_44
   13  A    between atoms: C_24  and  C_36
   14  A    between atoms: C_26  and  C_36
   15  A    between atoms: N_30  and  C_37
   16  A    between atoms: C_31  and  O_44
   17  A    between atoms: C_33  and  N_40
                            x       y       z     vdW  Elec       q    Type
                         _______ _______ _______ _____ _____    ______ ____

>  <TORSDO>
F 17

$$$$
=
 OpenBabel11042421513D

 47 51  0  0  1  0  0  0  0  0999 V2000
  160.8830  210.4350  151.4230 C   0  0  0  0  0  0  0  0  0  0  0  0
  160.8670  211.5680  150.7690 N   0  0  0  0  0  0  0  0  0  0  0  0
  158.7420  201.7180  149.2190 N   0  0  0  0  0  1  0  0  0  0  0  0
  161.8170  205.3100  149.7050 C   0  0  0  0  0  0  0  0  0  0  0  0
  160.1880  201.5620  149.2230 C   0  0  1  0  0  3  0  0  0  0  0  0
  162.0220  208.3310  151.6860 N   0  0  0  0  0  0  0  0  0  0  0  0
  162.4380  207.0300  151.2430 C   0  0  0  0  0  0  0  0  0  0  0  0
  161.5250  207.6130  148.9880 C   0  0  0  0  0  0  0  0  0  0  0  0
  162.0360  206.5750  149.9080 C   0  0  0  0  0  0  0  0  0  0  0  0
  161.3230  203.4830  148.2220 C   0  0  0  0  0  3  0  0  0  0  0  0
  160.7520  202.3220  148.0940 N   0  0  0  0  0  0  0  0  0  0  0  0
  161.3250  203.1930  150.7160 C   0  0  0  0  0  3  0  0  0  0  0  0
  163.0870  206.2720  152.0220 O   0  0  0  0  0  0  0  0  0  0  0  0
  161.5420  204.0500  149.5500 C   0  0  0  0  0  0  0  0  0  0  0  0
  161.5660  209.2460  150.8710 C   0  0  0  0  0  0  0  0  0  0  0  0
  161.6270  209.0550  149.3760 C   0  0  0  0  0  2  0  0  0  0  0  0
  161.0000  207.3230  147.8050 C   0  0  0  0  0  2  0  0  0  0  0  0
  160.7330  202.0050  150.5640 C   0  0  0  0  0  3  0  0  0  0  0  0
  161.7460  213.2100  149.1750 C   0  0  1  0  0  3  0  0  0  0  0  0
  163.0140  212.5670  147.0220 C   0  0  0  0  0  2  0  0  0  0  0  0
  160.5500  212.4890  148.5510 C   0  0  2  0  0  3  0  0  0  0  0  0
  161.5010  211.7490  149.4680 C   0  0  2  0  0  3  0  0  0  0  0  0
  160.7010  211.9120  147.1280 C   0  0  0  0  0  2  0  0  0  0  0  0
  162.9640  213.4360  148.2690 C   0  0  0  0  0  2  0  0  0  0  0  0
  161.7460  212.5480  146.3060 N   0  0  0  0  0  0  0  0  0  0  0  0
  161.3620  213.9020  145.9030 C   0  0  0  0  0  2  0  0  0  0  0  0
  161.5160  214.0610  144.4100 C   0  0  0  0  0  2  0  0  0  0  0  0
  160.2580  213.5820  143.7200 C   0  0  0  0  0  2  0  0  0  0  0  0
  160.5230  212.2470  143.0670 C   0  0  0  0  0  2  0  0  0  0  0  0
  161.9450  212.2030  142.5280 C   0  0  0  0  0  2  0  0  0  0  0  0
  162.0220  211.4570  141.2010 C   0  0  0  0  0  2  0  0  0  0  0  0
  162.7050  212.3010  140.1370 C   0  0  0  0  0  2  0  0  0  0  0  0
  163.4920  211.4960  139.3160 O   0  0  0  0  0  0  0  0  0  0  0  0
  162.6970  211.2110  138.2080 C   0  0  0  0  0  2  0  0  0  0  0  0
  162.5640  212.4070  137.3910 N   0  0  0  0  0  1  0  0  0  0  0  0
  160.2340  210.3420  152.7680 C   0  0  1  0  0  3  0  0  0  0  0  0
  161.1560  210.7530  153.8260 C   0  0  0  0  0  2  0  0  0  0  0  0
  160.1560  211.6940  153.3320 N   0  0  0  0  0  0  0  0  0  0  0  0
  159.0570  211.6970  154.2950 C   0  0  0  0  0  2  0  0  0  0  0  0
  158.5650  213.1200  154.5160 C   0  0  2  0  0  3  0  0  0  0  0  0
  159.2850  213.7440  155.5260 F   0  0  0  0  0  0  0  0  0  0  0  0
  157.0910  213.1500  154.7800 C   0  0  0  0  0  0  0  0  0  0  0  0
  156.4380  214.1140  154.4160 O   0  0  0  0  0  0  0  0  0  0  0  0
  156.4330  212.0500  155.5680 C   0  0  1  0  0  3  0  0  0  0  0  0
  155.5890  212.6260  156.6890 C   0  0  0  0  0  1  0  0  0  0  0  0
  155.5840  211.1290  154.6800 C   0  0  0  0  0  2  0  0  0  0  0  0
  155.1970  209.9840  155.3850 O   0  0  0  0  0  1  0  0  0  0  0  0
  2  1  2  0  0  0  0
  4  9  2  0  0  0  0
  5  3  1  1  0  0  0
  5 18  1  0  0  0  0
  7  6  1  0  0  0  0
  7 13  2  0  0  0  0
  8 16  1  0  0  0  0
  8  9  1  0  0  0  0
  9  7  1  0  0  0  0
 10 14  1  0  0  0  0
 11 10  2  0  0  0  0
 11  5  1  0  0  0  0
 14  4  2  0  0  0  0
 14 12  1  0  0  0  0
 15  1  1  0  0  0  0
 15  6  2  0  0  0  0
 16 15  1  0  0  0  0
 17  8  2  0  0  0  0
 18 12  2  0  0  0  0
 19 24  1  6  0  0  0
 19 22  1  0  0  0  0
 20 24  1  0  0  0  0
 21 23  1  6  0  0  0
 21 19  1  0  0  0  0
 21 22  1  0  0  0  0
 22  2  1  1  0  0  0
 25 20  1  0  0  0  0
 25 23  1  0  0  0  0
 26 25  1  0  0  0  0
 27 26  1  0  0  0  0
 28 27  1  0  0  0  0
 29 28  1  0  0  0  0
 30 29  1  0  0  0  0
 31 30  1  0  0  0  0
 32 31  1  0  0  0  0
 33 32  1  0  0  0  0
 34 33  1  0  0  0  0
 35 34  1  0  0  0  0
 36  1  1  6  0  0  0
 36 38  1  0  0  0  0
 36 37  1  0  0  0  0
 38 37  1  0  0  0  0
 38 39  1  0  0  0  0
 39 40  1  0  0  0  0
 40 42  1  0  0  0  0
 40 41  1  1  0  0  0
 42 44  1  0  0  0  0
 43 42  2  0  0  0  0
 44 45  1  1  0  0  0
 46 47  1  0  0  0  0
 46 44  1  0  0  0  0
M  END
>  <MODEL>
6

>  <REMARK>
 VINA RESULT:      -5.2      2.631      7.617
  Name = 
  17 active torsions:
  status: ('A' for Active; 'I' for Inactive)
    1  A    between atoms: C_2  and  C_10
    2  A    between atoms: C_2  and  C_13
    3  A    between atoms: C_4  and  C_26
    4  A    between atoms: C_4  and  C_33
    5  A    between atoms: C_9  and  C_17
    6  A    between atoms: C_10  and  C_31
    7  A    between atoms: C_13  and  C_27
    8  A    between atoms: C_17  and  C_34
    9  A    between atoms: C_18  and  C_19
   10  A    between atoms: C_18  and  N_46
   11  A    between atoms: C_19  and  C_27
   12  A    between atoms: C_23  and  O_44
   13  A    between atoms: C_24  and  C_36
   14  A    between atoms: C_26  and  C_36
   15  A    between atoms: N_30  and  C_37
   16  A    between atoms: C_31  and  O_44
   17  A    between atoms: C_33  and  N_40
                            x       y       z     vdW  Elec       q    Type
                         _______ _______ _______ _____ _____    ______ ____

>  <TORSDO>
F 17

$$$$
=
 OpenBabel11042421513D

 47 51  0  0  1  0  0  0  0  0999 V2000
  159.5010  213.1070  151.7690 C   0  0  0  0  0  0  0  0  0  0  0  0
  159.3690  213.6420  150.5830 N   0  0  0  0  0  0  0  0  0  0  0  0
  160.0080  203.8880  151.3500 N   0  0  0  0  0  1  0  0  0  0  0  0
  161.8210  208.1690  152.3380 C   0  0  0  0  0  0  0  0  0  0  0  0
  161.1970  204.1050  152.1580 C   0  0  1  0  0  3  0  0  0  0  0  0
  160.5110  211.4360  153.1760 N   0  0  0  0  0  0  0  0  0  0  0  0
  161.2500  210.2280  153.4090 C   0  0  0  0  0  0  0  0  0  0  0  0
  161.7350  210.1660  150.9560 C   0  0  0  0  0  0  0  0  0  0  0  0
  161.7400  209.4640  152.2570 C   0  0  0  0  0  0  0  0  0  0  0  0
  162.4750  206.0510  151.4080 C   0  0  0  0  0  3  0  0  0  0  0  0
  162.2160  204.7780  151.3350 N   0  0  0  0  0  0  0  0  0  0  0  0
  161.0800  206.2020  153.4900 C   0  0  0  0  0  3  0  0  0  0  0  0
  161.4160  209.8030  154.5910 O   0  0  0  0  0  0  0  0  0  0  0  0
  161.8280  206.8730  152.4270 C   0  0  0  0  0  0  0  0  0  0  0  0
  160.5050  212.0530  152.0230 C   0  0  0  0  0  0  0  0  0  0  0  0
  161.4330  211.6310  150.9110 C   0  0  0  0  0  2  0  0  0  0  0  0
  162.0190  209.5540  149.8140 C   0  0  0  0  0  2  0  0  0  0  0  0
  160.8210  204.8940  153.3940 C   0  0  0  0  0  3  0  0  0  0  0  0
  160.7800  214.4530  148.7490 C   0  0  1  0  0  3  0  0  0  0  0  0
  162.1190  212.8950  147.1870 C   0  0  0  0  0  2  0  0  0  0  0  0
  159.5360  213.7780  148.1700 C   0  0  2  0  0  3  0  0  0  0  0  0
  160.1790  213.2490  149.4340 C   0  0  2  0  0  3  0  0  0  0  0  0
  159.7220  212.7280  147.0550 C   0  0  0  0  0  2  0  0  0  0  0  0
  162.1180  214.1380  148.0650 C   0  0  0  0  0  2  0  0  0  0  0  0
  160.9750  212.8490  146.2870 N   0  0  0  0  0  0  0  0  0  0  0  0
  160.9570  214.0240  145.4150 C   0  0  0  0  0  2  0  0  0  0  0  0
  162.0240  213.8990  144.3550 C   0  0  0  0  0  2  0  0  0  0  0  0
  161.3780  213.5880  143.0230 C   0  0  0  0  0  2  0  0  0  0  0  0
  161.7860  212.2030  142.5800 C   0  0  0  0  0  2  0  0  0  0  0  0
  161.7920  212.1230  141.0610 C   0  0  0  0  0  2  0  0  0  0  0  0
  160.7810  211.1060  140.5460 C   0  0  0  0  0  2  0  0  0  0  0  0
  160.0350  211.6410  139.3340 C   0  0  0  0  0  2  0  0  0  0  0  0
  158.6590  211.5650  139.5440 O   0  0  0  0  0  0  0  0  0  0  0  0
  158.2240  210.5040  138.7520 C   0  0  0  0  0  2  0  0  0  0  0  0
  156.9990  209.9550  139.3140 N   0  0  0  0  0  1  0  0  0  0  0  0
  158.6500  213.5890  152.9010 C   0  0  1  0  0  3  0  0  0  0  0  0
  157.5210  214.3790  152.4120 C   0  0  0  0  0  2  0  0  0  0  0  0
  157.3230  212.9780  152.7690 N   0  0  0  0  0  0  0  0  0  0  0  0
  156.7230  212.9550  154.1010 C   0  0  0  0  0  2  0  0  0  0  0  0
  157.0900  211.6620  154.8140 C   0  0  2  0  0  3  0  0  0  0  0  0
  156.1370  210.6790  154.5830 F   0  0  0  0  0  0  0  0  0  0  0  0
  157.3130  211.8920  156.2770 C   0  0  0  0  0  0  0  0  0  0  0  0
  156.4390  212.4300  156.9370 O   0  0  0  0  0  0  0  0  0  0  0  0
  158.6330  211.5510  156.9130 C   0  0  1  0  0  3  0  0  0  0  0  0
  159.0600  210.1450  156.5380 C   0  0  0  0  0  1  0  0  0  0  0  0
  159.7310  212.5590  156.5440 C   0  0  0  0  0  2  0  0  0  0  0  0
  160.9880  212.0830  156.9350 O   0  0  0  0  0  1  0  0  0  0  0  0
  1 15  1  0  0  0  0
  2  1  2  0  0  0  0
  4 14  2  0  0  0  0
  5  3  1  6  0  0  0
  5 18  1  0  0  0  0
  6  7  1  0  0  0  0
  7 13  2  0  0  0  0
  8  9  1  0  0  0  0
  9  4  2  0  0  0  0
  9  7  1  0  0  0  0
 10 14  1  0  0  0  0
 11 10  2  0  0  0  0
 11  5  1  0  0  0  0
 14 12  1  0  0  0  0
 15  6  2  0  0  0  0
 16  8  1  0  0  0  0
 16 15  1  0  0  0  0
 17  8  2  0  0  0  0
 18 12  2  0  0  0  0
 19 24  1  6  0  0  0
 19 22  1  0  0  0  0
 20 24  1  0  0  0  0
 21 23  1  6  0  0  0
 21 19  1  0  0  0  0
 21 22  1  0  0  0  0
 22  2  1  1  0  0  0
 25 23  1  0  0  0  0
 25 20  1  0  0  0  0
 26 25  1  0  0  0  0
 27 26  1  0  0  0  0
 28 27  1  0  0  0  0
 29 28  1  0  0  0  0
 30 29  1  0  0  0  0
 31 30  1  0  0  0  0
 32 33  1  0  0  0  0
 32 31  1  0  0  0  0
 34 35  1  0  0  0  0
 34 33  1  0  0  0  0
 36  1  1  6  0  0  0
 37 38  1  0  0  0  0
 37 36  1  0  0  0  0
 38 36  1  0  0  0  0
 38 39  1  0  0  0  0
 39 40  1  0  0  0  0
 40 41  1  1  0  0  0
 40 42  1  0  0  0  0
 42 44  1  0  0  0  0
 42 43  2  0  0  0  0
 44 45  1  6  0  0  0
 46 44  1  0  0  0  0
 46 47  1  0  0  0  0
M  END
>  <MODEL>
7

>  <REMARK>
 VINA RESULT:      -5.0      3.070      6.747
  Name = 
  17 active torsions:
  status: ('A' for Active; 'I' for Inactive)
    1  A    between atoms: C_2  and  C_10
    2  A    between atoms: C_2  and  C_13
    3  A    between atoms: C_4  and  C_26
    4  A    between atoms: C_4  and  C_33
    5  A    between atoms: C_9  and  C_17
    6  A    between atoms: C_10  and  C_31
    7  A    between atoms: C_13  and  C_27
    8  A    between atoms: C_17  and  C_34
    9  A    between atoms: C_18  and  C_19
   10  A    between atoms: C_18  and  N_46
   11  A    between atoms: C_19  and  C_27
   12  A    between atoms: C_23  and  O_44
   13  A    between atoms: C_24  and  C_36
   14  A    between atoms: C_26  and  C_36
   15  A    between atoms: N_30  and  C_37
   16  A    between atoms: C_31  and  O_44
   17  A    between atoms: C_33  and  N_40
                            x       y       z     vdW  Elec       q    Type
                         _______ _______ _______ _____ _____    ______ ____

>  <TORSDO>
F 17

$$$$
=
 OpenBabel11042421513D

 47 51  0  0  1  0  0  0  0  0999 V2000
  161.1760  206.9850  152.1780 C   0  0  0  0  0  0  0  0  0  0  0  0
  161.1870  205.9430  151.3880 N   0  0  0  0  0  0  0  0  0  0  0  0
  157.7970  213.4520  146.5060 N   0  0  0  0  0  1  0  0  0  0  0  0
  161.1520  211.7040  149.3830 C   0  0  0  0  0  0  0  0  0  0  0  0
  159.1620  213.9490  146.5650 C   0  0  1  0  0  3  0  0  0  0  0  0
  162.1710  208.4270  150.5270 N   0  0  0  0  0  0  0  0  0  0  0  0
  162.3340  209.6790  149.8460 C   0  0  0  0  0  0  0  0  0  0  0  0
  160.8450  210.7040  151.5750 C   0  0  0  0  0  0  0  0  0  0  0  0
  161.5210  210.8260  150.2670 C   0  0  0  0  0  0  0  0  0  0  0  0
  160.0990  213.7910  148.8190 C   0  0  0  0  0  3  0  0  0  0  0  0
  159.4270  214.4530  147.9250 N   0  0  0  0  0  0  0  0  0  0  0  0
  160.8140  212.1560  147.0530 C   0  0  0  0  0  3  0  0  0  0  0  0
  163.1220  209.7670  148.8580 O   0  0  0  0  0  0  0  0  0  0  0  0
  160.7450  212.5300  148.4660 C   0  0  0  0  0  0  0  0  0  0  0  0
  161.5690  208.3210  151.6830 C   0  0  0  0  0  0  0  0  0  0  0  0
  161.1710  209.5470  152.4670 C   0  0  0  0  0  2  0  0  0  0  0  0
  159.9730  211.6020  152.0140 C   0  0  0  0  0  2  0  0  0  0  0  0
  160.1120  212.8470  146.1500 C   0  0  0  0  0  3  0  0  0  0  0  0
  160.4430  206.4780  149.1140 C   0  0  1  0  0  3  0  0  0  0  0  0
  162.0240  206.5310  147.0740 C   0  0  0  0  0  2  0  0  0  0  0  0
  160.7850  204.9900  149.1970 C   0  0  2  0  0  3  0  0  0  0  0  0
  161.5830  206.0070  149.9850 C   0  0  2  0  0  3  0  0  0  0  0  0
  161.7040  204.3850  148.1150 C   0  0  0  0  0  2  0  0  0  0  0  0
  160.9250  207.2270  147.8630 C   0  0  0  0  0  2  0  0  0  0  0  0
  161.7340  205.1240  146.8390 N   0  0  0  0  0  0  0  0  0  0  0  0
  160.4780  204.9730  146.1030 C   0  0  0  0  0  2  0  0  0  0  0  0
  160.6850  204.0820  144.9020 C   0  0  0  0  0  2  0  0  0  0  0  0
  161.3870  202.8120  145.3320 C   0  0  0  0  0  2  0  0  0  0  0  0
  160.3970  201.6730  145.3470 C   0  0  0  0  0  2  0  0  0  0  0  0
  160.9480  200.5140  146.1630 C   0  0  0  0  0  2  0  0  0  0  0  0
  161.2070  200.9160  147.6100 C   0  0  0  0  0  2  0  0  0  0  0  0
  159.9060  201.0250  148.3890 C   0  0  0  0  0  2  0  0  0  0  0  0
  160.0130  202.0100  149.3690 O   0  0  0  0  0  0  0  0  0  0  0  0
  160.4450  201.3450  150.5150 C   0  0  0  0  0  2  0  0  0  0  0  0
  161.5300  202.0960  151.1270 N   0  0  0  0  0  1  0  0  0  0  0  0
  160.7260  206.8380  153.5980 C   0  0  1  0  0  3  0  0  0  0  0  0
  161.5270  205.8380  154.3020 C   0  0  0  0  0  2  0  0  0  0  0  0
  161.8280  207.2560  154.4720 N   0  0  0  0  0  0  0  0  0  0  0  0
  161.2370  207.6710  155.7420 C   0  0  0  0  0  2  0  0  0  0  0  0
  161.2290  209.1890  155.8390 C   0  0  2  0  0  3  0  0  0  0  0  0
  162.2090  209.6370  156.7170 F   0  0  0  0  0  0  0  0  0  0  0  0
  159.8710  209.7030  156.2090 C   0  0  0  0  0  0  0  0  0  0  0  0
  158.9090  208.9580  156.1330 O   0  0  0  0  0  0  0  0  0  0  0  0
  159.6770  211.1480  156.5810 C   0  0  1  0  0  3  0  0  0  0  0  0
  160.5430  212.0450  155.7180 C   0  0  0  0  0  1  0  0  0  0  0  0
  158.2060  211.5770  156.4890 C   0  0  0  0  0  2  0  0  0  0  0  0
  157.9030  212.0250  155.1980 O   0  0  0  0  0  1  0  0  0  0  0  0
  2  1  2  0  0  0  0
  4  9  2  0  0  0  0
  5  3  1  1  0  0  0
  5 11  1  0  0  0  0
  6 15  2  0  0  0  0
  7  9  1  0  0  0  0
  7  6  1  0  0  0  0
  8 17  2  0  0  0  0
  8 16  1  0  0  0  0
  9  8  1  0  0  0  0
 11 10  2  0  0  0  0
 12 14  1  0  0  0  0
 13  7  2  0  0  0  0
 14 10  1  0  0  0  0
 14  4  2  0  0  0  0
 15  1  1  0  0  0  0
 15 16  1  0  0  0  0
 18  5  1  0  0  0  0
 18 12  2  0  0  0  0
 19 24  1  6  0  0  0
 19 21  1  0  0  0  0
 19 22  1  0  0  0  0
 20 24  1  0  0  0  0
 21 23  1  6  0  0  0
 21 22  1  0  0  0  0
 22  2  1  1  0  0  0
 25 20  1  0  0  0  0
 25 23  1  0  0  0  0
 26 25  1  0  0  0  0
 27 28  1  0  0  0  0
 27 26  1  0  0  0  0
 28 29  1  0  0  0  0
 29 30  1  0  0  0  0
 30 31  1  0  0  0  0
 31 32  1  0  0  0  0
 32 33  1  0  0  0  0
 33 34  1  0  0  0  0
 34 35  1  0  0  0  0
 36  1  1  6  0  0  0
 36 37  1  0  0  0  0
 36 38  1  0  0  0  0
 37 38  1  0  0  0  0
 38 39  1  0  0  0  0
 39 40  1  0  0  0  0
 40 42  1  0  0  0  0
 40 41  1  1  0  0  0
 42 44  1  0  0  0  0
 43 42  2  0  0  0  0
 44 45  1  6  0  0  0
 46 44  1  0  0  0  0
 47 46  1  0  0  0  0
M  END
>  <MODEL>
8

>  <REMARK>
 VINA RESULT:      -4.4      3.715      8.725
  Name = 
  17 active torsions:
  status: ('A' for Active; 'I' for Inactive)
    1  A    between atoms: C_2  and  C_10
    2  A    between atoms: C_2  and  C_13
    3  A    between atoms: C_4  and  C_26
    4  A    between atoms: C_4  and  C_33
    5  A    between atoms: C_9  and  C_17
    6  A    between atoms: C_10  and  C_31
    7  A    between atoms: C_13  and  C_27
    8  A    between atoms: C_17  and  C_34
    9  A    between atoms: C_18  and  C_19
   10  A    between atoms: C_18  and  N_46
   11  A    between atoms: C_19  and  C_27
   12  A    between atoms: C_23  and  O_44
   13  A    between atoms: C_24  and  C_36
   14  A    between atoms: C_26  and  C_36
   15  A    between atoms: N_30  and  C_37
   16  A    between atoms: C_31  and  O_44
   17  A    between atoms: C_33  and  N_40
                            x       y       z     vdW  Elec       q    Type
                         _______ _______ _______ _____ _____    ______ ____

>  <TORSDO>
F 17

$$$$
=
 OpenBabel11042421513D

 47 51  0  0  1  0  0  0  0  0999 V2000
  161.0750  206.2630  151.4510 C   0  0  0  0  0  0  0  0  0  0  0  0
  161.0560  205.2650  150.6060 N   0  0  0  0  0  0  0  0  0  0  0  0
  158.2790  213.9450  147.1400 N   0  0  0  0  0  1  0  0  0  0  0  0
  161.5780  211.2740  149.2790 C   0  0  0  0  0  0  0  0  0  0  0  0
  159.7090  214.1980  147.0650 C   0  0  1  0  0  3  0  0  0  0  0  0
  162.1120  207.7440  149.8620 N   0  0  0  0  0  0  0  0  0  0  0  0
  162.4180  209.0380  149.3200 C   0  0  0  0  0  0  0  0  0  0  0  0
  161.3570  210.0330  151.3550 C   0  0  0  0  0  0  0  0  0  0  0  0
  161.8830  210.2290  149.9880 C   0  0  0  0  0  0  0  0  0  0  0  0
  160.8630  213.5650  149.1270 C   0  0  0  0  0  3  0  0  0  0  0  0
  160.2200  214.4500  148.4240 N   0  0  0  0  0  0  0  0  0  0  0  0
  161.0530  212.1060  147.0920 C   0  0  0  0  0  3  0  0  0  0  0  0
  163.0860  209.1350  148.2490 O   0  0  0  0  0  0  0  0  0  0  0  0
  161.2210  212.2790  148.5350 C   0  0  0  0  0  0  0  0  0  0  0  0
  161.6430  207.5730  151.0710 C   0  0  0  0  0  0  0  0  0  0  0  0
  161.5710  208.7220  152.0450 C   0  0  0  0  0  2  0  0  0  0  0  0
  160.7210  210.9890  152.0190 C   0  0  0  0  0  2  0  0  0  0  0  0
  160.3850  213.0250  146.3880 C   0  0  0  0  0  3  0  0  0  0  0  0
  160.4970  205.6860  148.2560 C   0  0  1  0  0  3  0  0  0  0  0  0
  162.2640  205.8900  146.3870 C   0  0  0  0  0  2  0  0  0  0  0  0
  160.9890  204.2460  148.4090 C   0  0  2  0  0  3  0  0  0  0  0  0
  161.5850  205.3560  149.2490 C   0  0  2  0  0  3  0  0  0  0  0  0
  162.0750  203.7340  147.4390 C   0  0  0  0  0  2  0  0  0  0  0  0
  161.0200  206.4690  147.0440 C   0  0  0  0  0  2  0  0  0  0  0  0
  162.1550  204.4560  146.1560 N   0  0  0  0  0  0  0  0  0  0  0  0
  161.0060  204.1570  145.3010 C   0  0  0  0  0  2  0  0  0  0  0  0
  160.7780  205.2870  144.3260 C   0  0  0  0  0  2  0  0  0  0  0  0
  161.8090  205.2170  143.2220 C   0  0  0  0  0  2  0  0  0  0  0  0
  161.7960  206.5080  142.4410 C   0  0  0  0  0  2  0  0  0  0  0  0
  162.0570  206.2300  140.9680 C   0  0  0  0  0  2  0  0  0  0  0  0
  162.3410  207.5110  140.1940 C   0  0  0  0  0  2  0  0  0  0  0  0
  161.3230  207.7170  139.0840 C   0  0  0  0  0  2  0  0  0  0  0  0
  161.9340  207.5790  137.8380 O   0  0  0  0  0  0  0  0  0  0  0  0
  161.4870  208.6640  137.0870 C   0  0  0  0  0  2  0  0  0  0  0  0
  162.3060  209.8290  137.3900 N   0  0  0  0  0  1  0  0  0  0  0  0
  160.4830  206.0950  152.8150 C   0  0  1  0  0  3  0  0  0  0  0  0
  161.2580  205.1450  153.6120 C   0  0  0  0  0  2  0  0  0  0  0  0
  161.4560  206.5790  153.7990 N   0  0  0  0  0  0  0  0  0  0  0  0
  160.7090  206.9630  154.9930 C   0  0  0  0  0  2  0  0  0  0  0  0
  161.5100  207.9690  155.8070 C   0  0  2  0  0  3  0  0  0  0  0  0
  161.5260  207.6210  157.1520 F   0  0  0  0  0  0  0  0  0  0  0  0
  161.0060  209.3630  155.5970 C   0  0  0  0  0  0  0  0  0  0  0  0
  159.9060  209.5330  155.0960 O   0  0  0  0  0  0  0  0  0  0  0  0
  161.8790  210.5470  155.9110 C   0  0  1  0  0  3  0  0  0  0  0  0
  161.0490  211.6990  156.4440 C   0  0  0  0  0  1  0  0  0  0  0  0
  163.0000  210.1950  156.8990 C   0  0  0  0  0  2  0  0  0  0  0  0
  163.8300  211.3000  157.1180 O   0  0  0  0  0  1  0  0  0  0  0  0
  2  1  2  0  0  0  0
  4  9  2  0  0  0  0
  5  3  1  1  0  0  0
  5 11  1  0  0  0  0
  6 15  2  0  0  0  0
  7  6  1  0  0  0  0
  7  9  1  0  0  0  0
  8 17  2  0  0  0  0
  8 16  1  0  0  0  0
  9  8  1  0  0  0  0
 11 10  2  0  0  0  0
 12 14  1  0  0  0  0
 13  7  2  0  0  0  0
 14 10  1  0  0  0  0
 14  4  2  0  0  0  0
 15  1  1  0  0  0  0
 15 16  1  0  0  0  0
 18  5  1  0  0  0  0
 18 12  2  0  0  0  0
 19 24  1  6  0  0  0
 19 21  1  0  0  0  0
 19 22  1  0  0  0  0
 20 24  1  0  0  0  0
 21 23  1  6  0  0  0
 21 22  1  0  0  0  0
 22  2  1  1  0  0  0
 25 20  1  0  0  0  0
 25 23  1  0  0  0  0
 26 25  1  0  0  0  0
 27 26  1  0  0  0  0
 28 27  1  0  0  0  0
 29 28  1  0  0  0  0
 30 29  1  0  0  0  0
 31 30  1  0  0  0  0
 32 31  1  0  0  0  0
 33 32  1  0  0  0  0
 34 35  1  0  0  0  0
 34 33  1  0  0  0  0
 36  1  1  6  0  0  0
 36 37  1  0  0  0  0
 36 38  1  0  0  0  0
 37 38  1  0  0  0  0
 38 39  1  0  0  0  0
 39 40  1  0  0  0  0
 40 41  1  1  0  0  0
 42 40  1  0  0  0  0
 42 44  1  0  0  0  0
 43 42  2  0  0  0  0
 44 45  1  1  0  0  0
 44 46  1  0  0  0  0
 46 47  1  0  0  0  0
M  END
>  <MODEL>
9

>  <REMARK>
 VINA RESULT:      -4.4      3.565      7.270
  Name = 
  17 active torsions:
  status: ('A' for Active; 'I' for Inactive)
    1  A    between atoms: C_2  and  C_10
    2  A    between atoms: C_2  and  C_13
    3  A    between atoms: C_4  and  C_26
    4  A    between atoms: C_4  and  C_33
    5  A    between atoms: C_9  and  C_17
    6  A    between atoms: C_10  and  C_31
    7  A    between atoms: C_13  and  C_27
    8  A    between atoms: C_17  and  C_34
    9  A    between atoms: C_18  and  C_19
   10  A    between atoms: C_18  and  N_46
   11  A    between atoms: C_19  and  C_27
   12  A    between atoms: C_23  and  O_44
   13  A    between atoms: C_24  and  C_36
   14  A    between atoms: C_26  and  C_36
   15  A    between atoms: N_30  and  C_37
   16  A    between atoms: C_31  and  O_44
   17  A    between atoms: C_33  and  N_40
                            x       y       z     vdW  Elec       q    Type
                         _______ _______ _______ _____ _____    ______ ____

>  <TORSDO>
F 17

$$$$
