=
 OpenBabel11042422593D

 32 34  0  0  1  0  0  0  0  0999 V2000
  161.1320  205.8560  152.1650 C   0  0  0  0  0  3  0  0  0  0  0  0
  162.1410  210.2660  150.1310 N   0  0  0  0  0  2  0  0  0  0  0  0
  161.4080  209.2370  153.6150 C   0  0  0  0  0  0  0  0  0  0  0  0
  161.0180  209.8850  157.2610 N   0  0  0  0  0  1  0  0  0  0  0  0
  161.7520  209.4440  151.2360 C   0  0  0  0  0  0  0  0  0  0  0  0
  161.1900  207.1900  152.2380 C   0  0  0  0  0  0  0  0  0  0  0  0
  161.2660  208.0330  150.9880 C   0  0  0  0  0  2  0  0  0  0  0  0
  161.1310  207.8630  153.5530 C   0  0  0  0  0  0  0  0  0  0  0  0
  160.7840  207.8360  155.9590 C   0  0  0  0  0  3  0  0  0  0  0  0
  160.8220  207.1650  154.7340 C   0  0  0  0  0  3  0  0  0  0  0  0
  161.3740  209.9030  154.8450 C   0  0  0  0  0  3  0  0  0  0  0  0
  161.0570  209.2040  156.0130 C   0  0  0  0  0  0  0  0  0  0  0  0
  161.7660  209.9590  152.4300 N   0  0  0  0  0  0  0  0  0  0  0  0
  161.2010  204.5200  149.8810 C   0  0  0  0  0  0  0  0  0  0  0  0
  161.1770  205.1210  150.9260 C   0  0  0  0  0  0  0  0  0  0  0  0
  161.6170  203.8140  146.2320 C   0  0  0  0  0  0  0  0  0  0  0  0
  161.2210  203.8180  148.6300 C   0  0  0  0  0  0  0  0  0  0  0  0
  161.2480  202.4600  146.1850 C   0  0  0  0  0  3  0  0  0  0  0  0
  161.6000  204.4870  147.4590 C   0  0  0  0  0  3  0  0  0  0  0  0
  160.8580  202.4690  148.5760 C   0  0  0  0  0  3  0  0  0  0  0  0
  160.8700  201.7900  147.3540 C   0  0  0  0  0  3  0  0  0  0  0  0
  161.2070  205.5370  144.5020 C   0  0  0  0  0  1  0  0  0  0  0  0
  162.0010  204.5120  145.0820 O   0  0  0  0  0  0  0  0  0  0  0  0
  162.0800  209.8240  148.8010 N   0  0  0  0  0  2  0  0  0  0  0  0
  161.4650  210.8820  148.0120 C   0  0  0  0  0  2  0  0  0  0  0  0
  162.3360  212.0980  148.0340 C   0  0  0  0  0  0  0  0  0  0  0  0
  163.5350  211.9830  147.8290 O   0  0  0  0  0  0  0  0  0  0  0  0
  161.7680  213.4570  148.3210 C   0  0  1  0  0  3  0  0  0  0  0  0
  161.1150  213.5830  146.0240 O   0  0  0  0  0  1  0  0  0  0  0  0
  161.6940  214.3120  147.0620 C   0  0  0  0  0  2  0  0  0  0  0  0
  160.2900  213.4220  150.1570 O   0  0  0  0  0  0  0  0  0  0  0  0
  160.4170  213.3300  148.9460 C   0  0  0  0  0  3  0  0  0  0  0  0
  1  6  2  0  0  0  0
  2  5  1  0  0  0  0
  3 11  1  0  0  0  0
  5 13  2  0  0  0  0
  6  8  1  0  0  0  0
  7  5  1  0  0  0  0
  7  6  1  0  0  0  0
  8  3  2  0  0  0  0
  8 10  1  0  0  0  0
  9 12  1  0  0  0  0
 10  9  2  0  0  0  0
 11 12  2  0  0  0  0
 12  4  1  0  0  0  0
 13  3  1  0  0  0  0
 14 15  3  0  0  0  0
 15  1  1  0  0  0  0
 16 19  1  0  0  0  0
 17 14  1  0  0  0  0
 18 16  2  0  0  0  0
 18 21  1  0  0  0  0
 19 17  2  0  0  0  0
 20 17  1  0  0  0  0
 21 20  2  0  0  0  0
 22 23  1  0  0  0  0
 23 16  1  0  0  0  0
 24  2  1  0  0  0  0
 25 26  1  0  0  0  0
 25 24  1  0  0  0  0
 26 28  1  0  0  0  0
 27 26  2  0  0  0  0
 28 30  1  6  0  0  0
 28 32  1  0  0  0  0
 29 30  1  0  0  0  0
 32 31  2  0  0  0  0
M  END
>  <MODEL>
1

>  <REMARK>
 VINA RESULT:      -8.8      0.000      0.000
  Name = 
  9 active torsions:
  status: ('A' for Active; 'I' for Inactive)
    1  A    between atoms: C_1  and  C_17
    2  A    between atoms: C_1  and  C_20
    3  A    between atoms: C_3  and  C_19
    4  A    between atoms: N_5  and  N_22
    5  A    between atoms: C_7  and  C_16
    6  A    between atoms: C_11  and  O_15
    7  A    between atoms: C_12  and  C_20
    8  A    between atoms: C_17  and  N_22
    9  A    between atoms: C_20  and  C_27
                            x       y       z     vdW  Elec       q    Type
                         _______ _______ _______ _____ _____    ______ ____

>  <TORSDO>
F 9

$$$$
=
 OpenBabel11042422593D

 32 34  0  0  1  0  0  0  0  0999 V2000
  161.1410  206.0570  152.9860 C   0  0  0  0  0  3  0  0  0  0  0  0
  162.0870  209.7030  149.7590 N   0  0  0  0  0  2  0  0  0  0  0  0
  161.5160  209.7020  153.4200 C   0  0  0  0  0  0  0  0  0  0  0  0
  161.3090  211.3490  156.7540 N   0  0  0  0  0  1  0  0  0  0  0  0
  161.7460  209.2300  151.0650 C   0  0  0  0  0  0  0  0  0  0  0  0
  161.2140  207.3580  152.6810 C   0  0  0  0  0  0  0  0  0  0  0  0
  161.2360  207.8180  151.2430 C   0  0  0  0  0  2  0  0  0  0  0  0
  161.2250  208.3710  153.7570 C   0  0  0  0  0  0  0  0  0  0  0  0
  160.9940  209.0230  156.0880 C   0  0  0  0  0  3  0  0  0  0  0  0
  160.9670  208.0370  155.0980 C   0  0  0  0  0  3  0  0  0  0  0  0
  161.5470  210.6850  154.4150 C   0  0  0  0  0  3  0  0  0  0  0  0
  161.2820  210.3460  155.7460 C   0  0  0  0  0  0  0  0  0  0  0  0
  161.8220  210.0580  152.0670 N   0  0  0  0  0  0  0  0  0  0  0  0
  161.0950  204.1130  151.1910 C   0  0  0  0  0  0  0  0  0  0  0  0
  161.1190  205.0060  152.0010 C   0  0  0  0  0  0  0  0  0  0  0  0
  161.0550  202.2800  147.9320 C   0  0  0  0  0  0  0  0  0  0  0  0
  161.0590  203.0390  150.2400 C   0  0  0  0  0  0  0  0  0  0  0  0
  160.9750  200.9520  148.3800 C   0  0  0  0  0  3  0  0  0  0  0  0
  161.0970  203.3190  148.8690 C   0  0  0  0  0  3  0  0  0  0  0  0
  160.9820  201.7140  150.6800 C   0  0  0  0  0  3  0  0  0  0  0  0
  160.9390  200.6700  149.7510 C   0  0  0  0  0  3  0  0  0  0  0  0
  160.4200  201.8290  145.5820 C   0  0  0  0  0  1  0  0  0  0  0  0
  161.0950  202.5960  146.5690 O   0  0  0  0  0  0  0  0  0  0  0  0
  161.9580  208.9100  148.6090 N   0  0  0  0  0  2  0  0  0  0  0  0
  162.1020  207.5190  149.0120 C   0  0  0  0  0  2  0  0  0  0  0  0
  161.3400  206.6400  148.0720 C   0  0  0  0  0  0  0  0  0  0  0  0
  160.2500  206.2020  148.4070 O   0  0  0  0  0  0  0  0  0  0  0  0
  161.8970  206.2700  146.7290 C   0  0  1  0  0  3  0  0  0  0  0  0
  163.3260  204.7220  145.5970 O   0  0  0  0  0  1  0  0  0  0  0  0
  163.0340  205.2630  146.8490 C   0  0  0  0  0  2  0  0  0  0  0  0
  160.2540  206.4630  145.0480 O   0  0  0  0  0  0  0  0  0  0  0  0
  160.8140  205.7320  145.8510 C   0  0  0  0  0  3  0  0  0  0  0  0
  2  5  1  0  0  0  0
  3  8  2  0  0  0  0
  3 11  1  0  0  0  0
  5  7  1  0  0  0  0
  5 13  2  0  0  0  0
  6  1  2  0  0  0  0
  6  8  1  0  0  0  0
  7  6  1  0  0  0  0
  8 10  1  0  0  0  0
 10  9  2  0  0  0  0
 11 12  2  0  0  0  0
 12  9  1  0  0  0  0
 12  4  1  0  0  0  0
 13  3  1  0  0  0  0
 14 15  3  0  0  0  0
 15  1  1  0  0  0  0
 16 18  2  0  0  0  0
 16 19  1  0  0  0  0
 17 20  1  0  0  0  0
 17 14  1  0  0  0  0
 18 21  1  0  0  0  0
 19 17  2  0  0  0  0
 21 20  2  0  0  0  0
 22 23  1  0  0  0  0
 23 16  1  0  0  0  0
 24 25  1  0  0  0  0
 24  2  1  0  0  0  0
 26 27  2  0  0  0  0
 26 25  1  0  0  0  0
 28 32  1  6  0  0  0
 28 30  1  0  0  0  0
 28 26  1  0  0  0  0
 29 30  1  0  0  0  0
 31 32  2  0  0  0  0
M  END
>  <MODEL>
2

>  <REMARK>
 VINA RESULT:      -8.7      3.052      4.026
  Name = 
  9 active torsions:
  status: ('A' for Active; 'I' for Inactive)
    1  A    between atoms: C_1  and  C_17
    2  A    between atoms: C_1  and  C_20
    3  A    between atoms: C_3  and  C_19
    4  A    between atoms: N_5  and  N_22
    5  A    between atoms: C_7  and  C_16
    6  A    between atoms: C_11  and  O_15
    7  A    between atoms: C_12  and  C_20
    8  A    between atoms: C_17  and  N_22
    9  A    between atoms: C_20  and  C_27
                            x       y       z     vdW  Elec       q    Type
                         _______ _______ _______ _____ _____    ______ ____

>  <TORSDO>
F 9

$$$$
=
 OpenBabel11042422593D

 32 34  0  0  1  0  0  0  0  0999 V2000
  160.8730  204.3330  152.1560 C   0  0  0  0  0  3  0  0  0  0  0  0
  161.4860  207.4510  148.3470 N   0  0  0  0  0  2  0  0  0  0  0  0
  161.2740  203.7560  148.5330 C   0  0  0  0  0  0  0  0  0  0  0  0
  161.1650  200.3520  147.0290 N   0  0  0  0  0  1  0  0  0  0  0  0
  161.4310  206.1350  148.9060 C   0  0  0  0  0  0  0  0  0  0  0  0
  161.1690  204.5650  150.8720 C   0  0  0  0  0  0  0  0  0  0  0  0
  161.5510  205.9480  150.4010 C   0  0  0  0  0  2  0  0  0  0  0  0
  161.1720  203.4510  149.8990 C   0  0  0  0  0  0  0  0  0  0  0  0
  161.0620  201.0850  149.3530 C   0  0  0  0  0  3  0  0  0  0  0  0
  161.0620  202.1090  150.3040 C   0  0  0  0  0  3  0  0  0  0  0  0
  161.2670  202.7280  147.5850 C   0  0  0  0  0  3  0  0  0  0  0  0
  161.1660  201.3950  147.9950 C   0  0  0  0  0  0  0  0  0  0  0  0
  161.3450  205.1190  148.0970 N   0  0  0  0  0  0  0  0  0  0  0  0
  160.8350  206.2300  154.0010 C   0  0  0  0  0  0  0  0  0  0  0  0
  160.8530  205.3580  153.1680 C   0  0  0  0  0  0  0  0  0  0  0  0
  161.1090  209.6230  155.5490 C   0  0  0  0  0  0  0  0  0  0  0  0
  160.8110  207.2790  154.9790 C   0  0  0  0  0  0  0  0  0  0  0  0
  160.7800  209.3280  156.8820 C   0  0  0  0  0  3  0  0  0  0  0  0
  161.1230  208.5910  154.6030 C   0  0  0  0  0  3  0  0  0  0  0  0
  160.4810  206.9940  156.3070 C   0  0  0  0  0  3  0  0  0  0  0  0
  160.4660  208.0170  157.2590 C   0  0  0  0  0  3  0  0  0  0  0  0
  160.4370  211.9100  154.8820 C   0  0  0  0  0  1  0  0  0  0  0  0
  161.4260  210.9220  155.1390 O   0  0  0  0  0  0  0  0  0  0  0  0
  161.6620  208.6000  149.1330 N   0  0  0  0  0  2  0  0  0  0  0  0
  161.9680  209.7050  148.2370 C   0  0  0  0  0  2  0  0  0  0  0  0
  161.8960  210.9980  148.9880 C   0  0  0  0  0  0  0  0  0  0  0  0
  161.9500  210.9880  150.2080 O   0  0  0  0  0  0  0  0  0  0  0  0
  161.7390  212.3060  148.2710 C   0  0  1  0  0  3  0  0  0  0  0  0
  163.1680  214.1570  147.7730 O   0  0  0  0  0  1  0  0  0  0  0  0
  163.0520  212.7710  147.6560 C   0  0  0  0  0  2  0  0  0  0  0  0
  159.6910  212.9090  147.2710 O   0  0  0  0  0  0  0  0  0  0  0  0
  160.6810  212.1960  147.2220 C   0  0  0  0  0  3  0  0  0  0  0  0
  1 15  1  0  0  0  0
  2  5  1  0  0  0  0
  2 24  1  0  0  0  0
  3  8  1  0  0  0  0
  4 12  1  0  0  0  0
  5  7  1  0  0  0  0
  6  1  2  0  0  0  0
  7  6  1  0  0  0  0
  8 10  2  0  0  0  0
  8  6  1  0  0  0  0
  9 10  1  0  0  0  0
 11 12  1  0  0  0  0
 11  3  2  0  0  0  0
 12  9  2  0  0  0  0
 13  3  1  0  0  0  0
 13  5  2  0  0  0  0
 14 17  1  0  0  0  0
 15 14  3  0  0  0  0
 16 18  1  0  0  0  0
 17 20  2  0  0  0  0
 18 21  2  0  0  0  0
 19 17  1  0  0  0  0
 19 16  2  0  0  0  0
 20 21  1  0  0  0  0
 22 23  1  0  0  0  0
 23 16  1  0  0  0  0
 25 26  1  0  0  0  0
 25 24  1  0  0  0  0
 26 27  2  0  0  0  0
 28 32  1  6  0  0  0
 28 26  1  0  0  0  0
 30 29  1  0  0  0  0
 30 28  1  0  0  0  0
 32 31  2  0  0  0  0
M  END
>  <MODEL>
3

>  <REMARK>
 VINA RESULT:      -8.5      2.702      7.318
  Name = 
  9 active torsions:
  status: ('A' for Active; 'I' for Inactive)
    1  A    between atoms: C_1  and  C_17
    2  A    between atoms: C_1  and  C_20
    3  A    between atoms: C_3  and  C_19
    4  A    between atoms: N_5  and  N_22
    5  A    between atoms: C_7  and  C_16
    6  A    between atoms: C_11  and  O_15
    7  A    between atoms: C_12  and  C_20
    8  A    between atoms: C_17  and  N_22
    9  A    between atoms: C_20  and  C_27
                            x       y       z     vdW  Elec       q    Type
                         _______ _______ _______ _____ _____    ______ ____

>  <TORSDO>
F 9

$$$$
=
 OpenBabel11042422593D

 32 34  0  0  1  0  0  0  0  0999 V2000
  160.9710  205.7750  151.5210 C   0  0  0  0  0  3  0  0  0  0  0  0
  161.8940  209.5390  148.4260 N   0  0  0  0  0  2  0  0  0  0  0  0
  161.5420  205.8920  147.8770 C   0  0  0  0  0  0  0  0  0  0  0  0
  161.3940  202.8510  145.7340 N   0  0  0  0  0  1  0  0  0  0  0  0
  161.7640  208.1440  148.7140 C   0  0  0  0  0  0  0  0  0  0  0  0
  161.3430  206.2380  150.3220 C   0  0  0  0  0  0  0  0  0  0  0  0
  161.7970  207.6660  150.1480 C   0  0  0  0  0  2  0  0  0  0  0  0
  161.3580  205.3340  149.1520 C   0  0  0  0  0  0  0  0  0  0  0  0
  161.1940  203.1250  148.1500 C   0  0  0  0  0  3  0  0  0  0  0  0
  161.1800  203.9450  149.2810 C   0  0  0  0  0  3  0  0  0  0  0  0
  161.5500  205.0670  146.7480 C   0  0  0  0  0  3  0  0  0  0  0  0
  161.3800  203.6860  146.8840 C   0  0  0  0  0  0  0  0  0  0  0  0
  161.6840  207.3090  147.7190 N   0  0  0  0  0  0  0  0  0  0  0  0
  160.9020  207.2800  153.6970 C   0  0  0  0  0  0  0  0  0  0  0  0
  160.9330  206.5850  152.7120 C   0  0  0  0  0  0  0  0  0  0  0  0
  160.9560  210.3390  155.8480 C   0  0  0  0  0  0  0  0  0  0  0  0
  160.8630  208.1210  154.8590 C   0  0  0  0  0  0  0  0  0  0  0  0
  160.8020  209.7650  157.1200 C   0  0  0  0  0  3  0  0  0  0  0  0
  160.9860  209.5090  154.7210 C   0  0  0  0  0  3  0  0  0  0  0  0
  160.7070  207.5570  156.1290 C   0  0  0  0  0  3  0  0  0  0  0  0
  160.6770  208.3780  157.2600 C   0  0  0  0  0  3  0  0  0  0  0  0
  160.0020  212.6230  155.8770 C   0  0  0  0  0  1  0  0  0  0  0  0
  161.0810  211.7210  155.6740 O   0  0  0  0  0  0  0  0  0  0  0  0
  162.0680  210.5060  149.4280 N   0  0  0  0  0  2  0  0  0  0  0  0
  162.4970  211.7380  148.7830 C   0  0  0  0  0  2  0  0  0  0  0  0
  161.3470  212.6920  148.7020 C   0  0  0  0  0  0  0  0  0  0  0  0
  160.6860  212.9230  149.7020 O   0  0  0  0  0  0  0  0  0  0  0  0
  160.9780  213.3570  147.4090 C   0  0  1  0  0  3  0  0  0  0  0  0
  162.4190  213.2310  145.5040 O   0  0  0  0  0  1  0  0  0  0  0  0
  162.2020  213.9210  146.6980 C   0  0  0  0  0  2  0  0  0  0  0  0
  159.0340  212.4000  146.4800 O   0  0  0  0  0  0  0  0  0  0  0  0
  160.2550  212.3970  146.5220 C   0  0  0  0  0  3  0  0  0  0  0  0
  1 15  1  0  0  0  0
  2  5  1  0  0  0  0
  2 24  1  0  0  0  0
  3  8  1  0  0  0  0
  4 12  1  0  0  0  0
  5  7  1  0  0  0  0
  6  1  2  0  0  0  0
  7  6  1  0  0  0  0
  8 10  2  0  0  0  0
  8  6  1  0  0  0  0
  9 10  1  0  0  0  0
 11 12  1  0  0  0  0
 11  3  2  0  0  0  0
 12  9  2  0  0  0  0
 13  3  1  0  0  0  0
 13  5  2  0  0  0  0
 14 17  1  0  0  0  0
 15 14  3  0  0  0  0
 16 18  1  0  0  0  0
 17 20  2  0  0  0  0
 18 21  2  0  0  0  0
 19 17  1  0  0  0  0
 19 16  2  0  0  0  0
 20 21  1  0  0  0  0
 23 16  1  0  0  0  0
 23 22  1  0  0  0  0
 25 24  1  0  0  0  0
 26 25  1  0  0  0  0
 26 27  2  0  0  0  0
 28 32  1  6  0  0  0
 28 26  1  0  0  0  0
 29 30  1  0  0  0  0
 30 28  1  0  0  0  0
 31 32  2  0  0  0  0
M  END
>  <MODEL>
4

>  <REMARK>
 VINA RESULT:      -8.3      2.423      7.316
  Name = 
  9 active torsions:
  status: ('A' for Active; 'I' for Inactive)
    1  A    between atoms: C_1  and  C_17
    2  A    between atoms: C_1  and  C_20
    3  A    between atoms: C_3  and  C_19
    4  A    between atoms: N_5  and  N_22
    5  A    between atoms: C_7  and  C_16
    6  A    between atoms: C_11  and  O_15
    7  A    between atoms: C_12  and  C_20
    8  A    between atoms: C_17  and  N_22
    9  A    between atoms: C_20  and  C_27
                            x       y       z     vdW  Elec       q    Type
                         _______ _______ _______ _____ _____    ______ ____

>  <TORSDO>
F 9

$$$$
=
 OpenBabel11042422593D

 32 34  0  0  1  0  0  0  0  0999 V2000
  161.6330  207.4050  148.8190 C   0  0  0  0  0  3  0  0  0  0  0  0
  161.1840  207.3180  153.7580 N   0  0  0  0  0  2  0  0  0  0  0  0
  161.0550  204.6430  151.1970 C   0  0  0  0  0  0  0  0  0  0  0  0
  160.7920  201.0920  150.1080 N   0  0  0  0  0  1  0  0  0  0  0  0
  161.1350  206.6890  152.4740 C   0  0  0  0  0  0  0  0  0  0  0  0
  161.3160  206.7680  149.9520 C   0  0  0  0  0  0  0  0  0  0  0  0
  161.0500  207.5360  151.2250 C   0  0  0  0  0  2  0  0  0  0  0  0
  161.1750  205.2970  149.9610 C   0  0  0  0  0  0  0  0  0  0  0  0
  161.0440  203.1510  148.8250 C   0  0  0  0  0  3  0  0  0  0  0  0
  161.1720  204.5420  148.7750 C   0  0  0  0  0  3  0  0  0  0  0  0
  160.9330  203.2500  151.2420 C   0  0  0  0  0  3  0  0  0  0  0  0
  160.9220  202.5070  150.0590 C   0  0  0  0  0  0  0  0  0  0  0  0
  161.0980  205.3890  152.4190 N   0  0  0  0  0  0  0  0  0  0  0  0
  161.8910  210.0330  148.6420 C   0  0  0  0  0  0  0  0  0  0  0  0
  161.7850  208.8340  148.7210 C   0  0  0  0  0  0  0  0  0  0  0  0
  161.1610  213.6690  149.1230 C   0  0  0  0  0  0  0  0  0  0  0  0
  162.0010  211.4610  148.5530 C   0  0  0  0  0  0  0  0  0  0  0  0
  162.1990  214.2440  148.3720 C   0  0  0  0  0  3  0  0  0  0  0  0
  161.0680  212.2750  149.2080 C   0  0  0  0  0  3  0  0  0  0  0  0
  163.0330  212.0400  147.8100 C   0  0  0  0  0  3  0  0  0  0  0  0
  163.1330  213.4320  147.7190 C   0  0  0  0  0  3  0  0  0  0  0  0
  159.7280  214.1350  151.0870 C   0  0  0  0  0  1  0  0  0  0  0  0
  160.2140  214.4530  149.7900 O   0  0  0  0  0  0  0  0  0  0  0  0
  161.1440  208.7110  153.9200 N   0  0  0  0  0  2  0  0  0  0  0  0
  160.7280  208.9850  155.2870 C   0  0  0  0  0  2  0  0  0  0  0  0
  160.3410  210.4250  155.4180 C   0  0  0  0  0  0  0  0  0  0  0  0
  161.1730  211.2400  155.7840 O   0  0  0  0  0  0  0  0  0  0  0  0
  158.9430  210.8840  155.1230 C   0  0  1  0  0  3  0  0  0  0  0  0
  158.0840  212.9920  155.8550 O   0  0  0  0  0  1  0  0  0  0  0  0
  158.3620  211.6920  156.2770 C   0  0  0  0  0  2  0  0  0  0  0  0
  158.6330  211.1480  152.8010 O   0  0  0  0  0  0  0  0  0  0  0  0
  158.9180  211.6830  153.8610 C   0  0  0  0  0  3  0  0  0  0  0  0
  1  6  2  0  0  0  0
  2 24  1  0  0  0  0
  3 11  1  0  0  0  0
  3 13  1  0  0  0  0
  5  2  1  0  0  0  0
  6  8  1  0  0  0  0
  6  7  1  0  0  0  0
  7  5  1  0  0  0  0
  8  3  2  0  0  0  0
  9 12  1  0  0  0  0
 10  9  2  0  0  0  0
 10  8  1  0  0  0  0
 12  4  1  0  0  0  0
 12 11  2  0  0  0  0
 13  5  2  0  0  0  0
 14 15  3  0  0  0  0
 15  1  1  0  0  0  0
 16 19  1  0  0  0  0
 16 23  1  0  0  0  0
 17 14  1  0  0  0  0
 17 19  2  0  0  0  0
 18 16  2  0  0  0  0
 20 17  1  0  0  0  0
 21 20  2  0  0  0  0
 21 18  1  0  0  0  0
 23 22  1  0  0  0  0
 24 25  1  0  0  0  0
 25 26  1  0  0  0  0
 26 27  2  0  0  0  0
 28 32  1  6  0  0  0
 28 26  1  0  0  0  0
 28 30  1  0  0  0  0
 29 30  1  0  0  0  0
 31 32  2  0  0  0  0
M  END
>  <MODEL>
5

>  <REMARK>
 VINA RESULT:      -7.9      2.966      7.781
  Name = 
  9 active torsions:
  status: ('A' for Active; 'I' for Inactive)
    1  A    between atoms: C_1  and  C_17
    2  A    between atoms: C_1  and  C_20
    3  A    between atoms: C_3  and  C_19
    4  A    between atoms: N_5  and  N_22
    5  A    between atoms: C_7  and  C_16
    6  A    between atoms: C_11  and  O_15
    7  A    between atoms: C_12  and  C_20
    8  A    between atoms: C_17  and  N_22
    9  A    between atoms: C_20  and  C_27
                            x       y       z     vdW  Elec       q    Type
                         _______ _______ _______ _____ _____    ______ ____

>  <TORSDO>
F 9

$$$$
=
 OpenBabel11042422593D

 32 34  0  0  1  0  0  0  0  0999 V2000
  160.9140  206.4980  152.4410 C   0  0  0  0  0  3  0  0  0  0  0  0
  161.8910  209.4830  148.6030 N   0  0  0  0  0  2  0  0  0  0  0  0
  161.3940  205.8190  148.8470 C   0  0  0  0  0  0  0  0  0  0  0  0
  161.0820  202.4020  147.4000 N   0  0  0  0  0  1  0  0  0  0  0  0
  161.7180  208.1860  149.1820 C   0  0  0  0  0  0  0  0  0  0  0  0
  161.2700  206.6810  151.1650 C   0  0  0  0  0  0  0  0  0  0  0  0
  161.7710  208.0210  150.6840 C   0  0  0  0  0  2  0  0  0  0  0  0
  161.2230  205.5510  150.2140 C   0  0  0  0  0  0  0  0  0  0  0  0
  160.9540  203.1890  149.7050 C   0  0  0  0  0  3  0  0  0  0  0  0
  160.9990  204.2290  150.6370 C   0  0  0  0  0  3  0  0  0  0  0  0
  161.3430  204.7750  147.9170 C   0  0  0  0  0  3  0  0  0  0  0  0
  161.1280  203.4620  148.3470 C   0  0  0  0  0  0  0  0  0  0  0  0
  161.5830  207.1640  148.3890 N   0  0  0  0  0  0  0  0  0  0  0  0
  160.9340  208.4220  154.2590 C   0  0  0  0  0  0  0  0  0  0  0  0
  160.9350  207.5420  153.4340 C   0  0  0  0  0  0  0  0  0  0  0  0
  159.6640  211.0060  156.6450 C   0  0  0  0  0  0  0  0  0  0  0  0
  160.9160  209.4720  155.2360 C   0  0  0  0  0  0  0  0  0  0  0  0
  160.8730  211.5290  157.1300 C   0  0  0  0  0  3  0  0  0  0  0  0
  159.6940  209.9760  155.6970 C   0  0  0  0  0  3  0  0  0  0  0  0
  162.1160  209.9960  155.7250 C   0  0  0  0  0  3  0  0  0  0  0  0
  162.0950  211.0250  156.6720 C   0  0  0  0  0  3  0  0  0  0  0  0
  157.3060  211.6320  156.2200 C   0  0  0  0  0  1  0  0  0  0  0  0
  158.4250  211.4860  157.0840 O   0  0  0  0  0  0  0  0  0  0  0  0
  162.1250  210.6320  149.3740 N   0  0  0  0  0  2  0  0  0  0  0  0
  162.3980  211.7300  148.4590 C   0  0  0  0  0  2  0  0  0  0  0  0
  161.3970  212.8220  148.6690 C   0  0  0  0  0  0  0  0  0  0  0  0
  160.7440  212.8490  149.7010 O   0  0  0  0  0  0  0  0  0  0  0  0
  161.1650  213.8760  147.6270 C   0  0  1  0  0  3  0  0  0  0  0  0
  162.4590  213.8630  145.6170 O   0  0  0  0  0  1  0  0  0  0  0  0
  162.4630  214.2880  146.9450 C   0  0  0  0  0  2  0  0  0  0  0  0
  159.6090  212.3240  146.7730 O   0  0  0  0  0  0  0  0  0  0  0  0
  160.1740  213.3950  146.6180 C   0  0  0  0  0  3  0  0  0  0  0  0
  1 15  1  0  0  0  0
  2  5  1  0  0  0  0
  2 24  1  0  0  0  0
  3  8  1  0  0  0  0
  4 12  1  0  0  0  0
  5  7  1  0  0  0  0
  6  1  2  0  0  0  0
  7  6  1  0  0  0  0
  8 10  2  0  0  0  0
  8  6  1  0  0  0  0
  9 10  1  0  0  0  0
 11 12  1  0  0  0  0
 11  3  2  0  0  0  0
 12  9  2  0  0  0  0
 13  3  1  0  0  0  0
 13  5  2  0  0  0  0
 14 17  1  0  0  0  0
 15 14  3  0  0  0  0
 16 23  1  0  0  0  0
 16 18  1  0  0  0  0
 17 19  1  0  0  0  0
 17 20  2  0  0  0  0
 19 16  2  0  0  0  0
 20 21  1  0  0  0  0
 21 18  2  0  0  0  0
 22 23  1  0  0  0  0
 25 26  1  0  0  0  0
 25 24  1  0  0  0  0
 26 27  2  0  0  0  0
 28 32  1  6  0  0  0
 28 26  1  0  0  0  0
 29 30  1  0  0  0  0
 30 28  1  0  0  0  0
 32 31  2  0  0  0  0
M  END
>  <MODEL>
6

>  <REMARK>
 VINA RESULT:      -7.9      2.511      7.498
  Name = 
  9 active torsions:
  status: ('A' for Active; 'I' for Inactive)
    1  A    between atoms: C_1  and  C_17
    2  A    between atoms: C_1  and  C_20
    3  A    between atoms: C_3  and  C_19
    4  A    between atoms: N_5  and  N_22
    5  A    between atoms: C_7  and  C_16
    6  A    between atoms: C_11  and  O_15
    7  A    between atoms: C_12  and  C_20
    8  A    between atoms: C_17  and  N_22
    9  A    between atoms: C_20  and  C_27
                            x       y       z     vdW  Elec       q    Type
                         _______ _______ _______ _____ _____    ______ ____

>  <TORSDO>
F 9

$$$$
=
 OpenBabel11042422593D

 32 34  0  0  1  0  0  0  0  0999 V2000
  161.6540  207.4250  148.6840 C   0  0  0  0  0  3  0  0  0  0  0  0
  161.2730  207.1370  153.6210 N   0  0  0  0  0  2  0  0  0  0  0  0
  161.1120  204.5680  150.9560 C   0  0  0  0  0  0  0  0  0  0  0  0
  160.8380  201.0630  149.7280 N   0  0  0  0  0  1  0  0  0  0  0  0
  161.2060  206.5600  152.3140 C   0  0  0  0  0  0  0  0  0  0  0  0
  161.3530  206.7420  149.7950 C   0  0  0  0  0  0  0  0  0  0  0  0
  161.1030  207.4570  151.1010 C   0  0  0  0  0  2  0  0  0  0  0  0
  161.2140  205.2710  149.7460 C   0  0  0  0  0  0  0  0  0  0  0  0
  161.0700  203.1740  148.5260 C   0  0  0  0  0  3  0  0  0  0  0  0
  161.1960  204.5650  148.5300 C   0  0  0  0  0  3  0  0  0  0  0  0
  160.9910  203.1740  150.9470 C   0  0  0  0  0  3  0  0  0  0  0  0
  160.9660  202.4790  149.7340 C   0  0  0  0  0  0  0  0  0  0  0  0
  161.1700  205.2640  152.2070 N   0  0  0  0  0  0  0  0  0  0  0  0
  161.9070  210.0580  148.6000 C   0  0  0  0  0  0  0  0  0  0  0  0
  161.8020  208.8570  148.6430 C   0  0  0  0  0  0  0  0  0  0  0  0
  161.1560  213.6810  149.1420 C   0  0  0  0  0  0  0  0  0  0  0  0
  162.0150  211.4870  148.5450 C   0  0  0  0  0  0  0  0  0  0  0  0
  162.2110  214.2750  148.4290 C   0  0  0  0  0  3  0  0  0  0  0  0
  161.0650  212.2850  149.1950 C   0  0  0  0  0  3  0  0  0  0  0  0
  163.0630  212.0850  147.8390 C   0  0  0  0  0  3  0  0  0  0  0  0
  163.1610  213.4790  147.7800 C   0  0  0  0  0  3  0  0  0  0  0  0
  158.9690  213.9020  150.2800 C   0  0  0  0  0  1  0  0  0  0  0  0
  160.1910  214.4480  149.8030 O   0  0  0  0  0  0  0  0  0  0  0  0
  161.2340  208.5220  153.8400 N   0  0  0  0  0  2  0  0  0  0  0  0
  160.3630  208.7650  154.9810 C   0  0  0  0  0  2  0  0  0  0  0  0
  161.1840  208.8820  156.2260 C   0  0  0  0  0  0  0  0  0  0  0  0
  161.5040  207.8700  156.8320 O   0  0  0  0  0  0  0  0  0  0  0  0
  161.6060  210.2200  156.7570 C   0  0  1  0  0  3  0  0  0  0  0  0
  163.6240  211.0590  155.7870 O   0  0  0  0  0  1  0  0  0  0  0  0
  163.1220  210.3290  156.8640 C   0  0  0  0  0  2  0  0  0  0  0  0
  160.6150  212.3290  156.4000 O   0  0  0  0  0  0  0  0  0  0  0  0
  161.0630  211.3120  155.8940 C   0  0  0  0  0  3  0  0  0  0  0  0
  1  6  2  0  0  0  0
  2 24  1  0  0  0  0
  3 13  1  0  0  0  0
  4 12  1  0  0  0  0
  5  2  1  0  0  0  0
  6  7  1  0  0  0  0
  7  5  1  0  0  0  0
  8  6  1  0  0  0  0
  8  3  2  0  0  0  0
  9 10  2  0  0  0  0
  9 12  1  0  0  0  0
 10  8  1  0  0  0  0
 11  3  1  0  0  0  0
 12 11  2  0  0  0  0
 13  5  2  0  0  0  0
 14 15  3  0  0  0  0
 15  1  1  0  0  0  0
 16 19  1  0  0  0  0
 16 23  1  0  0  0  0
 17 14  1  0  0  0  0
 17 19  2  0  0  0  0
 18 16  2  0  0  0  0
 20 17  1  0  0  0  0
 21 20  2  0  0  0  0
 21 18  1  0  0  0  0
 23 22  1  0  0  0  0
 24 25  1  0  0  0  0
 25 26  1  0  0  0  0
 26 28  1  0  0  0  0
 26 27  2  0  0  0  0
 28 32  1  6  0  0  0
 28 30  1  0  0  0  0
 29 30  1  0  0  0  0
 32 31  2  0  0  0  0
M  END
>  <MODEL>
7

>  <REMARK>
 VINA RESULT:      -7.8      3.202      8.079
  Name = 
  9 active torsions:
  status: ('A' for Active; 'I' for Inactive)
    1  A    between atoms: C_1  and  C_17
    2  A    between atoms: C_1  and  C_20
    3  A    between atoms: C_3  and  C_19
    4  A    between atoms: N_5  and  N_22
    5  A    between atoms: C_7  and  C_16
    6  A    between atoms: C_11  and  O_15
    7  A    between atoms: C_12  and  C_20
    8  A    between atoms: C_17  and  N_22
    9  A    between atoms: C_20  and  C_27
                            x       y       z     vdW  Elec       q    Type
                         _______ _______ _______ _____ _____    ______ ____

>  <TORSDO>
F 9

$$$$
=
 OpenBabel11042422593D

 32 34  0  0  1  0  0  0  0  0999 V2000
  161.2610  210.4570  151.6130 C   0  0  0  0  0  3  0  0  0  0  0  0
  161.2030  205.7780  149.9680 N   0  0  0  0  0  2  0  0  0  0  0  0
  160.9460  207.2270  153.3690 C   0  0  0  0  0  0  0  0  0  0  0  0
  160.4730  206.9950  157.0550 N   0  0  0  0  0  1  0  0  0  0  0  0
  161.2260  206.7460  151.0210 C   0  0  0  0  0  0  0  0  0  0  0  0
  161.3100  209.1390  151.8380 C   0  0  0  0  0  0  0  0  0  0  0  0
  161.6260  208.1730  150.7210 C   0  0  0  0  0  2  0  0  0  0  0  0
  161.1010  208.6120  153.2030 C   0  0  0  0  0  0  0  0  0  0  0  0
  160.8340  208.9190  155.5990 C   0  0  0  0  0  3  0  0  0  0  0  0
  161.0410  209.4560  154.3260 C   0  0  0  0  0  3  0  0  0  0  0  0
  160.7340  206.6950  154.6460 C   0  0  0  0  0  3  0  0  0  0  0  0
  160.6830  207.5400  155.7590 C   0  0  0  0  0  0  0  0  0  0  0  0
  160.9630  206.3530  152.2340 N   0  0  0  0  0  0  0  0  0  0  0  0
  161.6030  211.5550  149.2300 C   0  0  0  0  0  0  0  0  0  0  0  0
  161.4590  211.0540  150.3170 C   0  0  0  0  0  0  0  0  0  0  0  0
  160.8230  212.7380  145.7690 C   0  0  0  0  0  0  0  0  0  0  0  0
  161.7570  212.1530  147.9340 C   0  0  0  0  0  0  0  0  0  0  0  0
  162.0550  213.3040  145.4030 C   0  0  0  0  0  3  0  0  0  0  0  0
  160.6820  212.1640  147.0380 C   0  0  0  0  0  3  0  0  0  0  0  0
  162.9800  212.7200  147.5640 C   0  0  0  0  0  3  0  0  0  0  0  0
  163.1300  213.2950  146.2990 C   0  0  0  0  0  3  0  0  0  0  0  0
  158.3820  212.7000  145.3540 C   0  0  0  0  0  1  0  0  0  0  0  0
  159.7280  212.7330  144.8980 O   0  0  0  0  0  0  0  0  0  0  0  0
  161.5520  206.0890  148.6460 N   0  0  0  0  0  2  0  0  0  0  0  0
  161.0550  205.0200  147.7940 C   0  0  0  0  0  2  0  0  0  0  0  0
  162.0620  204.7110  146.7310 C   0  0  0  0  0  0  0  0  0  0  0  0
  163.1840  205.1880  146.8110 O   0  0  0  0  0  0  0  0  0  0  0  0
  161.7150  203.8420  145.5590 C   0  0  1  0  0  3  0  0  0  0  0  0
  160.1980  202.0650  145.0510 O   0  0  0  0  0  1  0  0  0  0  0  0
  161.1150  202.5140  146.0010 C   0  0  0  0  0  2  0  0  0  0  0  0
  160.9210  205.7540  144.4300 O   0  0  0  0  0  0  0  0  0  0  0  0
  160.7780  204.5600  144.6430 C   0  0  0  0  0  3  0  0  0  0  0  0
  1  6  2  0  0  0  0
  2  5  1  0  0  0  0
  3 11  1  0  0  0  0
  5 13  2  0  0  0  0
  6  8  1  0  0  0  0
  7  5  1  0  0  0  0
  7  6  1  0  0  0  0
  8  3  2  0  0  0  0
  8 10  1  0  0  0  0
  9 12  1  0  0  0  0
 10  9  2  0  0  0  0
 11 12  2  0  0  0  0
 12  4  1  0  0  0  0
 13  3  1  0  0  0  0
 14 15  3  0  0  0  0
 15  1  1  0  0  0  0
 16 19  1  0  0  0  0
 17 14  1  0  0  0  0
 18 16  2  0  0  0  0
 18 21  1  0  0  0  0
 19 17  2  0  0  0  0
 20 17  1  0  0  0  0
 21 20  2  0  0  0  0
 23 22  1  0  0  0  0
 23 16  1  0  0  0  0
 24  2  1  0  0  0  0
 25 24  1  0  0  0  0
 26 27  2  0  0  0  0
 26 25  1  0  0  0  0
 28 32  1  6  0  0  0
 28 30  1  0  0  0  0
 28 26  1  0  0  0  0
 29 30  1  0  0  0  0
 31 32  2  0  0  0  0
M  END
>  <MODEL>
8

>  <REMARK>
 VINA RESULT:      -7.3      2.202      7.103
  Name = 
  9 active torsions:
  status: ('A' for Active; 'I' for Inactive)
    1  A    between atoms: C_1  and  C_17
    2  A    between atoms: C_1  and  C_20
    3  A    between atoms: C_3  and  C_19
    4  A    between atoms: N_5  and  N_22
    5  A    between atoms: C_7  and  C_16
    6  A    between atoms: C_11  and  O_15
    7  A    between atoms: C_12  and  C_20
    8  A    between atoms: C_17  and  N_22
    9  A    between atoms: C_20  and  C_27
                            x       y       z     vdW  Elec       q    Type
                         _______ _______ _______ _____ _____    ______ ____

>  <TORSDO>
F 9

$$$$
=
 OpenBabel11042422593D

 32 34  0  0  1  0  0  0  0  0999 V2000
  161.5400  207.6490  148.8210 C   0  0  0  0  0  3  0  0  0  0  0  0
  161.2380  207.8240  153.7690 N   0  0  0  0  0  2  0  0  0  0  0  0
  161.1520  205.0050  151.3660 C   0  0  0  0  0  0  0  0  0  0  0  0
  161.0110  201.3900  150.4850 N   0  0  0  0  0  1  0  0  0  0  0  0
  161.1790  207.1210  152.5240 C   0  0  0  0  0  0  0  0  0  0  0  0
  161.2840  207.0650  149.9980 C   0  0  0  0  0  0  0  0  0  0  0  0
  161.0210  207.8920  151.2330 C   0  0  0  0  0  2  0  0  0  0  0  0
  161.2070  205.5920  150.0920 C   0  0  0  0  0  0  0  0  0  0  0  0
  161.1370  203.3820  149.0820 C   0  0  0  0  0  3  0  0  0  0  0  0
  161.2030  204.7710  148.9510 C   0  0  0  0  0  3  0  0  0  0  0  0
  161.0910  203.6130  151.4920 C   0  0  0  0  0  3  0  0  0  0  0  0
  161.0790  202.8040  150.3520 C   0  0  0  0  0  0  0  0  0  0  0  0
  161.1970  205.8200  152.5430 N   0  0  0  0  0  0  0  0  0  0  0  0
  161.7190  210.2690  148.4920 C   0  0  0  0  0  0  0  0  0  0  0  0
  161.6260  209.0750  148.6400 C   0  0  0  0  0  0  0  0  0  0  0  0
  162.5300  213.5810  146.9580 C   0  0  0  0  0  0  0  0  0  0  0  0
  161.8470  211.6870  148.3190 C   0  0  0  0  0  0  0  0  0  0  0  0
  162.1130  214.4500  147.9800 C   0  0  0  0  0  3  0  0  0  0  0  0
  162.3930  212.1990  147.1360 C   0  0  0  0  0  3  0  0  0  0  0  0
  161.4320  212.5580  149.3300 C   0  0  0  0  0  3  0  0  0  0  0  0
  161.5650  213.9400  149.1620 C   0  0  0  0  0  3  0  0  0  0  0  0
  162.8770  213.4170  144.5120 C   0  0  0  0  0  1  0  0  0  0  0  0
  163.0790  214.0590  145.7640 O   0  0  0  0  0  0  0  0  0  0  0  0
  161.1430  209.2210  153.8550 N   0  0  0  0  0  2  0  0  0  0  0  0
  160.1850  209.5350  154.9050 C   0  0  0  0  0  2  0  0  0  0  0  0
  160.1890  211.0080  155.1670 C   0  0  0  0  0  0  0  0  0  0  0  0
  161.1410  211.5140  155.7410 O   0  0  0  0  0  0  0  0  0  0  0  0
  159.0370  211.8750  154.7540 C   0  0  1  0  0  3  0  0  0  0  0  0
  159.0340  211.7630  152.3650 O   0  0  0  0  0  1  0  0  0  0  0  0
  159.3200  212.6000  153.4440 C   0  0  0  0  0  2  0  0  0  0  0  0
  157.0600  210.9150  155.6080 O   0  0  0  0  0  0  0  0  0  0  0  0
  157.7910  211.0580  154.6400 C   0  0  0  0  0  3  0  0  0  0  0  0
  1  6  2  0  0  0  0
  2 24  1  0  0  0  0
  3 11  1  0  0  0  0
  3 13  1  0  0  0  0
  5 13  2  0  0  0  0
  5  2  1  0  0  0  0
  6  8  1  0  0  0  0
  6  7  1  0  0  0  0
  7  5  1  0  0  0  0
  8  3  2  0  0  0  0
  9 12  1  0  0  0  0
 10  9  2  0  0  0  0
 10  8  1  0  0  0  0
 12  4  1  0  0  0  0
 12 11  2  0  0  0  0
 14 15  3  0  0  0  0
 15  1  1  0  0  0  0
 16 19  2  0  0  0  0
 16 18  1  0  0  0  0
 17 14  1  0  0  0  0
 17 20  2  0  0  0  0
 18 21  2  0  0  0  0
 19 17  1  0  0  0  0
 21 20  1  0  0  0  0
 22 23  1  0  0  0  0
 23 16  1  0  0  0  0
 24 25  1  0  0  0  0
 25 26  1  0  0  0  0
 26 27  2  0  0  0  0
 28 30  1  6  0  0  0
 28 26  1  0  0  0  0
 29 30  1  0  0  0  0
 32 28  1  0  0  0  0
 32 31  2  0  0  0  0
M  END
>  <MODEL>
9

>  <REMARK>
 VINA RESULT:      -7.0      2.924      7.355
  Name = 
  9 active torsions:
  status: ('A' for Active; 'I' for Inactive)
    1  A    between atoms: C_1  and  C_17
    2  A    between atoms: C_1  and  C_20
    3  A    between atoms: C_3  and  C_19
    4  A    between atoms: N_5  and  N_22
    5  A    between atoms: C_7  and  C_16
    6  A    between atoms: C_11  and  O_15
    7  A    between atoms: C_12  and  C_20
    8  A    between atoms: C_17  and  N_22
    9  A    between atoms: C_20  and  C_27
                            x       y       z     vdW  Elec       q    Type
                         _______ _______ _______ _____ _____    ______ ____

>  <TORSDO>
F 9

$$$$
