=
 OpenBabel11052411543D

 32 33  0  0  1  0  0  0  0  0999 V2000
  161.4800  208.3670  152.4960 C   0  0  0  0  0  0  0  0  0  0  0  0
  161.8010  207.6920  151.2880 C   0  0  0  0  0  0  0  0  0  0  0  0
  161.6880  206.2980  151.2420 C   0  0  0  0  0  3  0  0  0  0  0  0
  161.2700  205.5710  152.3590 C   0  0  0  0  0  0  0  0  0  0  0  0
  160.9650  206.2380  153.5460 C   0  0  0  0  0  3  0  0  0  0  0  0
  161.0660  207.6270  153.6100 C   0  0  0  0  0  3  0  0  0  0  0  0
  161.5200  209.8570  152.6410 C   0  0  0  0  0  2  0  0  0  0  0  0
  160.1480  210.4060  153.0030 C   0  0  0  0  0  2  0  0  0  0  0  0
  159.1150  212.0860  156.0790 O   0  0  0  0  0  0  0  0  0  0  0  0
  157.7310  211.3070  154.3650 N   0  0  0  0  0  2  0  0  0  0  0  0
  159.0170  211.5120  154.9610 C   0  0  0  0  0  0  0  0  0  0  0  0
  160.1980  211.0720  154.2940 N   0  0  0  0  0  2  0  0  0  0  0  0
  155.8220  212.7030  154.1940 N   0  0  0  0  0  1  0  0  0  0  0  0
  155.5820  210.5080  155.1820 C   0  0  0  0  0  1  0  0  0  0  0  0
  156.4910  211.7100  155.0130 C   0  0  1  0  0  3  0  0  0  0  0  0
  161.1800  204.0830  152.2930 C   0  0  0  0  0  2  0  0  0  0  0  0
  160.8040  202.3220  150.6150 C   0  0  0  0  0  3  0  0  0  0  0  0
  160.8920  203.6210  150.9010 C   0  0  0  0  0  3  0  0  0  0  0  0
  159.2120  201.3920  149.1380 O   0  0  0  0  0  1  0  0  0  0  0  0
  160.5220  201.8650  149.2200 C   0  0  2  0  0  3  0  0  0  0  0  0
  161.2680  200.3530  147.3820 C   0  0  0  0  0  1  0  0  0  0  0  0
  161.4800  200.7540  148.8300 C   0  0  0  0  0  2  0  0  0  0  0  0
  162.2480  208.3510  150.0930 N   0  0  0  0  0  2  0  0  0  0  0  0
  161.6560  208.2340  148.7710 C   0  0  0  0  0  2  0  0  0  0  0  0
  162.4170  207.2780  147.9800 N   0  0  0  0  0  2  0  0  0  0  0  0
  162.2940  204.9760  147.3220 C   0  0  0  0  0  3  0  0  0  0  0  0
  161.6470  203.9210  145.1810 C   0  0  0  0  0  3  0  0  0  0  0  0
  160.9880  204.8950  144.5550 C   0  0  0  0  0  3  0  0  0  0  0  0
  160.6500  206.5790  146.3840 C   0  0  0  0  0  3  0  0  0  0  0  0
  161.6750  203.7860  146.6660 C   0  0  0  0  0  2  0  0  0  0  0  0
  161.8150  206.2240  147.2220 C   0  0  0  0  0  0  0  0  0  0  0  0
  160.2920  206.0090  145.2270 C   0  0  0  0  0  3  0  0  0  0  0  0
  1  7  1  0  0  0  0
  1  6  1  0  0  0  0
  2  1  2  0  0  0  0
  3  2  1  0  0  0  0
  3  4  2  0  0  0  0
  4  5  1  0  0  0  0
  5  6  2  0  0  0  0
  7  8  1  0  0  0  0
  8 12  1  0  0  0  0
 10 11  1  0  0  0  0
 10 15  1  0  0  0  0
 11  9  2  0  0  0  0
 12 11  1  0  0  0  0
 13 15  1  0  0  0  0
 15 14  1  6  0  0  0
 16  4  1  0  0  0  0
 17 18  2  0  0  0  0
 18 16  1  0  0  0  0
 20 19  1  1  0  0  0
 20 17  1  0  0  0  0
 21 22  1  0  0  0  0
 22 20  1  0  0  0  0
 23  2  1  0  0  0  0
 24 23  1  0  0  0  0
 25 24  1  0  0  0  0
 27 30  1  0  0  0  0
 28 27  2  0  0  0  0
 28 32  1  0  0  0  0
 29 31  1  0  0  0  0
 30 26  1  0  0  0  0
 31 26  2  0  0  0  0
 31 25  1  0  0  0  0
 32 29  2  0  0  0  0
M  END
>  <MODEL>
1

>  <REMARK>
 VINA RESULT:      -8.8      0.000      0.000
  Name = 
  12 active torsions:
  status: ('A' for Active; 'I' for Inactive)
    1  A    between atoms: N_1  and  C_25
    2  A    between atoms: N_1  and  C_32
    3  A    between atoms: C_2  and  C_27
    4  A    between atoms: C_3  and  C_16
    5  A    between atoms: C_6  and  N_31
    6  A    between atoms: C_10  and  C_19
    7  A    between atoms: N_14  and  C_18
    8  A    between atoms: C_16  and  C_23
    9  A    between atoms: C_19  and  C_24
   10  A    between atoms: C_20  and  C_27
   11  A    between atoms: C_23  and  N_28
   12  A    between atoms: N_31  and  C_32
                            x       y       z     vdW  Elec       q    Type
                         _______ _______ _______ _____ _____    ______ ____

>  <TORSDO>
F 12

$$$$
=
 OpenBabel11052411543D

 32 33  0  0  1  0  0  0  0  0999 V2000
  161.4520  208.3650  152.0740 C   0  0  0  0  0  0  0  0  0  0  0  0
  161.8040  207.6320  150.9090 C   0  0  0  0  0  0  0  0  0  0  0  0
  161.7510  206.2340  150.9480 C   0  0  0  0  0  3  0  0  0  0  0  0
  161.3630  205.5580  152.1080 C   0  0  0  0  0  0  0  0  0  0  0  0
  161.0280  206.2830  153.2520 C   0  0  0  0  0  3  0  0  0  0  0  0
  161.0690  207.6760  153.2320 C   0  0  0  0  0  3  0  0  0  0  0  0
  161.4270  209.8600  152.1280 C   0  0  0  0  0  2  0  0  0  0  0  0
  160.1360  210.3620  152.7600 C   0  0  0  0  0  2  0  0  0  0  0  0
  160.9000  212.0720  155.8960 O   0  0  0  0  0  0  0  0  0  0  0  0
  160.6110  209.7750  155.5770 N   0  0  0  0  0  2  0  0  0  0  0  0
  160.6560  211.1250  155.1010 C   0  0  0  0  0  0  0  0  0  0  0  0
  160.4240  211.4110  153.7240 N   0  0  0  0  0  2  0  0  0  0  0  0
  160.2430  208.1460  157.2610 N   0  0  0  0  0  1  0  0  0  0  0  0
  162.3610  209.3150  157.2050 C   0  0  0  0  0  1  0  0  0  0  0  0
  160.8670  209.4220  156.9660 C   0  0  1  0  0  3  0  0  0  0  0  0
  161.3380  204.0670  152.1330 C   0  0  0  0  0  2  0  0  0  0  0  0
  160.4710  202.4500  150.4930 C   0  0  0  0  0  3  0  0  0  0  0  0
  161.2430  203.5060  150.7500 C   0  0  0  0  0  3  0  0  0  0  0  0
  159.1320  201.3030  148.9190 O   0  0  0  0  0  1  0  0  0  0  0  0
  160.3840  201.8890  149.1090 C   0  0  2  0  0  3  0  0  0  0  0  0
  161.4160  200.3040  147.4830 C   0  0  0  0  0  1  0  0  0  0  0  0
  161.4630  200.8410  148.9020 C   0  0  0  0  0  2  0  0  0  0  0  0
  162.2230  208.2350  149.6760 N   0  0  0  0  0  2  0  0  0  0  0  0
  161.4860  208.2400  148.4230 C   0  0  0  0  0  2  0  0  0  0  0  0
  160.8980  206.9280  148.2000 N   0  0  0  0  0  2  0  0  0  0  0  0
  160.5670  206.3560  145.8960 C   0  0  0  0  0  3  0  0  0  0  0  0
  160.6380  204.1780  144.7250 C   0  0  0  0  0  3  0  0  0  0  0  0
  161.2970  203.4000  145.5820 C   0  0  0  0  0  3  0  0  0  0  0  0
  162.2120  205.0610  147.2250 C   0  0  0  0  0  3  0  0  0  0  0  0
  160.8740  205.6470  144.6180 C   0  0  0  0  0  2  0  0  0  0  0  0
  161.1890  206.1160  147.0580 C   0  0  0  0  0  0  0  0  0  0  0  0
  162.2580  203.8830  146.5910 C   0  0  0  0  0  3  0  0  0  0  0  0
  1  7  1  0  0  0  0
  1  6  1  0  0  0  0
  2  3  1  0  0  0  0
  2  1  2  0  0  0  0
  3  4  2  0  0  0  0
  4 16  1  0  0  0  0
  4  5  1  0  0  0  0
  6  5  2  0  0  0  0
  7  8  1  0  0  0  0
  8 12  1  0  0  0  0
 10 15  1  0  0  0  0
 11 10  1  0  0  0  0
 11  9  2  0  0  0  0
 12 11  1  0  0  0  0
 15 14  1  6  0  0  0
 15 13  1  0  0  0  0
 17 18  2  0  0  0  0
 18 16  1  0  0  0  0
 20 19  1  1  0  0  0
 20 17  1  0  0  0  0
 21 22  1  0  0  0  0
 22 20  1  0  0  0  0
 23  2  1  0  0  0  0
 24 23  1  0  0  0  0
 25 24  1  0  0  0  0
 26 31  2  0  0  0  0
 27 28  2  0  0  0  0
 28 32  1  0  0  0  0
 30 27  1  0  0  0  0
 30 26  1  0  0  0  0
 31 29  1  0  0  0  0
 31 25  1  0  0  0  0
 32 29  2  0  0  0  0
M  END
>  <MODEL>
2

>  <REMARK>
 VINA RESULT:      -8.4      1.662      2.427
  Name = 
  12 active torsions:
  status: ('A' for Active; 'I' for Inactive)
    1  A    between atoms: N_1  and  C_25
    2  A    between atoms: N_1  and  C_32
    3  A    between atoms: C_2  and  C_27
    4  A    between atoms: C_3  and  C_16
    5  A    between atoms: C_6  and  N_31
    6  A    between atoms: C_10  and  C_19
    7  A    between atoms: N_14  and  C_18
    8  A    between atoms: C_16  and  C_23
    9  A    between atoms: C_19  and  C_24
   10  A    between atoms: C_20  and  C_27
   11  A    between atoms: C_23  and  N_28
   12  A    between atoms: N_31  and  C_32
                            x       y       z     vdW  Elec       q    Type
                         _______ _______ _______ _____ _____    ______ ____

>  <TORSDO>
F 12

$$$$
=
 OpenBabel11052411543D

 32 33  0  0  1  0  0  0  0  0999 V2000
  161.4530  208.4500  152.6050 C   0  0  0  0  0  0  0  0  0  0  0  0
  161.7830  207.8150  151.3780 C   0  0  0  0  0  0  0  0  0  0  0  0
  161.7170  206.4200  151.3000 C   0  0  0  0  0  3  0  0  0  0  0  0
  161.3370  205.6520  152.4030 C   0  0  0  0  0  0  0  0  0  0  0  0
  161.0230  206.2800  153.6090 C   0  0  0  0  0  3  0  0  0  0  0  0
  161.0770  207.6700  153.7060 C   0  0  0  0  0  3  0  0  0  0  0  0
  161.4440  209.9360  152.7850 C   0  0  0  0  0  2  0  0  0  0  0  0
  160.1050  210.5280  152.3700 C   0  0  0  0  0  2  0  0  0  0  0  0
  159.0060  213.8750  153.3370 O   0  0  0  0  0  0  0  0  0  0  0  0
  158.9680  212.9430  151.1950 N   0  0  0  0  0  2  0  0  0  0  0  0
  159.2470  212.8830  152.5980 C   0  0  0  0  0  0  0  0  0  0  0  0
  159.8040  211.7020  153.1710 N   0  0  0  0  0  2  0  0  0  0  0  0
  159.1350  214.4520  149.3730 N   0  0  0  0  0  1  0  0  0  0  0  0
  156.9400  213.8140  150.1670 C   0  0  0  0  0  1  0  0  0  0  0  0
  158.3750  214.1110  150.5600 C   0  0  1  0  0  3  0  0  0  0  0  0
  161.2970  204.1640  152.3030 C   0  0  0  0  0  2  0  0  0  0  0  0
  160.9320  202.4440  150.5800 C   0  0  0  0  0  3  0  0  0  0  0  0
  160.8690  203.7260  150.9380 C   0  0  0  0  0  3  0  0  0  0  0  0
  159.1750  201.6040  149.2420 O   0  0  0  0  0  1  0  0  0  0  0  0
  160.5090  202.0130  149.2120 C   0  0  2  0  0  3  0  0  0  0  0  0
  161.1960  200.6420  147.2450 C   0  0  0  0  0  1  0  0  0  0  0  0
  161.3750  200.8600  148.7370 C   0  0  0  0  0  2  0  0  0  0  0  0
  162.1940  208.5170  150.1950 N   0  0  0  0  0  2  0  0  0  0  0  0
  161.7450  208.2560  148.8370 C   0  0  0  0  0  2  0  0  0  0  0  0
  162.4870  207.1310  148.2870 N   0  0  0  0  0  2  0  0  0  0  0  0
  162.6220  205.1150  146.9980 C   0  0  0  0  0  3  0  0  0  0  0  0
  161.8190  204.5720  144.7230 C   0  0  0  0  0  3  0  0  0  0  0  0
  160.9260  205.5310  144.4850 C   0  0  0  0  0  3  0  0  0  0  0  0
  160.6210  206.5590  146.7530 C   0  0  0  0  0  3  0  0  0  0  0  0
  162.1010  204.0490  146.0910 C   0  0  0  0  0  2  0  0  0  0  0  0
  161.9450  206.2250  147.3220 C   0  0  0  0  0  0  0  0  0  0  0  0
  160.1800  206.2650  145.5240 C   0  0  0  0  0  3  0  0  0  0  0  0
  1  7  1  0  0  0  0
  1  6  1  0  0  0  0
  2  1  2  0  0  0  0
  3  2  1  0  0  0  0
  3  4  2  0  0  0  0
  4  5  1  0  0  0  0
  5  6  2  0  0  0  0
  8  7  1  0  0  0  0
  8 12  1  0  0  0  0
 10 11  1  0  0  0  0
 11 12  1  0  0  0  0
 11  9  2  0  0  0  0
 13 15  1  0  0  0  0
 15 14  1  6  0  0  0
 15 10  1  0  0  0  0
 16  4  1  0  0  0  0
 17 18  2  0  0  0  0
 18 16  1  0  0  0  0
 20 19  1  1  0  0  0
 20 17  1  0  0  0  0
 21 22  1  0  0  0  0
 22 20  1  0  0  0  0
 23  2  1  0  0  0  0
 24 23  1  0  0  0  0
 25 24  1  0  0  0  0
 26 31  2  0  0  0  0
 27 30  1  0  0  0  0
 28 27  2  0  0  0  0
 28 32  1  0  0  0  0
 29 31  1  0  0  0  0
 30 26  1  0  0  0  0
 31 25  1  0  0  0  0
 32 29  2  0  0  0  0
M  END
>  <MODEL>
3

>  <REMARK>
 VINA RESULT:      -8.3      1.975      2.106
  Name = 
  12 active torsions:
  status: ('A' for Active; 'I' for Inactive)
    1  A    between atoms: N_1  and  C_25
    2  A    between atoms: N_1  and  C_32
    3  A    between atoms: C_2  and  C_27
    4  A    between atoms: C_3  and  C_16
    5  A    between atoms: C_6  and  N_31
    6  A    between atoms: C_10  and  C_19
    7  A    between atoms: N_14  and  C_18
    8  A    between atoms: C_16  and  C_23
    9  A    between atoms: C_19  and  C_24
   10  A    between atoms: C_20  and  C_27
   11  A    between atoms: C_23  and  N_28
   12  A    between atoms: N_31  and  C_32
                            x       y       z     vdW  Elec       q    Type
                         _______ _______ _______ _____ _____    ______ ____

>  <TORSDO>
F 12

$$$$
=
 OpenBabel11052411543D

 32 33  0  0  1  0  0  0  0  0999 V2000
  161.9980  208.9850  149.5890 C   0  0  0  0  0  0  0  0  0  0  0  0
  162.0110  207.6000  149.2740 C   0  0  0  0  0  0  0  0  0  0  0  0
  161.7020  206.6750  150.2770 C   0  0  0  0  0  3  0  0  0  0  0  0
  161.3860  207.0940  151.5720 C   0  0  0  0  0  0  0  0  0  0  0  0
  161.3850  208.4550  151.8790 C   0  0  0  0  0  3  0  0  0  0  0  0
  161.6850  209.3930  150.8920 C   0  0  0  0  0  3  0  0  0  0  0  0
  162.2660  210.0600  148.5820 C   0  0  0  0  0  2  0  0  0  0  0  0
  161.9290  211.4320  149.1470 C   0  0  0  0  0  2  0  0  0  0  0  0
  161.8070  213.8470  146.4090 O   0  0  0  0  0  0  0  0  0  0  0  0
  160.1030  212.4010  147.0900 N   0  0  0  0  0  2  0  0  0  0  0  0
  161.4230  212.9460  147.2010 C   0  0  0  0  0  0  0  0  0  0  0  0
  162.3150  212.4710  148.2060 N   0  0  0  0  0  2  0  0  0  0  0  0
  159.3640  212.1710  144.8480 N   0  0  0  0  0  1  0  0  0  0  0  0
  157.7290  212.5880  146.5830 C   0  0  0  0  0  1  0  0  0  0  0  0
  159.1410  212.8670  146.1020 C   0  0  1  0  0  3  0  0  0  0  0  0
  161.0840  206.0880  152.6320 C   0  0  0  0  0  2  0  0  0  0  0  0
  160.4120  207.0860  154.7790 C   0  0  0  0  0  3  0  0  0  0  0  0
  161.3860  206.6300  153.9920 C   0  0  0  0  0  3  0  0  0  0  0  0
  159.9830  206.9430  157.0990 O   0  0  0  0  0  1  0  0  0  0  0  0
  160.7210  207.6330  156.1360 C   0  0  2  0  0  3  0  0  0  0  0  0
  161.5570  209.9570  155.7900 C   0  0  0  0  0  1  0  0  0  0  0  0
  160.3660  209.1080  156.1980 C   0  0  0  0  0  2  0  0  0  0  0  0
  162.3310  207.0740  147.9770 N   0  0  0  0  0  2  0  0  0  0  0  0
  161.5240  206.1500  147.1970 C   0  0  0  0  0  2  0  0  0  0  0  0
  162.1450  204.8340  147.2080 N   0  0  0  0  0  2  0  0  0  0  0  0
  161.1800  203.5020  148.9530 C   0  0  0  0  0  3  0  0  0  0  0  0
  161.0480  201.0510  149.2560 C   0  0  0  0  0  3  0  0  0  0  0  0
  161.2880  200.5860  148.0320 C   0  0  0  0  0  3  0  0  0  0  0  0
  161.1100  202.6550  146.6240 C   0  0  0  0  0  3  0  0  0  0  0  0
  160.3880  202.3650  149.5090 C   0  0  0  0  0  2  0  0  0  0  0  0
  161.4760  203.6500  147.6540 C   0  0  0  0  0  0  0  0  0  0  0  0
  161.0330  201.3280  146.7830 C   0  0  0  0  0  3  0  0  0  0  0  0
  1  6  1  0  0  0  0
  2  1  2  0  0  0  0
  2  3  1  0  0  0  0
  3  4  2  0  0  0  0
  4  5  1  0  0  0  0
  4 16  1  0  0  0  0
  6  5  2  0  0  0  0
  7  8  1  0  0  0  0
  7  1  1  0  0  0  0
  9 11  2  0  0  0  0
 10 11  1  0  0  0  0
 11 12  1  0  0  0  0
 12  8  1  0  0  0  0
 13 15  1  0  0  0  0
 15 14  1  1  0  0  0
 15 10  1  0  0  0  0
 16 18  1  0  0  0  0
 17 20  1  0  0  0  0
 18 17  2  0  0  0  0
 20 22  1  0  0  0  0
 20 19  1  1  0  0  0
 21 22  1  0  0  0  0
 23  2  1  0  0  0  0
 24 25  1  0  0  0  0
 24 23  1  0  0  0  0
 25 31  1  0  0  0  0
 26 30  1  0  0  0  0
 27 30  1  0  0  0  0
 28 27  2  0  0  0  0
 29 32  2  0  0  0  0
 29 31  1  0  0  0  0
 31 26  2  0  0  0  0
 32 28  1  0  0  0  0
M  END
>  <MODEL>
4

>  <REMARK>
 VINA RESULT:      -8.1      3.566      6.340
  Name = 
  12 active torsions:
  status: ('A' for Active; 'I' for Inactive)
    1  A    between atoms: N_1  and  C_25
    2  A    between atoms: N_1  and  C_32
    3  A    between atoms: C_2  and  C_27
    4  A    between atoms: C_3  and  C_16
    5  A    between atoms: C_6  and  N_31
    6  A    between atoms: C_10  and  C_19
    7  A    between atoms: N_14  and  C_18
    8  A    between atoms: C_16  and  C_23
    9  A    between atoms: C_19  and  C_24
   10  A    between atoms: C_20  and  C_27
   11  A    between atoms: C_23  and  N_28
   12  A    between atoms: N_31  and  C_32
                            x       y       z     vdW  Elec       q    Type
                         _______ _______ _______ _____ _____    ______ ____

>  <TORSDO>
F 12

$$$$
=
 OpenBabel11052411543D

 32 33  0  0  1  0  0  0  0  0999 V2000
  161.2450  206.1900  148.5780 C   0  0  0  0  0  0  0  0  0  0  0  0
  161.5930  207.3530  149.3150 C   0  0  0  0  0  0  0  0  0  0  0  0
  161.6190  207.2850  150.7130 C   0  0  0  0  0  3  0  0  0  0  0  0
  161.3080  206.1000  151.3830 C   0  0  0  0  0  0  0  0  0  0  0  0
  160.9570  204.9630  150.6540 C   0  0  0  0  0  3  0  0  0  0  0  0
  160.9300  205.0090  149.2610 C   0  0  0  0  0  3  0  0  0  0  0  0
  161.2320  206.1390  147.0820 C   0  0  0  0  0  2  0  0  0  0  0  0
  162.2470  205.1310  146.5620 C   0  0  0  0  0  2  0  0  0  0  0  0
  160.5770  202.1960  145.1670 O   0  0  0  0  0  0  0  0  0  0  0  0
  161.2260  202.5260  147.3870 N   0  0  0  0  0  2  0  0  0  0  0  0
  161.1150  202.9480  146.0230 C   0  0  0  0  0  0  0  0  0  0  0  0
  161.6150  204.2220  145.6200 N   0  0  0  0  0  2  0  0  0  0  0  0
  161.6450  200.1960  147.5160 N   0  0  0  0  0  1  0  0  0  0  0  0
  160.5330  201.2900  149.3650 C   0  0  0  0  0  1  0  0  0  0  0  0
  160.7100  201.2500  147.8590 C   0  0  1  0  0  3  0  0  0  0  0  0
  161.3190  206.0580  152.8740 C   0  0  0  0  0  2  0  0  0  0  0  0
  161.2300  207.7110  154.6950 C   0  0  0  0  0  3  0  0  0  0  0  0
  160.8870  207.3670  153.4540 C   0  0  0  0  0  3  0  0  0  0  0  0
  161.9050  209.8210  155.5190 O   0  0  0  0  0  1  0  0  0  0  0  0
  160.7900  209.0190  155.2720 C   0  0  2  0  0  3  0  0  0  0  0  0
  160.2100  207.3550  157.0370 C   0  0  0  0  0  1  0  0  0  0  0  0
  160.0410  208.7900  156.5730 C   0  0  0  0  0  2  0  0  0  0  0  0
  161.9180  208.6170  148.7170 N   0  0  0  0  0  2  0  0  0  0  0  0
  161.9350  209.9080  149.3840 C   0  0  0  0  0  2  0  0  0  0  0  0
  162.5540  210.8970  148.5130 N   0  0  0  0  0  2  0  0  0  0  0  0
  161.1090  212.7030  149.1430 C   0  0  0  0  0  3  0  0  0  0  0  0
  159.8410  214.3330  147.7820 C   0  0  0  0  0  3  0  0  0  0  0  0
  160.4360  214.2550  146.5930 C   0  0  0  0  0  3  0  0  0  0  0  0
  162.5110  212.9460  147.1120 C   0  0  0  0  0  3  0  0  0  0  0  0
  160.5610  214.0900  149.0650 C   0  0  0  0  0  2  0  0  0  0  0  0
  162.0080  212.2000  148.2860 C   0  0  0  0  0  0  0  0  0  0  0  0
  161.8310  213.8320  146.3750 C   0  0  0  0  0  3  0  0  0  0  0  0
  1  6  2  0  0  0  0
  1  2  1  0  0  0  0
  2  3  2  0  0  0  0
  3  4  1  0  0  0  0
  4 16  1  0  0  0  0
  5  4  2  0  0  0  0
  6  5  1  0  0  0  0
  7  1  1  0  0  0  0
  8  7  1  0  0  0  0
  9 11  2  0  0  0  0
 10 15  1  0  0  0  0
 11 10  1  0  0  0  0
 12 11  1  0  0  0  0
 12  8  1  0  0  0  0
 13 15  1  0  0  0  0
 15 14  1  1  0  0  0
 16 18  1  0  0  0  0
 17 20  1  0  0  0  0
 18 17  2  0  0  0  0
 20 19  1  1  0  0  0
 20 22  1  0  0  0  0
 22 21  1  0  0  0  0
 23  2  1  0  0  0  0
 23 24  1  0  0  0  0
 25 24  1  0  0  0  0
 27 30  1  0  0  0  0
 28 27  2  0  0  0  0
 29 31  1  0  0  0  0
 30 26  1  0  0  0  0
 31 25  1  0  0  0  0
 31 26  2  0  0  0  0
 32 28  1  0  0  0  0
 32 29  2  0  0  0  0
M  END
>  <MODEL>
5

>  <REMARK>
 VINA RESULT:      -7.8      3.509      8.798
  Name = 
  12 active torsions:
  status: ('A' for Active; 'I' for Inactive)
    1  A    between atoms: N_1  and  C_25
    2  A    between atoms: N_1  and  C_32
    3  A    between atoms: C_2  and  C_27
    4  A    between atoms: C_3  and  C_16
    5  A    between atoms: C_6  and  N_31
    6  A    between atoms: C_10  and  C_19
    7  A    between atoms: N_14  and  C_18
    8  A    between atoms: C_16  and  C_23
    9  A    between atoms: C_19  and  C_24
   10  A    between atoms: C_20  and  C_27
   11  A    between atoms: C_23  and  N_28
   12  A    between atoms: N_31  and  C_32
                            x       y       z     vdW  Elec       q    Type
                         _______ _______ _______ _____ _____    ______ ____

>  <TORSDO>
F 12

$$$$
=
 OpenBabel11052411543D

 32 33  0  0  1  0  0  0  0  0999 V2000
  160.9390  204.5770  150.7180 C   0  0  0  0  0  0  0  0  0  0  0  0
  160.8980  205.9970  150.7130 C   0  0  0  0  0  0  0  0  0  0  0  0
  160.9910  206.6800  151.9300 C   0  0  0  0  0  3  0  0  0  0  0  0
  161.1190  205.9890  153.1380 C   0  0  0  0  0  0  0  0  0  0  0  0
  161.1480  204.5940  153.1380 C   0  0  0  0  0  3  0  0  0  0  0  0
  161.0630  203.8950  151.9350 C   0  0  0  0  0  3  0  0  0  0  0  0
  160.8950  203.7490  149.4720 C   0  0  0  0  0  2  0  0  0  0  0  0
  160.1750  202.4310  149.7170 C   0  0  0  0  0  2  0  0  0  0  0  0
  161.9140  199.9460  147.6810 O   0  0  0  0  0  0  0  0  0  0  0  0
  160.4730  201.6250  146.9300 N   0  0  0  0  0  2  0  0  0  0  0  0
  161.1680  200.9210  147.9650 C   0  0  0  0  0  0  0  0  0  0  0  0
  161.0220  201.3160  149.3280 N   0  0  0  0  0  2  0  0  0  0  0  0
  160.3480  199.8680  145.3420 N   0  0  0  0  0  1  0  0  0  0  0  0
  159.6120  202.0810  144.7000 C   0  0  0  0  0  1  0  0  0  0  0  0
  160.6070  201.2840  145.5210 C   0  0  1  0  0  3  0  0  0  0  0  0
  161.1920  206.7380  154.4260 C   0  0  0  0  0  2  0  0  0  0  0  0
  161.0010  209.0560  155.2330 C   0  0  0  0  0  3  0  0  0  0  0  0
  161.0270  208.2080  154.2050 C   0  0  0  0  0  3  0  0  0  0  0  0
  161.3270  210.8650  153.7490 O   0  0  0  0  0  1  0  0  0  0  0  0
  160.8290  210.5240  155.0070 C   0  0  2  0  0  3  0  0  0  0  0  0
  162.9430  210.6920  156.3200 C   0  0  0  0  0  1  0  0  0  0  0  0
  161.5780  211.3070  156.0710 C   0  0  0  0  0  2  0  0  0  0  0  0
  160.7590  206.7930  149.5260 N   0  0  0  0  0  2  0  0  0  0  0  0
  161.6080  207.9040  149.1280 C   0  0  0  0  0  2  0  0  0  0  0  0
  162.3780  207.5300  147.9520 N   0  0  0  0  0  2  0  0  0  0  0  0
  162.8470  205.4470  146.8610 C   0  0  0  0  0  3  0  0  0  0  0  0
  162.1990  204.5840  144.6360 C   0  0  0  0  0  3  0  0  0  0  0  0
  161.1810  205.3730  144.2960 C   0  0  0  0  0  3  0  0  0  0  0  0
  160.6630  206.5470  146.4510 C   0  0  0  0  0  3  0  0  0  0  0  0
  162.5160  204.2370  146.0520 C   0  0  0  0  0  2  0  0  0  0  0  0
  162.0040  206.4680  147.0680 C   0  0  0  0  0  0  0  0  0  0  0  0
  160.3050  206.0780  145.2500 C   0  0  0  0  0  3  0  0  0  0  0  0
  1  6  1  0  0  0  0
  2  1  2  0  0  0  0
  2  3  1  0  0  0  0
  3  4  2  0  0  0  0
  4 16  1  0  0  0  0
  5  4  1  0  0  0  0
  6  5  2  0  0  0  0
  7  8  1  0  0  0  0
  7  1  1  0  0  0  0
  9 11  2  0  0  0  0
 10 11  1  0  0  0  0
 11 12  1  0  0  0  0
 12  8  1  0  0  0  0
 13 15  1  0  0  0  0
 15 14  1  6  0  0  0
 15 10  1  0  0  0  0
 18 16  1  0  0  0  0
 18 17  2  0  0  0  0
 20 19  1  6  0  0  0
 20 17  1  0  0  0  0
 20 22  1  0  0  0  0
 22 21  1  0  0  0  0
 23  2  1  0  0  0  0
 24 23  1  0  0  0  0
 25 24  1  0  0  0  0
 26 31  2  0  0  0  0
 27 30  1  0  0  0  0
 28 27  2  0  0  0  0
 28 32  1  0  0  0  0
 29 31  1  0  0  0  0
 30 26  1  0  0  0  0
 31 25  1  0  0  0  0
 32 29  2  0  0  0  0
M  END
>  <MODEL>
6

>  <REMARK>
 VINA RESULT:      -7.8      2.969      8.305
  Name = 
  12 active torsions:
  status: ('A' for Active; 'I' for Inactive)
    1  A    between atoms: N_1  and  C_25
    2  A    between atoms: N_1  and  C_32
    3  A    between atoms: C_2  and  C_27
    4  A    between atoms: C_3  and  C_16
    5  A    between atoms: C_6  and  N_31
    6  A    between atoms: C_10  and  C_19
    7  A    between atoms: N_14  and  C_18
    8  A    between atoms: C_16  and  C_23
    9  A    between atoms: C_19  and  C_24
   10  A    between atoms: C_20  and  C_27
   11  A    between atoms: C_23  and  N_28
   12  A    between atoms: N_31  and  C_32
                            x       y       z     vdW  Elec       q    Type
                         _______ _______ _______ _____ _____    ______ ____

>  <TORSDO>
F 12

$$$$
=
 OpenBabel11052411543D

 32 33  0  0  1  0  0  0  0  0999 V2000
  161.7660  206.2410  152.1270 C   0  0  0  0  0  0  0  0  0  0  0  0
  161.8310  207.6120  151.7630 C   0  0  0  0  0  0  0  0  0  0  0  0
  161.3930  208.5760  152.6780 C   0  0  0  0  0  3  0  0  0  0  0  0
  160.8960  208.2090  153.9310 C   0  0  0  0  0  0  0  0  0  0  0  0
  160.8250  206.8600  154.2800 C   0  0  0  0  0  3  0  0  0  0  0  0
  161.2610  205.8840  153.3840 C   0  0  0  0  0  3  0  0  0  0  0  0
  162.2510  205.1330  151.2460 C   0  0  0  0  0  2  0  0  0  0  0  0
  161.1050  204.5320  150.4450 C   0  0  0  0  0  2  0  0  0  0  0  0
  160.3290  200.9620  150.5000 O   0  0  0  0  0  0  0  0  0  0  0  0
  160.6650  202.3030  148.6160 N   0  0  0  0  0  2  0  0  0  0  0  0
  160.5880  202.1030  150.0320 C   0  0  0  0  0  0  0  0  0  0  0  0
  160.8040  203.1940  150.9250 N   0  0  0  0  0  2  0  0  0  0  0  0
  160.4550  201.7690  146.3150 N   0  0  0  0  0  1  0  0  0  0  0  0
  161.6260  200.2320  147.7720 C   0  0  0  0  0  1  0  0  0  0  0  0
  160.4820  201.2220  147.6580 C   0  0  1  0  0  3  0  0  0  0  0  0
  160.4120  209.2530  154.8800 C   0  0  0  0  0  2  0  0  0  0  0  0
  158.8660  211.1510  154.6230 C   0  0  0  0  0  3  0  0  0  0  0  0
  159.8960  210.4500  154.1480 C   0  0  0  0  0  3  0  0  0  0  0  0
  156.9830  212.4880  154.1220 O   0  0  0  0  0  1  0  0  0  0  0  0
  158.3510  212.3440  153.8840 C   0  0  2  0  0  3  0  0  0  0  0  0
  159.5310  213.2430  151.8780 C   0  0  0  0  0  1  0  0  0  0  0  0
  158.5830  212.1750  152.3920 C   0  0  0  0  0  2  0  0  0  0  0  0
  162.3160  208.0860  150.4980 N   0  0  0  0  0  2  0  0  0  0  0  0
  161.6100  208.0310  149.2280 C   0  0  0  0  0  2  0  0  0  0  0  0
  162.4550  207.3920  148.2290 N   0  0  0  0  0  2  0  0  0  0  0  0
  162.7810  205.4250  146.9000 C   0  0  0  0  0  3  0  0  0  0  0  0
  161.8810  204.7780  144.6890 C   0  0  0  0  0  3  0  0  0  0  0  0
  160.8390  205.5940  144.5410 C   0  0  0  0  0  3  0  0  0  0  0  0
  160.5740  206.5550  146.8430 C   0  0  0  0  0  3  0  0  0  0  0  0
  162.3510  204.2970  146.0200 C   0  0  0  0  0  2  0  0  0  0  0  0
  161.9760  206.4200  147.2960 C   0  0  0  0  0  0  0  0  0  0  0  0
  160.0810  206.2030  145.6500 C   0  0  0  0  0  3  0  0  0  0  0  0
  1  6  1  0  0  0  0
  2  1  2  0  0  0  0
  2  3  1  0  0  0  0
  3  4  2  0  0  0  0
  4  5  1  0  0  0  0
  4 16  1  0  0  0  0
  6  5  2  0  0  0  0
  7  1  1  0  0  0  0
  8 12  1  0  0  0  0
  8  7  1  0  0  0  0
 10 11  1  0  0  0  0
 11  9  2  0  0  0  0
 11 12  1  0  0  0  0
 13 15  1  0  0  0  0
 15 14  1  6  0  0  0
 15 10  1  0  0  0  0
 18 17  2  0  0  0  0
 18 16  1  0  0  0  0
 20 19  1  6  0  0  0
 20 17  1  0  0  0  0
 21 22  1  0  0  0  0
 22 20  1  0  0  0  0
 23  2  1  0  0  0  0
 24 23  1  0  0  0  0
 25 24  1  0  0  0  0
 26 31  2  0  0  0  0
 27 30  1  0  0  0  0
 28 27  2  0  0  0  0
 28 32  1  0  0  0  0
 29 31  1  0  0  0  0
 30 26  1  0  0  0  0
 31 25  1  0  0  0  0
 32 29  2  0  0  0  0
M  END
>  <MODEL>
7

>  <REMARK>
 VINA RESULT:      -7.7      2.484      7.837
  Name = 
  12 active torsions:
  status: ('A' for Active; 'I' for Inactive)
    1  A    between atoms: N_1  and  C_25
    2  A    between atoms: N_1  and  C_32
    3  A    between atoms: C_2  and  C_27
    4  A    between atoms: C_3  and  C_16
    5  A    between atoms: C_6  and  N_31
    6  A    between atoms: C_10  and  C_19
    7  A    between atoms: N_14  and  C_18
    8  A    between atoms: C_16  and  C_23
    9  A    between atoms: C_19  and  C_24
   10  A    between atoms: C_20  and  C_27
   11  A    between atoms: C_23  and  N_28
   12  A    between atoms: N_31  and  C_32
                            x       y       z     vdW  Elec       q    Type
                         _______ _______ _______ _____ _____    ______ ____

>  <TORSDO>
F 12

$$$$
=
 OpenBabel11052411543D

 32 33  0  0  1  0  0  0  0  0999 V2000
  161.7920  208.3990  149.6340 C   0  0  0  0  0  0  0  0  0  0  0  0
  161.1510  207.1550  149.3890 C   0  0  0  0  0  0  0  0  0  0  0  0
  160.8950  206.3020  150.4680 C   0  0  0  0  0  3  0  0  0  0  0  0
  161.2600  206.6560  151.7700 C   0  0  0  0  0  0  0  0  0  0  0  0
  161.8990  207.8740  152.0030 C   0  0  0  0  0  3  0  0  0  0  0  0
  162.1580  208.7400  150.9410 C   0  0  0  0  0  3  0  0  0  0  0  0
  162.0700  209.4050  148.5610 C   0  0  0  0  0  2  0  0  0  0  0  0
  162.3030  210.7860  149.1560 C   0  0  0  0  0  2  0  0  0  0  0  0
  161.1250  213.7610  147.3920 O   0  0  0  0  0  0  0  0  0  0  0  0
  160.4660  213.0240  149.5090 N   0  0  0  0  0  2  0  0  0  0  0  0
  161.2360  212.9030  148.3080 C   0  0  0  0  0  0  0  0  0  0  0  0
  162.1330  211.8080  148.1360 N   0  0  0  0  0  2  0  0  0  0  0  0
  158.2770  213.8520  149.1260 N   0  0  0  0  0  1  0  0  0  0  0  0
  159.3530  214.3220  151.2420 C   0  0  0  0  0  1  0  0  0  0  0  0
  159.5560  214.1340  149.7500 C   0  0  1  0  0  3  0  0  0  0  0  0
  160.9990  205.7200  152.9020 C   0  0  0  0  0  2  0  0  0  0  0  0
  160.5550  207.0670  154.9130 C   0  0  0  0  0  3  0  0  0  0  0  0
  161.4070  206.3250  154.2070 C   0  0  0  0  0  3  0  0  0  0  0  0
  160.0780  207.2910  157.2170 O   0  0  0  0  0  1  0  0  0  0  0  0
  160.9700  207.6750  156.2150 C   0  0  2  0  0  3  0  0  0  0  0  0
  159.6970  209.6810  155.4560 C   0  0  0  0  0  1  0  0  0  0  0  0
  160.9780  209.1890  156.1050 C   0  0  0  0  0  2  0  0  0  0  0  0
  160.7470  206.7010  148.0880 N   0  0  0  0  0  2  0  0  0  0  0  0
  161.6180  206.1740  147.0500 C   0  0  0  0  0  2  0  0  0  0  0  0
  162.2470  204.9480  147.5180 N   0  0  0  0  0  2  0  0  0  0  0  0
  161.2140  203.4060  149.0350 C   0  0  0  0  0  3  0  0  0  0  0  0
  160.9780  200.9450  148.9570 C   0  0  0  0  0  3  0  0  0  0  0  0
  161.2090  200.6650  147.6750 C   0  0  0  0  0  3  0  0  0  0  0  0
  161.1280  202.9310  146.6030 C   0  0  0  0  0  3  0  0  0  0  0  0
  160.3710  202.2310  149.4080 C   0  0  0  0  0  2  0  0  0  0  0  0
  161.5260  203.7390  147.7750 C   0  0  0  0  0  0  0  0  0  0  0  0
  160.9940  201.6000  146.5550 C   0  0  0  0  0  3  0  0  0  0  0  0
  1  6  1  0  0  0  0
  2  1  2  0  0  0  0
  2  3  1  0  0  0  0
  3  4  2  0  0  0  0
  4  5  1  0  0  0  0
  4 16  1  0  0  0  0
  6  5  2  0  0  0  0
  7  8  1  0  0  0  0
  7  1  1  0  0  0  0
  9 11  2  0  0  0  0
 10 15  1  0  0  0  0
 11 10  1  0  0  0  0
 12 11  1  0  0  0  0
 12  8  1  0  0  0  0
 13 15  1  0  0  0  0
 15 14  1  1  0  0  0
 16 18  1  0  0  0  0
 17 20  1  0  0  0  0
 18 17  2  0  0  0  0
 20 19  1  1  0  0  0
 21 22  1  0  0  0  0
 22 20  1  0  0  0  0
 23  2  1  0  0  0  0
 24 25  1  0  0  0  0
 24 23  1  0  0  0  0
 25 31  1  0  0  0  0
 26 30  1  0  0  0  0
 27 30  1  0  0  0  0
 28 27  2  0  0  0  0
 29 31  1  0  0  0  0
 31 26  2  0  0  0  0
 32 29  2  0  0  0  0
 32 28  1  0  0  0  0
M  END
>  <MODEL>
8

>  <REMARK>
 VINA RESULT:      -7.6      3.140      5.745
  Name = 
  12 active torsions:
  status: ('A' for Active; 'I' for Inactive)
    1  A    between atoms: N_1  and  C_25
    2  A    between atoms: N_1  and  C_32
    3  A    between atoms: C_2  and  C_27
    4  A    between atoms: C_3  and  C_16
    5  A    between atoms: C_6  and  N_31
    6  A    between atoms: C_10  and  C_19
    7  A    between atoms: N_14  and  C_18
    8  A    between atoms: C_16  and  C_23
    9  A    between atoms: C_19  and  C_24
   10  A    between atoms: C_20  and  C_27
   11  A    between atoms: C_23  and  N_28
   12  A    between atoms: N_31  and  C_32
                            x       y       z     vdW  Elec       q    Type
                         _______ _______ _______ _____ _____    ______ ____

>  <TORSDO>
F 12

$$$$
=
 OpenBabel11052411543D

 32 33  0  0  1  0  0  0  0  0999 V2000
  161.1170  207.8530  153.1060 C   0  0  0  0  0  0  0  0  0  0  0  0
  161.5780  206.7340  152.3630 C   0  0  0  0  0  0  0  0  0  0  0  0
  161.8730  206.8990  151.0050 C   0  0  0  0  0  3  0  0  0  0  0  0
  161.7180  208.1390  150.3790 C   0  0  0  0  0  0  0  0  0  0  0  0
  161.2550  209.2320  151.1120 C   0  0  0  0  0  3  0  0  0  0  0  0
  160.9610  209.0890  152.4670 C   0  0  0  0  0  3  0  0  0  0  0  0
  160.8180  207.7990  154.5720 C   0  0  0  0  0  2  0  0  0  0  0  0
  161.3440  209.0380  155.2820 C   0  0  0  0  0  2  0  0  0  0  0  0
  158.5600  211.0170  156.5790 O   0  0  0  0  0  0  0  0  0  0  0  0
  159.4790  211.1150  154.4330 N   0  0  0  0  0  2  0  0  0  0  0  0
  159.4180  210.5870  155.7630 C   0  0  0  0  0  0  0  0  0  0  0  0
  160.3310  209.5720  156.1770 N   0  0  0  0  0  2  0  0  0  0  0  0
  158.9480  213.4260  154.4730 N   0  0  0  0  0  1  0  0  0  0  0  0
  158.5890  212.1770  152.4320 C   0  0  0  0  0  1  0  0  0  0  0  0
  158.5570  212.1310  153.9480 C   0  0  1  0  0  3  0  0  0  0  0  0
  162.0160  208.2860  148.9240 C   0  0  0  0  0  2  0  0  0  0  0  0
  161.9480  206.7190  147.0270 C   0  0  0  0  0  3  0  0  0  0  0  0
  162.2890  206.9580  148.2930 C   0  0  0  0  0  3  0  0  0  0  0  0
  163.5460  205.0240  146.6300 O   0  0  0  0  0  1  0  0  0  0  0  0
  162.2180  205.3880  146.4020 C   0  0  2  0  0  3  0  0  0  0  0  0
  160.6930  204.7100  144.5490 C   0  0  0  0  0  1  0  0  0  0  0  0
  161.9670  205.4520  144.9060 C   0  0  0  0  0  2  0  0  0  0  0  0
  161.7580  205.4210  152.9150 N   0  0  0  0  0  2  0  0  0  0  0  0
  160.8790  204.2790  152.7290 C   0  0  0  0  0  2  0  0  0  0  0  0
  161.5850  203.2340  152.0020 N   0  0  0  0  0  2  0  0  0  0  0  0
  161.0110  201.3470  150.6390 C   0  0  0  0  0  3  0  0  0  0  0  0
  161.1980  200.9740  148.2020 C   0  0  0  0  0  3  0  0  0  0  0  0
  161.3280  202.2090  147.7200 C   0  0  0  0  0  3  0  0  0  0  0  0
  160.7360  203.6270  149.7030 C   0  0  0  0  0  3  0  0  0  0  0  0
  160.4320  200.6660  149.4440 C   0  0  0  0  0  2  0  0  0  0  0  0
  161.1170  202.6770  150.7700 C   0  0  0  0  0  0  0  0  0  0  0  0
  160.8310  203.4290  148.3830 C   0  0  0  0  0  3  0  0  0  0  0  0
  1  7  1  0  0  0  0
  2 23  1  0  0  0  0
  2  1  2  0  0  0  0
  3  2  1  0  0  0  0
  4  3  2  0  0  0  0
  4  5  1  0  0  0  0
  5  6  2  0  0  0  0
  6  1  1  0  0  0  0
  7  8  1  0  0  0  0
  8 12  1  0  0  0  0
 10 11  1  0  0  0  0
 11 12  1  0  0  0  0
 11  9  2  0  0  0  0
 15 14  1  6  0  0  0
 15 10  1  0  0  0  0
 15 13  1  0  0  0  0
 16  4  1  0  0  0  0
 17 18  2  0  0  0  0
 18 16  1  0  0  0  0
 20 19  1  6  0  0  0
 20 17  1  0  0  0  0
 21 22  1  0  0  0  0
 22 20  1  0  0  0  0
 24 23  1  0  0  0  0
 25 24  1  0  0  0  0
 26 31  2  0  0  0  0
 27 30  1  0  0  0  0
 28 27  2  0  0  0  0
 28 32  1  0  0  0  0
 29 31  1  0  0  0  0
 30 26  1  0  0  0  0
 31 25  1  0  0  0  0
 32 29  2  0  0  0  0
M  END
>  <MODEL>
9

>  <REMARK>
 VINA RESULT:      -7.5      2.121      4.074
  Name = 
  12 active torsions:
  status: ('A' for Active; 'I' for Inactive)
    1  A    between atoms: N_1  and  C_25
    2  A    between atoms: N_1  and  C_32
    3  A    between atoms: C_2  and  C_27
    4  A    between atoms: C_3  and  C_16
    5  A    between atoms: C_6  and  N_31
    6  A    between atoms: C_10  and  C_19
    7  A    between atoms: N_14  and  C_18
    8  A    between atoms: C_16  and  C_23
    9  A    between atoms: C_19  and  C_24
   10  A    between atoms: C_20  and  C_27
   11  A    between atoms: C_23  and  N_28
   12  A    between atoms: N_31  and  C_32
                            x       y       z     vdW  Elec       q    Type
                         _______ _______ _______ _____ _____    ______ ____

>  <TORSDO>
F 12

$$$$
