=
 OpenBabel11042420083D

 30 35  0  0  1  0  0  0  0  0999 V2000
  161.1190  206.3740  151.9930 C   0  0  1  0  0  3  0  0  0  0  0  0
  160.8080  209.2440  154.0690 C   0  0  0  0  0  0  0  0  0  0  0  0
  161.1870  207.0980  154.3890 N   0  0  0  0  0  0  0  0  0  0  0  0
  161.0320  207.3930  153.0820 C   0  0  0  0  0  0  0  0  0  0  0  0
  160.7990  208.6970  152.8420 N   0  0  0  0  0  0  0  0  0  0  0  0
  161.0470  208.2760  155.0250 C   0  0  0  0  0  2  0  0  0  0  0  0
  157.6120  212.4040  153.6810 C   0  0  0  0  0  3  0  0  0  0  0  0
  159.2500  210.9900  154.8610 C   0  0  0  0  0  0  0  0  0  0  0  0
  156.7610  212.1740  154.7910 C   0  0  0  0  0  3  0  0  0  0  0  0
  160.3870  211.5810  152.8290 S   0  0  0  0  0  0  0  0  0  0  0  0
  157.1610  211.3630  155.8980 C   0  0  0  0  0  3  0  0  0  0  0  0
  158.8510  211.7910  153.7590 C   0  0  0  0  0  0  0  0  0  0  0  0
  160.6030  210.7110  154.3130 C   0  0  2  0  0  3  0  0  0  0  0  0
  158.4330  210.7480  155.9530 C   0  0  0  0  0  3  0  0  0  0  0  0
  162.4560  206.3780  151.4130 N   0  0  0  0  0  2  0  0  0  0  0  0
  162.6460  207.6490  150.7340 C   0  0  0  0  0  2  0  0  0  0  0  0
  161.7240  207.7330  149.5300 C   0  0  1  0  0  0  0  0  0  0  0  0
  161.7640  209.0910  148.8600 C   0  0  0  0  0  2  0  0  0  0  0  0
  162.6080  207.9600  148.3130 C   0  0  2  0  0  3  0  0  0  0  0  0
  161.9610  206.6100  148.5440 C   0  0  2  0  0  3  0  0  0  0  0  0
  160.7940  206.4660  147.6910 N   0  0  0  0  0  2  0  0  0  0  0  0
  161.7180  204.2970  147.9410 C   0  0  2  0  0  3  0  0  0  0  0  0
  160.8370  205.1280  147.1290 C   0  0  2  0  0  3  0  0  0  0  0  0
  162.0480  203.9380  145.5040 C   0  0  0  0  0  1  0  0  0  0  0  0
  162.1980  204.8470  146.6380 N   0  0  0  0  0  0  0  0  0  0  0  0
  160.8940  201.7940  147.8920 N   0  0  0  0  0  0  0  0  0  0  0  0
  161.2560  202.8940  147.9110 C   0  0  0  0  0  0  0  0  0  0  0  0
  160.8390  205.1090  152.5150 O   0  0  0  0  0  0  0  0  0  0  0  0
  161.2180  202.8890  151.7520 C   0  0  0  0  0  1  0  0  0  0  0  0
  160.7280  204.2790  151.4000 C   0  0  0  0  0  2  0  0  0  0  0  0
  1 15  1  1  0  0  0
  1 28  1  0  0  0  0
  1  4  1  0  0  0  0
  2  6  1  0  0  0  0
  3  6  1  0  0  0  0
  4  3  2  0  0  0  0
  5  4  1  0  0  0  0
  5  2  2  0  0  0  0
  7 12  2  0  0  0  0
  7  9  1  0  0  0  0
  8 14  2  0  0  0  0
  9 11  2  0  0  0  0
 10 12  1  0  0  0  0
 10 13  1  0  0  0  0
 11 14  1  0  0  0  0
 12  8  1  0  0  0  0
 13  2  1  6  0  0  0
 13  8  1  0  0  0  0
 16 15  1  0  0  0  0
 17 16  1  1  0  0  0
 18 17  1  0  0  0  0
 19 20  1  0  0  0  0
 19 18  1  6  0  0  0
 19 17  1  0  0  0  0
 20 21  1  6  0  0  0
 20 17  1  0  0  0  0
 22 27  1  6  0  0  0
 23 21  1  1  0  0  0
 23 22  1  0  0  0  0
 24 25  1  0  0  0  0
 25 23  1  0  0  0  0
 25 22  1  0  0  0  0
 26 27  3  0  0  0  0
 30 29  1  0  0  0  0
 30 28  1  0  0  0  0
M  END
>  <MODEL>
1

>  <REMARK>
 VINA RESULT:      -7.0      0.000      0.000
  Name = 
  10 active torsions:
  status: ('A' for Active; 'I' for Inactive)
    1  A    between atoms: C_1  and  C_18
    2  A    between atoms: C_3  and  N_21
    3  A    between atoms: C_7  and  C_24
    4  A    between atoms: C_8  and  C_28
    5  A    between atoms: N_11  and  C_28
    6  A    between atoms: N_11  and  C_29
    7  A    between atoms: C_14  and  C_29
    8  A    between atoms: N_21  and  C_27
    9  A    between atoms: O_23  and  C_29
   10  A    between atoms: O_23  and  C_30
                            x       y       z     vdW  Elec       q    Type
                         _______ _______ _______ _____ _____    ______ ____

>  <TORSDO>
F 10

$$$$
=
 OpenBabel11042420083D

 30 35  0  0  1  0  0  0  0  0999 V2000
  161.6390  208.1320  151.6200 C   0  0  1  0  0  3  0  0  0  0  0  0
  161.9790  210.7250  149.2100 C   0  0  0  0  0  0  0  0  0  0  0  0
  161.9350  208.5230  149.1650 N   0  0  0  0  0  0  0  0  0  0  0  0
  161.8030  209.0050  150.4180 C   0  0  0  0  0  0  0  0  0  0  0  0
  161.8240  210.3480  150.4900 N   0  0  0  0  0  0  0  0  0  0  0  0
  162.0450  209.6170  148.3880 C   0  0  0  0  0  2  0  0  0  0  0  0
  162.0580  213.2160  145.4510 C   0  0  0  0  0  3  0  0  0  0  0  0
  161.1690  212.4220  147.6080 C   0  0  0  0  0  0  0  0  0  0  0  0
  160.7110  213.2190  145.0080 C   0  0  0  0  0  3  0  0  0  0  0  0
  163.5390  212.5280  147.9870 S   0  0  0  0  0  0  0  0  0  0  0  0
  159.6330  212.8230  145.8590 C   0  0  0  0  0  3  0  0  0  0  0  0
  162.2410  212.8100  146.7600 C   0  0  0  0  0  0  0  0  0  0  0  0
  162.0430  212.1630  148.7820 C   0  0  2  0  0  3  0  0  0  0  0  0
  159.8470  212.4120  147.1950 C   0  0  0  0  0  3  0  0  0  0  0  0
  162.4870  206.9540  151.4990 N   0  0  0  0  0  2  0  0  0  0  0  0
  161.8090  205.8450  152.1490 C   0  0  0  0  0  2  0  0  0  0  0  0
  161.7890  204.6400  151.2250 C   0  0  1  0  0  0  0  0  0  0  0  0
  161.4320  203.3580  151.9480 C   0  0  0  0  0  2  0  0  0  0  0  0
  160.3580  204.1240  151.2040 C   0  0  2  0  0  3  0  0  0  0  0  0
  160.9180  204.8630  150.0070 C   0  0  2  0  0  3  0  0  0  0  0  0
  161.2930  203.9170  148.9700 N   0  0  0  0  0  2  0  0  0  0  0  0
  161.7680  203.8080  146.6490 C   0  0  2  0  0  3  0  0  0  0  0  0
  161.1170  204.5890  147.6950 C   0  0  2  0  0  3  0  0  0  0  0  0
  162.1860  206.2480  146.4160 C   0  0  0  0  0  1  0  0  0  0  0  0
  162.4300  205.0330  147.1920 N   0  0  0  0  0  0  0  0  0  0  0  0
  160.4860  204.1260  144.3690 N   0  0  0  0  0  0  0  0  0  0  0  0
  161.0510  203.9830  145.3700 C   0  0  0  0  0  0  0  0  0  0  0  0
  161.9910  208.8480  152.7660 O   0  0  0  0  0  0  0  0  0  0  0  0
  160.8040  208.2550  154.7400 C   0  0  0  0  0  1  0  0  0  0  0  0
  160.7900  209.0460  153.4470 C   0  0  0  0  0  2  0  0  0  0  0  0
  1 15  1  6  0  0  0
  1 28  1  0  0  0  0
  2  5  2  0  0  0  0
  3  4  2  0  0  0  0
  4  5  1  0  0  0  0
  4  1  1  0  0  0  0
  6  3  1  0  0  0  0
  6  2  1  0  0  0  0
  7 12  1  0  0  0  0
  8 13  1  0  0  0  0
  9  7  2  0  0  0  0
  9 11  1  0  0  0  0
 10 13  1  0  0  0  0
 11 14  2  0  0  0  0
 12  8  2  0  0  0  0
 12 10  1  0  0  0  0
 13  2  1  6  0  0  0
 14  8  1  0  0  0  0
 15 16  1  0  0  0  0
 17 18  1  0  0  0  0
 17 16  1  1  0  0  0
 19 17  1  0  0  0  0
 19 18  1  6  0  0  0
 20 21  1  6  0  0  0
 20 19  1  0  0  0  0
 20 17  1  0  0  0  0
 22 27  1  6  0  0  0
 22 25  1  0  0  0  0
 22 23  1  0  0  0  0
 23 21  1  1  0  0  0
 24 25  1  0  0  0  0
 25 23  1  0  0  0  0
 26 27  3  0  0  0  0
 28 30  1  0  0  0  0
 30 29  1  0  0  0  0
M  END
>  <MODEL>
2

>  <REMARK>
 VINA RESULT:      -6.9      2.883      5.556
  Name = 
  10 active torsions:
  status: ('A' for Active; 'I' for Inactive)
    1  A    between atoms: C_1  and  C_18
    2  A    between atoms: C_3  and  N_21
    3  A    between atoms: C_7  and  C_24
    4  A    between atoms: C_8  and  C_28
    5  A    between atoms: N_11  and  C_28
    6  A    between atoms: N_11  and  C_29
    7  A    between atoms: C_14  and  C_29
    8  A    between atoms: N_21  and  C_27
    9  A    between atoms: O_23  and  C_29
   10  A    between atoms: O_23  and  C_30
                            x       y       z     vdW  Elec       q    Type
                         _______ _______ _______ _____ _____    ______ ____

>  <TORSDO>
F 10

$$$$
=
 OpenBabel11042420083D

 30 35  0  0  1  0  0  0  0  0999 V2000
  161.6170  207.3140  152.9530 C   0  0  1  0  0  3  0  0  0  0  0  0
  160.1490  209.0930  155.6600 C   0  0  0  0  0  0  0  0  0  0  0  0
  160.4390  206.9730  155.1360 N   0  0  0  0  0  0  0  0  0  0  0  0
  160.9410  207.7990  154.1940 C   0  0  0  0  0  0  0  0  0  0  0  0
  160.7860  209.1050  154.4760 N   0  0  0  0  0  0  0  0  0  0  0  0
  159.9340  207.7940  156.0760 C   0  0  0  0  0  2  0  0  0  0  0  0
  158.9460  213.3620  154.8390 C   0  0  0  0  0  3  0  0  0  0  0  0
  158.6710  211.0720  155.7070 C   0  0  0  0  0  0  0  0  0  0  0  0
  157.5880  213.2700  154.4410 C   0  0  0  0  0  3  0  0  0  0  0  0
  160.9630  211.5860  156.2090 S   0  0  0  0  0  0  0  0  0  0  0  0
  156.8090  212.0940  154.6740 C   0  0  0  0  0  3  0  0  0  0  0  0
  159.4470  212.2380  155.4700 C   0  0  0  0  0  0  0  0  0  0  0  0
  159.7680  210.3450  156.3970 C   0  0  2  0  0  3  0  0  0  0  0  0
  157.3460  210.9570  155.3220 C   0  0  0  0  0  3  0  0  0  0  0  0
  161.8710  205.8830  153.0520 N   0  0  0  0  0  2  0  0  0  0  0  0
  160.8180  205.1900  152.3280 C   0  0  0  0  0  2  0  0  0  0  0  0
  161.4270  204.2780  151.2780 C   0  0  1  0  0  0  0  0  0  0  0  0
  161.5730  202.8500  151.7610 C   0  0  0  0  0  2  0  0  0  0  0  0
  160.3710  203.2410  150.9280 C   0  0  2  0  0  3  0  0  0  0  0  0
  160.6980  204.3550  149.9550 C   0  0  2  0  0  3  0  0  0  0  0  0
  161.5620  203.8560  148.9000 N   0  0  0  0  0  2  0  0  0  0  0  0
  161.9400  204.0000  146.5630 C   0  0  2  0  0  3  0  0  0  0  0  0
  161.2350  204.5940  147.6930 C   0  0  2  0  0  3  0  0  0  0  0  0
  161.9980  206.4850  146.5230 C   0  0  0  0  0  1  0  0  0  0  0  0
  162.4470  205.2610  147.1840 N   0  0  0  0  0  0  0  0  0  0  0  0
  160.5180  204.3010  144.3640 N   0  0  0  0  0  0  0  0  0  0  0  0
  161.1460  204.1700  145.3290 C   0  0  0  0  0  0  0  0  0  0  0  0
  160.8020  207.5710  151.8480 O   0  0  0  0  0  0  0  0  0  0  0  0
  162.2370  207.7550  149.9610 C   0  0  0  0  0  1  0  0  0  0  0  0
  161.5220  208.4850  151.0790 C   0  0  0  0  0  2  0  0  0  0  0  0
  1 28  1  6  0  0  0
  1 15  1  0  0  0  0
  1  4  1  0  0  0  0
  2  6  1  0  0  0  0
  3  6  1  0  0  0  0
  4  5  1  0  0  0  0
  4  3  2  0  0  0  0
  5  2  2  0  0  0  0
  7 12  1  0  0  0  0
  8 13  1  0  0  0  0
  9 11  1  0  0  0  0
  9  7  2  0  0  0  0
 10 13  1  0  0  0  0
 11 14  2  0  0  0  0
 12  8  2  0  0  0  0
 12 10  1  0  0  0  0
 13  2  1  6  0  0  0
 14  8  1  0  0  0  0
 16 15  1  0  0  0  0
 17 18  1  0  0  0  0
 17 16  1  1  0  0  0
 19 17  1  0  0  0  0
 19 18  1  6  0  0  0
 20 21  1  6  0  0  0
 20 19  1  0  0  0  0
 20 17  1  0  0  0  0
 22 27  1  6  0  0  0
 22 25  1  0  0  0  0
 22 23  1  0  0  0  0
 23 21  1  1  0  0  0
 24 25  1  0  0  0  0
 25 23  1  0  0  0  0
 26 27  3  0  0  0  0
 29 30  1  0  0  0  0
 30 28  1  0  0  0  0
M  END
>  <MODEL>
3

>  <REMARK>
 VINA RESULT:      -6.7      1.527      2.969
  Name = 
  10 active torsions:
  status: ('A' for Active; 'I' for Inactive)
    1  A    between atoms: C_1  and  C_18
    2  A    between atoms: C_3  and  N_21
    3  A    between atoms: C_7  and  C_24
    4  A    between atoms: C_8  and  C_28
    5  A    between atoms: N_11  and  C_28
    6  A    between atoms: N_11  and  C_29
    7  A    between atoms: C_14  and  C_29
    8  A    between atoms: N_21  and  C_27
    9  A    between atoms: O_23  and  C_29
   10  A    between atoms: O_23  and  C_30
                            x       y       z     vdW  Elec       q    Type
                         _______ _______ _______ _____ _____    ______ ____

>  <TORSDO>
F 10

$$$$
=
 OpenBabel11042420083D

 30 35  0  0  1  0  0  0  0  0999 V2000
  162.0950  207.9890  151.2920 C   0  0  1  0  0  3  0  0  0  0  0  0
  160.7060  210.4640  153.4340 C   0  0  0  0  0  0  0  0  0  0  0  0
  161.2090  208.3270  153.6090 N   0  0  0  0  0  0  0  0  0  0  0  0
  161.4970  208.8140  152.3850 C   0  0  0  0  0  0  0  0  0  0  0  0
  161.2060  210.1190  152.2360 N   0  0  0  0  0  0  0  0  0  0  0  0
  160.7060  209.3760  154.2860 C   0  0  0  0  0  2  0  0  0  0  0  0
  156.8940  212.8270  153.9180 C   0  0  0  0  0  3  0  0  0  0  0  0
  159.0400  211.8440  154.6270 C   0  0  0  0  0  0  0  0  0  0  0  0
  156.4090  212.4460  155.1940 C   0  0  0  0  0  3  0  0  0  0  0  0
  159.4910  212.6150  152.3980 S   0  0  0  0  0  0  0  0  0  0  0  0
  157.2340  211.7740  156.1490 C   0  0  0  0  0  3  0  0  0  0  0  0
  158.2180  212.5060  153.6770 C   0  0  0  0  0  0  0  0  0  0  0  0
  160.2470  211.8560  153.7600 C   0  0  2  0  0  3  0  0  0  0  0  0
  158.5860  211.4570  155.8770 C   0  0  0  0  0  3  0  0  0  0  0  0
  162.3400  206.6340  151.7690 N   0  0  0  0  0  2  0  0  0  0  0  0
  161.1700  205.8300  151.4570 C   0  0  0  0  0  2  0  0  0  0  0  0
  161.5920  204.5660  150.7300 C   0  0  1  0  0  0  0  0  0  0  0  0
  161.5160  203.3360  151.6100 C   0  0  0  0  0  2  0  0  0  0  0  0
  160.3700  203.6610  150.6750 C   0  0  2  0  0  3  0  0  0  0  0  0
  160.8460  204.3750  149.4270 C   0  0  2  0  0  3  0  0  0  0  0  0
  161.5860  203.4560  148.5800 N   0  0  0  0  0  2  0  0  0  0  0  0
  161.5120  202.3970  146.4600 C   0  0  2  0  0  3  0  0  0  0  0  0
  160.9430  203.4610  147.2790 C   0  0  2  0  0  3  0  0  0  0  0  0
  161.1980  204.5120  145.1910 C   0  0  0  0  0  1  0  0  0  0  0  0
  161.9320  203.8150  146.2450 N   0  0  0  0  0  0  0  0  0  0  0  0
  159.6950  201.4870  144.7820 N   0  0  0  0  0  0  0  0  0  0  0  0
  160.4930  201.8850  145.5220 C   0  0  0  0  0  0  0  0  0  0  0  0
  161.2200  207.9520  150.2040 O   0  0  0  0  0  0  0  0  0  0  0  0
  162.4420  207.4200  148.2350 C   0  0  0  0  0  1  0  0  0  0  0  0
  161.9360  208.5170  149.1490 C   0  0  0  0  0  2  0  0  0  0  0  0
  1 28  1  6  0  0  0
  1 15  1  0  0  0  0
  1  4  1  0  0  0  0
  2  6  1  0  0  0  0
  3  6  1  0  0  0  0
  4  3  2  0  0  0  0
  5  4  1  0  0  0  0
  5  2  2  0  0  0  0
  7  9  1  0  0  0  0
  8 14  2  0  0  0  0
  9 11  2  0  0  0  0
 10 12  1  0  0  0  0
 10 13  1  0  0  0  0
 12  7  2  0  0  0  0
 12  8  1  0  0  0  0
 13  2  1  6  0  0  0
 13  8  1  0  0  0  0
 14 11  1  0  0  0  0
 16 15  1  0  0  0  0
 17 16  1  1  0  0  0
 17 18  1  0  0  0  0
 19 17  1  0  0  0  0
 19 18  1  6  0  0  0
 20 21  1  6  0  0  0
 20 19  1  0  0  0  0
 20 17  1  0  0  0  0
 22 27  1  6  0  0  0
 22 23  1  0  0  0  0
 23 21  1  1  0  0  0
 24 25  1  0  0  0  0
 25 22  1  0  0  0  0
 25 23  1  0  0  0  0
 26 27  3  0  0  0  0
 29 30  1  0  0  0  0
 30 28  1  0  0  0  0
M  END
>  <MODEL>
4

>  <REMARK>
 VINA RESULT:      -6.7      1.445      2.767
  Name = 
  10 active torsions:
  status: ('A' for Active; 'I' for Inactive)
    1  A    between atoms: C_1  and  C_18
    2  A    between atoms: C_3  and  N_21
    3  A    between atoms: C_7  and  C_24
    4  A    between atoms: C_8  and  C_28
    5  A    between atoms: N_11  and  C_28
    6  A    between atoms: N_11  and  C_29
    7  A    between atoms: C_14  and  C_29
    8  A    between atoms: N_21  and  C_27
    9  A    between atoms: O_23  and  C_29
   10  A    between atoms: O_23  and  C_30
                            x       y       z     vdW  Elec       q    Type
                         _______ _______ _______ _____ _____    ______ ____

>  <TORSDO>
F 10

$$$$
=
 OpenBabel11042420083D

 30 35  0  0  1  0  0  0  0  0999 V2000
  160.9370  207.1860  153.4030 C   0  0  1  0  0  3  0  0  0  0  0  0
  160.6700  210.7000  152.9210 C   0  0  0  0  0  0  0  0  0  0  0  0
  161.8320  209.0650  152.0100 N   0  0  0  0  0  0  0  0  0  0  0  0
  161.0250  208.6210  152.9960 C   0  0  0  0  0  0  0  0  0  0  0  0
  160.2950  209.5900  153.5800 N   0  0  0  0  0  0  0  0  0  0  0  0
  161.6080  210.3910  151.9550 C   0  0  0  0  0  2  0  0  0  0  0  0
  156.8870  212.6060  154.4700 C   0  0  0  0  0  3  0  0  0  0  0  0
  159.2880  212.0500  154.4600 C   0  0  0  0  0  0  0  0  0  0  0  0
  156.9460  212.4050  155.8720 C   0  0  0  0  0  3  0  0  0  0  0  0
  158.8010  212.4530  152.1430 S   0  0  0  0  0  0  0  0  0  0  0  0
  158.1560  212.0290  156.5340 C   0  0  0  0  0  3  0  0  0  0  0  0
  158.0840  212.4170  153.8020 C   0  0  0  0  0  0  0  0  0  0  0  0
  160.1020  212.0580  153.2170 C   0  0  2  0  0  3  0  0  0  0  0  0
  159.3670  211.8430  155.8270 C   0  0  0  0  0  3  0  0  0  0  0  0
  161.8020  206.3750  152.5570 N   0  0  0  0  0  2  0  0  0  0  0  0
  161.4530  204.9800  152.7640 C   0  0  0  0  0  2  0  0  0  0  0  0
  161.6410  204.2040  151.4730 C   0  0  1  0  0  0  0  0  0  0  0  0
  161.4690  202.7110  151.6610 C   0  0  0  0  0  2  0  0  0  0  0  0
  160.3080  203.5430  151.1570 C   0  0  2  0  0  3  0  0  0  0  0  0
  160.7770  204.7360  150.3500 C   0  0  2  0  0  3  0  0  0  0  0  0
  161.3180  204.2920  149.0770 N   0  0  0  0  0  2  0  0  0  0  0  0
  160.8100  206.5920  148.8020 C   0  0  2  0  0  3  0  0  0  0  0  0
  161.6110  205.4830  148.2990 C   0  0  2  0  0  3  0  0  0  0  0  0
  160.8810  206.5170  146.3180 C   0  0  0  0  0  1  0  0  0  0  0  0
  160.4080  205.8850  147.5480 N   0  0  0  0  0  0  0  0  0  0  0  0
  162.1020  208.8650  148.4660 N   0  0  0  0  0  0  0  0  0  0  0  0
  161.5370  207.8640  148.6130 C   0  0  0  0  0  0  0  0  0  0  0  0
  161.3280  207.0550  154.7370 O   0  0  0  0  0  0  0  0  0  0  0  0
  160.3080  207.7280  156.7770 C   0  0  0  0  0  1  0  0  0  0  0  0
  160.1340  207.0050  155.4560 C   0  0  0  0  0  2  0  0  0  0  0  0
  1 15  1  6  0  0  0
  1 28  1  0  0  0  0
  2  5  2  0  0  0  0
  3  4  2  0  0  0  0
  4  1  1  0  0  0  0
  4  5  1  0  0  0  0
  6  3  1  0  0  0  0
  6  2  1  0  0  0  0
  7  9  1  0  0  0  0
  8 14  2  0  0  0  0
  9 11  2  0  0  0  0
 10 13  1  0  0  0  0
 10 12  1  0  0  0  0
 12  8  1  0  0  0  0
 12  7  2  0  0  0  0
 13  2  1  6  0  0  0
 13  8  1  0  0  0  0
 14 11  1  0  0  0  0
 15 16  1  0  0  0  0
 17 18  1  0  0  0  0
 17 16  1  1  0  0  0
 19 17  1  0  0  0  0
 19 18  1  6  0  0  0
 20 21  1  6  0  0  0
 20 19  1  0  0  0  0
 20 17  1  0  0  0  0
 22 27  1  6  0  0  0
 23 22  1  0  0  0  0
 23 21  1  1  0  0  0
 24 25  1  0  0  0  0
 25 23  1  0  0  0  0
 25 22  1  0  0  0  0
 26 27  3  0  0  0  0
 28 30  1  0  0  0  0
 30 29  1  0  0  0  0
M  END
>  <MODEL>
5

>  <REMARK>
 VINA RESULT:      -6.7      1.629      3.458
  Name = 
  10 active torsions:
  status: ('A' for Active; 'I' for Inactive)
    1  A    between atoms: C_1  and  C_18
    2  A    between atoms: C_3  and  N_21
    3  A    between atoms: C_7  and  C_24
    4  A    between atoms: C_8  and  C_28
    5  A    between atoms: N_11  and  C_28
    6  A    between atoms: N_11  and  C_29
    7  A    between atoms: C_14  and  C_29
    8  A    between atoms: N_21  and  C_27
    9  A    between atoms: O_23  and  C_29
   10  A    between atoms: O_23  and  C_30
                            x       y       z     vdW  Elec       q    Type
                         _______ _______ _______ _____ _____    ______ ____

>  <TORSDO>
F 10

$$$$
=
 OpenBabel11042420083D

 30 35  0  0  1  0  0  0  0  0999 V2000
  160.8950  206.6260  150.7420 C   0  0  1  0  0  3  0  0  0  0  0  0
  161.2220  209.9220  152.0360 C   0  0  0  0  0  0  0  0  0  0  0  0
  162.3340  208.6700  150.6040 N   0  0  0  0  0  0  0  0  0  0  0  0
  161.2670  208.0230  151.1180 C   0  0  0  0  0  0  0  0  0  0  0  0
  160.5580  208.7540  151.9980 N   0  0  0  0  0  0  0  0  0  0  0  0
  162.3090  209.8850  151.1850 C   0  0  0  0  0  2  0  0  0  0  0  0
  159.0190  210.7650  155.8800 C   0  0  0  0  0  3  0  0  0  0  0  0
  160.9370  210.7850  154.3330 C   0  0  0  0  0  0  0  0  0  0  0  0
  159.9650  210.4710  156.8940 C   0  0  0  0  0  3  0  0  0  0  0  0
  159.0630  211.2510  152.9030 S   0  0  0  0  0  0  0  0  0  0  0  0
  161.3600  210.3340  156.6130 C   0  0  0  0  0  3  0  0  0  0  0  0
  159.5500  210.9150  154.6120 C   0  0  0  0  0  0  0  0  0  0  0  0
  160.7880  211.0830  152.8840 C   0  0  2  0  0  3  0  0  0  0  0  0
  161.8770  210.4920  155.3060 C   0  0  0  0  0  3  0  0  0  0  0  0
  160.4810  206.5800  149.3460 N   0  0  0  0  0  2  0  0  0  0  0  0
  161.5920  206.0600  148.5660 C   0  0  0  0  0  2  0  0  0  0  0  0
  161.0700  205.3900  147.3070 C   0  0  1  0  0  0  0  0  0  0  0  0
  160.6710  206.3870  146.2400 C   0  0  0  0  0  2  0  0  0  0  0  0
  162.0380  205.7390  146.1870 C   0  0  2  0  0  3  0  0  0  0  0  0
  162.0240  204.3430  146.7740 C   0  0  2  0  0  3  0  0  0  0  0  0
  161.3030  203.4410  145.8920 N   0  0  0  0  0  2  0  0  0  0  0  0
  160.4000  201.2520  146.0190 C   0  0  2  0  0  3  0  0  0  0  0  0
  161.5380  202.0920  146.3750 C   0  0  2  0  0  3  0  0  0  0  0  0
  161.2020  200.8390  148.3360 C   0  0  0  0  0  1  0  0  0  0  0  0
  160.5450  201.7650  147.4150 N   0  0  0  0  0  0  0  0  0  0  0  0
  161.1990  198.7700  145.6320 N   0  0  0  0  0  0  0  0  0  0  0  0
  160.8500  199.8630  145.8000 C   0  0  0  0  0  0  0  0  0  0  0  0
  161.9920  205.7840  150.9340 O   0  0  0  0  0  0  0  0  0  0  0  0
  160.8720  203.9550  151.9610 C   0  0  0  0  0  1  0  0  0  0  0  0
  161.7580  205.1660  152.1630 C   0  0  0  0  0  2  0  0  0  0  0  0
  1 15  1  6  0  0  0
  1 28  1  0  0  0  0
  1  4  1  0  0  0  0
  3  4  2  0  0  0  0
  3  6  1  0  0  0  0
  4  5  1  0  0  0  0
  5  2  2  0  0  0  0
  6  2  1  0  0  0  0
  7  9  1  0  0  0  0
  8 12  1  0  0  0  0
  8 14  2  0  0  0  0
 10 12  1  0  0  0  0
 11  9  2  0  0  0  0
 12  7  2  0  0  0  0
 13  2  1  6  0  0  0
 13 10  1  0  0  0  0
 13  8  1  0  0  0  0
 14 11  1  0  0  0  0
 16 15  1  0  0  0  0
 17 16  1  1  0  0  0
 18 17  1  0  0  0  0
 19 18  1  6  0  0  0
 19 20  1  0  0  0  0
 19 17  1  0  0  0  0
 20 21  1  6  0  0  0
 20 17  1  0  0  0  0
 22 27  1  1  0  0  0
 22 23  1  0  0  0  0
 22 25  1  0  0  0  0
 23 21  1  6  0  0  0
 23 25  1  0  0  0  0
 25 24  1  0  0  0  0
 26 27  3  0  0  0  0
 28 30  1  0  0  0  0
 29 30  1  0  0  0  0
M  END
>  <MODEL>
6

>  <REMARK>
 VINA RESULT:      -6.6      1.828      3.067
  Name = 
  10 active torsions:
  status: ('A' for Active; 'I' for Inactive)
    1  A    between atoms: C_1  and  C_18
    2  A    between atoms: C_3  and  N_21
    3  A    between atoms: C_7  and  C_24
    4  A    between atoms: C_8  and  C_28
    5  A    between atoms: N_11  and  C_28
    6  A    between atoms: N_11  and  C_29
    7  A    between atoms: C_14  and  C_29
    8  A    between atoms: N_21  and  C_27
    9  A    between atoms: O_23  and  C_29
   10  A    between atoms: O_23  and  C_30
                            x       y       z     vdW  Elec       q    Type
                         _______ _______ _______ _____ _____    ______ ____

>  <TORSDO>
F 10

$$$$
=
 OpenBabel11042420083D

 30 35  0  0  1  0  0  0  0  0999 V2000
  160.9780  206.2990  151.6350 C   0  0  1  0  0  3  0  0  0  0  0  0
  161.4050  203.6350  149.3180 C   0  0  0  0  0  0  0  0  0  0  0  0
  160.4550  203.8740  151.2910 N   0  0  0  0  0  0  0  0  0  0  0  0
  161.0150  205.0230  150.8580 C   0  0  0  0  0  0  0  0  0  0  0  0
  161.6060  204.9210  149.6530 N   0  0  0  0  0  0  0  0  0  0  0  0
  160.6990  202.9840  150.3100 C   0  0  0  0  0  2  0  0  0  0  0  0
  160.6170  203.9220  144.8860 C   0  0  0  0  0  3  0  0  0  0  0  0
  161.9560  204.0690  146.9490 C   0  0  0  0  0  0  0  0  0  0  0  0
  161.2660  205.1190  144.4940 C   0  0  0  0  0  3  0  0  0  0  0  0
  160.6540  202.0760  147.2720 S   0  0  0  0  0  0  0  0  0  0  0  0
  162.2320  205.7650  145.3280 C   0  0  0  0  0  3  0  0  0  0  0  0
  160.9930  203.4300  146.1230 C   0  0  0  0  0  0  0  0  0  0  0  0
  161.8810  203.0430  148.0220 C   0  0  2  0  0  3  0  0  0  0  0  0
  162.5990  205.2410  146.5890 C   0  0  0  0  0  3  0  0  0  0  0  0
  160.9350  206.0110  153.0620 N   0  0  0  0  0  2  0  0  0  0  0  0
  161.5140  207.1430  153.7660 C   0  0  0  0  0  2  0  0  0  0  0  0
  160.4970  207.7240  154.7320 C   0  0  1  0  0  0  0  0  0  0  0  0
  160.4480  206.9750  156.0470 C   0  0  0  0  0  2  0  0  0  0  0  0
  161.2740  208.2390  155.9340 C   0  0  2  0  0  3  0  0  0  0  0  0
  160.6820  209.2130  154.9370 C   0  0  2  0  0  3  0  0  0  0  0  0
  159.4550  209.7810  155.4660 N   0  0  0  0  0  2  0  0  0  0  0  0
  160.4150  211.3910  154.0140 C   0  0  2  0  0  3  0  0  0  0  0  0
  159.2100  211.0170  154.7430 C   0  0  2  0  0  3  0  0  0  0  0  0
  159.3320  213.3330  155.1240 C   0  0  0  0  0  1  0  0  0  0  0  0
  160.0680  212.0820  155.2920 N   0  0  0  0  0  0  0  0  0  0  0  0
  159.7710  212.6840  151.8090 N   0  0  0  0  0  0  0  0  0  0  0  0
  160.0520  212.1140  152.7780 C   0  0  0  0  0  0  0  0  0  0  0  0
  162.1150  207.0550  151.3430 O   0  0  0  0  0  0  0  0  0  0  0  0
  162.0080  209.4120  151.0500 C   0  0  0  0  0  1  0  0  0  0  0  0
  161.6690  208.0520  150.4760 C   0  0  0  0  0  2  0  0  0  0  0  0
  1 28  1  1  0  0  0
  1 15  1  0  0  0  0
  2  5  2  0  0  0  0
  2  6  1  0  0  0  0
  4  3  2  0  0  0  0
  4  1  1  0  0  0  0
  5  4  1  0  0  0  0
  6  3  1  0  0  0  0
  7 12  1  0  0  0  0
  8 13  1  0  0  0  0
  9  7  2  0  0  0  0
  9 11  1  0  0  0  0
 10 13  1  0  0  0  0
 11 14  2  0  0  0  0
 12  8  2  0  0  0  0
 12 10  1  0  0  0  0
 13  2  1  1  0  0  0
 14  8  1  0  0  0  0
 15 16  1  0  0  0  0
 17 16  1  6  0  0  0
 17 20  1  0  0  0  0
 17 19  1  0  0  0  0
 17 18  1  0  0  0  0
 19 18  1  1  0  0  0
 20 21  1  1  0  0  0
 20 19  1  0  0  0  0
 22 27  1  6  0  0  0
 22 23  1  0  0  0  0
 22 25  1  0  0  0  0
 23 25  1  0  0  0  0
 23 21  1  1  0  0  0
 24 25  1  0  0  0  0
 26 27  3  0  0  0  0
 30 29  1  0  0  0  0
 30 28  1  0  0  0  0
M  END
>  <MODEL>
7

>  <REMARK>
 VINA RESULT:      -6.5      2.786      8.892
  Name = 
  10 active torsions:
  status: ('A' for Active; 'I' for Inactive)
    1  A    between atoms: C_1  and  C_18
    2  A    between atoms: C_3  and  N_21
    3  A    between atoms: C_7  and  C_24
    4  A    between atoms: C_8  and  C_28
    5  A    between atoms: N_11  and  C_28
    6  A    between atoms: N_11  and  C_29
    7  A    between atoms: C_14  and  C_29
    8  A    between atoms: N_21  and  C_27
    9  A    between atoms: O_23  and  C_29
   10  A    between atoms: O_23  and  C_30
                            x       y       z     vdW  Elec       q    Type
                         _______ _______ _______ _____ _____    ______ ____

>  <TORSDO>
F 10

$$$$
=
 OpenBabel11042420083D

 30 35  0  0  1  0  0  0  0  0999 V2000
  161.4880  208.6660  152.7890 C   0  0  1  0  0  3  0  0  0  0  0  0
  161.0690  207.3100  149.5280 C   0  0  0  0  0  0  0  0  0  0  0  0
  162.3310  208.8680  150.4400 N   0  0  0  0  0  0  0  0  0  0  0  0
  161.5140  208.2880  151.3430 C   0  0  0  0  0  0  0  0  0  0  0  0
  160.7260  207.3280  150.8270 N   0  0  0  0  0  0  0  0  0  0  0  0
  162.0540  208.2460  149.2790 C   0  0  0  0  0  2  0  0  0  0  0  0
  161.9080  203.3490  147.5390 C   0  0  0  0  0  3  0  0  0  0  0  0
  160.6520  204.9490  148.9300 C   0  0  0  0  0  0  0  0  0  0  0  0
  161.5930  202.3880  148.5320 C   0  0  0  0  0  3  0  0  0  0  0  0
  161.3890  206.2850  147.0740 S   0  0  0  0  0  0  0  0  0  0  0  0
  160.8300  202.7220  149.6940 C   0  0  0  0  0  3  0  0  0  0  0  0
  161.4160  204.6200  147.7790 C   0  0  0  0  0  0  0  0  0  0  0  0
  160.4560  206.3680  148.5320 C   0  0  2  0  0  3  0  0  0  0  0  0
  160.3370  204.0290  149.9150 C   0  0  0  0  0  3  0  0  0  0  0  0
  161.2220  210.0910  152.9260 N   0  0  0  0  0  2  0  0  0  0  0  0
  161.7190  210.5170  154.2240 C   0  0  0  0  0  2  0  0  0  0  0  0
  160.5550  210.7660  155.1660 C   0  0  1  0  0  0  0  0  0  0  0  0
  160.8400  210.3010  156.5780 C   0  0  0  0  0  2  0  0  0  0  0  0
  161.0390  211.7570  156.2130 C   0  0  2  0  0  3  0  0  0  0  0  0
  160.0800  212.2020  155.1280 C   0  0  2  0  0  3  0  0  0  0  0  0
  158.7290  212.2760  155.6570 N   0  0  0  0  0  2  0  0  0  0  0  0
  156.8160  212.4120  154.2640 C   0  0  2  0  0  3  0  0  0  0  0  0
  157.9700  213.1430  154.7740 C   0  0  2  0  0  3  0  0  0  0  0  0
  157.9450  213.7590  152.5060 C   0  0  0  0  0  1  0  0  0  0  0  0
  158.0200  212.6070  153.4020 N   0  0  0  0  0  0  0  0  0  0  0  0
  154.8230  214.0800  153.8220 N   0  0  0  0  0  0  0  0  0  0  0  0
  155.6980  213.3460  154.0190 C   0  0  0  0  0  0  0  0  0  0  0  0
  160.4910  207.9380  153.4420 O   0  0  0  0  0  0  0  0  0  0  0  0
  160.4340  206.9540  155.6060 C   0  0  0  0  0  1  0  0  0  0  0  0
  161.1790  207.0720  154.2920 C   0  0  0  0  0  2  0  0  0  0  0  0
  1 15  1  6  0  0  0
  1 28  1  0  0  0  0
  2  5  2  0  0  0  0
  3  4  2  0  0  0  0
  4  1  1  0  0  0  0
  5  4  1  0  0  0  0
  6  2  1  0  0  0  0
  6  3  1  0  0  0  0
  7 12  2  0  0  0  0
  7  9  1  0  0  0  0
  8 14  2  0  0  0  0
  9 11  2  0  0  0  0
 10 12  1  0  0  0  0
 10 13  1  0  0  0  0
 11 14  1  0  0  0  0
 12  8  1  0  0  0  0
 13  8  1  0  0  0  0
 13  2  1  1  0  0  0
 15 16  1  0  0  0  0
 17 16  1  6  0  0  0
 17 19  1  0  0  0  0
 17 18  1  0  0  0  0
 19 18  1  1  0  0  0
 20 17  1  0  0  0  0
 20 21  1  1  0  0  0
 20 19  1  0  0  0  0
 22 27  1  6  0  0  0
 22 23  1  0  0  0  0
 23 21  1  1  0  0  0
 24 25  1  0  0  0  0
 25 22  1  0  0  0  0
 25 23  1  0  0  0  0
 26 27  3  0  0  0  0
 28 30  1  0  0  0  0
 30 29  1  0  0  0  0
M  END
>  <MODEL>
8

>  <REMARK>
 VINA RESULT:      -6.3      2.848      8.739
  Name = 
  10 active torsions:
  status: ('A' for Active; 'I' for Inactive)
    1  A    between atoms: C_1  and  C_18
    2  A    between atoms: C_3  and  N_21
    3  A    between atoms: C_7  and  C_24
    4  A    between atoms: C_8  and  C_28
    5  A    between atoms: N_11  and  C_28
    6  A    between atoms: N_11  and  C_29
    7  A    between atoms: C_14  and  C_29
    8  A    between atoms: N_21  and  C_27
    9  A    between atoms: O_23  and  C_29
   10  A    between atoms: O_23  and  C_30
                            x       y       z     vdW  Elec       q    Type
                         _______ _______ _______ _____ _____    ______ ____

>  <TORSDO>
F 10

$$$$
=
 OpenBabel11042420083D

 30 35  0  0  1  0  0  0  0  0999 V2000
  161.0960  208.7620  153.2040 C   0  0  1  0  0  3  0  0  0  0  0  0
  161.1480  207.2240  149.9980 C   0  0  0  0  0  0  0  0  0  0  0  0
  162.6030  208.2920  151.2610 N   0  0  0  0  0  0  0  0  0  0  0  0
  161.3930  208.2030  151.8510 C   0  0  0  0  0  0  0  0  0  0  0  0
  160.4730  207.5560  151.1120 N   0  0  0  0  0  0  0  0  0  0  0  0
  162.4540  207.6660  150.0790 C   0  0  0  0  0  2  0  0  0  0  0  0
  161.9330  203.5940  147.4380 C   0  0  0  0  0  3  0  0  0  0  0  0
  160.6910  204.9920  149.0430 C   0  0  0  0  0  0  0  0  0  0  0  0
  161.5850  202.5010  148.2700 C   0  0  0  0  0  3  0  0  0  0  0  0
  161.4800  206.5770  147.4200 S   0  0  0  0  0  0  0  0  0  0  0  0
  160.8120  202.6710  149.4610 C   0  0  0  0  0  3  0  0  0  0  0  0
  161.4630  204.8250  147.8640 C   0  0  0  0  0  0  0  0  0  0  0  0
  160.5300  206.4590  148.8640 C   0  0  2  0  0  3  0  0  0  0  0  0
  160.3440  203.9400  149.8740 C   0  0  0  0  0  3  0  0  0  0  0  0
  160.1220  209.8400  153.0950 N   0  0  0  0  0  2  0  0  0  0  0  0
  160.7860  210.9840  152.4930 C   0  0  0  0  0  2  0  0  0  0  0  0
  159.8040  211.7550  151.6280 C   0  0  1  0  0  0  0  0  0  0  0  0
  158.5600  212.1670  152.3870 C   0  0  0  0  0  2  0  0  0  0  0  0
  159.6970  213.1520  152.2200 C   0  0  2  0  0  3  0  0  0  0  0  0
  160.4520  212.9280  150.9260 C   0  0  2  0  0  3  0  0  0  0  0  0
  159.6300  213.3250  149.7960 N   0  0  0  0  0  2  0  0  0  0  0  0
  160.3440  212.5800  147.6610 C   0  0  2  0  0  3  0  0  0  0  0  0
  160.5290  213.5980  148.6890 C   0  0  2  0  0  3  0  0  0  0  0  0
  162.7400  213.1140  148.0540 C   0  0  0  0  0  1  0  0  0  0  0  0
  161.5180  212.5110  148.5820 N   0  0  0  0  0  0  0  0  0  0  0  0
  160.8270  213.6060  145.2820 N   0  0  0  0  0  0  0  0  0  0  0  0
  160.6120  213.1570  146.3280 C   0  0  0  0  0  0  0  0  0  0  0  0
  160.5880  207.7520  154.0240 O   0  0  0  0  0  0  0  0  0  0  0  0
  160.4830  207.6650  156.3980 C   0  0  0  0  0  1  0  0  0  0  0  0
  161.3700  207.8000  155.1780 C   0  0  0  0  0  2  0  0  0  0  0  0
  1 15  1  6  0  0  0
  1 28  1  0  0  0  0
  2  6  1  0  0  0  0
  2  5  2  0  0  0  0
  3  4  2  0  0  0  0
  4  1  1  0  0  0  0
  5  4  1  0  0  0  0
  6  3  1  0  0  0  0
  7 12  2  0  0  0  0
  7  9  1  0  0  0  0
  8 14  2  0  0  0  0
  9 11  2  0  0  0  0
 10 12  1  0  0  0  0
 10 13  1  0  0  0  0
 11 14  1  0  0  0  0
 12  8  1  0  0  0  0
 13  8  1  0  0  0  0
 13  2  1  1  0  0  0
 16 15  1  0  0  0  0
 17 19  1  0  0  0  0
 17 18  1  0  0  0  0
 17 16  1  1  0  0  0
 19 18  1  6  0  0  0
 20 21  1  6  0  0  0
 20 17  1  0  0  0  0
 20 19  1  0  0  0  0
 22 27  1  6  0  0  0
 22 25  1  0  0  0  0
 22 23  1  0  0  0  0
 23 21  1  1  0  0  0
 24 25  1  0  0  0  0
 25 23  1  0  0  0  0
 26 27  3  0  0  0  0
 28 30  1  0  0  0  0
 30 29  1  0  0  0  0
M  END
>  <MODEL>
9

>  <REMARK>
 VINA RESULT:      -6.0      3.283      7.599
  Name = 
  10 active torsions:
  status: ('A' for Active; 'I' for Inactive)
    1  A    between atoms: C_1  and  C_18
    2  A    between atoms: C_3  and  N_21
    3  A    between atoms: C_7  and  C_24
    4  A    between atoms: C_8  and  C_28
    5  A    between atoms: N_11  and  C_28
    6  A    between atoms: N_11  and  C_29
    7  A    between atoms: C_14  and  C_29
    8  A    between atoms: N_21  and  C_27
    9  A    between atoms: O_23  and  C_29
   10  A    between atoms: O_23  and  C_30
                            x       y       z     vdW  Elec       q    Type
                         _______ _______ _______ _____ _____    ______ ____

>  <TORSDO>
F 10

$$$$
