=
 OpenBabel11052410263D

 36 38  0  0  1  0  0  0  0  0999 V2000
  161.2440  207.0100  151.6120 C   0  0  0  0  0  0  0  0  0  0  0  0
  161.5800  209.2930  150.8530 C   0  0  0  0  0  0  0  0  0  0  0  0
  161.1580  208.7900  153.2020 C   0  0  0  0  0  0  0  0  0  0  0  0
  161.0840  207.4700  152.8800 N   0  0  0  0  0  0  0  0  0  0  0  0
  161.4830  211.0550  152.4930 F   0  0  0  0  0  0  0  0  0  0  0  0
  161.4930  207.9220  150.5830 C   0  0  0  0  0  3  0  0  0  0  0  0
  161.4110  209.7340  152.1860 C   0  0  0  0  0  0  0  0  0  0  0  0
  160.9880  202.8120  150.7990 C   0  0  0  0  0  3  0  0  0  0  0  0
  161.1680  205.0930  150.0220 C   0  0  0  0  0  3  0  0  0  0  0  0
  161.0590  204.6320  152.3920 C   0  0  0  0  0  3  0  0  0  0  0  0
  160.9760  203.2640  152.1210 C   0  0  0  0  0  3  0  0  0  0  0  0
  161.0840  203.7230  149.7360 C   0  0  0  0  0  0  0  0  0  0  0  0
  161.1580  205.5600  151.3440 C   0  0  0  0  0  0  0  0  0  0  0  0
  161.4860  204.1190  147.2940 C   0  0  0  0  0  3  0  0  0  0  0  0
  160.7190  201.9820  148.0330 N   0  0  0  0  0  0  0  0  0  0  0  0
  160.7140  201.5120  146.7570 C   0  0  0  0  0  3  0  0  0  0  0  0
  161.4860  203.6550  145.9780 C   0  0  0  0  0  3  0  0  0  0  0  0
  161.0980  202.3440  145.7030 C   0  0  0  0  0  3  0  0  0  0  0  0
  161.0930  203.2600  148.3310 C   0  0  0  0  0  0  0  0  0  0  0  0
  161.8480  210.2080  149.7120 C   0  0  0  0  0  0  0  0  0  0  0  0
  161.5760  211.5120  149.7800 C   0  0  0  0  0  3  0  0  0  0  0  0
  162.3990  209.6840  148.5450 O   0  0  0  0  0  1  0  0  0  0  0  0
  160.7560  212.2940  147.1140 C   0  0  0  0  0  1  0  0  0  0  0  0
  161.8810  212.6220  148.4520 S   0  0  0  0  0  0  0  0  0  0  0  0
  161.7180  214.0390  148.9240 O   0  0  0  0  0  0  0  0  0  0  0  0
  163.2880  212.4240  147.9650 O   0  0  0  0  0  0  0  0  0  0  0  0
  160.1650  208.5670  155.3620 O   0  0  0  0  0  0  0  0  0  0  0  0
  160.9710  209.1830  154.6170 C   0  0  0  0  0  0  0  0  0  0  0  0
  161.7270  210.3440  155.1770 C   0  0  0  0  0  2  0  0  0  0  0  0
  161.5670  211.7570  157.1080 O   0  0  0  0  0  1  0  0  0  0  0  0
  160.8270  211.1830  156.0710 C   0  0  1  0  0  3  0  0  0  0  0  0
  160.0800  212.2580  155.2810 C   0  0  0  0  0  2  0  0  0  0  0  0
  158.5750  212.0110  155.2020 C   0  0  0  0  0  2  0  0  0  0  0  0
  158.1560  211.5390  153.8160 C   0  0  0  0  0  2  0  0  0  0  0  0
  157.6250  213.3940  152.4070 O   0  0  0  0  0  1  0  0  0  0  0  0
  158.6400  212.4950  152.7390 C   0  0  0  0  0  2  0  0  0  0  0  0
  1  4  1  0  0  0  0
  2  7  2  0  0  0  0
  3 28  1  0  0  0  0
  4  3  2  0  0  0  0
  6  2  1  0  0  0  0
  6  1  2  0  0  0  0
  7  5  1  0  0  0  0
  7  3  1  0  0  0  0
  8 11  1  0  0  0  0
  9 13  2  0  0  0  0
 11 10  2  0  0  0  0
 12  9  1  0  0  0  0
 12  8  2  0  0  0  0
 13  1  1  0  0  0  0
 13 10  1  0  0  0  0
 14 19  1  0  0  0  0
 15 19  2  0  0  0  0
 16 15  1  0  0  0  0
 17 14  2  0  0  0  0
 18 17  1  0  0  0  0
 18 16  2  0  0  0  0
 19 12  1  0  0  0  0
 20 21  2  0  0  0  0
 20  2  1  0  0  0  0
 22 20  1  0  0  0  0
 23 24  1  0  0  0  0
 24 25  2  0  0  0  0
 24 21  1  0  0  0  0
 26 24  2  0  0  0  0
 28 29  1  0  0  0  0
 28 27  2  0  0  0  0
 29 31  1  0  0  0  0
 31 30  1  1  0  0  0
 32 31  1  0  0  0  0
 33 32  1  0  0  0  0
 34 33  1  0  0  0  0
 35 36  1  0  0  0  0
 36 34  1  0  0  0  0
M  END
>  <MODEL>
1

>  <REMARK>
 VINA RESULT:      -8.4      0.000      0.000
  Name = 
  11 active torsions:
  status: ('A' for Active; 'I' for Inactive)
    1  A    between atoms: C_2  and  C_12
    2  A    between atoms: C_5  and  C_7
    3  A    between atoms: C_5  and  C_11
    4  A    between atoms: C_7  and  C_14
    5  A    between atoms: C_10  and  C_36
    6  A    between atoms: C_11  and  C_22
    7  A    between atoms: C_13  and  C_19
    8  A    between atoms: C_13  and  C_22
    9  A    between atoms: C_17  and  C_19
   10  A    between atoms: S_20  and  C_28
   11  A    between atoms: C_30  and  C_34
                            x       y       z     vdW  Elec       q    Type
                         _______ _______ _______ _____ _____    ______ ____

>  <TORSDO>
F 11

$$$$
=
 OpenBabel11052410263D

 36 38  0  0  1  0  0  0  0  0999 V2000
  161.3410  206.7820  151.5080 C   0  0  0  0  0  0  0  0  0  0  0  0
  161.3140  208.6730  153.0320 C   0  0  0  0  0  0  0  0  0  0  0  0
  161.7460  208.9740  150.6510 C   0  0  0  0  0  0  0  0  0  0  0  0
  161.6140  207.6300  150.4820 N   0  0  0  0  0  0  0  0  0  0  0  0
  161.7310  210.8640  152.1220 F   0  0  0  0  0  0  0  0  0  0  0  0
  161.1890  207.2990  152.7970 C   0  0  0  0  0  3  0  0  0  0  0  0
  161.5960  209.5250  151.9400 C   0  0  0  0  0  0  0  0  0  0  0  0
  160.9350  202.5940  150.7030 C   0  0  0  0  0  3  0  0  0  0  0  0
  161.1880  204.8660  149.9210 C   0  0  0  0  0  3  0  0  0  0  0  0
  161.0800  204.4120  152.2930 C   0  0  0  0  0  3  0  0  0  0  0  0
  160.9480  203.0480  152.0240 C   0  0  0  0  0  3  0  0  0  0  0  0
  161.0550  203.5000  149.6380 C   0  0  0  0  0  0  0  0  0  0  0  0
  161.2030  205.3350  151.2430 C   0  0  0  0  0  0  0  0  0  0  0  0
  161.4230  203.8900  147.1890 C   0  0  0  0  0  3  0  0  0  0  0  0
  160.6480  201.7610  147.9430 N   0  0  0  0  0  0  0  0  0  0  0  0
  160.6190  201.2900  146.6680 C   0  0  0  0  0  3  0  0  0  0  0  0
  161.3980  203.4240  145.8740 C   0  0  0  0  0  3  0  0  0  0  0  0
  160.9940  202.1160  145.6070 C   0  0  0  0  0  3  0  0  0  0  0  0
  161.0380  203.0350  148.2340 C   0  0  0  0  0  0  0  0  0  0  0  0
  161.1400  209.1550  154.4270 C   0  0  0  0  0  0  0  0  0  0  0  0
  160.7110  210.3900  154.6950 C   0  0  0  0  0  3  0  0  0  0  0  0
  161.4330  208.2910  155.4800 O   0  0  0  0  0  1  0  0  0  0  0  0
  159.8760  212.6610  156.2880 C   0  0  0  0  0  1  0  0  0  0  0  0
  160.4930  210.9930  156.3300 S   0  0  0  0  0  0  0  0  0  0  0  0
  159.5320  210.1100  157.0750 O   0  0  0  0  0  0  0  0  0  0  0  0
  161.8200  210.9820  157.0340 O   0  0  0  0  0  0  0  0  0  0  0  0
  162.3380  209.2840  148.3570 O   0  0  0  0  0  0  0  0  0  0  0  0
  162.0430  209.8080  149.4640 C   0  0  0  0  0  0  0  0  0  0  0  0
  162.0180  211.2980  149.5720 C   0  0  0  0  0  2  0  0  0  0  0  0
  160.5920  212.8380  148.4120 O   0  0  0  0  0  1  0  0  0  0  0  0
  161.6330  211.9220  148.2400 C   0  0  1  0  0  3  0  0  0  0  0  0
  162.8270  212.5830  147.5520 C   0  0  0  0  0  2  0  0  0  0  0  0
  162.4440  213.8080  146.7230 C   0  0  0  0  0  2  0  0  0  0  0  0
  161.9210  213.4130  145.3490 C   0  0  0  0  0  2  0  0  0  0  0  0
  162.6270  212.5400  143.2390 O   0  0  0  0  0  1  0  0  0  0  0  0
  163.0560  213.2710  144.3480 C   0  0  0  0  0  2  0  0  0  0  0  0
  1  6  1  0  0  0  0
  2 20  1  0  0  0  0
  3  7  2  0  0  0  0
  4  3  1  0  0  0  0
  4  1  2  0  0  0  0
  6  2  2  0  0  0  0
  7  5  1  0  0  0  0
  7  2  1  0  0  0  0
  8 11  1  0  0  0  0
  9 13  2  0  0  0  0
 11 10  2  0  0  0  0
 12  9  1  0  0  0  0
 12  8  2  0  0  0  0
 13  1  1  0  0  0  0
 13 10  1  0  0  0  0
 14 19  1  0  0  0  0
 15 19  2  0  0  0  0
 16 15  1  0  0  0  0
 17 14  2  0  0  0  0
 18 17  1  0  0  0  0
 18 16  2  0  0  0  0
 19 12  1  0  0  0  0
 20 21  2  0  0  0  0
 20 22  1  0  0  0  0
 21 24  1  0  0  0  0
 23 24  1  0  0  0  0
 24 26  2  0  0  0  0
 24 25  2  0  0  0  0
 27 28  2  0  0  0  0
 28 29  1  0  0  0  0
 28  3  1  0  0  0  0
 31 30  1  1  0  0  0
 31 29  1  0  0  0  0
 32 31  1  0  0  0  0
 33 32  1  0  0  0  0
 34 33  1  0  0  0  0
 35 36  1  0  0  0  0
 36 34  1  0  0  0  0
M  END
>  <MODEL>
2

>  <REMARK>
 VINA RESULT:      -8.3      2.013      5.659
  Name = 
  11 active torsions:
  status: ('A' for Active; 'I' for Inactive)
    1  A    between atoms: C_2  and  C_12
    2  A    between atoms: C_5  and  C_7
    3  A    between atoms: C_5  and  C_11
    4  A    between atoms: C_7  and  C_14
    5  A    between atoms: C_10  and  C_36
    6  A    between atoms: C_11  and  C_22
    7  A    between atoms: C_13  and  C_19
    8  A    between atoms: C_13  and  C_22
    9  A    between atoms: C_17  and  C_19
   10  A    between atoms: S_20  and  C_28
   11  A    between atoms: C_30  and  C_34
                            x       y       z     vdW  Elec       q    Type
                         _______ _______ _______ _____ _____    ______ ____

>  <TORSDO>
F 11

$$$$
=
 OpenBabel11052410263D

 36 38  0  0  1  0  0  0  0  0999 V2000
  161.7310  208.2600  149.2390 C   0  0  0  0  0  0  0  0  0  0  0  0
  161.5880  209.3650  151.3970 C   0  0  0  0  0  0  0  0  0  0  0  0
  161.9030  210.6400  149.3410 C   0  0  0  0  0  0  0  0  0  0  0  0
  161.8880  209.4710  148.6440 N   0  0  0  0  0  0  0  0  0  0  0  0
  161.7690  211.7670  151.4510 F   0  0  0  0  0  0  0  0  0  0  0  0
  161.5800  208.1970  150.6270 C   0  0  0  0  0  3  0  0  0  0  0  0
  161.7510  210.6080  150.7430 C   0  0  0  0  0  0  0  0  0  0  0  0
  161.6880  204.6900  146.8710 C   0  0  0  0  0  3  0  0  0  0  0  0
  161.4710  205.7920  149.0100 C   0  0  0  0  0  3  0  0  0  0  0  0
  161.9490  207.0910  147.0280 C   0  0  0  0  0  3  0  0  0  0  0  0
  161.9340  205.9230  146.2620 C   0  0  0  0  0  3  0  0  0  0  0  0
  161.4540  204.6130  148.2520 C   0  0  0  0  0  0  0  0  0  0  0  0
  161.7160  207.0360  148.4110 C   0  0  0  0  0  0  0  0  0  0  0  0
  160.9480  203.2460  150.2910 C   0  0  0  0  0  3  0  0  0  0  0  0
  161.1990  202.1650  148.1770 N   0  0  0  0  0  0  0  0  0  0  0  0
  160.9660  200.9490  148.7410 C   0  0  0  0  0  3  0  0  0  0  0  0
  160.7070  202.0070  150.8870 C   0  0  0  0  0  3  0  0  0  0  0  0
  160.7160  200.8480  150.1100 C   0  0  0  0  0  3  0  0  0  0  0  0
  161.1980  203.3140  148.9120 C   0  0  0  0  0  0  0  0  0  0  0  0
  161.4220  209.2260  152.8680 C   0  0  0  0  0  0  0  0  0  0  0  0
  160.7360  208.2150  153.4050 C   0  0  0  0  0  3  0  0  0  0  0  0
  162.0010  210.1780  153.7030 O   0  0  0  0  0  1  0  0  0  0  0  0
  159.6270  209.4070  155.8000 C   0  0  0  0  0  1  0  0  0  0  0  0
  160.5210  208.0200  155.1370 S   0  0  0  0  0  0  0  0  0  0  0  0
  159.7740  206.7470  155.4180 O   0  0  0  0  0  0  0  0  0  0  0  0
  161.8720  207.9520  155.7910 O   0  0  0  0  0  0  0  0  0  0  0  0
  163.1580  212.1680  148.0020 O   0  0  0  0  0  0  0  0  0  0  0  0
  162.0780  211.9050  148.5940 C   0  0  0  0  0  0  0  0  0  0  0  0
  160.9700  212.9080  148.5510 C   0  0  0  0  0  2  0  0  0  0  0  0
  159.0390  212.7230  147.1420 O   0  0  0  0  0  1  0  0  0  0  0  0
  160.4040  213.0160  147.1430 C   0  0  1  0  0  3  0  0  0  0  0  0
  160.6630  214.3910  146.5280 C   0  0  0  0  0  2  0  0  0  0  0  0
  161.7580  214.3780  145.4630 C   0  0  0  0  0  2  0  0  0  0  0  0
  161.7790  213.0620  144.6970 C   0  0  0  0  0  2  0  0  0  0  0  0
  162.4200  212.2170  142.5560 O   0  0  0  0  0  1  0  0  0  0  0  0
  162.8000  213.0960  143.5710 C   0  0  0  0  0  2  0  0  0  0  0  0
  1  6  1  0  0  0  0
  2 20  1  0  0  0  0
  3  7  2  0  0  0  0
  4  1  2  0  0  0  0
  4  3  1  0  0  0  0
  6  2  2  0  0  0  0
  7  2  1  0  0  0  0
  7  5  1  0  0  0  0
  8 12  1  0  0  0  0
 10 13  2  0  0  0  0
 11  8  2  0  0  0  0
 11 10  1  0  0  0  0
 12 19  1  0  0  0  0
 12  9  2  0  0  0  0
 13  9  1  0  0  0  0
 13  1  1  0  0  0  0
 14 17  1  0  0  0  0
 15 16  2  0  0  0  0
 15 19  1  0  0  0  0
 16 18  1  0  0  0  0
 18 17  2  0  0  0  0
 19 14  2  0  0  0  0
 20 21  2  0  0  0  0
 20 22  1  0  0  0  0
 21 24  1  0  0  0  0
 24 25  2  0  0  0  0
 24 26  2  0  0  0  0
 24 23  1  0  0  0  0
 27 28  2  0  0  0  0
 28  3  1  0  0  0  0
 29 28  1  0  0  0  0
 31 30  1  1  0  0  0
 31 29  1  0  0  0  0
 32 31  1  0  0  0  0
 33 32  1  0  0  0  0
 34 33  1  0  0  0  0
 35 36  1  0  0  0  0
 36 34  1  0  0  0  0
M  END
>  <MODEL>
3

>  <REMARK>
 VINA RESULT:      -7.6      2.632      6.466
  Name = 
  11 active torsions:
  status: ('A' for Active; 'I' for Inactive)
    1  A    between atoms: C_2  and  C_12
    2  A    between atoms: C_5  and  C_7
    3  A    between atoms: C_5  and  C_11
    4  A    between atoms: C_7  and  C_14
    5  A    between atoms: C_10  and  C_36
    6  A    between atoms: C_11  and  C_22
    7  A    between atoms: C_13  and  C_19
    8  A    between atoms: C_13  and  C_22
    9  A    between atoms: C_17  and  C_19
   10  A    between atoms: S_20  and  C_28
   11  A    between atoms: C_30  and  C_34
                            x       y       z     vdW  Elec       q    Type
                         _______ _______ _______ _____ _____    ______ ____

>  <TORSDO>
F 11

$$$$
=
 OpenBabel11052410263D

 36 38  0  0  1  0  0  0  0  0999 V2000
  161.2620  207.2500  151.2970 C   0  0  0  0  0  0  0  0  0  0  0  0
  161.0710  209.2590  152.6480 C   0  0  0  0  0  0  0  0  0  0  0  0
  161.6660  209.3750  150.2850 C   0  0  0  0  0  0  0  0  0  0  0  0
  161.5850  208.0190  150.2240 N   0  0  0  0  0  0  0  0  0  0  0  0
  161.4900  211.3800  151.5850 F   0  0  0  0  0  0  0  0  0  0  0  0
  161.0020  207.8670  152.5230 C   0  0  0  0  0  3  0  0  0  0  0  0
  161.4070  210.0270  151.5090 C   0  0  0  0  0  0  0  0  0  0  0  0
  161.0310  202.9980  150.8270 C   0  0  0  0  0  3  0  0  0  0  0  0
  161.1730  205.2110  149.8670 C   0  0  0  0  0  3  0  0  0  0  0  0
  161.1170  204.9400  152.2680 C   0  0  0  0  0  3  0  0  0  0  0  0
  161.0420  203.5540  152.1080 C   0  0  0  0  0  3  0  0  0  0  0  0
  161.0970  203.8220  149.6930 C   0  0  0  0  0  0  0  0  0  0  0  0
  161.1850  205.7820  151.1470 C   0  0  0  0  0  0  0  0  0  0  0  0
  160.7010  201.9140  148.1150 C   0  0  0  0  0  3  0  0  0  0  0  0
  161.4360  204.0200  147.2620 N   0  0  0  0  0  0  0  0  0  0  0  0
  161.4350  203.5360  145.9910 C   0  0  0  0  0  3  0  0  0  0  0  0
  160.6940  201.4000  146.8180 C   0  0  0  0  0  3  0  0  0  0  0  0
  161.0630  202.2130  145.7460 C   0  0  0  0  0  3  0  0  0  0  0  0
  161.0810  203.2480  148.3300 C   0  0  0  0  0  0  0  0  0  0  0  0
  160.7820  209.8500  153.9810 C   0  0  0  0  0  0  0  0  0  0  0  0
  161.7590  210.2100  154.8160 C   0  0  0  0  0  3  0  0  0  0  0  0
  159.4550  210.0320  154.3630 O   0  0  0  0  0  1  0  0  0  0  0  0
  160.4950  212.4000  156.2290 C   0  0  0  0  0  1  0  0  0  0  0  0
  161.4540  210.9120  156.3970 S   0  0  0  0  0  0  0  0  0  0  0  0
  160.7210  209.9240  157.2600 O   0  0  0  0  0  0  0  0  0  0  0  0
  162.7680  211.2490  157.0420 O   0  0  0  0  0  0  0  0  0  0  0  0
  163.0070  209.7710  148.3490 O   0  0  0  0  0  0  0  0  0  0  0  0
  162.0240  210.1170  149.0550 C   0  0  0  0  0  0  0  0  0  0  0  0
  161.2290  211.3140  148.6460 C   0  0  0  0  0  2  0  0  0  0  0  0
  162.5830  212.6510  147.1870 O   0  0  0  0  0  1  0  0  0  0  0  0
  162.1330  212.5300  148.5030 C   0  0  1  0  0  3  0  0  0  0  0  0
  161.4390  213.8130  148.9580 C   0  0  0  0  0  2  0  0  0  0  0  0
  159.9610  213.6140  149.2910 C   0  0  0  0  0  2  0  0  0  0  0  0
  159.6630  213.9630  150.7430 C   0  0  0  0  0  2  0  0  0  0  0  0
  158.5530  212.2600  151.9980 O   0  0  0  0  0  1  0  0  0  0  0  0
  158.3340  213.3760  151.1890 C   0  0  0  0  0  2  0  0  0  0  0  0
  1  6  1  0  0  0  0
  2 20  1  0  0  0  0
  3  7  2  0  0  0  0
  4  3  1  0  0  0  0
  4  1  2  0  0  0  0
  6  2  2  0  0  0  0
  7  5  1  0  0  0  0
  7  2  1  0  0  0  0
  8 11  1  0  0  0  0
  9 13  2  0  0  0  0
 11 10  2  0  0  0  0
 12  9  1  0  0  0  0
 12  8  2  0  0  0  0
 13  1  1  0  0  0  0
 13 10  1  0  0  0  0
 14 19  1  0  0  0  0
 15 19  2  0  0  0  0
 16 15  1  0  0  0  0
 17 14  2  0  0  0  0
 18 16  2  0  0  0  0
 18 17  1  0  0  0  0
 19 12  1  0  0  0  0
 20 22  1  0  0  0  0
 20 21  2  0  0  0  0
 21 24  1  0  0  0  0
 23 24  1  0  0  0  0
 24 26  2  0  0  0  0
 24 25  2  0  0  0  0
 27 28  2  0  0  0  0
 28  3  1  0  0  0  0
 29 28  1  0  0  0  0
 31 30  1  6  0  0  0
 31 29  1  0  0  0  0
 31 32  1  0  0  0  0
 32 33  1  0  0  0  0
 33 34  1  0  0  0  0
 34 36  1  0  0  0  0
 36 35  1  0  0  0  0
M  END
>  <MODEL>
4

>  <REMARK>
 VINA RESULT:      -7.6      1.895      4.895
  Name = 
  11 active torsions:
  status: ('A' for Active; 'I' for Inactive)
    1  A    between atoms: C_2  and  C_12
    2  A    between atoms: C_5  and  C_7
    3  A    between atoms: C_5  and  C_11
    4  A    between atoms: C_7  and  C_14
    5  A    between atoms: C_10  and  C_36
    6  A    between atoms: C_11  and  C_22
    7  A    between atoms: C_13  and  C_19
    8  A    between atoms: C_13  and  C_22
    9  A    between atoms: C_17  and  C_19
   10  A    between atoms: S_20  and  C_28
   11  A    between atoms: C_30  and  C_34
                            x       y       z     vdW  Elec       q    Type
                         _______ _______ _______ _____ _____    ______ ____

>  <TORSDO>
F 11

$$$$
=
 OpenBabel11052410263D

 36 38  0  0  1  0  0  0  0  0999 V2000
  161.2800  208.2200  151.0770 C   0  0  0  0  0  0  0  0  0  0  0  0
  160.8040  210.2810  152.2700 C   0  0  0  0  0  0  0  0  0  0  0  0
  161.6550  210.3100  149.9840 C   0  0  0  0  0  0  0  0  0  0  0  0
  161.6720  208.9500  150.0000 N   0  0  0  0  0  0  0  0  0  0  0  0
  161.1990  212.3650  151.1280 F   0  0  0  0  0  0  0  0  0  0  0  0
  160.8420  208.8830  152.2260 C   0  0  0  0  0  3  0  0  0  0  0  0
  161.2160  211.0070  151.1280 C   0  0  0  0  0  0  0  0  0  0  0  0
  161.3820  203.9430  150.8550 C   0  0  0  0  0  3  0  0  0  0  0  0
  161.2890  206.0990  149.7680 C   0  0  0  0  0  3  0  0  0  0  0  0
  161.3790  205.9680  152.1800 C   0  0  0  0  0  3  0  0  0  0  0  0
  161.4120  204.5730  152.1010 C   0  0  0  0  0  3  0  0  0  0  0  0
  161.3200  204.7010  149.6760 C   0  0  0  0  0  0  0  0  0  0  0  0
  161.3190  206.7440  151.0130 C   0  0  0  0  0  0  0  0  0  0  0  0
  161.0160  202.6750  148.2300 C   0  0  0  0  0  3  0  0  0  0  0  0
  161.5060  204.7830  147.2210 N   0  0  0  0  0  0  0  0  0  0  0  0
  161.4800  204.2270  145.9810 C   0  0  0  0  0  3  0  0  0  0  0  0
  160.9860  202.0860  146.9650 C   0  0  0  0  0  3  0  0  0  0  0  0
  161.2190  202.8630  145.8310 C   0  0  0  0  0  3  0  0  0  0  0  0
  161.2830  204.0480  148.3490 C   0  0  0  0  0  0  0  0  0  0  0  0
  160.3270  210.9220  153.5230 C   0  0  0  0  0  0  0  0  0  0  0  0
  159.0520  211.2830  153.6860 C   0  0  0  0  0  3  0  0  0  0  0  0
  161.2380  211.1490  154.5520 O   0  0  0  0  0  1  0  0  0  0  0  0
  156.7180  212.3940  154.9930 C   0  0  0  0  0  1  0  0  0  0  0  0
  158.4540  212.0410  155.1540 S   0  0  0  0  0  0  0  0  0  0  0  0
  158.6870  211.1340  156.3280 O   0  0  0  0  0  0  0  0  0  0  0  0
  159.1950  213.3300  155.3720 O   0  0  0  0  0  0  0  0  0  0  0  0
  163.3240  211.1870  148.5170 O   0  0  0  0  0  0  0  0  0  0  0  0
  162.1010  211.0070  148.7560 C   0  0  0  0  0  0  0  0  0  0  0  0
  161.0920  211.5330  147.7870 C   0  0  0  0  0  2  0  0  0  0  0  0
  161.2160  213.1120  145.9860 O   0  0  0  0  0  1  0  0  0  0  0  0
  161.4580  212.9440  147.3520 C   0  0  1  0  0  3  0  0  0  0  0  0
  160.7160  214.0030  148.1670 C   0  0  0  0  0  2  0  0  0  0  0  0
  159.3370  213.5440  148.6380 C   0  0  0  0  0  2  0  0  0  0  0  0
  158.2600  213.8580  147.6090 C   0  0  0  0  0  2  0  0  0  0  0  0
  157.4490  212.3170  145.9730 O   0  0  0  0  0  1  0  0  0  0  0  0
  157.3930  212.6410  147.3290 C   0  0  0  0  0  2  0  0  0  0  0  0
  1  6  1  0  0  0  0
  2 20  1  0  0  0  0
  3  4  1  0  0  0  0
  3  7  2  0  0  0  0
  4  1  2  0  0  0  0
  5  7  1  0  0  0  0
  6  2  2  0  0  0  0
  7  2  1  0  0  0  0
  8 11  1  0  0  0  0
  9 13  2  0  0  0  0
 11 10  2  0  0  0  0
 12  9  1  0  0  0  0
 12  8  2  0  0  0  0
 13  1  1  0  0  0  0
 13 10  1  0  0  0  0
 14 19  1  0  0  0  0
 15 19  2  0  0  0  0
 16 15  1  0  0  0  0
 17 14  2  0  0  0  0
 18 16  2  0  0  0  0
 18 17  1  0  0  0  0
 19 12  1  0  0  0  0
 20 21  2  0  0  0  0
 20 22  1  0  0  0  0
 21 24  1  0  0  0  0
 23 24  1  0  0  0  0
 24 26  2  0  0  0  0
 24 25  2  0  0  0  0
 27 28  2  0  0  0  0
 28  3  1  0  0  0  0
 29 28  1  0  0  0  0
 31 30  1  6  0  0  0
 31 29  1  0  0  0  0
 31 32  1  0  0  0  0
 32 33  1  0  0  0  0
 34 33  1  0  0  0  0
 35 36  1  0  0  0  0
 36 34  1  0  0  0  0
M  END
>  <MODEL>
5

>  <REMARK>
 VINA RESULT:      -7.3      2.370      5.309
  Name = 
  11 active torsions:
  status: ('A' for Active; 'I' for Inactive)
    1  A    between atoms: C_2  and  C_12
    2  A    between atoms: C_5  and  C_7
    3  A    between atoms: C_5  and  C_11
    4  A    between atoms: C_7  and  C_14
    5  A    between atoms: C_10  and  C_36
    6  A    between atoms: C_11  and  C_22
    7  A    between atoms: C_13  and  C_19
    8  A    between atoms: C_13  and  C_22
    9  A    between atoms: C_17  and  C_19
   10  A    between atoms: S_20  and  C_28
   11  A    between atoms: C_30  and  C_34
                            x       y       z     vdW  Elec       q    Type
                         _______ _______ _______ _____ _____    ______ ____

>  <TORSDO>
F 11

$$$$
=
 OpenBabel11052410263D

 36 38  0  0  1  0  0  0  0  0999 V2000
  161.5700  207.9980  149.6880 C   0  0  0  0  0  0  0  0  0  0  0  0
  161.4010  208.7530  151.9900 C   0  0  0  0  0  0  0  0  0  0  0  0
  161.5950  210.3410  150.1490 C   0  0  0  0  0  0  0  0  0  0  0  0
  161.6390  209.2930  149.2830 N   0  0  0  0  0  0  0  0  0  0  0  0
  161.4320  211.1260  152.4070 F   0  0  0  0  0  0  0  0  0  0  0  0
  161.4500  207.7160  151.0520 C   0  0  0  0  0  3  0  0  0  0  0  0
  161.4730  210.0890  151.5310 C   0  0  0  0  0  0  0  0  0  0  0  0
  161.7010  204.8300  146.8060 C   0  0  0  0  0  3  0  0  0  0  0  0
  161.3950  205.5870  149.0800 C   0  0  0  0  0  3  0  0  0  0  0  0
  161.8810  207.1860  147.3340 C   0  0  0  0  0  3  0  0  0  0  0  0
  161.9230  206.1480  146.3990 C   0  0  0  0  0  3  0  0  0  0  0  0
  161.4350  204.5380  148.1520 C   0  0  0  0  0  0  0  0  0  0  0  0
  161.6150  206.9140  148.6850 C   0  0  0  0  0  0  0  0  0  0  0  0
  161.2660  202.0790  147.6920 C   0  0  0  0  0  3  0  0  0  0  0  0
  160.9270  202.8910  149.9110 N   0  0  0  0  0  0  0  0  0  0  0  0
  160.7090  201.6290  150.3690 C   0  0  0  0  0  3  0  0  0  0  0  0
  161.0440  200.7770  148.1430 C   0  0  0  0  0  3  0  0  0  0  0  0
  160.7640  200.5460  149.4890 C   0  0  0  0  0  3  0  0  0  0  0  0
  161.2030  203.1470  148.6000 C   0  0  0  0  0  0  0  0  0  0  0  0
  161.2730  208.3840  153.4240 C   0  0  0  0  0  0  0  0  0  0  0  0
  160.8300  209.2510  154.3360 C   0  0  0  0  0  3  0  0  0  0  0  0
  161.6250  207.0960  153.8220 O   0  0  0  0  0  1  0  0  0  0  0  0
  159.6790  207.3810  156.2240 C   0  0  0  0  0  1  0  0  0  0  0  0
  160.6650  208.8490  156.0380 S   0  0  0  0  0  0  0  0  0  0  0  0
  162.0230  208.6340  156.6450 O   0  0  0  0  0  0  0  0  0  0  0  0
  159.9840  209.9860  156.7440 O   0  0  0  0  0  0  0  0  0  0  0  0
  160.9530  212.6400  150.0540 O   0  0  0  0  0  0  0  0  0  0  0  0
  161.6760  211.7140  149.6000 C   0  0  0  0  0  0  0  0  0  0  0  0
  162.6090  212.0150  148.4730 C   0  0  0  0  0  2  0  0  0  0  0  0
  163.1480  214.2670  147.8500 O   0  0  0  0  0  1  0  0  0  0  0  0
  162.1710  213.2750  147.7410 C   0  0  1  0  0  3  0  0  0  0  0  0
  161.8420  212.9980  146.2750 C   0  0  0  0  0  2  0  0  0  0  0  0
  160.5770  213.7080  145.7960 C   0  0  0  0  0  2  0  0  0  0  0  0
  159.3730  213.3490  146.6570 C   0  0  0  0  0  2  0  0  0  0  0  0
  157.3400  212.2600  146.0350 O   0  0  0  0  0  1  0  0  0  0  0  0
  158.0820  213.4290  145.8600 C   0  0  0  0  0  2  0  0  0  0  0  0
  1  6  1  0  0  0  0
  2 20  1  0  0  0  0
  3  7  2  0  0  0  0
  4  1  2  0  0  0  0
  4  3  1  0  0  0  0
  6  2  2  0  0  0  0
  7  2  1  0  0  0  0
  7  5  1  0  0  0  0
  8 12  1  0  0  0  0
 10 13  2  0  0  0  0
 11  8  2  0  0  0  0
 11 10  1  0  0  0  0
 12 19  1  0  0  0  0
 12  9  2  0  0  0  0
 13  9  1  0  0  0  0
 13  1  1  0  0  0  0
 14 17  2  0  0  0  0
 14 19  1  0  0  0  0
 15 16  1  0  0  0  0
 17 18  1  0  0  0  0
 18 16  2  0  0  0  0
 19 15  2  0  0  0  0
 20 22  1  0  0  0  0
 20 21  2  0  0  0  0
 21 24  1  0  0  0  0
 24 23  1  0  0  0  0
 24 25  2  0  0  0  0
 24 26  2  0  0  0  0
 28 27  2  0  0  0  0
 28  3  1  0  0  0  0
 29 28  1  0  0  0  0
 31 30  1  6  0  0  0
 31 29  1  0  0  0  0
 32 31  1  0  0  0  0
 33 32  1  0  0  0  0
 33 34  1  0  0  0  0
 36 35  1  0  0  0  0
 36 34  1  0  0  0  0
M  END
>  <MODEL>
6

>  <REMARK>
 VINA RESULT:      -7.2      2.599      5.924
  Name = 
  11 active torsions:
  status: ('A' for Active; 'I' for Inactive)
    1  A    between atoms: C_2  and  C_12
    2  A    between atoms: C_5  and  C_7
    3  A    between atoms: C_5  and  C_11
    4  A    between atoms: C_7  and  C_14
    5  A    between atoms: C_10  and  C_36
    6  A    between atoms: C_11  and  C_22
    7  A    between atoms: C_13  and  C_19
    8  A    between atoms: C_13  and  C_22
    9  A    between atoms: C_17  and  C_19
   10  A    between atoms: S_20  and  C_28
   11  A    between atoms: C_30  and  C_34
                            x       y       z     vdW  Elec       q    Type
                         _______ _______ _______ _____ _____    ______ ____

>  <TORSDO>
F 11

$$$$
=
 OpenBabel11052410263D

 36 38  0  0  1  0  0  0  0  0999 V2000
  160.9960  207.3730  152.5480 C   0  0  0  0  0  0  0  0  0  0  0  0
  161.1820  205.6190  150.8780 C   0  0  0  0  0  0  0  0  0  0  0  0
  161.5950  207.9550  150.3100 C   0  0  0  0  0  0  0  0  0  0  0  0
  161.3280  208.2900  151.6010 N   0  0  0  0  0  0  0  0  0  0  0  0
  161.7870  206.2540  148.6340 F   0  0  0  0  0  0  0  0  0  0  0  0
  160.9190  206.0240  152.1910 C   0  0  0  0  0  3  0  0  0  0  0  0
  161.5280  206.6010  149.9210 C   0  0  0  0  0  0  0  0  0  0  0  0
  160.2270  208.6900  156.5510 C   0  0  0  0  0  3  0  0  0  0  0  0
  160.5560  209.1790  154.2080 C   0  0  0  0  0  3  0  0  0  0  0  0
  160.6490  206.8920  154.9870 C   0  0  0  0  0  3  0  0  0  0  0  0
  160.3980  207.3280  156.2900 C   0  0  0  0  0  3  0  0  0  0  0  0
  160.3040  209.6290  155.5110 C   0  0  0  0  0  0  0  0  0  0  0  0
  160.7280  207.8150  153.9320 C   0  0  0  0  0  0  0  0  0  0  0  0
  159.5550  211.9150  154.8080 C   0  0  0  0  0  3  0  0  0  0  0  0
  160.5300  211.6040  156.9650 N   0  0  0  0  0  0  0  0  0  0  0  0
  160.3880  212.9260  157.2500 C   0  0  0  0  0  3  0  0  0  0  0  0
  159.4020  213.2750  155.0830 C   0  0  0  0  0  3  0  0  0  0  0  0
  159.8200  213.7880  156.3100 C   0  0  0  0  0  3  0  0  0  0  0  0
  160.1310  211.0740  155.7730 C   0  0  0  0  0  0  0  0  0  0  0  0
  161.0830  204.1690  150.5680 C   0  0  0  0  0  0  0  0  0  0  0  0
  160.7900  203.7310  149.3410 C   0  0  0  0  0  3  0  0  0  0  0  0
  161.3050  203.2450  151.5870 O   0  0  0  0  0  1  0  0  0  0  0  0
  160.9670  201.7860  147.2030 C   0  0  0  0  0  1  0  0  0  0  0  0
  160.6660  202.0260  148.9390 S   0  0  0  0  0  0  0  0  0  0  0  0
  161.6590  201.2380  149.7460 O   0  0  0  0  0  0  0  0  0  0  0  0
  159.2790  201.5490  149.2640 O   0  0  0  0  0  0  0  0  0  0  0  0
  161.9860  208.8220  148.1190 O   0  0  0  0  0  0  0  0  0  0  0  0
  161.9490  209.0340  149.3600 C   0  0  0  0  0  0  0  0  0  0  0  0
  162.2950  210.3950  149.8700 C   0  0  0  0  0  2  0  0  0  0  0  0
  161.0450  212.4100  149.5130 O   0  0  0  0  0  1  0  0  0  0  0  0
  161.8520  211.4620  148.8800 C   0  0  1  0  0  3  0  0  0  0  0  0
  163.0410  212.1340  148.1950 C   0  0  0  0  0  2  0  0  0  0  0  0
  162.6700  213.4320  147.4800 C   0  0  0  0  0  2  0  0  0  0  0  0
  161.9570  213.1630  146.1620 C   0  0  0  0  0  2  0  0  0  0  0  0
  163.4170  213.0530  144.2750 O   0  0  0  0  0  1  0  0  0  0  0  0
  162.6110  213.9170  145.0170 C   0  0  0  0  0  2  0  0  0  0  0  0
  1 13  1  0  0  0  0
  2  6  2  0  0  0  0
  3  4  1  0  0  0  0
  4  1  2  0  0  0  0
  5  7  1  0  0  0  0
  6  1  1  0  0  0  0
  7  3  2  0  0  0  0
  7  2  1  0  0  0  0
  9 12  1  0  0  0  0
 10 11  2  0  0  0  0
 11  8  1  0  0  0  0
 12 19  1  0  0  0  0
 12  8  2  0  0  0  0
 13  9  2  0  0  0  0
 13 10  1  0  0  0  0
 14 17  2  0  0  0  0
 14 19  1  0  0  0  0
 15 16  1  0  0  0  0
 17 18  1  0  0  0  0
 18 16  2  0  0  0  0
 19 15  2  0  0  0  0
 20  2  1  0  0  0  0
 20 22  1  0  0  0  0
 21 20  2  0  0  0  0
 23 24  1  0  0  0  0
 24 26  2  0  0  0  0
 24 21  1  0  0  0  0
 24 25  2  0  0  0  0
 27 28  2  0  0  0  0
 28 29  1  0  0  0  0
 28  3  1  0  0  0  0
 31 30  1  1  0  0  0
 31 29  1  0  0  0  0
 32 31  1  0  0  0  0
 33 32  1  0  0  0  0
 34 33  1  0  0  0  0
 35 36  1  0  0  0  0
 36 34  1  0  0  0  0
M  END
>  <MODEL>
7

>  <REMARK>
 VINA RESULT:      -7.2      3.589      8.632
  Name = 
  11 active torsions:
  status: ('A' for Active; 'I' for Inactive)
    1  A    between atoms: C_2  and  C_12
    2  A    between atoms: C_5  and  C_7
    3  A    between atoms: C_5  and  C_11
    4  A    between atoms: C_7  and  C_14
    5  A    between atoms: C_10  and  C_36
    6  A    between atoms: C_11  and  C_22
    7  A    between atoms: C_13  and  C_19
    8  A    between atoms: C_13  and  C_22
    9  A    between atoms: C_17  and  C_19
   10  A    between atoms: S_20  and  C_28
   11  A    between atoms: C_30  and  C_34
                            x       y       z     vdW  Elec       q    Type
                         _______ _______ _______ _____ _____    ______ ____

>  <TORSDO>
F 11

$$$$
=
 OpenBabel11052410263D

 36 38  0  0  1  0  0  0  0  0999 V2000
  161.0390  207.3120  152.4840 C   0  0  0  0  0  0  0  0  0  0  0  0
  161.1280  205.4970  150.8720 C   0  0  0  0  0  0  0  0  0  0  0  0
  161.7100  207.7800  150.2400 C   0  0  0  0  0  0  0  0  0  0  0  0
  161.4470  208.1730  151.5160 N   0  0  0  0  0  0  0  0  0  0  0  0
  161.8090  206.0180  148.6200 F   0  0  0  0  0  0  0  0  0  0  0  0
  160.8740  205.9600  152.1670 C   0  0  0  0  0  3  0  0  0  0  0  0
  161.5550  206.4230  149.8920 C   0  0  0  0  0  0  0  0  0  0  0  0
  160.2970  208.8040  156.4300 C   0  0  0  0  0  3  0  0  0  0  0  0
  160.4690  209.1660  154.0480 C   0  0  0  0  0  3  0  0  0  0  0  0
  160.8510  206.9620  154.9620 C   0  0  0  0  0  3  0  0  0  0  0  0
  160.6090  207.4550  156.2460 C   0  0  0  0  0  3  0  0  0  0  0  0
  160.2240  209.6730  155.3310 C   0  0  0  0  0  0  0  0  0  0  0  0
  160.7820  207.8140  153.8490 C   0  0  0  0  0  0  0  0  0  0  0  0
  159.0650  211.7730  154.6000 C   0  0  0  0  0  3  0  0  0  0  0  0
  160.4130  211.7920  156.5710 N   0  0  0  0  0  0  0  0  0  0  0  0
  160.1410  213.1090  156.7770 C   0  0  0  0  0  3  0  0  0  0  0  0
  158.7750  213.1240  154.7950 C   0  0  0  0  0  3  0  0  0  0  0  0
  159.3150  213.8000  155.8890 C   0  0  0  0  0  3  0  0  0  0  0  0
  159.9000  211.1060  155.5100 C   0  0  0  0  0  0  0  0  0  0  0  0
  160.9330  204.0480  150.6040 C   0  0  0  0  0  0  0  0  0  0  0  0
  160.8280  203.5720  149.3620 C   0  0  0  0  0  3  0  0  0  0  0  0
  160.8610  203.1680  151.6810 O   0  0  0  0  0  1  0  0  0  0  0  0
  160.8330  201.5660  147.2720 C   0  0  0  0  0  1  0  0  0  0  0  0
  160.5980  201.8660  149.0090 S   0  0  0  0  0  0  0  0  0  0  0  0
  161.5710  201.0450  149.8070 O   0  0  0  0  0  0  0  0  0  0  0  0
  159.1980  201.4750  149.3860 O   0  0  0  0  0  0  0  0  0  0  0  0
  162.7140  208.4710  148.1860 O   0  0  0  0  0  0  0  0  0  0  0  0
  162.1530  208.8010  149.2640 C   0  0  0  0  0  0  0  0  0  0  0  0
  161.9580  210.2530  149.5600 C   0  0  0  0  0  2  0  0  0  0  0  0
  160.9640  211.1240  147.5600 O   0  0  0  0  0  1  0  0  0  0  0  0
  162.1480  211.0830  148.2990 C   0  0  1  0  0  3  0  0  0  0  0  0
  162.6370  212.4960  148.6150 C   0  0  0  0  0  2  0  0  0  0  0  0
  161.6520  213.5840  148.1930 C   0  0  0  0  0  2  0  0  0  0  0  0
  161.0260  214.2710  149.3990 C   0  0  0  0  0  2  0  0  0  0  0  0
  160.0820  213.0580  151.2280 O   0  0  0  0  0  1  0  0  0  0  0  0
  159.8350  213.4860  149.9230 C   0  0  0  0  0  2  0  0  0  0  0  0
  1 13  1  0  0  0  0
  2  6  2  0  0  0  0
  3  4  1  0  0  0  0
  4  1  2  0  0  0  0
  5  7  1  0  0  0  0
  6  1  1  0  0  0  0
  7  3  2  0  0  0  0
  7  2  1  0  0  0  0
  9 12  1  0  0  0  0
 10 11  2  0  0  0  0
 11  8  1  0  0  0  0
 12 19  1  0  0  0  0
 12  8  2  0  0  0  0
 13  9  2  0  0  0  0
 13 10  1  0  0  0  0
 14 17  2  0  0  0  0
 14 19  1  0  0  0  0
 15 16  1  0  0  0  0
 17 18  1  0  0  0  0
 18 16  2  0  0  0  0
 19 15  2  0  0  0  0
 20  2  1  0  0  0  0
 20 22  1  0  0  0  0
 21 20  2  0  0  0  0
 23 24  1  0  0  0  0
 24 21  1  0  0  0  0
 24 26  2  0  0  0  0
 24 25  2  0  0  0  0
 27 28  2  0  0  0  0
 28 29  1  0  0  0  0
 28  3  1  0  0  0  0
 31 30  1  1  0  0  0
 31 32  1  0  0  0  0
 31 29  1  0  0  0  0
 33 32  1  0  0  0  0
 33 34  1  0  0  0  0
 34 36  1  0  0  0  0
 36 35  1  0  0  0  0
M  END
>  <MODEL>
8

>  <REMARK>
 VINA RESULT:      -7.1      3.600      8.344
  Name = 
  11 active torsions:
  status: ('A' for Active; 'I' for Inactive)
    1  A    between atoms: C_2  and  C_12
    2  A    between atoms: C_5  and  C_7
    3  A    between atoms: C_5  and  C_11
    4  A    between atoms: C_7  and  C_14
    5  A    between atoms: C_10  and  C_36
    6  A    between atoms: C_11  and  C_22
    7  A    between atoms: C_13  and  C_19
    8  A    between atoms: C_13  and  C_22
    9  A    between atoms: C_17  and  C_19
   10  A    between atoms: S_20  and  C_28
   11  A    between atoms: C_30  and  C_34
                            x       y       z     vdW  Elec       q    Type
                         _______ _______ _______ _____ _____    ______ ____

>  <TORSDO>
F 11

$$$$
=
 OpenBabel11052410263D

 36 38  0  0  1  0  0  0  0  0999 V2000
  161.8900  210.6300  148.8290 C   0  0  0  0  0  0  0  0  0  0  0  0
  161.6030  208.2190  148.8810 C   0  0  0  0  0  0  0  0  0  0  0  0
  161.7900  209.5150  150.9390 C   0  0  0  0  0  0  0  0  0  0  0  0
  161.9140  210.6430  150.1880 N   0  0  0  0  0  0  0  0  0  0  0  0
  161.5100  207.1370  151.0320 F   0  0  0  0  0  0  0  0  0  0  0  0
  161.7350  209.4120  148.1620 C   0  0  0  0  0  3  0  0  0  0  0  0
  161.6300  208.2720  150.2940 C   0  0  0  0  0  0  0  0  0  0  0  0
  162.2460  214.2980  146.6450 C   0  0  0  0  0  3  0  0  0  0  0  0
  161.0740  212.2370  147.1080 C   0  0  0  0  0  3  0  0  0  0  0  0
  163.0880  212.7790  148.3310 C   0  0  0  0  0  3  0  0  0  0  0  0
  163.1980  213.9740  147.6150 C   0  0  0  0  0  3  0  0  0  0  0  0
  161.1740  213.4320  146.3830 C   0  0  0  0  0  0  0  0  0  0  0  0
  162.0220  211.8990  148.0840 C   0  0  0  0  0  0  0  0  0  0  0  0
  158.8640  214.1480  145.7240 C   0  0  0  0  0  3  0  0  0  0  0  0
  160.4850  213.6880  144.0330 N   0  0  0  0  0  0  0  0  0  0  0  0
  159.5880  213.9820  143.0540 C   0  0  0  0  0  3  0  0  0  0  0  0
  157.9290  214.4530  144.7330 C   0  0  0  0  0  3  0  0  0  0  0  0
  158.2890  214.3710  143.3880 C   0  0  0  0  0  3  0  0  0  0  0  0
  160.1610  213.7600  145.3560 C   0  0  0  0  0  0  0  0  0  0  0  0
  161.4410  206.9590  148.1080 C   0  0  0  0  0  0  0  0  0  0  0  0
  162.4080  206.4910  147.3170 C   0  0  0  0  0  3  0  0  0  0  0  0
  160.2450  206.2520  148.2180 O   0  0  0  0  0  1  0  0  0  0  0  0
  161.0600  205.2250  145.0880 C   0  0  0  0  0  1  0  0  0  0  0  0
  162.2500  205.0060  146.3910 S   0  0  0  0  0  0  0  0  0  0  0  0
  163.5820  204.6230  145.8110 O   0  0  0  0  0  0  0  0  0  0  0  0
  161.7770  203.9110  147.3040 O   0  0  0  0  0  0  0  0  0  0  0  0
  162.7810  210.2250  152.9930 O   0  0  0  0  0  0  0  0  0  0  0  0
  161.8270  209.6410  152.4130 C   0  0  0  0  0  0  0  0  0  0  0  0
  160.7340  209.0500  153.2420 C   0  0  0  0  0  2  0  0  0  0  0  0
  161.1060  208.6460  155.5760 O   0  0  0  0  0  1  0  0  0  0  0  0
  161.3110  208.1200  154.2990 C   0  0  1  0  0  3  0  0  0  0  0  0
  160.7300  206.7100  154.1950 C   0  0  0  0  0  2  0  0  0  0  0  0
  161.6490  205.7330  153.4630 C   0  0  0  0  0  2  0  0  0  0  0  0
  160.8580  204.6250  152.7800 C   0  0  0  0  0  2  0  0  0  0  0  0
  160.8140  203.8000  150.5380 O   0  0  0  0  0  1  0  0  0  0  0  0
  161.6470  204.0080  151.6380 C   0  0  0  0  0  2  0  0  0  0  0  0
  1  4  1  0  0  0  0
  2  7  2  0  0  0  0
  3 28  1  0  0  0  0
  4  3  2  0  0  0  0
  6  1  2  0  0  0  0
  6  2  1  0  0  0  0
  7  3  1  0  0  0  0
  7  5  1  0  0  0  0
  8 11  1  0  0  0  0
  9 13  2  0  0  0  0
 11 10  2  0  0  0  0
 12  8  2  0  0  0  0
 12  9  1  0  0  0  0
 13 10  1  0  0  0  0
 13  1  1  0  0  0  0
 15 19  2  0  0  0  0
 16 18  2  0  0  0  0
 16 15  1  0  0  0  0
 17 14  2  0  0  0  0
 18 17  1  0  0  0  0
 19 14  1  0  0  0  0
 19 12  1  0  0  0  0
 20 22  1  0  0  0  0
 20  2  1  0  0  0  0
 21 20  2  0  0  0  0
 23 24  1  0  0  0  0
 24 26  2  0  0  0  0
 24 21  1  0  0  0  0
 25 24  2  0  0  0  0
 28 27  2  0  0  0  0
 28 29  1  0  0  0  0
 29 31  1  0  0  0  0
 31 30  1  1  0  0  0
 32 31  1  0  0  0  0
 33 32  1  0  0  0  0
 34 33  1  0  0  0  0
 35 36  1  0  0  0  0
 36 34  1  0  0  0  0
M  END
>  <MODEL>
9

>  <REMARK>
 VINA RESULT:      -7.0      3.721      7.913
  Name = 
  11 active torsions:
  status: ('A' for Active; 'I' for Inactive)
    1  A    between atoms: C_2  and  C_12
    2  A    between atoms: C_5  and  C_7
    3  A    between atoms: C_5  and  C_11
    4  A    between atoms: C_7  and  C_14
    5  A    between atoms: C_10  and  C_36
    6  A    between atoms: C_11  and  C_22
    7  A    between atoms: C_13  and  C_19
    8  A    between atoms: C_13  and  C_22
    9  A    between atoms: C_17  and  C_19
   10  A    between atoms: S_20  and  C_28
   11  A    between atoms: C_30  and  C_34
                            x       y       z     vdW  Elec       q    Type
                         _______ _______ _______ _____ _____    ______ ____

>  <TORSDO>
F 11

$$$$
