=
 OpenBabel11052410043D

 33 36  0  0  1  0  0  0  0  0999 V2000
  161.4190  204.9100  148.7770 N   0  0  0  0  0  1  0  0  0  0  0  0
  161.3760  203.8630  151.0950 C   0  0  0  0  0  2  0  0  0  0  0  0
  161.0470  208.5960  150.9800 N   0  0  0  0  0  0  0  0  0  0  0  0
  160.9830  207.3010  153.0290 C   0  0  0  0  0  0  0  0  0  0  0  0
  161.2080  207.5680  150.2010 C   0  0  0  0  0  0  0  0  0  0  0  0
  160.9250  208.5130  152.4180 C   0  0  0  0  0  0  0  0  0  0  0  0
  161.2060  204.4730  152.8160 S   0  0  0  0  0  0  0  0  0  0  0  0
  161.2060  206.1340  152.2210 N   0  0  0  0  0  0  0  0  0  0  0  0
  161.3780  205.0540  150.1950 C   0  0  0  0  0  0  0  0  0  0  0  0
  161.2860  206.2260  150.8130 C   0  0  0  0  0  0  0  0  0  0  0  0
  161.6790  207.8560  156.6110 C   0  0  0  0  0  2  0  0  0  0  0  0
  159.3300  207.7550  156.2870 C   0  0  0  0  0  2  0  0  0  0  0  0
  159.4710  206.9570  154.9920 C   0  0  0  0  0  2  0  0  0  0  0  0
  161.9620  207.0620  155.3380 C   0  0  0  0  0  2  0  0  0  0  0  0
  160.4170  207.4180  157.2030 N   0  0  0  0  0  2  0  0  0  0  0  0
  160.8090  207.1530  154.4450 N   0  0  0  0  0  0  0  0  0  0  0  0
  161.9240  210.3300  153.8350 C   0  0  0  0  0  2  0  0  0  0  0  0
  161.4290  211.1530  155.0110 C   0  0  0  0  0  2  0  0  0  0  0  0
  159.5960  211.8900  153.6000 C   0  0  0  0  0  0  0  0  0  0  0  0
  160.7720  209.7350  153.1600 N   0  0  0  0  0  0  0  0  0  0  0  0
  160.4590  212.1370  154.5440 N   0  0  0  0  0  0  0  0  0  0  0  0
  159.5950  210.5630  152.8710 C   0  0  0  0  0  2  0  0  0  0  0  0
  158.6630  212.9460  153.1780 C   0  0  0  0  0  0  0  0  0  0  0  0
  159.0500  213.8530  152.3910 O   0  0  0  0  0  0  0  0  0  0  0  0
  156.5010  213.8750  152.9260 O   0  0  0  0  0  1  0  0  0  0  0  0
  157.2390  212.9300  153.6410 C   0  0  2  0  0  3  0  0  0  0  0  0
  157.1690  213.2110  155.0080 O   0  0  0  0  0  0  0  0  0  0  0  0
  155.5600  210.9790  154.6380 O   0  0  0  0  0  0  0  0  0  0  0  0
  155.7700  212.1630  156.9570 O   0  0  0  0  0  1  0  0  0  0  0  0
  157.8310  210.7930  156.1700 F   0  0  0  0  0  0  0  0  0  0  0  0
  156.5650  211.7970  155.7240 P   0  0  2  0  0  0  0  0  0  0  0  0
  162.2360  208.8650  148.5200 O   0  0  0  0  0  1  0  0  0  0  0  0
  161.3660  207.7950  148.7370 C   0  0  0  0  0  2  0  0  0  0  0  0
  1  9  1  0  0  0  0
  2  7  1  0  0  0  0
  3  6  1  0  0  0  0
  4 16  1  0  0  0  0
  5 10  1  0  0  0  0
  5  3  2  0  0  0  0
  6  4  2  0  0  0  0
  6 20  1  0  0  0  0
  8  7  1  0  0  0  0
  8  4  1  0  0  0  0
  9 10  2  0  0  0  0
  9  2  1  0  0  0  0
 10  8  1  0  0  0  0
 11 15  1  0  0  0  0
 12 15  1  0  0  0  0
 13 12  1  0  0  0  0
 14 11  1  0  0  0  0
 16 13  1  0  0  0  0
 16 14  1  0  0  0  0
 17 18  1  0  0  0  0
 19 21  2  0  0  0  0
 20 17  1  0  0  0  0
 21 18  1  0  0  0  0
 22 20  1  0  0  0  0
 22 19  1  0  0  0  0
 23 19  1  0  0  0  0
 23 26  1  0  0  0  0
 24 23  2  0  0  0  0
 26 25  1  6  0  0  0
 26 27  1  0  0  0  0
 27 31  1  0  0  0  0
 31 28  2  6  0  0  0
 31 30  1  0  0  0  0
 31 29  1  0  0  0  0
 32 33  1  0  0  0  0
 33  5  1  0  0  0  0
M  END
>  <MODEL>
1

>  <REMARK>
 VINA RESULT:      -4.9      0.000      0.000
  Name = 
  7 active torsions:
  status: ('A' for Active; 'I' for Inactive)
    1  A    between atoms: C_10  and  N_33
    2  A    between atoms: C_12  and  C_17
    3  A    between atoms: C_12  and  C_21
    4  A    between atoms: CA_14  and  C_19
    5  A    between atoms: C_18  and  N_26
    6  A    between atoms: P_20  and  O_29
    7  A    between atoms: C_21  and  O_29
                            x       y       z     vdW  Elec       q    Type
                         _______ _______ _______ _____ _____    ______ ____

>  <TORSDO>
F 7

$$$$
=
 OpenBabel11052410043D

 33 36  0  0  1  0  0  0  0  0999 V2000
  161.2060  202.7110  145.6360 N   0  0  0  0  0  1  0  0  0  0  0  0
  160.8640  202.0690  148.0730 C   0  0  0  0  0  2  0  0  0  0  0  0
  161.9110  206.6310  147.2860 N   0  0  0  0  0  0  0  0  0  0  0  0
  161.4770  205.7200  149.4910 C   0  0  0  0  0  0  0  0  0  0  0  0
  161.7690  205.4970  146.6650 C   0  0  0  0  0  0  0  0  0  0  0  0
  161.7700  206.7960  148.7160 C   0  0  0  0  0  0  0  0  0  0  0  0
  160.8770  202.9460  149.6840 S   0  0  0  0  0  0  0  0  0  0  0  0
  161.3540  204.4330  148.8640 N   0  0  0  0  0  0  0  0  0  0  0  0
  161.2080  203.0660  147.0170 C   0  0  0  0  0  0  0  0  0  0  0  0
  161.4580  204.2920  147.4620 C   0  0  0  0  0  0  0  0  0  0  0  0
  162.4120  205.8890  153.0570 C   0  0  0  0  0  2  0  0  0  0  0  0
  160.6480  207.4240  152.6470 C   0  0  0  0  0  2  0  0  0  0  0  0
  160.1770  206.6630  151.4090 C   0  0  0  0  0  2  0  0  0  0  0  0
  162.0450  205.0330  151.8470 C   0  0  0  0  0  2  0  0  0  0  0  0
  161.2070  206.4940  153.6250 N   0  0  0  0  0  2  0  0  0  0  0  0
  161.2680  205.8350  150.9050 N   0  0  0  0  0  0  0  0  0  0  0  0
  162.7620  208.2650  150.4950 C   0  0  0  0  0  2  0  0  0  0  0  0
  162.3050  209.5260  151.2060 C   0  0  0  0  0  2  0  0  0  0  0  0
  162.1400  210.5820  149.0260 C   0  0  0  0  0  0  0  0  0  0  0  0
  161.9760  208.1050  149.2730 N   0  0  0  0  0  0  0  0  0  0  0  0
  162.4070  210.6630  150.2990 N   0  0  0  0  0  0  0  0  0  0  0  0
  161.7650  209.2590  148.3900 C   0  0  0  0  0  2  0  0  0  0  0  0
  162.2850  211.7750  148.1780 C   0  0  0  0  0  0  0  0  0  0  0  0
  163.4120  212.0740  147.6980 O   0  0  0  0  0  0  0  0  0  0  0  0
  160.4280  212.9800  149.0140 O   0  0  0  0  0  1  0  0  0  0  0  0
  161.0930  212.6170  147.8420 C   0  0  2  0  0  3  0  0  0  0  0  0
  160.2230  211.9160  147.0030 O   0  0  0  0  0  0  0  0  0  0  0  0
  161.5540  213.0690  144.8580 O   0  0  0  0  0  0  0  0  0  0  0  0
  159.5340  214.2440  146.0240 O   0  0  0  0  0  1  0  0  0  0  0  0
  158.9750  212.1800  144.5520 F   0  0  0  0  0  0  0  0  0  0  0  0
  160.0570  212.8840  145.6210 P   0  0  2  0  0  0  0  0  0  0  0  0
  160.8130  205.8290  144.5340 O   0  0  0  0  0  1  0  0  0  0  0  0
  161.9860  205.4540  145.1920 C   0  0  0  0  0  2  0  0  0  0  0  0
  1  9  1  0  0  0  0
  2  7  1  0  0  0  0
  3  6  1  0  0  0  0
  4 16  1  0  0  0  0
  5  3  2  0  0  0  0
  5 10  1  0  0  0  0
  6 20  1  0  0  0  0
  6  4  2  0  0  0  0
  8  4  1  0  0  0  0
  8  7  1  0  0  0  0
  9 10  2  0  0  0  0
  9  2  1  0  0  0  0
 10  8  1  0  0  0  0
 11 15  1  0  0  0  0
 12 15  1  0  0  0  0
 13 12  1  0  0  0  0
 14 11  1  0  0  0  0
 16 13  1  0  0  0  0
 16 14  1  0  0  0  0
 17 18  1  0  0  0  0
 19 21  2  0  0  0  0
 20 17  1  0  0  0  0
 21 18  1  0  0  0  0
 22 19  1  0  0  0  0
 22 20  1  0  0  0  0
 23 19  1  0  0  0  0
 24 23  2  0  0  0  0
 26 23  1  0  0  0  0
 26 25  1  1  0  0  0
 27 26  1  0  0  0  0
 28 31  2  0  0  0  0
 31 30  1  6  0  0  0
 31 29  1  0  0  0  0
 31 27  1  0  0  0  0
 32 33  1  0  0  0  0
 33  5  1  0  0  0  0
M  END
>  <MODEL>
2

>  <REMARK>
 VINA RESULT:      -4.7      4.785      5.996
  Name = 
  7 active torsions:
  status: ('A' for Active; 'I' for Inactive)
    1  A    between atoms: C_10  and  N_33
    2  A    between atoms: C_12  and  C_17
    3  A    between atoms: C_12  and  C_21
    4  A    between atoms: CA_14  and  C_19
    5  A    between atoms: C_18  and  N_26
    6  A    between atoms: P_20  and  O_29
    7  A    between atoms: C_21  and  O_29
                            x       y       z     vdW  Elec       q    Type
                         _______ _______ _______ _____ _____    ______ ____

>  <TORSDO>
F 7

$$$$
=
 OpenBabel11052410043D

 33 36  0  0  1  0  0  0  0  0999 V2000
  158.8190  214.4530  153.3640 N   0  0  0  0  0  1  0  0  0  0  0  0
  158.9410  213.2120  155.5800 C   0  0  0  0  0  2  0  0  0  0  0  0
  160.3000  210.7320  151.7690 N   0  0  0  0  0  0  0  0  0  0  0  0
  160.3490  209.8490  154.0260 C   0  0  0  0  0  0  0  0  0  0  0  0
  159.8100  211.8870  152.1110 C   0  0  0  0  0  0  0  0  0  0  0  0
  160.5940  209.6680  152.7030 C   0  0  0  0  0  0  0  0  0  0  0  0
  159.4730  211.5470  156.1330 S   0  0  0  0  0  0  0  0  0  0  0  0
  159.7640  211.0890  154.4550 N   0  0  0  0  0  0  0  0  0  0  0  0
  159.0830  213.2580  154.0950 C   0  0  0  0  0  0  0  0  0  0  0  0
  159.5170  212.1340  153.5370 C   0  0  0  0  0  0  0  0  0  0  0  0
  161.7680  208.4950  157.1540 C   0  0  0  0  0  2  0  0  0  0  0  0
  159.6900  207.4310  156.7230 C   0  0  0  0  0  2  0  0  0  0  0  0
  159.7630  207.7340  155.2280 C   0  0  0  0  0  2  0  0  0  0  0  0
  161.9680  208.8590  155.6840 C   0  0  0  0  0  2  0  0  0  0  0  0
  161.0350  207.2350  157.2610 N   0  0  0  0  0  2  0  0  0  0  0  0
  160.6750  208.8510  155.0030 N   0  0  0  0  0  0  0  0  0  0  0  0
  160.9090  207.1860  152.9200 C   0  0  0  0  0  2  0  0  0  0  0  0
  162.0310  206.2240  152.5700 C   0  0  0  0  0  2  0  0  0  0  0  0
  161.8600  207.0060  150.2790 C   0  0  0  0  0  0  0  0  0  0  0  0
  161.1140  208.4320  152.1840 N   0  0  0  0  0  0  0  0  0  0  0  0
  162.0860  206.0410  151.1250 N   0  0  0  0  0  0  0  0  0  0  0  0
  161.4530  208.3840  150.7560 C   0  0  0  0  0  2  0  0  0  0  0  0
  161.9190  206.7310  148.8350 C   0  0  0  0  0  0  0  0  0  0  0  0
  162.6180  207.4630  148.0820 O   0  0  0  0  0  0  0  0  0  0  0  0
  160.4410  204.9300  149.2500 O   0  0  0  0  0  1  0  0  0  0  0  0
  161.1920  205.5580  148.2550 C   0  0  2  0  0  3  0  0  0  0  0  0
  162.0970  204.6490  147.7010 O   0  0  0  0  0  0  0  0  0  0  0  0
  161.4970  203.0690  145.4990 O   0  0  0  0  0  1  0  0  0  0  0  0
  162.9530  205.2270  145.2950 O   0  0  0  0  0  0  0  0  0  0  0  0
  160.4160  205.5830  145.7170 F   0  0  0  0  0  0  0  0  0  0  0  0
  161.7700  204.6480  146.0370 P   0  0  2  0  0  0  0  0  0  0  0  0
  160.5730  212.9350  150.1390 O   0  0  0  0  0  1  0  0  0  0  0  0
  159.5100  212.8830  151.0430 C   0  0  0  0  0  2  0  0  0  0  0  0
  1  9  1  0  0  0  0
  2  7  1  0  0  0  0
  3  5  2  0  0  0  0
  3  6  1  0  0  0  0
  4  8  1  0  0  0  0
  4 16  1  0  0  0  0
  5 10  1  0  0  0  0
  6  4  2  0  0  0  0
  8  7  1  0  0  0  0
  9  2  1  0  0  0  0
 10  9  2  0  0  0  0
 10  8  1  0  0  0  0
 11 15  1  0  0  0  0
 12 15  1  0  0  0  0
 13 12  1  0  0  0  0
 14 11  1  0  0  0  0
 16 13  1  0  0  0  0
 16 14  1  0  0  0  0
 18 17  1  0  0  0  0
 19 22  1  0  0  0  0
 19 21  2  0  0  0  0
 20  6  1  0  0  0  0
 20 17  1  0  0  0  0
 21 18  1  0  0  0  0
 22 20  1  0  0  0  0
 23 19  1  0  0  0  0
 24 23  2  0  0  0  0
 26 23  1  0  0  0  0
 26 25  1  1  0  0  0
 27 26  1  0  0  0  0
 28 31  1  0  0  0  0
 30 31  1  0  0  0  0
 31 29  2  6  0  0  0
 31 27  1  0  0  0  0
 32 33  1  0  0  0  0
 33  5  1  0  0  0  0
M  END
>  <MODEL>
3

>  <REMARK>
 VINA RESULT:      -4.3      4.349      7.681
  Name = 
  7 active torsions:
  status: ('A' for Active; 'I' for Inactive)
    1  A    between atoms: C_10  and  N_33
    2  A    between atoms: C_12  and  C_17
    3  A    between atoms: C_12  and  C_21
    4  A    between atoms: CA_14  and  C_19
    5  A    between atoms: C_18  and  N_26
    6  A    between atoms: P_20  and  O_29
    7  A    between atoms: C_21  and  O_29
                            x       y       z     vdW  Elec       q    Type
                         _______ _______ _______ _____ _____    ______ ____

>  <TORSDO>
F 7

$$$$
=
 OpenBabel11052410043D

 33 36  0  0  1  0  0  0  0  0999 V2000
  158.6680  212.2100  157.2230 N   0  0  0  0  0  1  0  0  0  0  0  0
  157.9580  214.0800  155.6530 C   0  0  0  0  0  2  0  0  0  0  0  0
  160.5540  210.6300  153.6840 N   0  0  0  0  0  0  0  0  0  0  0  0
  159.6820  212.5210  152.4430 C   0  0  0  0  0  0  0  0  0  0  0  0
  160.0760  211.0160  154.8300 C   0  0  0  0  0  0  0  0  0  0  0  0
  160.3790  211.3550  152.4460 C   0  0  0  0  0  0  0  0  0  0  0  0
  158.1580  214.4530  153.8690 S   0  0  0  0  0  0  0  0  0  0  0  0
  159.1710  213.0210  153.6890 N   0  0  0  0  0  0  0  0  0  0  0  0
  158.6960  212.8120  155.9320 C   0  0  0  0  0  0  0  0  0  0  0  0
  159.3170  212.2820  154.8850 C   0  0  0  0  0  0  0  0  0  0  0  0
  160.5060  214.3970  149.3720 C   0  0  0  0  0  2  0  0  0  0  0  0
  158.6450  212.9880  148.9420 C   0  0  0  0  0  2  0  0  0  0  0  0
  158.2650  212.9170  150.4190 C   0  0  0  0  0  2  0  0  0  0  0  0
  160.2370  214.4140  150.8760 C   0  0  0  0  0  2  0  0  0  0  0  0
  159.2450  214.2860  148.6400 N   0  0  0  0  0  2  0  0  0  0  0  0
  159.4280  213.2520  151.2350 N   0  0  0  0  0  0  0  0  0  0  0  0
  161.9510  211.6180  150.5060 C   0  0  0  0  0  2  0  0  0  0  0  0
  161.9300  211.1740  149.0530 C   0  0  0  0  0  2  0  0  0  0  0  0
  161.7130  208.8920  149.8530 C   0  0  0  0  0  0  0  0  0  0  0  0
  160.9810  210.8210  151.2540 N   0  0  0  0  0  0  0  0  0  0  0  0
  162.1750  209.7380  148.9770 N   0  0  0  0  0  0  0  0  0  0  0  0
  160.9350  209.3670  151.0620 C   0  0  0  0  0  2  0  0  0  0  0  0
  162.0230  207.4610  149.7100 C   0  0  0  0  0  0  0  0  0  0  0  0
  162.7450  206.8830  150.5670 O   0  0  0  0  0  0  0  0  0  0  0  0
  160.7920  205.5430  149.0720 O   0  0  0  0  0  1  0  0  0  0  0  0
  161.4490  206.6700  148.5760 C   0  0  2  0  0  3  0  0  0  0  0  0
  162.4600  206.2790  147.6950 O   0  0  0  0  0  0  0  0  0  0  0  0
  161.5240  203.9340  146.5410 O   0  0  0  0  0  1  0  0  0  0  0  0
  162.4410  205.9110  145.1030 O   0  0  0  0  0  0  0  0  0  0  0  0
  160.1250  206.2740  146.2180 F   0  0  0  0  0  0  0  0  0  0  0  0
  161.6570  205.6100  146.3600 P   0  0  2  0  0  0  0  0  0  0  0  0
  161.1990  209.1320  155.6970 O   0  0  0  0  0  1  0  0  0  0  0  0
  160.3670  210.1980  156.0410 C   0  0  0  0  0  2  0  0  0  0  0  0
  2  9  1  0  0  0  0
  3  5  2  0  0  0  0
  4  6  2  0  0  0  0
  4  8  1  0  0  0  0
  5 10  1  0  0  0  0
  5 33  1  0  0  0  0
  6  3  1  0  0  0  0
  7  2  1  0  0  0  0
  8  7  1  0  0  0  0
  8 10  1  0  0  0  0
  9  1  1  0  0  0  0
 10  9  2  0  0  0  0
 11 14  1  0  0  0  0
 12 13  1  0  0  0  0
 13 16  1  0  0  0  0
 14 16  1  0  0  0  0
 15 12  1  0  0  0  0
 15 11  1  0  0  0  0
 16  4  1  0  0  0  0
 17 20  1  0  0  0  0
 18 17  1  0  0  0  0
 19 22  1  0  0  0  0
 20  6  1  0  0  0  0
 21 18  1  0  0  0  0
 21 19  2  0  0  0  0
 22 20  1  0  0  0  0
 23 19  1  0  0  0  0
 23 24  2  0  0  0  0
 26 25  1  1  0  0  0
 26 23  1  0  0  0  0
 27 26  1  0  0  0  0
 30 31  1  0  0  0  0
 31 29  2  6  0  0  0
 31 28  1  0  0  0  0
 31 27  1  0  0  0  0
 32 33  1  0  0  0  0
M  END
>  <MODEL>
4

>  <REMARK>
 VINA RESULT:      -3.6      4.857      8.675
  Name = 
  7 active torsions:
  status: ('A' for Active; 'I' for Inactive)
    1  A    between atoms: C_10  and  N_33
    2  A    between atoms: C_12  and  C_17
    3  A    between atoms: C_12  and  C_21
    4  A    between atoms: CA_14  and  C_19
    5  A    between atoms: C_18  and  N_26
    6  A    between atoms: P_20  and  O_29
    7  A    between atoms: C_21  and  O_29
                            x       y       z     vdW  Elec       q    Type
                         _______ _______ _______ _____ _____    ______ ____

>  <TORSDO>
F 7

$$$$
=
 OpenBabel11052410043D

 33 36  0  0  1  0  0  0  0  0999 V2000
  158.8520  214.2690  147.9390 N   0  0  0  0  0  1  0  0  0  0  0  0
  156.8660  214.3960  149.5230 C   0  0  0  0  0  2  0  0  0  0  0  0
  160.6420  212.0310  151.1600 N   0  0  0  0  0  0  0  0  0  0  0  0
  158.6160  212.3710  152.4470 C   0  0  0  0  0  0  0  0  0  0  0  0
  160.2060  212.6450  150.0990 C   0  0  0  0  0  0  0  0  0  0  0  0
  159.8760  211.8690  152.3750 C   0  0  0  0  0  0  0  0  0  0  0  0
  156.4970  213.8230  151.2250 S   0  0  0  0  0  0  0  0  0  0  0  0
  158.0660  213.0190  151.2890 N   0  0  0  0  0  0  0  0  0  0  0  0
  158.2380  213.9190  149.1770 C   0  0  0  0  0  0  0  0  0  0  0  0
  158.8390  213.2040  150.1210 C   0  0  0  0  0  0  0  0  0  0  0  0
  156.3860  213.5720  155.1320 C   0  0  0  0  0  2  0  0  0  0  0  0
  155.7750  211.3530  154.5540 C   0  0  0  0  0  2  0  0  0  0  0  0
  157.1580  211.0430  153.9860 C   0  0  0  0  0  2  0  0  0  0  0  0
  157.8070  213.3960  154.6020 C   0  0  0  0  0  2  0  0  0  0  0  0
  155.8870  212.3030  155.6590 N   0  0  0  0  0  2  0  0  0  0  0  0
  157.8330  212.2910  153.6460 N   0  0  0  0  0  0  0  0  0  0  0  0
  160.6320  211.7910  154.7680 C   0  0  0  0  0  2  0  0  0  0  0  0
  161.8010  211.1450  155.4920 C   0  0  0  0  0  2  0  0  0  0  0  0
  161.0370  209.0110  154.6220 C   0  0  0  0  0  0  0  0  0  0  0  0
  160.4750  211.1480  153.4650 N   0  0  0  0  0  0  0  0  0  0  0  0
  161.5880  209.7050  155.5780 N   0  0  0  0  0  0  0  0  0  0  0  0
  160.5160  209.6840  153.3690 C   0  0  0  0  0  2  0  0  0  0  0  0
  160.8440  207.5640  154.7980 C   0  0  0  0  0  0  0  0  0  0  0  0
  160.5290  207.1030  155.9290 O   0  0  0  0  0  0  0  0  0  0  0  0
  160.8370  205.3140  154.0660 O   0  0  0  0  0  1  0  0  0  0  0  0
  160.9760  206.6330  153.6330 C   0  0  2  0  0  3  0  0  0  0  0  0
  162.2180  206.8000  153.0150 O   0  0  0  0  0  0  0  0  0  0  0  0
  161.7590  205.0610  150.9010 O   0  0  0  0  0  1  0  0  0  0  0  0
  163.0550  207.3070  150.5870 O   0  0  0  0  0  0  0  0  0  0  0  0
  160.4940  207.4960  150.9710 F   0  0  0  0  0  0  0  0  0  0  0  0
  161.9100  206.6840  151.3510 P   0  0  2  0  0  0  0  0  0  0  0  0
  161.8760  213.8490  148.9470 O   0  0  0  0  0  1  0  0  0  0  0  0
  161.0810  212.7030  148.8940 C   0  0  0  0  0  2  0  0  0  0  0  0
  1  9  1  0  0  0  0
  2  7  1  0  0  0  0
  3  6  1  0  0  0  0
  4 16  1  0  0  0  0
  5 10  1  0  0  0  0
  5  3  2  0  0  0  0
  6  4  2  0  0  0  0
  6 20  1  0  0  0  0
  7  8  1  0  0  0  0
  8  4  1  0  0  0  0
  9  2  1  0  0  0  0
  9 10  2  0  0  0  0
 10  8  1  0  0  0  0
 11 15  1  0  0  0  0
 12 15  1  0  0  0  0
 13 12  1  0  0  0  0
 14 11  1  0  0  0  0
 16 13  1  0  0  0  0
 16 14  1  0  0  0  0
 17 18  1  0  0  0  0
 18 21  1  0  0  0  0
 19 23  1  0  0  0  0
 19 21  2  0  0  0  0
 20 17  1  0  0  0  0
 22 20  1  0  0  0  0
 22 19  1  0  0  0  0
 23 24  2  0  0  0  0
 26 25  1  1  0  0  0
 26 23  1  0  0  0  0
 27 26  1  0  0  0  0
 28 31  1  0  0  0  0
 30 31  1  0  0  0  0
 31 29  2  6  0  0  0
 31 27  1  0  0  0  0
 33 32  1  0  0  0  0
 33  5  1  0  0  0  0
M  END
>  <MODEL>
5

>  <REMARK>
 VINA RESULT:      -3.5      4.461      6.957
  Name = 
  7 active torsions:
  status: ('A' for Active; 'I' for Inactive)
    1  A    between atoms: C_10  and  N_33
    2  A    between atoms: C_12  and  C_17
    3  A    between atoms: C_12  and  C_21
    4  A    between atoms: CA_14  and  C_19
    5  A    between atoms: C_18  and  N_26
    6  A    between atoms: P_20  and  O_29
    7  A    between atoms: C_21  and  O_29
                            x       y       z     vdW  Elec       q    Type
                         _______ _______ _______ _____ _____    ______ ____

>  <TORSDO>
F 7

$$$$
=
 OpenBabel11052410043D

 33 36  0  0  1  0  0  0  0  0999 V2000
  161.5190  210.7280  152.3130 N   0  0  0  0  0  1  0  0  0  0  0  0
  161.7940  210.4710  149.7970 C   0  0  0  0  0  2  0  0  0  0  0  0
  161.3230  206.4230  152.2280 N   0  0  0  0  0  0  0  0  0  0  0  0
  161.5510  206.5150  149.8160 C   0  0  0  0  0  0  0  0  0  0  0  0
  161.4130  207.7090  152.4000 C   0  0  0  0  0  0  0  0  0  0  0  0
  161.3840  205.7700  150.9400 C   0  0  0  0  0  0  0  0  0  0  0  0
  161.8240  209.0760  148.6080 S   0  0  0  0  0  0  0  0  0  0  0  0
  161.7040  207.9380  149.9500 N   0  0  0  0  0  0  0  0  0  0  0  0
  161.6510  209.8920  151.1660 C   0  0  0  0  0  0  0  0  0  0  0  0
  161.6040  208.5660  151.2120 C   0  0  0  0  0  0  0  0  0  0  0  0
  160.7210  206.1920  146.2340 C   0  0  0  0  0  2  0  0  0  0  0  0
  162.9830  205.5510  146.5650 C   0  0  0  0  0  2  0  0  0  0  0  0
  162.7500  205.2260  148.0390 C   0  0  0  0  0  2  0  0  0  0  0  0
  160.3510  205.9030  147.6870 C   0  0  0  0  0  2  0  0  0  0  0  0
  161.7720  205.2760  145.7940 N   0  0  0  0  0  2  0  0  0  0  0  0
  161.5600  205.9270  148.5080 N   0  0  0  0  0  0  0  0  0  0  0  0
  161.2690  203.5690  152.1420 C   0  0  0  0  0  2  0  0  0  0  0  0
  161.8160  202.1790  151.8670 C   0  0  0  0  0  2  0  0  0  0  0  0
  160.6070  202.2240  149.7620 C   0  0  0  0  0  0  0  0  0  0  0  0
  161.2910  204.3360  150.8980 N   0  0  0  0  0  0  0  0  0  0  0  0
  161.0540  201.5580  150.7890 N   0  0  0  0  0  0  0  0  0  0  0  0
  160.7990  203.7230  149.6590 C   0  0  0  0  0  2  0  0  0  0  0  0
  159.8320  201.5220  148.7270 C   0  0  0  0  0  0  0  0  0  0  0  0
  158.5830  201.3960  148.8510 O   0  0  0  0  0  0  0  0  0  0  0  0
  161.6430  200.2680  147.8640 O   0  0  0  0  0  1  0  0  0  0  0  0
  160.5080  200.9940  147.5000 C   0  0  2  0  0  3  0  0  0  0  0  0
  160.8700  202.0440  146.6530 O   0  0  0  0  0  0  0  0  0  0  0  0
  160.3120  200.4600  144.4430 O   0  0  0  0  0  1  0  0  0  0  0  0
  160.0870  203.0610  144.3710 O   0  0  0  0  0  0  0  0  0  0  0  0
  158.2790  201.7840  145.7280 F   0  0  0  0  0  0  0  0  0  0  0  0
  159.8920  201.8680  145.2790 P   0  0  2  0  0  0  0  0  0  0  0  0
  160.7620  207.3310  154.6360 O   0  0  0  0  0  1  0  0  0  0  0  0
  161.3810  208.2510  153.7870 C   0  0  0  0  0  2  0  0  0  0  0  0
  2  9  1  0  0  0  0
  3  5  2  0  0  0  0
  4  8  1  0  0  0  0
  4  6  2  0  0  0  0
  5 33  1  0  0  0  0
  6  3  1  0  0  0  0
  7  2  1  0  0  0  0
  7  8  1  0  0  0  0
  8 10  1  0  0  0  0
  9 10  2  0  0  0  0
  9  1  1  0  0  0  0
 10  5  1  0  0  0  0
 11 14  1  0  0  0  0
 12 13  1  0  0  0  0
 13 16  1  0  0  0  0
 14 16  1  0  0  0  0
 15 11  1  0  0  0  0
 15 12  1  0  0  0  0
 16  4  1  0  0  0  0
 18 17  1  0  0  0  0
 19 21  2  0  0  0  0
 20  6  1  0  0  0  0
 20 17  1  0  0  0  0
 21 18  1  0  0  0  0
 22 19  1  0  0  0  0
 22 20  1  0  0  0  0
 23 24  2  0  0  0  0
 23 19  1  0  0  0  0
 26 25  1  1  0  0  0
 26 23  1  0  0  0  0
 27 26  1  0  0  0  0
 28 31  1  0  0  0  0
 31 29  2  6  0  0  0
 31 30  1  0  0  0  0
 31 27  1  0  0  0  0
 33 32  1  0  0  0  0
M  END
>  <MODEL>
6

>  <REMARK>
 VINA RESULT:      -3.4      5.409      9.728
  Name = 
  7 active torsions:
  status: ('A' for Active; 'I' for Inactive)
    1  A    between atoms: C_10  and  N_33
    2  A    between atoms: C_12  and  C_17
    3  A    between atoms: C_12  and  C_21
    4  A    between atoms: CA_14  and  C_19
    5  A    between atoms: C_18  and  N_26
    6  A    between atoms: P_20  and  O_29
    7  A    between atoms: C_21  and  O_29
                            x       y       z     vdW  Elec       q    Type
                         _______ _______ _______ _____ _____    ______ ____

>  <TORSDO>
F 7

$$$$
=
 OpenBabel11052410043D

 33 36  0  0  1  0  0  0  0  0999 V2000
  161.1820  203.0080  145.4950 N   0  0  0  0  0  1  0  0  0  0  0  0
  161.1720  202.1880  147.9030 C   0  0  0  0  0  2  0  0  0  0  0  0
  161.5690  206.8840  147.3410 N   0  0  0  0  0  0  0  0  0  0  0  0
  161.4780  205.8000  149.5070 C   0  0  0  0  0  0  0  0  0  0  0  0
  161.5030  205.7790  146.6580 C   0  0  0  0  0  0  0  0  0  0  0  0
  161.5570  206.9470  148.7850 C   0  0  0  0  0  0  0  0  0  0  0  0
  161.2440  202.9660  149.5620 S   0  0  0  0  0  0  0  0  0  0  0  0
  161.4500  204.5460  148.8060 N   0  0  0  0  0  0  0  0  0  0  0  0
  161.2830  203.2800  146.8900 C   0  0  0  0  0  0  0  0  0  0  0  0
  161.4250  204.5000  147.3940 C   0  0  0  0  0  0  0  0  0  0  0  0
  160.6620  204.5140  152.8690 C   0  0  0  0  0  2  0  0  0  0  0  0
  162.7670  205.6090  152.9500 C   0  0  0  0  0  2  0  0  0  0  0  0
  162.4570  206.4520  151.7150 C   0  0  0  0  0  2  0  0  0  0  0  0
  160.2230  205.2940  151.6320 C   0  0  0  0  0  2  0  0  0  0  0  0
  161.5400  205.3410  153.6960 N   0  0  0  0  0  2  0  0  0  0  0  0
  161.4030  205.8060  150.9390 N   0  0  0  0  0  0  0  0  0  0  0  0
  161.8440  209.4340  148.5910 C   0  0  0  0  0  2  0  0  0  0  0  0
  162.5500  210.4900  149.4250 C   0  0  0  0  0  2  0  0  0  0  0  0
  161.1740  209.7930  151.2990 C   0  0  0  0  0  0  0  0  0  0  0  0
  161.6570  208.2380  149.4100 N   0  0  0  0  0  0  0  0  0  0  0  0
  161.7920  210.7350  150.6460 N   0  0  0  0  0  0  0  0  0  0  0  0
  161.1510  208.3700  150.7810 C   0  0  0  0  0  2  0  0  0  0  0  0
  160.4180  210.1310  152.5150 C   0  0  0  0  0  0  0  0  0  0  0  0
  159.2570  210.6150  152.4210 O   0  0  0  0  0  0  0  0  0  0  0  0
  162.3180  210.3160  153.9130 O   0  0  0  0  0  1  0  0  0  0  0  0
  160.9980  209.8640  153.8690 C   0  0  2  0  0  3  0  0  0  0  0  0
  160.9570  208.4970  154.1540 O   0  0  0  0  0  0  0  0  0  0  0  0
  159.6470  209.7890  156.2330 O   0  0  0  0  0  0  0  0  0  0  0  0
  161.7170  208.2510  156.6470 O   0  0  0  0  0  1  0  0  0  0  0  0
  159.5020  207.0560  156.0090 F   0  0  0  0  0  0  0  0  0  0  0  0
  160.4870  208.3920  155.7800 P   0  0  2  0  0  0  0  0  0  0  0  0
  160.3210  206.2040  144.6610 O   0  0  0  0  0  1  0  0  0  0  0  0
  161.5710  205.8490  145.1710 C   0  0  0  0  0  2  0  0  0  0  0  0
  1  9  1  0  0  0  0
  2  7  1  0  0  0  0
  3  6  1  0  0  0  0
  4 16  1  0  0  0  0
  5  3  2  0  0  0  0
  5 10  1  0  0  0  0
  6 20  1  0  0  0  0
  6  4  2  0  0  0  0
  8  4  1  0  0  0  0
  8  7  1  0  0  0  0
  9 10  2  0  0  0  0
  9  2  1  0  0  0  0
 10  8  1  0  0  0  0
 11 15  1  0  0  0  0
 12 15  1  0  0  0  0
 13 12  1  0  0  0  0
 14 11  1  0  0  0  0
 16 14  1  0  0  0  0
 16 13  1  0  0  0  0
 17 20  1  0  0  0  0
 17 18  1  0  0  0  0
 18 21  1  0  0  0  0
 19 23  1  0  0  0  0
 20 22  1  0  0  0  0
 21 19  2  0  0  0  0
 22 19  1  0  0  0  0
 23 26  1  0  0  0  0
 24 23  2  0  0  0  0
 26 25  1  6  0  0  0
 26 27  1  0  0  0  0
 27 31  1  0  0  0  0
 31 30  1  1  0  0  0
 31 28  2  0  0  0  0
 31 29  1  0  0  0  0
 32 33  1  0  0  0  0
 33  5  1  0  0  0  0
M  END
>  <MODEL>
7

>  <REMARK>
 VINA RESULT:      -3.3      3.246      4.543
  Name = 
  7 active torsions:
  status: ('A' for Active; 'I' for Inactive)
    1  A    between atoms: C_10  and  N_33
    2  A    between atoms: C_12  and  C_17
    3  A    between atoms: C_12  and  C_21
    4  A    between atoms: CA_14  and  C_19
    5  A    between atoms: C_18  and  N_26
    6  A    between atoms: P_20  and  O_29
    7  A    between atoms: C_21  and  O_29
                            x       y       z     vdW  Elec       q    Type
                         _______ _______ _______ _____ _____    ______ ____

>  <TORSDO>
F 7

$$$$
=
 OpenBabel11052410043D

 33 36  0  0  1  0  0  0  0  0999 V2000
  160.5260  209.9220  155.0440 N   0  0  0  0  0  1  0  0  0  0  0  0
  161.0450  210.4940  152.6210 C   0  0  0  0  0  2  0  0  0  0  0  0
  160.9330  205.8630  153.6510 N   0  0  0  0  0  0  0  0  0  0  0  0
  161.3480  206.7270  151.4250 C   0  0  0  0  0  0  0  0  0  0  0  0
  160.8310  207.0330  154.2100 C   0  0  0  0  0  0  0  0  0  0  0  0
  161.1910  205.6560  152.2440 C   0  0  0  0  0  0  0  0  0  0  0  0
  161.3660  209.5510  151.0820 S   0  0  0  0  0  0  0  0  0  0  0  0
  161.2920  208.0450  151.9960 N   0  0  0  0  0  0  0  0  0  0  0  0
  160.8680  209.5050  153.7250 C   0  0  0  0  0  0  0  0  0  0  0  0
  161.0010  208.2330  153.3660 C   0  0  0  0  0  0  0  0  0  0  0  0
  160.5110  206.9540  147.8370 C   0  0  0  0  0  2  0  0  0  0  0  0
  162.8050  207.4910  148.1310 C   0  0  0  0  0  2  0  0  0  0  0  0
  162.8870  206.7290  149.4530 C   0  0  0  0  0  2  0  0  0  0  0  0
  160.4560  206.1570  149.1380 C   0  0  0  0  0  2  0  0  0  0  0  0
  161.8420  206.8470  147.2410 N   0  0  0  0  0  2  0  0  0  0  0  0
  161.5480  206.5820  150.0120 N   0  0  0  0  0  0  0  0  0  0  0  0
  161.4950  203.2070  152.7090 C   0  0  0  0  0  2  0  0  0  0  0  0
  162.2080  202.0710  151.9970 C   0  0  0  0  0  2  0  0  0  0  0  0
  160.8310  202.5490  150.0560 C   0  0  0  0  0  0  0  0  0  0  0  0
  161.3010  204.3050  151.7640 N   0  0  0  0  0  0  0  0  0  0  0  0
  161.4550  201.6880  150.8090 N   0  0  0  0  0  0  0  0  0  0  0  0
  160.7980  204.0200  150.4150 C   0  0  0  0  0  2  0  0  0  0  0  0
  160.0790  202.0750  148.8840 C   0  0  0  0  0  0  0  0  0  0  0  0
  158.8750  201.7230  149.0090 O   0  0  0  0  0  0  0  0  0  0  0  0
  161.5800  200.9540  147.4390 O   0  0  0  0  0  1  0  0  0  0  0  0
  160.7200  202.0490  147.5310 C   0  0  2  0  0  3  0  0  0  0  0  0
  161.4310  203.2300  147.3070 O   0  0  0  0  0  0  0  0  0  0  0  0
  160.4570  202.2840  144.8860 O   0  0  0  0  0  0  0  0  0  0  0  0
  162.5370  203.8570  145.0190 O   0  0  0  0  0  1  0  0  0  0  0  0
  160.2330  204.9490  145.5060 F   0  0  0  0  0  0  0  0  0  0  0  0
  161.1980  203.5890  145.6660 P   0  0  2  0  0  0  0  0  0  0  0  0
  159.2410  207.0250  155.9530 O   0  0  0  0  0  1  0  0  0  0  0  0
  160.6080  207.1080  155.6810 C   0  0  0  0  0  2  0  0  0  0  0  0
  2  9  1  0  0  0  0
  3  5  2  0  0  0  0
  4  8  1  0  0  0  0
  4  6  2  0  0  0  0
  5 33  1  0  0  0  0
  6  3  1  0  0  0  0
  7  8  1  0  0  0  0
  7  2  1  0  0  0  0
  8 10  1  0  0  0  0
  9  1  1  0  0  0  0
 10  9  2  0  0  0  0
 10  5  1  0  0  0  0
 11 14  1  0  0  0  0
 12 13  1  0  0  0  0
 13 16  1  0  0  0  0
 14 16  1  0  0  0  0
 15 11  1  0  0  0  0
 15 12  1  0  0  0  0
 16  4  1  0  0  0  0
 18 17  1  0  0  0  0
 19 22  1  0  0  0  0
 19 21  2  0  0  0  0
 20  6  1  0  0  0  0
 20 17  1  0  0  0  0
 21 18  1  0  0  0  0
 22 20  1  0  0  0  0
 23 24  2  0  0  0  0
 23 19  1  0  0  0  0
 26 25  1  1  0  0  0
 26 23  1  0  0  0  0
 27 26  1  0  0  0  0
 29 31  1  0  0  0  0
 30 31  1  0  0  0  0
 31 28  2  6  0  0  0
 31 27  1  0  0  0  0
 33 32  1  0  0  0  0
M  END
>  <MODEL>
8

>  <REMARK>
 VINA RESULT:      -3.2      4.793      9.249
  Name = 
  7 active torsions:
  status: ('A' for Active; 'I' for Inactive)
    1  A    between atoms: C_10  and  N_33
    2  A    between atoms: C_12  and  C_17
    3  A    between atoms: C_12  and  C_21
    4  A    between atoms: CA_14  and  C_19
    5  A    between atoms: C_18  and  N_26
    6  A    between atoms: P_20  and  O_29
    7  A    between atoms: C_21  and  O_29
                            x       y       z     vdW  Elec       q    Type
                         _______ _______ _______ _____ _____    ______ ____

>  <TORSDO>
F 7

$$$$
=
 OpenBabel11052410043D

 33 36  0  0  1  0  0  0  0  0999 V2000
  161.1770  204.0660  148.7050 N   0  0  0  0  0  1  0  0  0  0  0  0
  161.0250  203.1570  151.0750 C   0  0  0  0  0  2  0  0  0  0  0  0
  161.1500  207.8870  150.7000 N   0  0  0  0  0  0  0  0  0  0  0  0
  160.9550  206.7180  152.8150 C   0  0  0  0  0  0  0  0  0  0  0  0
  161.2140  206.8060  149.9790 C   0  0  0  0  0  0  0  0  0  0  0  0
  161.0150  207.8950  152.1390 C   0  0  0  0  0  0  0  0  0  0  0  0
  160.9090  203.8750  152.7590 S   0  0  0  0  0  0  0  0  0  0  0  0
  161.0690  205.4920  152.0750 N   0  0  0  0  0  0  0  0  0  0  0  0
  161.1440  204.2910  150.1120 C   0  0  0  0  0  0  0  0  0  0  0  0
  161.1620  205.4990  150.6650 C   0  0  0  0  0  0  0  0  0  0  0  0
  161.5390  207.5900  156.3540 C   0  0  0  0  0  2  0  0  0  0  0  0
  159.2090  207.2990  156.0040 C   0  0  0  0  0  2  0  0  0  0  0  0
  159.4310  206.4180  154.7760 C   0  0  0  0  0  2  0  0  0  0  0  0
  161.9020  206.7240  155.1500 C   0  0  0  0  0  2  0  0  0  0  0  0
  160.2980  207.1100  156.9600 N   0  0  0  0  0  2  0  0  0  0  0  0
  160.7630  206.6660  154.2360 N   0  0  0  0  0  0  0  0  0  0  0  0
  162.2110  209.9210  153.0160 C   0  0  0  0  0  2  0  0  0  0  0  0
  162.0430  210.8080  154.2370 C   0  0  0  0  0  2  0  0  0  0  0  0
  159.7730  211.2400  153.4920 C   0  0  0  0  0  0  0  0  0  0  0  0
  160.9770  209.1650  152.8120 N   0  0  0  0  0  0  0  0  0  0  0  0
  160.8660  211.6530  154.0700 N   0  0  0  0  0  0  0  0  0  0  0  0
  159.6830  209.8530  152.8910 C   0  0  0  0  0  2  0  0  0  0  0  0
  158.6370  212.1640  153.3500 C   0  0  0  0  0  0  0  0  0  0  0  0
  157.5760  211.9650  154.0020 O   0  0  0  0  0  0  0  0  0  0  0  0
  158.1050  214.4530  153.0700 O   0  0  0  0  0  1  0  0  0  0  0  0
  158.7450  213.3690  152.4670 C   0  0  2  0  0  3  0  0  0  0  0  0
  158.1670  213.1120  151.2210 O   0  0  0  0  0  0  0  0  0  0  0  0
  160.6030  214.3880  150.8380 O   0  0  0  0  0  1  0  0  0  0  0  0
  158.7260  214.4170  149.0220 O   0  0  0  0  0  0  0  0  0  0  0  0
  159.9730  212.1650  149.3570 F   0  0  0  0  0  0  0  0  0  0  0  0
  159.3490  213.5400  150.0830 P   0  0  2  0  0  0  0  0  0  0  0  0
  162.7040  207.3470  148.2310 O   0  0  0  0  0  1  0  0  0  0  0  0
  161.3980  206.9370  148.5060 C   0  0  0  0  0  2  0  0  0  0  0  0
  1  9  1  0  0  0  0
  2  7  1  0  0  0  0
  3  6  1  0  0  0  0
  4 16  1  0  0  0  0
  5 10  1  0  0  0  0
  5  3  2  0  0  0  0
  6 20  1  0  0  0  0
  6  4  2  0  0  0  0
  8  7  1  0  0  0  0
  8  4  1  0  0  0  0
  9 10  2  0  0  0  0
  9  2  1  0  0  0  0
 10  8  1  0  0  0  0
 11 15  1  0  0  0  0
 12 15  1  0  0  0  0
 13 12  1  0  0  0  0
 14 11  1  0  0  0  0
 16 13  1  0  0  0  0
 16 14  1  0  0  0  0
 17 18  1  0  0  0  0
 19 21  2  0  0  0  0
 20 22  1  0  0  0  0
 20 17  1  0  0  0  0
 21 18  1  0  0  0  0
 22 19  1  0  0  0  0
 23 19  1  0  0  0  0
 23 24  2  0  0  0  0
 26 25  1  1  0  0  0
 26 23  1  0  0  0  0
 27 26  1  0  0  0  0
 30 31  1  0  0  0  0
 31 29  2  6  0  0  0
 31 28  1  0  0  0  0
 31 27  1  0  0  0  0
 32 33  1  0  0  0  0
 33  5  1  0  0  0  0
M  END
>  <MODEL>
9

>  <REMARK>
 VINA RESULT:      -3.1      2.041      2.857
  Name = 
  7 active torsions:
  status: ('A' for Active; 'I' for Inactive)
    1  A    between atoms: C_10  and  N_33
    2  A    between atoms: C_12  and  C_17
    3  A    between atoms: C_12  and  C_21
    4  A    between atoms: CA_14  and  C_19
    5  A    between atoms: C_18  and  N_26
    6  A    between atoms: P_20  and  O_29
    7  A    between atoms: C_21  and  O_29
                            x       y       z     vdW  Elec       q    Type
                         _______ _______ _______ _____ _____    ______ ____

>  <TORSDO>
F 7

$$$$
