=
 OpenBabel11042421013D

 59 64  0  0  1  0  0  0  0  0999 V2000
  161.1520  204.0440  147.5560 C   0  0  0  0  0  0  0  0  0  0  0  0
  161.0430  205.4190  147.7460 C   0  0  0  0  0  0  0  0  0  0  0  0
  161.7530  205.3740  145.5350 C   0  0  0  0  0  0  0  0  0  0  0  0
  161.6900  203.7530  145.9910 S   0  0  0  0  0  0  0  0  0  0  0  0
  161.3850  206.1780  146.6150 C   0  0  0  0  0  3  0  0  0  0  0  0
  161.0610  200.9560  147.1540 C   0  0  0  0  0  1  0  0  0  0  0  0
  160.9670  201.0970  149.6450 N   0  0  0  0  0  0  0  0  0  0  0  0
  161.0280  201.7050  148.4490 C   0  0  0  0  0  0  0  0  0  0  0  0
  161.0180  203.0440  148.5810 N   0  0  0  0  0  0  0  0  0  0  0  0
  160.9340  202.1320  150.5180 C   0  0  0  0  0  3  0  0  0  0  0  0
  160.9640  203.3140  149.8760 N   0  0  0  0  0  0  0  0  0  0  0  0
  160.5800  206.0160  148.9580 N   0  0  0  0  0  2  0  0  0  0  0  0
  160.6700  207.6780  150.5670 O   0  0  0  0  0  0  0  0  0  0  0  0
  161.0520  207.2760  149.4350 C   0  0  0  0  0  0  0  0  0  0  0  0
  162.0270  208.0880  148.6250 C   0  0  0  0  0  2  0  0  0  0  0  0
  162.0780  210.5790  148.2010 N   0  0  0  0  0  2  0  0  0  0  0  0
  162.3900  209.6960  150.3440 O   0  0  0  0  0  0  0  0  0  0  0  0
  162.1630  209.4900  149.1200 C   0  0  0  0  0  0  0  0  0  0  0  0
  162.3160  211.9480  148.6290 C   0  0  0  0  0  2  0  0  0  0  0  0
  160.2360  212.9190  148.0400 O   0  0  0  0  0  0  0  0  0  0  0  0
  160.6900  212.8740  150.3410 N   0  0  0  0  0  2  0  0  0  0  0  0
  161.0320  212.6270  148.9700 C   0  0  0  0  0  0  0  0  0  0  0  0
  159.3860  213.3020  150.8570 C   0  0  2  0  0  3  0  0  0  0  0  0
  158.7270  214.4530  150.0880 C   0  0  0  0  0  2  0  0  0  0  0  0
  157.3440  214.2760  149.9780 O   0  0  0  0  0  1  0  0  0  0  0  0
  159.2910  213.3150  152.2720 O   0  0  0  0  0  0  0  0  0  0  0  0
  156.8920  212.6640  154.4330 C   0  0  2  0  0  3  0  0  0  0  0  0
  157.1790  212.9280  153.0730 O   0  0  0  0  0  0  0  0  0  0  0  0
  157.8740  213.3980  155.3350 C   0  0  0  0  0  2  0  0  0  0  0  0
  158.4040  212.3200  152.7220 C   0  0  2  0  0  3  0  0  0  0  0  0
  158.9500  211.5800  153.9380 C   0  0  2  0  0  3  0  0  0  0  0  0
  158.0200  211.8990  155.0800 C   0  0  2  0  0  3  0  0  0  0  0  0
  160.2680  211.9450  154.2660 O   0  0  0  0  0  0  0  0  0  0  0  0
  160.9430  210.5930  155.0480 P   0  0  0  0  0  0  0  0  0  0  0  0
  162.6330  210.7270  155.0210 O   0  0  0  0  0  1  0  0  0  0  0  0
  160.4280  210.5600  156.6600 O   0  0  0  0  0  1  0  0  0  0  0  0
  160.5330  209.3140  154.3510 O   0  0  0  0  0  0  0  0  0  0  0  0
  162.3440  205.8460  144.2470 C   0  0  0  0  0  2  0  0  0  0  0  0
  161.3380  205.8450  143.1120 C   0  0  0  0  0  2  0  0  0  0  0  0
  161.9910  206.0510  141.8940 O   0  0  0  0  0  0  0  0  0  0  0  0
  161.5110  207.2840  141.4430 C   0  0  0  0  0  2  0  0  0  0  0  0
  162.9150  208.6580  140.0530 O   0  0  0  0  0  0  0  0  0  0  0  0
  162.1950  209.8420  139.7960 C   0  0  1  0  0  3  0  0  0  0  0  0
  161.9970  207.5870  140.0180 C   0  0  2  0  0  0  0  0  0  0  0  0
  160.7760  209.4990  139.4130 C   0  0  2  0  0  3  0  0  0  0  0  0
  160.8220  208.0210  139.1730 C   0  0  0  0  0  2  0  0  0  0  0  0
  162.4390  206.3250  138.0100 O   0  0  0  0  0  1  0  0  0  0  0  0
  162.6730  206.3700  139.3840 C   0  0  0  0  0  2  0  0  0  0  0  0
  158.9660  210.3550  138.1100 O   0  0  0  0  0  1  0  0  0  0  0  0
  160.3570  210.2580  138.1590 C   0  0  0  0  0  2  0  0  0  0  0  0
  162.1890  210.7250  141.0350 C   0  0  0  0  0  2  0  0  0  0  0  0
  162.0740  212.1890  140.6370 C   0  0  0  0  0  2  0  0  0  0  0  0
  159.0690  212.8470  144.0980 C   0  0  0  0  0  1  0  0  0  0  0  0
  162.5610  213.2740  144.8140 C   0  0  0  0  0  1  0  0  0  0  0  0
  161.1680  212.8620  141.5530 N   0  0  0  0  0  0  0  0  0  0  0  0
  160.5580  211.8370  142.3960 C   0  0  0  0  0  2  0  0  0  0  0  0
  161.9840  213.6810  142.4430 C   0  0  0  0  0  2  0  0  0  0  0  0
  161.4270  213.5480  143.8450 C   0  0  1  0  0  3  0  0  0  0  0  0
  160.4800  212.3670  143.8110 C   0  0  1  0  0  3  0  0  0  0  0  0
  1  2  2  0  0  0  0
  1  9  1  0  0  0  0
  2 12  1  0  0  0  0
  3  4  1  0  0  0  0
  3  5  2  0  0  0  0
  4  1  1  0  0  0  0
  5  2  1  0  0  0  0
  6  8  1  0  0  0  0
  7 10  1  0  0  0  0
  8  9  1  0  0  0  0
  8  7  2  0  0  0  0
  9 11  1  0  0  0  0
 11 10  2  0  0  0  0
 12 14  1  0  0  0  0
 14 13  2  0  0  0  0
 15 18  1  0  0  0  0
 15 14  1  0  0  0  0
 16 19  1  0  0  0  0
 16 18  1  0  0  0  0
 18 17  2  0  0  0  0
 19 22  1  0  0  0  0
 20 22  2  0  0  0  0
 21 23  1  0  0  0  0
 22 21  1  0  0  0  0
 23 24  1  1  0  0  0
 23 26  1  0  0  0  0
 25 24  1  0  0  0  0
 27 32  1  0  0  0  0
 27 29  1  1  0  0  0
 28 27  1  0  0  0  0
 30 26  1  1  0  0  0
 30 28  1  0  0  0  0
 30 31  1  0  0  0  0
 31 33  1  1  0  0  0
 31 32  1  0  0  0  0
 32 29  1  1  0  0  0
 33 34  1  0  0  0  0
 34 36  1  0  0  0  0
 35 34  1  0  0  0  0
 37 34  2  0  0  0  0
 38  3  1  0  0  0  0
 39 38  1  0  0  0  0
 40 39  1  0  0  0  0
 41 40  1  0  0  0  0
 43 42  1  0  0  0  0
 43 51  1  1  0  0  0
 44 48  1  6  0  0  0
 44 42  1  0  0  0  0
 44 41  1  0  0  0  0
 45 50  1  6  0  0  0
 45 43  1  0  0  0  0
 46 45  1  0  0  0  0
 46 44  1  0  0  0  0
 47 48  1  0  0  0  0
 49 50  1  0  0  0  0
 52 51  1  0  0  0  0
 52 55  1  0  0  0  0
 55 56  1  0  0  0  0
 55 57  1  0  0  0  0
 56 59  1  0  0  0  0
 57 58  1  0  0  0  0
 58 54  1  1  0  0  0
 59 58  1  0  0  0  0
 59 53  1  6  0  0  0
M  END
>  <MODEL>
1

>  <REMARK>
 VINA RESULT:      -5.8      0.000      0.000
  Name = 
  22 active torsions:
  status: ('A' for Active; 'I' for Inactive)
    1  A    between atoms: C_2  and  C_25
    2  A    between atoms: C_3  and  N_33
    3  A    between atoms: P_6  and  O_19
    4  A    between atoms: N_7  and  C_47
    5  A    between atoms: C_8  and  N_17
    6  A    between atoms: C_15  and  O_34
    7  A    between atoms: C_15  and  C_49
    8  A    between atoms: N_18  and  C_41
    9  A    between atoms: O_19  and  C_48
   10  A    between atoms: C_20  and  C_23
   11  A    between atoms: C_21  and  O_51
   12  A    between atoms: C_22  and  C_23
   13  A    between atoms: C_22  and  O_34
   14  A    between atoms: C_25  and  N_39
   15  A    between atoms: C_25  and  O_51
   16  A    between atoms: C_28  and  C_50
   17  A    between atoms: C_28  and  C_56
   18  A    between atoms: C_29  and  C_55
   19  A    between atoms: C_31  and  C_49
   20  A    between atoms: C_40  and  C_46
   21  A    between atoms: C_41  and  C_46
   22  A    between atoms: C_43  and  C_47
                            x       y       z     vdW  Elec       q    Type
                         _______ _______ _______ _____ _____    ______ ____

>  <TORSDO>
F 22

$$$$
=
 OpenBabel11042421013D

 59 64  0  0  1  0  0  0  0  0999 V2000
  160.9790  202.5060  148.0400 C   0  0  0  0  0  0  0  0  0  0  0  0
  161.2070  203.8760  147.9510 C   0  0  0  0  0  0  0  0  0  0  0  0
  160.9580  203.6600  150.2500 C   0  0  0  0  0  0  0  0  0  0  0  0
  160.7390  202.0990  149.6530 S   0  0  0  0  0  0  0  0  0  0  0  0
  161.1920  204.5380  149.1900 C   0  0  0  0  0  3  0  0  0  0  0  0
  161.9000  199.5370  147.8410 C   0  0  0  0  0  1  0  0  0  0  0  0
  160.7000  199.7920  145.6660 N   0  0  0  0  0  0  0  0  0  0  0  0
  161.1220  200.3160  146.8280 C   0  0  0  0  0  0  0  0  0  0  0  0
  160.7850  201.6160  146.9280 N   0  0  0  0  0  0  0  0  0  0  0  0
  160.0750  200.8320  145.0640 C   0  0  0  0  0  3  0  0  0  0  0  0
  160.1260  201.9390  145.8270 N   0  0  0  0  0  0  0  0  0  0  0  0
  161.4820  204.5550  146.7250 N   0  0  0  0  0  2  0  0  0  0  0  0
  162.2750  206.3840  145.5490 O   0  0  0  0  0  0  0  0  0  0  0  0
  162.1710  205.8040  146.6630 C   0  0  0  0  0  0  0  0  0  0  0  0
  162.7180  206.4420  147.9110 C   0  0  0  0  0  2  0  0  0  0  0  0
  162.5210  208.8590  148.6250 N   0  0  0  0  0  2  0  0  0  0  0  0
  160.6620  207.4400  148.5820 O   0  0  0  0  0  0  0  0  0  0  0  0
  161.8970  207.5980  148.3770 C   0  0  0  0  0  0  0  0  0  0  0  0
  161.7730  209.9740  149.1840 C   0  0  0  0  0  2  0  0  0  0  0  0
  163.3600  211.7330  149.0960 O   0  0  0  0  0  0  0  0  0  0  0  0
  161.5710  211.9370  147.5910 N   0  0  0  0  0  2  0  0  0  0  0  0
  162.2770  211.2710  148.6480 C   0  0  0  0  0  0  0  0  0  0  0  0
  162.0490  213.0720  146.7960 C   0  0  2  0  0  3  0  0  0  0  0  0
  161.7990  214.4520  147.4150 C   0  0  0  0  0  2  0  0  0  0  0  0
  161.3950  214.3540  148.7510 O   0  0  0  0  0  1  0  0  0  0  0  0
  161.8540  212.9320  145.3980 O   0  0  0  0  0  0  0  0  0  0  0  0
  158.7130  213.8950  145.1600 C   0  0  2  0  0  3  0  0  0  0  0  0
  159.9430  214.1260  145.8190 O   0  0  0  0  0  0  0  0  0  0  0  0
  158.5700  212.4230  144.8030 C   0  0  0  0  0  2  0  0  0  0  0  0
  161.0080  213.9450  144.9090 C   0  0  2  0  0  3  0  0  0  0  0  0
  160.4300  213.5910  143.5420 C   0  0  2  0  0  3  0  0  0  0  0  0
  158.9420  213.4510  143.7370 C   0  0  2  0  0  3  0  0  0  0  0  0
  160.9650  212.4090  143.0010 O   0  0  0  0  0  0  0  0  0  0  0  0
  161.8640  212.8880  141.6380 P   0  0  0  0  0  0  0  0  0  0  0  0
  163.2450  213.7240  142.1530 O   0  0  0  0  0  1  0  0  0  0  0  0
  162.3520  211.5150  140.7750 O   0  0  0  0  0  1  0  0  0  0  0  0
  161.0380  213.7890  140.7460 O   0  0  0  0  0  0  0  0  0  0  0  0
  160.6990  204.0430  151.6700 C   0  0  0  0  0  2  0  0  0  0  0  0
  161.2130  205.4310  152.0000 C   0  0  0  0  0  2  0  0  0  0  0  0
  161.1780  205.6380  153.3820 O   0  0  0  0  0  0  0  0  0  0  0  0
  161.3850  207.0120  153.5350 C   0  0  0  0  0  2  0  0  0  0  0  0
  159.9630  208.7070  154.4840 O   0  0  0  0  0  0  0  0  0  0  0  0
  160.7850  209.8170  154.7600 C   0  0  1  0  0  3  0  0  0  0  0  0
  160.6970  207.5450  154.8010 C   0  0  2  0  0  0  0  0  0  0  0  0
  162.0480  209.3540  155.4450 C   0  0  2  0  0  3  0  0  0  0  0  0
  161.7490  207.9330  155.8130 C   0  0  0  0  0  2  0  0  0  0  0  0
  159.4760  206.7940  156.7420 O   0  0  0  0  0  1  0  0  0  0  0  0
  159.7510  206.5050  155.4060 C   0  0  0  0  0  2  0  0  0  0  0  0
  163.2770  211.1850  156.3630 O   0  0  0  0  0  1  0  0  0  0  0  0
  162.3370  210.2030  156.6770 C   0  0  0  0  0  2  0  0  0  0  0  0
  161.1420  210.5340  153.4670 C   0  0  0  0  0  2  0  0  0  0  0  0
  160.3160  211.8030  153.3240 C   0  0  0  0  0  2  0  0  0  0  0  0
  157.7570  213.4420  156.8190 C   0  0  0  0  0  1  0  0  0  0  0  0
  156.4160  213.7080  153.5000 C   0  0  0  0  0  1  0  0  0  0  0  0
  159.3330  211.8540  154.3940 N   0  0  0  0  0  0  0  0  0  0  0  0
  159.4570  213.1580  155.0400 C   0  0  0  0  0  2  0  0  0  0  0  0
  158.0140  211.8390  153.7700 C   0  0  0  0  0  2  0  0  0  0  0  0
  157.1350  212.8300  154.5050 C   0  0  1  0  0  3  0  0  0  0  0  0
  158.0680  213.6710  155.3520 C   0  0  1  0  0  3  0  0  0  0  0  0
  1  4  1  0  0  0  0
  2  1  2  0  0  0  0
  2  5  1  0  0  0  0
  3 38  1  0  0  0  0
  4  3  1  0  0  0  0
  5  3  2  0  0  0  0
  7  8  2  0  0  0  0
  8  9  1  0  0  0  0
  8  6  1  0  0  0  0
  9  1  1  0  0  0  0
 10  7  1  0  0  0  0
 10 11  2  0  0  0  0
 11  9  1  0  0  0  0
 12  2  1  0  0  0  0
 13 14  2  0  0  0  0
 14 12  1  0  0  0  0
 14 15  1  0  0  0  0
 15 18  1  0  0  0  0
 16 19  1  0  0  0  0
 18 17  2  0  0  0  0
 18 16  1  0  0  0  0
 21 22  1  0  0  0  0
 22 20  2  0  0  0  0
 22 19  1  0  0  0  0
 23 24  1  1  0  0  0
 23 21  1  0  0  0  0
 24 25  1  0  0  0  0
 26 23  1  0  0  0  0
 27 29  1  1  0  0  0
 27 28  1  0  0  0  0
 30 26  1  1  0  0  0
 30 28  1  0  0  0  0
 31 33  1  1  0  0  0
 31 32  1  0  0  0  0
 31 30  1  0  0  0  0
 32 29  1  1  0  0  0
 32 27  1  0  0  0  0
 34 35  1  0  0  0  0
 34 33  1  0  0  0  0
 36 34  1  0  0  0  0
 37 34  2  0  0  0  0
 38 39  1  0  0  0  0
 39 40  1  0  0  0  0
 40 41  1  0  0  0  0
 42 43  1  0  0  0  0
 42 44  1  0  0  0  0
 43 51  1  6  0  0  0
 43 45  1  0  0  0  0
 44 41  1  6  0  0  0
 44 48  1  0  0  0  0
 44 46  1  0  0  0  0
 45 46  1  0  0  0  0
 45 50  1  1  0  0  0
 48 47  1  0  0  0  0
 49 50  1  0  0  0  0
 52 51  1  0  0  0  0
 52 55  1  0  0  0  0
 55 56  1  0  0  0  0
 56 59  1  0  0  0  0
 57 55  1  0  0  0  0
 57 58  1  0  0  0  0
 58 54  1  6  0  0  0
 58 59  1  0  0  0  0
 59 53  1  1  0  0  0
M  END
>  <MODEL>
2

>  <REMARK>
 VINA RESULT:      -5.3      3.812     10.232
  Name = 
  22 active torsions:
  status: ('A' for Active; 'I' for Inactive)
    1  A    between atoms: C_2  and  C_25
    2  A    between atoms: C_3  and  N_33
    3  A    between atoms: P_6  and  O_19
    4  A    between atoms: N_7  and  C_47
    5  A    between atoms: C_8  and  N_17
    6  A    between atoms: C_15  and  O_34
    7  A    between atoms: C_15  and  C_49
    8  A    between atoms: N_18  and  C_41
    9  A    between atoms: O_19  and  C_48
   10  A    between atoms: C_20  and  C_23
   11  A    between atoms: C_21  and  O_51
   12  A    between atoms: C_22  and  C_23
   13  A    between atoms: C_22  and  O_34
   14  A    between atoms: C_25  and  N_39
   15  A    between atoms: C_25  and  O_51
   16  A    between atoms: C_28  and  C_50
   17  A    between atoms: C_28  and  C_56
   18  A    between atoms: C_29  and  C_55
   19  A    between atoms: C_31  and  C_49
   20  A    between atoms: C_40  and  C_46
   21  A    between atoms: C_41  and  C_46
   22  A    between atoms: C_43  and  C_47
                            x       y       z     vdW  Elec       q    Type
                         _______ _______ _______ _____ _____    ______ ____

>  <TORSDO>
F 22

$$$$
=
 OpenBabel11042421013D

 59 64  0  0  1  0  0  0  0  0999 V2000
  161.1420  203.8600  147.1330 C   0  0  0  0  0  0  0  0  0  0  0  0
  160.7940  205.1900  147.3490 C   0  0  0  0  0  0  0  0  0  0  0  0
  161.6680  205.3480  145.2030 C   0  0  0  0  0  0  0  0  0  0  0  0
  161.8380  203.7210  145.6090 S   0  0  0  0  0  0  0  0  0  0  0  0
  161.0910  206.0390  146.2700 C   0  0  0  0  0  3  0  0  0  0  0  0
  160.9210  200.7990  146.5960 C   0  0  0  0  0  1  0  0  0  0  0  0
  161.1130  200.8160  149.0860 N   0  0  0  0  0  0  0  0  0  0  0  0
  161.0560  201.4810  147.9210 C   0  0  0  0  0  0  0  0  0  0  0  0
  161.0980  202.8120  148.1170 N   0  0  0  0  0  0  0  0  0  0  0  0
  161.2080  201.8050  150.0050 C   0  0  0  0  0  3  0  0  0  0  0  0
  161.1970  203.0170  149.4210 N   0  0  0  0  0  0  0  0  0  0  0  0
  160.1490  205.6570  148.5340 N   0  0  0  0  0  2  0  0  0  0  0  0
  160.1480  206.8790  150.5000 O   0  0  0  0  0  0  0  0  0  0  0  0
  160.7410  206.6050  149.4230 C   0  0  0  0  0  0  0  0  0  0  0  0
  162.0740  207.2270  149.1040 C   0  0  0  0  0  2  0  0  0  0  0  0
  162.3730  208.7910  151.0660 N   0  0  0  0  0  2  0  0  0  0  0  0
  162.1590  209.5970  148.8810 O   0  0  0  0  0  0  0  0  0  0  0  0
  162.2160  208.6050  149.6590 C   0  0  0  0  0  0  0  0  0  0  0  0
  162.4030  210.1220  151.6530 C   0  0  0  0  0  2  0  0  0  0  0  0
  163.1480  210.5930  153.8530 O   0  0  0  0  0  0  0  0  0  0  0  0
  161.1130  209.4310  153.7250 N   0  0  0  0  0  2  0  0  0  0  0  0
  162.2670  210.0490  153.1370 C   0  0  0  0  0  0  0  0  0  0  0  0
  160.7090  209.4880  155.1330 C   0  0  2  0  0  3  0  0  0  0  0  0
  160.3720  208.1340  155.7690 C   0  0  0  0  0  2  0  0  0  0  0  0
  159.9930  207.1910  154.8070 O   0  0  0  0  0  1  0  0  0  0  0  0
  159.8850  210.5940  155.4620 O   0  0  0  0  0  0  0  0  0  0  0  0
  159.2180  213.3830  153.8420 C   0  0  2  0  0  3  0  0  0  0  0  0
  160.0320  212.2260  153.8600 O   0  0  0  0  0  0  0  0  0  0  0  0
  158.8630  213.8060  155.2600 C   0  0  0  0  0  2  0  0  0  0  0  0
  159.2750  211.1220  154.3100 C   0  0  2  0  0  3  0  0  0  0  0  0
  157.8480  211.5860  154.5840 C   0  0  2  0  0  3  0  0  0  0  0  0
  157.8440  213.0800  154.3850 C   0  0  2  0  0  3  0  0  0  0  0  0
  157.3980  211.2640  155.8770 O   0  0  0  0  0  0  0  0  0  0  0  0
  155.7030  211.4190  155.8300 P   0  0  0  0  0  0  0  0  0  0  0  0
  155.0200  210.3410  156.9450 O   0  0  0  0  0  1  0  0  0  0  0  0
  155.2700  212.9970  156.2650 O   0  0  0  0  0  1  0  0  0  0  0  0
  155.1780  211.1060  154.4460 O   0  0  0  0  0  0  0  0  0  0  0  0
  162.2690  205.9590  143.9800 C   0  0  0  0  0  2  0  0  0  0  0  0
  161.3610  205.8500  142.7700 C   0  0  0  0  0  2  0  0  0  0  0  0
  162.0750  206.1510  141.6070 O   0  0  0  0  0  0  0  0  0  0  0  0
  161.5680  207.3860  141.1940 C   0  0  0  0  0  2  0  0  0  0  0  0
  162.8130  208.9320  139.8340 O   0  0  0  0  0  0  0  0  0  0  0  0
  161.9480  210.0060  139.5460 C   0  0  1  0  0  3  0  0  0  0  0  0
  162.0510  207.7470  139.7810 C   0  0  2  0  0  0  0  0  0  0  0  0
  160.6010  209.4730  139.1250 C   0  0  2  0  0  3  0  0  0  0  0  0
  160.8530  208.0130  138.9000 C   0  0  0  0  0  2  0  0  0  0  0  0
  162.3490  206.1630  137.9860 O   0  0  0  0  0  1  0  0  0  0  0  0
  162.9030  206.6290  139.1780 C   0  0  0  0  0  2  0  0  0  0  0  0
  159.3250  209.2850  137.1140 O   0  0  0  0  0  1  0  0  0  0  0  0
  160.1200  210.1610  137.8530 C   0  0  0  0  0  2  0  0  0  0  0  0
  161.7850  210.8860  140.7770 C   0  0  0  0  0  2  0  0  0  0  0  0
  161.4760  212.3160  140.3630 C   0  0  0  0  0  2  0  0  0  0  0  0
  159.3280  213.0030  144.4080 C   0  0  0  0  0  1  0  0  0  0  0  0
  162.9090  213.2520  144.3560 C   0  0  0  0  0  1  0  0  0  0  0  0
  160.8250  213.0010  141.4680 N   0  0  0  0  0  0  0  0  0  0  0  0
  160.3610  211.9800  142.4030 C   0  0  0  0  0  2  0  0  0  0  0  0
  161.8540  213.7560  142.1750 C   0  0  0  0  0  2  0  0  0  0  0  0
  161.6070  213.6060  143.6620 C   0  0  1  0  0  3  0  0  0  0  0  0
  160.6170  212.4700  143.8120 C   0  0  1  0  0  3  0  0  0  0  0  0
  1  2  2  0  0  0  0
  1  9  1  0  0  0  0
  2 12  1  0  0  0  0
  3  4  1  0  0  0  0
  3  5  2  0  0  0  0
  4  1  1  0  0  0  0
  5  2  1  0  0  0  0
  6  8  1  0  0  0  0
  7 10  1  0  0  0  0
  8  9  1  0  0  0  0
  8  7  2  0  0  0  0
  9 11  1  0  0  0  0
 11 10  2  0  0  0  0
 12 14  1  0  0  0  0
 14 13  2  0  0  0  0
 15 14  1  0  0  0  0
 15 18  1  0  0  0  0
 16 19  1  0  0  0  0
 17 18  2  0  0  0  0
 18 16  1  0  0  0  0
 19 22  1  0  0  0  0
 21 23  1  0  0  0  0
 22 21  1  0  0  0  0
 22 20  2  0  0  0  0
 23 26  1  0  0  0  0
 23 24  1  6  0  0  0
 25 24  1  0  0  0  0
 27 28  1  0  0  0  0
 27 32  1  0  0  0  0
 27 29  1  1  0  0  0
 28 30  1  0  0  0  0
 30 31  1  0  0  0  0
 30 26  1  1  0  0  0
 31 33  1  1  0  0  0
 32 31  1  0  0  0  0
 32 29  1  1  0  0  0
 34 33  1  0  0  0  0
 34 36  1  0  0  0  0
 34 35  1  0  0  0  0
 37 34  2  0  0  0  0
 38  3  1  0  0  0  0
 39 38  1  0  0  0  0
 40 39  1  0  0  0  0
 41 40  1  0  0  0  0
 43 42  1  0  0  0  0
 43 51  1  1  0  0  0
 44 48  1  6  0  0  0
 44 42  1  0  0  0  0
 44 41  1  0  0  0  0
 45 50  1  6  0  0  0
 45 43  1  0  0  0  0
 46 45  1  0  0  0  0
 46 44  1  0  0  0  0
 47 48  1  0  0  0  0
 49 50  1  0  0  0  0
 52 51  1  0  0  0  0
 52 55  1  0  0  0  0
 55 57  1  0  0  0  0
 55 56  1  0  0  0  0
 56 59  1  0  0  0  0
 57 58  1  0  0  0  0
 58 59  1  0  0  0  0
 58 54  1  1  0  0  0
 59 53  1  6  0  0  0
M  END
>  <MODEL>
3

>  <REMARK>
 VINA RESULT:      -4.9      1.840      3.010
  Name = 
  22 active torsions:
  status: ('A' for Active; 'I' for Inactive)
    1  A    between atoms: C_2  and  C_25
    2  A    between atoms: C_3  and  N_33
    3  A    between atoms: P_6  and  O_19
    4  A    between atoms: N_7  and  C_47
    5  A    between atoms: C_8  and  N_17
    6  A    between atoms: C_15  and  O_34
    7  A    between atoms: C_15  and  C_49
    8  A    between atoms: N_18  and  C_41
    9  A    between atoms: O_19  and  C_48
   10  A    between atoms: C_20  and  C_23
   11  A    between atoms: C_21  and  O_51
   12  A    between atoms: C_22  and  C_23
   13  A    between atoms: C_22  and  O_34
   14  A    between atoms: C_25  and  N_39
   15  A    between atoms: C_25  and  O_51
   16  A    between atoms: C_28  and  C_50
   17  A    between atoms: C_28  and  C_56
   18  A    between atoms: C_29  and  C_55
   19  A    between atoms: C_31  and  C_49
   20  A    between atoms: C_40  and  C_46
   21  A    between atoms: C_41  and  C_46
   22  A    between atoms: C_43  and  C_47
                            x       y       z     vdW  Elec       q    Type
                         _______ _______ _______ _____ _____    ______ ____

>  <TORSDO>
F 22

$$$$
=
 OpenBabel11042421013D

 59 64  0  0  1  0  0  0  0  0999 V2000
  161.0700  203.7850  146.2500 C   0  0  0  0  0  0  0  0  0  0  0  0
  160.8420  205.0220  146.8480 C   0  0  0  0  0  0  0  0  0  0  0  0
  161.3760  205.7100  144.6940 C   0  0  0  0  0  0  0  0  0  0  0  0
  161.5080  204.0300  144.6460 S   0  0  0  0  0  0  0  0  0  0  0  0
  161.0170  206.1130  145.9820 C   0  0  0  0  0  3  0  0  0  0  0  0
  160.1340  201.0280  145.1430 C   0  0  0  0  0  1  0  0  0  0  0  0
  161.0360  200.3460  147.3690 N   0  0  0  0  0  0  0  0  0  0  0  0
  160.7700  201.3060  146.4680 C   0  0  0  0  0  0  0  0  0  0  0  0
  161.1160  202.5210  146.9330 N   0  0  0  0  0  0  0  0  0  0  0  0
  161.5750  201.0330  148.4050 C   0  0  0  0  0  3  0  0  0  0  0  0
  161.6240  202.3510  148.1430 N   0  0  0  0  0  0  0  0  0  0  0  0
  160.4210  205.1800  148.2030 N   0  0  0  0  0  2  0  0  0  0  0  0
  160.6850  206.0750  150.3210 O   0  0  0  0  0  0  0  0  0  0  0  0
  161.0520  206.0780  149.1160 C   0  0  0  0  0  0  0  0  0  0  0  0
  162.1710  206.9760  148.6590 C   0  0  0  0  0  2  0  0  0  0  0  0
  162.3470  208.6480  150.5460 N   0  0  0  0  0  2  0  0  0  0  0  0
  161.6290  209.2820  148.4130 O   0  0  0  0  0  0  0  0  0  0  0  0
  162.0420  208.3690  149.1800 C   0  0  0  0  0  0  0  0  0  0  0  0
  162.1270  209.9680  151.1140 C   0  0  0  0  0  2  0  0  0  0  0  0
  162.7390  210.5450  153.3310 O   0  0  0  0  0  0  0  0  0  0  0  0
  160.8790  209.1260  153.1550 N   0  0  0  0  0  2  0  0  0  0  0  0
  161.9580  209.8870  152.5950 C   0  0  0  0  0  0  0  0  0  0  0  0
  160.4300  209.1370  154.5510 C   0  0  2  0  0  3  0  0  0  0  0  0
  160.6010  207.8100  155.3010 C   0  0  0  0  0  2  0  0  0  0  0  0
  160.9140  206.7610  154.4300 O   0  0  0  0  0  1  0  0  0  0  0  0
  159.2400  209.8730  154.7780 O   0  0  0  0  0  0  0  0  0  0  0  0
  158.1290  212.0650  156.9720 C   0  0  2  0  0  3  0  0  0  0  0  0
  159.0790  211.0420  156.7430 O   0  0  0  0  0  0  0  0  0  0  0  0
  156.8460  211.7800  156.2050 C   0  0  0  0  0  2  0  0  0  0  0  0
  159.5250  211.1010  155.4040 C   0  0  2  0  0  3  0  0  0  0  0  0
  158.8310  212.2680  154.7090 C   0  0  2  0  0  3  0  0  0  0  0  0
  157.8410  212.8230  155.7000 C   0  0  2  0  0  3  0  0  0  0  0  0
  158.1760  211.8970  153.5210 O   0  0  0  0  0  0  0  0  0  0  0  0
  158.6150  213.0660  152.3640 P   0  0  0  0  0  0  0  0  0  0  0  0
  160.2920  213.0060  152.1290 O   0  0  0  0  0  1  0  0  0  0  0  0
  157.8480  212.7200  150.8950 O   0  0  0  0  0  0  0  0  0  0  0  0
  158.2260  214.4510  152.8330 O   0  0  0  0  0  1  0  0  0  0  0  0
  161.8140  206.6030  143.5810 C   0  0  0  0  0  2  0  0  0  0  0  0
  161.6250  205.9670  142.2170 C   0  0  0  0  0  2  0  0  0  0  0  0
  162.3970  206.6370  141.2650 O   0  0  0  0  0  0  0  0  0  0  0  0
  161.5700  207.6640  140.8020 C   0  0  0  0  0  2  0  0  0  0  0  0
  162.8060  208.8160  139.0880 O   0  0  0  0  0  0  0  0  0  0  0  0
  162.2330  210.0970  138.9670 C   0  0  1  0  0  3  0  0  0  0  0  0
  161.7560  207.8980  139.2950 C   0  0  2  0  0  0  0  0  0  0  0  0
  160.7290  209.9770  138.9270 C   0  0  2  0  0  3  0  0  0  0  0  0
  160.4970  208.5100  138.7280 C   0  0  0  0  0  2  0  0  0  0  0  0
  162.5050  206.8460  137.2570 O   0  0  0  0  0  1  0  0  0  0  0  0
  162.0780  206.5950  138.5610 C   0  0  0  0  0  2  0  0  0  0  0  0
  158.7570  210.7860  137.8480 O   0  0  0  0  0  1  0  0  0  0  0  0
  160.1510  210.7970  137.7790 C   0  0  0  0  0  2  0  0  0  0  0  0
  162.6430  210.9640  140.1470 C   0  0  0  0  0  2  0  0  0  0  0  0
  161.4330  211.6950  140.7090 C   0  0  0  0  0  2  0  0  0  0  0  0
  162.1460  214.1180  144.5900 C   0  0  0  0  0  1  0  0  0  0  0  0
  158.7610  213.2660  143.7520 C   0  0  0  0  0  1  0  0  0  0  0  0
  161.6650  211.9940  142.1120 N   0  0  0  0  0  0  0  0  0  0  0  0
  161.8540  213.4370  142.2260 C   0  0  0  0  0  2  0  0  0  0  0  0
  160.4310  211.6910  142.8290 C   0  0  0  0  0  2  0  0  0  0  0  0
  160.1980  212.7900  143.8450 C   0  0  1  0  0  3  0  0  0  0  0  0
  161.1400  213.9150  143.4720 C   0  0  1  0  0  3  0  0  0  0  0  0
  1  2  2  0  0  0  0
  1  9  1  0  0  0  0
  2 12  1  0  0  0  0
  3  5  2  0  0  0  0
  4  3  1  0  0  0  0
  4  1  1  0  0  0  0
  5  2  1  0  0  0  0
  6  8  1  0  0  0  0
  7 10  1  0  0  0  0
  8  9  1  0  0  0  0
  8  7  2  0  0  0  0
  9 11  1  0  0  0  0
 11 10  2  0  0  0  0
 12 14  1  0  0  0  0
 14 13  2  0  0  0  0
 15 14  1  0  0  0  0
 15 18  1  0  0  0  0
 16 19  1  0  0  0  0
 17 18  2  0  0  0  0
 18 16  1  0  0  0  0
 19 22  1  0  0  0  0
 21 23  1  0  0  0  0
 22 21  1  0  0  0  0
 22 20  2  0  0  0  0
 23 26  1  0  0  0  0
 23 24  1  6  0  0  0
 25 24  1  0  0  0  0
 27 29  1  6  0  0  0
 28 27  1  0  0  0  0
 30 26  1  6  0  0  0
 30 28  1  0  0  0  0
 31 33  1  6  0  0  0
 31 30  1  0  0  0  0
 31 32  1  0  0  0  0
 32 29  1  6  0  0  0
 32 27  1  0  0  0  0
 34 37  1  0  0  0  0
 34 33  1  0  0  0  0
 35 34  1  0  0  0  0
 36 34  2  0  0  0  0
 38  3  1  0  0  0  0
 39 38  1  0  0  0  0
 40 39  1  0  0  0  0
 41 40  1  0  0  0  0
 42 44  1  0  0  0  0
 43 42  1  0  0  0  0
 43 51  1  1  0  0  0
 44 48  1  6  0  0  0
 44 41  1  0  0  0  0
 45 50  1  6  0  0  0
 45 43  1  0  0  0  0
 46 45  1  0  0  0  0
 46 44  1  0  0  0  0
 47 48  1  0  0  0  0
 50 49  1  0  0  0  0
 51 52  1  0  0  0  0
 52 55  1  0  0  0  0
 55 56  1  0  0  0  0
 55 57  1  0  0  0  0
 56 59  1  0  0  0  0
 57 58  1  0  0  0  0
 58 54  1  6  0  0  0
 59 58  1  0  0  0  0
 59 53  1  1  0  0  0
M  END
>  <MODEL>
4

>  <REMARK>
 VINA RESULT:      -4.8      1.867      3.152
  Name = 
  22 active torsions:
  status: ('A' for Active; 'I' for Inactive)
    1  A    between atoms: C_2  and  C_25
    2  A    between atoms: C_3  and  N_33
    3  A    between atoms: P_6  and  O_19
    4  A    between atoms: N_7  and  C_47
    5  A    between atoms: C_8  and  N_17
    6  A    between atoms: C_15  and  O_34
    7  A    between atoms: C_15  and  C_49
    8  A    between atoms: N_18  and  C_41
    9  A    between atoms: O_19  and  C_48
   10  A    between atoms: C_20  and  C_23
   11  A    between atoms: C_21  and  O_51
   12  A    between atoms: C_22  and  C_23
   13  A    between atoms: C_22  and  O_34
   14  A    between atoms: C_25  and  N_39
   15  A    between atoms: C_25  and  O_51
   16  A    between atoms: C_28  and  C_50
   17  A    between atoms: C_28  and  C_56
   18  A    between atoms: C_29  and  C_55
   19  A    between atoms: C_31  and  C_49
   20  A    between atoms: C_40  and  C_46
   21  A    between atoms: C_41  and  C_46
   22  A    between atoms: C_43  and  C_47
                            x       y       z     vdW  Elec       q    Type
                         _______ _______ _______ _____ _____    ______ ____

>  <TORSDO>
F 22

$$$$
=
 OpenBabel11042421013D

 59 64  0  0  1  0  0  0  0  0999 V2000
  161.2900  209.5540  151.4650 C   0  0  0  0  0  0  0  0  0  0  0  0
  161.8920  209.9190  150.2640 C   0  0  0  0  0  0  0  0  0  0  0  0
  161.3780  207.7020  149.7970 C   0  0  0  0  0  0  0  0  0  0  0  0
  160.8400  207.9370  151.3770 S   0  0  0  0  0  0  0  0  0  0  0  0
  161.9530  208.8820  149.3190 C   0  0  0  0  0  3  0  0  0  0  0  0
  159.4040  211.9750  151.9950 C   0  0  0  0  0  1  0  0  0  0  0  0
  160.5940  211.8330  154.1850 N   0  0  0  0  0  0  0  0  0  0  0  0
  160.4010  211.3780  152.9370 C   0  0  0  0  0  0  0  0  0  0  0  0
  161.2360  210.3610  152.6540 N   0  0  0  0  0  0  0  0  0  0  0  0
  161.5800  211.0340  154.6590 C   0  0  0  0  0  3  0  0  0  0  0  0
  161.9720  210.1420  153.7320 N   0  0  0  0  0  0  0  0  0  0  0  0
  162.3660  211.2370  149.9860 N   0  0  0  0  0  2  0  0  0  0  0  0
  162.5080  213.0980  148.6160 O   0  0  0  0  0  0  0  0  0  0  0  0
  161.9580  211.9860  148.8410 C   0  0  0  0  0  0  0  0  0  0  0  0
  160.9280  211.4380  147.8910 C   0  0  0  0  0  2  0  0  0  0  0  0
  161.1980  212.4800  145.6050 N   0  0  0  0  0  2  0  0  0  0  0  0
  159.5770  213.2380  147.1100 O   0  0  0  0  0  0  0  0  0  0  0  0
  160.5110  212.4290  146.8550 C   0  0  0  0  0  0  0  0  0  0  0  0
  160.8930  213.5030  144.6170 C   0  0  0  0  0  2  0  0  0  0  0  0
  162.4410  212.5810  143.0770 O   0  0  0  0  0  0  0  0  0  0  0  0
  160.3380  213.0980  142.1760 N   0  0  0  0  0  2  0  0  0  0  0  0
  161.2870  213.0530  143.2500 C   0  0  0  0  0  0  0  0  0  0  0  0
  160.4790  212.4810  140.8530 C   0  0  2  0  0  3  0  0  0  0  0  0
  161.1670  213.3540  139.7970 C   0  0  0  0  0  2  0  0  0  0  0  0
  162.5530  213.3950  139.9840 O   0  0  0  0  0  1  0  0  0  0  0  0
  159.3620  211.7090  140.4440 O   0  0  0  0  0  0  0  0  0  0  0  0
  157.1430  211.3740  138.0330 C   0  0  2  0  0  3  0  0  0  0  0  0
  157.8690  212.3070  138.8120 O   0  0  0  0  0  0  0  0  0  0  0  0
  156.8500  210.1200  138.8430 C   0  0  0  0  0  2  0  0  0  0  0  0
  159.1680  211.8100  139.0540 C   0  0  2  0  0  3  0  0  0  0  0  0
  159.3130  210.4590  138.3600 C   0  0  2  0  0  3  0  0  0  0  0  0
  157.9580  210.1290  137.7920 C   0  0  2  0  0  3  0  0  0  0  0  0
  159.7440  209.4350  139.2230 O   0  0  0  0  0  0  0  0  0  0  0  0
  161.3490  209.0930  138.7720 P   0  0  0  0  0  0  0  0  0  0  0  0
  161.3950  207.5860  137.9970 O   0  0  0  0  0  1  0  0  0  0  0  0
  161.8930  210.2760  137.6900 O   0  0  0  0  0  0  0  0  0  0  0  0
  162.2480  209.0570  139.9880 O   0  0  0  0  0  1  0  0  0  0  0  0
  161.4310  206.3660  149.1340 C   0  0  0  0  0  2  0  0  0  0  0  0
  162.2290  206.3880  147.8450 C   0  0  0  0  0  2  0  0  0  0  0  0
  162.8340  205.1460  147.6340 O   0  0  0  0  0  0  0  0  0  0  0  0
  162.8890  205.0130  146.2440 C   0  0  0  0  0  2  0  0  0  0  0  0
  160.5560  204.6180  146.6810 O   0  0  0  0  0  0  0  0  0  0  0  0
  160.4050  203.2270  146.8480 C   0  0  1  0  0  3  0  0  0  0  0  0
  161.4880  204.8230  145.6430 C   0  0  2  0  0  0  0  0  0  0  0  0
  161.1490  202.5030  145.7530 C   0  0  2  0  0  3  0  0  0  0  0  0
  161.4830  203.5870  144.7750 C   0  0  0  0  0  2  0  0  0  0  0  0
  161.3420  205.8530  143.4660 O   0  0  0  0  0  1  0  0  0  0  0  0
  161.0610  206.0400  144.8190 C   0  0  0  0  0  2  0  0  0  0  0  0
  159.1690  202.0210  144.5060 O   0  0  0  0  0  1  0  0  0  0  0  0
  160.2720  201.4280  145.1220 C   0  0  0  0  0  2  0  0  0  0  0  0
  160.9520  202.8040  148.2020 C   0  0  0  0  0  2  0  0  0  0  0  0
  160.0280  201.7820  148.8470 C   0  0  0  0  0  2  0  0  0  0  0  0
  162.9680  201.2040  152.3780 C   0  0  0  0  0  1  0  0  0  0  0  0
  161.2870  204.3640  152.1060 C   0  0  0  0  0  1  0  0  0  0  0  0
  160.5260  201.4600  150.1740 N   0  0  0  0  0  0  0  0  0  0  0  0
  161.9790  201.6080  150.1430 C   0  0  0  0  0  2  0  0  0  0  0  0
  160.0360  202.4910  151.0830 C   0  0  0  0  0  2  0  0  0  0  0  0
  161.1600  202.8550  152.0300 C   0  0  1  0  0  3  0  0  0  0  0  0
  162.4200  202.2600  151.4360 C   0  0  1  0  0  3  0  0  0  0  0  0
  1  9  1  0  0  0  0
  2  1  2  0  0  0  0
  3  4  1  0  0  0  0
  4  1  1  0  0  0  0
  5  3  2  0  0  0  0
  5  2  1  0  0  0  0
  6  8  1  0  0  0  0
  7 10  1  0  0  0  0
  8  7  2  0  0  0  0
  9  8  1  0  0  0  0
  9 11  1  0  0  0  0
 11 10  2  0  0  0  0
 12  2  1  0  0  0  0
 13 14  2  0  0  0  0
 14 12  1  0  0  0  0
 15 14  1  0  0  0  0
 16 18  1  0  0  0  0
 18 17  2  0  0  0  0
 18 15  1  0  0  0  0
 19 16  1  0  0  0  0
 20 22  2  0  0  0  0
 21 22  1  0  0  0  0
 22 19  1  0  0  0  0
 23 24  1  6  0  0  0
 23 21  1  0  0  0  0
 24 25  1  0  0  0  0
 26 23  1  0  0  0  0
 27 28  1  0  0  0  0
 27 29  1  1  0  0  0
 28 30  1  0  0  0  0
 30 26  1  1  0  0  0
 31 30  1  0  0  0  0
 31 33  1  1  0  0  0
 32 27  1  0  0  0  0
 32 31  1  0  0  0  0
 32 29  1  1  0  0  0
 34 33  1  0  0  0  0
 34 37  1  0  0  0  0
 35 34  1  0  0  0  0
 36 34  2  0  0  0  0
 38  3  1  0  0  0  0
 39 38  1  0  0  0  0
 40 39  1  0  0  0  0
 41 40  1  0  0  0  0
 42 43  1  0  0  0  0
 43 51  1  1  0  0  0
 44 48  1  6  0  0  0
 44 41  1  0  0  0  0
 44 42  1  0  0  0  0
 45 50  1  6  0  0  0
 45 43  1  0  0  0  0
 46 44  1  0  0  0  0
 46 45  1  0  0  0  0
 47 48  1  0  0  0  0
 49 50  1  0  0  0  0
 51 52  1  0  0  0  0
 52 55  1  0  0  0  0
 55 57  1  0  0  0  0
 56 55  1  0  0  0  0
 56 59  1  0  0  0  0
 57 58  1  0  0  0  0
 58 54  1  6  0  0  0
 59 58  1  0  0  0  0
 59 53  1  1  0  0  0
M  END
>  <MODEL>
5

>  <REMARK>
 VINA RESULT:      -4.7      3.859     10.716
  Name = 
  22 active torsions:
  status: ('A' for Active; 'I' for Inactive)
    1  A    between atoms: C_2  and  C_25
    2  A    between atoms: C_3  and  N_33
    3  A    between atoms: P_6  and  O_19
    4  A    between atoms: N_7  and  C_47
    5  A    between atoms: C_8  and  N_17
    6  A    between atoms: C_15  and  O_34
    7  A    between atoms: C_15  and  C_49
    8  A    between atoms: N_18  and  C_41
    9  A    between atoms: O_19  and  C_48
   10  A    between atoms: C_20  and  C_23
   11  A    between atoms: C_21  and  O_51
   12  A    between atoms: C_22  and  C_23
   13  A    between atoms: C_22  and  O_34
   14  A    between atoms: C_25  and  N_39
   15  A    between atoms: C_25  and  O_51
   16  A    between atoms: C_28  and  C_50
   17  A    between atoms: C_28  and  C_56
   18  A    between atoms: C_29  and  C_55
   19  A    between atoms: C_31  and  C_49
   20  A    between atoms: C_40  and  C_46
   21  A    between atoms: C_41  and  C_46
   22  A    between atoms: C_43  and  C_47
                            x       y       z     vdW  Elec       q    Type
                         _______ _______ _______ _____ _____    ______ ____

>  <TORSDO>
F 22

$$$$
=
 OpenBabel11042421013D

 59 64  0  0  1  0  0  0  0  0999 V2000
  160.5550  211.0460  151.8140 C   0  0  0  0  0  0  0  0  0  0  0  0
  161.2680  211.4930  150.7060 C   0  0  0  0  0  0  0  0  0  0  0  0
  161.9040  209.2590  150.7150 C   0  0  0  0  0  0  0  0  0  0  0  0
  160.8800  209.4130  152.0460 S   0  0  0  0  0  0  0  0  0  0  0  0
  162.0370  210.4960  150.0820 C   0  0  0  0  0  3  0  0  0  0  0  0
  160.9440  211.2350  154.8990 C   0  0  0  0  0  1  0  0  0  0  0  0
  159.1710  212.9580  154.5540 N   0  0  0  0  0  0  0  0  0  0  0  0
  159.9940  212.0230  154.0540 C   0  0  0  0  0  0  0  0  0  0  0  0
  159.8180  211.8770  152.7270 N   0  0  0  0  0  0  0  0  0  0  0  0
  158.4910  213.3890  153.4650 C   0  0  0  0  0  3  0  0  0  0  0  0
  158.8810  212.7340  152.3560 N   0  0  0  0  0  0  0  0  0  0  0  0
  161.1990  212.8290  150.2070 N   0  0  0  0  0  2  0  0  0  0  0  0
  161.0920  214.3420  148.4580 O   0  0  0  0  0  0  0  0  0  0  0  0
  161.0350  213.1370  148.8220 C   0  0  0  0  0  0  0  0  0  0  0  0
  160.8500  212.0400  147.8090 C   0  0  0  0  0  2  0  0  0  0  0  0
  160.8310  212.8550  145.4160 N   0  0  0  0  0  2  0  0  0  0  0  0
  158.8520  212.5890  146.6340 O   0  0  0  0  0  0  0  0  0  0  0  0
  160.1100  212.4940  146.5940 C   0  0  0  0  0  0  0  0  0  0  0  0
  160.1520  213.4060  144.2550 C   0  0  0  0  0  2  0  0  0  0  0  0
  161.9700  212.5730  142.9830 O   0  0  0  0  0  0  0  0  0  0  0  0
  159.9240  212.6680  141.8390 N   0  0  0  0  0  2  0  0  0  0  0  0
  160.7500  212.8810  142.9930 C   0  0  0  0  0  0  0  0  0  0  0  0
  160.2930  211.9430  140.6180 C   0  0  2  0  0  3  0  0  0  0  0  0
  161.1530  212.7340  139.6260 C   0  0  0  0  0  2  0  0  0  0  0  0
  162.2670  213.3070  140.2490 O   0  0  0  0  0  1  0  0  0  0  0  0
  159.2640  211.1240  140.0900 O   0  0  0  0  0  0  0  0  0  0  0  0
  157.4380  210.5840  137.4010 C   0  0  2  0  0  3  0  0  0  0  0  0
  158.0060  211.5820  138.2300 O   0  0  0  0  0  0  0  0  0  0  0  0
  157.0770  209.3550  138.2210 C   0  0  0  0  0  2  0  0  0  0  0  0
  159.2730  211.1550  138.6830 C   0  0  2  0  0  3  0  0  0  0  0  0
  159.5700  209.7830  138.0860 C   0  0  2  0  0  3  0  0  0  0  0  0
  158.3270  209.3670  137.3430 C   0  0  2  0  0  3  0  0  0  0  0  0
  159.9070  208.8180  139.0520 O   0  0  0  0  0  0  0  0  0  0  0  0
  161.5810  208.5610  138.8860 P   0  0  0  0  0  0  0  0  0  0  0  0
  161.9150  206.9190  139.1440 O   0  0  0  0  0  1  0  0  0  0  0  0
  162.0600  208.9710  137.3150 O   0  0  0  0  0  0  0  0  0  0  0  0
  162.3500  209.3900  139.8910 O   0  0  0  0  0  1  0  0  0  0  0  0
  162.7090  208.0340  150.4330 C   0  0  0  0  0  2  0  0  0  0  0  0
  161.9790  206.7590  150.8110 C   0  0  0  0  0  2  0  0  0  0  0  0
  161.3450  206.2200  149.6880 O   0  0  0  0  0  0  0  0  0  0  0  0
  160.4130  205.3190  150.2110 C   0  0  0  0  0  2  0  0  0  0  0  0
  161.9260  203.5080  149.7370 O   0  0  0  0  0  0  0  0  0  0  0  0
  161.1810  202.5250  149.0550 C   0  0  1  0  0  3  0  0  0  0  0  0
  161.0970  204.0490  150.7410 C   0  0  2  0  0  0  0  0  0  0  0  0
  159.8650  202.3070  149.7620 C   0  0  2  0  0  3  0  0  0  0  0  0
  160.0440  203.0170  151.0690 C   0  0  0  0  0  2  0  0  0  0  0  0
  161.1790  204.9660  152.9720 O   0  0  0  0  0  1  0  0  0  0  0  0
  161.9410  204.3440  151.9830 C   0  0  0  0  0  2  0  0  0  0  0  0
  160.7850  200.1030  149.8020 O   0  0  0  0  0  1  0  0  0  0  0  0
  159.5990  200.8200  149.9630 C   0  0  0  0  0  2  0  0  0  0  0  0
  160.9220  202.9700  147.6230 C   0  0  0  0  0  2  0  0  0  0  0  0
  162.0910  202.5790  146.7320 C   0  0  0  0  0  2  0  0  0  0  0  0
  161.0010  205.8500  143.6400 C   0  0  0  0  0  1  0  0  0  0  0  0
  162.0600  206.9200  146.8990 C   0  0  0  0  0  1  0  0  0  0  0  0
  162.2380  203.5700  145.6790 N   0  0  0  0  0  0  0  0  0  0  0  0
  160.9030  204.0590  145.3490 C   0  0  0  0  0  2  0  0  0  0  0  0
  162.9540  204.7060  146.2500 C   0  0  0  0  0  2  0  0  0  0  0  0
  162.3040  205.9750  145.7390 C   0  0  1  0  0  3  0  0  0  0  0  0
  160.9830  205.5540  145.1290 C   0  0  1  0  0  3  0  0  0  0  0  0
  1  4  1  0  0  0  0
  1  9  1  0  0  0  0
  2  1  2  0  0  0  0
  3  4  1  0  0  0  0
  5  2  1  0  0  0  0
  5  3  2  0  0  0  0
  8  7  2  0  0  0  0
  8  6  1  0  0  0  0
  9  8  1  0  0  0  0
 10  7  1  0  0  0  0
 11  9  1  0  0  0  0
 11 10  2  0  0  0  0
 12  2  1  0  0  0  0
 13 14  2  0  0  0  0
 14 12  1  0  0  0  0
 15 14  1  0  0  0  0
 16 18  1  0  0  0  0
 18 17  2  0  0  0  0
 18 15  1  0  0  0  0
 19 16  1  0  0  0  0
 20 22  2  0  0  0  0
 21 22  1  0  0  0  0
 22 19  1  0  0  0  0
 23 24  1  6  0  0  0
 23 21  1  0  0  0  0
 24 25  1  0  0  0  0
 26 23  1  0  0  0  0
 27 29  1  1  0  0  0
 27 28  1  0  0  0  0
 28 30  1  0  0  0  0
 30 26  1  1  0  0  0
 31 30  1  0  0  0  0
 31 33  1  1  0  0  0
 32 27  1  0  0  0  0
 32 31  1  0  0  0  0
 32 29  1  1  0  0  0
 34 33  1  0  0  0  0
 34 35  1  0  0  0  0
 34 37  1  0  0  0  0
 36 34  2  0  0  0  0
 38  3  1  0  0  0  0
 38 39  1  0  0  0  0
 40 41  1  0  0  0  0
 40 39  1  0  0  0  0
 42 44  1  0  0  0  0
 43 51  1  6  0  0  0
 43 42  1  0  0  0  0
 43 45  1  0  0  0  0
 44 41  1  6  0  0  0
 44 46  1  0  0  0  0
 44 48  1  0  0  0  0
 45 50  1  1  0  0  0
 45 46  1  0  0  0  0
 48 47  1  0  0  0  0
 49 50  1  0  0  0  0
 52 51  1  0  0  0  0
 55 57  1  0  0  0  0
 55 52  1  0  0  0  0
 56 55  1  0  0  0  0
 58 57  1  0  0  0  0
 58 54  1  1  0  0  0
 59 53  1  6  0  0  0
 59 56  1  0  0  0  0
 59 58  1  0  0  0  0
M  END
>  <MODEL>
6

>  <REMARK>
 VINA RESULT:      -4.5      3.718     11.241
  Name = 
  22 active torsions:
  status: ('A' for Active; 'I' for Inactive)
    1  A    between atoms: C_2  and  C_25
    2  A    between atoms: C_3  and  N_33
    3  A    between atoms: P_6  and  O_19
    4  A    between atoms: N_7  and  C_47
    5  A    between atoms: C_8  and  N_17
    6  A    between atoms: C_15  and  O_34
    7  A    between atoms: C_15  and  C_49
    8  A    between atoms: N_18  and  C_41
    9  A    between atoms: O_19  and  C_48
   10  A    between atoms: C_20  and  C_23
   11  A    between atoms: C_21  and  O_51
   12  A    between atoms: C_22  and  C_23
   13  A    between atoms: C_22  and  O_34
   14  A    between atoms: C_25  and  N_39
   15  A    between atoms: C_25  and  O_51
   16  A    between atoms: C_28  and  C_50
   17  A    between atoms: C_28  and  C_56
   18  A    between atoms: C_29  and  C_55
   19  A    between atoms: C_31  and  C_49
   20  A    between atoms: C_40  and  C_46
   21  A    between atoms: C_41  and  C_46
   22  A    between atoms: C_43  and  C_47
                            x       y       z     vdW  Elec       q    Type
                         _______ _______ _______ _____ _____    ______ ____

>  <TORSDO>
F 22

$$$$
=
 OpenBabel11042421013D

 59 64  0  0  1  0  0  0  0  0999 V2000
  161.4130  209.5570  151.5690 C   0  0  0  0  0  0  0  0  0  0  0  0
  162.0170  209.9970  150.3940 C   0  0  0  0  0  0  0  0  0  0  0  0
  161.8700  207.7240  149.9410 C   0  0  0  0  0  0  0  0  0  0  0  0
  161.2180  207.8890  151.4870 S   0  0  0  0  0  0  0  0  0  0  0  0
  162.2850  208.9720  149.4730 C   0  0  0  0  0  3  0  0  0  0  0  0
  159.0440  211.5260  152.0310 C   0  0  0  0  0  1  0  0  0  0  0  0
  160.2120  211.6900  154.2310 N   0  0  0  0  0  0  0  0  0  0  0  0
  160.1350  211.1770  152.9920 C   0  0  0  0  0  0  0  0  0  0  0  0
  161.1730  210.3580  152.7380 N   0  0  0  0  0  0  0  0  0  0  0  0
  161.3410  211.1320  154.7290 C   0  0  0  0  0  3  0  0  0  0  0  0
  161.9260  210.3250  153.8260 N   0  0  0  0  0  0  0  0  0  0  0  0
  162.3010  211.3690  150.1170 N   0  0  0  0  0  2  0  0  0  0  0  0
  162.2720  213.2050  148.7080 O   0  0  0  0  0  0  0  0  0  0  0  0
  161.8860  212.0240  148.9190 C   0  0  0  0  0  0  0  0  0  0  0  0
  161.0440  211.3020  147.9010 C   0  0  0  0  0  2  0  0  0  0  0  0
  161.4710  212.4960  145.7150 N   0  0  0  0  0  2  0  0  0  0  0  0
  159.4310  212.6980  146.8420 O   0  0  0  0  0  0  0  0  0  0  0  0
  160.5860  212.1930  146.7940 C   0  0  0  0  0  0  0  0  0  0  0  0
  161.0980  213.4460  144.6780 C   0  0  0  0  0  2  0  0  0  0  0  0
  163.1100  212.9520  143.5250 O   0  0  0  0  0  0  0  0  0  0  0  0
  161.2170  213.1830  142.1580 N   0  0  0  0  0  2  0  0  0  0  0  0
  161.8790  213.2010  143.4310 C   0  0  0  0  0  0  0  0  0  0  0  0
  161.7780  212.7260  140.8830 C   0  0  2  0  0  3  0  0  0  0  0  0
  162.8220  213.6600  140.2590 C   0  0  0  0  0  2  0  0  0  0  0  0
  163.0280  213.3740  138.9050 O   0  0  0  0  0  1  0  0  0  0  0  0
  160.8390  212.1150  140.0150 O   0  0  0  0  0  0  0  0  0  0  0  0
  161.8730  209.1270  139.0900 C   0  0  2  0  0  3  0  0  0  0  0  0
  161.9900  210.1340  140.0780 O   0  0  0  0  0  0  0  0  0  0  0  0
  161.5970  209.7480  137.7290 C   0  0  0  0  0  2  0  0  0  0  0  0
  160.7300  210.7380  140.2870 C   0  0  2  0  0  3  0  0  0  0  0  0
  159.7060  210.0590  139.3840 C   0  0  2  0  0  3  0  0  0  0  0  0
  160.4750  209.0880  138.5270 C   0  0  2  0  0  3  0  0  0  0  0  0
  158.9910  210.9630  138.5770 O   0  0  0  0  0  0  0  0  0  0  0  0
  157.6140  210.1180  138.0420 P   0  0  0  0  0  0  0  0  0  0  0  0
  158.1020  208.8620  137.0140 O   0  0  0  0  0  0  0  0  0  0  0  0
  156.8130  209.4480  139.3750 O   0  0  0  0  0  1  0  0  0  0  0  0
  156.6800  211.0420  137.2930 O   0  0  0  0  0  1  0  0  0  0  0  0
  162.1590  206.4040  149.3060 C   0  0  0  0  0  2  0  0  0  0  0  0
  162.5290  206.5330  147.8410 C   0  0  0  0  0  2  0  0  0  0  0  0
  163.1780  205.3740  147.4070 O   0  0  0  0  0  0  0  0  0  0  0  0
  162.7000  205.1690  146.1100 C   0  0  0  0  0  2  0  0  0  0  0  0
  160.8070  204.2330  147.2650 O   0  0  0  0  0  0  0  0  0  0  0  0
  160.7700  202.8630  146.9380 C   0  0  1  0  0  3  0  0  0  0  0  0
  161.1810  204.9380  146.1020 C   0  0  2  0  0  0  0  0  0  0  0  0
  160.9660  202.6930  145.4510 C   0  0  2  0  0  3  0  0  0  0  0  0
  160.8140  204.0830  144.9130 C   0  0  0  0  0  2  0  0  0  0  0  0
  160.1080  206.6120  144.7350 O   0  0  0  0  0  1  0  0  0  0  0  0
  160.4130  206.2600  146.0500 C   0  0  0  0  0  2  0  0  0  0  0  0
  160.4340  200.4550  144.8060 O   0  0  0  0  0  1  0  0  0  0  0  0
  159.9180  201.7490  144.8720 C   0  0  0  0  0  2  0  0  0  0  0  0
  161.8670  202.1200  147.6840 C   0  0  0  0  0  2  0  0  0  0  0  0
  161.2990  200.8790  148.3560 C   0  0  0  0  0  2  0  0  0  0  0  0
  161.2360  202.6410  152.6380 C   0  0  0  0  0  1  0  0  0  0  0  0
  159.9720  204.6860  149.9730 C   0  0  0  0  0  1  0  0  0  0  0  0
  160.8240  201.2320  149.6840 N   0  0  0  0  0  0  0  0  0  0  0  0
  161.9310  201.8730  150.3880 C   0  0  0  0  0  2  0  0  0  0  0  0
  159.8020  202.2600  149.5190 C   0  0  0  0  0  2  0  0  0  0  0  0
  160.0100  203.3050  150.5960 C   0  0  1  0  0  3  0  0  0  0  0  0
  161.3810  203.0390  151.1810 C   0  0  1  0  0  3  0  0  0  0  0  0
  1  9  1  0  0  0  0
  2  1  2  0  0  0  0
  3  4  1  0  0  0  0
  4  1  1  0  0  0  0
  5  3  2  0  0  0  0
  5  2  1  0  0  0  0
  6  8  1  0  0  0  0
  7 10  1  0  0  0  0
  8  7  2  0  0  0  0
  9  8  1  0  0  0  0
  9 11  1  0  0  0  0
 11 10  2  0  0  0  0
 12  2  1  0  0  0  0
 13 14  2  0  0  0  0
 14 12  1  0  0  0  0
 15 14  1  0  0  0  0
 16 18  1  0  0  0  0
 18 17  2  0  0  0  0
 18 15  1  0  0  0  0
 19 16  1  0  0  0  0
 21 22  1  0  0  0  0
 22 20  2  0  0  0  0
 22 19  1  0  0  0  0
 23 24  1  6  0  0  0
 23 21  1  0  0  0  0
 25 24  1  0  0  0  0
 26 23  1  0  0  0  0
 27 29  1  6  0  0  0
 27 28  1  0  0  0  0
 28 30  1  0  0  0  0
 30 26  1  6  0  0  0
 31 33  1  6  0  0  0
 31 30  1  0  0  0  0
 32 29  1  6  0  0  0
 32 27  1  0  0  0  0
 32 31  1  0  0  0  0
 34 33  1  0  0  0  0
 34 36  1  0  0  0  0
 35 34  2  0  0  0  0
 37 34  1  0  0  0  0
 38  3  1  0  0  0  0
 39 38  1  0  0  0  0
 40 39  1  0  0  0  0
 41 40  1  0  0  0  0
 43 42  1  0  0  0  0
 43 51  1  1  0  0  0
 44 48  1  6  0  0  0
 44 41  1  0  0  0  0
 44 42  1  0  0  0  0
 45 50  1  6  0  0  0
 45 43  1  0  0  0  0
 46 45  1  0  0  0  0
 46 44  1  0  0  0  0
 47 48  1  0  0  0  0
 49 50  1  0  0  0  0
 51 52  1  0  0  0  0
 52 55  1  0  0  0  0
 55 56  1  0  0  0  0
 56 59  1  0  0  0  0
 57 55  1  0  0  0  0
 57 58  1  0  0  0  0
 58 54  1  6  0  0  0
 58 59  1  0  0  0  0
 59 53  1  1  0  0  0
M  END
>  <MODEL>
7

>  <REMARK>
 VINA RESULT:      -4.3      3.862     10.802
  Name = 
  22 active torsions:
  status: ('A' for Active; 'I' for Inactive)
    1  A    between atoms: C_2  and  C_25
    2  A    between atoms: C_3  and  N_33
    3  A    between atoms: P_6  and  O_19
    4  A    between atoms: N_7  and  C_47
    5  A    between atoms: C_8  and  N_17
    6  A    between atoms: C_15  and  O_34
    7  A    between atoms: C_15  and  C_49
    8  A    between atoms: N_18  and  C_41
    9  A    between atoms: O_19  and  C_48
   10  A    between atoms: C_20  and  C_23
   11  A    between atoms: C_21  and  O_51
   12  A    between atoms: C_22  and  C_23
   13  A    between atoms: C_22  and  O_34
   14  A    between atoms: C_25  and  N_39
   15  A    between atoms: C_25  and  O_51
   16  A    between atoms: C_28  and  C_50
   17  A    between atoms: C_28  and  C_56
   18  A    between atoms: C_29  and  C_55
   19  A    between atoms: C_31  and  C_49
   20  A    between atoms: C_40  and  C_46
   21  A    between atoms: C_41  and  C_46
   22  A    between atoms: C_43  and  C_47
                            x       y       z     vdW  Elec       q    Type
                         _______ _______ _______ _____ _____    ______ ____

>  <TORSDO>
F 22

$$$$
=
 OpenBabel11042421013D

 59 64  0  0  1  0  0  0  0  0999 V2000
  161.4880  206.7480  147.8180 C   0  0  0  0  0  0  0  0  0  0  0  0
  160.9330  206.9560  149.0780 C   0  0  0  0  0  0  0  0  0  0  0  0
  162.0510  208.9720  148.7940 C   0  0  0  0  0  0  0  0  0  0  0  0
  162.3900  208.1010  147.3920 S   0  0  0  0  0  0  0  0  0  0  0  0
  161.2490  208.2030  149.6400 C   0  0  0  0  0  3  0  0  0  0  0  0
  160.1950  206.2590  145.0270 C   0  0  0  0  0  1  0  0  0  0  0  0
  161.1970  204.0150  145.4680 N   0  0  0  0  0  0  0  0  0  0  0  0
  160.9590  205.2780  145.8580 C   0  0  0  0  0  0  0  0  0  0  0  0
  161.4610  205.5110  147.0850 N   0  0  0  0  0  0  0  0  0  0  0  0
  161.8830  203.4910  146.5100 C   0  0  0  0  0  3  0  0  0  0  0  0
  162.0430  204.3950  147.4930 N   0  0  0  0  0  0  0  0  0  0  0  0
  160.0800  206.0160  149.7320 N   0  0  0  0  0  2  0  0  0  0  0  0
  159.7430  204.2480  151.1880 O   0  0  0  0  0  0  0  0  0  0  0  0
  160.5400  205.1170  150.7410 C   0  0  0  0  0  0  0  0  0  0  0  0
  161.9630  205.1700  151.2270 C   0  0  0  0  0  2  0  0  0  0  0  0
  160.9420  206.0670  153.3580 N   0  0  0  0  0  2  0  0  0  0  0  0
  163.2290  206.2740  152.9160 O   0  0  0  0  0  0  0  0  0  0  0  0
  162.0980  205.8560  152.5470 C   0  0  0  0  0  0  0  0  0  0  0  0
  161.0180  206.8270  154.5950 C   0  0  0  0  0  2  0  0  0  0  0  0
  160.8780  209.0900  155.2890 O   0  0  0  0  0  0  0  0  0  0  0  0
  160.2770  208.7010  153.0540 N   0  0  0  0  0  2  0  0  0  0  0  0
  160.7030  208.2660  154.3530 C   0  0  0  0  0  0  0  0  0  0  0  0
  160.1630  210.0860  152.5870 C   0  0  2  0  0  3  0  0  0  0  0  0
  161.4480  210.6830  152.0000 C   0  0  0  0  0  2  0  0  0  0  0  0
  162.5790  210.2880  152.7230 O   0  0  0  0  0  1  0  0  0  0  0  0
  159.3660  210.9190  153.4120 O   0  0  0  0  0  0  0  0  0  0  0  0
  158.8570  213.4050  151.3110 C   0  0  2  0  0  3  0  0  0  0  0  0
  158.9630  211.9990  151.4310 O   0  0  0  0  0  0  0  0  0  0  0  0
  159.7530  214.0940  152.3300 C   0  0  0  0  0  2  0  0  0  0  0  0
  158.3860  211.5840  152.6510 C   0  0  2  0  0  3  0  0  0  0  0  0
  157.8380  212.8090  153.3760 C   0  0  2  0  0  3  0  0  0  0  0  0
  158.2460  214.0040  152.5530 C   0  0  2  0  0  3  0  0  0  0  0  0
  158.3170  212.9360  154.6920 O   0  0  0  0  0  0  0  0  0  0  0  0
  156.9370  212.9460  155.6890 P   0  0  0  0  0  0  0  0  0  0  0  0
  155.6090  213.4900  154.7870 O   0  0  0  0  0  0  0  0  0  0  0  0
  156.6200  211.3710  156.2250 O   0  0  0  0  0  1  0  0  0  0  0  0
  157.1440  213.8610  156.8760 O   0  0  0  0  0  1  0  0  0  0  0  0
  162.7160  210.2620  149.1440 C   0  0  0  0  0  2  0  0  0  0  0  0
  162.0650  211.4530  148.4680 C   0  0  0  0  0  2  0  0  0  0  0  0
  160.7600  211.1330  148.0860 O   0  0  0  0  0  0  0  0  0  0  0  0
  160.7280  211.3740  146.7100 C   0  0  0  0  0  2  0  0  0  0  0  0
  159.6990  213.0030  145.2670 O   0  0  0  0  0  0  0  0  0  0  0  0
  160.5460  213.1480  144.1510 C   0  0  1  0  0  3  0  0  0  0  0  0
  160.5170  212.8660  146.4070 C   0  0  2  0  0  0  0  0  0  0  0  0
  161.9770  213.2780  144.6140 C   0  0  2  0  0  3  0  0  0  0  0  0
  161.8500  213.5020  146.0910 C   0  0  0  0  0  2  0  0  0  0  0  0
  158.6540  214.1750  147.2040 O   0  0  0  0  0  1  0  0  0  0  0  0
  159.8610  213.5900  147.5840 C   0  0  0  0  0  2  0  0  0  0  0  0
  164.0020  214.1380  143.6850 O   0  0  0  0  0  1  0  0  0  0  0  0
  162.6640  214.4510  143.9260 C   0  0  0  0  0  2  0  0  0  0  0  0
  160.4150  211.9380  143.2380 C   0  0  0  0  0  2  0  0  0  0  0  0
  160.1800  212.3850  141.8030 C   0  0  0  0  0  2  0  0  0  0  0  0
  161.4660  209.5330  138.3880 C   0  0  0  0  0  1  0  0  0  0  0  0
  161.3120  213.0450  137.6610 C   0  0  0  0  0  1  0  0  0  0  0  0
  161.0310  211.6070  140.9170 N   0  0  0  0  0  0  0  0  0  0  0  0
  160.1560  210.8290  140.0440 C   0  0  0  0  0  2  0  0  0  0  0  0
  161.7290  212.5510  140.0500 C   0  0  0  0  0  2  0  0  0  0  0  0
  161.7430  211.9770  138.6480 C   0  0  1  0  0  3  0  0  0  0  0  0
  160.7410  210.8410  138.6490 C   0  0  1  0  0  3  0  0  0  0  0  0
  1  2  2  0  0  0  0
  2  5  1  0  0  0  0
  2 12  1  0  0  0  0
  3 38  1  0  0  0  0
  3  5  2  0  0  0  0
  4  1  1  0  0  0  0
  4  3  1  0  0  0  0
  6  8  1  0  0  0  0
  7  8  2  0  0  0  0
  7 10  1  0  0  0  0
  8  9  1  0  0  0  0
  9 11  1  0  0  0  0
  9  1  1  0  0  0  0
 10 11  2  0  0  0  0
 12 14  1  0  0  0  0
 14 13  2  0  0  0  0
 14 15  1  0  0  0  0
 15 18  1  0  0  0  0
 16 19  1  0  0  0  0
 18 17  2  0  0  0  0
 18 16  1  0  0  0  0
 21 22  1  0  0  0  0
 22 19  1  0  0  0  0
 22 20  2  0  0  0  0
 23 24  1  1  0  0  0
 23 21  1  0  0  0  0
 23 26  1  0  0  0  0
 24 25  1  0  0  0  0
 27 28  1  0  0  0  0
 27 29  1  1  0  0  0
 27 32  1  0  0  0  0
 28 30  1  0  0  0  0
 30 31  1  0  0  0  0
 30 26  1  1  0  0  0
 31 33  1  1  0  0  0
 32 29  1  1  0  0  0
 32 31  1  0  0  0  0
 33 34  1  0  0  0  0
 34 36  1  0  0  0  0
 34 37  1  0  0  0  0
 35 34  2  0  0  0  0
 39 38  1  0  0  0  0
 40 39  1  0  0  0  0
 41 40  1  0  0  0  0
 42 44  1  0  0  0  0
 43 51  1  6  0  0  0
 43 45  1  0  0  0  0
 43 42  1  0  0  0  0
 44 41  1  1  0  0  0
 44 48  1  0  0  0  0
 45 50  1  6  0  0  0
 45 46  1  0  0  0  0
 46 44  1  0  0  0  0
 47 48  1  0  0  0  0
 49 50  1  0  0  0  0
 52 51  1  0  0  0  0
 55 52  1  0  0  0  0
 56 55  1  0  0  0  0
 57 55  1  0  0  0  0
 58 54  1  6  0  0  0
 58 59  1  0  0  0  0
 58 57  1  0  0  0  0
 59 53  1  1  0  0  0
 59 56  1  0  0  0  0
M  END
>  <MODEL>
8

>  <REMARK>
 VINA RESULT:      -4.1      3.076      5.678
  Name = 
  22 active torsions:
  status: ('A' for Active; 'I' for Inactive)
    1  A    between atoms: C_2  and  C_25
    2  A    between atoms: C_3  and  N_33
    3  A    between atoms: P_6  and  O_19
    4  A    between atoms: N_7  and  C_47
    5  A    between atoms: C_8  and  N_17
    6  A    between atoms: C_15  and  O_34
    7  A    between atoms: C_15  and  C_49
    8  A    between atoms: N_18  and  C_41
    9  A    between atoms: O_19  and  C_48
   10  A    between atoms: C_20  and  C_23
   11  A    between atoms: C_21  and  O_51
   12  A    between atoms: C_22  and  C_23
   13  A    between atoms: C_22  and  O_34
   14  A    between atoms: C_25  and  N_39
   15  A    between atoms: C_25  and  O_51
   16  A    between atoms: C_28  and  C_50
   17  A    between atoms: C_28  and  C_56
   18  A    between atoms: C_29  and  C_55
   19  A    between atoms: C_31  and  C_49
   20  A    between atoms: C_40  and  C_46
   21  A    between atoms: C_41  and  C_46
   22  A    between atoms: C_43  and  C_47
                            x       y       z     vdW  Elec       q    Type
                         _______ _______ _______ _____ _____    ______ ____

>  <TORSDO>
F 22

$$$$
=
 OpenBabel11042421013D

 59 64  0  0  1  0  0  0  0  0999 V2000
  161.5510  204.6840  148.4520 C   0  0  0  0  0  0  0  0  0  0  0  0
  162.0550  205.9000  148.9030 C   0  0  0  0  0  0  0  0  0  0  0  0
  161.2740  205.0230  150.9070 C   0  0  0  0  0  0  0  0  0  0  0  0
  160.8900  203.8540  149.7550 S   0  0  0  0  0  0  0  0  0  0  0  0
  161.8990  206.1050  150.2840 C   0  0  0  0  0  3  0  0  0  0  0  0
  160.3120  202.0370  147.3730 C   0  0  0  0  0  1  0  0  0  0  0  0
  160.8660  203.1920  145.2300 N   0  0  0  0  0  0  0  0  0  0  0  0
  160.8590  203.1760  146.5720 C   0  0  0  0  0  0  0  0  0  0  0  0
  161.4340  204.2850  147.0760 N   0  0  0  0  0  0  0  0  0  0  0  0
  161.4600  204.3720  144.9350 C   0  0  0  0  0  3  0  0  0  0  0  0
  161.8070  205.0360  146.0520 N   0  0  0  0  0  0  0  0  0  0  0  0
  162.7170  206.8440  148.0600 N   0  0  0  0  0  2  0  0  0  0  0  0
  163.2100  209.0190  147.4400 O   0  0  0  0  0  0  0  0  0  0  0  0
  162.6890  208.2520  148.2930 C   0  0  0  0  0  0  0  0  0  0  0  0
  162.0060  208.8150  149.5110 C   0  0  0  0  0  2  0  0  0  0  0  0
  161.8200  211.0330  148.3130 N   0  0  0  0  0  2  0  0  0  0  0  0
  162.1840  210.9160  150.6200 O   0  0  0  0  0  0  0  0  0  0  0  0
  161.9970  210.3080  149.5300 C   0  0  0  0  0  0  0  0  0  0  0  0
  161.9160  212.4830  148.2770 C   0  0  0  0  0  2  0  0  0  0  0  0
  161.1500  214.2730  146.9240 O   0  0  0  0  0  0  0  0  0  0  0  0
  160.2230  212.1790  146.4140 N   0  0  0  0  0  2  0  0  0  0  0  0
  161.0660  213.0440  147.1870 C   0  0  0  0  0  0  0  0  0  0  0  0
  159.5200  212.5180  145.1730 C   0  0  2  0  0  3  0  0  0  0  0  0
  158.0000  212.3210  145.2100 C   0  0  0  0  0  2  0  0  0  0  0  0
  157.4410  212.8300  146.3880 O   0  0  0  0  0  1  0  0  0  0  0  0
  160.2040  212.1400  143.9900 O   0  0  0  0  0  0  0  0  0  0  0  0
  158.8200  214.4000  142.0340 C   0  0  2  0  0  3  0  0  0  0  0  0
  159.3930  214.1720  143.3070 O   0  0  0  0  0  0  0  0  0  0  0  0
  158.1140  213.1480  141.5360 C   0  0  0  0  0  2  0  0  0  0  0  0
  160.4680  213.2640  143.1850 C   0  0  2  0  0  3  0  0  0  0  0  0
  160.6270  212.8870  141.7160 C   0  0  2  0  0  3  0  0  0  0  0  0
  159.4830  213.5420  140.9860 C   0  0  2  0  0  3  0  0  0  0  0  0
  160.6170  211.4990  141.4940 O   0  0  0  0  0  0  0  0  0  0  0  0
  161.8280  211.2050  140.3350 P   0  0  0  0  0  0  0  0  0  0  0  0
  162.8810  212.5320  140.2900 O   0  0  0  0  0  1  0  0  0  0  0  0
  162.7080  209.8280  140.7770 O   0  0  0  0  0  1  0  0  0  0  0  0
  161.2170  211.0060  138.9650 O   0  0  0  0  0  0  0  0  0  0  0  0
  160.7910  204.9790  152.3190 C   0  0  0  0  0  2  0  0  0  0  0  0
  160.6330  206.3620  152.9220 C   0  0  0  0  0  2  0  0  0  0  0  0
  161.8630  207.0270  152.9230 O   0  0  0  0  0  0  0  0  0  0  0  0
  161.5370  208.3650  153.1610 C   0  0  0  0  0  2  0  0  0  0  0  0
  159.5380  209.0540  154.3100 O   0  0  0  0  0  0  0  0  0  0  0  0
  159.6100  210.4550  154.4450 C   0  0  1  0  0  3  0  0  0  0  0  0
  160.8350  208.5390  154.5160 C   0  0  2  0  0  0  0  0  0  0  0  0
  160.9870  210.8460  154.9250 C   0  0  2  0  0  3  0  0  0  0  0  0
  161.5980  209.5440  155.3460 C   0  0  0  0  0  2  0  0  0  0  0  0
  161.1190  207.3600  156.6020 O   0  0  0  0  0  1  0  0  0  0  0  0
  160.7330  207.2120  155.2700 C   0  0  0  0  0  2  0  0  0  0  0  0
  160.5700  211.1370  157.2600 O   0  0  0  0  0  1  0  0  0  0  0  0
  160.8950  211.8250  156.0900 C   0  0  0  0  0  2  0  0  0  0  0  0
  159.3300  211.1210  153.1070 C   0  0  0  0  0  2  0  0  0  0  0  0
  159.6740  212.6010  153.1740 C   0  0  0  0  0  2  0  0  0  0  0  0
  155.2500  213.6040  154.1080 C   0  0  0  0  0  1  0  0  0  0  0  0
  157.6390  213.9600  156.7630 C   0  0  0  0  0  1  0  0  0  0  0  0
  158.4490  213.3670  153.3380 N   0  0  0  0  0  0  0  0  0  0  0  0
  157.3870  212.4260  153.6800 C   0  0  0  0  0  2  0  0  0  0  0  0
  158.6250  214.2190  154.5090 C   0  0  0  0  0  2  0  0  0  0  0  0
  157.3320  214.2040  155.2980 C   0  0  1  0  0  3  0  0  0  0  0  0
  156.5140  213.0570  154.7440 C   0  0  1  0  0  3  0  0  0  0  0  0
  1  2  2  0  0  0  0
  1  4  1  0  0  0  0
  2  5  1  0  0  0  0
  3 38  1  0  0  0  0
  4  3  1  0  0  0  0
  5  3  2  0  0  0  0
  7  8  2  0  0  0  0
  8  9  1  0  0  0  0
  8  6  1  0  0  0  0
  9  1  1  0  0  0  0
 10  7  1  0  0  0  0
 10 11  2  0  0  0  0
 11  9  1  0  0  0  0
 12 14  1  0  0  0  0
 12  2  1  0  0  0  0
 13 14  2  0  0  0  0
 14 15  1  0  0  0  0
 15 18  1  0  0  0  0
 16 18  1  0  0  0  0
 18 17  2  0  0  0  0
 19 16  1  0  0  0  0
 20 22  2  0  0  0  0
 21 22  1  0  0  0  0
 22 19  1  0  0  0  0
 23 24  1  1  0  0  0
 23 21  1  0  0  0  0
 24 25  1  0  0  0  0
 26 23  1  0  0  0  0
 27 29  1  1  0  0  0
 27 28  1  0  0  0  0
 30 28  1  0  0  0  0
 30 26  1  1  0  0  0
 31 33  1  1  0  0  0
 31 30  1  0  0  0  0
 32 29  1  1  0  0  0
 32 31  1  0  0  0  0
 32 27  1  0  0  0  0
 34 36  1  0  0  0  0
 34 33  1  0  0  0  0
 35 34  1  0  0  0  0
 37 34  2  0  0  0  0
 38 39  1  0  0  0  0
 39 40  1  0  0  0  0
 40 41  1  0  0  0  0
 42 43  1  0  0  0  0
 42 44  1  0  0  0  0
 43 51  1  6  0  0  0
 43 45  1  0  0  0  0
 44 41  1  6  0  0  0
 44 48  1  0  0  0  0
 44 46  1  0  0  0  0
 45 46  1  0  0  0  0
 45 50  1  1  0  0  0
 48 47  1  0  0  0  0
 50 49  1  0  0  0  0
 51 52  1  0  0  0  0
 52 55  1  0  0  0  0
 55 56  1  0  0  0  0
 55 57  1  0  0  0  0
 56 59  1  0  0  0  0
 57 58  1  0  0  0  0
 58 54  1  1  0  0  0
 59 53  1  6  0  0  0
 59 58  1  0  0  0  0
M  END
>  <MODEL>
9

>  <REMARK>
 VINA RESULT:      -3.2      3.434     10.552
  Name = 
  22 active torsions:
  status: ('A' for Active; 'I' for Inactive)
    1  A    between atoms: C_2  and  C_25
    2  A    between atoms: C_3  and  N_33
    3  A    between atoms: P_6  and  O_19
    4  A    between atoms: N_7  and  C_47
    5  A    between atoms: C_8  and  N_17
    6  A    between atoms: C_15  and  O_34
    7  A    between atoms: C_15  and  C_49
    8  A    between atoms: N_18  and  C_41
    9  A    between atoms: O_19  and  C_48
   10  A    between atoms: C_20  and  C_23
   11  A    between atoms: C_21  and  O_51
   12  A    between atoms: C_22  and  C_23
   13  A    between atoms: C_22  and  O_34
   14  A    between atoms: C_25  and  N_39
   15  A    between atoms: C_25  and  O_51
   16  A    between atoms: C_28  and  C_50
   17  A    between atoms: C_28  and  C_56
   18  A    between atoms: C_29  and  C_55
   19  A    between atoms: C_31  and  C_49
   20  A    between atoms: C_40  and  C_46
   21  A    between atoms: C_41  and  C_46
   22  A    between atoms: C_43  and  C_47
                            x       y       z     vdW  Elec       q    Type
                         _______ _______ _______ _____ _____    ______ ____

>  <TORSDO>
F 22

$$$$
