=
 OpenBabel11042423123D

 29 32  0  0  1  0  0  0  0  0999 V2000
  161.2620  205.2590  149.5730 C   0  0  1  0  0  3  0  0  0  0  0  0
  160.4360  201.0780  149.4140 N   0  0  0  0  0  0  0  0  0  0  0  0
  160.4560  203.1150  150.6570 C   0  0  0  0  0  3  0  0  0  0  0  0
  161.2150  203.0680  148.3660 C   0  0  0  0  0  3  0  0  0  0  0  0
  160.9410  201.6970  148.3090 C   0  0  0  0  0  0  0  0  0  0  0  0
  160.9780  203.7830  149.5420 C   0  0  0  0  0  0  0  0  0  0  0  0
  160.1910  201.7490  150.5720 C   0  0  0  0  0  3  0  0  0  0  0  0
  161.1670  200.8980  147.0800 C   0  0  0  0  0  0  0  0  0  0  0  0
  161.6610  199.7450  147.1980 O   0  0  0  0  0  0  0  0  0  0  0  0
  160.8550  201.3600  145.7560 N   0  0  0  0  0  2  0  0  0  0  0  0
  160.3430  202.6760  145.4080 C   0  0  0  0  0  1  0  0  0  0  0  0
  161.0320  205.2700  147.0940 N   0  0  0  0  0  2  0  0  0  0  0  0
  161.8710  206.0550  146.2530 N   0  0  0  0  0  0  0  0  0  0  0  0
  160.7590  206.0170  148.3320 C   0  0  2  0  0  3  0  0  0  0  0  0
  161.4530  207.2800  148.1400 C   0  0  0  0  0  0  0  0  0  0  0  0
  162.0980  207.2750  146.9050 N   0  0  0  0  0  0  0  0  0  0  0  0
  161.4650  208.2530  148.9390 O   0  0  0  0  0  0  0  0  0  0  0  0
  161.4850  206.3640  151.7090 C   0  0  0  0  0  0  0  0  0  0  0  0
  160.7420  205.8550  150.7860 N   0  0  0  0  0  0  0  0  0  0  0  0
  162.9850  206.3550  151.6090 C   0  0  0  0  0  1  0  0  0  0  0  0
  161.3600  207.5370  155.1630 C   0  0  1  0  0  3  0  0  0  0  0  0
  161.3690  208.7820  154.2940 C   0  0  2  0  0  3  0  0  0  0  0  0
  160.3860  209.7710  154.8990 C   0  0  1  0  0  3  0  0  0  0  0  0
  159.9950  210.7950  153.9440 N   0  0  0  0  0  1  0  0  0  0  0  0
  159.1810  208.9910  155.3620 C   0  0  0  0  0  2  0  0  0  0  0  0
  159.8060  207.4670  156.1220 S   0  0  0  0  0  0  0  0  0  0  0  0
  161.4050  206.3900  154.1910 C   0  0  0  0  0  2  0  0  0  0  0  0
  160.8240  206.9540  152.9140 C   0  0  1  0  0  3  0  0  0  0  0  0
  160.9850  208.4040  152.9330 N   0  0  0  0  0  2  0  0  0  0  0  0
  1 19  1  1  0  0  0
  2  7  1  0  0  0  0
  4  6  2  0  0  0  0
  5  4  1  0  0  0  0
  5  2  2  0  0  0  0
  6  1  1  0  0  0  0
  6  3  1  0  0  0  0
  7  3  2  0  0  0  0
  8  9  2  0  0  0  0
  8  5  1  0  0  0  0
 10  8  1  0  0  0  0
 11 10  1  0  0  0  0
 12 14  1  0  0  0  0
 13 16  2  0  0  0  0
 13 12  1  0  0  0  0
 14  1  1  1  0  0  0
 15 14  1  0  0  0  0
 15 17  2  0  0  0  0
 16 15  1  0  0  0  0
 19 18  2  0  0  0  0
 20 18  1  0  0  0  0
 21 27  1  6  0  0  0
 21 26  1  0  0  0  0
 22 29  1  6  0  0  0
 22 23  1  0  0  0  0
 22 21  1  0  0  0  0
 23 24  1  6  0  0  0
 23 25  1  0  0  0  0
 25 26  1  0  0  0  0
 28 18  1  6  0  0  0
 28 29  1  0  0  0  0
 28 27  1  0  0  0  0
M  END
>  <MODEL>
1

>  <REMARK>
 VINA RESULT:      -7.4      0.000      0.000
  Name = 
  5 active torsions:
  status: ('A' for Active; 'I' for Inactive)
    1  A    between atoms: C_6  and  C_29
    2  A    between atoms: C_9  and  C_11
    3  A    between atoms: C_12  and  C_26
    4  A    between atoms: N_14  and  C_29
    5  A    between atoms: C_19  and  C_29
                            x       y       z     vdW  Elec       q    Type
                         _______ _______ _______ _____ _____    ______ ____

>  <TORSDO>
F 5

$$$$
=
 OpenBabel11042423123D

 29 32  0  0  1  0  0  0  0  0999 V2000
  160.3740  210.4700  154.7620 C   0  0  1  0  0  3  0  0  0  0  0  0
  156.9310  212.9560  154.3720 N   0  0  0  0  0  0  0  0  0  0  0  0
  159.1700  212.4420  153.7240 C   0  0  0  0  0  3  0  0  0  0  0  0
  158.0350  211.1040  155.3820 C   0  0  0  0  0  3  0  0  0  0  0  0
  156.9020  211.9150  155.2530 C   0  0  0  0  0  0  0  0  0  0  0  0
  159.1760  211.3670  154.6210 C   0  0  0  0  0  0  0  0  0  0  0  0
  158.0260  213.2330  153.6150 C   0  0  0  0  0  3  0  0  0  0  0  0
  155.6640  211.6700  156.0330 C   0  0  0  0  0  0  0  0  0  0  0  0
  155.0560  210.5800  155.8630 O   0  0  0  0  0  0  0  0  0  0  0  0
  155.1120  212.6060  156.9730 N   0  0  0  0  0  2  0  0  0  0  0  0
  155.6270  213.9360  157.2580 C   0  0  0  0  0  1  0  0  0  0  0  0
  161.9120  210.3250  156.7150 N   0  0  0  0  0  2  0  0  0  0  0  0
  162.6530  209.1470  157.0170 N   0  0  0  0  0  0  0  0  0  0  0  0
  160.5920  209.9410  156.1910 C   0  0  2  0  0  3  0  0  0  0  0  0
  160.6030  208.4870  156.2430 C   0  0  0  0  0  0  0  0  0  0  0  0
  161.8290  208.0480  156.7370 N   0  0  0  0  0  0  0  0  0  0  0  0
  159.6550  207.7240  155.9220 O   0  0  0  0  0  0  0  0  0  0  0  0
  161.0630  209.2940  152.7690 C   0  0  0  0  0  0  0  0  0  0  0  0
  160.3110  209.3780  153.8130 N   0  0  0  0  0  0  0  0  0  0  0  0
  162.0700  210.3580  152.4320 C   0  0  0  0  0  1  0  0  0  0  0  0
  162.1800  206.8550  150.2940 C   0  0  1  0  0  3  0  0  0  0  0  0
  162.1330  206.1180  151.6200 C   0  0  2  0  0  3  0  0  0  0  0  0
  161.5560  204.7370  151.3580 C   0  0  1  0  0  3  0  0  0  0  0  0
  161.0720  204.1150  152.5800 N   0  0  0  0  0  1  0  0  0  0  0  0
  160.4350  204.8930  150.3610 C   0  0  0  0  0  2  0  0  0  0  0  0
  160.9980  206.0940  149.1250 S   0  0  0  0  0  0  0  0  0  0  0  0
  161.7400  208.2560  150.6170 C   0  0  0  0  0  2  0  0  0  0  0  0
  160.9030  208.1110  151.8680 C   0  0  1  0  0  3  0  0  0  0  0  0
  161.3000  206.8840  152.5490 N   0  0  0  0  0  2  0  0  0  0  0  0
  1 19  1  6  0  0  0
  2  5  1  0  0  0  0
  3  6  2  0  0  0  0
  5  4  2  0  0  0  0
  5  8  1  0  0  0  0
  6  1  1  0  0  0  0
  6  4  1  0  0  0  0
  7  3  1  0  0  0  0
  7  2  2  0  0  0  0
  8 10  1  0  0  0  0
  9  8  2  0  0  0  0
 10 11  1  0  0  0  0
 12 13  1  0  0  0  0
 14  1  1  6  0  0  0
 14 15  1  0  0  0  0
 14 12  1  0  0  0  0
 15 16  1  0  0  0  0
 16 13  2  0  0  0  0
 17 15  2  0  0  0  0
 18 19  2  0  0  0  0
 20 18  1  0  0  0  0
 21 27  1  1  0  0  0
 21 22  1  0  0  0  0
 22 29  1  1  0  0  0
 23 22  1  0  0  0  0
 23 24  1  1  0  0  0
 25 23  1  0  0  0  0
 26 21  1  0  0  0  0
 26 25  1  0  0  0  0
 27 28  1  0  0  0  0
 28 29  1  0  0  0  0
 28 18  1  1  0  0  0
M  END
>  <MODEL>
2

>  <REMARK>
 VINA RESULT:      -7.3      4.404      9.695
  Name = 
  5 active torsions:
  status: ('A' for Active; 'I' for Inactive)
    1  A    between atoms: C_6  and  C_29
    2  A    between atoms: C_9  and  C_11
    3  A    between atoms: C_12  and  C_26
    4  A    between atoms: N_14  and  C_29
    5  A    between atoms: C_19  and  C_29
                            x       y       z     vdW  Elec       q    Type
                         _______ _______ _______ _____ _____    ______ ____

>  <TORSDO>
F 5

$$$$
=
 OpenBabel11042423123D

 29 32  0  0  1  0  0  0  0  0999 V2000
  160.6220  211.4080  153.6260 C   0  0  1  0  0  3  0  0  0  0  0  0
  157.6810  214.2420  152.3980 N   0  0  0  0  0  0  0  0  0  0  0  0
  158.9560  213.2430  154.1510 C   0  0  0  0  0  3  0  0  0  0  0  0
  159.2250  212.5090  151.8670 C   0  0  0  0  0  3  0  0  0  0  0  0
  158.2640  213.4410  151.4600 C   0  0  0  0  0  0  0  0  0  0  0  0
  159.5720  212.4030  153.2150 C   0  0  0  0  0  0  0  0  0  0  0  0
  158.0020  214.1640  153.7170 C   0  0  0  0  0  3  0  0  0  0  0  0
  157.8690  213.5980  150.0380 C   0  0  0  0  0  0  0  0  0  0  0  0
  156.6970  213.2780  149.7050 O   0  0  0  0  0  0  0  0  0  0  0  0
  158.7450  214.0950  149.0150 N   0  0  0  0  0  2  0  0  0  0  0  0
  160.1440  214.4530  149.1860 C   0  0  0  0  0  1  0  0  0  0  0  0
  162.0370  210.7290  155.5590 N   0  0  0  0  0  2  0  0  0  0  0  0
  161.9370  209.4430  156.1640 N   0  0  0  0  0  0  0  0  0  0  0  0
  160.6960  211.1710  155.1450 C   0  0  2  0  0  3  0  0  0  0  0  0
  159.8220  210.0920  155.5760 C   0  0  0  0  0  0  0  0  0  0  0  0
  160.5800  209.0890  156.1760 N   0  0  0  0  0  0  0  0  0  0  0  0
  158.5690  210.0560  155.4610 O   0  0  0  0  0  0  0  0  0  0  0  0
  161.3460  209.6320  152.1590 C   0  0  0  0  0  0  0  0  0  0  0  0
  160.4460  210.1570  152.9180 N   0  0  0  0  0  0  0  0  0  0  0  0
  162.6700  210.3050  151.9210 C   0  0  0  0  0  1  0  0  0  0  0  0
  162.0780  206.7890  149.9900 C   0  0  1  0  0  3  0  0  0  0  0  0
  162.1820  206.2720  151.4130 C   0  0  2  0  0  3  0  0  0  0  0  0
  161.5420  204.8930  151.4490 C   0  0  1  0  0  3  0  0  0  0  0  0
  161.2020  204.4930  152.8050 N   0  0  0  0  0  1  0  0  0  0  0  0
  160.3080  204.9420  150.5850 C   0  0  0  0  0  2  0  0  0  0  0  0
  160.7380  205.9090  149.1120 S   0  0  0  0  0  0  0  0  0  0  0  0
  161.7180  208.2420  150.1350 C   0  0  0  0  0  2  0  0  0  0  0  0
  161.0430  208.3320  151.4850 C   0  0  1  0  0  3  0  0  0  0  0  0
  161.4930  207.2100  152.3020 N   0  0  0  0  0  2  0  0  0  0  0  0
  1 19  1  6  0  0  0
  2  7  1  0  0  0  0
  4  6  2  0  0  0  0
  5  4  1  0  0  0  0
  5  2  2  0  0  0  0
  6  1  1  0  0  0  0
  6  3  1  0  0  0  0
  7  3  2  0  0  0  0
  8  5  1  0  0  0  0
  9  8  2  0  0  0  0
 10 11  1  0  0  0  0
 10  8  1  0  0  0  0
 12 13  1  0  0  0  0
 13 16  2  0  0  0  0
 14  1  1  6  0  0  0
 14 12  1  0  0  0  0
 14 15  1  0  0  0  0
 15 16  1  0  0  0  0
 17 15  2  0  0  0  0
 18 19  2  0  0  0  0
 20 18  1  0  0  0  0
 21 27  1  1  0  0  0
 21 22  1  0  0  0  0
 22 23  1  0  0  0  0
 22 29  1  1  0  0  0
 23 24  1  1  0  0  0
 25 23  1  0  0  0  0
 26 21  1  0  0  0  0
 26 25  1  0  0  0  0
 27 28  1  0  0  0  0
 28 18  1  1  0  0  0
 28 29  1  0  0  0  0
M  END
>  <MODEL>
3

>  <REMARK>
 VINA RESULT:      -7.3      4.625      9.086
  Name = 
  5 active torsions:
  status: ('A' for Active; 'I' for Inactive)
    1  A    between atoms: C_6  and  C_29
    2  A    between atoms: C_9  and  C_11
    3  A    between atoms: C_12  and  C_26
    4  A    between atoms: N_14  and  C_29
    5  A    between atoms: C_19  and  C_29
                            x       y       z     vdW  Elec       q    Type
                         _______ _______ _______ _____ _____    ______ ____

>  <TORSDO>
F 5

$$$$
=
 OpenBabel11042423123D

 29 32  0  0  1  0  0  0  0  0999 V2000
  161.3440  206.8770  150.5790 C   0  0  1  0  0  3  0  0  0  0  0  0
  160.8810  202.7080  151.3510 N   0  0  0  0  0  0  0  0  0  0  0  0
  161.3700  204.8990  152.1620 C   0  0  0  0  0  3  0  0  0  0  0  0
  160.8630  204.5390  149.8290 C   0  0  0  0  0  3  0  0  0  0  0  0
  160.7060  203.1710  150.0790 C   0  0  0  0  0  0  0  0  0  0  0  0
  161.2000  205.4090  150.8690 C   0  0  0  0  0  0  0  0  0  0  0  0
  161.2060  203.5320  152.3830 C   0  0  0  0  0  3  0  0  0  0  0  0
  160.3380  202.2110  149.0110 C   0  0  0  0  0  0  0  0  0  0  0  0
  159.4770  201.3280  149.2700 O   0  0  0  0  0  0  0  0  0  0  0  0
  160.9080  202.2250  147.6920 N   0  0  0  0  0  2  0  0  0  0  0  0
  161.9560  203.1160  147.2230 C   0  0  0  0  0  1  0  0  0  0  0  0
  160.0820  206.2030  148.5410 N   0  0  0  0  0  2  0  0  0  0  0  0
  160.7300  205.8520  147.3230 N   0  0  0  0  0  0  0  0  0  0  0  0
  160.8310  207.2910  149.1880 C   0  0  2  0  0  3  0  0  0  0  0  0
  161.9180  207.5690  148.2610 C   0  0  0  0  0  0  0  0  0  0  0  0
  161.8310  206.7070  147.1710 N   0  0  0  0  0  0  0  0  0  0  0  0
  162.7970  208.4600  148.3900 O   0  0  0  0  0  0  0  0  0  0  0  0
  161.1330  208.8310  151.9810 C   0  0  0  0  0  0  0  0  0  0  0  0
  160.7150  207.6680  151.6160 N   0  0  0  0  0  0  0  0  0  0  0  0
  162.3500  209.4630  151.3630 C   0  0  0  0  0  1  0  0  0  0  0  0
  160.8210  211.1020  154.8210 C   0  0  1  0  0  3  0  0  0  0  0  0
  160.2180  211.8280  153.6330 C   0  0  2  0  0  3  0  0  0  0  0  0
  158.9630  212.5370  154.1160 C   0  0  1  0  0  3  0  0  0  0  0  0
  158.0870  212.8960  153.0120 N   0  0  0  0  0  1  0  0  0  0  0  0
  158.2560  211.6100  155.0730 C   0  0  0  0  0  2  0  0  0  0  0  0
  159.5390  210.8390  156.0980 S   0  0  0  0  0  0  0  0  0  0  0  0
  161.2690  209.7750  154.2740 C   0  0  0  0  0  2  0  0  0  0  0  0
  160.3910  209.5500  153.0630 C   0  0  1  0  0  3  0  0  0  0  0  0
  159.9150  210.8460  152.5900 N   0  0  0  0  0  2  0  0  0  0  0  0
  1  6  1  0  0  0  0
  1 19  1  1  0  0  0
  2  7  1  0  0  0  0
  3  7  2  0  0  0  0
  4  5  1  0  0  0  0
  4  6  2  0  0  0  0
  5  2  2  0  0  0  0
  6  3  1  0  0  0  0
  8  9  2  0  0  0  0
  8  5  1  0  0  0  0
 10  8  1  0  0  0  0
 11 10  1  0  0  0  0
 12 14  1  0  0  0  0
 13 12  1  0  0  0  0
 14  1  1  1  0  0  0
 15 17  2  0  0  0  0
 15 14  1  0  0  0  0
 16 13  2  0  0  0  0
 16 15  1  0  0  0  0
 19 18  2  0  0  0  0
 20 18  1  0  0  0  0
 21 27  1  6  0  0  0
 21 26  1  0  0  0  0
 22 29  1  6  0  0  0
 22 23  1  0  0  0  0
 22 21  1  0  0  0  0
 23 24  1  6  0  0  0
 23 25  1  0  0  0  0
 25 26  1  0  0  0  0
 28 18  1  6  0  0  0
 28 27  1  0  0  0  0
 29 28  1  0  0  0  0
M  END
>  <MODEL>
4

>  <REMARK>
 VINA RESULT:      -7.0      1.981      2.538
  Name = 
  5 active torsions:
  status: ('A' for Active; 'I' for Inactive)
    1  A    between atoms: C_6  and  C_29
    2  A    between atoms: C_9  and  C_11
    3  A    between atoms: C_12  and  C_26
    4  A    between atoms: N_14  and  C_29
    5  A    between atoms: C_19  and  C_29
                            x       y       z     vdW  Elec       q    Type
                         _______ _______ _______ _____ _____    ______ ____

>  <TORSDO>
F 5

$$$$
=
 OpenBabel11042423123D

 29 32  0  0  1  0  0  0  0  0999 V2000
  161.2720  207.5170  150.9560 C   0  0  1  0  0  3  0  0  0  0  0  0
  160.6110  208.0480  155.1360 N   0  0  0  0  0  0  0  0  0  0  0  0
  161.0480  206.5850  153.3010 C   0  0  0  0  0  3  0  0  0  0  0  0
  160.7990  208.9600  152.9450 C   0  0  0  0  0  3  0  0  0  0  0  0
  160.5870  209.1380  154.3160 C   0  0  0  0  0  0  0  0  0  0  0  0
  161.0270  207.6810  152.4300 C   0  0  0  0  0  0  0  0  0  0  0  0
  160.8340  206.7920  154.6640 C   0  0  0  0  0  3  0  0  0  0  0  0
  160.3510  210.4770  154.9110 C   0  0  0  0  0  0  0  0  0  0  0  0
  159.2340  211.0270  154.7200 O   0  0  0  0  0  0  0  0  0  0  0  0
  161.3240  211.1870  155.6930 N   0  0  0  0  0  2  0  0  0  0  0  0
  162.6840  210.7510  155.9680 C   0  0  0  0  0  1  0  0  0  0  0  0
  162.3890  209.7420  150.9810 N   0  0  0  0  0  2  0  0  0  0  0  0
  162.2390  210.6840  149.9230 N   0  0  0  0  0  0  0  0  0  0  0  0
  162.4230  208.3850  150.4150 C   0  0  2  0  0  3  0  0  0  0  0  0
  162.3220  208.5990  148.9800 C   0  0  0  0  0  0  0  0  0  0  0  0
  162.2180  209.9640  148.7200 N   0  0  0  0  0  0  0  0  0  0  0  0
  162.3480  207.7100  148.0900 O   0  0  0  0  0  0  0  0  0  0  0  0
  160.8680  205.5190  149.6630 C   0  0  0  0  0  0  0  0  0  0  0  0
  161.4790  206.1230  150.6240 N   0  0  0  0  0  0  0  0  0  0  0  0
  159.8490  206.2210  148.8090 C   0  0  0  0  0  1  0  0  0  0  0  0
  160.1380  201.9420  149.6720 C   0  0  1  0  0  3  0  0  0  0  0  0
  160.0450  202.3880  148.2240 C   0  0  2  0  0  3  0  0  0  0  0  0
  160.6920  201.3110  147.3690 C   0  0  1  0  0  3  0  0  0  0  0  0
  161.0440  201.8090  146.0490 N   0  0  0  0  0  1  0  0  0  0  0  0
  161.9210  200.8280  148.0980 C   0  0  0  0  0  2  0  0  0  0  0  0
  161.4770  200.7110  149.8520 S   0  0  0  0  0  0  0  0  0  0  0  0
  160.4910  203.1890  150.4360 C   0  0  0  0  0  2  0  0  0  0  0  0
  161.1730  204.0750  149.4180 C   0  0  1  0  0  3  0  0  0  0  0  0
  160.7340  203.6730  148.0860 N   0  0  0  0  0  2  0  0  0  0  0  0
  1 19  1  1  0  0  0
  1  6  1  0  0  0  0
  3  7  2  0  0  0  0
  4  5  1  0  0  0  0
  5  8  1  0  0  0  0
  5  2  2  0  0  0  0
  6  4  2  0  0  0  0
  6  3  1  0  0  0  0
  7  2  1  0  0  0  0
  8 10  1  0  0  0  0
  9  8  2  0  0  0  0
 10 11  1  0  0  0  0
 13 12  1  0  0  0  0
 14  1  1  1  0  0  0
 14 12  1  0  0  0  0
 15 14  1  0  0  0  0
 16 15  1  0  0  0  0
 16 13  2  0  0  0  0
 17 15  2  0  0  0  0
 18 19  2  0  0  0  0
 20 18  1  0  0  0  0
 21 26  1  0  0  0  0
 21 27  1  1  0  0  0
 22 29  1  1  0  0  0
 22 21  1  0  0  0  0
 23 24  1  6  0  0  0
 23 25  1  0  0  0  0
 23 22  1  0  0  0  0
 25 26  1  0  0  0  0
 28 18  1  1  0  0  0
 28 27  1  0  0  0  0
 29 28  1  0  0  0  0
M  END
>  <MODEL>
5

>  <REMARK>
 VINA RESULT:      -6.7      2.794      8.068
  Name = 
  5 active torsions:
  status: ('A' for Active; 'I' for Inactive)
    1  A    between atoms: C_6  and  C_29
    2  A    between atoms: C_9  and  C_11
    3  A    between atoms: C_12  and  C_26
    4  A    between atoms: N_14  and  C_29
    5  A    between atoms: C_19  and  C_29
                            x       y       z     vdW  Elec       q    Type
                         _______ _______ _______ _____ _____    ______ ____

>  <TORSDO>
F 5

$$$$
=
 OpenBabel11042423123D

 29 32  0  0  1  0  0  0  0  0999 V2000
  161.7850  206.8230  150.7360 C   0  0  1  0  0  3  0  0  0  0  0  0
  160.7700  202.7340  151.4000 N   0  0  0  0  0  0  0  0  0  0  0  0
  161.2990  204.8830  152.2920 C   0  0  0  0  0  3  0  0  0  0  0  0
  161.2370  204.5280  149.9050 C   0  0  0  0  0  3  0  0  0  0  0  0
  160.8990  203.1860  150.1190 C   0  0  0  0  0  0  0  0  0  0  0  0
  161.4420  205.3810  150.9910 C   0  0  0  0  0  0  0  0  0  0  0  0
  160.9600  203.5430  152.4760 C   0  0  0  0  0  3  0  0  0  0  0  0
  160.6610  202.2440  148.9980 C   0  0  0  0  0  0  0  0  0  0  0  0
  159.9650  201.2170  149.2180 O   0  0  0  0  0  0  0  0  0  0  0  0
  161.1790  202.4310  147.6720 N   0  0  0  0  0  2  0  0  0  0  0  0
  162.0520  203.5110  147.2390 C   0  0  0  0  0  1  0  0  0  0  0  0
  159.9640  206.5620  149.0580 N   0  0  0  0  0  2  0  0  0  0  0  0
  160.2180  206.1880  147.7070 N   0  0  0  0  0  0  0  0  0  0  0  0
  161.0520  207.4330  149.5280 C   0  0  2  0  0  3  0  0  0  0  0  0
  161.9200  207.5690  148.3690 C   0  0  0  0  0  0  0  0  0  0  0  0
  161.4020  206.8270  147.3100 N   0  0  0  0  0  0  0  0  0  0  0  0
  162.9670  208.2630  148.3000 O   0  0  0  0  0  0  0  0  0  0  0  0
  161.8030  208.8850  151.9910 C   0  0  0  0  0  0  0  0  0  0  0  0
  161.5680  207.6190  151.9260 N   0  0  0  0  0  0  0  0  0  0  0  0
  162.3590  209.6470  150.8210 C   0  0  0  0  0  1  0  0  0  0  0  0
  159.6830  210.4620  154.5090 C   0  0  1  0  0  3  0  0  0  0  0  0
  160.1020  209.1240  155.0900 C   0  0  2  0  0  3  0  0  0  0  0  0
  160.4190  209.3400  156.5610 C   0  0  1  0  0  3  0  0  0  0  0  0
  161.2240  208.2570  157.1030 N   0  0  0  0  0  1  0  0  0  0  0  0
  161.1480  210.6540  156.6820 C   0  0  0  0  0  2  0  0  0  0  0  0
  160.3210  211.8160  155.5600 S   0  0  0  0  0  0  0  0  0  0  0  0
  160.3420  210.5190  153.1580 C   0  0  0  0  0  2  0  0  0  0  0  0
  161.5330  209.5960  153.2800 C   0  0  1  0  0  3  0  0  0  0  0  0
  161.2710  208.6410  154.3510 N   0  0  0  0  0  2  0  0  0  0  0  0
  1  6  1  0  0  0  0
  1 19  1  1  0  0  0
  2  7  1  0  0  0  0
  3  7  2  0  0  0  0
  4  5  1  0  0  0  0
  4  6  2  0  0  0  0
  5  2  2  0  0  0  0
  6  3  1  0  0  0  0
  8  9  2  0  0  0  0
  8  5  1  0  0  0  0
 10  8  1  0  0  0  0
 11 10  1  0  0  0  0
 12 14  1  0  0  0  0
 13 12  1  0  0  0  0
 14  1  1  1  0  0  0
 15 14  1  0  0  0  0
 16 13  2  0  0  0  0
 16 15  1  0  0  0  0
 17 15  2  0  0  0  0
 19 18  2  0  0  0  0
 20 18  1  0  0  0  0
 21 27  1  6  0  0  0
 21 22  1  0  0  0  0
 21 26  1  0  0  0  0
 22 29  1  6  0  0  0
 22 23  1  0  0  0  0
 23 25  1  0  0  0  0
 23 24  1  6  0  0  0
 26 25  1  0  0  0  0
 27 28  1  0  0  0  0
 28 18  1  6  0  0  0
 28 29  1  0  0  0  0
M  END
>  <MODEL>
6

>  <REMARK>
 VINA RESULT:      -6.5      2.025      2.631
  Name = 
  5 active torsions:
  status: ('A' for Active; 'I' for Inactive)
    1  A    between atoms: C_6  and  C_29
    2  A    between atoms: C_9  and  C_11
    3  A    between atoms: C_12  and  C_26
    4  A    between atoms: N_14  and  C_29
    5  A    between atoms: C_19  and  C_29
                            x       y       z     vdW  Elec       q    Type
                         _______ _______ _______ _____ _____    ______ ____

>  <TORSDO>
F 5

$$$$
=
 OpenBabel11042423123D

 29 32  0  0  1  0  0  0  0  0999 V2000
  160.5710  205.3620  150.5780 C   0  0  1  0  0  3  0  0  0  0  0  0
  161.5850  207.6680  147.1370 N   0  0  0  0  0  0  0  0  0  0  0  0
  161.3710  207.5150  149.5090 C   0  0  0  0  0  3  0  0  0  0  0  0
  160.8150  205.6330  148.1030 C   0  0  0  0  0  3  0  0  0  0  0  0
  161.1510  206.3850  146.9720 C   0  0  0  0  0  0  0  0  0  0  0  0
  160.9190  206.1960  149.3770 C   0  0  0  0  0  0  0  0  0  0  0  0
  161.7000  208.2410  148.3650 C   0  0  0  0  0  3  0  0  0  0  0  0
  161.0660  205.8280  145.6000 C   0  0  0  0  0  0  0  0  0  0  0  0
  160.0790  206.1470  144.8850 O   0  0  0  0  0  0  0  0  0  0  0  0
  162.0460  204.9430  145.0340 N   0  0  0  0  0  2  0  0  0  0  0  0
  163.2130  204.4100  145.7170 C   0  0  0  0  0  1  0  0  0  0  0  0
  161.4890  203.3800  149.3810 N   0  0  0  0  0  2  0  0  0  0  0  0
  160.8940  202.0900  149.4720 N   0  0  0  0  0  0  0  0  0  0  0  0
  161.3770  204.0540  150.6840 C   0  0  2  0  0  3  0  0  0  0  0  0
  160.7220  203.0720  151.5330 C   0  0  0  0  0  0  0  0  0  0  0  0
  160.4520  201.9230  150.7930 N   0  0  0  0  0  0  0  0  0  0  0  0
  160.4530  203.2040  152.7550 O   0  0  0  0  0  0  0  0  0  0  0  0
  161.8130  206.3800  152.3810 C   0  0  0  0  0  0  0  0  0  0  0  0
  160.6910  206.1390  151.7940 N   0  0  0  0  0  0  0  0  0  0  0  0
  163.1130  205.8390  151.8530 C   0  0  0  0  0  1  0  0  0  0  0  0
  160.6700  209.0920  154.5390 C   0  0  1  0  0  3  0  0  0  0  0  0
  160.0860  207.8170  155.1200 C   0  0  2  0  0  3  0  0  0  0  0  0
  160.2020  207.9050  156.6330 C   0  0  1  0  0  3  0  0  0  0  0  0
  160.0790  206.5990  157.2600 N   0  0  0  0  0  1  0  0  0  0  0  0
  161.5400  208.5230  156.9520 C   0  0  0  0  0  2  0  0  0  0  0  0
  161.7960  209.8620  155.7560 S   0  0  0  0  0  0  0  0  0  0  0  0
  161.4550  208.6440  153.3380 C   0  0  0  0  0  2  0  0  0  0  0  0
  161.8040  207.2010  153.6310 C   0  0  1  0  0  3  0  0  0  0  0  0
  160.8340  206.6770  154.5870 N   0  0  0  0  0  2  0  0  0  0  0  0
  1 19  1  1  0  0  0
  2  7  1  0  0  0  0
  4  6  2  0  0  0  0
  5  2  2  0  0  0  0
  5  4  1  0  0  0  0
  6  3  1  0  0  0  0
  6  1  1  0  0  0  0
  7  3  2  0  0  0  0
  8  5  1  0  0  0  0
  9  8  2  0  0  0  0
 10  8  1  0  0  0  0
 10 11  1  0  0  0  0
 12 13  1  0  0  0  0
 12 14  1  0  0  0  0
 13 16  2  0  0  0  0
 14  1  1  6  0  0  0
 14 15  1  0  0  0  0
 15 17  2  0  0  0  0
 16 15  1  0  0  0  0
 19 18  2  0  0  0  0
 20 18  1  0  0  0  0
 21 27  1  6  0  0  0
 21 22  1  0  0  0  0
 21 26  1  0  0  0  0
 22 29  1  6  0  0  0
 22 23  1  0  0  0  0
 23 25  1  0  0  0  0
 23 24  1  1  0  0  0
 26 25  1  0  0  0  0
 27 28  1  0  0  0  0
 28 18  1  6  0  0  0
 28 29  1  0  0  0  0
M  END
>  <MODEL>
7

>  <REMARK>
 VINA RESULT:      -6.4      2.554      4.145
  Name = 
  5 active torsions:
  status: ('A' for Active; 'I' for Inactive)
    1  A    between atoms: C_6  and  C_29
    2  A    between atoms: C_9  and  C_11
    3  A    between atoms: C_12  and  C_26
    4  A    between atoms: N_14  and  C_29
    5  A    between atoms: C_19  and  C_29
                            x       y       z     vdW  Elec       q    Type
                         _______ _______ _______ _____ _____    ______ ____

>  <TORSDO>
F 5

$$$$
=
 OpenBabel11042423123D

 29 32  0  0  1  0  0  0  0  0999 V2000
  161.8660  205.3830  148.5760 C   0  0  1  0  0  3  0  0  0  0  0  0
  160.0820  201.5120  148.7330 N   0  0  0  0  0  0  0  0  0  0  0  0
  160.4310  203.6490  149.7380 C   0  0  0  0  0  3  0  0  0  0  0  0
  161.4510  203.1100  147.6180 C   0  0  0  0  0  3  0  0  0  0  0  0
  160.8630  201.8400  147.6640 C   0  0  0  0  0  0  0  0  0  0  0  0
  161.2410  204.0180  148.6570 C   0  0  0  0  0  0  0  0  0  0  0  0
  159.8570  202.3780  149.7580 C   0  0  0  0  0  3  0  0  0  0  0  0
  161.0490  200.8450  146.5800 C   0  0  0  0  0  0  0  0  0  0  0  0
  161.7730  199.8400  146.8090 O   0  0  0  0  0  0  0  0  0  0  0  0
  160.4510  200.9580  145.2790 N   0  0  0  0  0  2  0  0  0  0  0  0
  159.6430  202.0690  144.8030 C   0  0  0  0  0  1  0  0  0  0  0  0
  160.3090  206.2010  146.8140 N   0  0  0  0  0  2  0  0  0  0  0  0
  160.0790  205.4840  145.6050 N   0  0  0  0  0  0  0  0  0  0  0  0
  161.7210  206.0540  147.1980 C   0  0  2  0  0  3  0  0  0  0  0  0
  162.2940  205.2490  146.1310 C   0  0  0  0  0  0  0  0  0  0  0  0
  161.3040  204.9300  145.2050 N   0  0  0  0  0  0  0  0  0  0  0  0
  163.4990  204.9020  146.0240 O   0  0  0  0  0  0  0  0  0  0  0  0
  161.8180  207.4220  149.8680 C   0  0  0  0  0  0  0  0  0  0  0  0
  161.3570  206.2430  149.6230 N   0  0  0  0  0  0  0  0  0  0  0  0
  162.9640  208.0000  149.0850 C   0  0  0  0  0  1  0  0  0  0  0  0
  161.8140  209.1500  153.0830 C   0  0  1  0  0  3  0  0  0  0  0  0
  161.8120  210.2350  152.0210 C   0  0  2  0  0  3  0  0  0  0  0  0
  160.8600  211.3280  152.4820 C   0  0  1  0  0  3  0  0  0  0  0  0
  160.4530  212.1870  151.3810 N   0  0  0  0  0  1  0  0  0  0  0  0
  159.6610  210.6550  153.1010 C   0  0  0  0  0  2  0  0  0  0  0  0
  160.2890  209.2670  154.0850 S   0  0  0  0  0  0  0  0  0  0  0  0
  161.8150  207.8590  152.3130 C   0  0  0  0  0  2  0  0  0  0  0  0
  161.2020  208.2140  150.9770 C   0  0  1  0  0  3  0  0  0  0  0  0
  161.3810  209.6450  150.7520 N   0  0  0  0  0  2  0  0  0  0  0  0
  1  6  1  0  0  0  0
  1 19  1  1  0  0  0
  2  7  1  0  0  0  0
  3  7  2  0  0  0  0
  4  5  1  0  0  0  0
  4  6  2  0  0  0  0
  5  2  2  0  0  0  0
  6  3  1  0  0  0  0
  8  9  2  0  0  0  0
  8  5  1  0  0  0  0
 10  8  1  0  0  0  0
 11 10  1  0  0  0  0
 12 14  1  0  0  0  0
 13 12  1  0  0  0  0
 14  1  1  1  0  0  0
 15 14  1  0  0  0  0
 16 13  2  0  0  0  0
 16 15  1  0  0  0  0
 17 15  2  0  0  0  0
 19 18  2  0  0  0  0
 20 18  1  0  0  0  0
 21 27  1  6  0  0  0
 21 26  1  0  0  0  0
 22 29  1  6  0  0  0
 22 23  1  0  0  0  0
 22 21  1  0  0  0  0
 23 24  1  6  0  0  0
 23 25  1  0  0  0  0
 25 26  1  0  0  0  0
 28 18  1  6  0  0  0
 28 27  1  0  0  0  0
 29 28  1  0  0  0  0
M  END
>  <MODEL>
8

>  <REMARK>
 VINA RESULT:      -6.0      1.939      2.189
  Name = 
  5 active torsions:
  status: ('A' for Active; 'I' for Inactive)
    1  A    between atoms: C_6  and  C_29
    2  A    between atoms: C_9  and  C_11
    3  A    between atoms: C_12  and  C_26
    4  A    between atoms: N_14  and  C_29
    5  A    between atoms: C_19  and  C_29
                            x       y       z     vdW  Elec       q    Type
                         _______ _______ _______ _____ _____    ______ ____

>  <TORSDO>
F 5

$$$$
=
 OpenBabel11042423123D

 29 32  0  0  1  0  0  0  0  0999 V2000
  161.1880  208.4530  150.8850 C   0  0  1  0  0  3  0  0  0  0  0  0
  160.0420  209.8430  154.7500 N   0  0  0  0  0  0  0  0  0  0  0  0
  160.0800  210.1670  152.3860 C   0  0  0  0  0  3  0  0  0  0  0  0
  161.1070  208.2180  153.3740 C   0  0  0  0  0  3  0  0  0  0  0  0
  160.7290  208.6690  154.6440 C   0  0  0  0  0  0  0  0  0  0  0  0
  160.7880  208.9680  152.2400 C   0  0  0  0  0  0  0  0  0  0  0  0
  159.7140  210.5920  153.6630 C   0  0  0  0  0  3  0  0  0  0  0  0
  161.0360  207.9040  155.8770 C   0  0  0  0  0  0  0  0  0  0  0  0
  160.4560  206.8000  156.0560 O   0  0  0  0  0  0  0  0  0  0  0  0
  161.9590  208.3470  156.8850 N   0  0  0  0  0  2  0  0  0  0  0  0
  162.6730  209.6140  156.8920 C   0  0  0  0  0  1  0  0  0  0  0  0
  162.3310  210.6450  150.5870 N   0  0  0  0  0  2  0  0  0  0  0  0
  162.2310  211.4010  149.3830 N   0  0  0  0  0  0  0  0  0  0  0  0
  162.3680  209.2130  150.2530 C   0  0  2  0  0  3  0  0  0  0  0  0
  162.3220  209.1900  148.7990 C   0  0  0  0  0  0  0  0  0  0  0  0
  162.2440  210.4930  148.3140 N   0  0  0  0  0  0  0  0  0  0  0  0
  162.3680  208.1660  148.0680 O   0  0  0  0  0  0  0  0  0  0  0  0
  160.9910  206.1830  150.0880 C   0  0  0  0  0  0  0  0  0  0  0  0
  161.4600  207.0320  150.9370 N   0  0  0  0  0  0  0  0  0  0  0  0
  160.0830  206.6050  148.9660 C   0  0  0  0  0  1  0  0  0  0  0  0
  160.5210  202.7830  151.3310 C   0  0  1  0  0  3  0  0  0  0  0  0
  160.1550  202.7480  149.8590 C   0  0  2  0  0  3  0  0  0  0  0  0
  160.7210  201.4640  149.2750 C   0  0  1  0  0  3  0  0  0  0  0  0
  160.8090  201.5240  147.8250 N   0  0  0  0  0  1  0  0  0  0  0  0
  162.0860  201.2510  149.8800 C   0  0  0  0  0  2  0  0  0  0  0  0
  161.9540  201.6880  151.6350 S   0  0  0  0  0  0  0  0  0  0  0  0
  160.9120  204.2110  151.5960 C   0  0  0  0  0  2  0  0  0  0  0  0
  161.3500  204.7390  150.2480 C   0  0  1  0  0  3  0  0  0  0  0  0
  160.7210  203.9320  149.2090 N   0  0  0  0  0  2  0  0  0  0  0  0
  1 19  1  1  0  0  0
  1  6  1  0  0  0  0
  3  7  1  0  0  0  0
  4  5  2  0  0  0  0
  5  2  1  0  0  0  0
  5  8  1  0  0  0  0
  6  3  2  0  0  0  0
  6  4  1  0  0  0  0
  7  2  2  0  0  0  0
  8  9  2  0  0  0  0
  8 10  1  0  0  0  0
 10 11  1  0  0  0  0
 13 12  1  0  0  0  0
 14 12  1  0  0  0  0
 14  1  1  1  0  0  0
 15 14  1  0  0  0  0
 16 15  1  0  0  0  0
 16 13  2  0  0  0  0
 17 15  2  0  0  0  0
 18 19  2  0  0  0  0
 20 18  1  0  0  0  0
 21 27  1  6  0  0  0
 21 26  1  0  0  0  0
 22 29  1  6  0  0  0
 22 21  1  0  0  0  0
 23 24  1  6  0  0  0
 23 22  1  0  0  0  0
 23 25  1  0  0  0  0
 25 26  1  0  0  0  0
 28 18  1  6  0  0  0
 28 27  1  0  0  0  0
 29 28  1  0  0  0  0
M  END
>  <MODEL>
9

>  <REMARK>
 VINA RESULT:      -5.7      2.916      7.702
  Name = 
  5 active torsions:
  status: ('A' for Active; 'I' for Inactive)
    1  A    between atoms: C_6  and  C_29
    2  A    between atoms: C_9  and  C_11
    3  A    between atoms: C_12  and  C_26
    4  A    between atoms: N_14  and  C_29
    5  A    between atoms: C_19  and  C_29
                            x       y       z     vdW  Elec       q    Type
                         _______ _______ _______ _____ _____    ______ ____

>  <TORSDO>
F 5

$$$$
