=
 OpenBabel11052412103D

 56 63  0  0  1  0  0  0  0  0999 V2000
  160.4120  209.4280  152.3380 C   0  0  0  0  0  2  0  0  0  0  0  0
  163.2790  208.5010  150.5430 C   0  0  0  0  0  2  0  0  0  0  0  0
  162.3100  206.5910  146.7300 C   0  0  0  0  0  3  0  0  0  0  0  0
  162.4910  207.2340  150.3900 C   0  0  0  0  0  0  0  0  0  0  0  0
  162.6280  207.1490  147.8920 C   0  0  0  0  0  0  0  0  0  0  0  0
  160.6270  203.2430  149.1820 N   0  0  0  0  0  0  0  0  0  0  0  0
  162.4250  209.7470  150.7270 C   0  0  2  0  0  3  0  0  0  0  0  0
  161.8670  209.8620  152.1500 C   0  0  0  0  0  2  0  0  0  0  0  0
  162.1160  206.3530  151.5650 C   0  0  1  0  0  3  0  0  0  0  0  0
  161.4880  205.4160  146.3690 C   0  0  0  0  0  0  0  0  0  0  0  0
  160.1090  208.0150  151.8450 C   0  0  0  0  0  2  0  0  0  0  0  0
  161.0100  204.5440  147.2010 N   0  0  0  0  0  0  0  0  0  0  0  0
  160.9890  206.9120  152.4500 C   0  0  2  0  0  3  0  0  0  0  0  0
  163.4210  208.2480  147.8180 F   0  0  0  0  0  0  0  0  0  0  0  0
  161.1280  203.9800  151.4020 C   0  0  0  0  0  3  0  0  0  0  0  0
  161.6040  205.1600  150.8420 C   0  0  0  0  0  0  0  0  0  0  0  0
  161.6190  205.3620  149.4790 C   0  0  0  0  0  0  0  0  0  0  0  0
  161.1080  204.3920  148.6230 C   0  0  0  0  0  0  0  0  0  0  0  0
  162.2120  206.6500  149.2100 C   0  0  0  0  0  0  0  0  0  0  0  0
  160.6350  203.0110  150.5260 C   0  0  0  0  0  3  0  0  0  0  0  0
  161.6320  206.0200  144.0550 C   0  0  0  0  0  3  0  0  0  0  0  0
  161.1800  205.2280  144.9830 N   0  0  0  0  0  0  0  0  0  0  0  0
  161.2160  205.8180  142.6340 C   0  0  0  0  0  2  0  0  0  0  0  0
  162.1230  206.5450  141.7610 N   0  0  0  0  0  0  0  0  0  0  0  0
  162.8380  205.6060  141.0760 O   0  0  0  0  0  1  0  0  0  0  0  0
  162.0370  207.3390  139.4620 C   0  0  0  0  0  2  0  0  0  0  0  0
  162.0330  208.5400  140.3840 C   0  0  0  0  0  2  0  0  0  0  0  0
  161.3100  207.2680  140.7980 C   0  0  0  0  0  3  0  0  0  0  0  0
  161.3580  207.0670  153.8920 C   0  0  0  0  0  3  0  0  0  0  0  0
  160.4990  207.5980  154.7440 C   0  0  0  0  0  3  0  0  0  0  0  0
  160.8560  207.7420  156.1810 C   0  0  0  0  0  2  0  0  0  0  0  0
  160.4240  209.1070  156.6820 C   0  0  0  0  0  2  0  0  0  0  0  0
  159.0700  209.4900  156.1070 C   0  0  0  0  0  2  0  0  0  0  0  0
  157.3930  211.4890  156.1870 C   0  0  1  0  0  3  0  0  0  0  0  0
  158.8940  211.0140  156.1000 C   0  0  2  0  0  3  0  0  0  0  0  0
  161.0070  211.4590  155.0170 O   0  0  0  0  0  1  0  0  0  0  0  0
  159.3740  213.2070  155.0050 C   0  0  2  0  0  0  0  0  0  0  0  0
  157.2390  212.8720  155.8810 O   0  0  0  0  0  0  0  0  0  0  0  0
  159.6020  213.6870  156.3010 O   0  0  0  0  0  1  0  0  0  0  0  0
  158.5670  214.2790  154.2600 C   0  0  2  0  0  3  0  0  0  0  0  0
  157.8760  213.0350  154.6420 C   0  0  1  0  0  3  0  0  0  0  0  0
  159.6380  211.7030  154.9180 C   0  0  2  0  0  3  0  0  0  0  0  0
  158.9180  214.2370  152.8500 N   0  0  0  0  0  2  0  0  0  0  0  0
  157.8140  213.8180  152.1800 O   0  0  0  0  0  1  0  0  0  0  0  0
  156.3980  210.6270  155.3970 C   0  0  0  0  0  2  0  0  0  0  0  0
  155.1750  210.6110  156.0720 O   0  0  0  0  0  1  0  0  0  0  0  0
  161.3880  209.9660  149.6260 C   0  0  0  0  0  2  0  0  0  0  0  0
  161.9390  210.8900  148.5490 C   0  0  0  0  0  2  0  0  0  0  0  0
  162.4780  213.3120  146.5970 S   0  0  0  0  0  0  0  0  0  0  0  0
  159.8120  213.0830  146.2810 N   0  0  0  0  0  0  0  0  0  0  0  0
  160.9210  212.5290  146.9740 C   0  0  0  0  0  0  0  0  0  0  0  0
  160.2020  214.0680  145.2830 C   0  0  0  0  0  2  0  0  0  0  0  0
  160.8010  211.4740  147.7830 C   0  0  0  0  0  3  0  0  0  0  0  0
  161.7100  213.9390  145.0550 C   0  0  0  0  0  2  0  0  0  0  0  0
  157.4840  213.4110  145.6260 C   0  0  0  0  0  1  0  0  0  0  0  0
  158.4810  212.5000  146.3190 C   0  0  0  0  0  2  0  0  0  0  0  0
  2  7  1  0  0  0  0
  3  5  2  0  0  0  0
  4  2  1  0  0  0  0
  5 19  1  0  0  0  0
  6 20  1  0  0  0  0
  7 47  1  6  0  0  0
  7  8  1  0  0  0  0
  8  1  1  0  0  0  0
  9  4  1  6  0  0  0
  9 13  1  0  0  0  0
 10  3  1  0  0  0  0
 10 12  2  0  0  0  0
 11  1  1  0  0  0  0
 11 13  1  0  0  0  0
 12 18  1  0  0  0  0
 13 29  1  1  0  0  0
 14  5  1  0  0  0  0
 16 15  1  0  0  0  0
 16  9  1  0  0  0  0
 17 16  2  0  0  0  0
 18  6  2  0  0  0  0
 18 17  1  0  0  0  0
 19 17  1  0  0  0  0
 19  4  2  0  0  0  0
 20 15  2  0  0  0  0
 21 22  2  0  0  0  0
 22 10  1  0  0  0  0
 23 21  1  0  0  0  0
 24 23  1  0  0  0  0
 25 24  1  0  0  0  0
 26 27  1  0  0  0  0
 26 28  1  0  0  0  0
 27 28  1  0  0  0  0
 28 24  1  0  0  0  0
 29 30  2  0  0  0  0
 30 31  1  0  0  0  0
 31 32  1  0  0  0  0
 33 32  1  0  0  0  0
 34 45  1  6  0  0  0
 35 33  1  6  0  0  0
 35 34  1  0  0  0  0
 37 39  1  1  0  0  0
 38 34  1  0  0  0  0
 40 43  1  6  0  0  0
 40 41  1  0  0  0  0
 40 37  1  0  0  0  0
 41 37  1  0  0  0  0
 41 38  1  1  0  0  0
 42 37  1  0  0  0  0
 42 36  1  1  0  0  0
 42 35  1  0  0  0  0
 44 43  1  0  0  0  0
 45 46  1  0  0  0  0
 48 47  1  0  0  0  0
 49 51  1  0  0  0  0
 50 56  1  0  0  0  0
 50 51  1  0  0  0  0
 51 53  2  0  0  0  0
 52 50  1  0  0  0  0
 53 48  1  0  0  0  0
 54 52  1  0  0  0  0
 54 49  1  0  0  0  0
 55 56  1  0  0  0  0
M  END
>  <MODEL>
1

>  <REMARK>
 VINA RESULT:      -3.3      0.000      0.000
  Name = 
  15 active torsions:
  status: ('A' for Active; 'I' for Inactive)
    1  A    between atoms: C_2  and  C_35
    2  A    between atoms: C_4  and  C_14
    3  A    between atoms: C_6  and  C_9
    4  A    between atoms: C_9  and  C_33
    5  A    between atoms: C_10  and  C_16
    6  A    between atoms: C_10  and  C_25
    7  A    between atoms: N_11  and  C_49
    8  A    between atoms: C_12  and  C_40
    9  A    between atoms: C_16  and  C_47
   10  A    between atoms: N_19  and  C_42
   11  A    between atoms: N_23  and  C_29
   12  A    between atoms: N_24  and  C_35
   13  A    between atoms: N_24  and  C_53
   14  A    between atoms: C_32  and  C_33
   15  A    between atoms: C_32  and  C_56
                            x       y       z     vdW  Elec       q    Type
                         _______ _______ _______ _____ _____    ______ ____

>  <TORSDO>
F 15

$$$$
=
 OpenBabel11052412103D

 56 63  0  0  1  0  0  0  0  0999 V2000
  160.8020  211.6760  146.3270 C   0  0  0  0  0  2  0  0  0  0  0  0
  161.1450  214.4510  148.4450 C   0  0  0  0  0  2  0  0  0  0  0  0
  159.0290  213.9220  152.2360 C   0  0  0  0  0  3  0  0  0  0  0  0
  159.6670  214.2360  148.5850 C   0  0  0  0  0  0  0  0  0  0  0  0
  159.6620  214.1140  151.0840 C   0  0  0  0  0  0  0  0  0  0  0  0
  155.2710  214.0360  149.8050 N   0  0  0  0  0  0  0  0  0  0  0  0
  161.9290  213.1890  148.1130 C   0  0  2  0  0  3  0  0  0  0  0  0
  161.7960  212.7970  146.6370 C   0  0  0  0  0  2  0  0  0  0  0  0
  158.7020  214.3870  147.4240 C   0  0  1  0  0  3  0  0  0  0  0  0
  157.6240  213.6160  152.5740 C   0  0  0  0  0  0  0  0  0  0  0  0
  159.3920  211.9220  146.8600 C   0  0  0  0  0  2  0  0  0  0  0  0
  156.6260  213.6310  151.7440 N   0  0  0  0  0  0  0  0  0  0  0  0
  158.7440  213.2370  146.4040 C   0  0  2  0  0  3  0  0  0  0  0  0
  160.9900  214.3770  151.1800 F   0  0  0  0  0  0  0  0  0  0  0  0
  156.1340  214.4390  147.6110 C   0  0  0  0  0  3  0  0  0  0  0  0
  157.4100  214.3280  148.1530 C   0  0  0  0  0  0  0  0  0  0  0  0
  157.6080  214.1060  149.4990 C   0  0  0  0  0  0  0  0  0  0  0  0
  156.5190  213.9410  150.3490 C   0  0  0  0  0  0  0  0  0  0  0  0
  159.0280  214.0880  149.7590 C   0  0  0  0  0  0  0  0  0  0  0  0
  155.0540  214.2890  148.4830 C   0  0  0  0  0  3  0  0  0  0  0  0
  157.9980  212.3360  154.5640 C   0  0  0  0  0  3  0  0  0  0  0  0
  157.3340  213.2580  153.9300 N   0  0  0  0  0  0  0  0  0  0  0  0
  157.6010  211.9530  155.9530 C   0  0  0  0  0  2  0  0  0  0  0  0
  156.1540  212.0240  156.0730 N   0  0  0  0  0  0  0  0  0  0  0  0
  155.7220  210.7520  156.3120 O   0  0  0  0  0  1  0  0  0  0  0  0
  155.0250  214.0300  156.8630 C   0  0  0  0  0  2  0  0  0  0  0  0
  156.5090  214.1840  157.1200 C   0  0  0  0  0  2  0  0  0  0  0  0
  155.8560  212.8170  157.2540 C   0  0  0  0  0  3  0  0  0  0  0  0
  159.0280  213.6700  145.0000 C   0  0  0  0  0  3  0  0  0  0  0  0
  160.1940  213.3950  144.4430 C   0  0  0  0  0  3  0  0  0  0  0  0
  160.4760  213.8110  143.0420 C   0  0  0  0  0  2  0  0  0  0  0  0
  160.4880  212.5920  142.1390 C   0  0  0  0  0  2  0  0  0  0  0  0
  159.8120  212.8960  140.8120 C   0  0  0  0  0  2  0  0  0  0  0  0
  159.8730  212.3410  138.2620 C   0  0  1  0  0  3  0  0  0  0  0  0
  160.6340  212.3380  139.6440 C   0  0  2  0  0  3  0  0  0  0  0  0
  162.1110  211.0320  141.0370 O   0  0  0  0  0  1  0  0  0  0  0  0
  162.0200  210.4810  138.7110 C   0  0  2  0  0  0  0  0  0  0  0  0
  160.5330  211.5570  137.2730 O   0  0  0  0  0  0  0  0  0  0  0  0
  162.8730  211.4900  138.2450 O   0  0  0  0  0  1  0  0  0  0  0  0
  161.8830  209.4470  137.5860 C   0  0  2  0  0  3  0  0  0  0  0  0
  160.7240  210.3060  137.8800 C   0  0  1  0  0  3  0  0  0  0  0  0
  161.2460  210.9380  139.9490 C   0  0  2  0  0  3  0  0  0  0  0  0
  161.6880  208.1330  138.1750 N   0  0  0  0  0  2  0  0  0  0  0  0
  160.4800  208.1540  138.7950 O   0  0  0  0  0  1  0  0  0  0  0  0
  158.3800  211.9930  138.3480 C   0  0  0  0  0  2  0  0  0  0  0  0
  158.2220  210.8690  139.1630 O   0  0  0  0  0  1  0  0  0  0  0  0
  161.7110  212.0370  149.0920 C   0  0  0  0  0  2  0  0  0  0  0  0
  162.4840  210.8040  148.6470 C   0  0  0  0  0  2  0  0  0  0  0  0
  161.5840  207.9180  147.7370 S   0  0  0  0  0  0  0  0  0  0  0  0
  161.7230  207.5120  150.3970 N   0  0  0  0  0  0  0  0  0  0  0  0
  161.8970  208.5010  149.3920 C   0  0  0  0  0  0  0  0  0  0  0  0
  161.4830  206.1840  149.8500 C   0  0  0  0  0  2  0  0  0  0  0  0
  162.3210  209.7350  149.6750 C   0  0  0  0  0  3  0  0  0  0  0  0
  161.8430  206.2140  148.3620 C   0  0  0  0  0  2  0  0  0  0  0  0
  160.8580  208.1770  152.5800 C   0  0  0  0  0  1  0  0  0  0  0  0
  162.0740  207.7260  151.7920 C   0  0  0  0  0  2  0  0  0  0  0  0
  1  8  1  0  0  0  0
  1 11  1  0  0  0  0
  2  4  1  0  0  0  0
  3 10  1  0  0  0  0
  4 19  2  0  0  0  0
  5 14  1  0  0  0  0
  5  3  2  0  0  0  0
  6 18  2  0  0  0  0
  7  2  1  0  0  0  0
  7 47  1  1  0  0  0
  8  7  1  0  0  0  0
  9 16  1  1  0  0  0
  9  4  1  0  0  0  0
 10 22  1  0  0  0  0
 12 10  2  0  0  0  0
 13 29  1  6  0  0  0
 13 11  1  0  0  0  0
 13  9  1  0  0  0  0
 15 16  1  0  0  0  0
 15 20  2  0  0  0  0
 16 17  2  0  0  0  0
 17 19  1  0  0  0  0
 17 18  1  0  0  0  0
 18 12  1  0  0  0  0
 19  5  1  0  0  0  0
 20  6  1  0  0  0  0
 21 23  1  0  0  0  0
 22 21  2  0  0  0  0
 23 24  1  0  0  0  0
 24 25  1  0  0  0  0
 24 28  1  0  0  0  0
 26 27  1  0  0  0  0
 26 28  1  0  0  0  0
 27 28  1  0  0  0  0
 30 29  2  0  0  0  0
 31 30  1  0  0  0  0
 32 31  1  0  0  0  0
 33 32  1  0  0  0  0
 34 45  1  1  0  0  0
 34 35  1  0  0  0  0
 35 42  1  0  0  0  0
 35 33  1  1  0  0  0
 37 39  1  6  0  0  0
 37 42  1  0  0  0  0
 38 34  1  0  0  0  0
 40 41  1  0  0  0  0
 40 43  1  1  0  0  0
 40 37  1  0  0  0  0
 41 38  1  6  0  0  0
 41 37  1  0  0  0  0
 42 36  1  1  0  0  0
 43 44  1  0  0  0  0
 45 46  1  0  0  0  0
 48 47  1  0  0  0  0
 48 53  1  0  0  0  0
 49 54  1  0  0  0  0
 49 51  1  0  0  0  0
 50 56  1  0  0  0  0
 51 53  2  0  0  0  0
 51 50  1  0  0  0  0
 52 50  1  0  0  0  0
 54 52  1  0  0  0  0
 56 55  1  0  0  0  0
M  END
>  <MODEL>
2

>  <REMARK>
 VINA RESULT:      -3.0      3.479     12.665
  Name = 
  15 active torsions:
  status: ('A' for Active; 'I' for Inactive)
    1  A    between atoms: C_2  and  C_35
    2  A    between atoms: C_4  and  C_14
    3  A    between atoms: C_6  and  C_9
    4  A    between atoms: C_9  and  C_33
    5  A    between atoms: C_10  and  C_16
    6  A    between atoms: C_10  and  C_25
    7  A    between atoms: N_11  and  C_49
    8  A    between atoms: C_12  and  C_40
    9  A    between atoms: C_16  and  C_47
   10  A    between atoms: N_19  and  C_42
   11  A    between atoms: N_23  and  C_29
   12  A    between atoms: N_24  and  C_35
   13  A    between atoms: N_24  and  C_53
   14  A    between atoms: C_32  and  C_33
   15  A    between atoms: C_32  and  C_56
                            x       y       z     vdW  Elec       q    Type
                         _______ _______ _______ _____ _____    ______ ____

>  <TORSDO>
F 15

$$$$
=
 OpenBabel11052412103D

 56 63  0  0  1  0  0  0  0  0999 V2000
  160.1840  210.5690  152.6990 C   0  0  0  0  0  2  0  0  0  0  0  0
  163.1400  209.6320  151.0600 C   0  0  0  0  0  2  0  0  0  0  0  0
  162.3820  207.0740  147.5940 C   0  0  0  0  0  3  0  0  0  0  0  0
  162.4690  208.2910  151.1080 C   0  0  0  0  0  0  0  0  0  0  0  0
  162.6380  207.8320  148.6540 C   0  0  0  0  0  0  0  0  0  0  0  0
  160.9760  204.0120  150.5440 N   0  0  0  0  0  0  0  0  0  0  0  0
  162.1780  210.8110  151.0500 C   0  0  2  0  0  3  0  0  0  0  0  0
  161.5980  211.0950  152.4400 C   0  0  0  0  0  2  0  0  0  0  0  0
  162.1610  207.5740  152.4080 C   0  0  1  0  0  3  0  0  0  0  0  0
  161.6710  205.7890  147.4230 C   0  0  0  0  0  0  0  0  0  0  0  0
  160.0130  209.0750  152.4330 C   0  0  0  0  0  2  0  0  0  0  0  0
  161.2630  205.0180  148.3830 N   0  0  0  0  0  0  0  0  0  0  0  0
  160.9800  208.1620  153.1990 C   0  0  2  0  0  3  0  0  0  0  0  0
  163.3320  208.9720  148.4070 F   0  0  0  0  0  0  0  0  0  0  0  0
  161.3870  205.1260  152.6200 C   0  0  0  0  0  3  0  0  0  0  0  0
  161.7640  206.2430  151.8820 C   0  0  0  0  0  0  0  0  0  0  0  0
  161.7750  206.2310  150.5040 C   0  0  0  0  0  0  0  0  0  0  0  0
  161.3590  205.0980  149.8110 C   0  0  0  0  0  0  0  0  0  0  0  0
  162.2550  207.5090  150.0350 C   0  0  0  0  0  0  0  0  0  0  0  0
  160.9910  203.9930  151.9070 C   0  0  0  0  0  3  0  0  0  0  0  0
  160.2960  204.7440  145.7640 C   0  0  0  0  0  3  0  0  0  0  0  0
  161.3950  205.3620  146.0850 N   0  0  0  0  0  0  0  0  0  0  0  0
  160.0970  204.2550  144.3660 C   0  0  0  0  0  2  0  0  0  0  0  0
  159.2050  203.1070  144.3830 N   0  0  0  0  0  0  0  0  0  0  0  0
  158.5570  203.1010  143.1830 O   0  0  0  0  0  1  0  0  0  0  0  0
  159.4440  200.9230  145.4310 C   0  0  0  0  0  2  0  0  0  0  0  0
  160.6260  201.7790  145.8330 C   0  0  0  0  0  2  0  0  0  0  0  0
  160.0350  201.9150  144.4400 C   0  0  0  0  0  3  0  0  0  0  0  0
  161.3190  208.5710  154.5980 C   0  0  0  0  0  3  0  0  0  0  0  0
  160.3780  209.0310  155.4020 C   0  0  0  0  0  3  0  0  0  0  0  0
  160.7070  209.4260  156.7980 C   0  0  0  0  0  2  0  0  0  0  0  0
  159.7650  210.5240  157.2550 C   0  0  0  0  0  2  0  0  0  0  0  0
  158.3830  210.3360  156.6510 C   0  0  0  0  0  2  0  0  0  0  0  0
  156.2110  211.6100  155.9600 C   0  0  1  0  0  3  0  0  0  0  0  0
  157.7430  211.6920  156.3250 C   0  0  2  0  0  3  0  0  0  0  0  0
  159.8240  212.7590  155.7200 O   0  0  0  0  0  1  0  0  0  0  0  0
  157.7980  213.8070  154.9980 C   0  0  2  0  0  0  0  0  0  0  0  0
  155.7220  212.8160  155.3800 O   0  0  0  0  0  0  0  0  0  0  0  0
  157.4780  214.4490  156.2010 O   0  0  0  0  0  1  0  0  0  0  0  0
  156.9450  214.4530  153.8980 C   0  0  2  0  0  3  0  0  0  0  0  0
  156.6040  213.0850  154.3220 C   0  0  1  0  0  3  0  0  0  0  0  0
  158.5390  212.4930  155.2520 C   0  0  2  0  0  3  0  0  0  0  0  0
  157.6820  214.4140  152.6470 N   0  0  0  0  0  2  0  0  0  0  0  0
  157.1600  213.3990  151.9110 O   0  0  0  0  0  1  0  0  0  0  0  0
  155.8130  210.3850  155.1240 C   0  0  0  0  0  2  0  0  0  0  0  0
  154.4700  210.0870  155.3670 O   0  0  0  0  0  1  0  0  0  0  0  0
  161.1370  210.7630  149.9330 C   0  0  0  0  0  2  0  0  0  0  0  0
  160.5630  212.1500  149.6780 C   0  0  0  0  0  2  0  0  0  0  0  0
  162.4390  213.5190  147.5390 S   0  0  0  0  0  0  0  0  0  0  0  0
  160.3380  212.9260  145.9600 N   0  0  0  0  0  0  0  0  0  0  0  0
  160.8100  212.8360  147.2960 C   0  0  0  0  0  0  0  0  0  0  0  0
  161.3510  213.4110  145.0320 C   0  0  0  0  0  2  0  0  0  0  0  0
  160.1100  212.2320  148.2590 C   0  0  0  0  0  3  0  0  0  0  0  0
  162.7090  213.3370  145.7350 C   0  0  0  0  0  2  0  0  0  0  0  0
  158.1230  213.3460  145.0250 C   0  0  0  0  0  1  0  0  0  0  0  0
  159.1080  212.2970  145.5080 C   0  0  0  0  0  2  0  0  0  0  0  0
  2  4  1  0  0  0  0
  3  5  2  0  0  0  0
  5 19  1  0  0  0  0
  6 20  1  0  0  0  0
  7 47  1  6  0  0  0
  7  2  1  0  0  0  0
  7  8  1  0  0  0  0
  8  1  1  0  0  0  0
  9  4  1  6  0  0  0
  9 13  1  0  0  0  0
 10  3  1  0  0  0  0
 10 12  2  0  0  0  0
 11  1  1  0  0  0  0
 11 13  1  0  0  0  0
 12 18  1  0  0  0  0
 13 29  1  1  0  0  0
 14  5  1  0  0  0  0
 16  9  1  0  0  0  0
 16 15  1  0  0  0  0
 17 16  2  0  0  0  0
 18 17  1  0  0  0  0
 18  6  2  0  0  0  0
 19 17  1  0  0  0  0
 19  4  2  0  0  0  0
 20 15  2  0  0  0  0
 21 22  2  0  0  0  0
 22 10  1  0  0  0  0
 23 24  1  0  0  0  0
 23 21  1  0  0  0  0
 24 28  1  0  0  0  0
 25 24  1  0  0  0  0
 26 27  1  0  0  0  0
 28 26  1  0  0  0  0
 28 27  1  0  0  0  0
 29 30  2  0  0  0  0
 30 31  1  0  0  0  0
 31 32  1  0  0  0  0
 33 32  1  0  0  0  0
 34 45  1  6  0  0  0
 34 35  1  0  0  0  0
 35 33  1  6  0  0  0
 37 42  1  0  0  0  0
 37 39  1  1  0  0  0
 38 34  1  0  0  0  0
 40 43  1  6  0  0  0
 40 41  1  0  0  0  0
 40 37  1  0  0  0  0
 41 37  1  0  0  0  0
 41 38  1  1  0  0  0
 42 36  1  1  0  0  0
 42 35  1  0  0  0  0
 44 43  1  0  0  0  0
 45 46  1  0  0  0  0
 48 47  1  0  0  0  0
 50 51  1  0  0  0  0
 51 49  1  0  0  0  0
 51 53  2  0  0  0  0
 52 54  1  0  0  0  0
 52 50  1  0  0  0  0
 53 48  1  0  0  0  0
 54 49  1  0  0  0  0
 55 56  1  0  0  0  0
 56 50  1  0  0  0  0
M  END
>  <MODEL>
3

>  <REMARK>
 VINA RESULT:      -2.7      1.983      2.552
  Name = 
  15 active torsions:
  status: ('A' for Active; 'I' for Inactive)
    1  A    between atoms: C_2  and  C_35
    2  A    between atoms: C_4  and  C_14
    3  A    between atoms: C_6  and  C_9
    4  A    between atoms: C_9  and  C_33
    5  A    between atoms: C_10  and  C_16
    6  A    between atoms: C_10  and  C_25
    7  A    between atoms: N_11  and  C_49
    8  A    between atoms: C_12  and  C_40
    9  A    between atoms: C_16  and  C_47
   10  A    between atoms: N_19  and  C_42
   11  A    between atoms: N_23  and  C_29
   12  A    between atoms: N_24  and  C_35
   13  A    between atoms: N_24  and  C_53
   14  A    between atoms: C_32  and  C_33
   15  A    between atoms: C_32  and  C_56
                            x       y       z     vdW  Elec       q    Type
                         _______ _______ _______ _____ _____    ______ ____

>  <TORSDO>
F 15

$$$$
=
 OpenBabel11052412103D

 56 63  0  0  1  0  0  0  0  0999 V2000
  160.6640  211.5030  146.9450 C   0  0  0  0  0  2  0  0  0  0  0  0
  160.8620  214.3770  148.9460 C   0  0  0  0  0  2  0  0  0  0  0  0
  158.3780  214.0820  152.5340 C   0  0  0  0  0  3  0  0  0  0  0  0
  159.3730  214.1950  148.9510 C   0  0  0  0  0  0  0  0  0  0  0  0
  159.1230  214.2030  151.4410 C   0  0  0  0  0  0  0  0  0  0  0  0
  154.8760  214.1350  149.7450 N   0  0  0  0  0  0  0  0  0  0  0  0
  161.6460  213.0870  148.7550 C   0  0  2  0  0  3  0  0  0  0  0  0
  161.6480  212.6220  147.2950 C   0  0  0  0  0  2  0  0  0  0  0  0
  158.5280  214.3020  147.6960 C   0  0  1  0  0  3  0  0  0  0  0  0
  156.9400  213.8180  152.7480 C   0  0  0  0  0  0  0  0  0  0  0  0
  159.2150  211.8010  147.3250 C   0  0  0  0  0  2  0  0  0  0  0  0
  156.0280  213.8070  151.8250 N   0  0  0  0  0  0  0  0  0  0  0  0
  158.6430  213.1010  146.7430 C   0  0  2  0  0  3  0  0  0  0  0  0
  160.4420  214.4480  151.6530 F   0  0  0  0  0  0  0  0  0  0  0  0
  155.9560  214.4090  147.6280 C   0  0  0  0  0  3  0  0  0  0  0  0
  157.1700  214.3030  148.2970 C   0  0  0  0  0  0  0  0  0  0  0  0
  157.2330  214.1480  149.6650 C   0  0  0  0  0  0  0  0  0  0  0  0
  156.0630  214.0460  150.4120 C   0  0  0  0  0  0  0  0  0  0  0  0
  158.6200  214.1200  150.0630 C   0  0  0  0  0  0  0  0  0  0  0  0
  154.7940  214.3230  148.3970 C   0  0  0  0  0  3  0  0  0  0  0  0
  157.3410  213.5010  155.0880 C   0  0  0  0  0  3  0  0  0  0  0  0
  156.5130  213.5350  154.0850 N   0  0  0  0  0  0  0  0  0  0  0  0
  156.8490  213.1260  156.4480 C   0  0  0  0  0  2  0  0  0  0  0  0
  156.9200  211.6820  156.6020 N   0  0  0  0  0  0  0  0  0  0  0  0
  155.8540  211.1670  155.9250 O   0  0  0  0  0  1  0  0  0  0  0  0
  158.8000  210.1430  156.7470 C   0  0  0  0  0  2  0  0  0  0  0  0
  159.3360  211.5580  156.7900 C   0  0  0  0  0  2  0  0  0  0  0  0
  158.1270  211.2350  155.9270 C   0  0  0  0  0  3  0  0  0  0  0  0
  159.0710  213.4560  145.3540 C   0  0  0  0  0  3  0  0  0  0  0  0
  159.4220  212.5070  144.5040 C   0  0  0  0  0  3  0  0  0  0  0  0
  159.8350  212.8540  143.1170 C   0  0  0  0  0  2  0  0  0  0  0  0
  158.6120  212.9250  142.2220 C   0  0  0  0  0  2  0  0  0  0  0  0
  159.0120  212.8810  140.7560 C   0  0  0  0  0  2  0  0  0  0  0  0
  161.4670  212.1070  141.1910 C   0  0  1  0  0  3  0  0  0  0  0  0
  160.0750  211.8020  140.5150 C   0  0  2  0  0  3  0  0  0  0  0  0
  159.0450  210.9450  138.5050 O   0  0  0  0  0  1  0  0  0  0  0  0
  161.3380  210.3830  138.8930 C   0  0  2  0  0  0  0  0  0  0  0  0
  162.5050  211.2580  140.7120 O   0  0  0  0  0  0  0  0  0  0  0  0
  161.1250  209.3370  139.8000 O   0  0  0  0  0  1  0  0  0  0  0  0
  162.7890  210.2720  138.4050 C   0  0  2  0  0  3  0  0  0  0  0  0
  162.4480  211.3790  139.3150 C   0  0  1  0  0  3  0  0  0  0  0  0
  160.2450  211.4470  139.0080 C   0  0  2  0  0  3  0  0  0  0  0  0
  162.8650  210.7600  137.0390 N   0  0  0  0  0  2  0  0  0  0  0  0
  162.7940  212.1150  137.0990 O   0  0  0  0  0  1  0  0  0  0  0  0
  161.8910  213.5830  141.1570 C   0  0  0  0  0  2  0  0  0  0  0  0
  163.1350  213.7120  141.7770 O   0  0  0  0  0  1  0  0  0  0  0  0
  161.3090  211.9910  149.7640 C   0  0  0  0  0  2  0  0  0  0  0  0
  162.3960  210.9260  149.7800 C   0  0  0  0  0  2  0  0  0  0  0  0
  162.2230  208.2400  148.1300 S   0  0  0  0  0  0  0  0  0  0  0  0
  161.1650  207.3910  150.4570 N   0  0  0  0  0  0  0  0  0  0  0  0
  161.7040  208.5340  149.8100 C   0  0  0  0  0  0  0  0  0  0  0  0
  161.2980  206.1760  149.6660 C   0  0  0  0  0  2  0  0  0  0  0  0
  161.8620  209.7000  150.4400 C   0  0  0  0  0  3  0  0  0  0  0  0
  162.2930  206.4540  148.5360 C   0  0  0  0  0  2  0  0  0  0  0  0
  161.7940  206.4780  152.6310 C   0  0  0  0  0  1  0  0  0  0  0  0
  160.8250  207.3640  151.8700 C   0  0  0  0  0  2  0  0  0  0  0  0
  1  8  1  0  0  0  0
  1 11  1  0  0  0  0
  2  4  1  0  0  0  0
  3 10  1  0  0  0  0
  4 19  2  0  0  0  0
  5 14  1  0  0  0  0
  5  3  2  0  0  0  0
  6 18  2  0  0  0  0
  7  2  1  0  0  0  0
  7 47  1  1  0  0  0
  8  7  1  0  0  0  0
  9 16  1  1  0  0  0
  9  4  1  0  0  0  0
 10 22  1  0  0  0  0
 12 10  2  0  0  0  0
 13 29  1  6  0  0  0
 13 11  1  0  0  0  0
 13  9  1  0  0  0  0
 15 16  1  0  0  0  0
 15 20  2  0  0  0  0
 16 17  2  0  0  0  0
 17 19  1  0  0  0  0
 17 18  1  0  0  0  0
 18 12  1  0  0  0  0
 19  5  1  0  0  0  0
 20  6  1  0  0  0  0
 21 23  1  0  0  0  0
 22 21  2  0  0  0  0
 23 24  1  0  0  0  0
 25 24  1  0  0  0  0
 26 27  1  0  0  0  0
 28 24  1  0  0  0  0
 28 26  1  0  0  0  0
 28 27  1  0  0  0  0
 30 29  2  0  0  0  0
 31 30  1  0  0  0  0
 32 31  1  0  0  0  0
 33 32  1  0  0  0  0
 34 45  1  6  0  0  0
 35 33  1  6  0  0  0
 35 34  1  0  0  0  0
 37 42  1  0  0  0  0
 37 41  1  0  0  0  0
 37 39  1  1  0  0  0
 38 34  1  0  0  0  0
 40 43  1  6  0  0  0
 40 37  1  0  0  0  0
 40 41  1  0  0  0  0
 41 38  1  1  0  0  0
 42 36  1  1  0  0  0
 42 35  1  0  0  0  0
 43 44  1  0  0  0  0
 45 46  1  0  0  0  0
 47 48  1  0  0  0  0
 48 53  1  0  0  0  0
 49 54  1  0  0  0  0
 49 51  1  0  0  0  0
 50 56  1  0  0  0  0
 51 53  2  0  0  0  0
 51 50  1  0  0  0  0
 52 50  1  0  0  0  0
 54 52  1  0  0  0  0
 56 55  1  0  0  0  0
M  END
>  <MODEL>
4

>  <REMARK>
 VINA RESULT:      -2.7      3.580     12.416
  Name = 
  15 active torsions:
  status: ('A' for Active; 'I' for Inactive)
    1  A    between atoms: C_2  and  C_35
    2  A    between atoms: C_4  and  C_14
    3  A    between atoms: C_6  and  C_9
    4  A    between atoms: C_9  and  C_33
    5  A    between atoms: C_10  and  C_16
    6  A    between atoms: C_10  and  C_25
    7  A    between atoms: N_11  and  C_49
    8  A    between atoms: C_12  and  C_40
    9  A    between atoms: C_16  and  C_47
   10  A    between atoms: N_19  and  C_42
   11  A    between atoms: N_23  and  C_29
   12  A    between atoms: N_24  and  C_35
   13  A    between atoms: N_24  and  C_53
   14  A    between atoms: C_32  and  C_33
   15  A    between atoms: C_32  and  C_56
                            x       y       z     vdW  Elec       q    Type
                         _______ _______ _______ _____ _____    ______ ____

>  <TORSDO>
F 15

$$$$
=
 OpenBabel11052412103D

 56 63  0  0  1  0  0  0  0  0999 V2000
  160.8540  206.1720  150.2510 C   0  0  0  0  0  2  0  0  0  0  0  0
  162.8170  208.5030  151.9880 C   0  0  0  0  0  2  0  0  0  0  0  0
  160.5230  212.0150  153.2280 C   0  0  0  0  0  3  0  0  0  0  0  0
  162.1110  209.4450  151.0570 C   0  0  0  0  0  0  0  0  0  0  0  0
  161.2450  210.9680  152.8440 C   0  0  0  0  0  0  0  0  0  0  0  0
  160.1640  212.9440  148.8620 N   0  0  0  0  0  0  0  0  0  0  0  0
  162.0340  207.2380  152.3060 C   0  0  2  0  0  3  0  0  0  0  0  0
  162.0850  206.2220  151.1600 C   0  0  0  0  0  2  0  0  0  0  0  0
  162.2900  209.3990  149.5520 C   0  0  1  0  0  3  0  0  0  0  0  0
  159.6990  212.9940  152.4900 C   0  0  0  0  0  0  0  0  0  0  0  0
  160.4660  207.5200  149.6460 C   0  0  0  0  0  2  0  0  0  0  0  0
  159.6450  213.1180  151.2000 N   0  0  0  0  0  0  0  0  0  0  0  0
  161.5790  208.2260  148.8580 C   0  0  2  0  0  3  0  0  0  0  0  0
  161.8750  210.2920  153.8380 F   0  0  0  0  0  0  0  0  0  0  0  0
  161.4640  211.1860  147.8920 C   0  0  0  0  0  3  0  0  0  0  0  0
  161.6050  210.6610  149.1720 C   0  0  0  0  0  0  0  0  0  0  0  0
  161.0630  211.2830  150.2750 C   0  0  0  0  0  0  0  0  0  0  0  0
  160.3110  212.4450  150.1240 C   0  0  0  0  0  0  0  0  0  0  0  0
  161.4200  210.5290  151.4530 C   0  0  0  0  0  0  0  0  0  0  0  0
  160.7220  212.3620  147.7630 C   0  0  0  0  0  3  0  0  0  0  0  0
  157.9460  213.4410  154.0600 C   0  0  0  0  0  3  0  0  0  0  0  0
  158.8750  213.8760  153.2610 N   0  0  0  0  0  0  0  0  0  0  0  0
  157.0680  214.4110  154.7820 C   0  0  0  0  0  2  0  0  0  0  0  0
  155.7930  213.7760  155.0760 N   0  0  0  0  0  0  0  0  0  0  0  0
  155.2620  213.3990  153.8780 O   0  0  0  0  0  1  0  0  0  0  0  0
  155.1390  212.4740  157.0260 C   0  0  0  0  0  2  0  0  0  0  0  0
  156.5660  212.9430  157.2200 C   0  0  0  0  0  2  0  0  0  0  0  0
  156.0770  212.5670  155.8310 C   0  0  0  0  0  3  0  0  0  0  0  0
  162.4820  207.3490  148.0490 C   0  0  0  0  0  3  0  0  0  0  0  0
  162.0890  206.8960  146.8720 C   0  0  0  0  0  3  0  0  0  0  0  0
  162.9890  206.0360  146.0570 C   0  0  0  0  0  2  0  0  0  0  0  0
  163.0490  204.6440  146.6570 C   0  0  0  0  0  2  0  0  0  0  0  0
  162.0160  203.7330  146.0140 C   0  0  0  0  0  2  0  0  0  0  0  0
  161.0980  201.2950  146.1740 C   0  0  1  0  0  3  0  0  0  0  0  0
  161.6950  202.5450  146.9280 C   0  0  2  0  0  3  0  0  0  0  0  0
  161.4880  203.8780  148.9320 O   0  0  0  0  0  1  0  0  0  0  0  0
  160.5450  201.6800  148.9700 C   0  0  2  0  0  0  0  0  0  0  0  0
  160.5390  200.3350  147.0660 O   0  0  0  0  0  0  0  0  0  0  0  0
  161.7290  200.9710  149.2110 O   0  0  0  0  0  1  0  0  0  0  0  0
  159.3780  200.7300  149.2730 C   0  0  2  0  0  3  0  0  0  0  0  0
  159.6480  201.0680  147.8640 C   0  0  1  0  0  3  0  0  0  0  0  0
  160.8130  202.9420  148.1500 C   0  0  2  0  0  3  0  0  0  0  0  0
  158.2520  201.5080  149.7610 N   0  0  0  0  0  2  0  0  0  0  0  0
  157.2270  201.3070  148.8940 O   0  0  0  0  0  1  0  0  0  0  0  0
  160.1270  201.6330  145.0340 C   0  0  0  0  0  2  0  0  0  0  0  0
  159.6320  200.4450  144.4920 O   0  0  0  0  0  1  0  0  0  0  0  0
  160.6330  207.4890  152.8620 C   0  0  0  0  0  2  0  0  0  0  0  0
  160.4910  206.8780  154.2480 C   0  0  0  0  0  2  0  0  0  0  0  0
  158.9390  209.3740  155.4020 S   0  0  0  0  0  0  0  0  0  0  0  0
  161.2960  209.7060  156.6620 N   0  0  0  0  0  0  0  0  0  0  0  0
  160.6130  208.8670  155.7430 C   0  0  0  0  0  0  0  0  0  0  0  0
  160.4320  210.7140  157.2590 C   0  0  0  0  0  2  0  0  0  0  0  0
  161.1700  207.7620  155.2390 C   0  0  0  0  0  3  0  0  0  0  0  0
  158.9800  210.3240  156.9680 C   0  0  0  0  0  2  0  0  0  0  0  0
  163.4690  210.6440  157.2610 C   0  0  0  0  0  1  0  0  0  0  0  0
  162.6110  209.3930  157.1990 C   0  0  0  0  0  2  0  0  0  0  0  0
  1  8  1  0  0  0  0
  2  7  1  0  0  0  0
  4 19  2  0  0  0  0
  4  2  1  0  0  0  0
  5  3  2  0  0  0  0
  5 14  1  0  0  0  0
  6 18  2  0  0  0  0
  7 47  1  6  0  0  0
  8  7  1  0  0  0  0
  9 16  1  6  0  0  0
  9  4  1  0  0  0  0
 10  3  1  0  0  0  0
 10 22  1  0  0  0  0
 11  1  1  0  0  0  0
 12 10  2  0  0  0  0
 13 29  1  1  0  0  0
 13  9  1  0  0  0  0
 13 11  1  0  0  0  0
 15 16  1  0  0  0  0
 16 17  2  0  0  0  0
 17 19  1  0  0  0  0
 18 17  1  0  0  0  0
 18 12  1  0  0  0  0
 19  5  1  0  0  0  0
 20 15  2  0  0  0  0
 20  6  1  0  0  0  0
 21 23  1  0  0  0  0
 22 21  2  0  0  0  0
 23 24  1  0  0  0  0
 24 28  1  0  0  0  0
 25 24  1  0  0  0  0
 26 27  1  0  0  0  0
 28 26  1  0  0  0  0
 28 27  1  0  0  0  0
 30 29  2  0  0  0  0
 31 32  1  0  0  0  0
 31 30  1  0  0  0  0
 33 32  1  0  0  0  0
 34 45  1  6  0  0  0
 34 35  1  0  0  0  0
 34 38  1  0  0  0  0
 35 33  1  6  0  0  0
 35 42  1  0  0  0  0
 37 39  1  1  0  0  0
 37 40  1  0  0  0  0
 40 43  1  1  0  0  0
 41 38  1  6  0  0  0
 41 37  1  0  0  0  0
 41 40  1  0  0  0  0
 42 36  1  1  0  0  0
 42 37  1  0  0  0  0
 44 43  1  0  0  0  0
 46 45  1  0  0  0  0
 47 48  1  0  0  0  0
 48 53  1  0  0  0  0
 49 51  1  0  0  0  0
 49 54  1  0  0  0  0
 50 56  1  0  0  0  0
 50 52  1  0  0  0  0
 51 50  1  0  0  0  0
 53 51  2  0  0  0  0
 54 52  1  0  0  0  0
 56 55  1  0  0  0  0
M  END
>  <MODEL>
5

>  <REMARK>
 VINA RESULT:      -2.5      3.709     11.144
  Name = 
  15 active torsions:
  status: ('A' for Active; 'I' for Inactive)
    1  A    between atoms: C_2  and  C_35
    2  A    between atoms: C_4  and  C_14
    3  A    between atoms: C_6  and  C_9
    4  A    between atoms: C_9  and  C_33
    5  A    between atoms: C_10  and  C_16
    6  A    between atoms: C_10  and  C_25
    7  A    between atoms: N_11  and  C_49
    8  A    between atoms: C_12  and  C_40
    9  A    between atoms: C_16  and  C_47
   10  A    between atoms: N_19  and  C_42
   11  A    between atoms: N_23  and  C_29
   12  A    between atoms: N_24  and  C_35
   13  A    between atoms: N_24  and  C_53
   14  A    between atoms: C_32  and  C_33
   15  A    between atoms: C_32  and  C_56
                            x       y       z     vdW  Elec       q    Type
                         _______ _______ _______ _____ _____    ______ ____

>  <TORSDO>
F 15

$$$$
=
 OpenBabel11052412103D

 56 63  0  0  1  0  0  0  0  0999 V2000
  160.1390  210.6170  153.0830 C   0  0  0  0  0  2  0  0  0  0  0  0
  163.0580  209.4780  151.5070 C   0  0  0  0  0  2  0  0  0  0  0  0
  162.2020  206.8440  148.1220 C   0  0  0  0  0  3  0  0  0  0  0  0
  162.3190  208.1740  151.5940 C   0  0  0  0  0  0  0  0  0  0  0  0
  162.4870  207.6240  149.1580 C   0  0  0  0  0  0  0  0  0  0  0  0
  160.6180  203.9590  151.1580 N   0  0  0  0  0  0  0  0  0  0  0  0
  162.1560  210.7020  151.4480 C   0  0  2  0  0  3  0  0  0  0  0  0
  161.5800  211.0630  152.8210 C   0  0  0  0  0  2  0  0  0  0  0  0
  161.9640  207.5180  152.9140 C   0  0  1  0  0  3  0  0  0  0  0  0
  161.4290  205.5920  147.9870 C   0  0  0  0  0  0  0  0  0  0  0  0
  159.8950  209.1250  152.8660 C   0  0  0  0  0  2  0  0  0  0  0  0
  160.9740  204.8750  148.9680 N   0  0  0  0  0  0  0  0  0  0  0  0
  160.8080  208.1910  153.6720 C   0  0  2  0  0  3  0  0  0  0  0  0
  163.2390  208.7190  148.8800 F   0  0  0  0  0  0  0  0  0  0  0  0
  161.0670  205.1210  153.2000 C   0  0  0  0  0  3  0  0  0  0  0  0
  161.5050  206.1920  152.4280 C   0  0  0  0  0  0  0  0  0  0  0  0
  161.5280  206.1320  151.0520 C   0  0  0  0  0  0  0  0  0  0  0  0
  161.0620  204.9990  150.3930 C   0  0  0  0  0  0  0  0  0  0  0  0
  162.0750  207.3680  150.5450 C   0  0  0  0  0  0  0  0  0  0  0  0
  160.6200  203.9860  152.5210 C   0  0  0  0  0  3  0  0  0  0  0  0
  161.5700  203.9890  146.2130 C   0  0  0  0  0  3  0  0  0  0  0  0
  161.1430  205.1330  146.6610 N   0  0  0  0  0  0  0  0  0  0  0  0
  161.3040  203.5970  144.7950 C   0  0  0  0  0  2  0  0  0  0  0  0
  159.9020  203.2370  144.6540 N   0  0  0  0  0  0  0  0  0  0  0  0
  159.4900  203.7440  143.4560 O   0  0  0  0  0  1  0  0  0  0  0  0
  159.1050  201.2320  145.7800 C   0  0  0  0  0  2  0  0  0  0  0  0
  160.6170  201.1760  145.7150 C   0  0  0  0  0  2  0  0  0  0  0  0
  159.8340  201.7890  144.5650 C   0  0  0  0  0  3  0  0  0  0  0  0
  161.1550  208.6310  155.0600 C   0  0  0  0  0  3  0  0  0  0  0  0
  160.6340  209.7380  155.5560 C   0  0  0  0  0  3  0  0  0  0  0  0
  160.9650  210.1730  156.9400 C   0  0  0  0  0  2  0  0  0  0  0  0
  160.2840  211.4950  157.2390 C   0  0  0  0  0  2  0  0  0  0  0  0
  158.7900  211.4060  156.9750 C   0  0  0  0  0  2  0  0  0  0  0  0
  158.8520  213.6240  155.5990 C   0  0  1  0  0  3  0  0  0  0  0  0
  158.4280  212.1060  155.6590 C   0  0  2  0  0  3  0  0  0  0  0  0
  156.6560  210.5660  155.0900 O   0  0  0  0  0  1  0  0  0  0  0  0
  156.6880  212.6740  153.9590 C   0  0  2  0  0  0  0  0  0  0  0  0
  158.2480  214.3170  154.5110 O   0  0  0  0  0  0  0  0  0  0  0  0
  157.6650  212.3620  153.0060 O   0  0  0  0  0  1  0  0  0  0  0  0
  155.9740  213.9450  153.4790 C   0  0  2  0  0  3  0  0  0  0  0  0
  156.8760  214.0550  154.6390 C   0  0  1  0  0  3  0  0  0  0  0  0
  156.9310  211.9210  155.2680 C   0  0  2  0  0  3  0  0  0  0  0  0
  154.5930  213.9080  153.9280 N   0  0  0  0  0  2  0  0  0  0  0  0
  154.5670  214.4480  155.1730 O   0  0  0  0  0  1  0  0  0  0  0  0
  158.6800  214.3930  156.9170 C   0  0  0  0  0  2  0  0  0  0  0  0
  157.3260  214.4070  157.2610 O   0  0  0  0  0  1  0  0  0  0  0  0
  161.1250  210.6690  150.3220 C   0  0  0  0  0  2  0  0  0  0  0  0
  161.4700  211.6920  149.2500 C   0  0  0  0  0  2  0  0  0  0  0  0
  160.2770  212.1560  146.3640 S   0  0  0  0  0  0  0  0  0  0  0  0
  158.7020  213.8360  147.7610 N   0  0  0  0  0  0  0  0  0  0  0  0
  159.7800  212.9210  147.8950 C   0  0  0  0  0  0  0  0  0  0  0  0
  158.1200  213.8360  146.4270 C   0  0  0  0  0  2  0  0  0  0  0  0
  160.3180  212.6240  149.0800 C   0  0  0  0  0  3  0  0  0  0  0  0
  158.6300  212.5950  145.6890 C   0  0  0  0  0  2  0  0  0  0  0  0
  158.8740  214.2880  150.1540 C   0  0  0  0  0  1  0  0  0  0  0  0
  158.0370  214.4520  148.8980 C   0  0  0  0  0  2  0  0  0  0  0  0
  2  4  1  0  0  0  0
  3  5  2  0  0  0  0
  5 19  1  0  0  0  0
  6 20  1  0  0  0  0
  7 47  1  6  0  0  0
  7  2  1  0  0  0  0
  7  8  1  0  0  0  0
  8  1  1  0  0  0  0
  9  4  1  6  0  0  0
  9 13  1  0  0  0  0
 10  3  1  0  0  0  0
 10 12  2  0  0  0  0
 11  1  1  0  0  0  0
 11 13  1  0  0  0  0
 12 18  1  0  0  0  0
 13 29  1  1  0  0  0
 14  5  1  0  0  0  0
 16  9  1  0  0  0  0
 16 15  1  0  0  0  0
 17 16  2  0  0  0  0
 18 17  1  0  0  0  0
 18  6  2  0  0  0  0
 19 17  1  0  0  0  0
 19  4  2  0  0  0  0
 20 15  2  0  0  0  0
 21 22  2  0  0  0  0
 22 10  1  0  0  0  0
 23 21  1  0  0  0  0
 24 23  1  0  0  0  0
 25 24  1  0  0  0  0
 27 26  1  0  0  0  0
 28 24  1  0  0  0  0
 28 27  1  0  0  0  0
 28 26  1  0  0  0  0
 29 30  2  0  0  0  0
 30 31  1  0  0  0  0
 31 32  1  0  0  0  0
 33 32  1  0  0  0  0
 34 35  1  0  0  0  0
 34 45  1  1  0  0  0
 35 33  1  1  0  0  0
 37 39  1  6  0  0  0
 37 41  1  0  0  0  0
 37 42  1  0  0  0  0
 38 34  1  0  0  0  0
 40 43  1  1  0  0  0
 40 37  1  0  0  0  0
 40 41  1  0  0  0  0
 41 38  1  6  0  0  0
 42 36  1  6  0  0  0
 42 35  1  0  0  0  0
 43 44  1  0  0  0  0
 45 46  1  0  0  0  0
 48 47  1  0  0  0  0
 49 51  1  0  0  0  0
 50 51  1  0  0  0  0
 50 56  1  0  0  0  0
 51 53  2  0  0  0  0
 52 50  1  0  0  0  0
 53 48  1  0  0  0  0
 54 49  1  0  0  0  0
 54 52  1  0  0  0  0
 56 55  1  0  0  0  0
M  END
>  <MODEL>
6

>  <REMARK>
 VINA RESULT:      -2.4      2.381      3.250
  Name = 
  15 active torsions:
  status: ('A' for Active; 'I' for Inactive)
    1  A    between atoms: C_2  and  C_35
    2  A    between atoms: C_4  and  C_14
    3  A    between atoms: C_6  and  C_9
    4  A    between atoms: C_9  and  C_33
    5  A    between atoms: C_10  and  C_16
    6  A    between atoms: C_10  and  C_25
    7  A    between atoms: N_11  and  C_49
    8  A    between atoms: C_12  and  C_40
    9  A    between atoms: C_16  and  C_47
   10  A    between atoms: N_19  and  C_42
   11  A    between atoms: N_23  and  C_29
   12  A    between atoms: N_24  and  C_35
   13  A    between atoms: N_24  and  C_53
   14  A    between atoms: C_32  and  C_33
   15  A    between atoms: C_32  and  C_56
                            x       y       z     vdW  Elec       q    Type
                         _______ _______ _______ _____ _____    ______ ____

>  <TORSDO>
F 15

$$$$
=
 OpenBabel11052412103D

 56 63  0  0  1  0  0  0  0  0999 V2000
  160.2590  207.0030  150.6650 C   0  0  0  0  0  2  0  0  0  0  0  0
  163.1690  206.5030  148.7730 C   0  0  0  0  0  2  0  0  0  0  0  0
  162.3380  206.2000  144.4890 C   0  0  0  0  0  3  0  0  0  0  0  0
  162.2980  205.4610  148.1350 C   0  0  0  0  0  0  0  0  0  0  0  0
  162.6130  206.2680  145.7870 C   0  0  0  0  0  0  0  0  0  0  0  0
  160.2210  202.3810  145.4790 N   0  0  0  0  0  0  0  0  0  0  0  0
  162.4040  207.6780  149.3640 C   0  0  2  0  0  3  0  0  0  0  0  0
  161.7540  207.3280  150.7070 C   0  0  0  0  0  2  0  0  0  0  0  0
  161.7690  204.2580  148.8920 C   0  0  1  0  0  3  0  0  0  0  0  0
  161.4560  205.3230  143.6910 C   0  0  0  0  0  0  0  0  0  0  0  0
  159.8830  205.9000  149.6780 C   0  0  0  0  0  2  0  0  0  0  0  0
  160.8500  204.2620  144.1270 N   0  0  0  0  0  0  0  0  0  0  0  0
  160.6270  204.5710  149.8730 C   0  0  2  0  0  3  0  0  0  0  0  0
  163.4930  207.2350  146.1520 F   0  0  0  0  0  0  0  0  0  0  0  0
  160.6120  202.2150  147.8330 C   0  0  0  0  0  3  0  0  0  0  0  0
  161.2200  203.4640  147.7630 C   0  0  0  0  0  0  0  0  0  0  0  0
  161.3520  204.1400  146.5700 C   0  0  0  0  0  0  0  0  0  0  0  0
  160.8300  203.6000  145.3980 C   0  0  0  0  0  0  0  0  0  0  0  0
  162.0620  205.3730  146.8140 C   0  0  0  0  0  0  0  0  0  0  0  0
  160.1120  201.6810  146.6440 C   0  0  0  0  0  3  0  0  0  0  0  0
  162.0610  206.4370  141.6590 C   0  0  0  0  0  3  0  0  0  0  0  0
  161.2380  205.6780  142.3220 N   0  0  0  0  0  0  0  0  0  0  0  0
  161.7420  206.8350  140.2540 C   0  0  0  0  0  2  0  0  0  0  0  0
  161.9210  208.2710  140.1110 N   0  0  0  0  0  0  0  0  0  0  0  0
  163.1710  208.5540  140.5800 O   0  0  0  0  0  1  0  0  0  0  0  0
  160.7870  209.5520  138.3800 C   0  0  0  0  0  2  0  0  0  0  0  0
  160.6020  208.0780  138.0840 C   0  0  0  0  0  2  0  0  0  0  0  0
  161.9070  208.5690  138.6890 C   0  0  0  0  0  3  0  0  0  0  0  0
  160.8990  204.1590  151.2860 C   0  0  0  0  0  3  0  0  0  0  0  0
  160.9280  205.0640  152.2480 C   0  0  0  0  0  3  0  0  0  0  0  0
  161.1840  204.6580  153.6560 C   0  0  0  0  0  2  0  0  0  0  0  0
  161.6850  205.8490  154.4500 C   0  0  0  0  0  2  0  0  0  0  0  0
  160.7390  207.0300  154.3070 C   0  0  0  0  0  2  0  0  0  0  0  0
  161.4730  208.0910  156.5760 C   0  0  1  0  0  3  0  0  0  0  0  0
  161.3020  208.2670  155.0180 C   0  0  2  0  0  3  0  0  0  0  0  0
  160.5970  209.8240  153.3120 O   0  0  0  0  0  1  0  0  0  0  0  0
  161.1540  210.7220  155.4580 C   0  0  2  0  0  0  0  0  0  0  0  0
  161.7080  209.3270  157.2440 O   0  0  0  0  0  0  0  0  0  0  0  0
  162.5460  210.7280  155.3040 O   0  0  0  0  0  1  0  0  0  0  0  0
  160.8260  211.6190  156.6590 C   0  0  2  0  0  3  0  0  0  0  0  0
  160.6650  210.1640  156.8190 C   0  0  1  0  0  3  0  0  0  0  0  0
  160.5170  209.5690  154.6800 C   0  0  2  0  0  3  0  0  0  0  0  0
  159.5300  212.2400  156.4420 N   0  0  0  0  0  2  0  0  0  0  0  0
  158.6090  211.4570  157.0600 O   0  0  0  0  0  1  0  0  0  0  0  0
  160.3570  207.2890  157.2610 C   0  0  0  0  0  2  0  0  0  0  0  0
  159.2100  207.3390  156.4670 O   0  0  0  0  0  1  0  0  0  0  0  0
  161.4730  208.3810  148.3790 C   0  0  0  0  0  2  0  0  0  0  0  0
  162.0570  209.7210  147.9540 C   0  0  0  0  0  2  0  0  0  0  0  0
  161.5310  212.5990  146.7670 S   0  0  0  0  0  0  0  0  0  0  0  0
  160.8260  213.0480  149.3280 N   0  0  0  0  0  0  0  0  0  0  0  0
  161.3110  212.0460  148.4480 C   0  0  0  0  0  0  0  0  0  0  0  0
  160.4530  214.2760  148.6400 C   0  0  0  0  0  2  0  0  0  0  0  0
  161.5180  210.7880  148.8460 C   0  0  0  0  0  3  0  0  0  0  0  0
  160.3750  213.9720  147.1410 C   0  0  0  0  0  2  0  0  0  0  0  0
  158.9670  213.1280  150.9080 C   0  0  0  0  0  1  0  0  0  0  0  0
  160.4290  212.7760  150.7000 C   0  0  0  0  0  2  0  0  0  0  0  0
  1  8  1  0  0  0  0
  2  7  1  0  0  0  0
  3  5  2  0  0  0  0
  4  2  1  0  0  0  0
  4  9  1  0  0  0  0
  5 14  1  0  0  0  0
  5 19  1  0  0  0  0
  6 20  1  0  0  0  0
  7 47  1  6  0  0  0
  7  8  1  0  0  0  0
  9 16  1  6  0  0  0
  9 13  1  0  0  0  0
 10 12  2  0  0  0  0
 10  3  1  0  0  0  0
 11 13  1  0  0  0  0
 11  1  1  0  0  0  0
 12 18  1  0  0  0  0
 13 29  1  1  0  0  0
 16 15  1  0  0  0  0
 17 19  1  0  0  0  0
 17 16  2  0  0  0  0
 18  6  2  0  0  0  0
 18 17  1  0  0  0  0
 19  4  2  0  0  0  0
 20 15  2  0  0  0  0
 21 22  2  0  0  0  0
 22 10  1  0  0  0  0
 23 21  1  0  0  0  0
 24 23  1  0  0  0  0
 24 25  1  0  0  0  0
 26 28  1  0  0  0  0
 27 26  1  0  0  0  0
 27 28  1  0  0  0  0
 28 24  1  0  0  0  0
 29 30  2  0  0  0  0
 30 31  1  0  0  0  0
 31 32  1  0  0  0  0
 33 32  1  0  0  0  0
 34 38  1  0  0  0  0
 34 45  1  1  0  0  0
 35 33  1  1  0  0  0
 35 34  1  0  0  0  0
 37 39  1  6  0  0  0
 37 40  1  0  0  0  0
 37 41  1  0  0  0  0
 40 43  1  6  0  0  0
 40 41  1  0  0  0  0
 41 38  1  1  0  0  0
 42 36  1  6  0  0  0
 42 35  1  0  0  0  0
 42 37  1  0  0  0  0
 43 44  1  0  0  0  0
 46 45  1  0  0  0  0
 48 47  1  0  0  0  0
 48 53  1  0  0  0  0
 49 54  1  0  0  0  0
 49 51  1  0  0  0  0
 50 56  1  0  0  0  0
 51 53  2  0  0  0  0
 51 50  1  0  0  0  0
 52 50  1  0  0  0  0
 54 52  1  0  0  0  0
 56 55  1  0  0  0  0
M  END
>  <MODEL>
7

>  <REMARK>
 VINA RESULT:      -0.8      2.239      3.471
  Name = 
  15 active torsions:
  status: ('A' for Active; 'I' for Inactive)
    1  A    between atoms: C_2  and  C_35
    2  A    between atoms: C_4  and  C_14
    3  A    between atoms: C_6  and  C_9
    4  A    between atoms: C_9  and  C_33
    5  A    between atoms: C_10  and  C_16
    6  A    between atoms: C_10  and  C_25
    7  A    between atoms: N_11  and  C_49
    8  A    between atoms: C_12  and  C_40
    9  A    between atoms: C_16  and  C_47
   10  A    between atoms: N_19  and  C_42
   11  A    between atoms: N_23  and  C_29
   12  A    between atoms: N_24  and  C_35
   13  A    between atoms: N_24  and  C_53
   14  A    between atoms: C_32  and  C_33
   15  A    between atoms: C_32  and  C_56
                            x       y       z     vdW  Elec       q    Type
                         _______ _______ _______ _____ _____    ______ ____

>  <TORSDO>
F 15

$$$$
=
 OpenBabel11052412103D

 56 63  0  0  1  0  0  0  0  0999 V2000
  162.3540  203.3570  152.3970 C   0  0  0  0  0  2  0  0  0  0  0  0
  159.6920  203.7680  150.1510 C   0  0  0  0  0  2  0  0  0  0  0  0
  161.0540  204.8190  146.1300 C   0  0  0  0  0  3  0  0  0  0  0  0
  160.4800  204.9960  149.8010 C   0  0  0  0  0  0  0  0  0  0  0  0
  160.6150  204.5210  147.3480 C   0  0  0  0  0  0  0  0  0  0  0  0
  162.4280  208.6800  147.9330 N   0  0  0  0  0  0  0  0  0  0  0  0
  160.5320  202.6230  150.6970 C   0  0  2  0  0  3  0  0  0  0  0  0
  160.9320  202.8440  152.1590 C   0  0  0  0  0  2  0  0  0  0  0  0
  160.7170  206.1270  150.7830 C   0  0  1  0  0  3  0  0  0  0  0  0
  161.8990  205.9110  145.6030 C   0  0  0  0  0  0  0  0  0  0  0  0
  162.6960  204.6360  151.6350 C   0  0  0  0  0  2  0  0  0  0  0  0
  162.2760  206.9610  146.2640 N   0  0  0  0  0  0  0  0  0  0  0  0
  161.7450  205.8150  151.8820 C   0  0  2  0  0  3  0  0  0  0  0  0
  159.8450  203.4070  147.4390 F   0  0  0  0  0  0  0  0  0  0  0  0
  161.6950  208.4370  150.1970 C   0  0  0  0  0  3  0  0  0  0  0  0
  161.2930  207.1460  149.8690 C   0  0  0  0  0  0  0  0  0  0  0  0
  161.4290  206.6480  148.5920 C   0  0  0  0  0  0  0  0  0  0  0  0
  162.0220  207.4210  147.5980 C   0  0  0  0  0  0  0  0  0  0  0  0
  160.8800  205.3130  148.5570 C   0  0  0  0  0  0  0  0  0  0  0  0
  162.2710  209.2030  149.1820 C   0  0  0  0  0  3  0  0  0  0  0  0
  161.5810  206.0410  143.2320 C   0  0  0  0  0  3  0  0  0  0  0  0
  162.3540  205.7980  144.2500 N   0  0  0  0  0  0  0  0  0  0  0  0
  162.0910  205.8340  141.8420 C   0  0  0  0  0  2  0  0  0  0  0  0
  162.1360  207.1130  141.1530 N   0  0  0  0  0  0  0  0  0  0  0  0
  163.4550  207.4340  141.0160 O   0  0  0  0  0  1  0  0  0  0  0  0
  162.2800  207.8400  138.8350 C   0  0  0  0  0  2  0  0  0  0  0  0
  160.8990  208.1770  139.3580 C   0  0  0  0  0  2  0  0  0  0  0  0
  161.5930  206.9060  139.8210 C   0  0  0  0  0  3  0  0  0  0  0  0
  161.2230  205.9710  153.2760 C   0  0  0  0  0  3  0  0  0  0  0  0
  161.0760  207.1740  153.8010 C   0  0  0  0  0  3  0  0  0  0  0  0
  160.5440  207.3340  155.1810 C   0  0  0  0  0  2  0  0  0  0  0  0
  160.4040  208.8090  155.5070 C   0  0  0  0  0  2  0  0  0  0  0  0
  158.9660  209.2680  155.3320 C   0  0  0  0  0  2  0  0  0  0  0  0
  157.4820  211.3620  155.8110 C   0  0  1  0  0  3  0  0  0  0  0  0
  158.8790  210.7990  155.3430 C   0  0  2  0  0  3  0  0  0  0  0  0
  160.6540  211.1170  153.7360 O   0  0  0  0  0  1  0  0  0  0  0  0
  159.1750  212.9570  154.1190 C   0  0  2  0  0  0  0  0  0  0  0  0
  157.3290  212.7500  155.5300 O   0  0  0  0  0  0  0  0  0  0  0  0
  159.7610  213.4280  155.3010 O   0  0  0  0  0  1  0  0  0  0  0  0
  158.2610  214.0710  153.5910 C   0  0  2  0  0  3  0  0  0  0  0  0
  157.6270  212.8720  154.1650 C   0  0  1  0  0  3  0  0  0  0  0  0
  159.3230  211.4400  153.9940 C   0  0  2  0  0  3  0  0  0  0  0  0
  158.2270  214.0040  152.1400 N   0  0  0  0  0  2  0  0  0  0  0  0
  159.4900  213.7270  151.7270 O   0  0  0  0  0  1  0  0  0  0  0  0
  156.2680  210.5560  155.3260 C   0  0  0  0  0  2  0  0  0  0  0  0
  155.2100  210.7500  156.2160 O   0  0  0  0  0  1  0  0  0  0  0  0
  161.6840  202.2000  149.7870 C   0  0  0  0  0  2  0  0  0  0  0  0
  161.3850  200.8590  149.1330 C   0  0  0  0  0  2  0  0  0  0  0  0
  161.9610  198.9000  146.7250 S   0  0  0  0  0  0  0  0  0  0  0  0
  160.3010  200.6280  145.4930 N   0  0  0  0  0  0  0  0  0  0  0  0
  160.9330  200.3570  146.7350 C   0  0  0  0  0  0  0  0  0  0  0  0
  160.4960  199.5690  144.5140 C   0  0  0  0  0  2  0  0  0  0  0  0
  160.7130  201.1000  147.8230 C   0  0  0  0  0  3  0  0  0  0  0  0
  161.0280  198.3370  145.2510 C   0  0  0  0  0  2  0  0  0  0  0  0
  159.7050  202.6080  144.1960 C   0  0  0  0  0  1  0  0  0  0  0  0
  159.3030  201.6710  145.3200 C   0  0  0  0  0  2  0  0  0  0  0  0
  2  7  1  0  0  0  0
  3  5  2  0  0  0  0
  4  2  1  0  0  0  0
  5 14  1  0  0  0  0
  5 19  1  0  0  0  0
  6 20  1  0  0  0  0
  7 47  1  6  0  0  0
  7  8  1  0  0  0  0
  8  1  1  0  0  0  0
  9  4  1  6  0  0  0
  9 13  1  0  0  0  0
 10  3  1  0  0  0  0
 10 12  2  0  0  0  0
 11 13  1  0  0  0  0
 11  1  1  0  0  0  0
 12 18  1  0  0  0  0
 13 29  1  1  0  0  0
 16 15  1  0  0  0  0
 16  9  1  0  0  0  0
 17 16  2  0  0  0  0
 18  6  2  0  0  0  0
 18 17  1  0  0  0  0
 19 17  1  0  0  0  0
 19  4  2  0  0  0  0
 20 15  2  0  0  0  0
 21 22  2  0  0  0  0
 22 10  1  0  0  0  0
 23 21  1  0  0  0  0
 24 23  1  0  0  0  0
 25 24  1  0  0  0  0
 26 27  1  0  0  0  0
 26 28  1  0  0  0  0
 27 28  1  0  0  0  0
 28 24  1  0  0  0  0
 29 30  2  0  0  0  0
 30 31  1  0  0  0  0
 31 32  1  0  0  0  0
 33 32  1  0  0  0  0
 34 45  1  6  0  0  0
 35 33  1  6  0  0  0
 35 34  1  0  0  0  0
 37 41  1  0  0  0  0
 37 39  1  1  0  0  0
 38 34  1  0  0  0  0
 40 43  1  6  0  0  0
 40 37  1  0  0  0  0
 40 41  1  0  0  0  0
 41 38  1  1  0  0  0
 42 36  1  1  0  0  0
 42 37  1  0  0  0  0
 42 35  1  0  0  0  0
 44 43  1  0  0  0  0
 45 46  1  0  0  0  0
 48 47  1  0  0  0  0
 49 51  1  0  0  0  0
 50 51  1  0  0  0  0
 51 53  2  0  0  0  0
 52 54  1  0  0  0  0
 52 50  1  0  0  0  0
 53 48  1  0  0  0  0
 54 49  1  0  0  0  0
 55 56  1  0  0  0  0
 56 50  1  0  0  0  0
M  END
>  <MODEL>
8

>  <REMARK>
 VINA RESULT:      -0.5      3.182      5.833
  Name = 
  15 active torsions:
  status: ('A' for Active; 'I' for Inactive)
    1  A    between atoms: C_2  and  C_35
    2  A    between atoms: C_4  and  C_14
    3  A    between atoms: C_6  and  C_9
    4  A    between atoms: C_9  and  C_33
    5  A    between atoms: C_10  and  C_16
    6  A    between atoms: C_10  and  C_25
    7  A    between atoms: N_11  and  C_49
    8  A    between atoms: C_12  and  C_40
    9  A    between atoms: C_16  and  C_47
   10  A    between atoms: N_19  and  C_42
   11  A    between atoms: N_23  and  C_29
   12  A    between atoms: N_24  and  C_35
   13  A    between atoms: N_24  and  C_53
   14  A    between atoms: C_32  and  C_33
   15  A    between atoms: C_32  and  C_56
                            x       y       z     vdW  Elec       q    Type
                         _______ _______ _______ _____ _____    ______ ____

>  <TORSDO>
F 15

$$$$
