=
 OpenBabel11052411263D

 43 47  0  0  1  0  0  0  0  0999 V2000
  160.8690  210.5500  154.8660 N   0  0  0  0  0  0  0  0  0  0  0  0
  159.3770  210.4370  156.8050 C   0  0  0  0  0  1  0  0  0  0  0  0
  160.0870  211.3520  155.8230 C   0  0  2  0  0  3  0  0  0  0  0  0
  160.3400  210.6960  153.5300 C   0  0  0  0  0  0  0  0  0  0  0  0
  158.3710  212.1860  152.6940 C   0  0  0  0  0  3  0  0  0  0  0  0
  157.5520  213.7210  156.3740 S   0  0  0  0  0  1  0  0  0  0  0  0
  159.3160  211.5290  153.5840 C   0  0  0  0  0  0  0  0  0  0  0  0
  157.6470  212.9820  153.5060 C   0  0  0  0  0  0  0  0  0  0  0  0
  159.1000  211.9640  154.8970 C   0  0  0  0  0  0  0  0  0  0  0  0
  158.1220  212.8430  154.9170 C   0  0  0  0  0  0  0  0  0  0  0  0
  162.3450  208.1220  148.9370 N   0  0  0  0  0  0  0  0  0  0  0  0
  160.4530  208.7510  151.9560 C   0  0  0  0  0  3  0  0  0  0  0  0
  162.3450  210.1050  150.3450 C   0  0  0  0  0  3  0  0  0  0  0  0
  161.8210  210.7130  151.4970 C   0  0  0  0  0  3  0  0  0  0  0  0
  161.7450  206.9060  148.8890 C   0  0  0  0  0  0  0  0  0  0  0  0
  160.8770  210.0450  152.3120 C   0  0  0  0  0  0  0  0  0  0  0  0
  160.6650  206.6530  150.1680 S   0  0  0  0  0  0  0  0  0  0  0  0
  160.9860  208.1690  150.8110 C   0  0  0  0  0  0  0  0  0  0  0  0
  161.9140  208.8210  150.0170 C   0  0  0  0  0  0  0  0  0  0  0  0
  161.7210  204.6860  148.0280 C   0  0  0  0  0  3  0  0  0  0  0  0
  161.9930  205.9400  147.8660 N   0  0  0  0  0  0  0  0  0  0  0  0
  160.5390  202.3400  145.5550 C   0  0  0  0  0  2  0  0  0  0  0  0
  161.8430  204.3770  145.5870 C   0  0  0  0  0  2  0  0  0  0  0  0
  162.0040  203.7060  146.9400 C   0  0  2  0  0  3  0  0  0  0  0  0
  160.6970  203.6810  144.8770 C   0  0  0  0  0  2  0  0  0  0  0  0
  160.9960  202.5690  146.9840 C   0  0  2  0  0  3  0  0  0  0  0  0
  161.2620  200.0440  146.8690 C   0  0  0  0  0  1  0  0  0  0  0  0
  161.5750  201.3110  147.6500 C   0  0  2  0  0  3  0  0  0  0  0  0
  161.0820  201.1690  149.0790 C   0  0  0  0  0  2  0  0  0  0  0  0
  159.5820  201.3950  149.1460 C   0  0  0  0  0  1  0  0  0  0  0  0
  156.5500  213.8700  153.0430 C   0  0  0  0  0  0  0  0  0  0  0  0
  157.5100  214.2260  150.8180 O   0  0  0  0  0  1  0  0  0  0  0  0
  155.5630  214.1300  153.8350 N   0  0  0  0  0  2  0  0  0  0  0  0
  156.5370  214.4490  151.7330 N   0  0  0  0  0  2  0  0  0  0  0  0
  161.8870  209.7270  155.2230 O   0  0  0  0  0  0  0  0  0  0  0  0
  161.4240  209.0310  156.3450 C   0  0  0  0  0  2  0  0  0  0  0  0
  161.2850  207.5550  156.0180 C   0  0  0  0  0  2  0  0  0  0  0  0
  161.6140  207.3070  154.5590 C   0  0  0  0  0  2  0  0  0  0  0  0
  162.6310  205.5760  152.5550 O   0  0  0  0  0  0  0  0  0  0  0  0
  161.5470  205.2480  153.1110 C   0  0  0  0  0  0  0  0  0  0  0  0
  161.4010  203.1630  151.7050 C   0  0  0  0  0  1  0  0  0  0  0  0
  160.9760  206.0760  154.1230 N   0  0  0  0  0  2  0  0  0  0  0  0
  160.8780  204.0450  152.7330 N   0  0  0  0  0  2  0  0  0  0  0  0
  1 35  1  0  0  0  0
  1  3  1  0  0  0  0
  3  2  1  1  0  0  0
  4  7  2  0  0  0  0
  4  1  1  0  0  0  0
  5  8  2  0  0  0  0
  5  7  1  0  0  0  0
  7  9  1  0  0  0  0
  8 10  1  0  0  0  0
  9 10  2  0  0  0  0
  9  3  1  0  0  0  0
 10  6  1  0  0  0  0
 11 19  1  0  0  0  0
 12 16  1  0  0  0  0
 13 14  1  0  0  0  0
 14 16  2  0  0  0  0
 15 11  2  0  0  0  0
 15 17  1  0  0  0  0
 16  4  1  0  0  0  0
 17 18  1  0  0  0  0
 18 12  2  0  0  0  0
 19 13  2  0  0  0  0
 19 18  1  0  0  0  0
 21 20  2  0  0  0  0
 21 15  1  0  0  0  0
 22 26  1  0  0  0  0
 23 24  1  0  0  0  0
 24 26  1  0  0  0  0
 24 20  1  1  0  0  0
 25 22  1  0  0  0  0
 25 23  1  0  0  0  0
 26 28  1  6  0  0  0
 28 27  1  6  0  0  0
 28 29  1  0  0  0  0
 29 30  1  0  0  0  0
 31  8  1  0  0  0  0
 31 33  2  0  0  0  0
 32 34  1  0  0  0  0
 34 31  1  0  0  0  0
 35 36  1  0  0  0  0
 37 36  1  0  0  0  0
 38 37  1  0  0  0  0
 39 40  2  0  0  0  0
 40 42  1  0  0  0  0
 41 43  1  0  0  0  0
 42 38  1  0  0  0  0
 43 40  1  0  0  0  0
M  END
>  <MODEL>
1

>  <REMARK>
 VINA RESULT:      -7.6      0.000      0.000
  Name = 
  11 active torsions:
  status: ('A' for Active; 'I' for Inactive)
    1  A    between atoms: N_3  and  O_19
    2  A    between atoms: C_4  and  C_26
    3  A    between atoms: C_8  and  C_31
    4  A    between atoms: C_11  and  C_27
    5  A    between atoms: O_19  and  C_36
    6  A    between atoms: C_21  and  C_30
    7  A    between atoms: C_23  and  N_43
    8  A    between atoms: N_24  and  C_41
    9  A    between atoms: C_26  and  C_29
   10  A    between atoms: C_33  and  C_36
   11  A    between atoms: C_33  and  C_41
                            x       y       z     vdW  Elec       q    Type
                         _______ _______ _______ _____ _____    ______ ____

>  <TORSDO>
F 11

$$$$
=
 OpenBabel11052411263D

 43 47  0  0  1  0  0  0  0  0999 V2000
  159.3900  211.8740  152.3620 N   0  0  0  0  0  0  0  0  0  0  0  0
  159.5000  213.9990  153.5750 C   0  0  0  0  0  1  0  0  0  0  0  0
  159.2380  212.5070  153.6830 C   0  0  2  0  0  3  0  0  0  0  0  0
  160.5080  210.9610  152.3620 C   0  0  1  0  0  3  0  0  0  0  0  0
  162.0900  210.2980  154.3260 C   0  0  0  0  0  3  0  0  0  0  0  0
  160.2370  212.6930  157.0460 S   0  0  0  0  0  1  0  0  0  0  0  0
  161.0410  210.9670  153.5710 C   0  0  0  0  0  0  0  0  0  0  0  0
  161.9750  210.8000  155.5720 C   0  0  1  0  0  3  0  0  0  0  0  0
  160.3520  211.8500  154.4120 C   0  0  0  0  0  0  0  0  0  0  0  0
  160.8550  211.7890  155.6260 C   0  0  0  0  0  0  0  0  0  0  0  0
  162.1960  207.7450  148.0550 N   0  0  0  0  0  0  0  0  0  0  0  0
  160.7170  208.7520  151.2000 C   0  0  0  0  0  3  0  0  0  0  0  0
  162.0630  209.9700  149.0290 C   0  0  0  0  0  3  0  0  0  0  0  0
  161.6260  210.7370  150.1200 C   0  0  0  0  0  3  0  0  0  0  0  0
  161.8210  206.4760  148.3570 C   0  0  0  0  0  0  0  0  0  0  0  0
  160.9540  210.1400  151.2130 C   0  0  0  0  0  0  0  0  0  0  0  0
  161.0170  206.3630  149.8420 S   0  0  0  0  0  0  0  0  0  0  0  0
  161.1600  208.0120  150.1090 C   0  0  0  0  0  0  0  0  0  0  0  0
  161.8210  208.5980  149.0420 C   0  0  0  0  0  0  0  0  0  0  0  0
  161.3000  204.3180  147.4980 C   0  0  0  0  0  3  0  0  0  0  0  0
  162.0740  205.3530  147.5120 N   0  0  0  0  0  0  0  0  0  0  0  0
  160.2180  201.3400  145.7720 C   0  0  0  0  0  2  0  0  0  0  0  0
  161.1810  203.4800  145.1850 C   0  0  0  0  0  2  0  0  0  0  0  0
  161.6030  203.1600  146.6080 C   0  0  2  0  0  3  0  0  0  0  0  0
  160.0820  202.5000  144.8140 C   0  0  0  0  0  2  0  0  0  0  0  0
  160.7980  201.9440  147.0380 C   0  0  2  0  0  3  0  0  0  0  0  0
  161.7100  199.5780  147.2140 C   0  0  0  0  0  1  0  0  0  0  0  0
  161.6410  200.9550  147.8560 C   0  0  2  0  0  3  0  0  0  0  0  0
  161.1210  200.8340  149.2780 C   0  0  0  0  0  2  0  0  0  0  0  0
  159.8550  201.6540  149.4500 C   0  0  0  0  0  1  0  0  0  0  0  0
  162.8390  210.4040  156.7130 C   0  0  0  0  0  0  0  0  0  0  0  0
  162.0360  208.0910  156.7760 O   0  0  0  0  0  1  0  0  0  0  0  0
  163.6420  211.2700  157.2360 N   0  0  0  0  0  2  0  0  0  0  0  0
  162.8240  209.0800  157.2600 N   0  0  0  0  0  2  0  0  0  0  0  0
  158.6290  212.1840  151.2820 O   0  0  0  0  0  0  0  0  0  0  0  0
  158.8850  213.5360  151.0240 C   0  0  0  0  0  2  0  0  0  0  0  0
  158.8410  213.7960  149.5300 C   0  0  0  0  0  2  0  0  0  0  0  0
  160.2420  213.7780  148.9510 C   0  0  0  0  0  2  0  0  0  0  0  0
  162.4780  213.5730  147.2180 O   0  0  0  0  0  0  0  0  0  0  0  0
  161.3320  213.5640  146.6910 C   0  0  0  0  0  0  0  0  0  0  0  0
  162.3390  213.3470  144.3920 C   0  0  0  0  0  1  0  0  0  0  0  0
  160.1640  213.6690  147.5040 N   0  0  0  0  0  2  0  0  0  0  0  0
  161.1900  213.4490  145.2750 N   0  0  0  0  0  2  0  0  0  0  0  0
  1  4  1  0  0  0  0
  1  3  1  0  0  0  0
  3  2  1  6  0  0  0
  3  9  1  0  0  0  0
  4 16  1  1  0  0  0
  4  7  1  0  0  0  0
  5  8  1  0  0  0  0
  7  5  2  0  0  0  0
  7  9  1  0  0  0  0
  8 10  1  0  0  0  0
  8 31  1  1  0  0  0
  9 10  2  0  0  0  0
 10  6  1  0  0  0  0
 11 15  2  0  0  0  0
 11 19  1  0  0  0  0
 12 16  1  0  0  0  0
 13 19  2  0  0  0  0
 13 14  1  0  0  0  0
 14 16  2  0  0  0  0
 15 17  1  0  0  0  0
 17 18  1  0  0  0  0
 18 12  2  0  0  0  0
 19 18  1  0  0  0  0
 20 21  2  0  0  0  0
 21 15  1  0  0  0  0
 22 26  1  0  0  0  0
 23 24  1  0  0  0  0
 24 26  1  0  0  0  0
 24 20  1  1  0  0  0
 25 23  1  0  0  0  0
 25 22  1  0  0  0  0
 26 28  1  6  0  0  0
 28 27  1  6  0  0  0
 28 29  1  0  0  0  0
 29 30  1  0  0  0  0
 31 33  2  0  0  0  0
 31 34  1  0  0  0  0
 32 34  1  0  0  0  0
 35  1  1  0  0  0  0
 36 35  1  0  0  0  0
 37 36  1  0  0  0  0
 38 37  1  0  0  0  0
 40 39  2  0  0  0  0
 40 42  1  0  0  0  0
 41 43  1  0  0  0  0
 42 38  1  0  0  0  0
 43 40  1  0  0  0  0
M  END
>  <MODEL>
2

>  <REMARK>
 VINA RESULT:      -7.4      2.690      5.557
  Name = 
  11 active torsions:
  status: ('A' for Active; 'I' for Inactive)
    1  A    between atoms: N_3  and  O_19
    2  A    between atoms: C_4  and  C_26
    3  A    between atoms: C_8  and  C_31
    4  A    between atoms: C_11  and  C_27
    5  A    between atoms: O_19  and  C_36
    6  A    between atoms: C_21  and  C_30
    7  A    between atoms: C_23  and  N_43
    8  A    between atoms: N_24  and  C_41
    9  A    between atoms: C_26  and  C_29
   10  A    between atoms: C_33  and  C_36
   11  A    between atoms: C_33  and  C_41
                            x       y       z     vdW  Elec       q    Type
                         _______ _______ _______ _____ _____    ______ ____

>  <TORSDO>
F 11

$$$$
=
 OpenBabel11052411263D

 43 47  0  0  1  0  0  0  0  0999 V2000
  161.0200  211.1680  154.6930 N   0  0  0  0  0  0  0  0  0  0  0  0
  159.7030  211.1080  156.7580 C   0  0  0  0  0  1  0  0  0  0  0  0
  160.2510  211.9870  155.6460 C   0  0  2  0  0  3  0  0  0  0  0  0
  160.3760  211.1530  153.4010 C   0  0  0  0  0  0  0  0  0  0  0  0
  158.2240  212.4030  152.6220 C   0  0  0  0  0  3  0  0  0  0  0  0
  157.5720  214.1840  156.2220 S   0  0  0  0  0  1  0  0  0  0  0  0
  159.2910  211.9030  153.4760 C   0  0  0  0  0  0  0  0  0  0  0  0
  157.5010  213.2070  153.4260 C   0  0  0  0  0  0  0  0  0  0  0  0
  159.1430  212.4340  154.7640 C   0  0  0  0  0  0  0  0  0  0  0  0
  158.0970  213.2310  154.7970 C   0  0  0  0  0  0  0  0  0  0  0  0
  162.2460  208.3570  148.8820 N   0  0  0  0  0  0  0  0  0  0  0  0
  160.7430  209.0450  152.1010 C   0  0  0  0  0  3  0  0  0  0  0  0
  161.9500  210.4990  149.9940 C   0  0  0  0  0  3  0  0  0  0  0  0
  161.4710  211.1600  151.1360 C   0  0  0  0  0  3  0  0  0  0  0  0
  161.9790  207.0450  149.1090 C   0  0  0  0  0  0  0  0  0  0  0  0
  160.8680  210.4430  152.1980 C   0  0  0  0  0  0  0  0  0  0  0  0
  161.2120  206.7750  150.5930 S   0  0  0  0  0  0  0  0  0  0  0  0
  161.2260  208.4120  150.9610 C   0  0  0  0  0  0  0  0  0  0  0  0
  161.8200  209.1130  149.9250 C   0  0  0  0  0  0  0  0  0  0  0  0
  161.5900  204.9300  148.0870 C   0  0  0  0  0  3  0  0  0  0  0  0
  162.3080  206.0000  148.1920 N   0  0  0  0  0  0  0  0  0  0  0  0
  160.6410  202.3000  145.8060 C   0  0  0  0  0  2  0  0  0  0  0  0
  161.8720  204.3800  145.7020 C   0  0  0  0  0  2  0  0  0  0  0  0
  161.9710  203.8570  147.1240 C   0  0  2  0  0  3  0  0  0  0  0  0
  160.7950  203.5710  145.0030 C   0  0  0  0  0  2  0  0  0  0  0  0
  161.0010  202.6910  147.2280 C   0  0  2  0  0  3  0  0  0  0  0  0
  161.4560  200.1930  147.3400 C   0  0  0  0  0  1  0  0  0  0  0  0
  161.5790  201.5310  148.0520 C   0  0  2  0  0  3  0  0  0  0  0  0
  160.9240  201.4480  149.4200 C   0  0  0  0  0  2  0  0  0  0  0  0
  159.4150  201.5450  149.2900 C   0  0  0  0  0  1  0  0  0  0  0  0
  156.2980  213.9600  152.9900 C   0  0  0  0  0  0  0  0  0  0  0  0
  157.0260  214.1640  150.6610 O   0  0  0  0  0  1  0  0  0  0  0  0
  155.3660  214.2230  153.8450 N   0  0  0  0  0  2  0  0  0  0  0  0
  156.1220  214.4030  151.6400 N   0  0  0  0  0  2  0  0  0  0  0  0
  162.1310  210.4640  155.0260 O   0  0  0  0  0  0  0  0  0  0  0  0
  161.8880  209.9760  156.3150 C   0  0  0  0  0  2  0  0  0  0  0  0
  163.0440  210.3330  157.2300 C   0  0  0  0  0  2  0  0  0  0  0  0
  163.5810  211.7090  156.8880 C   0  0  0  0  0  2  0  0  0  0  0  0
  165.9350  213.2480  157.2600 O   0  0  0  0  0  0  0  0  0  0  0  0
  165.9480  212.3770  156.3480 C   0  0  0  0  0  0  0  0  0  0  0  0
  168.3180  212.9790  155.7410 C   0  0  0  0  0  1  0  0  0  0  0  0
  164.7950  211.5720  156.1020 N   0  0  0  0  0  2  0  0  0  0  0  0
  167.1150  212.1870  155.5490 N   0  0  0  0  0  2  0  0  0  0  0  0
  1 35  1  0  0  0  0
  1  3  1  0  0  0  0
  3  2  1  1  0  0  0
  4  7  2  0  0  0  0
  4  1  1  0  0  0  0
  5  8  2  0  0  0  0
  5  7  1  0  0  0  0
  7  9  1  0  0  0  0
  8 10  1  0  0  0  0
  9 10  2  0  0  0  0
  9  3  1  0  0  0  0
 10  6  1  0  0  0  0
 11 15  2  0  0  0  0
 11 19  1  0  0  0  0
 12 16  1  0  0  0  0
 13 14  1  0  0  0  0
 14 16  2  0  0  0  0
 15 17  1  0  0  0  0
 16  4  1  0  0  0  0
 17 18  1  0  0  0  0
 18 12  2  0  0  0  0
 19 13  2  0  0  0  0
 19 18  1  0  0  0  0
 20 21  2  0  0  0  0
 21 15  1  0  0  0  0
 22 26  1  0  0  0  0
 23 24  1  0  0  0  0
 24 26  1  0  0  0  0
 24 20  1  1  0  0  0
 25 23  1  0  0  0  0
 25 22  1  0  0  0  0
 26 28  1  6  0  0  0
 28 27  1  6  0  0  0
 28 29  1  0  0  0  0
 30 29  1  0  0  0  0
 31  8  1  0  0  0  0
 31 33  2  0  0  0  0
 32 34  1  0  0  0  0
 34 31  1  0  0  0  0
 35 36  1  0  0  0  0
 36 37  1  0  0  0  0
 38 37  1  0  0  0  0
 40 39  2  0  0  0  0
 42 40  1  0  0  0  0
 42 38  1  0  0  0  0
 43 41  1  0  0  0  0
 43 40  1  0  0  0  0
M  END
>  <MODEL>
3

>  <REMARK>
 VINA RESULT:      -6.9      2.230      3.558
  Name = 
  11 active torsions:
  status: ('A' for Active; 'I' for Inactive)
    1  A    between atoms: N_3  and  O_19
    2  A    between atoms: C_4  and  C_26
    3  A    between atoms: C_8  and  C_31
    4  A    between atoms: C_11  and  C_27
    5  A    between atoms: O_19  and  C_36
    6  A    between atoms: C_21  and  C_30
    7  A    between atoms: C_23  and  N_43
    8  A    between atoms: N_24  and  C_41
    9  A    between atoms: C_26  and  C_29
   10  A    between atoms: C_33  and  C_36
   11  A    between atoms: C_33  and  C_41
                            x       y       z     vdW  Elec       q    Type
                         _______ _______ _______ _____ _____    ______ ____

>  <TORSDO>
F 11

$$$$
=
 OpenBabel11052411263D

 43 47  0  0  1  0  0  0  0  0999 V2000
  161.9660  207.0510  152.7170 N   0  0  0  0  0  0  0  0  0  0  0  0
  160.6700  205.5990  154.2030 C   0  0  0  0  0  1  0  0  0  0  0  0
  161.6760  206.7340  154.1260 C   0  0  2  0  0  3  0  0  0  0  0  0
  161.5060  208.3800  152.3900 C   0  0  1  0  0  3  0  0  0  0  0  0
  160.3960  210.1620  153.9360 C   0  0  0  0  0  3  0  0  0  0  0  0
  160.5210  207.8180  157.2610 S   0  0  0  0  0  1  0  0  0  0  0  0
  160.9760  208.9080  153.4790 C   0  0  0  0  0  0  0  0  0  0  0  0
  160.1480  209.9570  155.2450 C   0  0  1  0  0  3  0  0  0  0  0  0
  161.0370  208.0060  154.5480 C   0  0  0  0  0  0  0  0  0  0  0  0
  160.5670  208.5760  155.6360 C   0  0  0  0  0  0  0  0  0  0  0  0
  161.9270  210.9710  147.4050 N   0  0  0  0  0  0  0  0  0  0  0  0
  161.2140  210.3720  150.9010 C   0  0  0  0  0  3  0  0  0  0  0  0
  162.3010  208.9520  148.7090 C   0  0  0  0  0  3  0  0  0  0  0  0
  162.1810  208.3420  149.9670 C   0  0  0  0  0  3  0  0  0  0  0  0
  161.4340  212.2230  147.5840 C   0  0  0  0  0  0  0  0  0  0  0  0
  161.6360  209.0400  151.0700 C   0  0  0  0  0  0  0  0  0  0  0  0
  160.9180  212.5080  149.1700 S   0  0  0  0  0  0  0  0  0  0  0  0
  161.3430  210.9560  149.6460 C   0  0  0  0  0  0  0  0  0  0  0  0
  161.8710  210.2700  148.5650 C   0  0  0  0  0  0  0  0  0  0  0  0
  161.0280  212.8910  145.3350 C   0  0  0  0  0  3  0  0  0  0  0  0
  161.3600  213.2010  146.5450 N   0  0  0  0  0  0  0  0  0  0  0  0
  160.3360  213.8510  141.9270 C   0  0  0  0  0  2  0  0  0  0  0  0
  159.5500  214.4530  144.1340 C   0  0  0  0  0  2  0  0  0  0  0  0
  160.9720  213.9390  144.2760 C   0  0  2  0  0  3  0  0  0  0  0  0
  159.0830  214.0940  142.7350 C   0  0  0  0  0  2  0  0  0  0  0  0
  161.3560  213.3450  142.9300 C   0  0  2  0  0  3  0  0  0  0  0  0
  163.5350  214.4450  143.6380 C   0  0  0  0  0  1  0  0  0  0  0  0
  162.8060  213.6770  142.5460 C   0  0  2  0  0  3  0  0  0  0  0  0
  162.8670  214.4530  141.2430 C   0  0  0  0  0  2  0  0  0  0  0  0
  164.2540  214.3560  140.6340 C   0  0  0  0  0  1  0  0  0  0  0  0
  159.5570  210.9740  156.1510 C   0  0  0  0  0  0  0  0  0  0  0  0
  161.7170  211.8160  156.9410 O   0  0  0  0  0  1  0  0  0  0  0  0
  158.2720  211.0950  156.2220 N   0  0  0  0  0  2  0  0  0  0  0  0
  160.3630  211.8450  156.9540 N   0  0  0  0  0  2  0  0  0  0  0  0
  162.5130  206.1710  151.8400 O   0  0  0  0  0  0  0  0  0  0  0  0
  161.5990  205.1150  151.7570 C   0  0  0  0  0  2  0  0  0  0  0  0
  160.5670  205.4060  150.6840 C   0  0  0  0  0  2  0  0  0  0  0  0
  160.7990  204.5190  149.4760 C   0  0  0  0  0  2  0  0  0  0  0  0
  161.4590  203.5610  146.8890 O   0  0  0  0  0  0  0  0  0  0  0  0
  161.2120  204.7920  147.0080 C   0  0  0  0  0  0  0  0  0  0  0  0
  161.6040  205.1560  144.5460 C   0  0  0  0  0  1  0  0  0  0  0  0
  160.8780  205.3420  148.2820 N   0  0  0  0  0  2  0  0  0  0  0  0
  161.2630  205.6510  145.8680 N   0  0  0  0  0  2  0  0  0  0  0  0
  1  3  1  0  0  0  0
  3  2  1  6  0  0  0
  3  9  1  0  0  0  0
  4 16  1  1  0  0  0
  4  1  1  0  0  0  0
  4  7  1  0  0  0  0
  5  8  1  0  0  0  0
  7  5  2  0  0  0  0
  7  9  1  0  0  0  0
  8 10  1  0  0  0  0
  8 31  1  1  0  0  0
  9 10  2  0  0  0  0
 10  6  1  0  0  0  0
 11 15  2  0  0  0  0
 11 19  1  0  0  0  0
 12 16  1  0  0  0  0
 13 14  1  0  0  0  0
 14 16  2  0  0  0  0
 15 17  1  0  0  0  0
 17 18  1  0  0  0  0
 18 12  2  0  0  0  0
 19 13  2  0  0  0  0
 19 18  1  0  0  0  0
 20 21  2  0  0  0  0
 21 15  1  0  0  0  0
 22 25  1  0  0  0  0
 22 26  1  0  0  0  0
 23 24  1  0  0  0  0
 24 20  1  1  0  0  0
 25 23  1  0  0  0  0
 26 28  1  6  0  0  0
 26 24  1  0  0  0  0
 28 27  1  1  0  0  0
 29 28  1  0  0  0  0
 30 29  1  0  0  0  0
 31 33  2  0  0  0  0
 31 34  1  0  0  0  0
 32 34  1  0  0  0  0
 35  1  1  0  0  0  0
 36 35  1  0  0  0  0
 37 36  1  0  0  0  0
 38 37  1  0  0  0  0
 39 40  2  0  0  0  0
 40 42  1  0  0  0  0
 41 43  1  0  0  0  0
 42 38  1  0  0  0  0
 43 40  1  0  0  0  0
M  END
>  <MODEL>
4

>  <REMARK>
 VINA RESULT:      -5.8      4.808      7.587
  Name = 
  11 active torsions:
  status: ('A' for Active; 'I' for Inactive)
    1  A    between atoms: N_3  and  O_19
    2  A    between atoms: C_4  and  C_26
    3  A    between atoms: C_8  and  C_31
    4  A    between atoms: C_11  and  C_27
    5  A    between atoms: O_19  and  C_36
    6  A    between atoms: C_21  and  C_30
    7  A    between atoms: C_23  and  N_43
    8  A    between atoms: N_24  and  C_41
    9  A    between atoms: C_26  and  C_29
   10  A    between atoms: C_33  and  C_36
   11  A    between atoms: C_33  and  C_41
                            x       y       z     vdW  Elec       q    Type
                         _______ _______ _______ _____ _____    ______ ____

>  <TORSDO>
F 11

$$$$
=
 OpenBabel11052411263D

 43 47  0  0  1  0  0  0  0  0999 V2000
  161.8370  205.1470  146.1790 N   0  0  0  0  0  0  0  0  0  0  0  0
  160.4380  203.7250  144.7580 C   0  0  0  0  0  1  0  0  0  0  0  0
  161.6020  203.7630  145.7340 C   0  0  2  0  0  3  0  0  0  0  0  0
  161.5670  205.2780  147.5920 C   0  0  1  0  0  3  0  0  0  0  0  0
  160.8630  203.4470  149.3080 C   0  0  0  0  0  3  0  0  0  0  0  0
  160.8570  200.4340  146.5720 S   0  0  0  0  0  1  0  0  0  0  0  0
  161.2050  204.0940  148.0510 C   0  0  0  0  0  0  0  0  0  0  0  0
  160.6800  202.1520  148.9790 C   0  0  1  0  0  3  0  0  0  0  0  0
  161.2000  203.1440  147.0220 C   0  0  0  0  0  0  0  0  0  0  0  0
  160.9050  201.9600  147.5140 C   0  0  0  0  0  0  0  0  0  0  0  0
  162.0180  209.9610  150.6920 N   0  0  0  0  0  0  0  0  0  0  0  0
  161.3170  206.5410  149.7400 C   0  0  0  0  0  3  0  0  0  0  0  0
  162.3490  208.8850  148.5360 C   0  0  0  0  0  3  0  0  0  0  0  0
  162.2220  207.6980  147.7970 C   0  0  0  0  0  3  0  0  0  0  0  0
  161.5600  209.6430  151.9300 C   0  0  0  0  0  0  0  0  0  0  0  0
  161.7050  206.5210  148.3870 C   0  0  0  0  0  0  0  0  0  0  0  0
  161.0640  208.0300  152.0560 S   0  0  0  0  0  0  0  0  0  0  0  0
  161.4510  207.7280  150.4520 C   0  0  0  0  0  0  0  0  0  0  0  0
  161.9530  208.8820  149.8720 C   0  0  0  0  0  0  0  0  0  0  0  0
  160.4410  210.7180  153.7360 C   0  0  0  0  0  3  0  0  0  0  0  0
  161.5040  210.5700  153.0160 N   0  0  0  0  0  0  0  0  0  0  0  0
  158.8580  212.0490  156.6920 C   0  0  0  0  0  2  0  0  0  0  0  0
  160.9930  211.0710  156.1100 C   0  0  0  0  0  2  0  0  0  0  0  0
  160.4180  211.7040  154.8550 C   0  0  2  0  0  3  0  0  0  0  0  0
  159.8770  211.0270  157.1380 C   0  0  0  0  0  2  0  0  0  0  0  0
  158.9860  212.0950  155.1810 C   0  0  2  0  0  3  0  0  0  0  0  0
  158.0180  214.4060  155.6060 C   0  0  0  0  0  1  0  0  0  0  0  0
  158.6080  213.4550  154.5760 C   0  0  2  0  0  3  0  0  0  0  0  0
  157.6420  213.2910  153.4150 C   0  0  0  0  0  2  0  0  0  0  0  0
  158.4020  213.0250  152.1280 C   0  0  0  0  0  1  0  0  0  0  0  0
  160.3200  201.0870  149.9490 C   0  0  0  0  0  0  0  0  0  0  0  0
  157.9610  201.0120  149.2940 O   0  0  0  0  0  1  0  0  0  0  0  0
  161.2320  200.5890  150.7170 N   0  0  0  0  0  2  0  0  0  0  0  0
  158.9870  200.5750  150.0630 N   0  0  0  0  0  2  0  0  0  0  0  0
  162.1760  206.1640  145.3460 O   0  0  0  0  0  0  0  0  0  0  0  0
  162.3960  205.5630  144.1010 C   0  0  0  0  0  2  0  0  0  0  0  0
  161.4930  206.1910  143.0560 C   0  0  0  0  0  2  0  0  0  0  0  0
  162.1090  206.0530  141.6770 C   0  0  0  0  0  2  0  0  0  0  0  0
  162.3310  206.2300  138.8550 O   0  0  0  0  0  0  0  0  0  0  0  0
  161.9370  207.2570  139.4720 C   0  0  0  0  0  0  0  0  0  0  0  0
  161.7330  208.5370  137.3120 C   0  0  0  0  0  1  0  0  0  0  0  0
  161.8070  207.2390  140.8940 N   0  0  0  0  0  2  0  0  0  0  0  0
  161.6150  208.4500  138.7570 N   0  0  0  0  0  2  0  0  0  0  0  0
  1  4  1  0  0  0  0
  3  2  1  6  0  0  0
  3  1  1  0  0  0  0
  3  9  1  0  0  0  0
  4  7  1  0  0  0  0
  4 16  1  1  0  0  0
  6 10  1  0  0  0  0
  7  5  2  0  0  0  0
  8  5  1  0  0  0  0
  8 31  1  1  0  0  0
  9 10  2  0  0  0  0
  9  7  1  0  0  0  0
 10  8  1  0  0  0  0
 11 15  2  0  0  0  0
 12 18  1  0  0  0  0
 13 19  1  0  0  0  0
 14 16  1  0  0  0  0
 14 13  2  0  0  0  0
 15 17  1  0  0  0  0
 15 21  1  0  0  0  0
 16 12  2  0  0  0  0
 18 17  1  0  0  0  0
 19 18  2  0  0  0  0
 19 11  1  0  0  0  0
 21 20  2  0  0  0  0
 22 25  1  0  0  0  0
 23 25  1  0  0  0  0
 24 20  1  6  0  0  0
 24 26  1  0  0  0  0
 24 23  1  0  0  0  0
 26 28  1  1  0  0  0
 26 22  1  0  0  0  0
 28 27  1  1  0  0  0
 29 28  1  0  0  0  0
 30 29  1  0  0  0  0
 31 34  1  0  0  0  0
 31 33  2  0  0  0  0
 32 34  1  0  0  0  0
 35  1  1  0  0  0  0
 36 35  1  0  0  0  0
 37 36  1  0  0  0  0
 38 37  1  0  0  0  0
 39 40  2  0  0  0  0
 40 42  1  0  0  0  0
 41 43  1  0  0  0  0
 42 38  1  0  0  0  0
 43 40  1  0  0  0  0
M  END
>  <MODEL>
5

>  <REMARK>
 VINA RESULT:      -5.7      4.114     11.595
  Name = 
  11 active torsions:
  status: ('A' for Active; 'I' for Inactive)
    1  A    between atoms: N_3  and  O_19
    2  A    between atoms: C_4  and  C_26
    3  A    between atoms: C_8  and  C_31
    4  A    between atoms: C_11  and  C_27
    5  A    between atoms: O_19  and  C_36
    6  A    between atoms: C_21  and  C_30
    7  A    between atoms: C_23  and  N_43
    8  A    between atoms: N_24  and  C_41
    9  A    between atoms: C_26  and  C_29
   10  A    between atoms: C_33  and  C_36
   11  A    between atoms: C_33  and  C_41
                            x       y       z     vdW  Elec       q    Type
                         _______ _______ _______ _____ _____    ______ ____

>  <TORSDO>
F 11

$$$$
=
 OpenBabel11052411263D

 43 47  0  0  1  0  0  0  0  0999 V2000
  159.1910  214.2250  143.5040 N   0  0  0  0  0  0  0  0  0  0  0  0
  157.8840  213.5470  141.5470 C   0  0  0  0  0  1  0  0  0  0  0  0
  158.9920  214.4500  142.0620 C   0  0  2  0  0  3  0  0  0  0  0  0
  160.4980  213.6640  143.7550 C   0  0  0  0  0  0  0  0  0  0  0  0
  162.4160  213.1460  142.0670 C   0  0  0  0  0  3  0  0  0  0  0  0
  160.3410  214.4530  138.8200 S   0  0  0  0  0  1  0  0  0  0  0  0
  161.1200  213.5430  142.5960 C   0  0  0  0  0  0  0  0  0  0  0  0
  162.3200  213.3740  140.7420 C   0  0  0  0  0  0  0  0  0  0  0  0
  160.3040  213.9840  141.5470 C   0  0  0  0  0  0  0  0  0  0  0  0
  160.9670  213.9190  140.4130 C   0  0  0  0  0  0  0  0  0  0  0  0
  162.5160  212.2620  148.8250 N   0  0  0  0  0  0  0  0  0  0  0  0
  160.7410  212.0780  145.6770 C   0  0  0  0  0  3  0  0  0  0  0  0
  162.4070  213.9130  147.0420 C   0  0  0  0  0  3  0  0  0  0  0  0
  161.8860  214.2250  145.7770 C   0  0  0  0  0  3  0  0  0  0  0  0
  162.0310  211.0240  149.0990 C   0  0  0  0  0  0  0  0  0  0  0  0
  161.0490  213.3170  145.0860 C   0  0  0  0  0  0  0  0  0  0  0  0
  161.0590  210.4080  147.8580 S   0  0  0  0  0  0  0  0  0  0  0  0
  161.2680  211.7900  146.9320 C   0  0  0  0  0  0  0  0  0  0  0  0
  162.0830  212.6820  147.6100 C   0  0  0  0  0  0  0  0  0  0  0  0
  161.8420  209.1290  150.5270 C   0  0  0  0  0  3  0  0  0  0  0  0
  162.3110  210.3130  150.3060 N   0  0  0  0  0  0  0  0  0  0  0  0
  160.7610  207.1200  153.3220 C   0  0  0  0  0  2  0  0  0  0  0  0
  162.3800  206.9460  151.5340 C   0  0  0  0  0  2  0  0  0  0  0  0
  162.1490  208.4220  151.8040 C   0  0  2  0  0  3  0  0  0  0  0  0
  161.2880  206.1830  152.2610 C   0  0  0  0  0  2  0  0  0  0  0  0
  160.9630  208.5110  152.7510 C   0  0  2  0  0  3  0  0  0  0  0  0
  161.1890  209.0110  155.2330 C   0  0  0  0  0  1  0  0  0  0  0  0
  161.1640  209.5900  153.8260 C   0  0  2  0  0  3  0  0  0  0  0  0
  160.0960  210.6660  153.7310 C   0  0  0  0  0  2  0  0  0  0  0  0
  160.4190  211.8150  154.6690 C   0  0  0  0  0  1  0  0  0  0  0  0
  163.4150  213.1260  139.7710 C   0  0  0  0  0  0  0  0  0  0  0  0
  162.5190  210.9780  139.0070 O   0  0  0  0  0  1  0  0  0  0  0  0
  164.3580  213.9980  139.6360 N   0  0  0  0  0  2  0  0  0  0  0  0
  163.4650  211.9460  138.9600 N   0  0  0  0  0  2  0  0  0  0  0  0
  158.2350  214.4400  144.4430 O   0  0  0  0  0  0  0  0  0  0  0  0
  157.8660  213.1670  144.8940 C   0  0  0  0  0  2  0  0  0  0  0  0
  156.8130  213.2870  145.9800 C   0  0  0  0  0  2  0  0  0  0  0  0
  157.1690  214.4080  146.9370 C   0  0  0  0  0  2  0  0  0  0  0  0
  157.2750  214.2700  149.7680 O   0  0  0  0  0  0  0  0  0  0  0  0
  158.3240  213.9770  149.1320 C   0  0  0  0  0  0  0  0  0  0  0  0
  159.5570  213.5220  151.2810 C   0  0  0  0  0  1  0  0  0  0  0  0
  158.3420  214.0310  147.7060 N   0  0  0  0  0  2  0  0  0  0  0  0
  159.5070  213.5890  149.8310 N   0  0  0  0  0  2  0  0  0  0  0  0
  1  4  1  0  0  0  0
  1 35  1  0  0  0  0
  3  2  1  6  0  0  0
  3  1  1  0  0  0  0
  4 16  1  0  0  0  0
  5  7  1  0  0  0  0
  6 10  1  0  0  0  0
  7  4  2  0  0  0  0
  8  5  2  0  0  0  0
  9  3  1  0  0  0  0
  9  7  1  0  0  0  0
 10  8  1  0  0  0  0
 10  9  2  0  0  0  0
 11 15  2  0  0  0  0
 12 18  1  0  0  0  0
 13 19  1  0  0  0  0
 14 13  2  0  0  0  0
 15 21  1  0  0  0  0
 16 12  2  0  0  0  0
 16 14  1  0  0  0  0
 17 15  1  0  0  0  0
 18 19  2  0  0  0  0
 18 17  1  0  0  0  0
 19 11  1  0  0  0  0
 21 20  2  0  0  0  0
 23 24  1  0  0  0  0
 23 25  1  0  0  0  0
 24 20  1  6  0  0  0
 24 26  1  0  0  0  0
 25 22  1  0  0  0  0
 26 22  1  0  0  0  0
 26 28  1  1  0  0  0
 28 27  1  1  0  0  0
 29 28  1  0  0  0  0
 29 30  1  0  0  0  0
 31  8  1  0  0  0  0
 33 31  2  0  0  0  0
 34 32  1  0  0  0  0
 34 31  1  0  0  0  0
 35 36  1  0  0  0  0
 36 37  1  0  0  0  0
 37 38  1  0  0  0  0
 38 42  1  0  0  0  0
 40 39  2  0  0  0  0
 40 43  1  0  0  0  0
 42 40  1  0  0  0  0
 43 41  1  0  0  0  0
M  END
>  <MODEL>
6

>  <REMARK>
 VINA RESULT:      -5.7      6.806     10.820
  Name = 
  11 active torsions:
  status: ('A' for Active; 'I' for Inactive)
    1  A    between atoms: N_3  and  O_19
    2  A    between atoms: C_4  and  C_26
    3  A    between atoms: C_8  and  C_31
    4  A    between atoms: C_11  and  C_27
    5  A    between atoms: O_19  and  C_36
    6  A    between atoms: C_21  and  C_30
    7  A    between atoms: C_23  and  N_43
    8  A    between atoms: N_24  and  C_41
    9  A    between atoms: C_26  and  C_29
   10  A    between atoms: C_33  and  C_36
   11  A    between atoms: C_33  and  C_41
                            x       y       z     vdW  Elec       q    Type
                         _______ _______ _______ _____ _____    ______ ____

>  <TORSDO>
F 11

$$$$
=
 OpenBabel11052411263D

 43 47  0  0  1  0  0  0  0  0999 V2000
  159.7040  212.5120  152.6960 N   0  0  0  0  0  0  0  0  0  0  0  0
  159.6730  214.4530  154.1890 C   0  0  0  0  0  1  0  0  0  0  0  0
  158.8430  213.5440  153.2990 C   0  0  2  0  0  3  0  0  0  0  0  0
  159.3350  211.2000  153.1750 C   0  0  1  0  0  3  0  0  0  0  0  0
  157.4020  210.5220  154.7870 C   0  0  0  0  0  3  0  0  0  0  0  0
  156.0570  214.3300  155.2890 S   0  0  0  0  0  1  0  0  0  0  0  0
  158.3160  211.3390  154.0040 C   0  0  0  0  0  0  0  0  0  0  0  0
  156.5460  211.4090  155.3340 C   0  0  1  0  0  3  0  0  0  0  0  0
  157.9620  212.6880  154.1320 C   0  0  0  0  0  0  0  0  0  0  0  0
  156.9030  212.7960  154.9060 C   0  0  0  0  0  0  0  0  0  0  0  0
  161.7140  206.3530  151.5660 N   0  0  0  0  0  0  0  0  0  0  0  0
  160.0580  209.5670  151.4200 C   0  0  0  0  0  3  0  0  0  0  0  0
  161.1010  207.8320  153.3970 C   0  0  0  0  0  3  0  0  0  0  0  0
  160.5020  209.0490  153.7580 C   0  0  0  0  0  3  0  0  0  0  0  0
  161.6260  206.3170  150.2120 C   0  0  0  0  0  0  0  0  0  0  0  0
  159.9740  209.9240  152.7790 C   0  0  0  0  0  0  0  0  0  0  0  0
  160.8790  207.6900  149.5630 S   0  0  0  0  0  0  0  0  0  0  0  0
  160.6550  208.3570  151.0860 C   0  0  0  0  0  0  0  0  0  0  0  0
  161.1670  207.4980  152.0450 C   0  0  0  0  0  0  0  0  0  0  0  0
  161.4200  204.7260  148.4520 C   0  0  0  0  0  3  0  0  0  0  0  0
  162.1160  205.2380  149.4150 N   0  0  0  0  0  0  0  0  0  0  0  0
  160.8830  201.9500  146.2110 C   0  0  0  0  0  2  0  0  0  0  0  0
  162.1320  204.0220  146.2020 C   0  0  0  0  0  2  0  0  0  0  0  0
  161.9620  203.5930  147.6490 C   0  0  2  0  0  3  0  0  0  0  0  0
  161.1950  203.1650  145.3700 C   0  0  0  0  0  2  0  0  0  0  0  0
  160.9780  202.4340  147.6470 C   0  0  2  0  0  3  0  0  0  0  0  0
  161.4340  199.9570  147.9890 C   0  0  0  0  0  1  0  0  0  0  0  0
  161.3820  201.3330  148.6380 C   0  0  2  0  0  3  0  0  0  0  0  0
  160.4500  201.3010  149.8360 C   0  0  0  0  0  2  0  0  0  0  0  0
  160.9270  202.2710  150.9020 C   0  0  0  0  0  1  0  0  0  0  0  0
  155.4140  211.0380  156.2200 C   0  0  0  0  0  0  0  0  0  0  0  0
  154.7880  209.0570  154.9220 O   0  0  0  0  0  1  0  0  0  0  0  0
  155.1540  211.7600  157.2590 N   0  0  0  0  0  2  0  0  0  0  0  0
  154.5920  209.8910  155.9700 N   0  0  0  0  0  2  0  0  0  0  0  0
  160.7480  212.7830  151.8730 O   0  0  0  0  0  0  0  0  0  0  0  0
  160.2550  213.7060  150.9430 C   0  0  0  0  0  2  0  0  0  0  0  0
  160.5260  213.2150  149.5330 C   0  0  0  0  0  2  0  0  0  0  0  0
  159.5420  213.8370  148.5610 C   0  0  0  0  0  2  0  0  0  0  0  0
  159.8900  212.0670  146.3720 O   0  0  0  0  0  0  0  0  0  0  0  0
  160.3640  213.2300  146.2600 C   0  0  0  0  0  0  0  0  0  0  0  0
  161.2190  212.7100  143.9480 C   0  0  0  0  0  1  0  0  0  0  0  0
  160.2290  214.1700  147.3250 N   0  0  0  0  0  2  0  0  0  0  0  0
  161.0410  213.6210  145.0650 N   0  0  0  0  0  2  0  0  0  0  0  0
  1  4  1  0  0  0  0
  1  3  1  0  0  0  0
  3  9  1  0  0  0  0
  3  2  1  1  0  0  0
  4 16  1  6  0  0  0
  4  7  1  0  0  0  0
  5  8  1  0  0  0  0
  7  9  1  0  0  0  0
  7  5  2  0  0  0  0
  8 31  1  6  0  0  0
  9 10  2  0  0  0  0
 10  6  1  0  0  0  0
 10  8  1  0  0  0  0
 11 19  1  0  0  0  0
 12 16  1  0  0  0  0
 13 14  1  0  0  0  0
 15 11  2  0  0  0  0
 16 14  2  0  0  0  0
 17 15  1  0  0  0  0
 17 18  1  0  0  0  0
 18 12  2  0  0  0  0
 18 19  1  0  0  0  0
 19 13  2  0  0  0  0
 20 21  2  0  0  0  0
 21 15  1  0  0  0  0
 22 26  1  0  0  0  0
 23 24  1  0  0  0  0
 24 20  1  1  0  0  0
 25 23  1  0  0  0  0
 25 22  1  0  0  0  0
 26 24  1  0  0  0  0
 26 28  1  1  0  0  0
 28 27  1  6  0  0  0
 28 29  1  0  0  0  0
 29 30  1  0  0  0  0
 31 33  2  0  0  0  0
 32 34  1  0  0  0  0
 34 31  1  0  0  0  0
 35  1  1  0  0  0  0
 36 35  1  0  0  0  0
 37 36  1  0  0  0  0
 38 37  1  0  0  0  0
 40 39  2  0  0  0  0
 40 42  1  0  0  0  0
 41 43  1  0  0  0  0
 42 38  1  0  0  0  0
 43 40  1  0  0  0  0
M  END
>  <MODEL>
7

>  <REMARK>
 VINA RESULT:      -4.7      3.102      5.083
  Name = 
  11 active torsions:
  status: ('A' for Active; 'I' for Inactive)
    1  A    between atoms: N_3  and  O_19
    2  A    between atoms: C_4  and  C_26
    3  A    between atoms: C_8  and  C_31
    4  A    between atoms: C_11  and  C_27
    5  A    between atoms: O_19  and  C_36
    6  A    between atoms: C_21  and  C_30
    7  A    between atoms: C_23  and  N_43
    8  A    between atoms: N_24  and  C_41
    9  A    between atoms: C_26  and  C_29
   10  A    between atoms: C_33  and  C_36
   11  A    between atoms: C_33  and  C_41
                            x       y       z     vdW  Elec       q    Type
                         _______ _______ _______ _____ _____    ______ ____

>  <TORSDO>
F 11

$$$$
