=
 OpenBabel11052412013D

 61 65  0  0  1  0  0  0  0  0999 V2000
  160.9370  212.9480  149.2320 C   0  0  1  0  0  3  0  0  0  0  0  0
  161.3000  213.2740  146.9030 N   0  0  0  0  0  0  0  0  0  0  0  0
  161.8110  213.1060  148.0670 N   0  0  0  0  0  0  0  0  0  0  0  0
  162.0990  213.3460  145.7110 C   0  0  0  0  0  0  0  0  0  0  0  0
  163.2460  212.8140  145.6770 O   0  0  0  0  0  0  0  0  0  0  0  0
  161.6310  214.0170  144.5800 O   0  0  0  0  0  0  0  0  0  0  0  0
  161.2520  213.3890  143.3480 C   0  0  2  0  0  3  0  0  0  0  0  0
  159.9210  212.6470  143.4900 C   0  0  2  0  0  3  0  0  0  0  0  0
  159.7130  211.8740  142.3280 O   0  0  0  0  0  0  0  0  0  0  0  0
  158.9560  213.0540  142.4430 C   0  0  0  0  0  2  0  0  0  0  0  0
  162.6170  212.8490  141.2980 C   0  0  0  0  0  1  0  0  0  0  0  0
  162.3340  212.4780  142.7520 C   0  0  0  0  0  2  0  0  0  0  0  0
  161.7390  212.2240  150.3240 C   0  0  0  0  0  2  0  0  0  0  0  0
  161.7510  210.7510  150.1320 C   0  0  0  0  0  0  0  0  0  0  0  0
  161.1980  209.9990  150.9720 O   0  0  0  0  0  0  0  0  0  0  0  0
  162.3890  210.1910  148.9760 N   0  0  0  0  0  2  0  0  0  0  0  0
  161.6840  209.3290  148.0310 C   0  0  0  0  0  2  0  0  0  0  0  0
  162.2620  206.6200  150.5320 C   0  0  0  0  0  3  0  0  0  0  0  0
  161.7030  207.8920  148.4550 C   0  0  0  0  0  0  0  0  0  0  0  0
  160.8940  207.0840  147.8610 N   0  0  0  0  0  0  0  0  0  0  0  0
  162.8070  207.3980  149.3750 C   0  0  0  0  0  2  0  0  0  0  0  0
  160.8330  205.6420  147.9760 C   0  0  0  0  0  3  0  0  0  0  0  0
  161.1560  204.9110  149.0640 C   0  0  0  0  0  0  0  0  0  0  0  0
  161.5470  205.4970  150.3630 C   0  0  0  0  0  3  0  0  0  0  0  0
  161.0260  201.2850  147.6680 C   0  0  0  0  0  0  0  0  0  0  0  0
  160.9740  203.4410  148.9740 C   0  0  0  0  0  0  0  0  0  0  0  0
  161.3430  200.6390  146.6410 O   0  0  0  0  0  0  0  0  0  0  0  0
  160.7000  201.2510  150.0600 C   0  0  0  0  0  3  0  0  0  0  0  0
  160.7800  200.5730  148.9220 C   0  0  0  0  0  3  0  0  0  0  0  0
  160.8540  202.7080  150.0910 C   0  0  0  0  0  3  0  0  0  0  0  0
  160.8980  202.7840  147.6070 C   0  0  0  0  0  2  0  0  0  0  0  0
  160.4550  214.3380  149.6970 C   0  0  0  0  0  2  0  0  0  0  0  0
  158.2740  213.2320  149.4550 C   0  0  0  0  0  2  0  0  0  0  0  0
  157.3280  214.4530  151.9490 C   0  0  0  0  0  2  0  0  0  0  0  0
  158.9720  214.4380  150.0340 C   0  0  1  0  0  3  0  0  0  0  0  0
  156.3870  213.8330  150.9830 N   0  0  0  0  0  0  0  0  0  0  0  0
  156.7700  213.3770  149.6300 C   0  0  0  0  0  2  0  0  0  0  0  0
  154.1710  214.1260  150.3020 O   0  0  0  0  0  0  0  0  0  0  0  0
  154.9830  213.9100  151.2510 C   0  0  0  0  0  0  0  0  0  0  0  0
  158.7940  214.3810  151.5370 C   0  0  0  0  0  2  0  0  0  0  0  0
  154.4500  213.8350  152.6450 C   0  0  0  0  0  2  0  0  0  0  0  0
  155.5150  214.1590  153.6820 C   0  0  0  0  0  2  0  0  0  0  0  0
  155.9540  212.8280  154.2930 C   0  0  0  0  0  2  0  0  0  0  0  0
  157.0040  213.9590  156.0900 O   0  0  0  0  0  1  0  0  0  0  0  0
  157.1030  212.8180  155.2820 C   0  0  1  0  0  3  0  0  0  0  0  0
  157.3930  211.5780  156.1620 C   0  0  1  0  0  3  0  0  0  0  0  0
  157.3330  210.3740  155.4540 O   0  0  0  0  0  1  0  0  0  0  0  0
  158.6840  211.6980  156.9870 C   0  0  1  0  0  3  0  0  0  0  0  0
  160.3940  210.2500  156.1570 C   0  0  2  0  0  3  0  0  0  0  0  0
  159.3720  210.4580  157.1480 O   0  0  0  0  0  0  0  0  0  0  0  0
  159.5740  212.7600  156.4270 C   0  0  0  0  0  0  0  0  0  0  0  0
  160.5050  212.3300  155.3450 C   0  0  0  0  0  2  0  0  0  0  0  0
  159.6560  213.8460  156.9660 O   0  0  0  0  0  0  0  0  0  0  0  0
  160.2090  211.0020  154.9850 O   0  0  0  0  0  0  0  0  0  0  0  0
  160.4890  208.4640  155.8370 P   0  0  2  0  0  0  0  0  0  0  0  0
  159.1520  207.7230  156.5550 O   0  0  0  0  0  1  0  0  0  0  0  0
  161.7470  207.8740  156.4530 O   0  0  0  0  0  0  0  0  0  0  0  0
  160.3440  208.1630  154.1620 O   0  0  0  0  0  0  0  0  0  0  0  0
  162.6470  206.7480  153.6110 O   0  0  0  0  0  0  0  0  0  0  0  0
  161.1650  206.7050  153.9170 P   0  0  0  0  0  0  0  0  0  0  0  0
  160.4470  205.3660  153.8490 O   0  0  0  0  0  0  0  0  0  0  0  0
  1 32  1  1  0  0  0
  1 13  1  0  0  0  0
  2  3  2  0  0  0  0
  3  1  1  0  0  0  0
  4  2  1  0  0  0  0
  5  4  2  0  0  0  0
  6  4  1  0  0  0  0
  7 12  1  1  0  0  0
  7  6  1  0  0  0  0
  8  7  1  6  0  0  0
  9 10  1  0  0  0  0
  9  8  1  0  0  0  0
 10  8  1  0  0  0  0
 11 12  1  0  0  0  0
 14 13  1  0  0  0  0
 14 15  2  0  0  0  0
 16 14  1  0  0  0  0
 17 19  1  0  0  0  0
 17 16  1  0  0  0  0
 19 21  1  0  0  0  0
 20 22  1  0  0  0  0
 20 19  2  0  0  0  0
 21 18  1  0  0  0  0
 22 23  2  0  0  0  0
 23 24  1  0  0  0  0
 24 18  2  0  0  0  0
 25 29  1  0  0  0  0
 26 23  1  0  0  0  0
 26 30  2  0  0  0  0
 27 25  2  0  0  0  0
 28 30  1  0  0  0  0
 29 28  2  0  0  0  0
 31 25  1  0  0  0  0
 31 26  1  0  0  0  0
 33 37  1  0  0  0  0
 33 35  1  0  0  0  0
 35 32  1  1  0  0  0
 35 40  1  0  0  0  0
 36 39  1  0  0  0  0
 36 34  1  0  0  0  0
 37 36  1  0  0  0  0
 38 39  2  0  0  0  0
 39 41  1  0  0  0  0
 40 34  1  0  0  0  0
 41 42  1  0  0  0  0
 42 43  1  0  0  0  0
 43 45  1  0  0  0  0
 45 44  1  1  0  0  0
 45 46  1  0  0  0  0
 46 47  1  6  0  0  0
 48 46  1  6  0  0  0
 48 50  1  0  0  0  0
 49 55  1  6  0  0  0
 49 50  1  0  0  0  0
 51 53  2  0  0  0  0
 51 48  1  0  0  0  0
 52 51  1  0  0  0  0
 54 52  1  0  0  0  0
 54 49  1  0  0  0  0
 55 57  2  1  0  0  0
 55 56  1  0  0  0  0
 58 55  1  0  0  0  0
 59 60  2  0  0  0  0
 60 58  1  0  0  0  0
 61 60  2  0  0  0  0
M  END
>  <MODEL>
1

>  <REMARK>
 VINA RESULT:      -5.1      0.000      0.000
  Name = 
  22 active torsions:
  status: ('A' for Active; 'I' for Inactive)
    1  A    between atoms: C_1  and  C_6
    2  A    between atoms: C_1  and  N_32
    3  A    between atoms: C_3  and  C_12
    4  A    between atoms: P_5  and  C_11
    5  A    between atoms: P_5  and  O_36
    6  A    between atoms: C_8  and  C_23
    7  A    between atoms: C_8  and  C_42
    8  A    between atoms: C_10  and  C_47
    9  A    between atoms: C_12  and  C_42
   10  A    between atoms: C_14  and  C_19
   11  A    between atoms: C_16  and  C_45
   12  A    between atoms: C_17  and  C_18
   13  A    between atoms: C_17  and  C_53
   14  A    between atoms: C_18  and  C_55
   15  A    between atoms: C_19  and  C_38
   16  A    between atoms: C_19  and  O_52
   17  A    between atoms: N_22  and  C_33
   18  A    between atoms: C_33  and  O_52
   19  A    between atoms: O_36  and  P_40
   20  A    between atoms: N_37  and  C_42
   21  A    between atoms: C_47  and  C_61
   22  A    between atoms: C_53  and  C_61
                            x       y       z     vdW  Elec       q    Type
                         _______ _______ _______ _____ _____    ______ ____

>  <TORSDO>
F 22

$$$$
=
 OpenBabel11052412013D

 61 65  0  0  1  0  0  0  0  0999 V2000
  160.5180  202.9550  150.5300 C   0  0  1  0  0  3  0  0  0  0  0  0
  160.5450  202.2720  148.2510 N   0  0  0  0  0  0  0  0  0  0  0  0
  161.1620  202.3250  149.3740 N   0  0  0  0  0  0  0  0  0  0  0  0
  161.0830  201.5910  147.1060 C   0  0  0  0  0  0  0  0  0  0  0  0
  161.5530  200.4230  147.2190 O   0  0  0  0  0  0  0  0  0  0  0  0
  161.1130  202.2130  145.8560 O   0  0  0  0  0  0  0  0  0  0  0  0
  161.5160  203.5680  145.6200 C   0  0  2  0  0  3  0  0  0  0  0  0
  160.7590  204.1740  144.4360 C   0  0  2  0  0  3  0  0  0  0  0  0
  161.4100  205.3650  144.0500 O   0  0  0  0  0  0  0  0  0  0  0  0
  160.2090  205.5090  144.7680 C   0  0  0  0  0  2  0  0  0  0  0  0
  163.5400  204.8860  146.3450 C   0  0  0  0  0  1  0  0  0  0  0  0
  163.0320  203.7500  145.4600 C   0  0  0  0  0  2  0  0  0  0  0  0
  161.6190  203.3100  151.5410 C   0  0  0  0  0  2  0  0  0  0  0  0
  161.1130  204.1610  152.6490 C   0  0  0  0  0  0  0  0  0  0  0  0
  160.2850  203.7010  153.4740 O   0  0  0  0  0  0  0  0  0  0  0  0
  161.5840  205.5090  152.7790 N   0  0  0  0  0  2  0  0  0  0  0  0
  162.2250  206.0030  153.9960 C   0  0  0  0  0  2  0  0  0  0  0  0
  161.9310  208.8420  156.3990 C   0  0  0  0  0  3  0  0  0  0  0  0
  161.6630  207.3190  154.4360 C   0  0  0  0  0  0  0  0  0  0  0  0
  161.2710  208.1360  153.5200 N   0  0  0  0  0  0  0  0  0  0  0  0
  161.3590  207.5500  155.9070 C   0  0  0  0  0  2  0  0  0  0  0  0
  160.5560  209.3850  153.6880 C   0  0  0  0  0  3  0  0  0  0  0  0
  160.6440  210.2220  154.7440 C   0  0  0  0  0  0  0  0  0  0  0  0
  161.5730  210.0250  155.8750 C   0  0  0  0  0  3  0  0  0  0  0  0
  157.9820  212.8630  153.7190 C   0  0  0  0  0  0  0  0  0  0  0  0
  159.8510  211.4750  154.6860 C   0  0  0  0  0  0  0  0  0  0  0  0
  156.9500  212.9640  153.0130 O   0  0  0  0  0  0  0  0  0  0  0  0
  159.1820  213.6280  155.6700 C   0  0  0  0  0  3  0  0  0  0  0  0
  158.2470  213.8590  154.7570 C   0  0  0  0  0  3  0  0  0  0  0  0
  159.9610  212.3860  155.6640 C   0  0  0  0  0  3  0  0  0  0  0  0
  158.9410  211.7240  153.4960 C   0  0  0  0  0  2  0  0  0  0  0  0
  159.7440  204.2050  150.0610 C   0  0  0  0  0  2  0  0  0  0  0  0
  160.4070  205.7570  148.2730 C   0  0  0  0  0  2  0  0  0  0  0  0
  160.9120  207.8740  150.2390 C   0  0  0  0  0  2  0  0  0  0  0  0
  160.6020  205.4220  149.7320 C   0  0  1  0  0  3  0  0  0  0  0  0
  161.4190  207.9710  148.8470 N   0  0  0  0  0  0  0  0  0  0  0  0
  161.3690  206.8630  147.8690 C   0  0  0  0  0  2  0  0  0  0  0  0
  163.2390  208.9250  147.7350 O   0  0  0  0  0  0  0  0  0  0  0  0
  162.2370  209.0910  148.4930 C   0  0  0  0  0  0  0  0  0  0  0  0
  160.1140  206.6100  150.5340 C   0  0  0  0  0  2  0  0  0  0  0  0
  161.9950  210.4470  149.0730 C   0  0  0  0  0  2  0  0  0  0  0  0
  161.8420  211.5100  147.9960 C   0  0  0  0  0  2  0  0  0  0  0  0
  162.4690  212.7900  148.5490 C   0  0  0  0  0  2  0  0  0  0  0  0
  163.9830  214.4340  147.7600 O   0  0  0  0  0  1  0  0  0  0  0  0
  162.6670  213.9720  147.6190 C   0  0  1  0  0  3  0  0  0  0  0  0
  162.3020  213.8800  146.1180 C   0  0  1  0  0  3  0  0  0  0  0  0
  162.5750  212.6280  145.5600 O   0  0  0  0  0  1  0  0  0  0  0  0
  160.8740  214.3540  145.8020 C   0  0  1  0  0  3  0  0  0  0  0  0
  159.9960  213.2630  143.8660 C   0  0  2  0  0  3  0  0  0  0  0  0
  160.6050  214.4510  144.4030 O   0  0  0  0  0  0  0  0  0  0  0  0
  159.8660  213.5050  146.5060 C   0  0  0  0  0  0  0  0  0  0  0  0
  159.4340  212.2710  145.7890 C   0  0  0  0  0  2  0  0  0  0  0  0
  159.3030  213.9110  147.5030 O   0  0  0  0  0  0  0  0  0  0  0  0
  160.2250  212.1100  144.6350 O   0  0  0  0  0  0  0  0  0  0  0  0
  160.5660  213.0870  142.1490 P   0  0  2  0  0  0  0  0  0  0  0  0
  162.0760  212.3310  142.1650 O   0  0  0  0  0  1  0  0  0  0  0  0
  160.7220  214.4480  141.4930 O   0  0  0  0  0  0  0  0  0  0  0  0
  159.5280  212.0330  141.2960 O   0  0  0  0  0  0  0  0  0  0  0  0
  160.2160  211.3430  138.7150 O   0  0  0  0  0  0  0  0  0  0  0  0
  160.5360  211.2430  140.1920 P   0  0  0  0  0  0  0  0  0  0  0  0
  161.6610  210.3190  140.6310 O   0  0  0  0  0  0  0  0  0  0  0  0
  1 32  1  6  0  0  0
  1 13  1  0  0  0  0
  2  3  2  0  0  0  0
  3  1  1  0  0  0  0
  4  5  2  0  0  0  0
  4  2  1  0  0  0  0
  6  4  1  0  0  0  0
  7 12  1  6  0  0  0
  7  6  1  0  0  0  0
  8 10  1  0  0  0  0
  8  7  1  1  0  0  0
  9  8  1  0  0  0  0
  9 10  1  0  0  0  0
 12 11  1  0  0  0  0
 13 14  1  0  0  0  0
 14 16  1  0  0  0  0
 14 15  2  0  0  0  0
 16 17  1  0  0  0  0
 17 19  1  0  0  0  0
 19 21  1  0  0  0  0
 20 22  1  0  0  0  0
 20 19  2  0  0  0  0
 21 18  1  0  0  0  0
 22 23  2  0  0  0  0
 23 24  1  0  0  0  0
 24 18  2  0  0  0  0
 25 29  1  0  0  0  0
 26 23  1  0  0  0  0
 26 30  2  0  0  0  0
 27 25  2  0  0  0  0
 29 28  2  0  0  0  0
 30 28  1  0  0  0  0
 31 25  1  0  0  0  0
 31 26  1  0  0  0  0
 33 35  1  0  0  0  0
 34 40  1  0  0  0  0
 35 32  1  1  0  0  0
 35 40  1  0  0  0  0
 36 34  1  0  0  0  0
 37 33  1  0  0  0  0
 37 36  1  0  0  0  0
 38 39  2  0  0  0  0
 39 36  1  0  0  0  0
 39 41  1  0  0  0  0
 42 43  1  0  0  0  0
 42 41  1  0  0  0  0
 45 44  1  6  0  0  0
 45 43  1  0  0  0  0
 46 47  1  1  0  0  0
 46 45  1  0  0  0  0
 48 46  1  6  0  0  0
 48 51  1  0  0  0  0
 49 55  1  6  0  0  0
 49 50  1  0  0  0  0
 49 54  1  0  0  0  0
 50 48  1  0  0  0  0
 51 53  2  0  0  0  0
 52 51  1  0  0  0  0
 54 52  1  0  0  0  0
 55 57  2  6  0  0  0
 55 56  1  0  0  0  0
 58 55  1  0  0  0  0
 59 60  2  0  0  0  0
 60 61  2  0  0  0  0
 60 58  1  0  0  0  0
M  END
>  <MODEL>
2

>  <REMARK>
 VINA RESULT:      -4.4      3.899     10.547
  Name = 
  22 active torsions:
  status: ('A' for Active; 'I' for Inactive)
    1  A    between atoms: C_1  and  C_6
    2  A    between atoms: C_1  and  N_32
    3  A    between atoms: C_3  and  C_12
    4  A    between atoms: P_5  and  C_11
    5  A    between atoms: P_5  and  O_36
    6  A    between atoms: C_8  and  C_23
    7  A    between atoms: C_8  and  C_42
    8  A    between atoms: C_10  and  C_47
    9  A    between atoms: C_12  and  C_42
   10  A    between atoms: C_14  and  C_19
   11  A    between atoms: C_16  and  C_45
   12  A    between atoms: C_17  and  C_18
   13  A    between atoms: C_17  and  C_53
   14  A    between atoms: C_18  and  C_55
   15  A    between atoms: C_19  and  C_38
   16  A    between atoms: C_19  and  O_52
   17  A    between atoms: N_22  and  C_33
   18  A    between atoms: C_33  and  O_52
   19  A    between atoms: O_36  and  P_40
   20  A    between atoms: N_37  and  C_42
   21  A    between atoms: C_47  and  C_61
   22  A    between atoms: C_53  and  C_61
                            x       y       z     vdW  Elec       q    Type
                         _______ _______ _______ _____ _____    ______ ____

>  <TORSDO>
F 22

$$$$
=
 OpenBabel11052412013D

 61 65  0  0  1  0  0  0  0  0999 V2000
  161.5540  213.3880  146.4860 C   0  0  1  0  0  3  0  0  0  0  0  0
  162.2260  212.7800  144.2850 N   0  0  0  0  0  0  0  0  0  0  0  0
  161.8290  213.7040  145.0810 N   0  0  0  0  0  0  0  0  0  0  0  0
  162.5960  213.0420  142.9220 C   0  0  0  0  0  0  0  0  0  0  0  0
  163.1380  214.1400  142.6060 O   0  0  0  0  0  0  0  0  0  0  0  0
  162.3490  212.0990  141.9230 O   0  0  0  0  0  0  0  0  0  0  0  0
  161.2650  212.1560  140.9870 C   0  0  2  0  0  3  0  0  0  0  0  0
  160.0100  212.7570  141.6260 C   0  0  2  0  0  3  0  0  0  0  0  0
  159.1820  213.2600  140.6000 O   0  0  0  0  0  0  0  0  0  0  0  0
  159.9010  214.2070  141.3500 C   0  0  0  0  0  2  0  0  0  0  0  0
  162.2350  210.0320  140.0340 C   0  0  0  0  0  1  0  0  0  0  0  0
  160.9530  210.8140  140.3090 C   0  0  0  0  0  2  0  0  0  0  0  0
  160.1200  212.8460  146.5710 C   0  0  0  0  0  2  0  0  0  0  0  0
  159.4460  213.2300  147.8380 C   0  0  0  0  0  0  0  0  0  0  0  0
  158.5440  212.5020  148.3210 O   0  0  0  0  0  0  0  0  0  0  0  0
  159.8390  214.4330  148.5130 N   0  0  0  0  0  2  0  0  0  0  0  0
  160.3040  214.4390  149.8980 C   0  0  0  0  0  2  0  0  0  0  0  0
  156.8480  213.2850  150.7050 C   0  0  0  0  0  3  0  0  0  0  0  0
  159.2260  214.0370  150.8580 C   0  0  0  0  0  0  0  0  0  0  0  0
  159.5900  213.5330  151.9860 N   0  0  0  0  0  0  0  0  0  0  0  0
  157.7880  214.4430  150.5820 C   0  0  0  0  0  2  0  0  0  0  0  0
  158.7590  213.2170  153.1290 C   0  0  0  0  0  3  0  0  0  0  0  0
  157.4630  212.8400  153.0970 C   0  0  0  0  0  0  0  0  0  0  0  0
  156.7060  212.6010  151.8510 C   0  0  0  0  0  3  0  0  0  0  0  0
  155.4440  213.1890  156.4010 C   0  0  0  0  0  0  0  0  0  0  0  0
  156.8160  212.5210  154.3940 C   0  0  0  0  0  0  0  0  0  0  0  0
  154.6960  214.0070  156.9880 O   0  0  0  0  0  0  0  0  0  0  0  0
  156.0190  210.8720  156.0360 C   0  0  0  0  0  3  0  0  0  0  0  0
  155.4360  211.7830  156.8060 C   0  0  0  0  0  3  0  0  0  0  0  0
  156.6730  211.2440  154.7790 C   0  0  0  0  0  3  0  0  0  0  0  0
  156.3450  213.6550  155.2890 C   0  0  0  0  0  2  0  0  0  0  0  0
  162.5900  212.3580  146.9860 C   0  0  0  0  0  2  0  0  0  0  0  0
  162.9290  210.0670  147.8090 C   0  0  0  0  0  2  0  0  0  0  0  0
  161.6390  210.7450  150.3550 C   0  0  0  0  0  2  0  0  0  0  0  0
  162.0470  211.2870  147.9250 C   0  0  1  0  0  3  0  0  0  0  0  0
  161.8640  209.3340  149.9500 N   0  0  0  0  0  0  0  0  0  0  0  0
  162.3270  208.9220  148.6080 C   0  0  0  0  0  2  0  0  0  0  0  0
  160.8390  207.2600  150.2790 O   0  0  0  0  0  0  0  0  0  0  0  0
  161.3640  208.2930  150.7950 C   0  0  0  0  0  0  0  0  0  0  0  0
  162.1440  211.7770  149.3540 C   0  0  0  0  0  2  0  0  0  0  0  0
  161.3580  208.4310  152.2820 C   0  0  0  0  0  2  0  0  0  0  0  0
  160.6800  207.2510  152.9640 C   0  0  0  0  0  2  0  0  0  0  0  0
  161.7340  206.1500  153.0870 C   0  0  0  0  0  2  0  0  0  0  0  0
  159.9820  204.5600  152.9570 O   0  0  0  0  0  1  0  0  0  0  0  0
  161.3550  204.7270  152.7260 C   0  0  1  0  0  3  0  0  0  0  0  0
  161.7320  204.1200  151.3530 C   0  0  1  0  0  3  0  0  0  0  0  0
  162.5300  202.9780  151.4560 O   0  0  0  0  0  1  0  0  0  0  0  0
  160.5250  203.9000  150.4260 C   0  0  1  0  0  3  0  0  0  0  0  0
  161.1040  204.2460  148.1340 C   0  0  2  0  0  3  0  0  0  0  0  0
  160.4920  204.7940  149.3150 O   0  0  0  0  0  0  0  0  0  0  0  0
  160.4430  202.4710  149.9950 C   0  0  0  0  0  0  0  0  0  0  0  0
  161.2280  202.1080  148.7800 C   0  0  0  0  0  2  0  0  0  0  0  0
  159.6310  201.7190  150.4960 O   0  0  0  0  0  0  0  0  0  0  0  0
  162.0160  203.2100  148.3970 O   0  0  0  0  0  0  0  0  0  0  0  0
  161.8510  205.6240  147.2160 P   0  0  2  0  0  0  0  0  0  0  0  0
  163.0830  206.2870  148.1610 O   0  0  0  0  0  1  0  0  0  0  0  0
  160.8230  206.7090  146.9440 O   0  0  0  0  0  0  0  0  0  0  0  0
  162.6130  205.0380  145.8040 O   0  0  0  0  0  0  0  0  0  0  0  0
  160.5130  203.5410  144.8270 O   0  0  0  0  0  0  0  0  0  0  0  0
  161.3510  204.7960  144.7060 P   0  0  0  0  0  0  0  0  0  0  0  0
  161.1160  205.7140  143.5170 O   0  0  0  0  0  0  0  0  0  0  0  0
  1 13  1  6  0  0  0
  1 32  1  0  0  0  0
  2  3  2  0  0  0  0
  3  1  1  0  0  0  0
  4  2  1  0  0  0  0
  5  4  2  0  0  0  0
  6  4  1  0  0  0  0
  7 12  1  1  0  0  0
  7  6  1  0  0  0  0
  8  7  1  6  0  0  0
  9 10  1  0  0  0  0
  9  8  1  0  0  0  0
 10  8  1  0  0  0  0
 11 12  1  0  0  0  0
 13 14  1  0  0  0  0
 14 15  2  0  0  0  0
 14 16  1  0  0  0  0
 16 17  1  0  0  0  0
 17 19  1  0  0  0  0
 18 24  2  0  0  0  0
 19 20  2  0  0  0  0
 20 22  1  0  0  0  0
 21 18  1  0  0  0  0
 21 19  1  0  0  0  0
 23 22  2  0  0  0  0
 23 26  1  0  0  0  0
 24 23  1  0  0  0  0
 25 29  1  0  0  0  0
 25 27  2  0  0  0  0
 26 30  2  0  0  0  0
 26 31  1  0  0  0  0
 28 29  2  0  0  0  0
 30 28  1  0  0  0  0
 31 25  1  0  0  0  0
 33 35  1  0  0  0  0
 33 37  1  0  0  0  0
 35 32  1  6  0  0  0
 35 40  1  0  0  0  0
 36 34  1  0  0  0  0
 36 39  1  0  0  0  0
 37 36  1  0  0  0  0
 38 39  2  0  0  0  0
 39 41  1  0  0  0  0
 40 34  1  0  0  0  0
 41 42  1  0  0  0  0
 42 43  1  0  0  0  0
 45 44  1  6  0  0  0
 45 43  1  0  0  0  0
 46 47  1  1  0  0  0
 46 45  1  0  0  0  0
 48 46  1  6  0  0  0
 49 55  1  1  0  0  0
 49 54  1  0  0  0  0
 49 50  1  0  0  0  0
 50 48  1  0  0  0  0
 51 48  1  0  0  0  0
 51 53  2  0  0  0  0
 52 51  1  0  0  0  0
 54 52  1  0  0  0  0
 55 57  2  6  0  0  0
 55 56  1  0  0  0  0
 58 55  1  0  0  0  0
 60 59  2  0  0  0  0
 60 58  1  0  0  0  0
 61 60  2  0  0  0  0
M  END
>  <MODEL>
3

>  <REMARK>
 VINA RESULT:      -4.3      2.994      8.743
  Name = 
  22 active torsions:
  status: ('A' for Active; 'I' for Inactive)
    1  A    between atoms: C_1  and  C_6
    2  A    between atoms: C_1  and  N_32
    3  A    between atoms: C_3  and  C_12
    4  A    between atoms: P_5  and  C_11
    5  A    between atoms: P_5  and  O_36
    6  A    between atoms: C_8  and  C_23
    7  A    between atoms: C_8  and  C_42
    8  A    between atoms: C_10  and  C_47
    9  A    between atoms: C_12  and  C_42
   10  A    between atoms: C_14  and  C_19
   11  A    between atoms: C_16  and  C_45
   12  A    between atoms: C_17  and  C_18
   13  A    between atoms: C_17  and  C_53
   14  A    between atoms: C_18  and  C_55
   15  A    between atoms: C_19  and  C_38
   16  A    between atoms: C_19  and  O_52
   17  A    between atoms: N_22  and  C_33
   18  A    between atoms: C_33  and  O_52
   19  A    between atoms: O_36  and  P_40
   20  A    between atoms: N_37  and  C_42
   21  A    between atoms: C_47  and  C_61
   22  A    between atoms: C_53  and  C_61
                            x       y       z     vdW  Elec       q    Type
                         _______ _______ _______ _____ _____    ______ ____

>  <TORSDO>
F 22

$$$$
