=
 OpenBabel11052411103D

 44 49  0  0  1  0  0  0  0  0999 V2000
  161.5400  207.4150  151.7890 C   0  0  1  0  0  3  0  0  0  0  0  0
  160.9370  207.0610  153.0910 N   0  0  0  0  0  0  0  0  0  0  0  0
  161.3070  204.9420  151.2450 C   0  0  0  0  0  0  0  0  0  0  0  0
  161.3290  203.8950  150.3110 C   0  0  0  0  0  0  0  0  0  0  0  0
  161.8540  205.4880  148.6140 N   0  0  0  0  0  0  0  0  0  0  0  0
  161.6750  203.5070  145.5080 C   0  0  0  0  0  3  0  0  0  0  0  0
  159.9830  201.6700  148.8010 N   0  0  0  0  0  0  0  0  0  0  0  0
  161.1040  202.5480  150.7640 N   0  0  0  0  0  0  0  0  0  0  0  0
  161.6430  204.1930  148.9750 C   0  0  0  0  0  0  0  0  0  0  0  0
  161.4830  205.7940  153.5750 C   0  0  0  0  0  2  0  0  0  0  0  0
  160.4820  202.3580  147.8190 C   0  0  0  0  0  0  0  0  0  0  0  0
  160.5220  201.5690  150.1290 C   0  0  0  0  0  3  0  0  0  0  0  0
  160.9900  204.6620  152.6880 C   0  0  0  0  0  2  0  0  0  0  0  0
  160.3200  202.9350  145.4540 C   0  0  0  0  0  0  0  0  0  0  0  0
  159.7690  202.3760  146.5320 C   0  0  0  0  0  3  0  0  0  0  0  0
  161.5040  206.2630  150.8050 C   0  0  2  0  0  3  0  0  0  0  0  0
  159.5770  202.9390  144.1690 C   0  0  0  0  0  1  0  0  0  0  0  0
  161.7890  203.0910  147.9690 C   0  0  0  0  0  0  0  0  0  0  0  0
  161.7880  206.4850  149.4960 N   0  0  0  0  0  0  0  0  0  0  0  0
  162.3610  203.5670  146.6530 C   0  0  0  0  0  3  0  0  0  0  0  0
  161.2170  208.0990  154.0950 C   0  0  0  0  0  2  0  0  0  0  0  0
  160.6560  207.7680  155.4770 C   0  0  0  0  0  2  0  0  0  0  0  0
  161.4460  208.5130  156.5310 C   0  0  0  0  0  2  0  0  0  0  0  0
  160.4570  209.8900  157.1820 S   0  0  0  0  0  0  0  0  0  0  0  0
  161.4170  211.1430  156.2800 C   0  0  0  0  0  2  0  0  0  0  0  0
  158.1790  213.2780  151.6960 C   0  0  0  0  0  3  0  0  0  0  0  0
  157.6440  213.6470  154.1130 C   0  0  0  0  0  2  0  0  0  0  0  0
  158.9650  213.0700  154.3340 N   0  0  0  0  0  0  0  0  0  0  0  0
  159.3410  212.4360  152.0580 C   0  0  0  0  0  3  0  0  0  0  0  0
  160.5590  211.8100  155.2650 C   0  0  0  0  0  0  0  0  0  0  0  0
  160.6900  211.6080  153.8900 O   0  0  0  0  0  0  0  0  0  0  0  0
  157.4090  213.8570  152.6330 C   0  0  0  0  0  3  0  0  0  0  0  0
  159.5490  212.6360  155.5550 C   0  0  0  0  0  3  0  0  0  0  0  0
  159.6770  212.3670  153.3390 C   0  0  0  0  0  0  0  0  0  0  0  0
  160.8450  208.6410  151.2080 C   0  0  0  0  0  2  0  0  0  0  0  0
  162.0500  209.9850  151.0080 S   0  0  0  0  0  0  0  0  0  0  0  0
  161.9760  209.9170  149.1920 C   0  0  0  0  0  2  0  0  0  0  0  0
  161.4390  211.1580  148.6510 N   0  0  0  0  0  2  0  0  0  0  0  0
  162.2580  212.1730  148.0650 C   0  0  0  0  0  0  0  0  0  0  0  0
  163.5110  212.0450  148.0260 O   0  0  0  0  0  0  0  0  0  0  0  0
  161.6200  213.3830  147.4780 C   0  0  0  0  0  2  0  0  0  0  0  0
  159.1620  213.3590  147.8810 O   0  0  0  0  0  0  0  0  0  0  0  0
  160.5640  214.4500  149.3300 O   0  0  0  0  0  1  0  0  0  0  0  0
  160.4260  213.7750  148.2760 C   0  0  0  0  0  0  0  0  0  0  0  0
  1 35  1  6  0  0  0
  1  2  1  0  0  0  0
  2 10  1  0  0  0  0
  2 21  1  0  0  0  0
  3 13  1  0  0  0  0
  4  8  1  0  0  0  0
  4  3  2  0  0  0  0
  5  9  1  0  0  0  0
  5 19  2  0  0  0  0
  6 20  2  0  0  0  0
  7 12  1  0  0  0  0
  9  4  1  0  0  0  0
 11 18  1  0  0  0  0
 11  7  2  0  0  0  0
 12  8  2  0  0  0  0
 13 10  1  0  0  0  0
 14  6  1  0  0  0  0
 14 15  2  0  0  0  0
 15 11  1  0  0  0  0
 16 19  1  1  0  0  0
 16  3  1  0  0  0  0
 16  1  1  0  0  0  0
 17 14  1  0  0  0  0
 18  9  2  0  0  0  0
 20 18  1  0  0  0  0
 21 22  1  0  0  0  0
 22 23  1  0  0  0  0
 23 24  1  0  0  0  0
 25 24  1  0  0  0  0
 26 29  1  0  0  0  0
 26 32  2  0  0  0  0
 27 28  1  0  0  0  0
 28 33  1  0  0  0  0
 29 34  2  0  0  0  0
 30 33  2  0  0  0  0
 30 25  1  0  0  0  0
 31 30  1  0  0  0  0
 32 27  1  0  0  0  0
 34 31  1  0  0  0  0
 34 28  1  0  0  0  0
 36 35  1  0  0  0  0
 37 36  1  0  0  0  0
 38 37  1  0  0  0  0
 39 38  1  0  0  0  0
 40 39  2  0  0  0  0
 41 39  1  0  0  0  0
 41 44  1  0  0  0  0
 42 44  2  0  0  0  0
 44 43  1  0  0  0  0
M  END
>  <MODEL>
1

>  <REMARK>
 VINA RESULT:      -6.5      0.000      0.000
  Name = 
  12 active torsions:
  status: ('A' for Active; 'I' for Inactive)
    1  A    between atoms: C_1  and  C_25
    2  A    between atoms: C_1  and  C_34
    3  A    between atoms: S_2  and  C_34
    4  A    between atoms: S_2  and  C_41
    5  A    between atoms: C_3  and  S_8
    6  A    between atoms: C_3  and  N_27
    7  A    between atoms: C_4  and  C_36
    8  A    between atoms: N_5  and  C_25
    9  A    between atoms: S_8  and  C_36
   10  A    between atoms: C_12  and  C_22
   11  A    between atoms: C_12  and  C_31
   12  A    between atoms: C_35  and  C_41
                            x       y       z     vdW  Elec       q    Type
                         _______ _______ _______ _____ _____    ______ ____

>  <TORSDO>
F 12

$$$$
=
 OpenBabel11052411103D

 44 49  0  0  1  0  0  0  0  0999 V2000
  161.4380  208.9070  152.5470 C   0  0  1  0  0  3  0  0  0  0  0  0
  161.7140  208.7920  151.1010 N   0  0  0  0  0  0  0  0  0  0  0  0
  160.6070  211.2450  151.9920 C   0  0  0  0  0  0  0  0  0  0  0  0
  159.9200  212.4110  152.3620 C   0  0  0  0  0  0  0  0  0  0  0  0
  159.5020  211.4260  154.4950 N   0  0  0  0  0  0  0  0  0  0  0  0
  157.2150  213.8310  156.1060 C   0  0  0  0  0  3  0  0  0  0  0  0
  157.6610  214.3680  152.0320 N   0  0  0  0  0  0  0  0  0  0  0  0
  159.8460  213.5050  151.4320 N   0  0  0  0  0  0  0  0  0  0  0  0
  159.3900  212.4950  153.6610 C   0  0  0  0  0  0  0  0  0  0  0  0
  162.2730  210.0430  150.5900 C   0  0  0  0  0  2  0  0  0  0  0  0
  157.5420  214.0760  153.2910 C   0  0  0  0  0  0  0  0  0  0  0  0
  158.8790  214.3640  151.2700 C   0  0  0  0  0  3  0  0  0  0  0  0
  161.2010  211.1210  150.6170 C   0  0  0  0  0  2  0  0  0  0  0  0
  156.0490  213.9580  155.2170 C   0  0  0  0  0  0  0  0  0  0  0  0
  156.2020  214.0950  153.8990 C   0  0  0  0  0  3  0  0  0  0  0  0
  160.6630  210.1630  152.8890 C   0  0  2  0  0  3  0  0  0  0  0  0
  154.6840  213.9800  155.8030 C   0  0  0  0  0  1  0  0  0  0  0  0
  158.7500  213.7650  154.1350 C   0  0  0  0  0  0  0  0  0  0  0  0
  160.1160  210.3030  154.1240 N   0  0  0  0  0  0  0  0  0  0  0  0
  158.4570  213.7590  155.6180 C   0  0  0  0  0  3  0  0  0  0  0  0
  162.6780  207.7130  150.8360 C   0  0  0  0  0  2  0  0  0  0  0  0
  162.1220  206.6180  149.9280 C   0  0  0  0  0  2  0  0  0  0  0  0
  160.8580  207.1150  149.2580 C   0  0  0  0  0  2  0  0  0  0  0  0
  161.2480  207.7470  147.6010 S   0  0  0  0  0  0  0  0  0  0  0  0
  162.5390  206.4990  147.3140 C   0  0  0  0  0  2  0  0  0  0  0  0
  160.2250  201.3030  145.3880 C   0  0  0  0  0  3  0  0  0  0  0  0
  159.7520  203.5400  144.3680 C   0  0  0  0  0  2  0  0  0  0  0  0
  160.8340  203.9920  145.2360 N   0  0  0  0  0  0  0  0  0  0  0  0
  161.0710  201.9300  146.4280 C   0  0  0  0  0  3  0  0  0  0  0  0
  161.9490  205.2970  146.6660 C   0  0  0  0  0  0  0  0  0  0  0  0
  162.0550  204.0080  147.1900 O   0  0  0  0  0  0  0  0  0  0  0  0
  159.6360  202.0320  144.4250 C   0  0  0  0  0  3  0  0  0  0  0  0
  161.2250  205.3230  145.5430 C   0  0  0  0  0  3  0  0  0  0  0  0
  161.3330  203.2260  146.3110 C   0  0  0  0  0  0  0  0  0  0  0  0
  160.6970  207.6670  153.0370 C   0  0  0  0  0  2  0  0  0  0  0  0
  161.8500  206.5840  153.9300 S   0  0  0  0  0  0  0  0  0  0  0  0
  160.8960  205.0840  153.5450 C   0  0  0  0  0  2  0  0  0  0  0  0
  160.9710  204.7780  152.1220 N   0  0  0  0  0  2  0  0  0  0  0  0
  160.8740  203.4490  151.6040 C   0  0  0  0  0  0  0  0  0  0  0  0
  160.7550  202.4630  152.3790 O   0  0  0  0  0  0  0  0  0  0  0  0
  160.8960  203.2320  150.1310 C   0  0  0  0  0  2  0  0  0  0  0  0
  159.2940  201.4480  149.4550 O   0  0  0  0  0  0  0  0  0  0  0  0
  161.4980  200.9440  149.8350 O   0  0  0  0  0  1  0  0  0  0  0  0
  160.5850  201.8110  149.8150 C   0  0  0  0  0  0  0  0  0  0  0  0
  1 16  1  0  0  0  0
  1 35  1  6  0  0  0
  2  1  1  0  0  0  0
  3  4  2  0  0  0  0
  4  9  1  0  0  0  0
  7 11  2  0  0  0  0
  8  4  1  0  0  0  0
  9 18  2  0  0  0  0
  9  5  1  0  0  0  0
 10 13  1  0  0  0  0
 10  2  1  0  0  0  0
 11 15  1  0  0  0  0
 11 18  1  0  0  0  0
 12  8  2  0  0  0  0
 12  7  1  0  0  0  0
 13  3  1  0  0  0  0
 14 17  1  0  0  0  0
 14  6  1  0  0  0  0
 15 14  2  0  0  0  0
 16  3  1  1  0  0  0
 16 19  1  0  0  0  0
 18 20  1  0  0  0  0
 19  5  2  0  0  0  0
 20  6  2  0  0  0  0
 21  2  1  0  0  0  0
 22 21  1  0  0  0  0
 23 22  1  0  0  0  0
 24 23  1  0  0  0  0
 25 24  1  0  0  0  0
 26 29  1  0  0  0  0
 27 32  1  0  0  0  0
 27 28  1  0  0  0  0
 28 33  1  0  0  0  0
 28 34  1  0  0  0  0
 30 31  1  0  0  0  0
 30 25  1  0  0  0  0
 32 26  2  0  0  0  0
 33 30  2  0  0  0  0
 34 29  2  0  0  0  0
 34 31  1  0  0  0  0
 35 36  1  0  0  0  0
 37 36  1  0  0  0  0
 38 37  1  0  0  0  0
 39 38  1  0  0  0  0
 39 40  2  0  0  0  0
 41 39  1  0  0  0  0
 42 44  2  0  0  0  0
 44 43  1  0  0  0  0
 44 41  1  0  0  0  0
M  END
>  <MODEL>
2

>  <REMARK>
 VINA RESULT:      -5.7      3.645     10.706
  Name = 
  12 active torsions:
  status: ('A' for Active; 'I' for Inactive)
    1  A    between atoms: C_1  and  C_25
    2  A    between atoms: C_1  and  C_34
    3  A    between atoms: S_2  and  C_34
    4  A    between atoms: S_2  and  C_41
    5  A    between atoms: C_3  and  S_8
    6  A    between atoms: C_3  and  N_27
    7  A    between atoms: C_4  and  C_36
    8  A    between atoms: N_5  and  C_25
    9  A    between atoms: S_8  and  C_36
   10  A    between atoms: C_12  and  C_22
   11  A    between atoms: C_12  and  C_31
   12  A    between atoms: C_35  and  C_41
                            x       y       z     vdW  Elec       q    Type
                         _______ _______ _______ _____ _____    ______ ____

>  <TORSDO>
F 12

$$$$
=
 OpenBabel11052411103D

 44 49  0  0  1  0  0  0  0  0999 V2000
  161.6560  210.1980  150.6440 C   0  0  1  0  0  3  0  0  0  0  0  0
  160.9290  210.1710  151.9300 N   0  0  0  0  0  0  0  0  0  0  0  0
  161.5620  207.6600  150.7770 C   0  0  0  0  0  0  0  0  0  0  0  0
  161.7170  206.4040  150.1710 C   0  0  0  0  0  0  0  0  0  0  0  0
  162.3680  207.5120  148.1600 N   0  0  0  0  0  0  0  0  0  0  0  0
  162.5860  204.7630  145.7100 C   0  0  0  0  0  3  0  0  0  0  0  0
  160.6120  203.7790  149.2060 N   0  0  0  0  0  0  0  0  0  0  0  0
  161.4890  205.2170  150.9510 N   0  0  0  0  0  0  0  0  0  0  0  0
  162.1620  206.3510  148.8390 C   0  0  0  0  0  0  0  0  0  0  0  0
  161.4610  209.1150  152.7910 C   0  0  0  0  0  2  0  0  0  0  0  0
  161.1910  204.2060  148.1250 C   0  0  0  0  0  0  0  0  0  0  0  0
  161.0100  204.0700  150.5560 C   0  0  0  0  0  3  0  0  0  0  0  0
  161.1020  207.7600  152.2050 C   0  0  0  0  0  2  0  0  0  0  0  0
  161.2640  204.1170  145.6890 C   0  0  0  0  0  0  0  0  0  0  0  0
  160.6190  203.8350  146.8210 C   0  0  0  0  0  2  0  0  0  0  0  0
  161.7620  208.8230  150.0140 C   0  0  0  0  0  0  0  0  0  0  0  0
  160.6610  203.7310  144.3870 C   0  0  0  0  0  1  0  0  0  0  0  0
  162.4500  205.0300  148.1910 C   0  0  0  0  0  0  0  0  0  0  0  0
  162.1770  208.7030  148.7260 N   0  0  0  0  0  0  0  0  0  0  0  0
  163.1440  205.1680  146.8550 C   0  0  0  0  0  3  0  0  0  0  0  0
  161.0670  211.4550  152.6340 C   0  0  0  0  0  2  0  0  0  0  0  0
  159.9480  212.4430  152.3100 C   0  0  0  0  0  2  0  0  0  0  0  0
  158.6530  211.9540  152.9220 C   0  0  0  0  0  2  0  0  0  0  0  0
  157.8740  213.2940  153.8670 S   0  0  0  0  0  0  0  0  0  0  0  0
  157.3850  212.1920  155.2280 C   0  0  0  0  0  2  0  0  0  0  0  0
  161.8880  208.5490  156.8150 C   0  0  0  0  0  3  0  0  0  0  0  0
  162.0330  211.0470  156.7410 C   0  0  0  0  0  2  0  0  0  0  0  0
  160.5880  210.9710  156.5560 N   0  0  0  0  0  0  0  0  0  0  0  0
  160.4950  208.5920  156.3150 C   0  0  0  0  0  3  0  0  0  0  0  0
  158.5680  211.4370  155.7220 C   0  0  0  0  0  0  0  0  0  0  0  0
  158.6510  210.0440  155.7210 O   0  0  0  0  0  0  0  0  0  0  0  0
  162.5930  209.6720  157.0360 C   0  0  0  0  0  3  0  0  0  0  0  0
  159.6880  212.0050  156.1800 C   0  0  0  0  0  3  0  0  0  0  0  0
  159.9160  209.7810  156.2070 C   0  0  0  0  0  0  0  0  0  0  0  0
  160.9870  211.1780  149.6870 C   0  0  0  0  0  2  0  0  0  0  0  0
  162.2580  212.0600  148.7340 S   0  0  0  0  0  0  0  0  0  0  0  0
  161.1020  213.3590  148.2040 C   0  0  0  0  0  2  0  0  0  0  0  0
  161.3970  213.7880  146.8430 N   0  0  0  0  0  2  0  0  0  0  0  0
  160.8170  213.1750  145.6890 C   0  0  0  0  0  0  0  0  0  0  0  0
  160.0370  212.1930  145.8050 O   0  0  0  0  0  0  0  0  0  0  0  0
  161.1250  213.7180  144.3370 C   0  0  0  0  0  2  0  0  0  0  0  0
  163.5480  213.1500  144.2280 O   0  0  0  0  0  1  0  0  0  0  0  0
  162.0590  212.1610  142.7920 O   0  0  0  0  0  0  0  0  0  0  0  0
  162.2630  212.9750  143.7300 C   0  0  0  0  0  0  0  0  0  0  0  0
  1 35  1  6  0  0  0
  1  2  1  0  0  0  0
  2 21  1  0  0  0  0
  2 10  1  0  0  0  0
  3 13  1  0  0  0  0
  4  3  1  0  0  0  0
  4  8  1  0  0  0  0
  5 19  2  0  0  0  0
  5  9  1  0  0  0  0
  6 20  1  0  0  0  0
  7 12  1  0  0  0  0
  9  4  2  0  0  0  0
 11 18  1  0  0  0  0
 11  7  2  0  0  0  0
 12  8  2  0  0  0  0
 13 10  1  0  0  0  0
 14  6  2  0  0  0  0
 14 15  1  0  0  0  0
 15 11  1  0  0  0  0
 16  1  1  0  0  0  0
 16  3  2  0  0  0  0
 17 14  1  0  0  0  0
 18  9  1  0  0  0  0
 19 16  1  0  0  0  0
 20 18  2  0  0  0  0
 22 21  1  0  0  0  0
 22 23  1  0  0  0  0
 23 24  1  0  0  0  0
 24 25  1  0  0  0  0
 25 30  1  0  0  0  0
 26 32  2  0  0  0  0
 27 32  1  0  0  0  0
 28 27  1  0  0  0  0
 29 26  1  0  0  0  0
 30 33  2  0  0  0  0
 31 30  1  0  0  0  0
 31 34  1  0  0  0  0
 33 28  1  0  0  0  0
 34 29  2  0  0  0  0
 34 28  1  0  0  0  0
 36 35  1  0  0  0  0
 37 36  1  0  0  0  0
 38 37  1  0  0  0  0
 39 40  2  0  0  0  0
 39 38  1  0  0  0  0
 41 39  1  0  0  0  0
 43 44  2  0  0  0  0
 44 42  1  0  0  0  0
 44 41  1  0  0  0  0
M  END
>  <MODEL>
3

>  <REMARK>
 VINA RESULT:      -5.5      2.288      3.888
  Name = 
  12 active torsions:
  status: ('A' for Active; 'I' for Inactive)
    1  A    between atoms: C_1  and  C_25
    2  A    between atoms: C_1  and  C_34
    3  A    between atoms: S_2  and  C_34
    4  A    between atoms: S_2  and  C_41
    5  A    between atoms: C_3  and  S_8
    6  A    between atoms: C_3  and  N_27
    7  A    between atoms: C_4  and  C_36
    8  A    between atoms: N_5  and  C_25
    9  A    between atoms: S_8  and  C_36
   10  A    between atoms: C_12  and  C_22
   11  A    between atoms: C_12  and  C_31
   12  A    between atoms: C_35  and  C_41
                            x       y       z     vdW  Elec       q    Type
                         _______ _______ _______ _____ _____    ______ ____

>  <TORSDO>
F 12

$$$$
=
 OpenBabel11052411103D

 44 49  0  0  1  0  0  0  0  0999 V2000
  161.4690  208.5540  149.2340 C   0  0  1  0  0  3  0  0  0  0  0  0
  162.0290  207.2080  148.9930 N   0  0  0  0  0  0  0  0  0  0  0  0
  161.1360  207.7580  151.6270 C   0  0  0  0  0  0  0  0  0  0  0  0
  160.8510  208.0370  152.9720 C   0  0  0  0  0  0  0  0  0  0  0  0
  160.6220  210.3410  152.3940 N   0  0  0  0  0  0  0  0  0  0  0  0
  160.2460  212.0020  155.6650 C   0  0  0  0  0  3  0  0  0  0  0  0
  161.6210  208.1110  155.8780 N   0  0  0  0  0  0  0  0  0  0  0  0
  160.7940  206.9520  153.9150 N   0  0  0  0  0  0  0  0  0  0  0  0
  160.5590  209.3620  153.3370 C   0  0  0  0  0  0  0  0  0  0  0  0
  161.2390  206.1970  149.6940 C   0  0  0  0  0  2  0  0  0  0  0  0
  161.2470  209.3410  155.6980 C   0  0  0  0  0  0  0  0  0  0  0  0
  161.1230  206.9590  155.1760 C   0  0  0  0  0  3  0  0  0  0  0  0
  161.4390  206.3510  151.1930 C   0  0  0  0  0  2  0  0  0  0  0  0
  161.4400  211.6530  156.4510 C   0  0  0  0  0  0  0  0  0  0  0  0
  161.8970  210.4010  156.4850 C   0  0  0  0  0  3  0  0  0  0  0  0
  161.2150  208.8170  150.7050 C   0  0  0  0  0  0  0  0  0  0  0  0
  162.1180  212.7020  157.2540 C   0  0  0  0  0  1  0  0  0  0  0  0
  160.1380  209.6840  154.7390 C   0  0  1  0  0  3  0  0  0  0  0  0
  160.9370  210.0780  151.1260 N   0  0  0  0  0  0  0  0  0  0  0  0
  159.6340  211.1010  154.8920 C   0  0  0  0  0  3  0  0  0  0  0  0
  162.0210  206.8890  147.5580 C   0  0  0  0  0  2  0  0  0  0  0  0
  160.6240  206.9210  146.9410 C   0  0  0  0  0  2  0  0  0  0  0  0
  160.6270  206.1300  145.6500 C   0  0  0  0  0  2  0  0  0  0  0  0
  162.3270  205.6540  145.2240 S   0  0  0  0  0  0  0  0  0  0  0  0
  161.8840  203.9110  144.9590 C   0  0  0  0  0  2  0  0  0  0  0  0
  160.7760  201.9730  150.5350 C   0  0  0  0  0  3  0  0  0  0  0  0
  159.7710  200.9970  148.4600 C   0  0  0  0  0  2  0  0  0  0  0  0
  160.7440  201.8430  147.7770 N   0  0  0  0  0  0  0  0  0  0  0  0
  161.4840  202.9990  149.7370 C   0  0  0  0  0  3  0  0  0  0  0  0
  161.5690  203.2620  146.2610 C   0  0  0  0  0  0  0  0  0  0  0  0
  161.9840  203.7640  147.4940 O   0  0  0  0  0  0  0  0  0  0  0  0
  160.0070  201.0360  149.9540 C   0  0  0  0  0  3  0  0  0  0  0  0
  160.8260  202.1590  146.3940 C   0  0  0  0  0  3  0  0  0  0  0  0
  161.4370  202.8940  148.4150 C   0  0  0  0  0  0  0  0  0  0  0  0
  162.3920  209.6160  148.6490 C   0  0  0  0  0  2  0  0  0  0  0  0
  161.4610  211.1560  148.3920 S   0  0  0  0  0  0  0  0  0  0  0  0
  162.9700  212.1520  148.1950 C   0  0  0  0  0  2  0  0  0  0  0  0
  163.1050  212.6150  146.8210 N   0  0  0  0  0  2  0  0  0  0  0  0
  162.1290  213.4370  146.1750 C   0  0  0  0  0  0  0  0  0  0  0  0
  161.0710  213.7690  146.7710 O   0  0  0  0  0  0  0  0  0  0  0  0
  162.3780  213.9190  144.7880 C   0  0  0  0  0  2  0  0  0  0  0  0
  160.6570  212.3650  143.8760 O   0  0  0  0  0  1  0  0  0  0  0  0
  162.7110  212.5400  142.8720 O   0  0  0  0  0  0  0  0  0  0  0  0
  161.9380  212.8960  143.8000 C   0  0  0  0  0  0  0  0  0  0  0  0
  1 35  1  1  0  0  0
  1 16  1  0  0  0  0
  2  1  1  0  0  0  0
  2 10  1  0  0  0  0
  3  4  1  0  0  0  0
  4  9  2  0  0  0  0
  4  8  1  0  0  0  0
  5  9  1  0  0  0  0
  6 14  1  0  0  0  0
  8 12  2  0  0  0  0
  9 18  1  0  0  0  0
 10 13  1  0  0  0  0
 11  7  2  0  0  0  0
 11 15  1  0  0  0  0
 12  7  1  0  0  0  0
 13  3  1  0  0  0  0
 14 15  2  0  0  0  0
 14 17  1  0  0  0  0
 16 19  1  0  0  0  0
 16  3  2  0  0  0  0
 18 20  1  6  0  0  0
 18 11  1  0  0  0  0
 19  5  2  0  0  0  0
 20  6  2  0  0  0  0
 21  2  1  0  0  0  0
 22 21  1  0  0  0  0
 23 22  1  0  0  0  0
 24 23  1  0  0  0  0
 25 24  1  0  0  0  0
 25 30  1  0  0  0  0
 27 32  1  0  0  0  0
 28 34  1  0  0  0  0
 28 27  1  0  0  0  0
 29 26  1  0  0  0  0
 30 33  2  0  0  0  0
 30 31  1  0  0  0  0
 31 34  1  0  0  0  0
 32 26  2  0  0  0  0
 33 28  1  0  0  0  0
 34 29  2  0  0  0  0
 36 35  1  0  0  0  0
 37 36  1  0  0  0  0
 38 37  1  0  0  0  0
 39 40  2  0  0  0  0
 39 38  1  0  0  0  0
 41 39  1  0  0  0  0
 43 44  2  0  0  0  0
 44 42  1  0  0  0  0
 44 41  1  0  0  0  0
M  END
>  <MODEL>
4

>  <REMARK>
 VINA RESULT:      -5.4      2.648      9.059
  Name = 
  12 active torsions:
  status: ('A' for Active; 'I' for Inactive)
    1  A    between atoms: C_1  and  C_25
    2  A    between atoms: C_1  and  C_34
    3  A    between atoms: S_2  and  C_34
    4  A    between atoms: S_2  and  C_41
    5  A    between atoms: C_3  and  S_8
    6  A    between atoms: C_3  and  N_27
    7  A    between atoms: C_4  and  C_36
    8  A    between atoms: N_5  and  C_25
    9  A    between atoms: S_8  and  C_36
   10  A    between atoms: C_12  and  C_22
   11  A    between atoms: C_12  and  C_31
   12  A    between atoms: C_35  and  C_41
                            x       y       z     vdW  Elec       q    Type
                         _______ _______ _______ _____ _____    ______ ____

>  <TORSDO>
F 12

$$$$
=
 OpenBabel11052411103D

 44 49  0  0  1  0  0  0  0  0999 V2000
  161.3820  208.0430  150.8200 C   0  0  1  0  0  3  0  0  0  0  0  0
  162.0250  206.7360  151.0620 N   0  0  0  0  0  0  0  0  0  0  0  0
  160.7750  207.9670  153.2880 C   0  0  0  0  0  0  0  0  0  0  0  0
  160.3060  208.6060  154.4450 C   0  0  0  0  0  0  0  0  0  0  0  0
  160.0570  210.6110  153.1750 N   0  0  0  0  0  0  0  0  0  0  0  0
  159.1890  213.1290  155.7260 C   0  0  0  0  0  3  0  0  0  0  0  0
  160.6880  209.5960  157.2590 N   0  0  0  0  0  0  0  0  0  0  0  0
  160.1730  207.8470  155.6600 N   0  0  0  0  0  0  0  0  0  0  0  0
  159.9130  209.9520  154.3570 C   0  0  0  0  0  0  0  0  0  0  0  0
  161.1940  205.9170  151.9430 C   0  0  0  0  0  2  0  0  0  0  0  0
  160.2880  210.6840  156.6750 C   0  0  0  0  0  0  0  0  0  0  0  0
  160.3340  208.2530  156.8880 C   0  0  0  0  0  3  0  0  0  0  0  0
  161.1910  206.5230  153.3370 C   0  0  0  0  0  2  0  0  0  0  0  0
  160.2850  213.1240  156.7080 C   0  0  0  0  0  0  0  0  0  0  0  0
  160.7850  211.9780  157.1700 C   0  0  0  0  0  3  0  0  0  0  0  0
  160.9280  208.7090  152.1040 C   0  0  0  0  0  0  0  0  0  0  0  0
  160.8070  214.4140  157.2260 C   0  0  0  0  0  1  0  0  0  0  0  0
  159.3000  210.6400  155.5390 C   0  0  1  0  0  3  0  0  0  0  0  0
  160.5440  210.0120  152.0890 N   0  0  0  0  0  0  0  0  0  0  0  0
  158.7210  211.9950  155.1990 C   0  0  0  0  0  3  0  0  0  0  0  0
  162.2170  206.0070  149.7990 C   0  0  0  0  0  2  0  0  0  0  0  0
  160.9560  205.2920  149.3180 C   0  0  0  0  0  2  0  0  0  0  0  0
  160.4960  205.9080  148.0130 C   0  0  0  0  0  2  0  0  0  0  0  0
  161.9150  206.6280  147.1390 S   0  0  0  0  0  0  0  0  0  0  0  0
  161.4230  205.9160  145.5390 C   0  0  0  0  0  2  0  0  0  0  0  0
  161.1210  200.0410  146.7480 C   0  0  0  0  0  3  0  0  0  0  0  0
  159.8670  201.1850  144.9080 C   0  0  0  0  0  2  0  0  0  0  0  0
  160.7200  202.3210  145.2420 N   0  0  0  0  0  0  0  0  0  0  0  0
  161.6930  201.3330  147.1920 C   0  0  0  0  0  3  0  0  0  0  0  0
  161.3020  204.4380  145.6550 C   0  0  0  0  0  0  0  0  0  0  0  0
  161.8680  203.6950  146.6910 O   0  0  0  0  0  0  0  0  0  0  0  0
  160.3020  199.9620  145.6860 C   0  0  0  0  0  3  0  0  0  0  0  0
  160.6080  203.6700  144.8100 C   0  0  0  0  0  3  0  0  0  0  0  0
  161.4690  202.3990  146.4350 C   0  0  0  0  0  0  0  0  0  0  0  0
  162.3280  208.9560  150.0460 C   0  0  0  0  0  2  0  0  0  0  0  0
  161.5350  209.4810  148.4980 S   0  0  0  0  0  0  0  0  0  0  0  0
  162.2560  211.1480  148.5780 C   0  0  0  0  0  2  0  0  0  0  0  0
  161.3210  212.1390  148.0620 N   0  0  0  0  0  2  0  0  0  0  0  0
  160.6320  213.0720  148.8990 C   0  0  0  0  0  0  0  0  0  0  0  0
  160.7830  213.0480  150.1490 O   0  0  0  0  0  0  0  0  0  0  0  0
  159.7420  214.0930  148.2810 C   0  0  0  0  0  2  0  0  0  0  0  0
  157.5320  213.2300  147.5210 O   0  0  0  0  0  1  0  0  0  0  0  0
  159.3440  213.1800  146.1160 O   0  0  0  0  0  0  0  0  0  0  0  0
  158.8740  213.4640  147.2490 C   0  0  0  0  0  0  0  0  0  0  0  0
  1 35  1  1  0  0  0
  1  2  1  0  0  0  0
  1 16  1  0  0  0  0
  2 10  1  0  0  0  0
  3 13  1  0  0  0  0
  3  4  1  0  0  0  0
  4  8  1  0  0  0  0
  5  9  1  0  0  0  0
  6 14  1  0  0  0  0
  8 12  2  0  0  0  0
  9  4  2  0  0  0  0
  9 18  1  0  0  0  0
 10 13  1  0  0  0  0
 11 15  1  0  0  0  0
 11  7  2  0  0  0  0
 12  7  1  0  0  0  0
 14 15  2  0  0  0  0
 14 17  1  0  0  0  0
 16  3  2  0  0  0  0
 18 20  1  6  0  0  0
 18 11  1  0  0  0  0
 19 16  1  0  0  0  0
 19  5  2  0  0  0  0
 20  6  2  0  0  0  0
 21  2  1  0  0  0  0
 22 21  1  0  0  0  0
 23 22  1  0  0  0  0
 24 23  1  0  0  0  0
 25 30  1  0  0  0  0
 25 24  1  0  0  0  0
 26 29  1  0  0  0  0
 27 28  1  0  0  0  0
 27 32  1  0  0  0  0
 28 34  1  0  0  0  0
 30 31  1  0  0  0  0
 32 26  2  0  0  0  0
 33 28  1  0  0  0  0
 33 30  2  0  0  0  0
 34 31  1  0  0  0  0
 34 29  2  0  0  0  0
 36 37  1  0  0  0  0
 36 35  1  0  0  0  0
 38 37  1  0  0  0  0
 38 39  1  0  0  0  0
 39 40  2  0  0  0  0
 41 39  1  0  0  0  0
 43 44  2  0  0  0  0
 44 42  1  0  0  0  0
 44 41  1  0  0  0  0
M  END
>  <MODEL>
5

>  <REMARK>
 VINA RESULT:      -5.1      2.501      9.518
  Name = 
  12 active torsions:
  status: ('A' for Active; 'I' for Inactive)
    1  A    between atoms: C_1  and  C_25
    2  A    between atoms: C_1  and  C_34
    3  A    between atoms: S_2  and  C_34
    4  A    between atoms: S_2  and  C_41
    5  A    between atoms: C_3  and  S_8
    6  A    between atoms: C_3  and  N_27
    7  A    between atoms: C_4  and  C_36
    8  A    between atoms: N_5  and  C_25
    9  A    between atoms: S_8  and  C_36
   10  A    between atoms: C_12  and  C_22
   11  A    between atoms: C_12  and  C_31
   12  A    between atoms: C_35  and  C_41
                            x       y       z     vdW  Elec       q    Type
                         _______ _______ _______ _____ _____    ______ ____

>  <TORSDO>
F 12

$$$$
=
 OpenBabel11052411103D

 44 49  0  0  1  0  0  0  0  0999 V2000
  160.9450  206.9490  151.1750 C   0  0  1  0  0  3  0  0  0  0  0  0
  161.8250  205.8080  151.4990 N   0  0  0  0  0  0  0  0  0  0  0  0
  160.8060  207.2870  153.6920 C   0  0  0  0  0  0  0  0  0  0  0  0
  160.4520  208.0790  154.7940 C   0  0  0  0  0  0  0  0  0  0  0  0
  159.6590  209.7430  153.2790 N   0  0  0  0  0  0  0  0  0  0  0  0
  158.8590  212.5880  155.4880 C   0  0  0  0  0  3  0  0  0  0  0  0
  161.1610  209.6480  157.2600 N   0  0  0  0  0  0  0  0  0  0  0  0
  160.6620  207.5660  156.1210 N   0  0  0  0  0  0  0  0  0  0  0  0
  159.8370  209.3200  154.5600 C   0  0  0  0  0  0  0  0  0  0  0  0
  161.3090  205.0820  152.6580 C   0  0  0  0  0  2  0  0  0  0  0  0
  160.4930  210.5390  156.5930 C   0  0  0  0  0  0  0  0  0  0  0  0
  160.9710  208.2250  157.2030 C   0  0  0  0  0  3  0  0  0  0  0  0
  161.4540  205.9470  153.9000 C   0  0  0  0  0  2  0  0  0  0  0  0
  160.0980  212.9160  156.2110 C   0  0  0  0  0  0  0  0  0  0  0  0
  160.8520  211.9570  156.7490 C   0  0  0  0  0  3  0  0  0  0  0  0
  160.6240  207.7930  152.3920 C   0  0  0  0  0  0  0  0  0  0  0  0
  160.4870  214.3390  156.3840 C   0  0  0  0  0  1  0  0  0  0  0  0
  159.3390  210.1450  155.7090 C   0  0  1  0  0  3  0  0  0  0  0  0
  160.0370  209.0080  152.2350 N   0  0  0  0  0  0  0  0  0  0  0  0
  158.4960  211.3210  155.2680 C   0  0  0  0  0  3  0  0  0  0  0  0
  161.9060  204.8730  150.3660 C   0  0  0  0  0  2  0  0  0  0  0  0
  160.7080  203.9300  150.2760 C   0  0  0  0  0  2  0  0  0  0  0  0
  161.1580  202.5170  150.5820 C   0  0  0  0  0  2  0  0  0  0  0  0
  160.1260  201.3320  149.6720 S   0  0  0  0  0  0  0  0  0  0  0  0
  161.3780  201.0760  148.3780 C   0  0  0  0  0  2  0  0  0  0  0  0
  162.2540  205.8570  144.8500 C   0  0  0  0  0  3  0  0  0  0  0  0
  160.4550  204.1480  144.5160 C   0  0  0  0  0  2  0  0  0  0  0  0
  160.8680  203.6810  145.8350 N   0  0  0  0  0  0  0  0  0  0  0  0
  162.7800  205.1080  146.0140 C   0  0  0  0  0  3  0  0  0  0  0  0
  161.4090  202.2470  147.4610 C   0  0  0  0  0  0  0  0  0  0  0  0
  162.4140  203.2150  147.4790 O   0  0  0  0  0  0  0  0  0  0  0  0
  161.1720  205.4350  144.1720 C   0  0  0  0  0  3  0  0  0  0  0  0
  160.5090  202.4770  146.5010 C   0  0  0  0  0  3  0  0  0  0  0  0
  162.0780  204.0690  146.4480 C   0  0  0  0  0  0  0  0  0  0  0  0
  161.5780  207.8020  150.0810 C   0  0  0  0  0  2  0  0  0  0  0  0
  162.2560  209.3210  150.8100 S   0  0  0  0  0  0  0  0  0  0  0  0
  162.3460  210.1710  149.2050 C   0  0  0  0  0  2  0  0  0  0  0  0
  161.7900  211.5140  149.3010 N   0  0  0  0  0  2  0  0  0  0  0  0
  162.2520  212.6080  148.5050 C   0  0  0  0  0  0  0  0  0  0  0  0
  163.2050  212.4580  147.6960 O   0  0  0  0  0  0  0  0  0  0  0  0
  161.5840  213.9340  148.6220 C   0  0  0  0  0  2  0  0  0  0  0  0
  160.1100  213.9620  150.6300 O   0  0  0  0  0  1  0  0  0  0  0  0
  159.2350  213.5340  148.5540 O   0  0  0  0  0  0  0  0  0  0  0  0
  160.2480  213.7840  149.2590 C   0  0  0  0  0  0  0  0  0  0  0  0
  1 35  1  6  0  0  0
  1  2  1  0  0  0  0
  1 16  1  0  0  0  0
  2 10  1  0  0  0  0
  3 13  1  0  0  0  0
  3  4  1  0  0  0  0
  4  8  1  0  0  0  0
  5  9  1  0  0  0  0
  6 14  1  0  0  0  0
  8 12  2  0  0  0  0
  9  4  2  0  0  0  0
  9 18  1  0  0  0  0
 10 13  1  0  0  0  0
 11 15  1  0  0  0  0
 11  7  2  0  0  0  0
 12  7  1  0  0  0  0
 14 17  1  0  0  0  0
 14 15  2  0  0  0  0
 16  3  2  0  0  0  0
 18 20  1  6  0  0  0
 18 11  1  0  0  0  0
 19 16  1  0  0  0  0
 19  5  2  0  0  0  0
 20  6  2  0  0  0  0
 21  2  1  0  0  0  0
 22 21  1  0  0  0  0
 22 23  1  0  0  0  0
 24 23  1  0  0  0  0
 25 24  1  0  0  0  0
 26 29  1  0  0  0  0
 27 28  1  0  0  0  0
 28 34  1  0  0  0  0
 28 33  1  0  0  0  0
 29 34  2  0  0  0  0
 30 31  1  0  0  0  0
 30 25  1  0  0  0  0
 32 27  1  0  0  0  0
 32 26  2  0  0  0  0
 33 30  2  0  0  0  0
 34 31  1  0  0  0  0
 35 36  1  0  0  0  0
 37 38  1  0  0  0  0
 37 36  1  0  0  0  0
 39 41  1  0  0  0  0
 39 38  1  0  0  0  0
 40 39  2  0  0  0  0
 41 44  1  0  0  0  0
 43 44  2  0  0  0  0
 44 42  1  0  0  0  0
M  END
>  <MODEL>
6

>  <REMARK>
 VINA RESULT:      -5.1      2.537      8.949
  Name = 
  12 active torsions:
  status: ('A' for Active; 'I' for Inactive)
    1  A    between atoms: C_1  and  C_25
    2  A    between atoms: C_1  and  C_34
    3  A    between atoms: S_2  and  C_34
    4  A    between atoms: S_2  and  C_41
    5  A    between atoms: C_3  and  S_8
    6  A    between atoms: C_3  and  N_27
    7  A    between atoms: C_4  and  C_36
    8  A    between atoms: N_5  and  C_25
    9  A    between atoms: S_8  and  C_36
   10  A    between atoms: C_12  and  C_22
   11  A    between atoms: C_12  and  C_31
   12  A    between atoms: C_35  and  C_41
                            x       y       z     vdW  Elec       q    Type
                         _______ _______ _______ _____ _____    ______ ____

>  <TORSDO>
F 12

$$$$
=
 OpenBabel11052411103D

 44 49  0  0  1  0  0  0  0  0999 V2000
  161.6310  209.5190  149.6900 C   0  0  1  0  0  3  0  0  0  0  0  0
  162.5290  208.3480  149.6440 N   0  0  0  0  0  0  0  0  0  0  0  0
  161.2590  208.8770  152.1230 C   0  0  0  0  0  0  0  0  0  0  0  0
  160.7760  209.1900  153.4020 C   0  0  0  0  0  0  0  0  0  0  0  0
  160.0450  211.2970  152.5570 N   0  0  0  0  0  0  0  0  0  0  0  0
  158.9320  213.0860  155.5850 C   0  0  0  0  0  3  0  0  0  0  0  0
  161.1990  209.7120  156.3340 N   0  0  0  0  0  0  0  0  0  0  0  0
  160.8930  208.2130  154.4520 N   0  0  0  0  0  0  0  0  0  0  0  0
  160.1290  210.4220  153.5950 C   0  0  0  0  0  0  0  0  0  0  0  0
  161.9460  207.2320  150.3890 C   0  0  0  0  0  2  0  0  0  0  0  0
  160.5520  210.7840  155.9900 C   0  0  0  0  0  0  0  0  0  0  0  0
  161.0770  208.4150  155.7270 C   0  0  0  0  0  3  0  0  0  0  0  0
  161.9450  207.5630  151.8720 C   0  0  0  0  0  2  0  0  0  0  0  0
  160.0880  213.1250  156.4950 C   0  0  0  0  0  0  0  0  0  0  0  0
  160.8340  212.0400  156.7030 C   0  0  0  0  0  3  0  0  0  0  0  0
  161.1690  209.8370  151.0990 C   0  0  0  0  0  0  0  0  0  0  0  0
  160.3970  214.3790  157.2280 C   0  0  0  0  0  1  0  0  0  0  0  0
  159.4980  210.7460  154.9150 C   0  0  1  0  0  3  0  0  0  0  0  0
  160.5450  211.0160  151.3540 N   0  0  0  0  0  0  0  0  0  0  0  0
  158.6460  211.9940  154.8700 C   0  0  0  0  0  3  0  0  0  0  0  0
  162.7490  207.9130  148.2570 C   0  0  0  0  0  2  0  0  0  0  0  0
  161.9280  206.6830  147.8730 C   0  0  0  0  0  2  0  0  0  0  0  0
  161.8420  206.5880  146.3640 C   0  0  0  0  0  2  0  0  0  0  0  0
  162.6790  205.0800  145.7940 S   0  0  0  0  0  0  0  0  0  0  0  0
  161.2170  204.0360  146.0790 C   0  0  0  0  0  2  0  0  0  0  0  0
  160.8490  202.8420  151.9530 C   0  0  0  0  0  3  0  0  0  0  0  0
  160.7510  201.1200  150.1390 C   0  0  0  0  0  2  0  0  0  0  0  0
  161.1530  202.2270  149.2780 N   0  0  0  0  0  0  0  0  0  0  0  0
  160.9430  203.9270  150.9500 C   0  0  0  0  0  3  0  0  0  0  0  0
  161.1940  203.5670  147.4910 C   0  0  0  0  0  0  0  0  0  0  0  0
  161.1450  204.4260  148.5890 O   0  0  0  0  0  0  0  0  0  0  0  0
  160.7850  201.5500  151.5900 C   0  0  0  0  0  3  0  0  0  0  0  0
  161.1760  202.2820  147.8590 C   0  0  0  0  0  3  0  0  0  0  0  0
  161.0860  203.5790  149.6780 C   0  0  0  0  0  0  0  0  0  0  0  0
  162.3180  210.7280  149.0650 C   0  0  0  0  0  2  0  0  0  0  0  0
  161.3490  211.3080  147.6410 S   0  0  0  0  0  0  0  0  0  0  0  0
  161.6600  213.0610  148.0170 C   0  0  0  0  0  2  0  0  0  0  0  0
  160.6050  213.6010  148.8630 N   0  0  0  0  0  2  0  0  0  0  0  0
  159.3130  213.9580  148.3670 C   0  0  0  0  0  0  0  0  0  0  0  0
  159.0420  213.8520  147.1420 O   0  0  0  0  0  0  0  0  0  0  0  0
  158.2710  214.4430  149.3140 C   0  0  0  0  0  2  0  0  0  0  0  0
  156.9860  212.5840  148.2680 O   0  0  0  0  0  0  0  0  0  0  0  0
  156.0150  213.9090  149.8680 O   0  0  0  0  0  1  0  0  0  0  0  0
  157.0240  213.6460  149.1610 C   0  0  0  0  0  0  0  0  0  0  0  0
  1 35  1  1  0  0  0
  1 16  1  0  0  0  0
  2  1  1  0  0  0  0
  2 10  1  0  0  0  0
  3  4  1  0  0  0  0
  4  9  2  0  0  0  0
  4  8  1  0  0  0  0
  5  9  1  0  0  0  0
  6 14  1  0  0  0  0
  8 12  2  0  0  0  0
  9 18  1  0  0  0  0
 10 13  1  0  0  0  0
 11  7  2  0  0  0  0
 11 15  1  0  0  0  0
 12  7  1  0  0  0  0
 13  3  1  0  0  0  0
 14 15  2  0  0  0  0
 14 17  1  0  0  0  0
 16 19  1  0  0  0  0
 16  3  2  0  0  0  0
 18 20  1  6  0  0  0
 18 11  1  0  0  0  0
 19  5  2  0  0  0  0
 20  6  2  0  0  0  0
 21  2  1  0  0  0  0
 22 21  1  0  0  0  0
 23 22  1  0  0  0  0
 24 25  1  0  0  0  0
 24 23  1  0  0  0  0
 25 30  1  0  0  0  0
 27 32  1  0  0  0  0
 28 34  1  0  0  0  0
 28 27  1  0  0  0  0
 29 26  1  0  0  0  0
 30 33  2  0  0  0  0
 30 31  1  0  0  0  0
 31 34  1  0  0  0  0
 32 26  2  0  0  0  0
 33 28  1  0  0  0  0
 34 29  2  0  0  0  0
 36 37  1  0  0  0  0
 36 35  1  0  0  0  0
 37 38  1  0  0  0  0
 39 38  1  0  0  0  0
 39 41  1  0  0  0  0
 40 39  2  0  0  0  0
 42 44  2  0  0  0  0
 44 41  1  0  0  0  0
 44 43  1  0  0  0  0
M  END
>  <MODEL>
7

>  <REMARK>
 VINA RESULT:      -5.0      2.581      9.093
  Name = 
  12 active torsions:
  status: ('A' for Active; 'I' for Inactive)
    1  A    between atoms: C_1  and  C_25
    2  A    between atoms: C_1  and  C_34
    3  A    between atoms: S_2  and  C_34
    4  A    between atoms: S_2  and  C_41
    5  A    between atoms: C_3  and  S_8
    6  A    between atoms: C_3  and  N_27
    7  A    between atoms: C_4  and  C_36
    8  A    between atoms: N_5  and  C_25
    9  A    between atoms: S_8  and  C_36
   10  A    between atoms: C_12  and  C_22
   11  A    between atoms: C_12  and  C_31
   12  A    between atoms: C_35  and  C_41
                            x       y       z     vdW  Elec       q    Type
                         _______ _______ _______ _____ _____    ______ ____

>  <TORSDO>
F 12

$$$$
=
 OpenBabel11052411103D

 44 49  0  0  1  0  0  0  0  0999 V2000
  161.3390  207.9200  152.1550 C   0  0  1  0  0  3  0  0  0  0  0  0
  162.1200  209.0950  151.7170 N   0  0  0  0  0  0  0  0  0  0  0  0
  161.4440  207.2040  149.7170 C   0  0  0  0  0  0  0  0  0  0  0  0
  161.2660  206.2240  148.7290 C   0  0  0  0  0  0  0  0  0  0  0  0
  160.5270  204.7190  150.4270 N   0  0  0  0  0  0  0  0  0  0  0  0
  160.2120  201.5090  148.6360 C   0  0  0  0  0  3  0  0  0  0  0  0
  162.3340  204.4040  146.5870 N   0  0  0  0  0  0  0  0  0  0  0  0
  161.5300  206.5590  147.3550 N   0  0  0  0  0  0  0  0  0  0  0  0
  160.7650  204.9680  149.1100 C   0  0  0  0  0  0  0  0  0  0  0  0
  161.6270  209.5800  150.4280 C   0  0  0  0  0  2  0  0  0  0  0  0
  161.7090  203.5490  147.3370 C   0  0  0  0  0  0  0  0  0  0  0  0
  161.9940  205.7890  146.4110 C   0  0  0  0  0  3  0  0  0  0  0  0
  161.9640  208.5650  149.3480 C   0  0  0  0  0  2  0  0  0  0  0  0
  161.5330  201.2240  148.0550 C   0  0  0  0  0  0  0  0  0  0  0  0
  162.2260  202.1740  147.4260 C   0  0  0  0  0  3  0  0  0  0  0  0
  161.2090  206.8760  151.0640 C   0  0  2  0  0  3  0  0  0  0  0  0
  162.0810  199.8450  148.1300 C   0  0  0  0  0  1  0  0  0  0  0  0
  160.4530  203.9320  148.0730 C   0  0  0  0  0  0  0  0  0  0  0  0
  160.7400  205.6380  151.3680 N   0  0  0  0  0  0  0  0  0  0  0  0
  159.7020  202.7440  148.6330 C   0  0  0  0  0  3  0  0  0  0  0  0
  162.0100  210.1880  152.6950 C   0  0  0  0  0  2  0  0  0  0  0  0
  160.5650  210.5840  152.9970 C   0  0  0  0  0  2  0  0  0  0  0  0
  160.4620  212.0930  153.0610 C   0  0  0  0  0  2  0  0  0  0  0  0
  159.0600  212.6570  152.0530 S   0  0  0  0  0  0  0  0  0  0  0  0
  160.1080  213.6910  150.9860 C   0  0  0  0  0  2  0  0  0  0  0  0
  158.5830  212.5940  145.2820 C   0  0  0  0  0  3  0  0  0  0  0  0
  160.9350  212.6980  146.1350 C   0  0  0  0  0  2  0  0  0  0  0  0
  160.2940  212.7210  147.4460 N   0  0  0  0  0  0  0  0  0  0  0  0
  158.0580  212.9360  146.6230 C   0  0  0  0  0  3  0  0  0  0  0  0
  159.8970  213.3270  149.5590 C   0  0  0  0  0  0  0  0  0  0  0  0
  158.6480  213.3300  148.9380 O   0  0  0  0  0  0  0  0  0  0  0  0
  159.9010  212.4590  145.0550 C   0  0  0  0  0  3  0  0  0  0  0  0
  160.8770  213.0000  148.7110 C   0  0  0  0  0  3  0  0  0  0  0  0
  158.9210  212.9860  147.6290 C   0  0  0  0  0  0  0  0  0  0  0  0
  161.9640  207.3140  153.4070 C   0  0  0  0  0  2  0  0  0  0  0  0
  160.6620  206.9490  154.6210 S   0  0  0  0  0  0  0  0  0  0  0  0
  161.2960  208.1650  155.8150 C   0  0  0  0  0  2  0  0  0  0  0  0
  160.2050  208.9490  156.3790 N   0  0  0  0  0  2  0  0  0  0  0  0
  160.2960  210.3570  156.6140 C   0  0  0  0  0  0  0  0  0  0  0  0
  161.3620  210.9820  156.3710 O   0  0  0  0  0  0  0  0  0  0  0  0
  159.1100  211.0920  157.1340 C   0  0  0  0  0  2  0  0  0  0  0  0
  157.6180  211.1080  155.1390 O   0  0  0  0  0  0  0  0  0  0  0  0
  158.5370  213.0590  155.9160 O   0  0  0  0  0  1  0  0  0  0  0  0
  158.4220  211.8110  156.0260 C   0  0  0  0  0  0  0  0  0  0  0  0
  1 35  1  1  0  0  0
  2  1  1  0  0  0  0
  2 21  1  0  0  0  0
  4  9  1  0  0  0  0
  4  3  2  0  0  0  0
  5 19  2  0  0  0  0
  7 11  2  0  0  0  0
  8  4  1  0  0  0  0
  9  5  1  0  0  0  0
 10  2  1  0  0  0  0
 11 15  1  0  0  0  0
 11 18  1  0  0  0  0
 12  7  1  0  0  0  0
 12  8  2  0  0  0  0
 13  3  1  0  0  0  0
 13 10  1  0  0  0  0
 14 17  1  0  0  0  0
 14  6  1  0  0  0  0
 15 14  2  0  0  0  0
 16  3  1  6  0  0  0
 16 19  1  0  0  0  0
 16  1  1  0  0  0  0
 18 20  1  0  0  0  0
 18  9  2  0  0  0  0
 20  6  2  0  0  0  0
 21 22  1  0  0  0  0
 22 23  1  0  0  0  0
 24 23  1  0  0  0  0
 25 24  1  0  0  0  0
 26 29  1  0  0  0  0
 27 28  1  0  0  0  0
 28 34  1  0  0  0  0
 28 33  1  0  0  0  0
 29 34  2  0  0  0  0
 30 25  1  0  0  0  0
 31 30  1  0  0  0  0
 32 26  2  0  0  0  0
 32 27  1  0  0  0  0
 33 30  2  0  0  0  0
 34 31  1  0  0  0  0
 35 36  1  0  0  0  0
 36 37  1  0  0  0  0
 37 38  1  0  0  0  0
 38 39  1  0  0  0  0
 39 41  1  0  0  0  0
 40 39  2  0  0  0  0
 42 44  2  0  0  0  0
 43 44  1  0  0  0  0
 44 41  1  0  0  0  0
M  END
>  <MODEL>
8

>  <REMARK>
 VINA RESULT:      -4.9      2.281      5.571
  Name = 
  12 active torsions:
  status: ('A' for Active; 'I' for Inactive)
    1  A    between atoms: C_1  and  C_25
    2  A    between atoms: C_1  and  C_34
    3  A    between atoms: S_2  and  C_34
    4  A    between atoms: S_2  and  C_41
    5  A    between atoms: C_3  and  S_8
    6  A    between atoms: C_3  and  N_27
    7  A    between atoms: C_4  and  C_36
    8  A    between atoms: N_5  and  C_25
    9  A    between atoms: S_8  and  C_36
   10  A    between atoms: C_12  and  C_22
   11  A    between atoms: C_12  and  C_31
   12  A    between atoms: C_35  and  C_41
                            x       y       z     vdW  Elec       q    Type
                         _______ _______ _______ _____ _____    ______ ____

>  <TORSDO>
F 12

$$$$
=
 OpenBabel11052411103D

 44 49  0  0  1  0  0  0  0  0999 V2000
  161.3620  210.3560  150.9140 C   0  0  1  0  0  3  0  0  0  0  0  0
  160.5850  210.2800  152.1670 N   0  0  0  0  0  0  0  0  0  0  0  0
  161.3590  207.8150  151.0030 C   0  0  0  0  0  0  0  0  0  0  0  0
  161.5860  206.5760  150.3840 C   0  0  0  0  0  0  0  0  0  0  0  0
  162.2770  207.7410  148.4200 N   0  0  0  0  0  0  0  0  0  0  0  0
  162.6990  205.0450  145.9380 C   0  0  0  0  0  3  0  0  0  0  0  0
  160.6220  203.9290  149.3330 N   0  0  0  0  0  0  0  0  0  0  0  0
  161.3710  205.3680  151.1350 N   0  0  0  0  0  0  0  0  0  0  0  0
  162.0870  206.5620  149.0710 C   0  0  0  0  0  0  0  0  0  0  0  0
  161.1200  209.2300  153.0330 C   0  0  0  0  0  2  0  0  0  0  0  0
  161.2280  204.3960  148.2840 C   0  0  0  0  0  0  0  0  0  0  0  0
  160.9530  204.2110  150.7030 C   0  0  0  0  0  3  0  0  0  0  0  0
  160.8370  207.8730  152.4110 C   0  0  0  0  0  2  0  0  0  0  0  0
  161.4040  204.3510  145.8520 C   0  0  0  0  0  0  0  0  0  0  0  0
  160.7240  204.0260  146.9520 C   0  0  0  0  0  2  0  0  0  0  0  0
  161.5460  208.9980  150.2660 C   0  0  0  0  0  0  0  0  0  0  0  0
  160.8700  203.9650  144.5200 C   0  0  0  0  0  1  0  0  0  0  0  0
  162.4510  205.2650  148.4150 C   0  0  0  0  0  0  0  0  0  0  0  0
  162.0180  208.9150  148.9950 N   0  0  0  0  0  0  0  0  0  0  0  0
  163.1930  205.4510  147.1110 C   0  0  0  0  0  3  0  0  0  0  0  0
  160.6450  211.5560  152.8970 C   0  0  0  0  0  2  0  0  0  0  0  0
  159.3410  212.3490  152.8310 C   0  0  0  0  0  2  0  0  0  0  0  0
  159.4490  213.5660  153.7260 C   0  0  0  0  0  2  0  0  0  0  0  0
  158.1770  213.4930  155.0200 S   0  0  0  0  0  0  0  0  0  0  0  0
  159.3970  213.2990  156.3540 C   0  0  0  0  0  2  0  0  0  0  0  0
  160.3890  207.3760  156.3960 C   0  0  0  0  0  3  0  0  0  0  0  0
  162.1290  209.1170  156.8540 C   0  0  0  0  0  2  0  0  0  0  0  0
  160.9890  210.0280  156.8780 N   0  0  0  0  0  0  0  0  0  0  0  0
  159.3770  208.4240  156.1350 C   0  0  0  0  0  3  0  0  0  0  0  0
  159.7870  211.8700  156.4840 C   0  0  0  0  0  0  0  0  0  0  0  0
  158.9420  210.8070  156.1620 O   0  0  0  0  0  0  0  0  0  0  0  0
  161.6480  207.6860  156.7500 C   0  0  0  0  0  3  0  0  0  0  0  0
  160.9920  211.4490  156.8800 C   0  0  0  0  0  3  0  0  0  0  0  0
  159.7150  209.6840  156.3800 C   0  0  0  0  0  0  0  0  0  0  0  0
  160.6970  211.3270  149.9450 C   0  0  0  0  0  2  0  0  0  0  0  0
  161.9720  212.2460  149.0330 S   0  0  0  0  0  0  0  0  0  0  0  0
  161.1430  212.0040  147.4320 C   0  0  0  0  0  2  0  0  0  0  0  0
  160.2680  213.1290  147.1310 N   0  0  0  0  0  2  0  0  0  0  0  0
  159.3970  213.1590  145.9970 C   0  0  0  0  0  0  0  0  0  0  0  0
  159.3790  212.2050  145.1750 O   0  0  0  0  0  0  0  0  0  0  0  0
  158.4880  214.3220  145.8000 C   0  0  0  0  0  2  0  0  0  0  0  0
  157.0610  213.3600  147.6000 O   0  0  0  0  0  1  0  0  0  0  0  0
  156.1080  214.4510  145.8230 O   0  0  0  0  0  0  0  0  0  0  0  0
  157.1530  214.0400  146.3930 C   0  0  0  0  0  0  0  0  0  0  0  0
  1 35  1  6  0  0  0
  1  2  1  0  0  0  0
  2 21  1  0  0  0  0
  2 10  1  0  0  0  0
  3 13  1  0  0  0  0
  4  3  1  0  0  0  0
  4  8  1  0  0  0  0
  5 19  2  0  0  0  0
  5  9  1  0  0  0  0
  6 20  1  0  0  0  0
  7 12  1  0  0  0  0
  9  4  2  0  0  0  0
 11 18  1  0  0  0  0
 11  7  2  0  0  0  0
 12  8  2  0  0  0  0
 13 10  1  0  0  0  0
 14  6  2  0  0  0  0
 14 15  1  0  0  0  0
 15 11  1  0  0  0  0
 16  1  1  0  0  0  0
 16  3  2  0  0  0  0
 17 14  1  0  0  0  0
 18  9  1  0  0  0  0
 19 16  1  0  0  0  0
 20 18  2  0  0  0  0
 22 21  1  0  0  0  0
 22 23  1  0  0  0  0
 23 24  1  0  0  0  0
 24 25  1  0  0  0  0
 25 30  1  0  0  0  0
 26 32  2  0  0  0  0
 27 28  1  0  0  0  0
 28 33  1  0  0  0  0
 29 34  2  0  0  0  0
 29 26  1  0  0  0  0
 30 33  2  0  0  0  0
 31 34  1  0  0  0  0
 31 30  1  0  0  0  0
 32 27  1  0  0  0  0
 34 28  1  0  0  0  0
 36 35  1  0  0  0  0
 37 36  1  0  0  0  0
 38 37  1  0  0  0  0
 39 38  1  0  0  0  0
 40 39  2  0  0  0  0
 41 39  1  0  0  0  0
 41 44  1  0  0  0  0
 43 44  2  0  0  0  0
 44 42  1  0  0  0  0
M  END
>  <MODEL>
9

>  <REMARK>
 VINA RESULT:      -4.7      2.168      3.847
  Name = 
  12 active torsions:
  status: ('A' for Active; 'I' for Inactive)
    1  A    between atoms: C_1  and  C_25
    2  A    between atoms: C_1  and  C_34
    3  A    between atoms: S_2  and  C_34
    4  A    between atoms: S_2  and  C_41
    5  A    between atoms: C_3  and  S_8
    6  A    between atoms: C_3  and  N_27
    7  A    between atoms: C_4  and  C_36
    8  A    between atoms: N_5  and  C_25
    9  A    between atoms: S_8  and  C_36
   10  A    between atoms: C_12  and  C_22
   11  A    between atoms: C_12  and  C_31
   12  A    between atoms: C_35  and  C_41
                            x       y       z     vdW  Elec       q    Type
                         _______ _______ _______ _____ _____    ______ ____

>  <TORSDO>
F 12

$$$$
