=
 OpenBabel11042420073D

 58 64  0  0  1  0  0  0  0  0999 V2000
  160.5260  211.4760  150.8300 S   0  0  0  0  0  0  0  0  0  0  0  0
  162.6540  210.1780  148.8190 C   0  0  0  0  0  2  0  0  0  0  0  0
  161.8020  211.3710  148.4090 C   0  0  0  0  0  2  0  0  0  0  0  0
  161.9460  209.3310  149.8680 C   0  0  0  0  0  2  0  0  0  0  0  0
  161.7350  210.1320  151.1490 C   0  0  2  0  0  3  0  0  0  0  0  0
  161.5810  212.3020  149.5910 C   0  0  1  0  0  3  0  0  0  0  0  0
  161.5240  207.6990  152.1570 C   0  0  1  0  0  3  0  0  0  0  0  0
  160.1490  208.3280  152.0080 C   0  0  0  0  0  2  0  0  0  0  0  0
  161.3450  209.2110  152.3260 C   0  0  2  0  0  0  0  0  0  0  0  0
  162.5080  210.7300  155.6030 C   0  0  0  0  0  3  0  0  0  0  0  0
  162.5060  209.9830  154.4990 C   0  0  0  0  0  3  0  0  0  0  0  0
  159.9920  210.9150  155.5360 C   0  0  0  0  0  2  0  0  0  0  0  0
  160.1100  210.3250  154.1570 C   0  0  0  0  0  3  0  0  0  0  0  0
  161.2660  209.8170  153.7080 C   0  0  0  0  0  0  0  0  0  0  0  0
  161.2940  211.3480  156.0440 N   0  0  0  0  0  2  0  0  0  0  0  0
  161.5920  206.9210  153.4660 C   0  0  0  0  0  2  0  0  0  0  0  0
  161.3290  205.4450  153.2130 C   0  0  0  0  0  2  0  0  0  0  0  0
  160.3870  205.2860  152.1130 N   0  0  0  0  0  2  0  0  0  0  0  0
  161.2150  202.5770  151.7910 C   0  0  0  0  0  2  0  0  0  0  0  0
  160.5730  205.5950  149.7210 C   0  0  0  0  0  2  0  0  0  0  0  0
  161.1530  204.8900  150.9400 C   0  0  2  0  0  3  0  0  0  0  0  0
  161.1230  203.3880  150.7350 C   0  0  0  0  0  0  0  0  0  0  0  0
  161.6470  203.8640  148.2940 C   0  0  0  0  0  0  0  0  0  0  0  0
  161.2130  202.1830  146.4820 C   0  0  2  0  0  3  0  0  0  0  0  0
  161.0860  201.1200  147.5900 C   0  0  0  0  0  2  0  0  0  0  0  0
  162.1190  203.3330  146.9630 C   0  0  1  0  0  3  0  0  0  0  0  0
  160.5810  201.7190  148.9120 C   0  0  0  0  0  2  0  0  0  0  0  0
  161.5220  202.8280  149.3880 C   0  0  2  0  0  3  0  0  0  0  0  0
  161.2260  205.1310  148.4520 C   0  0  0  0  0  3  0  0  0  0  0  0
  162.4360  204.3680  145.9200 C   0  0  0  0  0  0  0  0  0  0  0  0
  161.4950  204.9750  145.3390 O   0  0  0  0  0  0  0  0  0  0  0  0
  163.7460  204.6100  145.5310 O   0  0  0  0  0  1  0  0  0  0  0  0
  159.2440  201.7640  144.9960 C   0  0  0  0  0  1  0  0  0  0  0  0
  159.8310  202.6770  146.0540 C   0  0  0  0  0  2  0  0  0  0  0  0
  160.9010  213.5720  149.1080 C   0  0  0  0  0  2  0  0  0  0  0  0
  161.0260  213.6960  147.6640 N   0  0  0  0  0  2  0  0  0  0  0  0
  157.5670  211.4610  146.3140 F   0  0  0  0  0  0  0  0  0  0  0  0
  157.6240  212.8440  146.3000 C   0  0  0  0  0  0  0  0  0  0  0  0
  160.0530  212.7980  147.0610 C   0  0  1  0  0  3  0  0  0  0  0  0
  158.0190  213.3190  144.8860 C   0  0  1  0  0  3  0  0  0  0  0  0
  156.3720  213.3340  146.6310 F   0  0  0  0  0  0  0  0  0  0  0  0
  157.3150  214.4520  144.5240 F   0  0  0  0  0  0  0  0  0  0  0  0
  158.6330  213.3160  147.3470 C   0  0  0  0  0  2  0  0  0  0  0  0
  159.5220  213.5800  144.7140 C   0  0  1  0  0  3  0  0  0  0  0  0
  160.3510  212.6200  145.5650 C   0  0  0  0  0  2  0  0  0  0  0  0
  159.8690  213.4430  143.3670 O   0  0  0  0  0  0  0  0  0  0  0  0
  160.1880  211.3440  142.2350 C   0  0  0  0  0  2  0  0  0  0  0  0
  162.0020  212.2520  140.7930 C   0  0  0  0  0  2  0  0  0  0  0  0
  160.6950  212.3150  143.3100 C   0  0  1  0  0  3  0  0  0  0  0  0
  162.1350  212.7250  142.9890 C   0  0  0  0  0  2  0  0  0  0  0  0
  162.2010  213.3010  141.7090 O   0  0  0  0  0  0  0  0  0  0  0  0
  160.5270  211.7820  140.8010 C   0  0  2  0  0  0  0  0  0  0  0  0
  159.5860  212.9250  140.4220 C   0  0  0  0  0  1  0  0  0  0  0  0
  160.3010  210.6550  139.9670 O   0  0  0  0  0  0  0  0  0  0  0  0
  162.0790  211.3370  138.0810 O   0  0  0  0  0  0  0  0  0  0  0  0
  162.9680  209.8620  140.0500 O   0  0  0  0  0  1  0  0  0  0  0  0
  161.6720  210.2260  139.0250 P   0  0  0  0  0  0  0  0  0  0  0  0
  161.2960  208.8460  138.1160 O   0  0  0  0  0  1  0  0  0  0  0  0
  1  5  1  0  0  0  0
  2  4  1  0  0  0  0
  3  2  1  0  0  0  0
  3  6  1  0  0  0  0
  5  4  1  6  0  0  0
  5  9  1  0  0  0  0
  6 35  1  6  0  0  0
  6  1  1  0  0  0  0
  7  9  1  0  0  0  0
  7 16  1  1  0  0  0
  8  7  1  0  0  0  0
  8  9  1  0  0  0  0
  9 14  1  1  0  0  0
 10 15  1  0  0  0  0
 11 10  2  0  0  0  0
 12 15  1  0  0  0  0
 13 12  1  0  0  0  0
 14 13  2  0  0  0  0
 14 11  1  0  0  0  0
 17 16  1  0  0  0  0
 18 17  1  0  0  0  0
 20 21  1  0  0  0  0
 21 18  1  1  0  0  0
 22 21  1  0  0  0  0
 22 19  2  0  0  0  0
 23 29  2  0  0  0  0
 23 28  1  0  0  0  0
 24 34  1  1  0  0  0
 24 26  1  0  0  0  0
 24 25  1  0  0  0  0
 25 27  1  0  0  0  0
 26 30  1  6  0  0  0
 26 23  1  0  0  0  0
 28 27  1  6  0  0  0
 28 22  1  0  0  0  0
 29 20  1  0  0  0  0
 31 30  2  0  0  0  0
 32 30  1  0  0  0  0
 33 34  1  0  0  0  0
 36 35  1  0  0  0  0
 38 37  1  0  0  0  0
 38 41  1  0  0  0  0
 38 43  1  0  0  0  0
 39 43  1  0  0  0  0
 39 36  1  6  0  0  0
 40 42  1  1  0  0  0
 40 38  1  0  0  0  0
 44 46  1  6  0  0  0
 44 40  1  0  0  0  0
 44 45  1  0  0  0  0
 45 39  1  0  0  0  0
 47 49  1  0  0  0  0
 48 52  1  0  0  0  0
 48 51  1  0  0  0  0
 49 46  1  6  0  0  0
 50 49  1  0  0  0  0
 51 50  1  0  0  0  0
 52 53  1  6  0  0  0
 52 47  1  0  0  0  0
 54 52  1  0  0  0  0
 55 57  2  0  0  0  0
 57 54  1  0  0  0  0
 57 56  1  0  0  0  0
 58 57  1  0  0  0  0
M  END
>  <MODEL>
1

>  <REMARK>
 VINA RESULT:      -6.3      0.000      0.000
  Name = 
  15 active torsions:
  status: ('A' for Active; 'I' for Inactive)
    1  A    between atoms: N_3  and  C_4
    2  A    between atoms: N_3  and  C_15
    3  A    between atoms: C_4  and  C_20
    4  A    between atoms: C_7  and  C_47
    5  A    between atoms: C_11  and  C_34
    6  A    between atoms: N_13  and  C_25
    7  A    between atoms: N_13  and  C_37
    8  A    between atoms: O_19  and  C_26
    9  A    between atoms: O_19  and  C_55
   10  A    between atoms: C_20  and  C_22
   11  A    between atoms: C_25  and  C_53
   12  A    between atoms: P_31  and  O_50
   13  A    between atoms: C_40  and  O_50
   14  A    between atoms: C_42  and  C_57
   15  A    between atoms: C_43  and  C_57
                            x       y       z     vdW  Elec       q    Type
                         _______ _______ _______ _____ _____    ______ ____

>  <TORSDO>
F 15

$$$$
=
 OpenBabel11042420073D

 58 64  0  0  1  0  0  0  0  0999 V2000
  160.8310  205.3010  148.8930 S   0  0  0  0  0  0  0  0  0  0  0  0
  162.3690  208.1050  148.7190 C   0  0  0  0  0  2  0  0  0  0  0  0
  161.6880  207.6540  150.0030 C   0  0  0  0  0  2  0  0  0  0  0  0
  161.6910  207.5030  147.4950 C   0  0  0  0  0  2  0  0  0  0  0  0
  161.8200  205.9830  147.5050 C   0  0  2  0  0  3  0  0  0  0  0  0
  161.8150  206.1480  150.1750 C   0  0  1  0  0  3  0  0  0  0  0  0
  161.8340  206.1690  144.8690 C   0  0  1  0  0  3  0  0  0  0  0  0
  160.4080  206.2010  145.3910 C   0  0  0  0  0  2  0  0  0  0  0  0
  161.4560  205.3830  146.1280 C   0  0  2  0  0  0  0  0  0  0  0  0
  161.2190  201.7600  147.2290 C   0  0  0  0  0  3  0  0  0  0  0  0
  161.6460  203.0200  147.1510 C   0  0  0  0  0  3  0  0  0  0  0  0
  160.1800  201.9210  144.9340 C   0  0  0  0  0  2  0  0  0  0  0  0
  160.4410  203.3990  145.0570 C   0  0  0  0  0  3  0  0  0  0  0  0
  161.1940  203.8980  146.0470 C   0  0  0  0  0  0  0  0  0  0  0  0
  160.3430  201.2420  146.2210 N   0  0  0  0  0  2  0  0  0  0  0  0
  161.8960  205.3320  143.5970 C   0  0  0  0  0  2  0  0  0  0  0  0
  161.4290  206.1520  142.4060 C   0  0  0  0  0  2  0  0  0  0  0  0
  162.3920  206.0470  141.3170 N   0  0  0  0  0  2  0  0  0  0  0  0
  162.2200  206.2270  138.4780 C   0  0  0  0  0  2  0  0  0  0  0  0
  161.6310  208.3380  141.4790 C   0  0  0  0  0  2  0  0  0  0  0  0
  162.4500  207.3460  140.6630 C   0  0  2  0  0  3  0  0  0  0  0  0
  161.9210  207.2790  139.2430 C   0  0  0  0  0  0  0  0  0  0  0  0
  161.4790  209.7740  139.4530 C   0  0  0  0  0  0  0  0  0  0  0  0
  159.8760  210.9780  137.9440 C   0  0  2  0  0  3  0  0  0  0  0  0
  159.9370  209.7530  137.0110 C   0  0  0  0  0  2  0  0  0  0  0  0
  161.1800  211.0790  138.7590 C   0  0  1  0  0  3  0  0  0  0  0  0
  160.2240  208.4530  137.7800 C   0  0  0  0  0  2  0  0  0  0  0  0
  161.5440  208.5670  138.5450 C   0  0  2  0  0  3  0  0  0  0  0  0
  161.5330  209.6690  140.7920 C   0  0  0  0  0  3  0  0  0  0  0  0
  161.3020  212.3150  139.6070 C   0  0  0  0  0  0  0  0  0  0  0  0
  162.2510  213.1200  139.4010 O   0  0  0  0  0  0  0  0  0  0  0  0
  160.4330  212.5420  140.6650 O   0  0  0  0  0  1  0  0  0  0  0  0
  157.4180  211.4180  138.1030 C   0  0  0  0  0  1  0  0  0  0  0  0
  158.6390  210.9050  138.8400 C   0  0  0  0  0  2  0  0  0  0  0  0
  161.3040  205.7570  151.5520 C   0  0  0  0  0  2  0  0  0  0  0  0
  161.8650  206.6340  152.5690 N   0  0  0  0  0  2  0  0  0  0  0  0
  159.1170  207.1630  155.8790 F   0  0  0  0  0  0  0  0  0  0  0  0
  160.4830  207.3570  155.9940 C   0  0  0  0  0  0  0  0  0  0  0  0
  160.7950  206.9680  153.4970 C   0  0  1  0  0  3  0  0  0  0  0  0
  160.7930  208.8620  155.8530 C   0  0  1  0  0  3  0  0  0  0  0  0
  160.8830  206.9060  157.2410 F   0  0  0  0  0  0  0  0  0  0  0  0
  161.7850  209.2520  156.7330 F   0  0  0  0  0  0  0  0  0  0  0  0
  161.1990  206.5400  154.9180 C   0  0  0  0  0  2  0  0  0  0  0  0
  161.1810  209.2880  154.4300 C   0  0  1  0  0  3  0  0  0  0  0  0
  160.4400  208.4580  153.3830 C   0  0  0  0  0  2  0  0  0  0  0  0
  160.8920  210.6440  154.2540 O   0  0  0  0  0  0  0  0  0  0  0  0
  158.6850  211.0820  155.1060 C   0  0  0  0  0  2  0  0  0  0  0  0
  158.6180  213.3650  154.1170 C   0  0  0  0  0  2  0  0  0  0  0  0
  159.5410  210.6920  153.8930 C   0  0  1  0  0  3  0  0  0  0  0  0
  159.3260  211.7090  152.7680 C   0  0  0  0  0  2  0  0  0  0  0  0
  159.6380  213.0030  153.2180 O   0  0  0  0  0  0  0  0  0  0  0  0
  158.7450  212.5800  155.4450 C   0  0  2  0  0  0  0  0  0  0  0  0
  160.0890  212.8570  156.1190 C   0  0  0  0  0  1  0  0  0  0  0  0
  157.6760  212.8360  156.3450 O   0  0  0  0  0  0  0  0  0  0  0  0
  156.2730  211.4850  154.5040 O   0  0  0  0  0  0  0  0  0  0  0  0
  155.2610  211.5750  156.9150 O   0  0  0  0  0  1  0  0  0  0  0  0
  156.1430  212.3810  155.7170 P   0  0  0  0  0  0  0  0  0  0  0  0
  155.3010  213.7830  155.2740 O   0  0  0  0  0  1  0  0  0  0  0  0
  1  6  1  0  0  0  0
  2  3  1  0  0  0  0
  3  6  1  0  0  0  0
  4  2  1  0  0  0  0
  5  4  1  6  0  0  0
  5  1  1  0  0  0  0
  6 35  1  1  0  0  0
  7 16  1  6  0  0  0
  7  8  1  0  0  0  0
  7  9  1  0  0  0  0
  8  9  1  0  0  0  0
  9 14  1  6  0  0  0
  9  5  1  0  0  0  0
 11 10  2  0  0  0  0
 12 13  1  0  0  0  0
 12 15  1  0  0  0  0
 13 14  2  0  0  0  0
 14 11  1  0  0  0  0
 15 10  1  0  0  0  0
 17 16  1  0  0  0  0
 18 17  1  0  0  0  0
 19 22  2  0  0  0  0
 21 18  1  1  0  0  0
 21 20  1  0  0  0  0
 22 21  1  0  0  0  0
 23 29  2  0  0  0  0
 24 26  1  0  0  0  0
 24 34  1  1  0  0  0
 25 27  1  0  0  0  0
 25 24  1  0  0  0  0
 26 23  1  0  0  0  0
 26 30  1  1  0  0  0
 28 27  1  1  0  0  0
 28 22  1  0  0  0  0
 28 23  1  0  0  0  0
 29 20  1  0  0  0  0
 30 32  1  0  0  0  0
 31 30  2  0  0  0  0
 33 34  1  0  0  0  0
 35 36  1  0  0  0  0
 37 38  1  0  0  0  0
 38 41  1  0  0  0  0
 39 36  1  6  0  0  0
 39 43  1  0  0  0  0
 40 38  1  0  0  0  0
 40 42  1  1  0  0  0
 43 38  1  0  0  0  0
 44 46  1  6  0  0  0
 44 40  1  0  0  0  0
 45 39  1  0  0  0  0
 45 44  1  0  0  0  0
 47 52  1  0  0  0  0
 48 52  1  0  0  0  0
 49 46  1  1  0  0  0
 49 47  1  0  0  0  0
 50 51  1  0  0  0  0
 50 49  1  0  0  0  0
 51 48  1  0  0  0  0
 52 53  1  1  0  0  0
 52 54  1  0  0  0  0
 55 57  2  0  0  0  0
 57 54  1  0  0  0  0
 57 56  1  0  0  0  0
 58 57  1  0  0  0  0
M  END
>  <MODEL>
2

>  <REMARK>
 VINA RESULT:      -5.5      6.043     11.583
  Name = 
  15 active torsions:
  status: ('A' for Active; 'I' for Inactive)
    1  A    between atoms: N_3  and  C_4
    2  A    between atoms: N_3  and  C_15
    3  A    between atoms: C_4  and  C_20
    4  A    between atoms: C_7  and  C_47
    5  A    between atoms: C_11  and  C_34
    6  A    between atoms: N_13  and  C_25
    7  A    between atoms: N_13  and  C_37
    8  A    between atoms: O_19  and  C_26
    9  A    between atoms: O_19  and  C_55
   10  A    between atoms: C_20  and  C_22
   11  A    between atoms: C_25  and  C_53
   12  A    between atoms: P_31  and  O_50
   13  A    between atoms: C_40  and  O_50
   14  A    between atoms: C_42  and  C_57
   15  A    between atoms: C_43  and  C_57
                            x       y       z     vdW  Elec       q    Type
                         _______ _______ _______ _____ _____    ______ ____

>  <TORSDO>
F 15

$$$$
=
 OpenBabel11042420073D

 58 64  0  0  1  0  0  0  0  0999 V2000
  160.0780  208.3810  153.9110 S   0  0  0  0  0  0  0  0  0  0  0  0
  160.8660  208.5140  157.0120 C   0  0  0  0  0  2  0  0  0  0  0  0
  160.9730  207.2170  156.2230 C   0  0  0  0  0  2  0  0  0  0  0  0
  159.7880  209.4230  156.4360 C   0  0  0  0  0  2  0  0  0  0  0  0
  160.1490  209.8460  155.0150 C   0  0  2  0  0  3  0  0  0  0  0  0
  161.4080  207.4950  154.7930 C   0  0  1  0  0  3  0  0  0  0  0  0
  159.5140  211.6050  153.1480 C   0  0  1  0  0  3  0  0  0  0  0  0
  160.0530  212.3150  154.3780 C   0  0  0  0  0  2  0  0  0  0  0  0
  159.2670  211.0230  154.5430 C   0  0  2  0  0  0  0  0  0  0  0  0
  156.6570  212.6090  156.7950 C   0  0  0  0  0  3  0  0  0  0  0  0
  157.8470  212.2180  156.3370 C   0  0  0  0  0  3  0  0  0  0  0  0
  155.4970  210.8290  155.4320 C   0  0  0  0  0  2  0  0  0  0  0  0
  156.8310  210.6540  154.7570 C   0  0  0  0  0  3  0  0  0  0  0  0
  157.9400  211.2380  155.2310 C   0  0  0  0  0  0  0  0  0  0  0  0
  155.4620  212.0530  156.2340 N   0  0  0  0  0  2  0  0  0  0  0  0
  158.3420  212.3910  152.5740 C   0  0  0  0  0  2  0  0  0  0  0  0
  158.8420  213.6440  151.8740 C   0  0  0  0  0  2  0  0  0  0  0  0
  159.9070  213.3030  150.9400 N   0  0  0  0  0  2  0  0  0  0  0  0
  161.9410  214.4520  149.3050 C   0  0  0  0  0  2  0  0  0  0  0  0
  158.5320  213.0090  148.9700 C   0  0  0  0  0  2  0  0  0  0  0  0
  159.5640  213.8970  149.6550 C   0  0  2  0  0  3  0  0  0  0  0  0
  160.7850  214.0530  148.7700 C   0  0  0  0  0  0  0  0  0  0  0  0
  159.1710  214.0550  146.8050 C   0  0  0  0  0  0  0  0  0  0  0  0
  159.9190  213.5570  144.4620 C   0  0  2  0  0  3  0  0  0  0  0  0
  161.3640  213.7900  144.9440 C   0  0  0  0  0  2  0  0  0  0  0  0
  158.9390  214.3550  145.3450 C   0  0  1  0  0  3  0  0  0  0  0  0
  161.5400  213.4470  146.4320 C   0  0  0  0  0  2  0  0  0  0  0  0
  160.5860  214.2830  147.2880 C   0  0  2  0  0  3  0  0  0  0  0  0
  158.2310  213.4860  147.5790 C   0  0  0  0  0  3  0  0  0  0  0  0
  157.5070  214.3220  144.8900 C   0  0  0  0  0  0  0  0  0  0  0  0
  157.2400  214.4520  143.6630 O   0  0  0  0  0  0  0  0  0  0  0  0
  156.4700  214.2310  145.8070 O   0  0  0  0  0  1  0  0  0  0  0  0
  160.1530  211.4140  143.1930 C   0  0  0  0  0  1  0  0  0  0  0  0
  159.5960  212.0630  144.4440 C   0  0  0  0  0  2  0  0  0  0  0  0
  161.6960  206.1780  154.0920 C   0  0  0  0  0  2  0  0  0  0  0  0
  162.4140  206.4130  152.8480 N   0  0  0  0  0  2  0  0  0  0  0  0
  159.8510  207.4410  149.5080 F   0  0  0  0  0  0  0  0  0  0  0  0
  161.2320  207.4930  149.4420 C   0  0  0  0  0  0  0  0  0  0  0  0
  161.4260  206.5120  151.7830 C   0  0  1  0  0  3  0  0  0  0  0  0
  161.7560  206.1940  148.7960 C   0  0  1  0  0  3  0  0  0  0  0  0
  161.5900  208.5850  148.6690 F   0  0  0  0  0  0  0  0  0  0  0  0
  162.8150  206.4510  147.9450 F   0  0  0  0  0  0  0  0  0  0  0  0
  161.7950  207.6790  150.8520 C   0  0  0  0  0  2  0  0  0  0  0  0
  162.1710  205.1170  149.8080 C   0  0  1  0  0  3  0  0  0  0  0  0
  161.2920  205.1660  151.0570 C   0  0  0  0  0  2  0  0  0  0  0  0
  162.0800  203.8560  149.2120 O   0  0  0  0  0  0  0  0  0  0  0  0
  160.8070  204.2960  147.2190 C   0  0  0  0  0  2  0  0  0  0  0  0
  160.7680  201.8960  146.5610 C   0  0  0  0  0  2  0  0  0  0  0  0
  160.7920  203.7940  148.6690 C   0  0  1  0  0  3  0  0  0  0  0  0
  160.2670  202.3560  148.7060 C   0  0  0  0  0  2  0  0  0  0  0  0
  161.0580  201.5300  147.8880 O   0  0  0  0  0  0  0  0  0  0  0  0
  161.3800  203.2770  146.2210 C   0  0  2  0  0  0  0  0  0  0  0  0
  162.8990  203.2580  146.3850 C   0  0  0  0  0  1  0  0  0  0  0  0
  161.0260  203.7350  144.9240 O   0  0  0  0  0  0  0  0  0  0  0  0
  162.6990  205.8090  145.2080 O   0  0  0  0  0  1  0  0  0  0  0  0
  161.2290  205.7790  143.0440 O   0  0  0  0  0  0  0  0  0  0  0  0
  161.3330  205.4090  144.6920 P   0  0  0  0  0  0  0  0  0  0  0  0
  160.1530  206.2970  145.5220 O   0  0  0  0  0  1  0  0  0  0  0  0
  1  6  1  0  0  0  0
  1  5  1  0  0  0  0
  3  2  1  0  0  0  0
  4  2  1  0  0  0  0
  5  4  1  1  0  0  0
  6 35  1  6  0  0  0
  6  3  1  0  0  0  0
  7 16  1  1  0  0  0
  7  8  1  0  0  0  0
  7  9  1  0  0  0  0
  8  9  1  0  0  0  0
  9  5  1  0  0  0  0
  9 14  1  1  0  0  0
 11 10  2  0  0  0  0
 12 15  1  0  0  0  0
 13 14  2  0  0  0  0
 13 12  1  0  0  0  0
 14 11  1  0  0  0  0
 15 10  1  0  0  0  0
 17 16  1  0  0  0  0
 18 17  1  0  0  0  0
 20 21  1  0  0  0  0
 21 18  1  1  0  0  0
 22 19  2  0  0  0  0
 22 21  1  0  0  0  0
 23 28  1  0  0  0  0
 23 29  2  0  0  0  0
 24 34  1  1  0  0  0
 24 25  1  0  0  0  0
 24 26  1  0  0  0  0
 25 27  1  0  0  0  0
 26 30  1  6  0  0  0
 26 23  1  0  0  0  0
 28 27  1  6  0  0  0
 28 22  1  0  0  0  0
 29 20  1  0  0  0  0
 30 32  1  0  0  0  0
 31 30  2  0  0  0  0
 33 34  1  0  0  0  0
 36 35  1  0  0  0  0
 38 37  1  0  0  0  0
 38 43  1  0  0  0  0
 39 36  1  1  0  0  0
 40 42  1  1  0  0  0
 40 38  1  0  0  0  0
 40 44  1  0  0  0  0
 41 38  1  0  0  0  0
 43 39  1  0  0  0  0
 44 46  1  6  0  0  0
 44 45  1  0  0  0  0
 45 39  1  0  0  0  0
 47 49  1  0  0  0  0
 48 51  1  0  0  0  0
 49 50  1  0  0  0  0
 49 46  1  6  0  0  0
 51 50  1  0  0  0  0
 52 53  1  1  0  0  0
 52 48  1  0  0  0  0
 52 47  1  0  0  0  0
 54 52  1  0  0  0  0
 56 57  2  0  0  0  0
 57 54  1  0  0  0  0
 57 55  1  0  0  0  0
 57 58  1  0  0  0  0
M  END
>  <MODEL>
3

>  <REMARK>
 VINA RESULT:      -5.4      3.240      8.975
  Name = 
  15 active torsions:
  status: ('A' for Active; 'I' for Inactive)
    1  A    between atoms: N_3  and  C_4
    2  A    between atoms: N_3  and  C_15
    3  A    between atoms: C_4  and  C_20
    4  A    between atoms: C_7  and  C_47
    5  A    between atoms: C_11  and  C_34
    6  A    between atoms: N_13  and  C_25
    7  A    between atoms: N_13  and  C_37
    8  A    between atoms: O_19  and  C_26
    9  A    between atoms: O_19  and  C_55
   10  A    between atoms: C_20  and  C_22
   11  A    between atoms: C_25  and  C_53
   12  A    between atoms: P_31  and  O_50
   13  A    between atoms: C_40  and  O_50
   14  A    between atoms: C_42  and  C_57
   15  A    between atoms: C_43  and  C_57
                            x       y       z     vdW  Elec       q    Type
                         _______ _______ _______ _____ _____    ______ ____

>  <TORSDO>
F 15

$$$$
=
 OpenBabel11042420073D

 58 64  0  0  1  0  0  0  0  0999 V2000
  159.9450  209.4760  152.3340 S   0  0  0  0  0  0  0  0  0  0  0  0
  160.6730  209.0530  155.4240 C   0  0  0  0  0  2  0  0  0  0  0  0
  160.6430  207.8830  154.4500 C   0  0  0  0  0  2  0  0  0  0  0  0
  159.7240  210.1610  154.9850 C   0  0  0  0  0  2  0  0  0  0  0  0
  160.1650  210.7420  153.6450 C   0  0  2  0  0  3  0  0  0  0  0  0
  161.1400  208.3160  153.0800 C   0  0  1  0  0  3  0  0  0  0  0  0
  159.7100  212.7690  152.0120 C   0  0  1  0  0  3  0  0  0  0  0  0
  160.3940  213.2570  153.2770 C   0  0  0  0  0  2  0  0  0  0  0  0
  159.4410  212.0740  153.3500 C   0  0  2  0  0  0  0  0  0  0  0  0
  155.9290  211.6730  154.7310 C   0  0  0  0  0  3  0  0  0  0  0  0
  156.9650  211.5880  153.8960 C   0  0  0  0  0  3  0  0  0  0  0  0
  156.9810  213.6450  155.9040 C   0  0  0  0  0  2  0  0  0  0  0  0
  158.2180  213.2910  155.1230 C   0  0  0  0  0  3  0  0  0  0  0  0
  158.1870  212.3900  154.1310 C   0  0  0  0  0  0  0  0  0  0  0  0
  155.9870  212.5730  155.8440 N   0  0  0  0  0  2  0  0  0  0  0  0
  158.6380  213.7680  151.5910 C   0  0  0  0  0  2  0  0  0  0  0  0
  158.3930  213.6760  150.0940 C   0  0  0  0  0  2  0  0  0  0  0  0
  159.6250  213.3130  149.4070 N   0  0  0  0  0  2  0  0  0  0  0  0
  162.0010  214.3680  148.2390 C   0  0  0  0  0  2  0  0  0  0  0  0
  158.6740  213.0860  147.1930 C   0  0  0  0  0  2  0  0  0  0  0  0
  159.5810  213.9240  148.0860 C   0  0  2  0  0  3  0  0  0  0  0  0
  160.9640  214.0250  147.4730 C   0  0  0  0  0  0  0  0  0  0  0  0
  159.7920  214.1050  145.2180 C   0  0  0  0  0  0  0  0  0  0  0  0
  160.9830  213.5770  143.0730 C   0  0  2  0  0  3  0  0  0  0  0  0
  162.3070  213.7410  143.8450 C   0  0  0  0  0  2  0  0  0  0  0  0
  159.8790  214.4170  143.7450 C   0  0  1  0  0  3  0  0  0  0  0  0
  162.1570  213.3880  145.3330 C   0  0  0  0  0  2  0  0  0  0  0  0
  161.0850  214.2660  145.9840 C   0  0  2  0  0  3  0  0  0  0  0  0
  158.6870  213.5780  145.7750 C   0  0  0  0  0  3  0  0  0  0  0  0
  158.5710  214.4520  143.0040 C   0  0  0  0  0  0  0  0  0  0  0  0
  157.4890  214.4530  143.6520 O   0  0  0  0  0  1  0  0  0  0  0  0
  158.5360  214.4050  141.6180 O   0  0  0  0  0  0  0  0  0  0  0  0
  161.2320  211.4710  141.7450 C   0  0  0  0  0  1  0  0  0  0  0  0
  160.6030  212.0990  142.9730 C   0  0  0  0  0  2  0  0  0  0  0  0
  161.2860  207.0920  152.1910 C   0  0  0  0  0  2  0  0  0  0  0  0
  161.2020  205.8750  152.9860 N   0  0  0  0  0  2  0  0  0  0  0  0
  162.4120  202.1890  151.0550 F   0  0  0  0  0  0  0  0  0  0  0  0
  161.0950  202.6040  151.1280 C   0  0  0  0  0  0  0  0  0  0  0  0
  161.7980  204.8000  152.2060 C   0  0  1  0  0  3  0  0  0  0  0  0
  160.7130  203.3100  149.8110 C   0  0  1  0  0  3  0  0  0  0  0  0
  160.2960  201.4880  151.3150 F   0  0  0  0  0  0  0  0  0  0  0  0
  159.4260  202.9850  149.4230 F   0  0  0  0  0  0  0  0  0  0  0  0
  160.9280  203.5380  152.3270 C   0  0  0  0  0  2  0  0  0  0  0  0
  160.8560  204.8380  149.8580 C   0  0  1  0  0  3  0  0  0  0  0  0
  162.0190  205.2560  150.7560 C   0  0  0  0  0  2  0  0  0  0  0  0
  161.0540  205.3290  148.5650 O   0  0  0  0  0  0  0  0  0  0  0  0
  161.7750  203.4920  147.1900 C   0  0  0  0  0  2  0  0  0  0  0  0
  162.3220  204.9780  145.2700 C   0  0  0  0  0  2  0  0  0  0  0  0
  162.1890  204.6670  148.0860 C   0  0  1  0  0  3  0  0  0  0  0  0
  163.0710  205.6320  147.2880 C   0  0  0  0  0  2  0  0  0  0  0  0
  162.3890  206.0790  146.1430 O   0  0  0  0  0  0  0  0  0  0  0  0
  161.3170  203.9200  145.7860 C   0  0  2  0  0  0  0  0  0  0  0  0
  159.9130  204.5120  145.9090 C   0  0  0  0  0  1  0  0  0  0  0  0
  161.2920  202.7440  144.9900 O   0  0  0  0  0  0  0  0  0  0  0  0
  160.5370  201.1720  147.0260 O   0  0  0  0  0  1  0  0  0  0  0  0
  158.6290  202.1120  145.5010 O   0  0  0  0  0  1  0  0  0  0  0  0
  160.2210  201.5440  145.5920 P   0  0  0  0  0  0  0  0  0  0  0  0
  160.3580  200.1600  144.6250 O   0  0  0  0  0  0  0  0  0  0  0  0
  1  6  1  0  0  0  0
  1  5  1  0  0  0  0
  3  2  1  0  0  0  0
  4  2  1  0  0  0  0
  5  4  1  1  0  0  0
  6 35  1  6  0  0  0
  6  3  1  0  0  0  0
  7 16  1  1  0  0  0
  7  8  1  0  0  0  0
  7  9  1  0  0  0  0
  8  9  1  0  0  0  0
  9  5  1  0  0  0  0
  9 14  1  1  0  0  0
 10 15  1  0  0  0  0
 11 14  1  0  0  0  0
 11 10  2  0  0  0  0
 13 12  1  0  0  0  0
 14 13  2  0  0  0  0
 15 12  1  0  0  0  0
 17 16  1  0  0  0  0
 18 17  1  0  0  0  0
 20 21  1  0  0  0  0
 21 18  1  1  0  0  0
 22 21  1  0  0  0  0
 22 19  2  0  0  0  0
 23 29  2  0  0  0  0
 23 28  1  0  0  0  0
 24 34  1  1  0  0  0
 24 26  1  0  0  0  0
 24 25  1  0  0  0  0
 25 27  1  0  0  0  0
 26 30  1  6  0  0  0
 26 23  1  0  0  0  0
 28 27  1  6  0  0  0
 28 22  1  0  0  0  0
 29 20  1  0  0  0  0
 30 31  1  0  0  0  0
 32 30  2  0  0  0  0
 33 34  1  0  0  0  0
 35 36  1  0  0  0  0
 37 38  1  0  0  0  0
 38 41  1  0  0  0  0
 38 43  1  0  0  0  0
 39 43  1  0  0  0  0
 39 36  1  1  0  0  0
 40 42  1  1  0  0  0
 40 44  1  0  0  0  0
 40 38  1  0  0  0  0
 44 46  1  6  0  0  0
 44 45  1  0  0  0  0
 45 39  1  0  0  0  0
 47 49  1  0  0  0  0
 48 52  1  0  0  0  0
 48 51  1  0  0  0  0
 49 46  1  6  0  0  0
 50 49  1  0  0  0  0
 51 50  1  0  0  0  0
 52 53  1  1  0  0  0
 52 47  1  0  0  0  0
 54 57  1  0  0  0  0
 54 52  1  0  0  0  0
 56 57  1  0  0  0  0
 57 55  1  0  0  0  0
 58 57  2  0  0  0  0
M  END
>  <MODEL>
4

>  <REMARK>
 VINA RESULT:      -4.6      3.801      9.434
  Name = 
  15 active torsions:
  status: ('A' for Active; 'I' for Inactive)
    1  A    between atoms: N_3  and  C_4
    2  A    between atoms: N_3  and  C_15
    3  A    between atoms: C_4  and  C_20
    4  A    between atoms: C_7  and  C_47
    5  A    between atoms: C_11  and  C_34
    6  A    between atoms: N_13  and  C_25
    7  A    between atoms: N_13  and  C_37
    8  A    between atoms: O_19  and  C_26
    9  A    between atoms: O_19  and  C_55
   10  A    between atoms: C_20  and  C_22
   11  A    between atoms: C_25  and  C_53
   12  A    between atoms: P_31  and  O_50
   13  A    between atoms: C_40  and  O_50
   14  A    between atoms: C_42  and  C_57
   15  A    between atoms: C_43  and  C_57
                            x       y       z     vdW  Elec       q    Type
                         _______ _______ _______ _____ _____    ______ ____

>  <TORSDO>
F 15

$$$$
=
 OpenBabel11042420073D

 58 64  0  0  1  0  0  0  0  0999 V2000
  160.3460  208.1980  153.1530 S   0  0  0  0  0  0  0  0  0  0  0  0
  160.6640  207.8750  156.3230 C   0  0  0  0  0  2  0  0  0  0  0  0
  160.7130  206.6690  155.3950 C   0  0  0  0  0  2  0  0  0  0  0  0
  159.8200  208.9940  155.7290 C   0  0  0  0  0  2  0  0  0  0  0  0
  160.4460  209.5070  154.4360 C   0  0  2  0  0  3  0  0  0  0  0  0
  161.3940  207.0300  154.0850 C   0  0  1  0  0  3  0  0  0  0  0  0
  160.0060  211.3140  152.5580 C   0  0  1  0  0  3  0  0  0  0  0  0
  160.8550  211.9070  153.6700 C   0  0  0  0  0  2  0  0  0  0  0  0
  159.8140  210.8500  154.0050 C   0  0  2  0  0  0  0  0  0  0  0  0
  156.4030  211.0500  155.6540 C   0  0  0  0  0  3  0  0  0  0  0  0
  157.3480  210.7520  154.7630 C   0  0  0  0  0  3  0  0  0  0  0  0
  157.7900  212.9570  156.5550 C   0  0  0  0  0  2  0  0  0  0  0  0
  158.9040  212.3720  155.7290 C   0  0  0  0  0  3  0  0  0  0  0  0
  158.6780  211.3990  154.8350 C   0  0  0  0  0  0  0  0  0  0  0  0
  156.6650  212.0280  156.6670 N   0  0  0  0  0  2  0  0  0  0  0  0
  158.9880  212.3450  152.0850 C   0  0  0  0  0  2  0  0  0  0  0  0
  159.6860  213.4620  151.3270 C   0  0  0  0  0  2  0  0  0  0  0  0
  160.5300  212.9040  150.2790 N   0  0  0  0  0  2  0  0  0  0  0  0
  162.5300  214.2450  148.7520 C   0  0  0  0  0  2  0  0  0  0  0  0
  159.1870  212.6910  148.2770 C   0  0  0  0  0  2  0  0  0  0  0  0
  160.1750  213.5700  149.0340 C   0  0  2  0  0  3  0  0  0  0  0  0
  161.3970  213.8370  148.1770 C   0  0  0  0  0  0  0  0  0  0  0  0
  159.8030  213.9090  146.1970 C   0  0  0  0  0  0  0  0  0  0  0  0
  160.5920  213.6050  143.8350 C   0  0  2  0  0  3  0  0  0  0  0  0
  162.0220  213.8630  144.3490 C   0  0  0  0  0  2  0  0  0  0  0  0
  159.5720  214.2990  144.7580 C   0  0  1  0  0  3  0  0  0  0  0  0
  162.1980  213.4250  145.8120 C   0  0  0  0  0  2  0  0  0  0  0  0
  161.2020  214.1610  146.7110 C   0  0  2  0  0  3  0  0  0  0  0  0
  158.8800  213.2500  146.9180 C   0  0  0  0  0  3  0  0  0  0  0  0
  158.1460  214.2400  144.2840 C   0  0  0  0  0  0  0  0  0  0  0  0
  157.8900  214.4010  143.0590 O   0  0  0  0  0  0  0  0  0  0  0  0
  157.1020  214.0910  145.1860 O   0  0  0  0  0  1  0  0  0  0  0  0
  160.6220  211.6300  142.3000 C   0  0  0  0  0  1  0  0  0  0  0  0
  160.3320  212.1040  143.7100 C   0  0  0  0  0  2  0  0  0  0  0  0
  161.6040  205.7680  153.2650 C   0  0  0  0  0  2  0  0  0  0  0  0
  162.2420  206.0870  151.9970 N   0  0  0  0  0  2  0  0  0  0  0  0
  160.8340  209.8930  150.4740 F   0  0  0  0  0  0  0  0  0  0  0  0
  162.0650  209.3550  150.1390 C   0  0  0  0  0  0  0  0  0  0  0  0
  161.5340  207.2220  151.4230 C   0  0  1  0  0  3  0  0  0  0  0  0
  161.9470  208.6320  148.7810 C   0  0  1  0  0  3  0  0  0  0  0  0
  162.9810  210.3900  150.0460 F   0  0  0  0  0  0  0  0  0  0  0  0
  163.0720  208.8400  148.0050 F   0  0  0  0  0  0  0  0  0  0  0  0
  162.5110  208.3960  151.2430 C   0  0  0  0  0  2  0  0  0  0  0  0
  161.6860  207.1230  148.8990 C   0  0  1  0  0  3  0  0  0  0  0  0
  160.8290  206.8050  150.1240 C   0  0  0  0  0  2  0  0  0  0  0  0
  161.0490  206.6680  147.7420 O   0  0  0  0  0  0  0  0  0  0  0  0
  162.4960  204.7950  147.3140 C   0  0  0  0  0  2  0  0  0  0  0  0
  161.1260  204.0130  145.3890 C   0  0  0  0  0  2  0  0  0  0  0  0
  162.0750  206.2130  146.9070 C   0  0  1  0  0  3  0  0  0  0  0  0
  161.6110  206.2090  145.4470 C   0  0  0  0  0  2  0  0  0  0  0  0
  160.5580  205.2940  145.2760 O   0  0  0  0  0  0  0  0  0  0  0  0
  161.5130  203.7050  146.8570 C   0  0  2  0  0  0  0  0  0  0  0  0
  160.2880  203.7620  147.7700 C   0  0  0  0  0  1  0  0  0  0  0  0
  162.1860  202.4630  147.0040 O   0  0  0  0  0  0  0  0  0  0  0  0
  162.0120  199.9870  148.0160 O   0  0  0  0  0  1  0  0  0  0  0  0
  160.9310  201.9070  149.4260 O   0  0  0  0  0  1  0  0  0  0  0  0
  161.2740  201.3030  147.8840 P   0  0  0  0  0  0  0  0  0  0  0  0
  159.8130  201.0300  147.0710 O   0  0  0  0  0  0  0  0  0  0  0  0
  1  6  1  0  0  0  0
  1  5  1  0  0  0  0
  3  2  1  0  0  0  0
  4  2  1  0  0  0  0
  5  4  1  1  0  0  0
  6 35  1  6  0  0  0
  6  3  1  0  0  0  0
  7 16  1  1  0  0  0
  7  8  1  0  0  0  0
  7  9  1  0  0  0  0
  8  9  1  0  0  0  0
  9  5  1  0  0  0  0
  9 14  1  1  0  0  0
 10 15  1  0  0  0  0
 11 14  1  0  0  0  0
 11 10  2  0  0  0  0
 12 15  1  0  0  0  0
 13 12  1  0  0  0  0
 14 13  2  0  0  0  0
 17 16  1  0  0  0  0
 18 17  1  0  0  0  0
 20 21  1  0  0  0  0
 21 18  1  1  0  0  0
 22 19  2  0  0  0  0
 22 21  1  0  0  0  0
 23 28  1  0  0  0  0
 23 29  2  0  0  0  0
 24 34  1  1  0  0  0
 24 25  1  0  0  0  0
 24 26  1  0  0  0  0
 25 27  1  0  0  0  0
 26 30  1  6  0  0  0
 26 23  1  0  0  0  0
 28 27  1  6  0  0  0
 28 22  1  0  0  0  0
 29 20  1  0  0  0  0
 30 32  1  0  0  0  0
 31 30  2  0  0  0  0
 33 34  1  0  0  0  0
 36 35  1  0  0  0  0
 38 37  1  0  0  0  0
 38 43  1  0  0  0  0
 39 36  1  6  0  0  0
 40 42  1  1  0  0  0
 40 44  1  0  0  0  0
 40 38  1  0  0  0  0
 41 38  1  0  0  0  0
 43 39  1  0  0  0  0
 44 46  1  6  0  0  0
 44 45  1  0  0  0  0
 45 39  1  0  0  0  0
 48 52  1  0  0  0  0
 49 47  1  0  0  0  0
 49 46  1  1  0  0  0
 50 49  1  0  0  0  0
 51 48  1  0  0  0  0
 51 50  1  0  0  0  0
 52 54  1  0  0  0  0
 52 47  1  0  0  0  0
 52 53  1  1  0  0  0
 54 57  1  0  0  0  0
 57 55  1  0  0  0  0
 57 56  1  0  0  0  0
 58 57  2  0  0  0  0
M  END
>  <MODEL>
5

>  <REMARK>
 VINA RESULT:      -4.5      3.532      8.864
  Name = 
  15 active torsions:
  status: ('A' for Active; 'I' for Inactive)
    1  A    between atoms: N_3  and  C_4
    2  A    between atoms: N_3  and  C_15
    3  A    between atoms: C_4  and  C_20
    4  A    between atoms: C_7  and  C_47
    5  A    between atoms: C_11  and  C_34
    6  A    between atoms: N_13  and  C_25
    7  A    between atoms: N_13  and  C_37
    8  A    between atoms: O_19  and  C_26
    9  A    between atoms: O_19  and  C_55
   10  A    between atoms: C_20  and  C_22
   11  A    between atoms: C_25  and  C_53
   12  A    between atoms: P_31  and  O_50
   13  A    between atoms: C_40  and  O_50
   14  A    between atoms: C_42  and  C_57
   15  A    between atoms: C_43  and  C_57
                            x       y       z     vdW  Elec       q    Type
                         _______ _______ _______ _____ _____    ______ ____

>  <TORSDO>
F 15

$$$$
=
 OpenBabel11042420073D

 58 64  0  0  1  0  0  0  0  0999 V2000
  160.5200  212.6080  145.4690 S   0  0  0  0  0  0  0  0  0  0  0  0
  163.3380  214.1210  145.3160 C   0  0  0  0  0  2  0  0  0  0  0  0
  162.7260  213.4610  144.0890 C   0  0  0  0  0  2  0  0  0  0  0  0
  162.8860  213.4310  146.5970 C   0  0  0  0  0  2  0  0  0  0  0  0
  161.3770  213.5720  146.7750 C   0  0  2  0  0  3  0  0  0  0  0  0
  161.2120  213.6020  144.1050 C   0  0  1  0  0  3  0  0  0  0  0  0
  159.6980  213.8570  148.7950 C   0  0  1  0  0  3  0  0  0  0  0  0
  161.0790  214.3530  149.1860 C   0  0  0  0  0  2  0  0  0  0  0  0
  160.9480  213.1940  148.2110 C   0  0  2  0  0  0  0  0  0  0  0  0
  162.1330  210.6860  150.7990 C   0  0  0  0  0  3  0  0  0  0  0  0
  161.9150  211.8530  150.1930 C   0  0  0  0  0  3  0  0  0  0  0  0
  161.8840  209.4520  148.6100 C   0  0  0  0  0  2  0  0  0  0  0  0
  161.3660  210.7600  148.0760 C   0  0  0  0  0  3  0  0  0  0  0  0
  161.4570  211.8940  148.7860 C   0  0  0  0  0  0  0  0  0  0  0  0
  161.9550  209.4640  150.0720 N   0  0  0  0  0  2  0  0  0  0  0  0
  159.0720  213.1070  149.9650 C   0  0  0  0  0  2  0  0  0  0  0  0
  157.9750  213.9450  150.6000 C   0  0  0  0  0  2  0  0  0  0  0  0
  157.7170  213.4850  151.9580 N   0  0  0  0  0  2  0  0  0  0  0  0
  159.4070  214.1840  154.1440 C   0  0  0  0  0  2  0  0  0  0  0  0
  158.3440  211.1660  152.2530 C   0  0  0  0  0  2  0  0  0  0  0  0
  158.8180  212.6120  152.3380 C   0  0  2  0  0  3  0  0  0  0  0  0
  159.3120  212.9160  153.7390 C   0  0  0  0  0  0  0  0  0  0  0  0
  160.2100  210.5380  153.7730 C   0  0  0  0  0  0  0  0  0  0  0  0
  160.7610  209.3490  155.9130 C   0  0  2  0  0  3  0  0  0  0  0  0
  160.7220  210.7220  156.6100 C   0  0  0  0  0  2  0  0  0  0  0  0
  161.1210  209.5270  154.4260 C   0  0  1  0  0  3  0  0  0  0  0  0
  159.7620  211.6990  155.9120 C   0  0  0  0  0  2  0  0  0  0  0  0
  160.1680  211.8900  154.4480 C   0  0  2  0  0  3  0  0  0  0  0  0
  159.3860  210.2140  152.7620 C   0  0  0  0  0  3  0  0  0  0  0  0
  161.3280  208.2460  153.6660 C   0  0  0  0  0  0  0  0  0  0  0  0
  162.2670  207.4720  153.9960 O   0  0  0  0  0  1  0  0  0  0  0  0
  160.5500  207.9420  152.5580 O   0  0  0  0  0  0  0  0  0  0  0  0
  159.6700  207.2050  156.6000 C   0  0  0  0  0  1  0  0  0  0  0  0
  159.4320  208.6160  156.1030 C   0  0  0  0  0  2  0  0  0  0  0  0
  160.6500  213.1130  142.7810 C   0  0  0  0  0  2  0  0  0  0  0  0
  159.5960  214.0040  142.3180 N   0  0  0  0  0  2  0  0  0  0  0  0
  156.3130  212.3250  140.0410 F   0  0  0  0  0  0  0  0  0  0  0  0
  156.9090  213.5330  139.7260 C   0  0  0  0  0  0  0  0  0  0  0  0
  158.6500  213.2050  141.5540 C   0  0  1  0  0  3  0  0  0  0  0  0
  157.9550  213.3060  138.6140 C   0  0  1  0  0  3  0  0  0  0  0  0
  155.9250  214.4000  139.2800 F   0  0  0  0  0  0  0  0  0  0  0  0
  157.9420  214.3410  137.6970 F   0  0  0  0  0  0  0  0  0  0  0  0
  157.5530  214.1190  140.9830 C   0  0  0  0  0  2  0  0  0  0  0  0
  159.3850  213.1090  139.1350 C   0  0  1  0  0  3  0  0  0  0  0  0
  159.3880  212.3890  140.4830 C   0  0  0  0  0  2  0  0  0  0  0  0
  160.1250  212.3750  138.2030 O   0  0  0  0  0  0  0  0  0  0  0  0
  160.6470  210.3950  139.4650 C   0  0  0  0  0  2  0  0  0  0  0  0
  161.9400  209.3880  137.5910 C   0  0  0  0  0  2  0  0  0  0  0  0
  161.1370  211.7510  138.9400 C   0  0  1  0  0  3  0  0  0  0  0  0
  162.3790  211.5430  138.0680 C   0  0  0  0  0  2  0  0  0  0  0  0
  162.0890  210.6620  137.0130 O   0  0  0  0  0  0  0  0  0  0  0  0
  160.6190  209.2940  138.3920 C   0  0  2  0  0  0  0  0  0  0  0  0
  159.4110  209.5460  137.4890 C   0  0  0  0  0  1  0  0  0  0  0  0
  160.4750  208.0590  139.0810 O   0  0  0  0  0  0  0  0  0  0  0  0
  162.6550  206.5440  138.7060 O   0  0  0  0  0  0  0  0  0  0  0  0
  162.9820  208.7480  140.0770 O   0  0  0  0  0  1  0  0  0  0  0  0
  161.9600  207.4550  139.6970 P   0  0  0  0  0  0  0  0  0  0  0  0
  161.6440  206.5810  141.1140 O   0  0  0  0  0  1  0  0  0  0  0  0
  1  5  1  0  0  0  0
  2  4  1  0  0  0  0
  3  6  1  0  0  0  0
  3  2  1  0  0  0  0
  5  4  1  1  0  0  0
  5  9  1  0  0  0  0
  6 35  1  6  0  0  0
  6  1  1  0  0  0  0
  7  8  1  0  0  0  0
  7 16  1  1  0  0  0
  9 14  1  1  0  0  0
  9  7  1  0  0  0  0
  9  8  1  0  0  0  0
 11 10  2  0  0  0  0
 12 15  1  0  0  0  0
 13 12  1  0  0  0  0
 13 14  2  0  0  0  0
 14 11  1  0  0  0  0
 15 10  1  0  0  0  0
 16 17  1  0  0  0  0
 17 18  1  0  0  0  0
 20 21  1  0  0  0  0
 20 29  1  0  0  0  0
 21 18  1  1  0  0  0
 21 22  1  0  0  0  0
 22 19  2  0  0  0  0
 22 28  1  0  0  0  0
 23 26  1  0  0  0  0
 23 28  1  0  0  0  0
 24 34  1  6  0  0  0
 24 25  1  0  0  0  0
 26 30  1  6  0  0  0
 26 24  1  0  0  0  0
 27 25  1  0  0  0  0
 28 27  1  1  0  0  0
 29 23  2  0  0  0  0
 30 31  1  0  0  0  0
 32 30  2  0  0  0  0
 34 33  1  0  0  0  0
 36 35  1  0  0  0  0
 38 37  1  0  0  0  0
 38 43  1  0  0  0  0
 39 36  1  6  0  0  0
 40 42  1  6  0  0  0
 40 44  1  0  0  0  0
 40 38  1  0  0  0  0
 41 38  1  0  0  0  0
 43 39  1  0  0  0  0
 44 46  1  6  0  0  0
 44 45  1  0  0  0  0
 45 39  1  0  0  0  0
 48 52  1  0  0  0  0
 49 46  1  6  0  0  0
 49 47  1  0  0  0  0
 50 49  1  0  0  0  0
 51 48  1  0  0  0  0
 51 50  1  0  0  0  0
 52 53  1  6  0  0  0
 52 54  1  0  0  0  0
 52 47  1  0  0  0  0
 54 57  1  0  0  0  0
 55 57  2  0  0  0  0
 57 56  1  0  0  0  0
 57 58  1  0  0  0  0
M  END
>  <MODEL>
6

>  <REMARK>
 VINA RESULT:      -4.5      4.189      7.261
  Name = 
  15 active torsions:
  status: ('A' for Active; 'I' for Inactive)
    1  A    between atoms: N_3  and  C_4
    2  A    between atoms: N_3  and  C_15
    3  A    between atoms: C_4  and  C_20
    4  A    between atoms: C_7  and  C_47
    5  A    between atoms: C_11  and  C_34
    6  A    between atoms: N_13  and  C_25
    7  A    between atoms: N_13  and  C_37
    8  A    between atoms: O_19  and  C_26
    9  A    between atoms: O_19  and  C_55
   10  A    between atoms: C_20  and  C_22
   11  A    between atoms: C_25  and  C_53
   12  A    between atoms: P_31  and  O_50
   13  A    between atoms: C_40  and  O_50
   14  A    between atoms: C_42  and  C_57
   15  A    between atoms: C_43  and  C_57
                            x       y       z     vdW  Elec       q    Type
                         _______ _______ _______ _____ _____    ______ ____

>  <TORSDO>
F 15

$$$$
=
 OpenBabel11042420073D

 58 64  0  0  1  0  0  0  0  0999 V2000
  162.2020  207.1990  147.5170 S   0  0  0  0  0  0  0  0  0  0  0  0
  160.8000  205.2500  149.6380 C   0  0  0  0  0  2  0  0  0  0  0  0
  161.7430  206.3590  150.0840 C   0  0  0  0  0  2  0  0  0  0  0  0
  161.1420  204.7680  148.2340 C   0  0  0  0  0  2  0  0  0  0  0  0
  160.9470  205.8920  147.2210 C   0  0  2  0  0  3  0  0  0  0  0  0
  161.5890  207.5820  149.1930 C   0  0  1  0  0  3  0  0  0  0  0  0
  161.5570  206.2120  144.6700 C   0  0  1  0  0  3  0  0  0  0  0  0
  160.0500  206.1470  144.8460 C   0  0  0  0  0  2  0  0  0  0  0  0
  160.9480  205.3460  145.7750 C   0  0  2  0  0  0  0  0  0  0  0  0
  161.3090  201.6290  146.4470 C   0  0  0  0  0  3  0  0  0  0  0  0
  161.5930  202.9310  146.4220 C   0  0  0  0  0  3  0  0  0  0  0  0
  159.7080  201.8950  144.5130 C   0  0  0  0  0  2  0  0  0  0  0  0
  159.8650  203.3730  144.7490 C   0  0  0  0  0  3  0  0  0  0  0  0
  160.8010  203.8560  145.5790 C   0  0  0  0  0  0  0  0  0  0  0  0
  160.2520  201.1160  145.6270 N   0  0  0  0  0  2  0  0  0  0  0  0
  161.9610  205.4450  143.4160 C   0  0  0  0  0  2  0  0  0  0  0  0
  161.5780  206.2320  142.1730 C   0  0  0  0  0  2  0  0  0  0  0  0
  162.6470  206.1620  141.1870 N   0  0  0  0  0  2  0  0  0  0  0  0
  162.1470  206.2090  138.3810 C   0  0  0  0  0  2  0  0  0  0  0  0
  161.9560  208.4780  141.3190 C   0  0  0  0  0  2  0  0  0  0  0  0
  162.6540  207.4260  140.4650 C   0  0  2  0  0  3  0  0  0  0  0  0
  161.9610  207.3040  139.1210 C   0  0  0  0  0  0  0  0  0  0  0  0
  161.5950  209.8160  139.2530 C   0  0  0  0  0  0  0  0  0  0  0  0
  159.8500  210.9860  137.8810 C   0  0  2  0  0  3  0  0  0  0  0  0
  159.7770  209.7170  137.0110 C   0  0  0  0  0  2  0  0  0  0  0  0
  161.2420  211.0940  138.5330 C   0  0  1  0  0  3  0  0  0  0  0  0
  160.1260  208.4490  137.8070 C   0  0  0  0  0  2  0  0  0  0  0  0
  161.5300  208.5660  138.4070 C   0  0  2  0  0  3  0  0  0  0  0  0
  161.8040  209.7760  140.5810 C   0  0  0  0  0  3  0  0  0  0  0  0
  161.4880  212.3660  139.2970 C   0  0  0  0  0  0  0  0  0  0  0  0
  161.0440  213.4580  138.8470 O   0  0  0  0  0  0  0  0  0  0  0  0
  162.2620  212.3670  140.4480 O   0  0  0  0  0  1  0  0  0  0  0  0
  157.5820  211.8700  138.4580 C   0  0  0  0  0  1  0  0  0  0  0  0
  158.7260  210.9890  138.9170 C   0  0  0  0  0  2  0  0  0  0  0  0
  162.3900  208.7320  149.7790 C   0  0  0  0  0  2  0  0  0  0  0  0
  161.5580  209.5290  150.6680 N   0  0  0  0  0  2  0  0  0  0  0  0
  162.2680  213.5260  149.1500 F   0  0  0  0  0  0  0  0  0  0  0  0
  161.0990  212.8250  148.9110 C   0  0  0  0  0  0  0  0  0  0  0  0
  161.8720  210.9290  150.4250 C   0  0  1  0  0  3  0  0  0  0  0  0
  160.0260  213.2710  149.9270 C   0  0  1  0  0  3  0  0  0  0  0  0
  160.6770  213.1080  147.6230 F   0  0  0  0  0  0  0  0  0  0  0  0
  158.7820  213.3630  149.3320 F   0  0  0  0  0  0  0  0  0  0  0  0
  161.3800  211.3260  149.0230 C   0  0  0  0  0  2  0  0  0  0  0  0
  159.9290  212.3700  151.1670 C   0  0  1  0  0  3  0  0  0  0  0  0
  161.2960  211.8050  151.5470 C   0  0  0  0  0  2  0  0  0  0  0  0
  159.4020  213.1010  152.2350 O   0  0  0  0  0  0  0  0  0  0  0  0
  158.4830  211.2600  153.4820 C   0  0  0  0  0  2  0  0  0  0  0  0
  157.7570  212.7270  155.3570 C   0  0  0  0  0  2  0  0  0  0  0  0
  158.2040  212.4610  152.5680 C   0  0  1  0  0  3  0  0  0  0  0  0
  157.2600  213.4350  153.2800 C   0  0  0  0  0  2  0  0  0  0  0  0
  157.8170  213.8430  154.5040 O   0  0  0  0  0  0  0  0  0  0  0  0
  158.7890  211.6510  154.9370 C   0  0  2  0  0  0  0  0  0  0  0  0
  160.2120  212.2080  154.9860 C   0  0  0  0  0  1  0  0  0  0  0  0
  158.6930  210.4610  155.7060 O   0  0  0  0  0  0  0  0  0  0  0  0
  160.4760  209.2610  154.1040 O   0  0  0  0  0  0  0  0  0  0  0  0
  161.3640  210.1130  156.4130 O   0  0  0  0  0  1  0  0  0  0  0  0
  160.0700  209.4450  155.5510 P   0  0  0  0  0  0  0  0  0  0  0  0
  159.7030  207.9290  156.2140 O   0  0  0  0  0  1  0  0  0  0  0  0
  1  6  1  0  0  0  0
  2  3  1  0  0  0  0
  4  2  1  0  0  0  0
  5  1  1  0  0  0  0
  5  4  1  1  0  0  0
  6 35  1  1  0  0  0
  6  3  1  0  0  0  0
  7 16  1  6  0  0  0
  7  8  1  0  0  0  0
  7  9  1  0  0  0  0
  8  9  1  0  0  0  0
  9 14  1  6  0  0  0
  9  5  1  0  0  0  0
 11 10  2  0  0  0  0
 12 13  1  0  0  0  0
 12 15  1  0  0  0  0
 13 14  2  0  0  0  0
 14 11  1  0  0  0  0
 15 10  1  0  0  0  0
 17 16  1  0  0  0  0
 18 17  1  0  0  0  0
 19 22  2  0  0  0  0
 21 18  1  1  0  0  0
 21 20  1  0  0  0  0
 22 21  1  0  0  0  0
 23 29  2  0  0  0  0
 24 26  1  0  0  0  0
 24 34  1  1  0  0  0
 25 27  1  0  0  0  0
 25 24  1  0  0  0  0
 26 23  1  0  0  0  0
 26 30  1  1  0  0  0
 28 27  1  1  0  0  0
 28 22  1  0  0  0  0
 28 23  1  0  0  0  0
 29 20  1  0  0  0  0
 30 32  1  0  0  0  0
 31 30  2  0  0  0  0
 33 34  1  0  0  0  0
 35 36  1  0  0  0  0
 38 43  1  0  0  0  0
 38 37  1  0  0  0  0
 38 40  1  0  0  0  0
 39 36  1  1  0  0  0
 39 45  1  0  0  0  0
 40 42  1  6  0  0  0
 40 44  1  0  0  0  0
 41 38  1  0  0  0  0
 43 39  1  0  0  0  0
 44 45  1  0  0  0  0
 44 46  1  1  0  0  0
 47 52  1  0  0  0  0
 49 46  1  1  0  0  0
 49 50  1  0  0  0  0
 49 47  1  0  0  0  0
 50 51  1  0  0  0  0
 51 48  1  0  0  0  0
 52 53  1  1  0  0  0
 52 48  1  0  0  0  0
 52 54  1  0  0  0  0
 55 57  2  0  0  0  0
 57 54  1  0  0  0  0
 57 58  1  0  0  0  0
 57 56  1  0  0  0  0
M  END
>  <MODEL>
7

>  <REMARK>
 VINA RESULT:      -3.8      5.270     10.747
  Name = 
  15 active torsions:
  status: ('A' for Active; 'I' for Inactive)
    1  A    between atoms: N_3  and  C_4
    2  A    between atoms: N_3  and  C_15
    3  A    between atoms: C_4  and  C_20
    4  A    between atoms: C_7  and  C_47
    5  A    between atoms: C_11  and  C_34
    6  A    between atoms: N_13  and  C_25
    7  A    between atoms: N_13  and  C_37
    8  A    between atoms: O_19  and  C_26
    9  A    between atoms: O_19  and  C_55
   10  A    between atoms: C_20  and  C_22
   11  A    between atoms: C_25  and  C_53
   12  A    between atoms: P_31  and  O_50
   13  A    between atoms: C_40  and  O_50
   14  A    between atoms: C_42  and  C_57
   15  A    between atoms: C_43  and  C_57
                            x       y       z     vdW  Elec       q    Type
                         _______ _______ _______ _____ _____    ______ ____

>  <TORSDO>
F 15

$$$$
