=
 OpenBabel11052410493D

 28 30  0  0  1  0  0  0  0  0999 V2000
  161.2750  206.9770  150.4820 C   0  0  0  0  0  0  0  0  0  0  0  0
  161.3090  205.3920  152.8010 C   0  0  0  0  0  3  0  0  0  0  0  0
  161.3210  204.7900  151.5420 C   0  0  0  0  0  0  0  0  0  0  0  0
  161.2810  206.7830  152.9090 C   0  0  0  0  0  3  0  0  0  0  0  0
  161.3020  205.5800  150.3920 C   0  0  0  0  0  3  0  0  0  0  0  0
  161.2580  207.5890  151.7610 C   0  0  0  0  0  0  0  0  0  0  0  0
  161.2220  209.0120  151.9150 N   0  0  0  0  0  0  0  0  0  0  0  0
  160.0680  210.2260  153.6770 C   0  0  0  0  0  2  0  0  0  0  0  0
  161.2370  211.1000  153.7890 N   0  0  0  0  0  2  0  0  0  0  0  0
  162.4450  210.3030  153.5750 C   0  0  0  0  0  2  0  0  0  0  0  0
  159.9670  209.6730  152.2570 C   0  0  0  0  0  2  0  0  0  0  0  0
  162.4600  209.7500  152.1510 C   0  0  0  0  0  2  0  0  0  0  0  0
  161.3150  207.7420  149.1880 C   0  0  1  0  0  3  0  0  0  0  0  0
  162.2650  208.7670  149.2220 O   0  0  0  0  0  1  0  0  0  0  0  0
  163.1100  205.3970  146.7950 C   0  0  0  0  0  3  0  0  0  0  0  0
  161.4440  206.8610  147.9740 C   0  0  0  0  0  0  0  0  0  0  0  0
  160.3510  206.7450  147.1170 C   0  0  0  0  0  3  0  0  0  0  0  0
  161.1210  205.2140  145.2740 C   0  0  0  0  0  0  0  0  0  0  0  0
  162.6770  206.2430  147.8050 C   0  0  0  0  0  3  0  0  0  0  0  0
  162.4220  204.9450  145.6790 C   0  0  0  0  0  3  0  0  0  0  0  0
  160.2110  206.0250  145.9390 C   0  0  0  0  0  3  0  0  0  0  0  0
  160.7320  204.6720  144.2080 O   0  0  0  0  0  0  0  0  0  0  0  0
  161.3210  203.3070  151.4250 C   0  0  0  0  0  2  0  0  0  0  0  0
  160.0790  202.8710  150.9590 O   0  0  0  0  0  0  0  0  0  0  0  0
  160.4200  201.9180  149.5980 P   0  0  1  0  0  0  0  0  0  0  0  0
  159.1340  201.3170  149.0810 O   0  0  0  0  0  0  0  0  0  0  0  0
  161.1370  202.9060  148.3420 N   0  0  0  0  0  1  0  0  0  0  0  0
  161.4860  200.6730  150.0170 O   0  0  0  0  0  1  0  0  0  0  0  0
  1  6  1  0  0  0  0
  2  4  1  0  0  0  0
  3  2  2  0  0  0  0
  5  1  2  0  0  0  0
  5  3  1  0  0  0  0
  6  7  1  0  0  0  0
  6  4  2  0  0  0  0
  7 12  1  0  0  0  0
  7 11  1  0  0  0  0
  8  9  1  0  0  0  0
 10  9  1  0  0  0  0
 11  8  1  0  0  0  0
 12 10  1  0  0  0  0
 13 14  1  1  0  0  0
 13  1  1  0  0  0  0
 15 19  1  0  0  0  0
 16 13  1  0  0  0  0
 17 16  1  0  0  0  0
 18 20  1  0  0  0  0
 18 21  1  0  0  0  0
 19 16  2  0  0  0  0
 20 15  2  0  0  0  0
 21 17  2  0  0  0  0
 22 18  2  0  0  0  0
 23  3  1  0  0  0  0
 24 23  1  0  0  0  0
 25 27  1  6  0  0  0
 25 28  1  0  0  0  0
 25 24  1  0  0  0  0
 26 25  2  0  0  0  0
M  END
>  <MODEL>
1

>  <REMARK>
 VINA RESULT:      -7.3      0.000      0.000
  Name = 
  6 active torsions:
  status: ('A' for Active; 'I' for Inactive)
    1  A    between atoms: N_2  and  C_24
    2  A    between atoms: O_3  and  P_6
    3  A    between atoms: O_3  and  C_17
    4  A    between atoms: C_4  and  C_9
    5  A    between atoms: C_8  and  C_9
    6  A    between atoms: C_12  and  C_17
                            x       y       z     vdW  Elec       q    Type
                         _______ _______ _______ _____ _____    ______ ____

>  <TORSDO>
F 6

$$$$
=
 OpenBabel11052410493D

 28 30  0  0  1  0  0  0  0  0999 V2000
  161.4840  206.5160  150.6370 C   0  0  0  0  0  0  0  0  0  0  0  0
  161.2320  207.2850  147.9470 C   0  0  0  0  0  3  0  0  0  0  0  0
  161.8080  208.1560  148.8720 C   0  0  0  0  0  0  0  0  0  0  0  0
  160.7810  206.0300  148.3570 C   0  0  0  0  0  3  0  0  0  0  0  0
  161.9300  207.7720  150.2080 C   0  0  0  0  0  3  0  0  0  0  0  0
  160.8940  205.6330  149.6980 C   0  0  0  0  0  0  0  0  0  0  0  0
  160.4120  204.3400  150.0800 N   0  0  0  0  0  0  0  0  0  0  0  0
  161.3370  202.2070  149.3690 C   0  0  0  0  0  2  0  0  0  0  0  0
  161.1870  201.7260  150.7430 N   0  0  0  0  0  2  0  0  0  0  0  0
  161.4730  202.8270  151.6630 C   0  0  0  0  0  2  0  0  0  0  0  0
  160.2940  203.2850  149.0790 C   0  0  0  0  0  2  0  0  0  0  0  0
  160.4400  203.9380  151.4840 C   0  0  0  0  0  2  0  0  0  0  0  0
  161.7120  206.1720  152.0820 C   0  0  1  0  0  3  0  0  0  0  0  0
  163.0460  205.8330  152.3300 O   0  0  0  0  0  1  0  0  0  0  0  0
  160.3740  207.4510  155.4020 C   0  0  0  0  0  3  0  0  0  0  0  0
  161.1830  207.2090  153.0370 C   0  0  1  0  0  3  0  0  0  0  0  0
  161.0180  208.5150  152.5770 C   0  0  0  0  0  3  0  0  0  0  0  0
  160.0880  209.7900  154.5370 C   0  0  0  0  0  0  0  0  0  0  0  0
  160.8850  206.7570  154.3160 C   0  0  0  0  0  3  0  0  0  0  0  0
  160.0230  208.7890  155.4970 C   0  0  0  0  0  2  0  0  0  0  0  0
  160.5400  209.6400  153.2320 C   0  0  0  0  0  3  0  0  0  0  0  0
  159.7030  210.9370  154.8810 O   0  0  0  0  0  0  0  0  0  0  0  0
  162.2630  209.5060  148.4410 C   0  0  0  0  0  2  0  0  0  0  0  0
  161.8780  210.4570  149.3890 O   0  0  0  0  0  0  0  0  0  0  0  0
  161.7480  211.9150  148.5330 P   0  0  1  0  0  0  0  0  0  0  0  0
  161.1580  212.9690  149.4410 O   0  0  0  0  0  1  0  0  0  0  0  0
  163.3320  212.4390  148.0000 N   0  0  0  0  0  1  0  0  0  0  0  0
  160.7380  211.7090  147.1910 O   0  0  0  0  0  0  0  0  0  0  0  0
  1 13  1  0  0  0  0
  2  4  2  0  0  0  0
  2  3  1  0  0  0  0
  3  5  2  0  0  0  0
  4  6  1  0  0  0  0
  5  1  1  0  0  0  0
  6  7  1  0  0  0  0
  6  1  2  0  0  0  0
  7 12  1  0  0  0  0
  8  9  1  0  0  0  0
  9 10  1  0  0  0  0
 11  8  1  0  0  0  0
 11  7  1  0  0  0  0
 12 10  1  0  0  0  0
 13 14  1  6  0  0  0
 15 20  1  0  0  0  0
 16 13  1  6  0  0  0
 16 19  1  0  0  0  0
 17 16  1  0  0  0  0
 17 21  2  0  0  0  0
 18 22  2  0  0  0  0
 18 20  1  0  0  0  0
 19 15  2  0  0  0  0
 21 18  1  0  0  0  0
 23  3  1  0  0  0  0
 23 24  1  0  0  0  0
 25 28  2  6  0  0  0
 25 24  1  0  0  0  0
 25 26  1  0  0  0  0
 27 25  1  0  0  0  0
M  END
>  <MODEL>
2

>  <REMARK>
 VINA RESULT:      -6.5      3.746      7.757
  Name = 
  6 active torsions:
  status: ('A' for Active; 'I' for Inactive)
    1  A    between atoms: N_2  and  C_24
    2  A    between atoms: O_3  and  P_6
    3  A    between atoms: O_3  and  C_17
    4  A    between atoms: C_4  and  C_9
    5  A    between atoms: C_8  and  C_9
    6  A    between atoms: C_12  and  C_17
                            x       y       z     vdW  Elec       q    Type
                         _______ _______ _______ _____ _____    ______ ____

>  <TORSDO>
F 6

$$$$
=
 OpenBabel11052410493D

 28 30  0  0  1  0  0  0  0  0999 V2000
  161.2900  206.0130  150.0010 C   0  0  0  0  0  0  0  0  0  0  0  0
  161.8170  208.1910  148.3070 C   0  0  0  0  0  3  0  0  0  0  0  0
  161.2810  207.0130  147.7850 C   0  0  0  0  0  0  0  0  0  0  0  0
  162.0910  208.2880  149.6720 C   0  0  0  0  0  3  0  0  0  0  0  0
  161.0210  205.9320  148.6290 C   0  0  0  0  0  3  0  0  0  0  0  0
  161.8400  207.2070  150.5310 C   0  0  0  0  0  0  0  0  0  0  0  0
  162.1420  207.3440  151.9230 N   0  0  0  0  0  0  0  0  0  0  0  0
  160.6330  208.1840  153.6340 C   0  0  0  0  0  2  0  0  0  0  0  0
  161.0940  207.1090  154.5150 N   0  0  0  0  0  2  0  0  0  0  0  0
  161.3320  205.9090  153.7130 C   0  0  0  0  0  2  0  0  0  0  0  0
  161.7330  208.5480  152.6390 C   0  0  0  0  0  2  0  0  0  0  0  0
  162.4630  206.1620  152.7180 C   0  0  0  0  0  2  0  0  0  0  0  0
  160.9220  204.8180  150.8360 C   0  0  1  0  0  3  0  0  0  0  0  0
  159.7000  204.9980  151.4890 O   0  0  0  0  0  1  0  0  0  0  0  0
  161.0480  201.0350  150.4830 C   0  0  0  0  0  3  0  0  0  0  0  0
  161.0000  203.5150  150.0860 C   0  0  0  0  0  0  0  0  0  0  0  0
  161.1050  203.5520  148.6960 C   0  0  0  0  0  3  0  0  0  0  0  0
  161.2380  201.1420  147.9820 C   0  0  0  0  0  0  0  0  0  0  0  0
  160.9770  202.3660  150.8660 C   0  0  0  0  0  3  0  0  0  0  0  0
  161.1630  200.4980  149.2100 C   0  0  0  0  0  3  0  0  0  0  0  0
  161.2080  202.5160  147.7790 C   0  0  0  0  0  3  0  0  0  0  0  0
  161.3410  200.4150  146.9610 O   0  0  0  0  0  0  0  0  0  0  0  0
  161.0150  206.8980  146.3260 C   0  0  0  0  0  2  0  0  0  0  0  0
  160.2970  205.7290  146.0690 O   0  0  0  0  0  0  0  0  0  0  0  0
  161.2210  204.8750  144.9320 P   0  0  1  0  0  0  0  0  0  0  0  0
  161.2880  205.6720  143.6500 O   0  0  0  0  0  0  0  0  0  0  0  0
  162.8450  204.6330  145.5430 N   0  0  0  0  0  1  0  0  0  0  0  0
  160.5060  203.3740  144.6160 O   0  0  0  0  0  1  0  0  0  0  0  0
  1  6  1  0  0  0  0
  1 13  1  0  0  0  0
  2  4  1  0  0  0  0
  3  2  2  0  0  0  0
  3  5  1  0  0  0  0
  4  6  2  0  0  0  0
  5  1  2  0  0  0  0
  6  7  1  0  0  0  0
  7 11  1  0  0  0  0
  7 12  1  0  0  0  0
  8  9  1  0  0  0  0
 10  9  1  0  0  0  0
 11  8  1  0  0  0  0
 12 10  1  0  0  0  0
 13 14  1  6  0  0  0
 15 19  1  0  0  0  0
 16 13  1  0  0  0  0
 16 19  2  0  0  0  0
 17 16  1  0  0  0  0
 18 20  1  0  0  0  0
 20 15  2  0  0  0  0
 21 18  1  0  0  0  0
 21 17  2  0  0  0  0
 22 18  2  0  0  0  0
 23  3  1  0  0  0  0
 24 23  1  0  0  0  0
 25 26  2  6  0  0  0
 25 27  1  0  0  0  0
 25 24  1  0  0  0  0
 28 25  1  0  0  0  0
M  END
>  <MODEL>
3

>  <REMARK>
 VINA RESULT:      -6.1      2.394      4.503
  Name = 
  6 active torsions:
  status: ('A' for Active; 'I' for Inactive)
    1  A    between atoms: N_2  and  C_24
    2  A    between atoms: O_3  and  P_6
    3  A    between atoms: O_3  and  C_17
    4  A    between atoms: C_4  and  C_9
    5  A    between atoms: C_8  and  C_9
    6  A    between atoms: C_12  and  C_17
                            x       y       z     vdW  Elec       q    Type
                         _______ _______ _______ _____ _____    ______ ____

>  <TORSDO>
F 6

$$$$
=
 OpenBabel11052410493D

 28 30  0  0  1  0  0  0  0  0999 V2000
  161.2060  208.6480  152.8440 C   0  0  0  0  0  0  0  0  0  0  0  0
  161.0110  206.2320  151.4260 C   0  0  0  0  0  3  0  0  0  0  0  0
  161.2060  207.4310  150.7400 C   0  0  0  0  0  0  0  0  0  0  0  0
  160.9130  206.2320  152.8180 C   0  0  0  0  0  3  0  0  0  0  0  0
  161.3010  208.6310  151.4470 C   0  0  0  0  0  3  0  0  0  0  0  0
  161.0020  207.4310  153.5410 C   0  0  0  0  0  0  0  0  0  0  0  0
  160.8890  207.3880  154.9680 N   0  0  0  0  0  0  0  0  0  0  0  0
  161.6660  209.0990  156.5100 C   0  0  0  0  0  2  0  0  0  0  0  0
  160.4200  208.9350  157.2610 N   0  0  0  0  0  2  0  0  0  0  0  0
  159.3310  208.6780  156.3190 C   0  0  0  0  0  2  0  0  0  0  0  0
  162.0180  207.7950  155.7970 C   0  0  0  0  0  2  0  0  0  0  0  0
  159.5700  207.3560  155.5920 C   0  0  0  0  0  2  0  0  0  0  0  0
  161.3780  209.9810  153.5200 C   0  0  1  0  0  3  0  0  0  0  0  0
  162.6560  210.5060  153.3110 O   0  0  0  0  0  1  0  0  0  0  0  0
  157.9950  211.6520  153.9760 C   0  0  0  0  0  3  0  0  0  0  0  0
  160.2810  210.9620  153.2000 C   0  0  1  0  0  3  0  0  0  0  0  0
  160.4550  211.8250  152.1190 C   0  0  0  0  0  3  0  0  0  0  0  0
  158.3420  213.1890  152.0210 C   0  0  0  0  0  0  0  0  0  0  0  0
  159.1620  210.9050  154.0200 C   0  0  0  0  0  3  0  0  0  0  0  0
  157.6350  212.6590  153.0920 C   0  0  0  0  0  2  0  0  0  0  0  0
  159.6080  212.7970  151.6060 C   0  0  0  0  0  3  0  0  0  0  0  0
  157.7850  214.1090  151.3690 O   0  0  0  0  0  0  0  0  0  0  0  0
  161.2810  207.4370  149.2540 C   0  0  0  0  0  2  0  0  0  0  0  0
  160.4990  206.4010  148.7390 O   0  0  0  0  0  0  0  0  0  0  0  0
  161.3360  205.8430  147.3740 P   0  0  1  0  0  0  0  0  0  0  0  0
  162.6810  206.5280  147.3040 O   0  0  0  0  0  1  0  0  0  0  0  0
  161.5800  204.1120  147.4890 N   0  0  0  0  0  1  0  0  0  0  0  0
  160.4580  206.1990  145.9720 O   0  0  0  0  0  0  0  0  0  0  0  0
  1 13  1  0  0  0  0
  1  6  1  0  0  0  0
  2  4  1  0  0  0  0
  3  2  2  0  0  0  0
  3  5  1  0  0  0  0
  4  6  2  0  0  0  0
  5  1  2  0  0  0  0
  6  7  1  0  0  0  0
  7 12  1  0  0  0  0
  7 11  1  0  0  0  0
  8  9  1  0  0  0  0
 10  9  1  0  0  0  0
 11  8  1  0  0  0  0
 12 10  1  0  0  0  0
 13 14  1  6  0  0  0
 15 19  2  0  0  0  0
 16 13  1  6  0  0  0
 16 19  1  0  0  0  0
 17 16  1  0  0  0  0
 18 20  1  0  0  0  0
 20 15  1  0  0  0  0
 21 18  1  0  0  0  0
 21 17  2  0  0  0  0
 22 18  2  0  0  0  0
 23  3  1  0  0  0  0
 24 23  1  0  0  0  0
 25 28  2  6  0  0  0
 25 27  1  0  0  0  0
 25 24  1  0  0  0  0
 26 25  1  0  0  0  0
M  END
>  <MODEL>
4

>  <REMARK>
 VINA RESULT:      -6.0      2.995      6.282
  Name = 
  6 active torsions:
  status: ('A' for Active; 'I' for Inactive)
    1  A    between atoms: N_2  and  C_24
    2  A    between atoms: O_3  and  P_6
    3  A    between atoms: O_3  and  C_17
    4  A    between atoms: C_4  and  C_9
    5  A    between atoms: C_8  and  C_9
    6  A    between atoms: C_12  and  C_17
                            x       y       z     vdW  Elec       q    Type
                         _______ _______ _______ _____ _____    ______ ____

>  <TORSDO>
F 6

$$$$
=
 OpenBabel11052410493D

 28 30  0  0  1  0  0  0  0  0999 V2000
  159.7210  212.2190  153.2560 C   0  0  0  0  0  0  0  0  0  0  0  0
  157.8310  213.5130  151.6300 C   0  0  0  0  0  3  0  0  0  0  0  0
  159.1100  213.2480  151.1400 C   0  0  0  0  0  0  0  0  0  0  0  0
  157.4890  213.1340  152.9290 C   0  0  0  0  0  3  0  0  0  0  0  0
  160.0480  212.6060  151.9510 C   0  0  0  0  0  3  0  0  0  0  0  0
  158.4240  212.4930  153.7570 C   0  0  0  0  0  0  0  0  0  0  0  0
  158.0360  212.1280  155.0860 N   0  0  0  0  0  0  0  0  0  0  0  0
  156.4540  213.3270  156.4890 C   0  0  0  0  0  2  0  0  0  0  0  0
  155.8860  212.0380  156.8860 N   0  0  0  0  0  2  0  0  0  0  0  0
  155.9120  211.1350  155.7350 C   0  0  0  0  0  2  0  0  0  0  0  0
  157.9250  213.1540  156.1170 C   0  0  0  0  0  2  0  0  0  0  0  0
  157.3560  210.8570  155.3220 C   0  0  0  0  0  2  0  0  0  0  0  0
  160.7790  211.4830  154.0310 C   0  0  1  0  0  3  0  0  0  0  0  0
  160.7240  211.7810  155.3950 O   0  0  0  0  0  1  0  0  0  0  0  0
  160.7090  207.7940  154.9440 C   0  0  0  0  0  3  0  0  0  0  0  0
  160.8050  210.0030  153.7540 C   0  0  1  0  0  3  0  0  0  0  0  0
  160.9470  209.5750  152.4340 C   0  0  0  0  0  3  0  0  0  0  0  0
  160.9670  207.0620  152.5560 C   0  0  0  0  0  0  0  0  0  0  0  0
  160.7000  209.1780  154.8660 C   0  0  0  0  0  3  0  0  0  0  0  0
  160.8270  206.8630  153.9230 C   0  0  0  0  0  2  0  0  0  0  0  0
  161.0170  208.2920  151.9130 C   0  0  0  0  0  3  0  0  0  0  0  0
  161.0560  206.0350  151.8360 O   0  0  0  0  0  0  0  0  0  0  0  0
  159.4850  213.6770  149.7660 C   0  0  0  0  0  2  0  0  0  0  0  0
  160.8650  213.8760  149.6940 O   0  0  0  0  0  0  0  0  0  0  0  0
  161.3950  212.8920  148.4190 P   0  0  1  0  0  0  0  0  0  0  0  0
  160.2250  212.5830  147.5140 O   0  0  0  0  0  0  0  0  0  0  0  0
  162.6310  213.7230  147.4970 N   0  0  0  0  0  1  0  0  0  0  0  0
  162.0230  211.4440  149.0290 O   0  0  0  0  0  1  0  0  0  0  0  0
  1  6  1  0  0  0  0
  1 13  1  0  0  0  0
  2  4  1  0  0  0  0
  3  2  2  0  0  0  0
  3  5  1  0  0  0  0
  4  6  2  0  0  0  0
  5  1  2  0  0  0  0
  6  7  1  0  0  0  0
  7 12  1  0  0  0  0
  7 11  1  0  0  0  0
  8  9  1  0  0  0  0
 10  9  1  0  0  0  0
 11  8  1  0  0  0  0
 12 10  1  0  0  0  0
 13 14  1  1  0  0  0
 16 13  1  1  0  0  0
 16 19  1  0  0  0  0
 17 16  1  0  0  0  0
 18 20  1  0  0  0  0
 19 15  2  0  0  0  0
 20 15  1  0  0  0  0
 21 17  2  0  0  0  0
 21 18  1  0  0  0  0
 22 18  2  0  0  0  0
 23  3  1  0  0  0  0
 24 23  1  0  0  0  0
 25 27  1  6  0  0  0
 25 28  1  0  0  0  0
 25 24  1  0  0  0  0
 26 25  2  0  0  0  0
M  END
>  <MODEL>
5

>  <REMARK>
 VINA RESULT:      -6.0      5.124      8.066
  Name = 
  6 active torsions:
  status: ('A' for Active; 'I' for Inactive)
    1  A    between atoms: N_2  and  C_24
    2  A    between atoms: O_3  and  P_6
    3  A    between atoms: O_3  and  C_17
    4  A    between atoms: C_4  and  C_9
    5  A    between atoms: C_8  and  C_9
    6  A    between atoms: C_12  and  C_17
                            x       y       z     vdW  Elec       q    Type
                         _______ _______ _______ _____ _____    ______ ____

>  <TORSDO>
F 6

$$$$
=
 OpenBabel11052410493D

 28 30  0  0  1  0  0  0  0  0999 V2000
  161.4130  208.3630  152.6170 C   0  0  0  0  0  0  0  0  0  0  0  0
  161.2360  210.9500  151.5370 C   0  0  0  0  0  3  0  0  0  0  0  0
  161.6280  209.8810  150.7300 C   0  0  0  0  0  0  0  0  0  0  0  0
  160.9300  210.7340  152.8810 C   0  0  0  0  0  3  0  0  0  0  0  0
  161.7170  208.5970  151.2700 C   0  0  0  0  0  3  0  0  0  0  0  0
  161.0190  209.4490  153.4380 C   0  0  0  0  0  0  0  0  0  0  0  0
  160.7040  209.2720  154.8230 N   0  0  0  0  0  0  0  0  0  0  0  0
  161.6350  210.5480  156.6710 C   0  0  0  0  0  2  0  0  0  0  0  0
  160.2940  210.6110  157.2540 N   0  0  0  0  0  2  0  0  0  0  0  0
  159.3150  210.7420  156.1750 C   0  0  0  0  0  2  0  0  0  0  0  0
  161.7720  209.2890  155.8180 C   0  0  0  0  0  2  0  0  0  0  0  0
  159.3400  209.4950  155.2930 C   0  0  0  0  0  2  0  0  0  0  0  0
  161.4820  206.9370  153.0910 C   0  0  1  0  0  3  0  0  0  0  0  0
  160.6330  206.7120  154.1780 O   0  0  0  0  0  1  0  0  0  0  0  0
  160.9900  203.4630  151.6310 C   0  0  0  0  0  3  0  0  0  0  0  0
  161.3030  205.9290  151.9870 C   0  0  0  0  0  0  0  0  0  0  0  0
  161.3170  206.3770  150.6670 C   0  0  0  0  0  3  0  0  0  0  0  0
  161.0220  204.3070  149.2660 C   0  0  0  0  0  0  0  0  0  0  0  0
  161.1540  204.6090  152.3930 C   0  0  0  0  0  3  0  0  0  0  0  0
  160.9330  203.3330  150.2510 C   0  0  0  0  0  3  0  0  0  0  0  0
  161.1940  205.6690  149.4810 C   0  0  0  0  0  3  0  0  0  0  0  0
  160.9400  203.9220  148.0720 O   0  0  0  0  0  0  0  0  0  0  0  0
  161.9820  210.1140  149.3040 C   0  0  0  0  0  2  0  0  0  0  0  0
  162.7540  211.2720  149.1940 O   0  0  0  0  0  0  0  0  0  0  0  0
  161.9100  212.2730  148.1160 P   0  0  1  0  0  0  0  0  0  0  0  0
  160.8410  211.4610  147.4220 O   0  0  0  0  0  1  0  0  0  0  0  0
  161.1530  213.5890  148.9890 N   0  0  0  0  0  1  0  0  0  0  0  0
  162.9720  212.8990  146.9570 O   0  0  0  0  0  0  0  0  0  0  0  0
  1 13  1  0  0  0  0
  1  6  1  0  0  0  0
  2  4  1  0  0  0  0
  3  5  1  0  0  0  0
  3  2  2  0  0  0  0
  4  6  2  0  0  0  0
  5  1  2  0  0  0  0
  6  7  1  0  0  0  0
  7 12  1  0  0  0  0
  7 11  1  0  0  0  0
  8  9  1  0  0  0  0
 10  9  1  0  0  0  0
 11  8  1  0  0  0  0
 12 10  1  0  0  0  0
 13 14  1  1  0  0  0
 15 19  1  0  0  0  0
 16 19  2  0  0  0  0
 16 13  1  0  0  0  0
 17 16  1  0  0  0  0
 18 21  1  0  0  0  0
 18 20  1  0  0  0  0
 20 15  2  0  0  0  0
 21 17  2  0  0  0  0
 22 18  2  0  0  0  0
 23  3  1  0  0  0  0
 24 23  1  0  0  0  0
 25 28  2  6  0  0  0
 25 27  1  0  0  0  0
 25 24  1  0  0  0  0
 26 25  1  0  0  0  0
M  END
>  <MODEL>
6

>  <REMARK>
 VINA RESULT:      -6.0      3.569      6.033
  Name = 
  6 active torsions:
  status: ('A' for Active; 'I' for Inactive)
    1  A    between atoms: N_2  and  C_24
    2  A    between atoms: O_3  and  P_6
    3  A    between atoms: O_3  and  C_17
    4  A    between atoms: C_4  and  C_9
    5  A    between atoms: C_8  and  C_9
    6  A    between atoms: C_12  and  C_17
                            x       y       z     vdW  Elec       q    Type
                         _______ _______ _______ _____ _____    ______ ____

>  <TORSDO>
F 6

$$$$
=
 OpenBabel11052410493D

 28 30  0  0  1  0  0  0  0  0999 V2000
  161.2490  211.3210  150.8160 C   0  0  0  0  0  0  0  0  0  0  0  0
  159.2660  213.2870  151.1260 C   0  0  0  0  0  3  0  0  0  0  0  0
  159.5570  212.4160  152.1760 C   0  0  0  0  0  0  0  0  0  0  0  0
  159.9610  213.1830  149.9200 C   0  0  0  0  0  3  0  0  0  0  0  0
  160.5410  211.4390  152.0190 C   0  0  0  0  0  3  0  0  0  0  0  0
  160.9500  212.2030  149.7470 C   0  0  0  0  0  0  0  0  0  0  0  0
  161.6340  212.1250  148.4920 N   0  0  0  0  0  0  0  0  0  0  0  0
  160.8170  212.9770  146.3670 C   0  0  0  0  0  2  0  0  0  0  0  0
  162.1610  213.4880  146.0980 N   0  0  0  0  0  2  0  0  0  0  0  0
  162.7470  213.9630  147.3520 C   0  0  0  0  0  2  0  0  0  0  0  0
  160.8980  211.7600  147.2860 C   0  0  0  0  0  2  0  0  0  0  0  0
  162.9200  212.7950  148.3210 C   0  0  0  0  0  2  0  0  0  0  0  0
  162.3290  210.2770  150.7630 C   0  0  1  0  0  3  0  0  0  0  0  0
  163.0330  210.1990  151.9690 O   0  0  0  0  0  1  0  0  0  0  0  0
  160.9080  206.7720  151.1390 C   0  0  0  0  0  3  0  0  0  0  0  0
  161.8450  208.9370  150.2770 C   0  0  1  0  0  3  0  0  0  0  0  0
  161.8990  208.6650  148.9110 C   0  0  0  0  0  3  0  0  0  0  0  0
  161.0210  206.3180  148.6720 C   0  0  0  0  0  0  0  0  0  0  0  0
  161.3940  208.0650  151.2600 C   0  0  0  0  0  3  0  0  0  0  0  0
  160.7450  206.0040  149.9960 C   0  0  0  0  0  2  0  0  0  0  0  0
  161.5390  207.5220  148.2120 C   0  0  0  0  0  3  0  0  0  0  0  0
  160.7810  205.4320  147.8130 O   0  0  0  0  0  0  0  0  0  0  0  0
  158.7970  212.5060  153.4520 C   0  0  0  0  0  2  0  0  0  0  0  0
  158.3960  211.2300  153.8530 O   0  0  0  0  0  0  0  0  0  0  0  0
  158.8450  211.1120  155.4850 P   0  0  1  0  0  0  0  0  0  0  0  0
  159.2730  209.6930  155.7770 O   0  0  0  0  0  0  0  0  0  0  0  0
  160.1800  212.1950  155.8170 N   0  0  0  0  0  1  0  0  0  0  0  0
  157.5320  211.5110  156.4750 O   0  0  0  0  0  1  0  0  0  0  0  0
  1  5  1  0  0  0  0
  2  3  1  0  0  0  0
  3 23  1  0  0  0  0
  4  2  2  0  0  0  0
  5  3  2  0  0  0  0
  6  4  1  0  0  0  0
  6  1  2  0  0  0  0
  7  6  1  0  0  0  0
  8 11  1  0  0  0  0
  9  8  1  0  0  0  0
  9 10  1  0  0  0  0
 10 12  1  0  0  0  0
 11  7  1  0  0  0  0
 12  7  1  0  0  0  0
 13  1  1  0  0  0  0
 13 14  1  1  0  0  0
 15 19  2  0  0  0  0
 16 13  1  1  0  0  0
 16 19  1  0  0  0  0
 17 16  1  0  0  0  0
 18 20  1  0  0  0  0
 20 15  1  0  0  0  0
 21 18  1  0  0  0  0
 21 17  2  0  0  0  0
 22 18  2  0  0  0  0
 23 24  1  0  0  0  0
 24 25  1  0  0  0  0
 25 26  2  1  0  0  0
 25 27  1  0  0  0  0
 25 28  1  0  0  0  0
M  END
>  <MODEL>
7

>  <REMARK>
 VINA RESULT:      -6.0      4.652      7.047
  Name = 
  6 active torsions:
  status: ('A' for Active; 'I' for Inactive)
    1  A    between atoms: N_2  and  C_24
    2  A    between atoms: O_3  and  P_6
    3  A    between atoms: O_3  and  C_17
    4  A    between atoms: C_4  and  C_9
    5  A    between atoms: C_8  and  C_9
    6  A    between atoms: C_12  and  C_17
                            x       y       z     vdW  Elec       q    Type
                         _______ _______ _______ _____ _____    ______ ____

>  <TORSDO>
F 6

$$$$
=
 OpenBabel11052410493D

 28 30  0  0  1  0  0  0  0  0999 V2000
  161.2860  211.2400  150.8840 C   0  0  0  0  0  0  0  0  0  0  0  0
  159.2850  213.1790  151.2390 C   0  0  0  0  0  3  0  0  0  0  0  0
  159.5950  212.2970  152.2750 C   0  0  0  0  0  0  0  0  0  0  0  0
  159.9700  213.0990  150.0260 C   0  0  0  0  0  3  0  0  0  0  0  0
  160.5880  211.3330  152.0950 C   0  0  0  0  0  3  0  0  0  0  0  0
  160.9680  212.1320  149.8300 C   0  0  0  0  0  0  0  0  0  0  0  0
  161.6410  212.0790  148.5680 N   0  0  0  0  0  0  0  0  0  0  0  0
  160.8010  212.9640  146.4660 C   0  0  0  0  0  2  0  0  0  0  0  0
  162.1420  213.4860  146.1930 N   0  0  0  0  0  2  0  0  0  0  0  0
  162.7370  213.9410  147.4500 C   0  0  0  0  0  2  0  0  0  0  0  0
  160.8960  211.7320  147.3620 C   0  0  0  0  0  2  0  0  0  0  0  0
  162.9230  212.7580  148.3980 C   0  0  0  0  0  2  0  0  0  0  0  0
  162.3770  210.2080  150.8070 C   0  0  1  0  0  3  0  0  0  0  0  0
  163.1770  210.2140  151.9540 O   0  0  0  0  0  1  0  0  0  0  0  0
  161.2990  207.4350  148.4420 C   0  0  0  0  0  3  0  0  0  0  0  0
  161.8800  208.8340  150.4450 C   0  0  0  0  0  0  0  0  0  0  0  0
  161.5830  207.9410  151.4740 C   0  0  0  0  0  3  0  0  0  0  0  0
  160.7730  205.8560  150.3220 C   0  0  0  0  0  0  0  0  0  0  0  0
  161.7420  208.5800  149.0870 C   0  0  0  0  0  3  0  0  0  0  0  0
  160.8710  206.2350  148.9890 C   0  0  0  0  0  3  0  0  0  0  0  0
  161.1000  206.6420  151.4190 C   0  0  0  0  0  3  0  0  0  0  0  0
  160.3490  204.6950  150.5550 O   0  0  0  0  0  0  0  0  0  0  0  0
  158.8450  212.3620  153.5580 C   0  0  0  0  0  2  0  0  0  0  0  0
  157.9480  211.2950  153.6350 O   0  0  0  0  0  0  0  0  0  0  0  0
  156.8100  211.7490  154.8060 P   0  0  1  0  0  0  0  0  0  0  0  0
  155.6650  210.7620  154.7920 O   0  0  0  0  0  1  0  0  0  0  0  0
  157.5510  211.7440  156.3940 N   0  0  0  0  0  1  0  0  0  0  0  0
  156.2140  213.2950  154.4650 O   0  0  0  0  0  0  0  0  0  0  0  0
  1  5  1  0  0  0  0
  2  3  1  0  0  0  0
  3 23  1  0  0  0  0
  4  2  2  0  0  0  0
  5  3  2  0  0  0  0
  6  4  1  0  0  0  0
  6  1  2  0  0  0  0
  7  6  1  0  0  0  0
  8 11  1  0  0  0  0
  9  8  1  0  0  0  0
  9 10  1  0  0  0  0
 10 12  1  0  0  0  0
 11  7  1  0  0  0  0
 12  7  1  0  0  0  0
 13  1  1  0  0  0  0
 13 14  1  1  0  0  0
 15 20  2  0  0  0  0
 15 19  1  0  0  0  0
 16 13  1  0  0  0  0
 16 17  1  0  0  0  0
 18 22  2  0  0  0  0
 18 21  1  0  0  0  0
 19 16  2  0  0  0  0
 20 18  1  0  0  0  0
 21 17  2  0  0  0  0
 23 24  1  0  0  0  0
 24 25  1  0  0  0  0
 25 28  2  6  0  0  0
 25 27  1  0  0  0  0
 26 25  1  0  0  0  0
M  END
>  <MODEL>
8

>  <REMARK>
 VINA RESULT:      -5.9      4.801      7.310
  Name = 
  6 active torsions:
  status: ('A' for Active; 'I' for Inactive)
    1  A    between atoms: N_2  and  C_24
    2  A    between atoms: O_3  and  P_6
    3  A    between atoms: O_3  and  C_17
    4  A    between atoms: C_4  and  C_9
    5  A    between atoms: C_8  and  C_9
    6  A    between atoms: C_12  and  C_17
                            x       y       z     vdW  Elec       q    Type
                         _______ _______ _______ _____ _____    ______ ____

>  <TORSDO>
F 6

$$$$
=
 OpenBabel11052410493D

 28 30  0  0  1  0  0  0  0  0999 V2000
  161.4450  205.8290  150.6200 C   0  0  0  0  0  0  0  0  0  0  0  0
  160.8300  203.7360  152.3890 C   0  0  0  0  0  3  0  0  0  0  0  0
  160.8680  203.5000  151.0150 C   0  0  0  0  0  0  0  0  0  0  0  0
  161.0980  205.0120  152.8860 C   0  0  0  0  0  3  0  0  0  0  0  0
  161.1730  204.5430  150.1380 C   0  0  0  0  0  3  0  0  0  0  0  0
  161.4000  206.0700  152.0160 C   0  0  0  0  0  0  0  0  0  0  0  0
  161.6610  207.3660  152.5660 N   0  0  0  0  0  0  0  0  0  0  0  0
  160.2010  209.3020  152.4050 C   0  0  0  0  0  2  0  0  0  0  0  0
  160.4880  209.5880  153.8120 N   0  0  0  0  0  2  0  0  0  0  0  0
  160.6060  208.3230  154.5370 C   0  0  0  0  0  2  0  0  0  0  0  0
  161.3780  208.5590  151.7760 C   0  0  0  0  0  2  0  0  0  0  0  0
  161.7990  207.5290  154.0100 C   0  0  0  0  0  2  0  0  0  0  0  0
  161.8190  206.8700  149.6020 C   0  0  1  0  0  3  0  0  0  0  0  0
  163.1080  207.3640  149.8160 O   0  0  0  0  0  1  0  0  0  0  0  0
  159.7610  206.2610  146.4640 C   0  0  0  0  0  3  0  0  0  0  0  0
  161.5870  206.4300  148.1800 C   0  0  0  0  0  0  0  0  0  0  0  0
  162.6590  205.8990  147.4650 C   0  0  0  0  0  3  0  0  0  0  0  0
  161.7150  205.3070  145.2080 C   0  0  0  0  0  0  0  0  0  0  0  0
  160.2910  206.5820  147.7050 C   0  0  0  0  0  3  0  0  0  0  0  0
  160.3920  205.6980  145.3650 C   0  0  0  0  0  3  0  0  0  0  0  0
  162.7140  205.4090  146.1680 C   0  0  0  0  0  3  0  0  0  0  0  0
  162.0380  204.8170  144.0960 O   0  0  0  0  0  0  0  0  0  0  0  0
  160.5540  202.1470  150.4810 C   0  0  0  0  0  2  0  0  0  0  0  0
  161.5960  201.7120  149.6600 O   0  0  0  0  0  0  0  0  0  0  0  0
  160.8920  201.4640  148.1370 P   0  0  1  0  0  0  0  0  0  0  0  0
  161.2120  202.6430  147.2470 O   0  0  0  0  0  0  0  0  0  0  0  0
  161.5360  200.0060  147.4100 N   0  0  0  0  0  1  0  0  0  0  0  0
  159.2130  201.3250  148.2920 O   0  0  0  0  0  1  0  0  0  0  0  0
  1  6  1  0  0  0  0
  2  4  1  0  0  0  0
  3  2  2  0  0  0  0
  5  1  2  0  0  0  0
  5  3  1  0  0  0  0
  6  7  1  0  0  0  0
  6  4  2  0  0  0  0
  7 12  1  0  0  0  0
  8  9  1  0  0  0  0
  9 10  1  0  0  0  0
 11  8  1  0  0  0  0
 11  7  1  0  0  0  0
 12 10  1  0  0  0  0
 13 14  1  6  0  0  0
 13  1  1  0  0  0  0
 15 19  1  0  0  0  0
 16 13  1  0  0  0  0
 17 16  1  0  0  0  0
 18 20  1  0  0  0  0
 18 21  1  0  0  0  0
 19 16  2  0  0  0  0
 20 15  2  0  0  0  0
 21 17  2  0  0  0  0
 22 18  2  0  0  0  0
 23  3  1  0  0  0  0
 24 23  1  0  0  0  0
 25 26  2  6  0  0  0
 25 28  1  0  0  0  0
 25 24  1  0  0  0  0
 27 25  1  0  0  0  0
M  END
>  <MODEL>
9

>  <REMARK>
 VINA RESULT:      -5.8      1.377      2.094
  Name = 
  6 active torsions:
  status: ('A' for Active; 'I' for Inactive)
    1  A    between atoms: N_2  and  C_24
    2  A    between atoms: O_3  and  P_6
    3  A    between atoms: O_3  and  C_17
    4  A    between atoms: C_4  and  C_9
    5  A    between atoms: C_8  and  C_9
    6  A    between atoms: C_12  and  C_17
                            x       y       z     vdW  Elec       q    Type
                         _______ _______ _______ _____ _____    ______ ____

>  <TORSDO>
F 6

$$$$
