=
 OpenBabel11052411453D

 40 42  0  0  1  0  0  0  0  0999 V2000
  161.6600  207.8850  152.4970 N   0  0  0  0  0  0  0  0  0  0  0  0
  160.5880  209.5790  154.3940 C   0  0  0  0  0  0  0  0  0  0  0  0
  161.2180  207.3190  153.5820 C   0  0  0  0  0  0  0  0  0  0  0  0
  161.9560  209.3160  152.4420 C   0  0  2  0  0  3  0  0  0  0  0  0
  161.0580  210.0700  153.2960 N   0  0  0  0  0  0  0  0  0  0  0  0
  159.7910  207.5330  155.6100 C   0  0  0  0  0  1  0  0  0  0  0  0
  160.9250  208.1550  154.8040 C   0  0  2  0  0  3  0  0  0  0  0  0
  161.5850  211.1120  150.7670 N   0  0  0  0  0  0  0  0  0  0  0  0
  161.5820  211.3570  149.4420 C   0  0  0  0  0  0  0  0  0  0  0  0
  161.9710  209.9730  148.5720 S   0  0  0  0  0  0  0  0  0  0  0  0
  161.8930  209.8140  151.0380 C   0  0  0  0  0  0  0  0  0  0  0  0
  162.1460  208.9960  149.9320 C   0  0  0  0  0  3  0  0  0  0  0  0
  160.5000  213.5440  149.8320 C   0  0  0  0  0  1  0  0  0  0  0  0
  161.3070  212.7070  148.8600 C   0  0  2  0  0  3  0  0  0  0  0  0
  158.9050  212.7300  145.2070 C   0  0  0  0  0  1  0  0  0  0  0  0
  162.5890  213.7440  144.7970 C   0  0  0  0  0  2  0  0  0  0  0  0
  160.3560  212.6310  145.2420 N   0  0  0  0  0  0  0  0  0  0  0  0
  162.5120  213.2290  146.2320 C   0  0  0  0  0  2  0  0  0  0  0  0
  160.5780  212.5780  147.6020 N   0  0  0  0  0  0  0  0  0  0  0  0
  161.3190  212.8870  143.7930 S   0  0  0  0  0  0  0  0  0  0  0  0
  161.1030  212.7970  146.4340 C   0  0  0  0  0  0  0  0  0  0  0  0
  160.5050  211.6430  155.5510 O   0  0  0  0  0  1  0  0  0  0  0  0
  159.7930  210.4700  155.2960 C   0  0  0  0  0  2  0  0  0  0  0  0
  161.0220  205.9310  153.6250 O   0  0  0  0  0  0  0  0  0  0  0  0
  161.7260  205.0240  152.7810 C   0  0  0  0  0  2  0  0  0  0  0  0
  160.8140  204.5020  151.6800 C   0  0  0  0  0  2  0  0  0  0  0  0
  160.9590  203.0600  151.5570 N   0  0  0  0  0  2  0  0  0  0  0  0
  160.6540  202.7180  150.1770 C   0  0  0  0  0  2  0  0  0  0  0  0
  160.8500  201.2260  149.9680 C   0  0  0  0  0  2  0  0  0  0  0  0
  160.9880  200.9350  148.5500 N   0  0  0  0  0  2  0  0  0  0  0  0
  161.2490  202.2000  147.8800 C   0  0  0  0  0  2  0  0  0  0  0  0
  160.1150  201.2540  146.0100 O   0  0  0  0  0  1  0  0  0  0  0  0
  161.2330  202.0060  146.3710 C   0  0  1  0  0  3  0  0  0  0  0  0
  160.4660  203.4860  144.6600 O   0  0  0  0  0  0  0  0  0  0  0  0
  161.2150  203.3210  145.6620 C   0  0  0  0  0  0  0  0  0  0  0  0
  162.0220  204.3570  146.1330 O   0  0  0  0  0  0  0  0  0  0  0  0
  160.5220  206.4860  145.6760 O   0  0  0  0  0  0  0  0  0  0  0  0
  162.6270  206.8650  147.1940 O   0  0  0  0  0  1  0  0  0  0  0  0
  161.3690  205.8290  146.7440 P   0  0  0  0  0  0  0  0  0  0  0  0
  160.4070  205.4980  148.0920 O   0  0  0  0  0  1  0  0  0  0  0  0
  1  3  2  0  0  0  0
  2  7  1  0  0  0  0
  2 23  1  0  0  0  0
  3 24  1  0  0  0  0
  3  7  1  0  0  0  0
  4 11  1  6  0  0  0
  4  1  1  0  0  0  0
  4  5  1  0  0  0  0
  5  2  2  0  0  0  0
  7  6  1  6  0  0  0
  8 11  1  0  0  0  0
  9  8  2  0  0  0  0
 10  9  1  0  0  0  0
 10 12  1  0  0  0  0
 12 11  2  0  0  0  0
 14  9  1  0  0  0  0
 14 13  1  1  0  0  0
 15 17  1  0  0  0  0
 16 18  1  0  0  0  0
 17 21  1  0  0  0  0
 18 21  1  0  0  0  0
 19 14  1  0  0  0  0
 20 16  1  0  0  0  0
 20 17  1  0  0  0  0
 21 19  2  0  0  0  0
 23 22  1  0  0  0  0
 25 24  1  0  0  0  0
 26 25  1  0  0  0  0
 27 26  1  0  0  0  0
 28 27  1  0  0  0  0
 29 28  1  0  0  0  0
 30 29  1  0  0  0  0
 31 30  1  0  0  0  0
 33 32  1  1  0  0  0
 33 31  1  0  0  0  0
 34 35  2  0  0  0  0
 35 36  1  0  0  0  0
 35 33  1  0  0  0  0
 36 39  1  0  0  0  0
 37 39  2  0  0  0  0
 39 38  1  0  0  0  0
 39 40  1  0  0  0  0
M  END
>  <MODEL>
1

>  <REMARK>
 VINA RESULT:      -6.6      0.000      0.000
  Name = 
  16 active torsions:
  status: ('A' for Active; 'I' for Inactive)
    1  A    between atoms: C_3  and  N_20
    2  A    between atoms: C_3  and  C_39
    3  A    between atoms: C_9  and  C_40
    4  A    between atoms: CA_10  and  C_22
    5  A    between atoms: C_11  and  C_18
    6  A    between atoms: C_11  and  C_19
    7  A    between atoms: O_13  and  C_18
    8  A    between atoms: O_13  and  P_29
    9  A    between atoms: N_17  and  C_19
   10  A    between atoms: N_17  and  C_34
   11  A    between atoms: N_20  and  C_32
   12  A    between atoms: C_23  and  O_36
   13  A    between atoms: C_24  and  C_25
   14  A    between atoms: N_30  and  C_40
   15  A    between atoms: C_32  and  C_34
   16  A    between atoms: O_36  and  C_39
                            x       y       z     vdW  Elec       q    Type
                         _______ _______ _______ _____ _____    ______ ____

>  <TORSDO>
F 16

$$$$
=
 OpenBabel11052411453D

 40 42  0  0  1  0  0  0  0  0999 V2000
  160.9130  206.3270  149.6060 N   0  0  0  0  0  0  0  0  0  0  0  0
  161.9380  205.4990  147.1820 C   0  0  0  0  0  0  0  0  0  0  0  0
  160.9470  205.0410  149.4110 C   0  0  0  0  0  0  0  0  0  0  0  0
  161.0100  207.2750  148.4990 C   0  0  2  0  0  3  0  0  0  0  0  0
  161.8610  206.7610  147.4420 N   0  0  0  0  0  0  0  0  0  0  0  0
  161.9000  203.1600  148.0900 C   0  0  0  0  0  1  0  0  0  0  0  0
  161.1680  204.4940  148.0220 C   0  0  2  0  0  3  0  0  0  0  0  0
  161.4510  209.7000  148.1810 N   0  0  0  0  0  0  0  0  0  0  0  0
  161.9440  210.7890  148.8010 C   0  0  0  0  0  0  0  0  0  0  0  0
  162.4520  210.4180  150.3590 S   0  0  0  0  0  0  0  0  0  0  0  0
  161.5050  208.5980  148.9790 C   0  0  0  0  0  0  0  0  0  0  0  0
  162.0410  208.7880  150.2570 C   0  0  0  0  0  3  0  0  0  0  0  0
  161.5410  213.1990  149.1690 C   0  0  0  0  0  1  0  0  0  0  0  0
  161.9790  212.1450  148.1710 C   0  0  2  0  0  3  0  0  0  0  0  0
  159.0890  212.5670  144.9190 C   0  0  0  0  0  1  0  0  0  0  0  0
  162.4070  214.4520  144.4670 C   0  0  0  0  0  2  0  0  0  0  0  0
  160.5200  212.7900  144.7870 N   0  0  0  0  0  0  0  0  0  0  0  0
  162.6480  213.5820  145.6980 C   0  0  0  0  0  2  0  0  0  0  0  0
  161.1050  212.1830  147.0040 N   0  0  0  0  0  0  0  0  0  0  0  0
  161.1850  213.6200  143.3860 S   0  0  0  0  0  0  0  0  0  0  0  0
  161.3940  212.8080  145.9010 C   0  0  0  0  0  0  0  0  0  0  0  0
  162.1250  205.5670  144.8220 O   0  0  0  0  0  1  0  0  0  0  0  0
  162.7150  205.0600  145.9810 C   0  0  0  0  0  2  0  0  0  0  0  0
  160.7690  204.1580  150.4860 O   0  0  0  0  0  0  0  0  0  0  0  0
  161.6620  204.0980  151.5940 C   0  0  0  0  0  2  0  0  0  0  0  0
  161.0860  204.8450  152.7880 C   0  0  0  0  0  2  0  0  0  0  0  0
  161.8910  206.0240  153.0710 N   0  0  0  0  0  2  0  0  0  0  0  0
  160.9680  207.1160  153.3320 C   0  0  0  0  0  2  0  0  0  0  0  0
  160.7410  207.2420  154.8290 C   0  0  0  0  0  2  0  0  0  0  0  0
  161.3400  208.4730  155.3220 N   0  0  0  0  0  2  0  0  0  0  0  0
  160.3020  209.4920  155.2950 C   0  0  0  0  0  2  0  0  0  0  0  0
  162.0460  210.4870  154.0130 O   0  0  0  0  0  1  0  0  0  0  0  0
  160.8290  210.7580  154.6390 C   0  0  1  0  0  3  0  0  0  0  0  0
  159.6150  210.6510  152.5840 O   0  0  0  0  0  0  0  0  0  0  0  0
  159.8520  211.2940  153.6430 C   0  0  0  0  0  0  0  0  0  0  0  0
  159.2010  212.4990  153.9120 O   0  0  0  0  0  0  0  0  0  0  0  0
  156.8450  211.4340  154.4660 O   0  0  0  0  0  0  0  0  0  0  0  0
  156.9790  214.0510  154.5710 O   0  0  0  0  0  1  0  0  0  0  0  0
  157.7590  212.5760  154.8500 P   0  0  0  0  0  0  0  0  0  0  0  0
  158.1490  212.4510  156.4890 O   0  0  0  0  0  1  0  0  0  0  0  0
  2  5  2  0  0  0  0
  2  7  1  0  0  0  0
  3  1  2  0  0  0  0
  3 24  1  0  0  0  0
  4 11  1  1  0  0  0
  4  1  1  0  0  0  0
  5  4  1  0  0  0  0
  7  6  1  1  0  0  0
  7  3  1  0  0  0  0
  8  9  2  0  0  0  0
  8 11  1  0  0  0  0
  9 10  1  0  0  0  0
 11 12  2  0  0  0  0
 12 10  1  0  0  0  0
 14  9  1  0  0  0  0
 14 13  1  1  0  0  0
 16 18  1  0  0  0  0
 17 15  1  0  0  0  0
 17 21  1  0  0  0  0
 18 21  1  0  0  0  0
 19 14  1  0  0  0  0
 20 16  1  0  0  0  0
 20 17  1  0  0  0  0
 21 19  2  0  0  0  0
 22 23  1  0  0  0  0
 23  2  1  0  0  0  0
 24 25  1  0  0  0  0
 25 26  1  0  0  0  0
 26 27  1  0  0  0  0
 27 28  1  0  0  0  0
 28 29  1  0  0  0  0
 29 30  1  0  0  0  0
 31 30  1  0  0  0  0
 33 32  1  6  0  0  0
 33 31  1  0  0  0  0
 34 35  2  0  0  0  0
 35 36  1  0  0  0  0
 35 33  1  0  0  0  0
 36 39  1  0  0  0  0
 37 39  2  0  0  0  0
 38 39  1  0  0  0  0
 39 40  1  0  0  0  0
M  END
>  <MODEL>
2

>  <REMARK>
 VINA RESULT:      -6.3      2.766      7.286
  Name = 
  16 active torsions:
  status: ('A' for Active; 'I' for Inactive)
    1  A    between atoms: C_3  and  N_20
    2  A    between atoms: C_3  and  C_39
    3  A    between atoms: C_9  and  C_40
    4  A    between atoms: CA_10  and  C_22
    5  A    between atoms: C_11  and  C_18
    6  A    between atoms: C_11  and  C_19
    7  A    between atoms: O_13  and  C_18
    8  A    between atoms: O_13  and  P_29
    9  A    between atoms: N_17  and  C_19
   10  A    between atoms: N_17  and  C_34
   11  A    between atoms: N_20  and  C_32
   12  A    between atoms: C_23  and  O_36
   13  A    between atoms: C_24  and  C_25
   14  A    between atoms: N_30  and  C_40
   15  A    between atoms: C_32  and  C_34
   16  A    between atoms: O_36  and  C_39
                            x       y       z     vdW  Elec       q    Type
                         _______ _______ _______ _____ _____    ______ ____

>  <TORSDO>
F 16

$$$$
=
 OpenBabel11052411453D

 40 42  0  0  1  0  0  0  0  0999 V2000
  161.9350  208.3480  150.7500 N   0  0  0  0  0  0  0  0  0  0  0  0
  161.3650  205.8160  149.8130 C   0  0  0  0  0  0  0  0  0  0  0  0
  161.9450  208.2030  149.4560 C   0  0  0  0  0  0  0  0  0  0  0  0
  162.0300  207.2030  151.6520 C   0  0  2  0  0  3  0  0  0  0  0  0
  161.3850  206.0340  151.0850 N   0  0  0  0  0  0  0  0  0  0  0  0
  161.2570  206.8110  147.5120 C   0  0  0  0  0  1  0  0  0  0  0  0
  161.9800  206.8200  148.8530 C   0  0  2  0  0  3  0  0  0  0  0  0
  161.2600  208.8250  153.3690 N   0  0  0  0  0  0  0  0  0  0  0  0
  160.7230  208.9060  154.6030 C   0  0  0  0  0  0  0  0  0  0  0  0
  160.4590  207.3760  155.2470 S   0  0  0  0  0  0  0  0  0  0  0  0
  161.4480  207.5330  152.9850 C   0  0  0  0  0  0  0  0  0  0  0  0
  161.0600  206.5530  153.9070 C   0  0  0  0  0  3  0  0  0  0  0  0
  160.7560  210.1590  156.7320 C   0  0  0  0  0  1  0  0  0  0  0  0
  160.3810  210.2030  155.2640 C   0  0  2  0  0  3  0  0  0  0  0  0
  156.0950  211.0620  155.3430 C   0  0  0  0  0  1  0  0  0  0  0  0
  158.3680  213.9700  154.2730 C   0  0  0  0  0  2  0  0  0  0  0  0
  157.0740  211.8110  154.5710 N   0  0  0  0  0  0  0  0  0  0  0  0
  159.3110  212.7700  154.3190 C   0  0  0  0  0  2  0  0  0  0  0  0
  158.9540  210.4780  155.1310 N   0  0  0  0  0  0  0  0  0  0  0  0
  156.6800  213.3780  153.8790 S   0  0  0  0  0  0  0  0  0  0  0  0
  158.4700  211.6060  154.7060 C   0  0  0  0  0  0  0  0  0  0  0  0
  160.8780  203.5570  150.3300 O   0  0  0  0  0  1  0  0  0  0  0  0
  160.8190  204.5140  149.3160 C   0  0  0  0  0  2  0  0  0  0  0  0
  161.9340  209.3280  148.6190 O   0  0  0  0  0  0  0  0  0  0  0  0
  162.2520  210.6380  149.0790 C   0  0  0  0  0  2  0  0  0  0  0  0
  161.6710  211.6890  148.1440 C   0  0  0  0  0  2  0  0  0  0  0  0
  162.6440  212.7470  147.9200 N   0  0  0  0  0  2  0  0  0  0  0  0
  162.2170  213.4730  146.7360 C   0  0  0  0  0  2  0  0  0  0  0  0
  160.8820  212.9250  146.2570 C   0  0  0  0  0  2  0  0  0  0  0  0
  160.4960  213.5700  145.0120 N   0  0  0  0  0  2  0  0  0  0  0  0
  160.5270  212.5480  143.9770 C   0  0  0  0  0  2  0  0  0  0  0  0
  162.8150  212.6180  143.3140 O   0  0  0  0  0  1  0  0  0  0  0  0
  161.5220  212.9320  142.8920 C   0  0  1  0  0  3  0  0  0  0  0  0
  160.2430  211.4280  141.5470 O   0  0  0  0  0  0  0  0  0  0  0  0
  161.2180  212.2260  141.6110 C   0  0  0  0  0  0  0  0  0  0  0  0
  162.0170  212.4750  140.4940 O   0  0  0  0  0  0  0  0  0  0  0  0
  163.7110  211.5820  138.6710 O   0  0  0  0  0  1  0  0  0  0  0  0
  161.1680  211.1690  138.1810 O   0  0  0  0  0  0  0  0  0  0  0  0
  162.3950  211.2540  139.3410 P   0  0  0  0  0  0  0  0  0  0  0  0
  162.5270  209.7640  140.1270 O   0  0  0  0  0  1  0  0  0  0  0  0
  1  4  1  0  0  0  0
  2  5  2  0  0  0  0
  3  1  2  0  0  0  0
  4 11  1  1  0  0  0
  5  4  1  0  0  0  0
  7  6  1  6  0  0  0
  7  3  1  0  0  0  0
  7  2  1  0  0  0  0
  8  9  2  0  0  0  0
  9 10  1  0  0  0  0
  9 14  1  0  0  0  0
 11  8  1  0  0  0  0
 11 12  2  0  0  0  0
 12 10  1  0  0  0  0
 14 13  1  1  0  0  0
 16 18  1  0  0  0  0
 17 21  1  0  0  0  0
 17 15  1  0  0  0  0
 18 21  1  0  0  0  0
 19 14  1  0  0  0  0
 20 16  1  0  0  0  0
 20 17  1  0  0  0  0
 21 19  2  0  0  0  0
 23  2  1  0  0  0  0
 23 22  1  0  0  0  0
 24 25  1  0  0  0  0
 24  3  1  0  0  0  0
 26 25  1  0  0  0  0
 27 26  1  0  0  0  0
 28 27  1  0  0  0  0
 29 28  1  0  0  0  0
 30 29  1  0  0  0  0
 31 30  1  0  0  0  0
 33 32  1  1  0  0  0
 33 31  1  0  0  0  0
 34 35  2  0  0  0  0
 35 33  1  0  0  0  0
 36 35  1  0  0  0  0
 37 39  1  0  0  0  0
 38 39  2  0  0  0  0
 39 40  1  0  0  0  0
 39 36  1  0  0  0  0
M  END
>  <MODEL>
3

>  <REMARK>
 VINA RESULT:      -6.2      4.290      8.641
  Name = 
  16 active torsions:
  status: ('A' for Active; 'I' for Inactive)
    1  A    between atoms: C_3  and  N_20
    2  A    between atoms: C_3  and  C_39
    3  A    between atoms: C_9  and  C_40
    4  A    between atoms: CA_10  and  C_22
    5  A    between atoms: C_11  and  C_18
    6  A    between atoms: C_11  and  C_19
    7  A    between atoms: O_13  and  C_18
    8  A    between atoms: O_13  and  P_29
    9  A    between atoms: N_17  and  C_19
   10  A    between atoms: N_17  and  C_34
   11  A    between atoms: N_20  and  C_32
   12  A    between atoms: C_23  and  O_36
   13  A    between atoms: C_24  and  C_25
   14  A    between atoms: N_30  and  C_40
   15  A    between atoms: C_32  and  C_34
   16  A    between atoms: O_36  and  C_39
                            x       y       z     vdW  Elec       q    Type
                         _______ _______ _______ _____ _____    ______ ____

>  <TORSDO>
F 16

$$$$
=
 OpenBabel11052411453D

 40 42  0  0  1  0  0  0  0  0999 V2000
  161.7130  209.3420  153.1510 N   0  0  0  0  0  0  0  0  0  0  0  0
  159.9300  211.2780  153.9810 C   0  0  0  0  0  0  0  0  0  0  0  0
  161.1940  209.1700  154.3320 C   0  0  0  0  0  0  0  0  0  0  0  0
  161.6920  210.6420  152.4840 C   0  0  2  0  0  3  0  0  0  0  0  0
  160.4950  211.3870  152.8260 N   0  0  0  0  0  0  0  0  0  0  0  0
  159.3710  209.7770  155.9130 C   0  0  0  0  0  1  0  0  0  0  0  0
  160.4800  210.3110  155.0150 C   0  0  2  0  0  3  0  0  0  0  0  0
  161.7440  211.5540  150.1740 N   0  0  0  0  0  0  0  0  0  0  0  0
  161.8730  211.1930  148.8820 C   0  0  0  0  0  0  0  0  0  0  0  0
  162.0820  209.5320  148.7380 S   0  0  0  0  0  0  0  0  0  0  0  0
  161.8100  210.4790  151.0070 C   0  0  0  0  0  0  0  0  0  0  0  0
  161.9960  209.2350  150.3940 C   0  0  0  0  0  3  0  0  0  0  0  0
  162.1610  213.5690  148.2700 C   0  0  0  0  0  1  0  0  0  0  0  0
  161.8700  212.1740  147.7540 C   0  0  2  0  0  3  0  0  0  0  0  0
  157.8810  212.5110  145.9980 C   0  0  0  0  0  1  0  0  0  0  0  0
  160.7730  213.8630  143.8590 C   0  0  0  0  0  2  0  0  0  0  0  0
  159.1220  212.5240  145.2390 N   0  0  0  0  0  0  0  0  0  0  0  0
  161.4760  213.1500  145.0110 C   0  0  0  0  0  2  0  0  0  0  0  0
  160.5790  212.1630  147.0750 N   0  0  0  0  0  0  0  0  0  0  0  0
  159.1570  213.0540  143.5630 S   0  0  0  0  0  0  0  0  0  0  0  0
  160.3940  212.5830  145.8600 C   0  0  0  0  0  0  0  0  0  0  0  0
  157.6790  211.8640  153.5360 O   0  0  0  0  0  1  0  0  0  0  0  0
  158.7910  212.1910  154.3130 C   0  0  0  0  0  2  0  0  0  0  0  0
  161.3030  207.9300  154.9770 O   0  0  0  0  0  0  0  0  0  0  0  0
  160.5260  206.7940  154.6080 C   0  0  0  0  0  2  0  0  0  0  0  0
  160.7830  206.4210  153.1550 C   0  0  0  0  0  2  0  0  0  0  0  0
  162.1380  205.9150  153.0040 N   0  0  0  0  0  2  0  0  0  0  0  0
  162.1200  204.9740  151.8960 C   0  0  0  0  0  2  0  0  0  0  0  0
  160.8490  204.1430  151.9570 C   0  0  0  0  0  2  0  0  0  0  0  0
  161.0790  202.8360  151.3620 N   0  0  0  0  0  2  0  0  0  0  0  0
  160.4170  202.8350  150.0670 C   0  0  0  0  0  2  0  0  0  0  0  0
  160.8680  200.8520  148.8260 O   0  0  0  0  0  1  0  0  0  0  0  0
  161.3010  202.1630  149.0270 C   0  0  1  0  0  3  0  0  0  0  0  0
  161.1010  202.2930  146.6500 O   0  0  0  0  0  0  0  0  0  0  0  0
  161.2740  202.9130  147.7350 C   0  0  0  0  0  0  0  0  0  0  0  0
  161.4260  204.3000  147.7530 O   0  0  0  0  0  0  0  0  0  0  0  0
  162.1760  206.6320  146.7570 O   0  0  0  0  0  1  0  0  0  0  0  0
  160.7690  205.0980  145.1630 O   0  0  0  0  0  0  0  0  0  0  0  0
  161.9470  205.1870  146.3720 P   0  0  0  0  0  0  0  0  0  0  0  0
  163.3920  204.5290  145.7950 O   0  0  0  0  0  1  0  0  0  0  0  0
  1  3  2  0  0  0  0
  2 23  1  0  0  0  0
  2  7  1  0  0  0  0
  3 24  1  0  0  0  0
  3  7  1  0  0  0  0
  4 11  1  6  0  0  0
  4  5  1  0  0  0  0
  4  1  1  0  0  0  0
  5  2  2  0  0  0  0
  7  6  1  6  0  0  0
  8 11  1  0  0  0  0
  9  8  2  0  0  0  0
 10  9  1  0  0  0  0
 10 12  1  0  0  0  0
 12 11  2  0  0  0  0
 14 13  1  1  0  0  0
 14  9  1  0  0  0  0
 16 18  1  0  0  0  0
 17 21  1  0  0  0  0
 17 15  1  0  0  0  0
 18 21  1  0  0  0  0
 19 14  1  0  0  0  0
 20 16  1  0  0  0  0
 20 17  1  0  0  0  0
 21 19  2  0  0  0  0
 22 23  1  0  0  0  0
 25 24  1  0  0  0  0
 26 25  1  0  0  0  0
 27 26  1  0  0  0  0
 28 29  1  0  0  0  0
 28 27  1  0  0  0  0
 30 29  1  0  0  0  0
 31 30  1  0  0  0  0
 33 32  1  6  0  0  0
 33 31  1  0  0  0  0
 34 35  2  0  0  0  0
 35 36  1  0  0  0  0
 35 33  1  0  0  0  0
 38 39  2  0  0  0  0
 39 37  1  0  0  0  0
 39 36  1  0  0  0  0
 40 39  1  0  0  0  0
M  END
>  <MODEL>
4

>  <REMARK>
 VINA RESULT:      -5.9      1.481      2.222
  Name = 
  16 active torsions:
  status: ('A' for Active; 'I' for Inactive)
    1  A    between atoms: C_3  and  N_20
    2  A    between atoms: C_3  and  C_39
    3  A    between atoms: C_9  and  C_40
    4  A    between atoms: CA_10  and  C_22
    5  A    between atoms: C_11  and  C_18
    6  A    between atoms: C_11  and  C_19
    7  A    between atoms: O_13  and  C_18
    8  A    between atoms: O_13  and  P_29
    9  A    between atoms: N_17  and  C_19
   10  A    between atoms: N_17  and  C_34
   11  A    between atoms: N_20  and  C_32
   12  A    between atoms: C_23  and  O_36
   13  A    between atoms: C_24  and  C_25
   14  A    between atoms: N_30  and  C_40
   15  A    between atoms: C_32  and  C_34
   16  A    between atoms: O_36  and  C_39
                            x       y       z     vdW  Elec       q    Type
                         _______ _______ _______ _____ _____    ______ ____

>  <TORSDO>
F 16

$$$$
=
 OpenBabel11052411453D

 40 42  0  0  1  0  0  0  0  0999 V2000
  160.8510  205.9460  149.6630 N   0  0  0  0  0  0  0  0  0  0  0  0
  161.6630  205.0210  147.1930 C   0  0  0  0  0  0  0  0  0  0  0  0
  160.8530  204.6530  149.5110 C   0  0  0  0  0  0  0  0  0  0  0  0
  160.8700  206.8550  148.5190 C   0  0  2  0  0  3  0  0  0  0  0  0
  161.6240  206.2920  147.4150 N   0  0  0  0  0  0  0  0  0  0  0  0
  161.6710  202.7140  148.1820 C   0  0  0  0  0  1  0  0  0  0  0  0
  160.9530  204.0570  148.1280 C   0  0  2  0  0  3  0  0  0  0  0  0
  161.3530  209.2490  148.0630 N   0  0  0  0  0  0  0  0  0  0  0  0
  161.9020  210.3530  148.6070 C   0  0  0  0  0  0  0  0  0  0  0  0
  162.4750  210.0420  150.1560 S   0  0  0  0  0  0  0  0  0  0  0  0
  161.4190  208.1850  148.9100 C   0  0  0  0  0  0  0  0  0  0  0  0
  162.0200  208.4210  150.1520 C   0  0  0  0  0  3  0  0  0  0  0  0
  163.2020  212.4290  148.2820 C   0  0  0  0  0  1  0  0  0  0  0  0
  161.9390  211.6760  147.9110 C   0  0  2  0  0  3  0  0  0  0  0  0
  158.7390  214.4280  149.0480 C   0  0  0  0  0  1  0  0  0  0  0  0
  159.0000  213.6180  145.3010 C   0  0  0  0  0  2  0  0  0  0  0  0
  158.7580  213.6430  147.8240 N   0  0  0  0  0  0  0  0  0  0  0  0
  159.9730  212.6390  145.9520 C   0  0  0  0  0  2  0  0  0  0  0  0
  160.7710  212.4710  148.2710 N   0  0  0  0  0  0  0  0  0  0  0  0
  157.6660  214.0070  146.4940 S   0  0  0  0  0  0  0  0  0  0  0  0
  159.8900  212.8950  147.4150 C   0  0  0  0  0  0  0  0  0  0  0  0
  163.7120  204.7350  146.0390 O   0  0  0  0  0  1  0  0  0  0  0  0
  162.3340  204.5300  145.9490 C   0  0  0  0  0  2  0  0  0  0  0  0
  160.7530  203.8110  150.6270 O   0  0  0  0  0  0  0  0  0  0  0  0
  161.5920  203.9370  151.7700 C   0  0  0  0  0  2  0  0  0  0  0  0
  160.9060  204.7640  152.8490 C   0  0  0  0  0  2  0  0  0  0  0  0
  161.7640  205.8680  153.2500 N   0  0  0  0  0  2  0  0  0  0  0  0
  160.8970  207.0010  153.5270 C   0  0  0  0  0  2  0  0  0  0  0  0
  160.5850  207.0500  155.0140 C   0  0  0  0  0  2  0  0  0  0  0  0
  160.1450  208.3850  155.3870 N   0  0  0  0  0  2  0  0  0  0  0  0
  160.6510  208.6410  156.7270 C   0  0  0  0  0  2  0  0  0  0  0  0
  162.7340  209.7940  156.8080 O   0  0  0  0  0  1  0  0  0  0  0  0
  161.3530  209.9890  156.7740 C   0  0  1  0  0  3  0  0  0  0  0  0
  161.8270  211.0220  154.6730 O   0  0  0  0  0  0  0  0  0  0  0  0
  160.9860  210.8270  155.5920 C   0  0  0  0  0  0  0  0  0  0  0  0
  159.7020  211.3690  155.5180 O   0  0  0  0  0  0  0  0  0  0  0  0
  159.2990  213.1060  153.5660 O   0  0  0  0  0  1  0  0  0  0  0  0
  157.2540  211.5910  154.2000 O   0  0  0  0  0  1  0  0  0  0  0  0
  158.9310  211.7090  154.0170 P   0  0  0  0  0  0  0  0  0  0  0  0
  159.4470  210.5950  152.8570 O   0  0  0  0  0  0  0  0  0  0  0  0
  2  5  2  0  0  0  0
  2  7  1  0  0  0  0
  3  1  2  0  0  0  0
  3 24  1  0  0  0  0
  4 11  1  1  0  0  0
  4  1  1  0  0  0  0
  5  4  1  0  0  0  0
  7  6  1  1  0  0  0
  7  3  1  0  0  0  0
  8  9  2  0  0  0  0
  8 11  1  0  0  0  0
  9 10  1  0  0  0  0
 11 12  2  0  0  0  0
 12 10  1  0  0  0  0
 14 19  1  0  0  0  0
 14 13  1  1  0  0  0
 14  9  1  0  0  0  0
 16 18  1  0  0  0  0
 16 20  1  0  0  0  0
 17 15  1  0  0  0  0
 18 21  1  0  0  0  0
 20 17  1  0  0  0  0
 21 17  1  0  0  0  0
 21 19  2  0  0  0  0
 23 22  1  0  0  0  0
 23  2  1  0  0  0  0
 24 25  1  0  0  0  0
 25 26  1  0  0  0  0
 26 27  1  0  0  0  0
 27 28  1  0  0  0  0
 28 29  1  0  0  0  0
 29 30  1  0  0  0  0
 30 31  1  0  0  0  0
 31 33  1  0  0  0  0
 33 32  1  6  0  0  0
 34 35  2  0  0  0  0
 35 33  1  0  0  0  0
 36 35  1  0  0  0  0
 37 39  1  0  0  0  0
 39 38  1  0  0  0  0
 39 36  1  0  0  0  0
 40 39  2  0  0  0  0
M  END
>  <MODEL>
5

>  <REMARK>
 VINA RESULT:      -5.9      2.894      7.464
  Name = 
  16 active torsions:
  status: ('A' for Active; 'I' for Inactive)
    1  A    between atoms: C_3  and  N_20
    2  A    between atoms: C_3  and  C_39
    3  A    between atoms: C_9  and  C_40
    4  A    between atoms: CA_10  and  C_22
    5  A    between atoms: C_11  and  C_18
    6  A    between atoms: C_11  and  C_19
    7  A    between atoms: O_13  and  C_18
    8  A    between atoms: O_13  and  P_29
    9  A    between atoms: N_17  and  C_19
   10  A    between atoms: N_17  and  C_34
   11  A    between atoms: N_20  and  C_32
   12  A    between atoms: C_23  and  O_36
   13  A    between atoms: C_24  and  C_25
   14  A    between atoms: N_30  and  C_40
   15  A    between atoms: C_32  and  C_34
   16  A    between atoms: O_36  and  C_39
                            x       y       z     vdW  Elec       q    Type
                         _______ _______ _______ _____ _____    ______ ____

>  <TORSDO>
F 16

$$$$
=
 OpenBabel11052411453D

 40 42  0  0  1  0  0  0  0  0999 V2000
  161.2490  207.7440  152.0300 N   0  0  0  0  0  0  0  0  0  0  0  0
  161.0910  205.0000  152.2780 C   0  0  0  0  0  0  0  0  0  0  0  0
  161.1470  207.0760  150.9180 C   0  0  0  0  0  0  0  0  0  0  0  0
  161.6650  207.1040  153.2760 C   0  0  2  0  0  3  0  0  0  0  0  0
  161.2060  205.7290  153.3370 N   0  0  0  0  0  0  0  0  0  0  0  0
  160.5390  204.9210  149.8310 C   0  0  0  0  0  1  0  0  0  0  0  0
  161.3880  205.5860  150.9080 C   0  0  2  0  0  3  0  0  0  0  0  0
  161.0420  209.2300  154.3990 N   0  0  0  0  0  0  0  0  0  0  0  0
  160.5890  209.7340  155.5640 C   0  0  0  0  0  0  0  0  0  0  0  0
  160.3350  208.5130  156.6900 S   0  0  0  0  0  0  0  0  0  0  0  0
  161.1780  207.8770  154.4540 C   0  0  0  0  0  0  0  0  0  0  0  0
  160.8310  207.2710  155.6670 C   0  0  0  0  0  3  0  0  0  0  0  0
  161.0830  211.6950  156.9830 C   0  0  0  0  0  1  0  0  0  0  0  0
  160.3170  211.1890  155.7760 C   0  0  2  0  0  3  0  0  0  0  0  0
  156.1600  212.1470  156.7300 C   0  0  0  0  0  1  0  0  0  0  0  0
  157.6360  213.9480  153.6730 C   0  0  0  0  0  2  0  0  0  0  0  0
  156.7720  212.3310  155.4240 N   0  0  0  0  0  0  0  0  0  0  0  0
  158.6990  212.9140  154.0340 C   0  0  0  0  0  2  0  0  0  0  0  0
  158.8890  211.4150  155.9720 N   0  0  0  0  0  0  0  0  0  0  0  0
  155.9970  213.3120  154.1880 S   0  0  0  0  0  0  0  0  0  0  0  0
  158.1620  212.1680  155.2030 C   0  0  0  0  0  0  0  0  0  0  0  0
  161.7470  202.7690  151.8320 O   0  0  0  0  0  1  0  0  0  0  0  0
  160.7610  203.5490  152.4370 C   0  0  0  0  0  2  0  0  0  0  0  0
  160.8240  207.7370  149.7240 O   0  0  0  0  0  0  0  0  0  0  0  0
  161.7730  208.4930  148.9770 C   0  0  0  0  0  2  0  0  0  0  0  0
  162.6450  207.5740  148.1330 C   0  0  0  0  0  2  0  0  0  0  0  0
  161.8570  206.4520  147.6460 N   0  0  0  0  0  2  0  0  0  0  0  0
  162.3270  206.1540  146.3030 C   0  0  0  0  0  2  0  0  0  0  0  0
  161.1390  205.8590  145.4030 C   0  0  0  0  0  2  0  0  0  0  0  0
  161.4920  204.8340  144.4330 N   0  0  0  0  0  2  0  0  0  0  0  0
  161.6140  203.5810  145.1630 C   0  0  0  0  0  2  0  0  0  0  0  0
  159.5100  203.1420  144.1350 O   0  0  0  0  0  1  0  0  0  0  0  0
  160.2530  202.9170  145.2950 C   0  0  1  0  0  3  0  0  0  0  0  0
  159.8170  200.6280  144.7670 O   0  0  0  0  0  0  0  0  0  0  0  0
  160.3930  201.4480  145.5330 C   0  0  0  0  0  0  0  0  0  0  0  0
  161.1790  201.0070  146.5990 O   0  0  0  0  0  0  0  0  0  0  0  0
  159.4770  201.7810  148.4680 O   0  0  0  0  0  1  0  0  0  0  0  0
  161.7770  203.0380  148.4130 O   0  0  0  0  0  0  0  0  0  0  0  0
  160.9530  201.5760  148.2080 P   0  0  0  0  0  0  0  0  0  0  0  0
  161.5570  200.4340  149.2960 O   0  0  0  0  0  1  0  0  0  0  0  0
  1  4  1  0  0  0  0
  2 23  1  0  0  0  0
  2  5  2  0  0  0  0
  3  1  2  0  0  0  0
  4  5  1  0  0  0  0
  4 11  1  1  0  0  0
  7  6  1  6  0  0  0
  7  3  1  0  0  0  0
  7  2  1  0  0  0  0
  8 11  1  0  0  0  0
  8  9  2  0  0  0  0
  9 14  1  0  0  0  0
  9 10  1  0  0  0  0
 11 12  2  0  0  0  0
 12 10  1  0  0  0  0
 14 19  1  0  0  0  0
 14 13  1  1  0  0  0
 16 18  1  0  0  0  0
 16 20  1  0  0  0  0
 17 15  1  0  0  0  0
 18 21  1  0  0  0  0
 20 17  1  0  0  0  0
 21 17  1  0  0  0  0
 21 19  2  0  0  0  0
 22 23  1  0  0  0  0
 24  3  1  0  0  0  0
 25 24  1  0  0  0  0
 26 25  1  0  0  0  0
 27 26  1  0  0  0  0
 28 27  1  0  0  0  0
 29 28  1  0  0  0  0
 30 31  1  0  0  0  0
 30 29  1  0  0  0  0
 31 33  1  0  0  0  0
 33 32  1  6  0  0  0
 33 35  1  0  0  0  0
 34 35  2  0  0  0  0
 35 36  1  0  0  0  0
 36 39  1  0  0  0  0
 39 38  2  0  0  0  0
 39 37  1  0  0  0  0
 39 40  1  0  0  0  0
M  END
>  <MODEL>
6

>  <REMARK>
 VINA RESULT:      -5.8      4.214      6.397
  Name = 
  16 active torsions:
  status: ('A' for Active; 'I' for Inactive)
    1  A    between atoms: C_3  and  N_20
    2  A    between atoms: C_3  and  C_39
    3  A    between atoms: C_9  and  C_40
    4  A    between atoms: CA_10  and  C_22
    5  A    between atoms: C_11  and  C_18
    6  A    between atoms: C_11  and  C_19
    7  A    between atoms: O_13  and  C_18
    8  A    between atoms: O_13  and  P_29
    9  A    between atoms: N_17  and  C_19
   10  A    between atoms: N_17  and  C_34
   11  A    between atoms: N_20  and  C_32
   12  A    between atoms: C_23  and  O_36
   13  A    between atoms: C_24  and  C_25
   14  A    between atoms: N_30  and  C_40
   15  A    between atoms: C_32  and  C_34
   16  A    between atoms: O_36  and  C_39
                            x       y       z     vdW  Elec       q    Type
                         _______ _______ _______ _____ _____    ______ ____

>  <TORSDO>
F 16

$$$$
=
 OpenBabel11052411453D

 40 42  0  0  1  0  0  0  0  0999 V2000
  161.1860  211.2660  150.5680 N   0  0  0  0  0  0  0  0  0  0  0  0
  161.2090  212.2800  148.0020 C   0  0  0  0  0  0  0  0  0  0  0  0
  160.6910  212.4610  150.4230 C   0  0  0  0  0  0  0  0  0  0  0  0
  162.0580  210.6670  149.5600 C   0  0  2  0  0  3  0  0  0  0  0  0
  161.6940  211.1040  148.2260 N   0  0  0  0  0  0  0  0  0  0  0  0
  159.7790  214.1600  148.8500 C   0  0  0  0  0  1  0  0  0  0  0  0
  160.9520  213.2360  149.1540 C   0  0  2  0  0  3  0  0  0  0  0  0
  161.8950  208.4070  148.5410 N   0  0  0  0  0  0  0  0  0  0  0  0
  161.8930  207.0940  148.8430 C   0  0  0  0  0  0  0  0  0  0  0  0
  162.0690  206.8540  150.4960 S   0  0  0  0  0  0  0  0  0  0  0  0
  162.0290  209.1790  149.6550 C   0  0  0  0  0  0  0  0  0  0  0  0
  162.1420  208.4950  150.8700 C   0  0  0  0  0  3  0  0  0  0  0  0
  160.7100  206.3560  146.8030 C   0  0  0  0  0  1  0  0  0  0  0  0
  161.7910  206.0170  147.8100 C   0  0  2  0  0  3  0  0  0  0  0  0
  160.4380  202.3420  149.7520 C   0  0  0  0  0  1  0  0  0  0  0  0
  160.8990  202.1520  145.9420 C   0  0  0  0  0  2  0  0  0  0  0  0
  161.0970  202.3980  148.4570 N   0  0  0  0  0  0  0  0  0  0  0  0
  161.4960  203.5070  146.3130 C   0  0  0  0  0  2  0  0  0  0  0  0
  161.4890  204.7370  148.4410 N   0  0  0  0  0  0  0  0  0  0  0  0
  161.0800  201.0170  147.3680 S   0  0  0  0  0  0  0  0  0  0  0  0
  161.3650  203.6190  147.7900 C   0  0  0  0  0  0  0  0  0  0  0  0
  162.2370  212.9650  145.9810 O   0  0  0  0  0  1  0  0  0  0  0  0
  161.0030  212.7130  146.5840 C   0  0  0  0  0  2  0  0  0  0  0  0
  159.9250  213.0370  151.4460 O   0  0  0  0  0  0  0  0  0  0  0  0
  158.5710  212.6730  151.6970 C   0  0  0  0  0  2  0  0  0  0  0  0
  158.1950  212.9750  153.1410 C   0  0  0  0  0  2  0  0  0  0  0  0
  158.4780  214.3690  153.4460 N   0  0  0  0  0  2  0  0  0  0  0  0
  158.6960  214.4530  154.8810 C   0  0  0  0  0  2  0  0  0  0  0  0
  158.0690  213.2480  155.5620 C   0  0  0  0  0  2  0  0  0  0  0  0
  158.8580  212.8650  156.7220 N   0  0  0  0  0  2  0  0  0  0  0  0
  160.2100  212.6070  156.2510 C   0  0  0  0  0  2  0  0  0  0  0  0
  159.5990  210.5210  157.2260 O   0  0  0  0  0  1  0  0  0  0  0  0
  160.5450  211.1310  156.4010 C   0  0  1  0  0  3  0  0  0  0  0  0
  161.1390  211.0090  154.0910 O   0  0  0  0  0  0  0  0  0  0  0  0
  160.5780  210.4500  155.0720 C   0  0  0  0  0  0  0  0  0  0  0  0
  159.9950  209.1880  154.9430 O   0  0  0  0  0  0  0  0  0  0  0  0
  159.7220  206.9200  156.2740 O   0  0  0  0  0  1  0  0  0  0  0  0
  161.9970  208.1810  156.6020 O   0  0  0  0  0  1  0  0  0  0  0  0
  160.7460  207.7610  155.5450 P   0  0  0  0  0  0  0  0  0  0  0  0
  161.3790  206.8730  154.2540 O   0  0  0  0  0  0  0  0  0  0  0  0
  2  5  2  0  0  0  0
  2  7  1  0  0  0  0
  3  1  2  0  0  0  0
  3 24  1  0  0  0  0
  4 11  1  6  0  0  0
  4  1  1  0  0  0  0
  5  4  1  0  0  0  0
  7  6  1  6  0  0  0
  7  3  1  0  0  0  0
  8  9  2  0  0  0  0
  8 11  1  0  0  0  0
  9 10  1  0  0  0  0
 10 12  1  0  0  0  0
 11 12  2  0  0  0  0
 14 13  1  6  0  0  0
 14 19  1  0  0  0  0
 14  9  1  0  0  0  0
 16 18  1  0  0  0  0
 16 20  1  0  0  0  0
 17 15  1  0  0  0  0
 18 21  1  0  0  0  0
 20 17  1  0  0  0  0
 21 19  2  0  0  0  0
 21 17  1  0  0  0  0
 22 23  1  0  0  0  0
 23  2  1  0  0  0  0
 24 25  1  0  0  0  0
 25 26  1  0  0  0  0
 26 27  1  0  0  0  0
 27 28  1  0  0  0  0
 28 29  1  0  0  0  0
 29 30  1  0  0  0  0
 31 33  1  0  0  0  0
 31 30  1  0  0  0  0
 33 32  1  1  0  0  0
 34 35  2  0  0  0  0
 35 33  1  0  0  0  0
 36 35  1  0  0  0  0
 36 39  1  0  0  0  0
 39 37  1  0  0  0  0
 39 38  1  0  0  0  0
 40 39  2  0  0  0  0
M  END
>  <MODEL>
7

>  <REMARK>
 VINA RESULT:      -5.7      4.202      9.487
  Name = 
  16 active torsions:
  status: ('A' for Active; 'I' for Inactive)
    1  A    between atoms: C_3  and  N_20
    2  A    between atoms: C_3  and  C_39
    3  A    between atoms: C_9  and  C_40
    4  A    between atoms: CA_10  and  C_22
    5  A    between atoms: C_11  and  C_18
    6  A    between atoms: C_11  and  C_19
    7  A    between atoms: O_13  and  C_18
    8  A    between atoms: O_13  and  P_29
    9  A    between atoms: N_17  and  C_19
   10  A    between atoms: N_17  and  C_34
   11  A    between atoms: N_20  and  C_32
   12  A    between atoms: C_23  and  O_36
   13  A    between atoms: C_24  and  C_25
   14  A    between atoms: N_30  and  C_40
   15  A    between atoms: C_32  and  C_34
   16  A    between atoms: O_36  and  C_39
                            x       y       z     vdW  Elec       q    Type
                         _______ _______ _______ _____ _____    ______ ____

>  <TORSDO>
F 16

$$$$
=
 OpenBabel11052411453D

 40 42  0  0  1  0  0  0  0  0999 V2000
  160.6200  211.3740  151.6990 N   0  0  0  0  0  0  0  0  0  0  0  0
  160.7500  213.1220  149.5680 C   0  0  0  0  0  0  0  0  0  0  0  0
  161.4120  211.0290  150.7270 C   0  0  0  0  0  0  0  0  0  0  0  0
  159.5710  212.3750  151.5180 C   0  0  2  0  0  3  0  0  0  0  0  0
  159.9750  213.3920  150.5650 N   0  0  0  0  0  0  0  0  0  0  0  0
  162.6760  211.7600  148.7110 C   0  0  0  0  0  1  0  0  0  0  0  0
  161.3120  211.7220  149.3900 C   0  0  2  0  0  3  0  0  0  0  0  0
  159.6810  212.4980  153.9970 N   0  0  0  0  0  0  0  0  0  0  0  0
  159.2270  213.1970  155.0560 C   0  0  0  0  0  0  0  0  0  0  0  0
  158.2250  214.4530  154.5650 S   0  0  0  0  0  0  0  0  0  0  0  0
  159.1990  212.9930  152.8230 C   0  0  0  0  0  0  0  0  0  0  0  0
  158.3520  214.1020  152.9230 C   0  0  0  0  0  3  0  0  0  0  0  0
  159.7960  214.1790  157.2510 C   0  0  0  0  0  1  0  0  0  0  0  0
  159.6210  212.8930  156.4660 C   0  0  2  0  0  3  0  0  0  0  0  0
  163.4020  210.7640  156.9930 C   0  0  0  0  0  1  0  0  0  0  0  0
  160.2260  208.6100  157.1810 C   0  0  0  0  0  2  0  0  0  0  0  0
  162.1540  210.1420  156.5810 N   0  0  0  0  0  0  0  0  0  0  0  0
  159.7170  209.9670  156.7020 C   0  0  0  0  0  2  0  0  0  0  0  0
  160.8640  212.1300  156.4920 N   0  0  0  0  0  0  0  0  0  0  0  0
  161.9550  208.3960  156.6150 S   0  0  0  0  0  0  0  0  0  0  0  0
  160.9190  210.8350  156.5870 C   0  0  0  0  0  0  0  0  0  0  0  0
  160.0010  214.1450  147.5670 O   0  0  0  0  0  1  0  0  0  0  0  0
  160.9980  214.1850  148.5440 C   0  0  0  0  0  2  0  0  0  0  0  0
  162.3550  210.0070  150.9120 O   0  0  0  0  0  0  0  0  0  0  0  0
  162.1110  208.6540  150.5420 C   0  0  0  0  0  2  0  0  0  0  0  0
  161.2210  207.9700  151.5710 C   0  0  0  0  0  2  0  0  0  0  0  0
  162.0380  207.2290  152.5200 N   0  0  0  0  0  2  0  0  0  0  0  0
  161.4500  205.9050  152.6430 C   0  0  0  0  0  2  0  0  0  0  0  0
  161.9530  205.0190  151.5150 C   0  0  0  0  0  2  0  0  0  0  0  0
  161.3940  203.6830  151.6430 N   0  0  0  0  0  2  0  0  0  0  0  0
  160.4480  203.5110  150.5510 C   0  0  0  0  0  2  0  0  0  0  0  0
  160.1750  201.4470  149.3920 O   0  0  0  0  0  1  0  0  0  0  0  0
  161.0150  202.5540  149.5140 C   0  0  1  0  0  3  0  0  0  0  0  0
  161.4840  202.5530  147.1710 O   0  0  0  0  0  0  0  0  0  0  0  0
  161.1660  203.2280  148.1880 C   0  0  0  0  0  0  0  0  0  0  0  0
  160.9330  204.6010  148.0950 O   0  0  0  0  0  0  0  0  0  0  0  0
  160.8630  206.2030  145.9930 O   0  0  0  0  0  0  0  0  0  0  0  0
  163.0020  204.7040  146.2270 O   0  0  0  0  0  1  0  0  0  0  0  0
  161.8110  205.6120  147.0130 P   0  0  0  0  0  0  0  0  0  0  0  0
  162.5430  206.8610  147.8820 O   0  0  0  0  0  1  0  0  0  0  0  0
  2  5  2  0  0  0  0
  3 24  1  0  0  0  0
  3  1  2  0  0  0  0
  4  1  1  0  0  0  0
  4 11  1  1  0  0  0
  5  4  1  0  0  0  0
  7  6  1  1  0  0  0
  7  2  1  0  0  0  0
  7  3  1  0  0  0  0
  8  9  2  0  0  0  0
  9 14  1  0  0  0  0
 10  9  1  0  0  0  0
 11 12  2  0  0  0  0
 11  8  1  0  0  0  0
 12 10  1  0  0  0  0
 14 19  1  0  0  0  0
 14 13  1  1  0  0  0
 17 21  1  0  0  0  0
 17 20  1  0  0  0  0
 17 15  1  0  0  0  0
 18 16  1  0  0  0  0
 19 21  2  0  0  0  0
 20 16  1  0  0  0  0
 21 18  1  0  0  0  0
 22 23  1  0  0  0  0
 23  2  1  0  0  0  0
 25 24  1  0  0  0  0
 25 26  1  0  0  0  0
 26 27  1  0  0  0  0
 27 28  1  0  0  0  0
 29 30  1  0  0  0  0
 29 28  1  0  0  0  0
 31 30  1  0  0  0  0
 33 32  1  6  0  0  0
 33 31  1  0  0  0  0
 34 35  2  0  0  0  0
 35 33  1  0  0  0  0
 36 35  1  0  0  0  0
 37 39  2  0  0  0  0
 38 39  1  0  0  0  0
 39 40  1  0  0  0  0
 39 36  1  0  0  0  0
M  END
>  <MODEL>
8

>  <REMARK>
 VINA RESULT:      -5.4      3.254      6.791
  Name = 
  16 active torsions:
  status: ('A' for Active; 'I' for Inactive)
    1  A    between atoms: C_3  and  N_20
    2  A    between atoms: C_3  and  C_39
    3  A    between atoms: C_9  and  C_40
    4  A    between atoms: CA_10  and  C_22
    5  A    between atoms: C_11  and  C_18
    6  A    between atoms: C_11  and  C_19
    7  A    between atoms: O_13  and  C_18
    8  A    between atoms: O_13  and  P_29
    9  A    between atoms: N_17  and  C_19
   10  A    between atoms: N_17  and  C_34
   11  A    between atoms: N_20  and  C_32
   12  A    between atoms: C_23  and  O_36
   13  A    between atoms: C_24  and  C_25
   14  A    between atoms: N_30  and  C_40
   15  A    between atoms: C_32  and  C_34
   16  A    between atoms: O_36  and  C_39
                            x       y       z     vdW  Elec       q    Type
                         _______ _______ _______ _____ _____    ______ ____

>  <TORSDO>
F 16

$$$$
=
 OpenBabel11052411453D

 40 42  0  0  1  0  0  0  0  0999 V2000
  161.3740  213.4920  145.6400 N   0  0  0  0  0  0  0  0  0  0  0  0
  158.6420  213.5930  146.0180 C   0  0  0  0  0  0  0  0  0  0  0  0
  160.9740  213.6410  146.8690 C   0  0  0  0  0  0  0  0  0  0  0  0
  160.4950  213.7710  144.5060 C   0  0  2  0  0  3  0  0  0  0  0  0
  159.1140  213.4580  144.8240 N   0  0  0  0  0  0  0  0  0  0  0  0
  159.0890  213.4490  148.4830 C   0  0  0  0  0  1  0  0  0  0  0  0
  159.5460  214.0390  147.1540 C   0  0  2  0  0  3  0  0  0  0  0  0
  160.0610  212.6870  142.3130 N   0  0  0  0  0  0  0  0  0  0  0  0
  160.6640  212.0170  141.3110 C   0  0  0  0  0  0  0  0  0  0  0  0
  162.3070  211.8330  141.6120 S   0  0  0  0  0  0  0  0  0  0  0  0
  160.9410  213.0220  143.2960 C   0  0  0  0  0  0  0  0  0  0  0  0
  162.2690  212.6300  143.0950 C   0  0  0  0  0  3  0  0  0  0  0  0
  160.7410  211.8980  138.8450 C   0  0  0  0  0  1  0  0  0  0  0  0
  159.9420  211.5530  140.0860 C   0  0  2  0  0  3  0  0  0  0  0  0
  156.1710  213.6860  139.5050 C   0  0  0  0  0  1  0  0  0  0  0  0
  156.3300  210.1350  138.0460 C   0  0  0  0  0  2  0  0  0  0  0  0
  156.3180  212.2400  139.4580 N   0  0  0  0  0  0  0  0  0  0  0  0
  157.6090  210.2460  138.8720 C   0  0  0  0  0  2  0  0  0  0  0  0
  158.6240  212.1740  140.0090 N   0  0  0  0  0  0  0  0  0  0  0  0
  155.0530  211.2190  138.7880 S   0  0  0  0  0  0  0  0  0  0  0  0
  157.5830  211.6020  139.4820 C   0  0  0  0  0  0  0  0  0  0  0  0
  156.8250  212.0760  145.9580 O   0  0  0  0  0  1  0  0  0  0  0  0
  157.1740  213.3990  146.2350 C   0  0  0  0  0  2  0  0  0  0  0  0
  161.8670  213.4440  147.9320 O   0  0  0  0  0  0  0  0  0  0  0  0
  162.7330  212.3160  148.0150 C   0  0  0  0  0  2  0  0  0  0  0  0
  161.9490  211.0640  148.3800 C   0  0  0  0  0  2  0  0  0  0  0  0
  161.5310  211.1290  149.7720 N   0  0  0  0  0  2  0  0  0  0  0  0
  162.3360  210.1630  150.5020 C   0  0  0  0  0  2  0  0  0  0  0  0
  161.5890  208.8420  150.5890 C   0  0  0  0  0  2  0  0  0  0  0  0
  162.4120  207.7690  150.0550 N   0  0  0  0  0  2  0  0  0  0  0  0
  161.5660  206.9850  149.1680 C   0  0  0  0  0  2  0  0  0  0  0  0
  160.4420  205.3500  150.4870 O   0  0  0  0  0  1  0  0  0  0  0  0
  161.5250  205.5360  149.6270 C   0  0  1  0  0  3  0  0  0  0  0  0
  160.5920  203.6530  148.4910 O   0  0  0  0  0  0  0  0  0  0  0  0
  161.4170  204.6070  148.4620 C   0  0  0  0  0  0  0  0  0  0  0  0
  162.2270  204.8220  147.3460 O   0  0  0  0  0  0  0  0  0  0  0  0
  162.6420  205.8080  144.9280 O   0  0  0  0  0  0  0  0  0  0  0  0
  160.2580  206.2120  145.9430 O   0  0  0  0  0  1  0  0  0  0  0  0
  161.5770  205.1660  145.7890 P   0  0  0  0  0  0  0  0  0  0  0  0
  161.0680  203.7270  145.0640 O   0  0  0  0  0  1  0  0  0  0  0  0
  1  3  2  0  0  0  0
  2 23  1  0  0  0  0
  2  7  1  0  0  0  0
  3  7  1  0  0  0  0
  3 24  1  0  0  0  0
  4 11  1  6  0  0  0
  4  5  1  0  0  0  0
  4  1  1  0  0  0  0
  5  2  2  0  0  0  0
  7  6  1  1  0  0  0
  8 11  1  0  0  0  0
  9 10  1  0  0  0  0
  9  8  2  0  0  0  0
 10 12  1  0  0  0  0
 12 11  2  0  0  0  0
 14 13  1  6  0  0  0
 14  9  1  0  0  0  0
 16 20  1  0  0  0  0
 16 18  1  0  0  0  0
 17 21  1  0  0  0  0
 17 15  1  0  0  0  0
 18 21  1  0  0  0  0
 19 14  1  0  0  0  0
 20 17  1  0  0  0  0
 21 19  2  0  0  0  0
 22 23  1  0  0  0  0
 24 25  1  0  0  0  0
 25 26  1  0  0  0  0
 26 27  1  0  0  0  0
 27 28  1  0  0  0  0
 28 29  1  0  0  0  0
 30 29  1  0  0  0  0
 31 33  1  0  0  0  0
 31 30  1  0  0  0  0
 33 32  1  1  0  0  0
 35 34  2  0  0  0  0
 35 33  1  0  0  0  0
 36 35  1  0  0  0  0
 37 39  2  0  0  0  0
 39 38  1  0  0  0  0
 39 36  1  0  0  0  0
 40 39  1  0  0  0  0
M  END
>  <MODEL>
9

>  <REMARK>
 VINA RESULT:      -5.4      3.912      7.752
  Name = 
  16 active torsions:
  status: ('A' for Active; 'I' for Inactive)
    1  A    between atoms: C_3  and  N_20
    2  A    between atoms: C_3  and  C_39
    3  A    between atoms: C_9  and  C_40
    4  A    between atoms: CA_10  and  C_22
    5  A    between atoms: C_11  and  C_18
    6  A    between atoms: C_11  and  C_19
    7  A    between atoms: O_13  and  C_18
    8  A    between atoms: O_13  and  P_29
    9  A    between atoms: N_17  and  C_19
   10  A    between atoms: N_17  and  C_34
   11  A    between atoms: N_20  and  C_32
   12  A    between atoms: C_23  and  O_36
   13  A    between atoms: C_24  and  C_25
   14  A    between atoms: N_30  and  C_40
   15  A    between atoms: C_32  and  C_34
   16  A    between atoms: O_36  and  C_39
                            x       y       z     vdW  Elec       q    Type
                         _______ _______ _______ _____ _____    ______ ____

>  <TORSDO>
F 16

$$$$
