=
 OpenBabel11042423123D

 29 34  0  0  1  0  0  0  0  0999 V2000
  158.7090  213.2460  139.1670 N   0  0  0  0  0  0  0  0  0  0  0  0
  156.3510  212.7060  139.3780 C   0  0  0  0  0  0  0  0  0  0  0  0
  159.4710  209.1950  138.0340 C   0  0  0  0  0  3  0  0  0  0  0  0
  159.9230  213.3650  142.1220 C   0  0  0  0  0  0  0  0  0  0  0  0
  160.3420  211.4720  138.3050 C   0  0  0  0  0  0  0  0  0  0  0  0
  159.0380  211.8840  138.7640 C   0  0  0  0  0  0  0  0  0  0  0  0
  158.5910  213.9490  142.4780 C   0  0  0  0  0  1  0  0  0  0  0  0
  161.4670  212.4690  137.9880 C   0  0  2  0  0  3  0  0  0  0  0  0
  154.0050  212.2130  139.7220 C   0  0  0  0  0  3  0  0  0  0  0  0
  162.3950  212.2570  141.4830 C   0  0  0  0  0  3  0  0  0  0  0  0
  155.0490  213.1380  139.6510 C   0  0  0  0  0  3  0  0  0  0  0  0
  162.8110  211.9360  138.4970 C   0  0  0  0  0  2  0  0  0  0  0  0
  159.6770  214.1760  139.7230 C   0  0  0  0  0  2  0  0  0  0  0  0
  157.3910  213.6290  139.3390 O   0  0  0  0  0  0  0  0  0  0  0  0
  160.4450  213.5130  140.8240 C   0  0  0  0  0  0  0  0  0  0  0  0
  156.6160  211.3480  139.1680 C   0  0  0  0  0  0  0  0  0  0  0  0
  155.5600  210.4230  139.2400 C   0  0  0  0  0  3  0  0  0  0  0  0
  161.6710  212.9310  140.4950 C   0  0  0  0  0  0  0  0  0  0  0  0
  161.8830  212.1310  142.7350 N   0  0  0  0  0  0  0  0  0  0  0  0
  154.2610  210.8550  139.5190 C   0  0  0  0  0  3  0  0  0  0  0  0
  160.1810  212.4700  144.4710 C   0  0  0  0  0  1  0  0  0  0  0  0
  157.9910  210.9290  138.8200 C   0  0  0  0  0  0  0  0  0  0  0  0
  160.5090  210.1110  137.9050 C   0  0  0  0  0  0  0  0  0  0  0  0
  158.2290  209.5980  138.4870 C   0  0  0  0  0  3  0  0  0  0  0  0
  162.2430  213.1710  139.1290 C   0  0  2  0  0  3  0  0  0  0  0  0
  160.6770  212.6580  143.0770 C   0  0  0  0  0  0  0  0  0  0  0  0
  161.7460  209.5960  137.2330 C   0  0  0  0  0  2  0  0  0  0  0  0
  161.9300  208.1710  137.5270 C   0  0  0  0  0  0  0  0  0  0  0  0
  162.0750  207.0460  137.7590 N   0  0  0  0  0  0  0  0  0  0  0  0
  1 14  1  0  0  0  0
  1 13  1  0  0  0  0
  2 11  1  0  0  0  0
  3 24  1  0  0  0  0
  4  7  1  0  0  0  0
  4 26  1  0  0  0  0
  5  6  2  0  0  0  0
  6 22  1  0  0  0  0
  6  1  1  0  0  0  0
  8  5  1  0  0  0  0
  8 12  1  1  0  0  0
  8 25  1  0  0  0  0
 10 19  1  0  0  0  0
 11  9  2  0  0  0  0
 13 15  1  0  0  0  0
 14  2  1  0  0  0  0
 15  4  2  0  0  0  0
 16 17  1  0  0  0  0
 16  2  2  0  0  0  0
 17 20  2  0  0  0  0
 18 15  1  0  0  0  0
 18 10  2  0  0  0  0
 19 26  2  0  0  0  0
 20  9  1  0  0  0  0
 22 16  1  0  0  0  0
 23  3  2  0  0  0  0
 23  5  1  0  0  0  0
 24 22  2  0  0  0  0
 25 12  1  1  0  0  0
 25 18  1  0  0  0  0
 26 21  1  0  0  0  0
 27 28  1  0  0  0  0
 27 23  1  0  0  0  0
 28 29  3  0  0  0  0
M  END
>  <MODEL>
1

>  <REMARK>
 VINA RESULT:      -5.0      0.000      0.000
  Name = 
  2 active torsions:
  status: ('A' for Active; 'I' for Inactive)
    1  A    between atoms: C_6  and  C_11
    2  A    between atoms: C_11  and  C_26
                            x       y       z     vdW  Elec       q    Type
                         _______ _______ _______ _____ _____    ______ ____

>  <TORSDO>
F 2

$$$$
=
 OpenBabel11042423123D

 29 34  0  0  1  0  0  0  0  0999 V2000
  159.6790  210.8980  137.7250 N   0  0  0  0  0  0  0  0  0  0  0  0
  161.0000  208.8680  137.9060 C   0  0  0  0  0  0  0  0  0  0  0  0
  160.7890  211.9010  141.7290 C   0  0  0  0  0  3  0  0  0  0  0  0
  156.6110  210.0660  138.0570 C   0  0  0  0  0  0  0  0  0  0  0  0
  159.6830  212.5870  139.6500 C   0  0  0  0  0  0  0  0  0  0  0  0
  160.0270  211.3070  139.0800 C   0  0  0  0  0  0  0  0  0  0  0  0
  157.0240  208.8390  137.3070 C   0  0  0  0  0  1  0  0  0  0  0  0
  159.1020  213.7400  138.8170 C   0  0  2  0  0  3  0  0  0  0  0  0
  162.2010  206.7710  138.0530 C   0  0  0  0  0  3  0  0  0  0  0  0
  155.8320  212.3290  139.4780 C   0  0  0  0  0  3  0  0  0  0  0  0
  161.4860  207.7050  137.3010 C   0  0  0  0  0  3  0  0  0  0  0  0
  157.9920  214.4530  139.5970 C   0  0  0  0  0  2  0  0  0  0  0  0
  158.5140  211.3910  137.0110 C   0  0  0  0  0  2  0  0  0  0  0  0
  160.2630  209.7800  137.1570 O   0  0  0  0  0  0  0  0  0  0  0  0
  157.3000  211.2800  137.8800 C   0  0  0  0  0  0  0  0  0  0  0  0
  161.2320  209.1090  139.2640 C   0  0  0  0  0  0  0  0  0  0  0  0
  161.9540  208.1650  140.0150 C   0  0  0  0  0  3  0  0  0  0  0  0
  156.9290  212.4070  138.6150 C   0  0  0  0  0  0  0  0  0  0  0  0
  155.1690  211.1540  139.6320 N   0  0  0  0  0  0  0  0  0  0  0  0
  162.4330  206.9990  139.4120 C   0  0  0  0  0  3  0  0  0  0  0  0
  154.7540  208.7760  139.1860 C   0  0  0  0  0  1  0  0  0  0  0  0
  160.7600  210.3770  139.8610 C   0  0  0  0  0  0  0  0  0  0  0  0
  160.1240  212.8660  140.9800 C   0  0  0  0  0  0  0  0  0  0  0  0
  161.1010  210.6740  141.1790 C   0  0  0  0  0  3  0  0  0  0  0  0
  157.6260  213.7080  138.3490 C   0  0  2  0  0  3  0  0  0  0  0  0
  155.5280  210.0290  138.9560 C   0  0  0  0  0  0  0  0  0  0  0  0
  160.0050  214.2150  141.6210 C   0  0  0  0  0  2  0  0  0  0  0  0
  159.3670  214.1000  142.9370 C   0  0  0  0  0  0  0  0  0  0  0  0
  158.8620  214.0100  143.9740 N   0  0  0  0  0  0  0  0  0  0  0  0
  1  6  1  0  0  0  0
  2 16  1  0  0  0  0
  4 26  1  0  0  0  0
  5 23  1  0  0  0  0
  6  5  2  0  0  0  0
  6 22  1  0  0  0  0
  7  4  1  0  0  0  0
  8 12  1  1  0  0  0
  8  5  1  0  0  0  0
  9 20  2  0  0  0  0
 10 19  1  0  0  0  0
 11  2  2  0  0  0  0
 11  9  1  0  0  0  0
 13  1  1  0  0  0  0
 13 15  1  0  0  0  0
 14  1  1  0  0  0  0
 14  2  1  0  0  0  0
 15  4  2  0  0  0  0
 15 18  1  0  0  0  0
 16 22  1  0  0  0  0
 16 17  2  0  0  0  0
 18 10  2  0  0  0  0
 20 17  1  0  0  0  0
 22 24  2  0  0  0  0
 23 27  1  0  0  0  0
 23  3  2  0  0  0  0
 24  3  1  0  0  0  0
 25 18  1  0  0  0  0
 25  8  1  0  0  0  0
 25 12  1  1  0  0  0
 26 21  1  0  0  0  0
 26 19  2  0  0  0  0
 27 28  1  0  0  0  0
 28 29  3  0  0  0  0
M  END
>  <MODEL>
2

>  <REMARK>
 VINA RESULT:      -4.9      2.125      6.251
  Name = 
  2 active torsions:
  status: ('A' for Active; 'I' for Inactive)
    1  A    between atoms: C_6  and  C_11
    2  A    between atoms: C_11  and  C_26
                            x       y       z     vdW  Elec       q    Type
                         _______ _______ _______ _____ _____    ______ ____

>  <TORSDO>
F 2

$$$$
=
 OpenBabel11042423123D

 29 34  0  0  1  0  0  0  0  0999 V2000
  159.7400  209.3190  154.4830 N   0  0  0  0  0  0  0  0  0  0  0  0
  160.9150  208.0010  152.8170 C   0  0  0  0  0  0  0  0  0  0  0  0
  159.6560  212.5970  151.7410 C   0  0  0  0  0  3  0  0  0  0  0  0
  161.9030  210.2830  156.6310 C   0  0  0  0  0  0  0  0  0  0  0  0
  158.9210  211.6720  153.8900 C   0  0  0  0  0  0  0  0  0  0  0  0
  159.6660  210.4720  153.5950 C   0  0  0  0  0  0  0  0  0  0  0  0
  162.5160  208.9390  156.3840 C   0  0  0  0  0  1  0  0  0  0  0  0
  157.9500  211.7780  155.0770 C   0  0  2  0  0  3  0  0  0  0  0  0
  162.1910  206.6670  151.2490 C   0  0  0  0  0  3  0  0  0  0  0  0
  160.7910  212.7940  157.0790 C   0  0  0  0  0  3  0  0  0  0  0  0
  161.4880  206.7790  152.4510 C   0  0  0  0  0  3  0  0  0  0  0  0
  158.0860  213.1450  155.7550 C   0  0  0  0  0  2  0  0  0  0  0  0
  159.6190  209.4090  155.9280 C   0  0  0  0  0  2  0  0  0  0  0  0
  160.2430  208.1130  154.0290 O   0  0  0  0  0  0  0  0  0  0  0  0
  160.5220  210.4840  156.4480 C   0  0  0  0  0  0  0  0  0  0  0  0
  161.0350  209.1170  151.9810 C   0  0  0  0  0  0  0  0  0  0  0  0
  161.7420  208.9960  150.7720 C   0  0  0  0  0  3  0  0  0  0  0  0
  159.9700  211.7510  156.6440 C   0  0  0  0  0  0  0  0  0  0  0  0
  162.1210  212.5840  157.2610 N   0  0  0  0  0  0  0  0  0  0  0  0
  162.3210  207.7770  150.4100 C   0  0  0  0  0  3  0  0  0  0  0  0
  164.1630  211.2210  157.2600 C   0  0  0  0  0  1  0  0  0  0  0  0
  160.3660  210.3780  152.3650 C   0  0  0  0  0  0  0  0  0  0  0  0
  158.9070  212.7080  152.9070 C   0  0  0  0  0  0  0  0  0  0  0  0
  160.3770  211.4490  151.4740 C   0  0  0  0  0  3  0  0  0  0  0  0
  158.4850  211.9200  156.5220 C   0  0  2  0  0  3  0  0  0  0  0  0
  162.6950  211.3690  157.0460 C   0  0  0  0  0  0  0  0  0  0  0  0
  158.0270  213.9180  152.9970 C   0  0  0  0  0  2  0  0  0  0  0  0
  157.1970  214.0360  151.7940 C   0  0  0  0  0  0  0  0  0  0  0  0
  156.5420  214.1300  150.8440 N   0  0  0  0  0  0  0  0  0  0  0  0
  1 13  1  0  0  0  0
  2 14  1  0  0  0  0
  3 23  1  0  0  0  0
  4 26  1  0  0  0  0
  5  8  1  0  0  0  0
  6  5  1  0  0  0  0
  6  1  1  0  0  0  0
  7  4  1  0  0  0  0
  8 12  1  6  0  0  0
  8 25  1  0  0  0  0
  9 11  2  0  0  0  0
 10 19  1  0  0  0  0
 11  2  1  0  0  0  0
 13 15  1  0  0  0  0
 14  1  1  0  0  0  0
 15  4  2  0  0  0  0
 15 18  1  0  0  0  0
 16 22  1  0  0  0  0
 16  2  2  0  0  0  0
 17 16  1  0  0  0  0
 18 10  2  0  0  0  0
 20 17  2  0  0  0  0
 20  9  1  0  0  0  0
 22  6  2  0  0  0  0
 23 27  1  0  0  0  0
 23  5  2  0  0  0  0
 24  3  2  0  0  0  0
 24 22  1  0  0  0  0
 25 12  1  6  0  0  0
 25 18  1  0  0  0  0
 26 21  1  0  0  0  0
 26 19  2  0  0  0  0
 28 27  1  0  0  0  0
 29 28  3  0  0  0  0
M  END
>  <MODEL>
3

>  <REMARK>
 VINA RESULT:      -4.8     12.197     15.387
  Name = 
  2 active torsions:
  status: ('A' for Active; 'I' for Inactive)
    1  A    between atoms: C_6  and  C_11
    2  A    between atoms: C_11  and  C_26
                            x       y       z     vdW  Elec       q    Type
                         _______ _______ _______ _____ _____    ______ ____

>  <TORSDO>
F 2

$$$$
=
 OpenBabel11042423123D

 29 34  0  0  1  0  0  0  0  0999 V2000
  161.4810  213.4240  137.8730 N   0  0  0  0  0  0  0  0  0  0  0  0
  163.8550  213.9330  137.9150 C   0  0  0  0  0  0  0  0  0  0  0  0
  161.2730  214.3540  142.0400 C   0  0  0  0  0  3  0  0  0  0  0  0
  161.1920  210.2410  137.8710 C   0  0  0  0  0  0  0  0  0  0  0  0
  160.0700  213.7940  139.9770 C   0  0  0  0  0  0  0  0  0  0  0  0
  161.3360  213.7360  139.2900 C   0  0  0  0  0  0  0  0  0  0  0  0
  162.4200  210.2860  137.0150 C   0  0  0  0  0  1  0  0  0  0  0  0
  158.7210  213.7450  139.2440 C   0  0  2  0  0  3  0  0  0  0  0  0
  166.2470  214.3100  137.9070 C   0  0  0  0  0  3  0  0  0  0  0  0
  158.9270  210.1370  139.4830 C   0  0  0  0  0  3  0  0  0  0  0  0
  165.0610  214.0520  137.2170 C   0  0  0  0  0  3  0  0  0  0  0  0
  157.7260  212.8700  140.0150 C   0  0  0  0  0  2  0  0  0  0  0  0
  160.5490  212.5890  137.1350 C   0  0  0  0  0  2  0  0  0  0  0  0
  162.6830  213.6450  137.2240 O   0  0  0  0  0  0  0  0  0  0  0  0
  160.2930  211.3220  137.8900 C   0  0  0  0  0  0  0  0  0  0  0  0
  163.8260  214.0790  139.3060 C   0  0  0  0  0  0  0  0  0  0  0  0
  165.0240  214.3410  139.9940 C   0  0  0  0  0  3  0  0  0  0  0  0
  159.1720  211.2830  138.7220 C   0  0  0  0  0  0  0  0  0  0  0  0
  159.7990  209.0960  139.4480 N   0  0  0  0  0  0  0  0  0  0  0  0
  166.2290  214.4530  139.2970 C   0  0  0  0  0  3  0  0  0  0  0  0
  161.8280  207.9370  138.6950 C   0  0  0  0  0  1  0  0  0  0  0  0
  162.5270  214.0110  140.0100 C   0  0  0  0  0  0  0  0  0  0  0  0
  160.0770  214.1520  141.3610 C   0  0  0  0  0  0  0  0  0  0  0  0
  162.4810  214.2820  141.3750 C   0  0  0  0  0  3  0  0  0  0  0  0
  158.1870  212.4120  138.6640 C   0  0  2  0  0  3  0  0  0  0  0  0
  160.9170  209.1180  138.6730 C   0  0  0  0  0  0  0  0  0  0  0  0
  158.8310  214.4350  142.1450 C   0  0  0  0  0  2  0  0  0  0  0  0
  158.8270  213.6620  143.3910 C   0  0  0  0  0  0  0  0  0  0  0  0
  158.8230  213.0520  144.3750 N   0  0  0  0  0  0  0  0  0  0  0  0
  1  6  1  0  0  0  0
  2 16  1  0  0  0  0
  4 15  2  0  0  0  0
  4 26  1  0  0  0  0
  5 23  1  0  0  0  0
  6  5  2  0  0  0  0
  6 22  1  0  0  0  0
  7  4  1  0  0  0  0
  8  5  1  0  0  0  0
  8 12  1  1  0  0  0
  9 20  2  0  0  0  0
 11  9  1  0  0  0  0
 11  2  2  0  0  0  0
 13  1  1  0  0  0  0
 13 15  1  0  0  0  0
 14  1  1  0  0  0  0
 14  2  1  0  0  0  0
 15 18  1  0  0  0  0
 16 17  2  0  0  0  0
 16 22  1  0  0  0  0
 18 10  2  0  0  0  0
 19 10  1  0  0  0  0
 20 17  1  0  0  0  0
 22 24  2  0  0  0  0
 23  3  2  0  0  0  0
 23 27  1  0  0  0  0
 24  3  1  0  0  0  0
 25 18  1  0  0  0  0
 25  8  1  0  0  0  0
 25 12  1  1  0  0  0
 26 21  1  0  0  0  0
 26 19  2  0  0  0  0
 27 28  1  0  0  0  0
 28 29  3  0  0  0  0
M  END
>  <MODEL>
4

>  <REMARK>
 VINA RESULT:      -3.5      2.329      6.931
  Name = 
  2 active torsions:
  status: ('A' for Active; 'I' for Inactive)
    1  A    between atoms: C_6  and  C_11
    2  A    between atoms: C_11  and  C_26
                            x       y       z     vdW  Elec       q    Type
                         _______ _______ _______ _____ _____    ______ ____

>  <TORSDO>
F 2

$$$$
=
 OpenBabel11042423123D

 29 34  0  0  1  0  0  0  0  0999 V2000
  161.5810  211.0410  152.2620 N   0  0  0  0  0  0  0  0  0  0  0  0
  160.2060  210.9070  154.2600 C   0  0  0  0  0  0  0  0  0  0  0  0
  158.3390  212.9520  150.2350 C   0  0  0  0  0  3  0  0  0  0  0  0
  161.6020  208.1370  150.9270 C   0  0  0  0  0  0  0  0  0  0  0  0
  160.6900  212.2550  150.1910 C   0  0  0  0  0  0  0  0  0  0  0  0
  160.5220  211.7070  151.5150 C   0  0  0  0  0  0  0  0  0  0  0  0
  161.5970  207.6560  152.3450 C   0  0  0  0  0  1  0  0  0  0  0  0
  162.0630  212.3870  149.5130 C   0  0  2  0  0  3  0  0  0  0  0  0
  158.8560  210.6330  156.2510 C   0  0  0  0  0  3  0  0  0  0  0  0
  161.5810  209.0140  148.2860 C   0  0  0  0  0  3  0  0  0  0  0  0
  160.0890  210.5380  155.6030 C   0  0  0  0  0  3  0  0  0  0  0  0
  161.9640  212.0110  148.0310 C   0  0  0  0  0  2  0  0  0  0  0  0
  162.6820  210.3280  151.6360 C   0  0  0  0  0  2  0  0  0  0  0  0
  161.4320  210.7810  153.6130 O   0  0  0  0  0  0  0  0  0  0  0  0
  162.1530  209.3890  150.5980 C   0  0  0  0  0  0  0  0  0  0  0  0
  159.0930  211.3810  153.5570 C   0  0  0  0  0  0  0  0  0  0  0  0
  157.8550  211.4760  154.2160 C   0  0  0  0  0  3  0  0  0  0  0  0
  162.1160  209.8410  149.2770 C   0  0  0  0  0  0  0  0  0  0  0  0
  161.0610  207.8030  148.6170 N   0  0  0  0  0  0  0  0  0  0  0  0
  157.7370  211.1010  155.5560 C   0  0  0  0  0  3  0  0  0  0  0  0
  160.4560  206.0110  150.1820 C   0  0  0  0  0  1  0  0  0  0  0  0
  159.2620  211.8230  152.1560 C   0  0  0  0  0  0  0  0  0  0  0  0
  159.5730  212.9150  149.5950 C   0  0  0  0  0  0  0  0  0  0  0  0
  158.1850  212.4120  151.4980 C   0  0  0  0  0  3  0  0  0  0  0  0
  162.7820  211.1420  148.9390 C   0  0  2  0  0  3  0  0  0  0  0  0
  161.0520  207.3480  149.8990 C   0  0  0  0  0  0  0  0  0  0  0  0
  159.6610  213.6910  148.3160 C   0  0  0  0  0  2  0  0  0  0  0  0
  158.6210  213.2510  147.3790 C   0  0  0  0  0  0  0  0  0  0  0  0
  157.8000  212.9040  146.6410 N   0  0  0  0  0  0  0  0  0  0  0  0
  1 14  1  0  0  0  0
  2 11  1  0  0  0  0
  3 24  1  0  0  0  0
  4  7  1  0  0  0  0
  5  6  2  0  0  0  0
  6 22  1  0  0  0  0
  6  1  1  0  0  0  0
  8 12  1  6  0  0  0
  8  5  1  0  0  0  0
 10 19  2  0  0  0  0
 10 18  1  0  0  0  0
 11  9  2  0  0  0  0
 13  1  1  0  0  0  0
 14  2  1  0  0  0  0
 15  4  1  0  0  0  0
 15 13  1  0  0  0  0
 16 17  1  0  0  0  0
 16  2  2  0  0  0  0
 17 20  2  0  0  0  0
 18 15  2  0  0  0  0
 19 26  1  0  0  0  0
 20  9  1  0  0  0  0
 22 16  1  0  0  0  0
 23  5  1  0  0  0  0
 23  3  2  0  0  0  0
 24 22  2  0  0  0  0
 25 12  1  6  0  0  0
 25 18  1  0  0  0  0
 25  8  1  0  0  0  0
 26 21  1  0  0  0  0
 26  4  2  0  0  0  0
 27 23  1  0  0  0  0
 28 27  1  0  0  0  0
 29 28  3  0  0  0  0
M  END
>  <MODEL>
5

>  <REMARK>
 VINA RESULT:      -3.5      8.814     12.516
  Name = 
  2 active torsions:
  status: ('A' for Active; 'I' for Inactive)
    1  A    between atoms: C_6  and  C_11
    2  A    between atoms: C_11  and  C_26
                            x       y       z     vdW  Elec       q    Type
                         _______ _______ _______ _____ _____    ______ ____

>  <TORSDO>
F 2

$$$$
=
 OpenBabel11042423123D

 29 34  0  0  1  0  0  0  0  0999 V2000
  162.1700  210.1130  152.7900 N   0  0  0  0  0  0  0  0  0  0  0  0
  161.3060  209.7210  155.0250 C   0  0  0  0  0  0  0  0  0  0  0  0
  158.5630  212.1980  151.8300 C   0  0  0  0  0  3  0  0  0  0  0  0
  161.8370  207.3880  151.1520 C   0  0  0  0  0  0  0  0  0  0  0  0
  160.8280  211.5480  151.1480 C   0  0  0  0  0  0  0  0  0  0  0  0
  160.9710  210.8450  152.3990 C   0  0  0  0  0  0  0  0  0  0  0  0
  162.1630  206.7430  152.4630 C   0  0  0  0  0  1  0  0  0  0  0  0
  162.0020  211.7820  150.1840 C   0  0  2  0  0  3  0  0  0  0  0  0
  160.4630  209.1920  157.2330 C   0  0  0  0  0  3  0  0  0  0  0  0
  161.2010  208.5710  148.7150 C   0  0  0  0  0  3  0  0  0  0  0  0
  161.5060  209.1940  156.3040 C   0  0  0  0  0  3  0  0  0  0  0  0
  161.5500  211.5820  148.7340 C   0  0  0  0  0  2  0  0  0  0  0  0
  163.0810  209.4970  151.8400 C   0  0  0  0  0  2  0  0  0  0  0  0
  162.3410  209.6920  154.0960 O   0  0  0  0  0  0  0  0  0  0  0  0
  162.3090  208.6790  150.8530 C   0  0  0  0  0  0  0  0  0  0  0  0
  160.0640  210.2570  154.6680 C   0  0  0  0  0  0  0  0  0  0  0  0
  159.0190  210.2530  155.6080 C   0  0  0  0  0  3  0  0  0  0  0  0
  161.9660  209.2840  149.6420 C   0  0  0  0  0  0  0  0  0  0  0  0
  160.7600  207.3210  149.0130 N   0  0  0  0  0  0  0  0  0  0  0  0
  159.2170  209.7200  156.8840 C   0  0  0  0  0  3  0  0  0  0  0  0
  160.5210  205.3470  150.4520 C   0  0  0  0  0  1  0  0  0  0  0  0
  159.9010  210.8640  153.3290 C   0  0  0  0  0  0  0  0  0  0  0  0
  159.6090  212.2560  150.9160 C   0  0  0  0  0  0  0  0  0  0  0  0
  158.7060  211.5100  153.0200 C   0  0  0  0  0  3  0  0  0  0  0  0
  162.5490  210.6250  149.3130 C   0  0  2  0  0  3  0  0  0  0  0  0
  161.0500  206.7170  150.1970 C   0  0  0  0  0  0  0  0  0  0  0  0
  159.4010  213.1800  149.7540 C   0  0  0  0  0  2  0  0  0  0  0  0
  157.9810  213.2320  149.3910 C   0  0  0  0  0  0  0  0  0  0  0  0
  156.8600  213.2730  149.1050 N   0  0  0  0  0  0  0  0  0  0  0  0
  1 14  1  0  0  0  0
  2 11  1  0  0  0  0
  3 24  1  0  0  0  0
  4  7  1  0  0  0  0
  5  6  2  0  0  0  0
  6  1  1  0  0  0  0
  6 22  1  0  0  0  0
  8 12  1  6  0  0  0
  8  5  1  0  0  0  0
 10 19  2  0  0  0  0
 10 18  1  0  0  0  0
 11  9  2  0  0  0  0
 13  1  1  0  0  0  0
 14  2  1  0  0  0  0
 15  4  1  0  0  0  0
 15 13  1  0  0  0  0
 16  2  2  0  0  0  0
 16 17  1  0  0  0  0
 17 20  2  0  0  0  0
 18 15  2  0  0  0  0
 19 26  1  0  0  0  0
 20  9  1  0  0  0  0
 22 16  1  0  0  0  0
 23  5  1  0  0  0  0
 23  3  2  0  0  0  0
 24 22  2  0  0  0  0
 25 12  1  6  0  0  0
 25 18  1  0  0  0  0
 25  8  1  0  0  0  0
 26 21  1  0  0  0  0
 26  4  2  0  0  0  0
 27 23  1  0  0  0  0
 28 27  1  0  0  0  0
 29 28  3  0  0  0  0
M  END
>  <MODEL>
6

>  <REMARK>
 VINA RESULT:      -2.3     10.008     13.605
  Name = 
  2 active torsions:
  status: ('A' for Active; 'I' for Inactive)
    1  A    between atoms: C_6  and  C_11
    2  A    between atoms: C_11  and  C_26
                            x       y       z     vdW  Elec       q    Type
                         _______ _______ _______ _____ _____    ______ ____

>  <TORSDO>
F 2

$$$$
