=
 OpenBabel11052409593D

 39 44  0  0  1  0  0  0  0  0999 V2000
  162.5170  209.4910  150.4120 N   0  0  0  0  0  0  0  0  0  0  0  0
  161.7390  211.6430  149.7540 N   0  0  0  0  0  2  0  0  0  0  0  0
  158.5980  211.3000  152.0880 O   0  0  0  0  0  0  0  0  0  0  0  0
  161.7390  210.5000  150.6160 C   0  0  0  0  0  0  0  0  0  0  0  0
  159.7320  210.8220  151.9500 C   0  0  0  0  0  0  0  0  0  0  0  0
  160.9310  210.3200  151.8100 C   0  0  0  0  0  0  0  0  0  0  0  0
  161.3020  209.0570  152.3490 N   0  0  0  0  0  0  0  0  0  0  0  0
  162.3140  208.4880  151.4590 C   0  0  1  0  0  3  0  0  0  0  0  0
  161.6700  203.5560  151.8920 C   0  0  0  0  0  2  0  0  0  0  0  0
  161.2310  207.1700  149.5970 C   0  0  0  0  0  3  0  0  0  0  0  0
  161.8390  207.1990  150.8590 C   0  0  0  0  0  0  0  0  0  0  0  0
  161.5090  202.2780  151.0720 C   0  0  0  0  0  2  0  0  0  0  0  0
  161.5540  204.7960  151.0500 C   0  0  0  0  0  0  0  0  0  0  0  0
  160.7770  205.9620  149.0640 C   0  0  0  0  0  3  0  0  0  0  0  0
  161.9930  206.0130  151.5820 C   0  0  0  0  0  3  0  0  0  0  0  0
  160.2730  202.3830  150.1930 C   0  0  0  0  0  2  0  0  0  0  0  0
  160.9180  204.7740  149.7880 C   0  0  0  0  0  0  0  0  0  0  0  0
  160.4720  203.4860  149.1590 C   0  0  0  0  0  2  0  0  0  0  0  0
  159.9640  210.5480  155.0330 C   0  0  2  0  0  3  0  0  0  0  0  0
  160.8320  207.0840  155.4820 O   0  0  0  0  0  0  0  0  0  0  0  0
  161.2840  207.1110  154.1160 C   0  0  0  0  0  2  0  0  0  0  0  0
  160.3510  208.3450  155.7510 C   0  0  0  0  0  0  0  0  0  0  0  0
  159.8640  208.8420  156.8300 N   0  0  0  0  0  0  0  0  0  0  0  0
  159.0690  211.0260  157.2610 O   0  0  0  0  0  0  0  0  0  0  0  0
  161.1260  211.5290  155.0310 C   0  0  0  0  0  1  0  0  0  0  0  0
  160.9780  208.5290  153.6480 C   0  0  0  0  0  0  0  0  0  0  0  0
  159.5870  210.2030  156.4600 C   0  0  0  0  0  0  0  0  0  0  0  0
  160.4430  209.1980  154.6570 C   0  0  0  0  0  0  0  0  0  0  0  0
  161.0140  212.8730  150.0460 C   0  0  0  0  0  2  0  0  0  0  0  0
  161.7330  213.4110  146.7390 C   0  0  0  0  0  0  0  0  0  0  0  0
  160.1570  214.0760  148.1140 N   0  0  0  0  0  2  0  0  0  0  0  0
  162.3710  213.0200  145.5230 N   0  0  0  0  0  2  0  0  0  0  0  0
  160.4970  213.7600  146.8000 N   0  0  0  0  0  0  0  0  0  0  0  0
  161.3090  213.9240  148.9870 C   0  0  2  0  0  3  0  0  0  0  0  0
  162.4250  213.4390  148.0570 C   0  0  0  0  0  2  0  0  0  0  0  0
  161.6770  213.0630  144.2450 C   0  0  0  0  0  2  0  0  0  0  0  0
  162.6620  212.9300  143.0900 C   0  0  1  0  0  3  0  0  0  0  0  0
  162.0460  212.1710  141.9300 C   0  0  0  0  0  1  0  0  0  0  0  0
  163.0810  214.1930  142.6660 O   0  0  0  0  0  1  0  0  0  0  0  0
  1  4  2  0  0  0  0
  1  8  1  0  0  0  0
  2 29  1  0  0  0  0
  2  4  1  0  0  0  0
  4  6  1  0  0  0  0
  5  3  2  0  0  0  0
  6  5  2  0  0  0  0
  6  7  1  0  0  0  0
  7 26  1  0  0  0  0
  8 11  1  6  0  0  0
  8  7  1  0  0  0  0
 10 11  1  0  0  0  0
 11 15  2  0  0  0  0
 12  9  1  0  0  0  0
 13 15  1  0  0  0  0
 13  9  1  0  0  0  0
 14 10  2  0  0  0  0
 14 17  1  0  0  0  0
 16 12  1  0  0  0  0
 17 13  2  0  0  0  0
 18 17  1  0  0  0  0
 18 16  1  0  0  0  0
 19 25  1  1  0  0  0
 19 27  1  0  0  0  0
 20 22  1  0  0  0  0
 21 20  1  0  0  0  0
 22 23  2  0  0  0  0
 26 21  1  0  0  0  0
 26 28  2  0  0  0  0
 27 23  1  0  0  0  0
 27 24  2  0  0  0  0
 28 19  1  0  0  0  0
 28 22  1  0  0  0  0
 30 33  2  0  0  0  0
 30 35  1  0  0  0  0
 31 34  1  0  0  0  0
 32 30  1  0  0  0  0
 33 31  1  0  0  0  0
 34 29  1  1  0  0  0
 35 34  1  0  0  0  0
 36 32  1  0  0  0  0
 37 38  1  6  0  0  0
 37 36  1  0  0  0  0
 39 37  1  0  0  0  0
M  END
>  <MODEL>
1

>  <REMARK>
 VINA RESULT:      -8.3      0.000      0.000
  Name = 
  6 active torsions:
  status: ('A' for Active; 'I' for Inactive)
    1  A    between atoms: C_6  and  C_33
    2  A    between atoms: N_8  and  C_33
    3  A    between atoms: N_9  and  C_14
    4  A    between atoms: C_13  and  C_37
    5  A    between atoms: C_14  and  C_30
    6  A    between atoms: C_23  and  N_36
                            x       y       z     vdW  Elec       q    Type
                         _______ _______ _______ _____ _____    ______ ____

>  <TORSDO>
F 6

$$$$
=
 OpenBabel11052409593D

 39 44  0  0  1  0  0  0  0  0999 V2000
  161.7340  210.6840  150.6880 N   0  0  0  0  0  0  0  0  0  0  0  0
  160.2730  212.5200  150.2800 N   0  0  0  0  0  2  0  0  0  0  0  0
  158.5830  212.0490  153.7940 O   0  0  0  0  0  0  0  0  0  0  0  0
  160.9020  211.5630  151.1390 C   0  0  0  0  0  0  0  0  0  0  0  0
  159.6300  211.7590  153.2010 C   0  0  0  0  0  0  0  0  0  0  0  0
  160.7390  211.4560  152.5780 C   0  0  0  0  0  0  0  0  0  0  0  0
  161.5850  210.3910  152.9920 N   0  0  0  0  0  0  0  0  0  0  0  0
  162.2310  209.8610  151.7910 C   0  0  1  0  0  3  0  0  0  0  0  0
  161.5330  206.0610  148.6260 C   0  0  0  0  0  2  0  0  0  0  0  0
  161.5720  207.5800  152.6540 C   0  0  0  0  0  3  0  0  0  0  0  0
  161.8620  208.4240  151.5730 C   0  0  0  0  0  0  0  0  0  0  0  0
  160.8010  204.7310  148.4730 C   0  0  0  0  0  2  0  0  0  0  0  0
  161.4890  206.5820  150.0360 C   0  0  0  0  0  0  0  0  0  0  0  0
  161.2500  206.2400  152.4310 C   0  0  0  0  0  3  0  0  0  0  0  0
  161.8230  207.9200  150.2700 C   0  0  0  0  0  3  0  0  0  0  0  0
  161.2500  203.7680  149.5610 C   0  0  0  0  0  2  0  0  0  0  0  0
  161.2220  205.7270  151.1300 C   0  0  0  0  0  0  0  0  0  0  0  0
  160.8140  204.2970  150.9240 C   0  0  0  0  0  2  0  0  0  0  0  0
  160.2300  208.2340  155.1650 C   0  0  2  0  0  3  0  0  0  0  0  0
  163.0570  210.0830  156.4080 O   0  0  0  0  0  0  0  0  0  0  0  0
  163.1000  210.7150  155.1160 C   0  0  0  0  0  2  0  0  0  0  0  0
  162.0140  209.1860  156.3600 C   0  0  0  0  0  0  0  0  0  0  0  0
  161.5460  208.3990  157.2610 N   0  0  0  0  0  0  0  0  0  0  0  0
  159.7320  206.8880  157.1490 O   0  0  0  0  0  0  0  0  0  0  0  0
  158.9220  209.0040  155.0700 C   0  0  0  0  0  1  0  0  0  0  0  0
  161.9720  210.0500  154.3350 C   0  0  0  0  0  0  0  0  0  0  0  0
  160.4450  207.7640  156.5900 C   0  0  0  0  0  0  0  0  0  0  0  0
  161.3730  209.1740  155.1270 C   0  0  0  0  0  0  0  0  0  0  0  0
  159.4730  213.6370  150.7680 C   0  0  0  0  0  2  0  0  0  0  0  0
  158.9600  213.6290  147.3800 C   0  0  0  0  0  0  0  0  0  0  0  0
  157.6650  213.5070  149.1470 N   0  0  0  0  0  2  0  0  0  0  0  0
  159.4310  213.4180  146.0480 N   0  0  0  0  0  2  0  0  0  0  0  0
  157.8520  213.1440  147.8150 N   0  0  0  0  0  0  0  0  0  0  0  0
  158.7720  214.3290  149.6090 C   0  0  2  0  0  3  0  0  0  0  0  0
  159.7060  214.4160  148.3990 C   0  0  0  0  0  2  0  0  0  0  0  0
  158.6440  212.6930  145.0620 C   0  0  0  0  0  2  0  0  0  0  0  0
  159.2260  212.8730  143.6670 C   0  0  1  0  0  3  0  0  0  0  0  0
  160.0690  214.1320  143.5840 C   0  0  0  0  0  1  0  0  0  0  0  0
  159.9950  211.7610  143.3160 O   0  0  0  0  0  1  0  0  0  0  0  0
  1  4  2  0  0  0  0
  1  8  1  0  0  0  0
  2 29  1  0  0  0  0
  2  4  1  0  0  0  0
  4  6  1  0  0  0  0
  5  3  2  0  0  0  0
  6  7  1  0  0  0  0
  6  5  2  0  0  0  0
  7 26  1  0  0  0  0
  8 11  1  6  0  0  0
  8  7  1  0  0  0  0
  9 13  1  0  0  0  0
 11 10  2  0  0  0  0
 12  9  1  0  0  0  0
 12 16  1  0  0  0  0
 13 15  2  0  0  0  0
 13 17  1  0  0  0  0
 14 10  1  0  0  0  0
 15 11  1  0  0  0  0
 16 18  1  0  0  0  0
 17 14  2  0  0  0  0
 18 17  1  0  0  0  0
 19 25  1  1  0  0  0
 19 27  1  0  0  0  0
 21 20  1  0  0  0  0
 22 20  1  0  0  0  0
 22 23  2  0  0  0  0
 26 21  1  0  0  0  0
 26 28  2  0  0  0  0
 27 24  2  0  0  0  0
 27 23  1  0  0  0  0
 28 19  1  0  0  0  0
 28 22  1  0  0  0  0
 30 33  2  0  0  0  0
 30 35  1  0  0  0  0
 31 34  1  0  0  0  0
 32 30  1  0  0  0  0
 33 31  1  0  0  0  0
 34 29  1  1  0  0  0
 35 34  1  0  0  0  0
 36 32  1  0  0  0  0
 37 38  1  1  0  0  0
 37 36  1  0  0  0  0
 39 37  1  0  0  0  0
M  END
>  <MODEL>
2

>  <REMARK>
 VINA RESULT:      -7.9      1.938      2.671
  Name = 
  6 active torsions:
  status: ('A' for Active; 'I' for Inactive)
    1  A    between atoms: C_6  and  C_33
    2  A    between atoms: N_8  and  C_33
    3  A    between atoms: N_9  and  C_14
    4  A    between atoms: C_13  and  C_37
    5  A    between atoms: C_14  and  C_30
    6  A    between atoms: C_23  and  N_36
                            x       y       z     vdW  Elec       q    Type
                         _______ _______ _______ _____ _____    ______ ____

>  <TORSDO>
F 6

$$$$
=
 OpenBabel11052409593D

 39 44  0  0  1  0  0  0  0  0999 V2000
  162.6060  209.1990  150.2990 N   0  0  0  0  0  0  0  0  0  0  0  0
  161.8280  211.3540  149.6480 N   0  0  0  0  0  2  0  0  0  0  0  0
  158.7100  211.0230  152.0150 O   0  0  0  0  0  0  0  0  0  0  0  0
  161.8320  210.2110  150.5110 C   0  0  0  0  0  0  0  0  0  0  0  0
  159.8410  210.5410  151.8650 C   0  0  0  0  0  0  0  0  0  0  0  0
  161.0370  210.0350  151.7130 C   0  0  0  0  0  0  0  0  0  0  0  0
  161.4080  208.7710  152.2490 N   0  0  0  0  0  0  0  0  0  0  0  0
  162.4100  208.1980  151.3490 C   0  0  1  0  0  3  0  0  0  0  0  0
  161.9750  205.2310  147.3570 C   0  0  0  0  0  2  0  0  0  0  0  0
  161.2960  205.9400  151.5470 C   0  0  0  0  0  3  0  0  0  0  0  0
  161.9240  206.9100  150.7550 C   0  0  0  0  0  0  0  0  0  0  0  0
  161.1370  204.0950  146.7770 C   0  0  0  0  0  2  0  0  0  0  0  0
  161.6800  205.4780  148.8100 C   0  0  0  0  0  0  0  0  0  0  0  0
  160.8690  204.7390  150.9790 C   0  0  0  0  0  3  0  0  0  0  0  0
  162.1170  206.6730  149.3910 C   0  0  0  0  0  3  0  0  0  0  0  0
  161.2060  202.8840  147.6940 C   0  0  0  0  0  2  0  0  0  0  0  0
  161.0710  204.4910  149.6170 C   0  0  0  0  0  0  0  0  0  0  0  0
  160.5450  203.2140  149.0280 C   0  0  0  0  0  2  0  0  0  0  0  0
  160.2250  210.2950  154.9860 C   0  0  2  0  0  3  0  0  0  0  0  0
  160.9320  206.7880  155.3740 O   0  0  0  0  0  0  0  0  0  0  0  0
  161.3450  206.8080  153.9960 C   0  0  0  0  0  2  0  0  0  0  0  0
  160.5220  208.0670  155.6700 C   0  0  0  0  0  0  0  0  0  0  0  0
  160.0920  208.5760  156.7680 N   0  0  0  0  0  0  0  0  0  0  0  0
  159.4190  210.7910  157.2440 O   0  0  0  0  0  0  0  0  0  0  0  0
  161.4330  211.2170  154.9600 C   0  0  0  0  0  1  0  0  0  0  0  0
  161.0960  208.2450  153.5520 C   0  0  0  0  0  0  0  0  0  0  0  0
  159.8720  209.9530  156.4200 C   0  0  0  0  0  0  0  0  0  0  0  0
  160.6250  208.9280  154.5820 C   0  0  0  0  0  0  0  0  0  0  0  0
  161.1100  212.5860  149.9470 C   0  0  0  0  0  2  0  0  0  0  0  0
  160.9730  212.9020  146.5380 C   0  0  0  0  0  0  0  0  0  0  0  0
  159.8890  213.7930  148.2250 N   0  0  0  0  0  2  0  0  0  0  0  0
  161.2250  212.3930  145.2280 N   0  0  0  0  0  2  0  0  0  0  0  0
  159.8370  213.3870  146.8930 N   0  0  0  0  0  0  0  0  0  0  0  0
  161.2120  213.5530  148.7770 C   0  0  2  0  0  3  0  0  0  0  0  0
  161.9890  212.9100  147.6250 C   0  0  0  0  0  2  0  0  0  0  0  0
  160.2240  212.4580  144.1740 C   0  0  0  0  0  2  0  0  0  0  0  0
  160.8860  212.5290  142.8040 C   0  0  1  0  0  3  0  0  0  0  0  0
  162.3870  212.7020  142.9290 C   0  0  0  0  0  1  0  0  0  0  0  0
  160.5980  211.3770  142.0680 O   0  0  0  0  0  1  0  0  0  0  0  0
  1  4  2  0  0  0  0
  1  8  1  0  0  0  0
  2 29  1  0  0  0  0
  2  4  1  0  0  0  0
  4  6  1  0  0  0  0
  5  3  2  0  0  0  0
  6  5  2  0  0  0  0
  6  7  1  0  0  0  0
  7 26  1  0  0  0  0
  8 11  1  6  0  0  0
  8  7  1  0  0  0  0
  9 13  1  0  0  0  0
 11 10  2  0  0  0  0
 12  9  1  0  0  0  0
 12 16  1  0  0  0  0
 13 15  2  0  0  0  0
 13 17  1  0  0  0  0
 14 10  1  0  0  0  0
 15 11  1  0  0  0  0
 16 18  1  0  0  0  0
 17 14  2  0  0  0  0
 18 17  1  0  0  0  0
 19 25  1  1  0  0  0
 19 27  1  0  0  0  0
 20 22  1  0  0  0  0
 21 20  1  0  0  0  0
 22 23  2  0  0  0  0
 26 21  1  0  0  0  0
 26 28  2  0  0  0  0
 27 23  1  0  0  0  0
 27 24  2  0  0  0  0
 28 19  1  0  0  0  0
 28 22  1  0  0  0  0
 30 33  2  0  0  0  0
 30 35  1  0  0  0  0
 31 34  1  0  0  0  0
 32 30  1  0  0  0  0
 33 31  1  0  0  0  0
 34 29  1  1  0  0  0
 35 34  1  0  0  0  0
 36 32  1  0  0  0  0
 37 38  1  1  0  0  0
 37 36  1  0  0  0  0
 39 37  1  0  0  0  0
M  END
>  <MODEL>
3

>  <REMARK>
 VINA RESULT:      -7.3      1.059      1.622
  Name = 
  6 active torsions:
  status: ('A' for Active; 'I' for Inactive)
    1  A    between atoms: C_6  and  C_33
    2  A    between atoms: N_8  and  C_33
    3  A    between atoms: N_9  and  C_14
    4  A    between atoms: C_13  and  C_37
    5  A    between atoms: C_14  and  C_30
    6  A    between atoms: C_23  and  N_36
                            x       y       z     vdW  Elec       q    Type
                         _______ _______ _______ _____ _____    ______ ____

>  <TORSDO>
F 6

$$$$
=
 OpenBabel11052409593D

 39 44  0  0  1  0  0  0  0  0999 V2000
  160.5760  207.5240  153.0430 N   0  0  0  0  0  0  0  0  0  0  0  0
  161.5520  207.5730  155.2140 N   0  0  0  0  0  2  0  0  0  0  0  0
  163.7310  210.6940  154.2410 O   0  0  0  0  0  0  0  0  0  0  0  0
  161.2530  208.1570  153.9420 C   0  0  0  0  0  0  0  0  0  0  0  0
  162.7030  210.1070  153.8790 C   0  0  0  0  0  0  0  0  0  0  0  0
  161.6140  209.4920  153.4980 C   0  0  0  0  0  0  0  0  0  0  0  0
  161.0710  209.6330  152.1910 N   0  0  0  0  0  0  0  0  0  0  0  0
  160.4070  208.3710  151.8610 C   0  0  1  0  0  3  0  0  0  0  0  0
  160.8290  204.3940  148.8720 C   0  0  0  0  0  2  0  0  0  0  0  0
  161.9490  208.4300  149.8620 C   0  0  0  0  0  3  0  0  0  0  0  0
  161.0410  207.7270  150.6650 C   0  0  0  0  0  0  0  0  0  0  0  0
  161.7790  203.7100  147.8920 C   0  0  0  0  0  2  0  0  0  0  0  0
  161.2750  205.7850  149.2280 C   0  0  0  0  0  0  0  0  0  0  0  0
  162.5130  207.8190  148.7400 C   0  0  0  0  0  3  0  0  0  0  0  0
  160.7050  206.4100  150.3420 C   0  0  0  0  0  3  0  0  0  0  0  0
  162.0730  204.6420  146.7270 C   0  0  0  0  0  2  0  0  0  0  0  0
  162.1710  206.5050  148.4060 C   0  0  0  0  0  0  0  0  0  0  0  0
  162.8420  205.8600  147.2270 C   0  0  0  0  0  2  0  0  0  0  0  0
  159.1020  212.3010  152.6580 C   0  0  2  0  0  3  0  0  0  0  0  0
  161.1540  212.4140  149.7030 O   0  0  0  0  0  0  0  0  0  0  0  0
  161.6510  211.1250  150.1060 C   0  0  0  0  0  2  0  0  0  0  0  0
  160.2520  212.7950  150.6700 C   0  0  0  0  0  0  0  0  0  0  0  0
  159.5180  213.8450  150.7620 N   0  0  0  0  0  0  0  0  0  0  0  0
  157.9580  214.4530  152.4300 O   0  0  0  0  0  0  0  0  0  0  0  0
  157.8910  211.3840  152.5920 C   0  0  0  0  0  1  0  0  0  0  0  0
  160.9370  210.8420  151.4230 C   0  0  0  0  0  0  0  0  0  0  0  0
  158.7850  213.6180  151.9780 C   0  0  0  0  0  0  0  0  0  0  0  0
  160.1270  211.8550  151.6870 C   0  0  0  0  0  0  0  0  0  0  0  0
  162.1520  208.3120  156.3180 C   0  0  0  0  0  2  0  0  0  0  0  0
  160.0680  211.0170  156.6010 C   0  0  0  0  0  0  0  0  0  0  0  0
  159.7860  208.8440  156.4930 N   0  0  0  0  0  2  0  0  0  0  0  0
  159.8060  212.4110  156.4360 N   0  0  0  0  0  2  0  0  0  0  0  0
  159.2580  210.1010  156.2060 N   0  0  0  0  0  0  0  0  0  0  0  0
  161.0710  208.9730  157.1590 C   0  0  2  0  0  3  0  0  0  0  0  0
  161.3060  210.4840  157.2320 C   0  0  0  0  0  2  0  0  0  0  0  0
  158.5560  212.8940  155.8690 C   0  0  0  0  0  2  0  0  0  0  0  0
  157.5300  213.1550  156.9640 C   0  0  1  0  0  3  0  0  0  0  0  0
  156.5970  214.2890  156.5820 C   0  0  0  0  0  1  0  0  0  0  0  0
  156.7920  211.9970  157.2210 O   0  0  0  0  0  1  0  0  0  0  0  0
  1  4  2  0  0  0  0
  2 29  1  0  0  0  0
  4  2  1  0  0  0  0
  5  3  2  0  0  0  0
  6  5  2  0  0  0  0
  6  4  1  0  0  0  0
  7  6  1  0  0  0  0
  8 11  1  6  0  0  0
  8  7  1  0  0  0  0
  8  1  1  0  0  0  0
  9 13  1  0  0  0  0
 10 11  1  0  0  0  0
 12  9  1  0  0  0  0
 13 15  1  0  0  0  0
 14 10  2  0  0  0  0
 15 11  2  0  0  0  0
 16 18  1  0  0  0  0
 16 12  1  0  0  0  0
 17 14  1  0  0  0  0
 17 13  2  0  0  0  0
 18 17  1  0  0  0  0
 19 25  1  6  0  0  0
 20 21  1  0  0  0  0
 20 22  1  0  0  0  0
 21 26  1  0  0  0  0
 22 23  2  0  0  0  0
 22 28  1  0  0  0  0
 23 27  1  0  0  0  0
 26 28  2  0  0  0  0
 26  7  1  0  0  0  0
 27 24  2  0  0  0  0
 27 19  1  0  0  0  0
 28 19  1  0  0  0  0
 30 35  1  0  0  0  0
 31 34  1  0  0  0  0
 32 30  1  0  0  0  0
 33 31  1  0  0  0  0
 33 30  2  0  0  0  0
 34 29  1  6  0  0  0
 34 35  1  0  0  0  0
 36 32  1  0  0  0  0
 36 37  1  0  0  0  0
 37 38  1  6  0  0  0
 37 39  1  0  0  0  0
M  END
>  <MODEL>
4

>  <REMARK>
 VINA RESULT:      -5.9      3.282      7.310
  Name = 
  6 active torsions:
  status: ('A' for Active; 'I' for Inactive)
    1  A    between atoms: C_6  and  C_33
    2  A    between atoms: N_8  and  C_33
    3  A    between atoms: N_9  and  C_14
    4  A    between atoms: C_13  and  C_37
    5  A    between atoms: C_14  and  C_30
    6  A    between atoms: C_23  and  N_36
                            x       y       z     vdW  Elec       q    Type
                         _______ _______ _______ _____ _____    ______ ____

>  <TORSDO>
F 6

$$$$
=
 OpenBabel11052409593D

 39 44  0  0  1  0  0  0  0  0999 V2000
  162.9090  210.6690  152.8760 N   0  0  0  0  0  0  0  0  0  0  0  0
  162.5290  210.3110  155.1990 N   0  0  0  0  0  2  0  0  0  0  0  0
  159.4970  207.9400  154.4110 O   0  0  0  0  0  0  0  0  0  0  0  0
  162.3500  209.9840  153.8170 C   0  0  0  0  0  0  0  0  0  0  0  0
  160.5100  208.3960  153.8640 C   0  0  0  0  0  0  0  0  0  0  0  0
  161.5810  208.8720  153.2860 C   0  0  0  0  0  0  0  0  0  0  0  0
  161.7270  208.9330  151.8720 N   0  0  0  0  0  0  0  0  0  0  0  0
  162.5670  210.0930  151.5740 C   0  0  1  0  0  3  0  0  0  0  0  0
  162.0600  212.5040  147.2310 C   0  0  0  0  0  2  0  0  0  0  0  0
  160.6850  211.7440  151.2380 C   0  0  0  0  0  3  0  0  0  0  0  0
  161.8240  211.0950  150.7420 C   0  0  0  0  0  0  0  0  0  0  0  0
  161.4890  213.7760  146.6110 C   0  0  0  0  0  2  0  0  0  0  0  0
  161.5930  212.2940  148.6440 C   0  0  0  0  0  0  0  0  0  0  0  0
  159.9950  212.6580  150.4400 C   0  0  0  0  0  3  0  0  0  0  0  0
  162.2700  211.3690  149.4470 C   0  0  0  0  0  3  0  0  0  0  0  0
  159.9860  213.8290  146.8380 C   0  0  0  0  0  2  0  0  0  0  0  0
  160.4300  212.9280  149.1380 C   0  0  0  0  0  0  0  0  0  0  0  0
  159.6990  213.9610  148.3310 C   0  0  0  0  0  2  0  0  0  0  0  0
  161.2740  205.6360  152.2420 C   0  0  2  0  0  3  0  0  0  0  0  0
  160.9130  206.8600  148.8770 O   0  0  0  0  0  0  0  0  0  0  0  0
  161.2060  208.1630  149.4130 C   0  0  0  0  0  2  0  0  0  0  0  0
  160.9330  205.9930  149.9450 C   0  0  0  0  0  0  0  0  0  0  0  0
  160.7630  204.7210  149.9940 N   0  0  0  0  0  0  0  0  0  0  0  0
  160.8310  203.2600  151.8500 O   0  0  0  0  0  0  0  0  0  0  0  0
  162.6990  205.5270  152.7600 C   0  0  0  0  0  1  0  0  0  0  0  0
  161.3710  207.9240  150.9100 C   0  0  0  0  0  0  0  0  0  0  0  0
  160.9440  204.4270  151.3890 C   0  0  0  0  0  0  0  0  0  0  0  0
  161.2080  206.6330  151.1490 C   0  0  0  0  0  0  0  0  0  0  0  0
  162.0690  209.4650  156.2930 C   0  0  0  0  0  2  0  0  0  0  0  0
  159.7340  211.9610  156.5320 C   0  0  0  0  0  0  0  0  0  0  0  0
  159.8010  209.8400  157.0880 N   0  0  0  0  0  2  0  0  0  0  0  0
  159.2050  213.2170  156.1070 N   0  0  0  0  0  2  0  0  0  0  0  0
  159.0090  210.9090  156.6750 N   0  0  0  0  0  0  0  0  0  0  0  0
  161.1840  210.2610  157.2400 C   0  0  2  0  0  3  0  0  0  0  0  0
  161.1730  211.7380  156.8380 C   0  0  0  0  0  2  0  0  0  0  0  0
  157.7810  213.4110  155.8750 C   0  0  0  0  0  2  0  0  0  0  0  0
  157.4740  213.4330  154.3830 C   0  0  1  0  0  3  0  0  0  0  0  0
  158.5240  214.2180  153.6200 C   0  0  0  0  0  1  0  0  0  0  0  0
  157.3990  212.1290  153.8860 O   0  0  0  0  0  1  0  0  0  0  0  0
  1  4  2  0  0  0  0
  2 29  1  0  0  0  0
  4  2  1  0  0  0  0
  5  3  2  0  0  0  0
  6  4  1  0  0  0  0
  6  5  2  0  0  0  0
  7  6  1  0  0  0  0
  8 11  1  6  0  0  0
  8  7  1  0  0  0  0
  8  1  1  0  0  0  0
  9 13  1  0  0  0  0
 11 10  1  0  0  0  0
 12 16  1  0  0  0  0
 12  9  1  0  0  0  0
 13 17  2  0  0  0  0
 13 15  1  0  0  0  0
 14 10  2  0  0  0  0
 15 11  2  0  0  0  0
 16 18  1  0  0  0  0
 17 14  1  0  0  0  0
 18 17  1  0  0  0  0
 19 25  1  6  0  0  0
 20 21  1  0  0  0  0
 20 22  1  0  0  0  0
 21 26  1  0  0  0  0
 22 23  2  0  0  0  0
 22 28  1  0  0  0  0
 23 27  1  0  0  0  0
 26 28  2  0  0  0  0
 26  7  1  0  0  0  0
 27 24  2  0  0  0  0
 27 19  1  0  0  0  0
 28 19  1  0  0  0  0
 30 33  2  0  0  0  0
 30 35  1  0  0  0  0
 31 34  1  0  0  0  0
 32 30  1  0  0  0  0
 33 31  1  0  0  0  0
 34 29  1  6  0  0  0
 35 34  1  0  0  0  0
 36 32  1  0  0  0  0
 37 38  1  6  0  0  0
 37 36  1  0  0  0  0
 39 37  1  0  0  0  0
M  END
>  <MODEL>
5

>  <REMARK>
 VINA RESULT:      -5.8      3.151      8.067
  Name = 
  6 active torsions:
  status: ('A' for Active; 'I' for Inactive)
    1  A    between atoms: C_6  and  C_33
    2  A    between atoms: N_8  and  C_33
    3  A    between atoms: N_9  and  C_14
    4  A    between atoms: C_13  and  C_37
    5  A    between atoms: C_14  and  C_30
    6  A    between atoms: C_23  and  N_36
                            x       y       z     vdW  Elec       q    Type
                         _______ _______ _______ _____ _____    ______ ____

>  <TORSDO>
F 6

$$$$
=
 OpenBabel11052409593D

 39 44  0  0  1  0  0  0  0  0999 V2000
  161.6550  210.3630  151.8010 N   0  0  0  0  0  0  0  0  0  0  0  0
  161.8470  208.0150  151.4530 N   0  0  0  0  0  2  0  0  0  0  0  0
  161.3060  208.4710  147.5890 O   0  0  0  0  0  0  0  0  0  0  0  0
  161.8270  209.3710  150.9930 C   0  0  0  0  0  0  0  0  0  0  0  0
  161.6510  209.1270  148.5810 C   0  0  0  0  0  0  0  0  0  0  0  0
  162.0200  209.8210  149.6260 C   0  0  0  0  0  0  0  0  0  0  0  0
  161.9540  211.2410  149.6660 N   0  0  0  0  0  0  0  0  0  0  0  0
  161.7030  211.6220  151.0560 C   0  0  1  0  0  3  0  0  0  0  0  0
  157.5720  212.5520  153.7030 C   0  0  0  0  0  2  0  0  0  0  0  0
  159.9910  213.2800  150.2180 C   0  0  0  0  0  3  0  0  0  0  0  0
  160.4000  212.3530  151.1860 C   0  0  0  0  0  0  0  0  0  0  0  0
  156.1320  213.0390  153.5700 C   0  0  0  0  0  2  0  0  0  0  0  0
  158.3740  212.7830  152.4530 C   0  0  0  0  0  0  0  0  0  0  0  0
  158.7840  213.9640  150.3680 C   0  0  0  0  0  3  0  0  0  0  0  0
  159.5930  212.1120  152.3010 C   0  0  0  0  0  3  0  0  0  0  0  0
  156.1160  214.4530  153.0120 C   0  0  0  0  0  2  0  0  0  0  0  0
  157.9770  213.7370  151.4880 C   0  0  0  0  0  0  0  0  0  0  0  0
  156.6580  214.4460  151.5860 C   0  0  0  0  0  2  0  0  0  0  0  0
  160.0830  212.8090  147.3740 C   0  0  2  0  0  3  0  0  0  0  0  0
  163.6180  213.4520  147.1620 O   0  0  0  0  0  0  0  0  0  0  0  0
  163.7570  212.5720  148.2920 C   0  0  0  0  0  2  0  0  0  0  0  0
  162.2710  213.5130  146.8880 C   0  0  0  0  0  0  0  0  0  0  0  0
  161.6330  214.1360  145.9640 N   0  0  0  0  0  0  0  0  0  0  0  0
  159.3140  214.1950  145.5090 O   0  0  0  0  0  0  0  0  0  0  0  0
  159.6230  211.4530  146.8630 C   0  0  0  0  0  1  0  0  0  0  0  0
  162.3260  212.1660  148.6290 C   0  0  0  0  0  0  0  0  0  0  0  0
  160.2670  213.7600  146.2080 C   0  0  0  0  0  0  0  0  0  0  0  0
  161.5110  212.7450  147.7620 C   0  0  0  0  0  0  0  0  0  0  0  0
  162.2160  206.8840  150.6110 C   0  0  0  0  0  2  0  0  0  0  0  0
  161.0940  204.0130  149.1150 C   0  0  0  0  0  0  0  0  0  0  0  0
  161.1710  204.7620  151.1760 N   0  0  0  0  0  2  0  0  0  0  0  0
  161.1020  203.0900  148.0260 N   0  0  0  0  0  2  0  0  0  0  0  0
  161.2000  203.6460  150.3430 N   0  0  0  0  0  0  0  0  0  0  0  0
  161.0150  205.9760  150.3930 C   0  0  2  0  0  3  0  0  0  0  0  0
  160.9780  205.4860  148.9430 C   0  0  0  0  0  2  0  0  0  0  0  0
  161.1560  201.6520  148.2380 C   0  0  0  0  0  2  0  0  0  0  0  0
  160.7430  200.9030  146.9780 C   0  0  1  0  0  3  0  0  0  0  0  0
  160.7690  201.8150  145.7660 C   0  0  0  0  0  1  0  0  0  0  0  0
  161.5830  199.8070  146.7700 O   0  0  0  0  0  1  0  0  0  0  0  0
  3  5  2  0  0  0  0
  4  2  1  0  0  0  0
  4  1  2  0  0  0  0
  5  6  2  0  0  0  0
  6  7  1  0  0  0  0
  6  4  1  0  0  0  0
  7  8  1  0  0  0  0
  8 11  1  6  0  0  0
  8  1  1  0  0  0  0
 10 14  2  0  0  0  0
 10 11  1  0  0  0  0
 11 15  2  0  0  0  0
 12  9  1  0  0  0  0
 13  9  1  0  0  0  0
 14 17  1  0  0  0  0
 15 13  1  0  0  0  0
 16 12  1  0  0  0  0
 17 18  1  0  0  0  0
 17 13  2  0  0  0  0
 18 16  1  0  0  0  0
 19 25  1  6  0  0  0
 19 28  1  0  0  0  0
 20 21  1  0  0  0  0
 21 26  1  0  0  0  0
 22 20  1  0  0  0  0
 22 28  1  0  0  0  0
 23 27  1  0  0  0  0
 23 22  2  0  0  0  0
 24 27  2  0  0  0  0
 26  7  1  0  0  0  0
 27 19  1  0  0  0  0
 28 26  2  0  0  0  0
 29  2  1  0  0  0  0
 30 33  2  0  0  0  0
 32 36  1  0  0  0  0
 32 30  1  0  0  0  0
 33 31  1  0  0  0  0
 34 29  1  6  0  0  0
 34 31  1  0  0  0  0
 35 30  1  0  0  0  0
 35 34  1  0  0  0  0
 37 38  1  6  0  0  0
 37 36  1  0  0  0  0
 39 37  1  0  0  0  0
M  END
>  <MODEL>
6

>  <REMARK>
 VINA RESULT:      -5.8      3.546      9.064
  Name = 
  6 active torsions:
  status: ('A' for Active; 'I' for Inactive)
    1  A    between atoms: C_6  and  C_33
    2  A    between atoms: N_8  and  C_33
    3  A    between atoms: N_9  and  C_14
    4  A    between atoms: C_13  and  C_37
    5  A    between atoms: C_14  and  C_30
    6  A    between atoms: C_23  and  N_36
                            x       y       z     vdW  Elec       q    Type
                         _______ _______ _______ _____ _____    ______ ____

>  <TORSDO>
F 6

$$$$
=
 OpenBabel11052409593D

 39 44  0  0  1  0  0  0  0  0999 V2000
  162.4970  209.3120  152.5720 N   0  0  0  0  0  0  0  0  0  0  0  0
  162.2040  207.0680  151.8280 N   0  0  0  0  0  2  0  0  0  0  0  0
  160.1390  206.1930  155.0530 O   0  0  0  0  0  0  0  0  0  0  0  0
  161.8810  208.1810  152.6700 C   0  0  0  0  0  0  0  0  0  0  0  0
  160.4850  207.1790  154.3900 C   0  0  0  0  0  0  0  0  0  0  0  0
  160.8460  208.2210  153.6870 C   0  0  0  0  0  0  0  0  0  0  0  0
  160.8760  209.5370  154.2270 N   0  0  0  0  0  0  0  0  0  0  0  0
  161.9430  210.2620  153.5380 C   0  0  1  0  0  3  0  0  0  0  0  0
  166.5710  211.9720  154.3110 C   0  0  0  0  0  2  0  0  0  0  0  0
  162.7540  210.7470  155.8800 C   0  0  0  0  0  3  0  0  0  0  0  0
  163.0040  210.7000  154.5020 C   0  0  0  0  0  0  0  0  0  0  0  0
  167.6790  212.0380  155.3580 C   0  0  0  0  0  2  0  0  0  0  0  0
  165.2640  211.4990  154.8860 C   0  0  0  0  0  0  0  0  0  0  0  0
  163.7500  211.1770  156.7600 C   0  0  0  0  0  3  0  0  0  0  0  0
  164.2560  211.0800  154.0110 C   0  0  0  0  0  3  0  0  0  0  0  0
  167.1790  212.7760  156.5910 C   0  0  0  0  0  2  0  0  0  0  0  0
  165.0000  211.5710  156.2730 C   0  0  0  0  0  0  0  0  0  0  0  0
  166.0650  211.9700  157.2530 C   0  0  0  0  0  2  0  0  0  0  0  0
  158.4460  211.7290  153.5170 C   0  0  2  0  0  3  0  0  0  0  0  0
  158.7360  210.8420  156.9930 O   0  0  0  0  0  0  0  0  0  0  0  0
  159.8270  209.9930  156.5940 C   0  0  0  0  0  2  0  0  0  0  0  0
  158.2670  211.4280  155.8400 C   0  0  0  0  0  0  0  0  0  0  0  0
  157.3270  212.2840  155.6590 N   0  0  0  0  0  0  0  0  0  0  0  0
  156.5650  213.2890  153.6600 O   0  0  0  0  0  0  0  0  0  0  0  0
  159.5030  212.6840  152.9840 C   0  0  0  0  0  1  0  0  0  0  0  0
  159.8970  210.1570  155.0800 C   0  0  0  0  0  0  0  0  0  0  0  0
  157.3670  212.5100  154.2400 C   0  0  0  0  0  0  0  0  0  0  0  0
  158.9630  211.0180  154.7080 C   0  0  0  0  0  0  0  0  0  0  0  0
  161.4200  205.8410  151.7800 C   0  0  0  0  0  2  0  0  0  0  0  0
  161.6030  205.8320  148.3590 C   0  0  0  0  0  0  0  0  0  0  0  0
  160.7920  204.4680  149.8740 N   0  0  0  0  0  2  0  0  0  0  0  0
  162.2030  206.2760  147.1420 N   0  0  0  0  0  2  0  0  0  0  0  0
  161.3710  204.5930  148.6130 N   0  0  0  0  0  0  0  0  0  0  0  0
  160.6220  205.7750  150.4870 C   0  0  2  0  0  3  0  0  0  0  0  0
  161.1990  206.7500  149.4580 C   0  0  0  0  0  2  0  0  0  0  0  0
  162.5290  205.3530  146.0650 C   0  0  0  0  0  2  0  0  0  0  0  0
  161.4300  205.3440  145.0100 C   0  0  1  0  0  3  0  0  0  0  0  0
  160.8190  203.9630  144.8690 C   0  0  0  0  0  1  0  0  0  0  0  0
  160.4390  206.2730  145.3360 O   0  0  0  0  0  1  0  0  0  0  0  0
  1  4  2  0  0  0  0
  1  8  1  0  0  0  0
  2  4  1  0  0  0  0
  4  6  1  0  0  0  0
  5  3  2  0  0  0  0
  6  7  1  0  0  0  0
  6  5  2  0  0  0  0
  7 26  1  0  0  0  0
  8  7  1  0  0  0  0
  8 11  1  1  0  0  0
  9 13  1  0  0  0  0
  9 12  1  0  0  0  0
 10 14  1  0  0  0  0
 11 10  2  0  0  0  0
 12 16  1  0  0  0  0
 13 17  1  0  0  0  0
 15 11  1  0  0  0  0
 15 13  2  0  0  0  0
 16 18  1  0  0  0  0
 17 14  2  0  0  0  0
 17 18  1  0  0  0  0
 19 25  1  1  0  0  0
 19 27  1  0  0  0  0
 19 28  1  0  0  0  0
 21 20  1  0  0  0  0
 22 20  1  0  0  0  0
 23 22  2  0  0  0  0
 24 27  2  0  0  0  0
 26 21  1  0  0  0  0
 27 23  1  0  0  0  0
 28 26  2  0  0  0  0
 28 22  1  0  0  0  0
 29  2  1  0  0  0  0
 30 33  2  0  0  0  0
 30 35  1  0  0  0  0
 31 34  1  0  0  0  0
 32 30  1  0  0  0  0
 33 31  1  0  0  0  0
 34 29  1  1  0  0  0
 35 34  1  0  0  0  0
 36 32  1  0  0  0  0
 37 38  1  1  0  0  0
 37 39  1  0  0  0  0
 37 36  1  0  0  0  0
M  END
>  <MODEL>
7

>  <REMARK>
 VINA RESULT:      -5.5      4.027      7.169
  Name = 
  6 active torsions:
  status: ('A' for Active; 'I' for Inactive)
    1  A    between atoms: C_6  and  C_33
    2  A    between atoms: N_8  and  C_33
    3  A    between atoms: N_9  and  C_14
    4  A    between atoms: C_13  and  C_37
    5  A    between atoms: C_14  and  C_30
    6  A    between atoms: C_23  and  N_36
                            x       y       z     vdW  Elec       q    Type
                         _______ _______ _______ _____ _____    ______ ____

>  <TORSDO>
F 6

$$$$
