=
 OpenBabel11052412033D

 40 45  0  0  1  0  0  0  0  0999 V2000
  161.3050  211.0490  151.2470 C   0  0  0  0  0  0  0  0  0  0  0  0
  160.6660  211.8070  152.1460 C   0  0  0  0  0  3  0  0  0  0  0  0
  161.5750  211.5990  149.9500 N   0  0  0  0  0  0  0  0  0  0  0  0
  159.2340  214.1870  148.9820 C   0  0  0  0  0  3  0  0  0  0  0  0
  160.8760  212.5410  149.3010 C   0  0  0  0  0  0  0  0  0  0  0  0
  159.7340  214.4400  147.6840 C   0  0  0  0  0  3  0  0  0  0  0  0
  161.3920  212.7560  148.0590 C   0  0  0  0  0  0  0  0  0  0  0  0
  159.8150  213.2400  149.7790 N   0  0  0  0  0  0  0  0  0  0  0  0
  162.4690  211.9060  147.8910 C   0  0  0  0  0  3  0  0  0  0  0  0
  160.8380  213.7100  147.2120 C   0  0  0  0  0  0  0  0  0  0  0  0
  162.5430  211.1940  149.0960 C   0  0  0  0  0  3  0  0  0  0  0  0
  161.3510  213.9380  145.9410 O   0  0  0  0  0  1  0  0  0  0  0  0
  160.2670  211.4390  153.5190 C   0  0  0  0  0  0  0  0  0  0  0  0
  160.7560  210.7450  155.7990 C   0  0  0  0  0  3  0  0  0  0  0  0
  158.4590  211.0270  155.0900 C   0  0  0  0  0  0  0  0  0  0  0  0
  159.3890  210.7030  156.0840 C   0  0  0  0  0  3  0  0  0  0  0  0
  158.9000  211.3970  153.8150 C   0  0  0  0  0  3  0  0  0  0  0  0
  161.1940  211.1080  154.5220 C   0  0  0  0  0  3  0  0  0  0  0  0
  157.0000  210.9790  155.3880 C   0  0  0  0  0  2  0  0  0  0  0  0
  155.7740  213.0140  154.2800 N   0  0  0  0  0  0  0  0  0  0  0  0
  156.3160  212.1180  154.7700 C   0  0  0  0  0  0  0  0  0  0  0  0
  161.7090  209.7110  151.5620 N   0  0  0  0  0  2  0  0  0  0  0  0
  160.7740  208.6150  151.7860 C   0  0  0  0  0  2  0  0  0  0  0  0
  161.7370  206.5250  153.0680 C   0  0  1  0  0  3  0  0  0  0  0  0
  162.5040  206.9560  150.6630 C   0  0  0  0  0  1  0  0  0  0  0  0
  161.2160  207.2630  154.2930 C   0  0  0  0  0  1  0  0  0  0  0  0
  160.5500  206.1090  152.2020 C   0  0  1  0  0  3  0  0  0  0  0  0
  161.4700  207.2490  151.7510 C   0  0  2  0  0  0  0  0  0  0  0  0
  160.8890  203.5400  149.4270 C   0  0  0  0  0  0  0  0  0  0  0  0
  160.8220  203.4930  148.0330 C   0  0  0  0  0  3  0  0  0  0  0  0
  161.0030  202.2750  147.3580 C   0  0  0  0  0  0  0  0  0  0  0  0
  161.2500  201.1080  148.0890 C   0  0  0  0  0  3  0  0  0  0  0  0
  161.0130  203.6160  152.2210 C   0  0  0  0  0  3  0  0  0  0  0  0
  161.3160  201.1460  149.4850 C   0  0  0  0  0  3  0  0  0  0  0  0
  161.1360  202.3570  150.1590 C   0  0  0  0  0  0  0  0  0  0  0  0
  161.1910  202.4010  151.5540 C   0  0  0  0  0  3  0  0  0  0  0  0
  160.7910  204.7990  151.4990 C   0  0  0  0  0  0  0  0  0  0  0  0
  160.7140  204.7510  150.1010 C   0  0  0  0  0  3  0  0  0  0  0  0
  160.9410  202.1960  145.8950 C   0  0  0  0  0  3  0  0  0  0  0  0
  160.1210  201.4000  145.2950 N   0  0  0  0  0  2  0  0  0  0  0  0
  1 22  1  0  0  0  0
  1  2  2  0  0  0  0
  2 13  1  0  0  0  0
  3  1  1  0  0  0  0
  4  8  1  0  0  0  0
  5  8  2  0  0  0  0
  5  3  1  0  0  0  0
  6  4  2  0  0  0  0
  7  5  1  0  0  0  0
  9  7  1  0  0  0  0
  9 11  2  0  0  0  0
 10  6  1  0  0  0  0
 10  7  2  0  0  0  0
 11  3  1  0  0  0  0
 12 10  1  0  0  0  0
 13 17  2  0  0  0  0
 13 18  1  0  0  0  0
 14 16  1  0  0  0  0
 15 19  1  0  0  0  0
 15 16  2  0  0  0  0
 17 15  1  0  0  0  0
 18 14  2  0  0  0  0
 20 21  3  0  0  0  0
 21 19  1  0  0  0  0
 22 23  1  0  0  0  0
 24 26  1  1  0  0  0
 27 37  1  6  0  0  0
 27 24  1  0  0  0  0
 28 25  1  6  0  0  0
 28 23  1  0  0  0  0
 28 27  1  0  0  0  0
 28 24  1  0  0  0  0
 29 38  2  0  0  0  0
 29 35  1  0  0  0  0
 30 29  1  0  0  0  0
 31 30  2  0  0  0  0
 31 32  1  0  0  0  0
 32 34  2  0  0  0  0
 34 35  1  0  0  0  0
 35 36  2  0  0  0  0
 36 33  1  0  0  0  0
 37 33  2  0  0  0  0
 38 37  1  0  0  0  0
 39 31  1  0  0  0  0
 40 39  2  0  0  0  0
M  END
>  <MODEL>
1

>  <REMARK>
 VINA RESULT:      -9.1      0.000      0.000
  Name = 
  9 active torsions:
  status: ('A' for Active; 'I' for Inactive)
    1  A    between atoms: C_3  and  N_7
    2  A    between atoms: C_3  and  N_8
    3  A    between atoms: C_4  and  C_16
    4  A    between atoms: C_6  and  C_31
    5  A    between atoms: N_8  and  C_18
    6  A    between atoms: C_18  and  C_30
    7  A    between atoms: C_20  and  C_26
    8  A    between atoms: C_23  and  C_38
    9  A    between atoms: C_26  and  C_33
                            x       y       z     vdW  Elec       q    Type
                         _______ _______ _______ _____ _____    ______ ____

>  <TORSDO>
F 9

$$$$
=
 OpenBabel11052412033D

 40 45  0  0  1  0  0  0  0  0999 V2000
  160.9780  211.1690  151.5210 C   0  0  0  0  0  0  0  0  0  0  0  0
  160.1020  211.9020  152.2220 C   0  0  0  0  0  3  0  0  0  0  0  0
  161.3240  211.5920  150.1960 N   0  0  0  0  0  0  0  0  0  0  0  0
  159.3020  214.3510  149.0040 C   0  0  0  0  0  3  0  0  0  0  0  0
  160.7430  212.5580  149.4690 C   0  0  0  0  0  0  0  0  0  0  0  0
  159.8430  214.4530  147.7020 C   0  0  0  0  0  3  0  0  0  0  0  0
  161.2960  212.6260  148.2260 C   0  0  0  0  0  0  0  0  0  0  0  0
  159.7620  213.4030  149.8760 N   0  0  0  0  0  0  0  0  0  0  0  0
  162.2720  211.6510  148.1390 C   0  0  0  0  0  3  0  0  0  0  0  0
  160.8640  213.5730  147.3040 C   0  0  0  0  0  0  0  0  0  0  0  0
  162.2510  211.0220  149.3910 C   0  0  0  0  0  3  0  0  0  0  0  0
  161.4150  213.6520  146.0310 O   0  0  0  0  0  1  0  0  0  0  0  0
  159.5890  211.6410  153.5810 C   0  0  0  0  0  0  0  0  0  0  0  0
  157.8040  211.1500  155.1600 C   0  0  0  0  0  3  0  0  0  0  0  0
  160.0630  211.4840  155.9600 C   0  0  0  0  0  0  0  0  0  0  0  0
  158.7160  211.2090  156.2160 C   0  0  0  0  0  3  0  0  0  0  0  0
  160.4960  211.6950  154.6460 C   0  0  0  0  0  3  0  0  0  0  0  0
  158.2360  211.3680  153.8490 C   0  0  0  0  0  3  0  0  0  0  0  0
  161.0390  211.5530  157.0840 C   0  0  0  0  0  2  0  0  0  0  0  0
  162.6620  209.4960  157.0150 N   0  0  0  0  0  0  0  0  0  0  0  0
  161.9460  210.4030  157.0430 C   0  0  0  0  0  0  0  0  0  0  0  0
  161.5560  209.9810  152.0750 N   0  0  0  0  0  2  0  0  0  0  0  0
  160.7820  208.8040  152.4510 C   0  0  0  0  0  2  0  0  0  0  0  0
  161.6460  206.3810  153.0230 C   0  0  1  0  0  3  0  0  0  0  0  0
  162.5470  207.5480  150.9290 C   0  0  0  0  0  1  0  0  0  0  0  0
  161.0700  206.6970  154.3970 C   0  0  0  0  0  1  0  0  0  0  0  0
  160.5020  206.3070  152.0150 C   0  0  1  0  0  3  0  0  0  0  0  0
  161.4610  207.5030  152.0040 C   0  0  2  0  0  0  0  0  0  0  0  0
  161.0750  204.7940  148.5800 C   0  0  0  0  0  0  0  0  0  0  0  0
  161.2000  205.2240  147.2570 C   0  0  0  0  0  3  0  0  0  0  0  0
  161.4020  204.2910  146.2280 C   0  0  0  0  0  0  0  0  0  0  0  0
  161.4770  202.9280  146.5330 C   0  0  0  0  0  3  0  0  0  0  0  0
  160.8120  203.9180  151.2240 C   0  0  0  0  0  3  0  0  0  0  0  0
  161.3500  202.4890  147.8550 C   0  0  0  0  0  3  0  0  0  0  0  0
  161.1480  203.4160  148.8810 C   0  0  0  0  0  0  0  0  0  0  0  0
  161.0110  202.9840  150.2030 C   0  0  0  0  0  3  0  0  0  0  0  0
  160.7620  205.2910  150.9340 C   0  0  0  0  0  0  0  0  0  0  0  0
  160.8770  205.7210  149.6070 C   0  0  0  0  0  3  0  0  0  0  0  0
  161.5400  204.7120  144.8300 C   0  0  0  0  0  3  0  0  0  0  0  0
  160.9120  205.7420  144.3690 N   0  0  0  0  0  2  0  0  0  0  0  0
  1 22  1  0  0  0  0
  1  2  2  0  0  0  0
  2 13  1  0  0  0  0
  3  1  1  0  0  0  0
  4  8  1  0  0  0  0
  5  8  2  0  0  0  0
  5  3  1  0  0  0  0
  6  4  2  0  0  0  0
  7  5  1  0  0  0  0
  9  7  1  0  0  0  0
  9 11  2  0  0  0  0
 10  6  1  0  0  0  0
 10  7  2  0  0  0  0
 11  3  1  0  0  0  0
 12 10  1  0  0  0  0
 13 18  2  0  0  0  0
 13 17  1  0  0  0  0
 14 16  2  0  0  0  0
 15 16  1  0  0  0  0
 15 19  1  0  0  0  0
 17 15  2  0  0  0  0
 18 14  1  0  0  0  0
 20 21  3  0  0  0  0
 21 19  1  0  0  0  0
 22 23  1  0  0  0  0
 24 26  1  1  0  0  0
 27 37  1  6  0  0  0
 27 24  1  0  0  0  0
 28 25  1  6  0  0  0
 28 27  1  0  0  0  0
 28 23  1  0  0  0  0
 28 24  1  0  0  0  0
 29 35  2  0  0  0  0
 29 38  1  0  0  0  0
 30 29  1  0  0  0  0
 31 32  1  0  0  0  0
 31 30  2  0  0  0  0
 32 34  2  0  0  0  0
 34 35  1  0  0  0  0
 35 36  1  0  0  0  0
 36 33  2  0  0  0  0
 37 33  1  0  0  0  0
 38 37  2  0  0  0  0
 39 31  1  0  0  0  0
 40 39  2  0  0  0  0
M  END
>  <MODEL>
2

>  <REMARK>
 VINA RESULT:      -9.0      1.471      2.315
  Name = 
  9 active torsions:
  status: ('A' for Active; 'I' for Inactive)
    1  A    between atoms: C_3  and  N_7
    2  A    between atoms: C_3  and  N_8
    3  A    between atoms: C_4  and  C_16
    4  A    between atoms: C_6  and  C_31
    5  A    between atoms: N_8  and  C_18
    6  A    between atoms: C_18  and  C_30
    7  A    between atoms: C_20  and  C_26
    8  A    between atoms: C_23  and  C_38
    9  A    between atoms: C_26  and  C_33
                            x       y       z     vdW  Elec       q    Type
                         _______ _______ _______ _____ _____    ______ ____

>  <TORSDO>
F 9

$$$$
=
 OpenBabel11052412033D

 40 45  0  0  1  0  0  0  0  0999 V2000
  160.2720  211.8570  152.2240 C   0  0  0  0  0  0  0  0  0  0  0  0
  160.1050  212.7690  151.2580 C   0  0  0  0  0  3  0  0  0  0  0  0
  159.7700  212.1460  153.5360 N   0  0  0  0  0  0  0  0  0  0  0  0
  156.4610  213.6190  153.5080 C   0  0  0  0  0  3  0  0  0  0  0  0
  158.6010  212.7190  153.8550 C   0  0  0  0  0  0  0  0  0  0  0  0
  156.3190  213.8280  154.8980 C   0  0  0  0  0  3  0  0  0  0  0  0
  158.5020  212.8980  155.2030 C   0  0  0  0  0  0  0  0  0  0  0  0
  157.6030  213.0630  153.0010 N   0  0  0  0  0  0  0  0  0  0  0  0
  159.6660  212.4290  155.7820 C   0  0  0  0  0  3  0  0  0  0  0  0
  157.3600  213.4580  155.7650 C   0  0  0  0  0  0  0  0  0  0  0  0
  160.4350  211.9740  154.7020 C   0  0  0  0  0  3  0  0  0  0  0  0
  157.2460  213.6510  157.1370 O   0  0  0  0  0  1  0  0  0  0  0  0
  160.5600  212.6930  149.8550 C   0  0  0  0  0  0  0  0  0  0  0  0
  162.1300  212.0110  148.1270 C   0  0  0  0  0  3  0  0  0  0  0  0
  160.1810  213.3210  147.5380 C   0  0  0  0  0  0  0  0  0  0  0  0
  161.3530  212.6560  147.1610 C   0  0  0  0  0  3  0  0  0  0  0  0
  159.7870  213.3340  148.8810 C   0  0  0  0  0  3  0  0  0  0  0  0
  161.7380  212.0320  149.4680 C   0  0  0  0  0  3  0  0  0  0  0  0
  159.3520  214.0140  146.5120 C   0  0  0  0  0  2  0  0  0  0  0  0
  159.0700  212.4960  144.3940 N   0  0  0  0  0  0  0  0  0  0  0  0
  159.1930  213.1670  145.3280 C   0  0  0  0  0  0  0  0  0  0  0  0
  160.9420  210.6190  151.9630 N   0  0  0  0  0  2  0  0  0  0  0  0
  160.5940  209.3580  152.6070 C   0  0  0  0  0  2  0  0  0  0  0  0
  161.7170  206.9960  152.9230 C   0  0  1  0  0  3  0  0  0  0  0  0
  162.3980  208.4250  150.9100 C   0  0  0  0  0  1  0  0  0  0  0  0
  161.1800  207.1310  154.3410 C   0  0  0  0  0  1  0  0  0  0  0  0
  160.5390  206.8930  151.9570 C   0  0  1  0  0  3  0  0  0  0  0  0
  161.3750  208.1770  152.0180 C   0  0  2  0  0  0  0  0  0  0  0  0
  160.9090  205.6930  148.3740 C   0  0  0  0  0  0  0  0  0  0  0  0
  160.7490  206.1980  147.0820 C   0  0  0  0  0  3  0  0  0  0  0  0
  160.9890  205.3770  145.9690 C   0  0  0  0  0  0  0  0  0  0  0  0
  161.3890  204.0500  146.1600 C   0  0  0  0  0  3  0  0  0  0  0  0
  161.2210  204.6650  150.9570 C   0  0  0  0  0  3  0  0  0  0  0  0
  161.5490  203.5370  147.4500 C   0  0  0  0  0  3  0  0  0  0  0  0
  161.3100  204.3510  148.5600 C   0  0  0  0  0  0  0  0  0  0  0  0
  161.4600  203.8420  149.8520 C   0  0  0  0  0  3  0  0  0  0  0  0
  160.8450  206.0060  150.7790 C   0  0  0  0  0  0  0  0  0  0  0  0
  160.6740  206.5090  149.4840 C   0  0  0  0  0  3  0  0  0  0  0  0
  160.8320  205.8800  144.6000 C   0  0  0  0  0  3  0  0  0  0  0  0
  161.5790  205.4570  143.6350 N   0  0  0  0  0  2  0  0  0  0  0  0
  1  3  1  0  0  0  0
  2  1  2  0  0  0  0
  3  5  1  0  0  0  0
  3 11  1  0  0  0  0
  4  6  1  0  0  0  0
  5  7  2  0  0  0  0
  6 10  2  0  0  0  0
  7 10  1  0  0  0  0
  7  9  1  0  0  0  0
  8  4  2  0  0  0  0
  8  5  1  0  0  0  0
 10 12  1  0  0  0  0
 11  9  2  0  0  0  0
 13  2  1  0  0  0  0
 14 18  2  0  0  0  0
 15 17  1  0  0  0  0
 16 15  2  0  0  0  0
 16 14  1  0  0  0  0
 17 13  2  0  0  0  0
 18 13  1  0  0  0  0
 19 15  1  0  0  0  0
 20 21  3  0  0  0  0
 21 19  1  0  0  0  0
 22  1  1  0  0  0  0
 22 23  1  0  0  0  0
 24 26  1  1  0  0  0
 27 37  1  6  0  0  0
 27 28  1  0  0  0  0
 27 24  1  0  0  0  0
 28 25  1  6  0  0  0
 28 23  1  0  0  0  0
 28 24  1  0  0  0  0
 29 35  2  0  0  0  0
 29 38  1  0  0  0  0
 30 29  1  0  0  0  0
 31 32  1  0  0  0  0
 31 30  2  0  0  0  0
 32 34  2  0  0  0  0
 34 35  1  0  0  0  0
 35 36  1  0  0  0  0
 36 33  2  0  0  0  0
 37 33  1  0  0  0  0
 38 37  2  0  0  0  0
 39 31  1  0  0  0  0
 40 39  2  0  0  0  0
M  END
>  <MODEL>
3

>  <REMARK>
 VINA RESULT:      -8.6      2.746      5.582
  Name = 
  9 active torsions:
  status: ('A' for Active; 'I' for Inactive)
    1  A    between atoms: C_3  and  N_7
    2  A    between atoms: C_3  and  N_8
    3  A    between atoms: C_4  and  C_16
    4  A    between atoms: C_6  and  C_31
    5  A    between atoms: N_8  and  C_18
    6  A    between atoms: C_18  and  C_30
    7  A    between atoms: C_20  and  C_26
    8  A    between atoms: C_23  and  C_38
    9  A    between atoms: C_26  and  C_33
                            x       y       z     vdW  Elec       q    Type
                         _______ _______ _______ _____ _____    ______ ____

>  <TORSDO>
F 9

$$$$
=
 OpenBabel11052412033D

 40 45  0  0  1  0  0  0  0  0999 V2000
  160.0840  212.2970  151.7460 C   0  0  0  0  0  0  0  0  0  0  0  0
  159.4050  212.8320  152.7690 C   0  0  0  0  0  3  0  0  0  0  0  0
  160.0000  212.9260  150.4600 N   0  0  0  0  0  0  0  0  0  0  0  0
  162.6740  211.9580  148.2180 C   0  0  0  0  0  3  0  0  0  0  0  0
  160.8510  212.8010  149.4320 C   0  0  0  0  0  0  0  0  0  0  0  0
  162.3320  212.7840  147.1230 C   0  0  0  0  0  3  0  0  0  0  0  0
  160.4830  213.6080  148.3990 C   0  0  0  0  0  0  0  0  0  0  0  0
  161.9260  211.9740  149.3620 N   0  0  0  0  0  0  0  0  0  0  0  0
  159.3480  214.2980  148.7800 C   0  0  0  0  0  3  0  0  0  0  0  0
  161.2120  213.6260  147.2140 C   0  0  0  0  0  0  0  0  0  0  0  0
  159.0840  213.8470  150.0800 C   0  0  0  0  0  3  0  0  0  0  0  0
  160.8510  214.4480  146.1530 O   0  0  0  0  0  1  0  0  0  0  0  0
  159.3280  212.3400  154.1590 C   0  0  0  0  0  0  0  0  0  0  0  0
  160.3310  211.5460  156.2290 C   0  0  0  0  0  3  0  0  0  0  0  0
  157.9220  211.6650  156.0230 C   0  0  0  0  0  0  0  0  0  0  0  0
  159.0600  211.3620  156.7780 C   0  0  0  0  0  3  0  0  0  0  0  0
  158.0590  212.1560  154.7190 C   0  0  0  0  0  3  0  0  0  0  0  0
  160.4650  212.0290  154.9240 C   0  0  0  0  0  3  0  0  0  0  0  0
  156.5640  211.4660  156.6030 C   0  0  0  0  0  2  0  0  0  0  0  0
  155.0640  210.0760  154.9630 N   0  0  0  0  0  0  0  0  0  0  0  0
  155.7270  210.6880  155.6870 C   0  0  0  0  0  0  0  0  0  0  0  0
  160.8760  211.1170  151.9230 N   0  0  0  0  0  2  0  0  0  0  0  0
  160.3470  209.8540  152.4240 C   0  0  0  0  0  2  0  0  0  0  0  0
  161.6260  207.6290  153.0170 C   0  0  1  0  0  3  0  0  0  0  0  0
  162.1840  208.8230  150.8210 C   0  0  0  0  0  1  0  0  0  0  0  0
  161.1010  207.9140  154.4170 C   0  0  0  0  0  1  0  0  0  0  0  0
  160.4430  207.3260  152.1000 C   0  0  1  0  0  3  0  0  0  0  0  0
  161.1940  208.6570  151.9750 C   0  0  2  0  0  0  0  0  0  0  0  0
  161.0880  205.7830  148.6910 C   0  0  0  0  0  0  0  0  0  0  0  0
  161.1200  206.1820  147.3530 C   0  0  0  0  0  3  0  0  0  0  0  0
  161.4000  205.2460  146.3440 C   0  0  0  0  0  0  0  0  0  0  0  0
  161.6480  203.9130  146.6850 C   0  0  0  0  0  3  0  0  0  0  0  0
  161.0140  204.9670  151.3660 C   0  0  0  0  0  3  0  0  0  0  0  0
  161.6150  203.5050  148.0230 C   0  0  0  0  0  3  0  0  0  0  0  0
  161.3350  204.4330  149.0280 C   0  0  0  0  0  0  0  0  0  0  0  0
  161.2920  204.0320  150.3660 C   0  0  0  0  0  3  0  0  0  0  0  0
  160.7900  206.3140  151.0400 C   0  0  0  0  0  0  0  0  0  0  0  0
  160.8120  206.7120  149.6970 C   0  0  0  0  0  3  0  0  0  0  0  0
  161.4440  205.6360  144.9320 C   0  0  0  0  0  3  0  0  0  0  0  0
  160.8630  204.9330  144.0180 N   0  0  0  0  0  2  0  0  0  0  0  0
  1 22  1  0  0  0  0
  1  2  2  0  0  0  0
  2 13  1  0  0  0  0
  3  1  1  0  0  0  0
  4  8  1  0  0  0  0
  5  3  1  0  0  0  0
  6 10  1  0  0  0  0
  6  4  2  0  0  0  0
  7  9  1  0  0  0  0
  7  5  1  0  0  0  0
  8  5  2  0  0  0  0
  9 11  2  0  0  0  0
 10  7  2  0  0  0  0
 11  3  1  0  0  0  0
 12 10  1  0  0  0  0
 13 17  2  0  0  0  0
 13 18  1  0  0  0  0
 14 16  1  0  0  0  0
 15 19  1  0  0  0  0
 15 16  2  0  0  0  0
 17 15  1  0  0  0  0
 18 14  2  0  0  0  0
 20 21  3  0  0  0  0
 21 19  1  0  0  0  0
 22 23  1  0  0  0  0
 24 26  1  1  0  0  0
 27 37  1  6  0  0  0
 27 24  1  0  0  0  0
 28 25  1  6  0  0  0
 28 27  1  0  0  0  0
 28 23  1  0  0  0  0
 28 24  1  0  0  0  0
 29 35  2  0  0  0  0
 29 38  1  0  0  0  0
 30 29  1  0  0  0  0
 31 32  1  0  0  0  0
 31 30  2  0  0  0  0
 32 34  2  0  0  0  0
 34 35  1  0  0  0  0
 35 36  1  0  0  0  0
 36 33  2  0  0  0  0
 37 33  1  0  0  0  0
 38 37  2  0  0  0  0
 39 31  1  0  0  0  0
 40 39  2  0  0  0  0
M  END
>  <MODEL>
4

>  <REMARK>
 VINA RESULT:      -8.5      1.566      2.283
  Name = 
  9 active torsions:
  status: ('A' for Active; 'I' for Inactive)
    1  A    between atoms: C_3  and  N_7
    2  A    between atoms: C_3  and  N_8
    3  A    between atoms: C_4  and  C_16
    4  A    between atoms: C_6  and  C_31
    5  A    between atoms: N_8  and  C_18
    6  A    between atoms: C_18  and  C_30
    7  A    between atoms: C_20  and  C_26
    8  A    between atoms: C_23  and  C_38
    9  A    between atoms: C_26  and  C_33
                            x       y       z     vdW  Elec       q    Type
                         _______ _______ _______ _____ _____    ______ ____

>  <TORSDO>
F 9

$$$$
=
 OpenBabel11052412033D

 40 45  0  0  1  0  0  0  0  0999 V2000
  158.5530  212.9440  151.6770 C   0  0  0  0  0  0  0  0  0  0  0  0
  157.9580  213.7650  152.5520 C   0  0  0  0  0  3  0  0  0  0  0  0
  158.4050  213.2100  150.2750 N   0  0  0  0  0  0  0  0  0  0  0  0
  161.5620  213.7390  148.5810 C   0  0  0  0  0  3  0  0  0  0  0  0
  159.3740  213.4780  149.3880 C   0  0  0  0  0  0  0  0  0  0  0  0
  161.0570  214.0310  147.2930 C   0  0  0  0  0  3  0  0  0  0  0  0
  158.8450  213.7490  148.1620 C   0  0  0  0  0  0  0  0  0  0  0  0
  160.7120  213.4620  149.6150 N   0  0  0  0  0  0  0  0  0  0  0  0
  157.4690  213.6640  148.2620 C   0  0  0  0  0  3  0  0  0  0  0  0
  159.6690  214.0340  147.0780 C   0  0  0  0  0  0  0  0  0  0  0  0
  157.2360  213.3320  149.6040 C   0  0  0  0  0  3  0  0  0  0  0  0
  159.1440  214.3170  145.8230 O   0  0  0  0  0  1  0  0  0  0  0  0
  157.9570  213.6670  154.0250 C   0  0  0  0  0  0  0  0  0  0  0  0
  158.8650  214.1710  156.2250 C   0  0  0  0  0  3  0  0  0  0  0  0
  156.9440  212.7130  156.0180 C   0  0  0  0  0  0  0  0  0  0  0  0
  157.8870  213.3680  156.8170 C   0  0  0  0  0  3  0  0  0  0  0  0
  156.9790  212.8680  154.6280 C   0  0  0  0  0  3  0  0  0  0  0  0
  158.9030  214.3180  154.8360 C   0  0  0  0  0  3  0  0  0  0  0  0
  155.9020  211.8520  156.6450 C   0  0  0  0  0  2  0  0  0  0  0  0
  155.1990  209.9300  155.0070 N   0  0  0  0  0  0  0  0  0  0  0  0
  155.5080  210.7790  155.7280 C   0  0  0  0  0  0  0  0  0  0  0  0
  159.3180  211.8180  152.1220 N   0  0  0  0  0  2  0  0  0  0  0  0
  160.4570  211.9200  153.0260 C   0  0  0  0  0  2  0  0  0  0  0  0
  161.7250  210.0930  154.4400 C   0  0  1  0  0  3  0  0  0  0  0  0
  162.2080  210.2650  151.9300 C   0  0  0  0  0  1  0  0  0  0  0  0
  161.2650  210.9430  155.6150 C   0  0  0  0  0  1  0  0  0  0  0  0
  160.5000  209.4800  153.7660 C   0  0  1  0  0  3  0  0  0  0  0  0
  161.2660  210.6180  153.0810 C   0  0  2  0  0  0  0  0  0  0  0  0
  160.9900  206.6600  151.2710 C   0  0  0  0  0  0  0  0  0  0  0  0
  160.9880  206.4780  149.8870 C   0  0  0  0  0  3  0  0  0  0  0  0
  161.2100  205.2030  149.3420 C   0  0  0  0  0  0  0  0  0  0  0  0
  161.4340  204.1160  150.1920 C   0  0  0  0  0  3  0  0  0  0  0  0
  160.9840  207.0070  154.0470 C   0  0  0  0  0  3  0  0  0  0  0  0
  161.4350  204.2890  151.5800 C   0  0  0  0  0  3  0  0  0  0  0  0
  161.2130  205.5560  152.1250 C   0  0  0  0  0  0  0  0  0  0  0  0
  161.2040  205.7350  153.5100 C   0  0  0  0  0  3  0  0  0  0  0  0
  160.7850  208.1120  153.2040 C   0  0  0  0  0  0  0  0  0  0  0  0
  160.7720  207.9280  151.8160 C   0  0  0  0  0  3  0  0  0  0  0  0
  161.2170  204.9830  147.8920 C   0  0  0  0  0  3  0  0  0  0  0  0
  161.5620  203.8470  147.3830 N   0  0  0  0  0  2  0  0  0  0  0  0
  1 22  1  0  0  0  0
  1  2  2  0  0  0  0
  2 13  1  0  0  0  0
  3  1  1  0  0  0  0
  4  8  1  0  0  0  0
  5  8  2  0  0  0  0
  5  3  1  0  0  0  0
  6  4  2  0  0  0  0
  7  9  1  0  0  0  0
  7  5  1  0  0  0  0
  9 11  2  0  0  0  0
 10  6  1  0  0  0  0
 10  7  2  0  0  0  0
 11  3  1  0  0  0  0
 12 10  1  0  0  0  0
 13 17  2  0  0  0  0
 13 18  1  0  0  0  0
 14 16  1  0  0  0  0
 15 19  1  0  0  0  0
 15 16  2  0  0  0  0
 17 15  1  0  0  0  0
 18 14  2  0  0  0  0
 20 21  3  0  0  0  0
 21 19  1  0  0  0  0
 22 23  1  0  0  0  0
 23 28  1  0  0  0  0
 24 26  1  1  0  0  0
 27 37  1  6  0  0  0
 27 24  1  0  0  0  0
 28 25  1  6  0  0  0
 28 27  1  0  0  0  0
 28 24  1  0  0  0  0
 29 38  2  0  0  0  0
 29 35  1  0  0  0  0
 30 29  1  0  0  0  0
 31 30  2  0  0  0  0
 31 32  1  0  0  0  0
 32 34  2  0  0  0  0
 34 35  1  0  0  0  0
 35 36  2  0  0  0  0
 36 33  1  0  0  0  0
 37 33  2  0  0  0  0
 38 37  1  0  0  0  0
 39 31  1  0  0  0  0
 40 39  2  0  0  0  0
M  END
>  <MODEL>
5

>  <REMARK>
 VINA RESULT:      -8.3      1.894      3.381
  Name = 
  9 active torsions:
  status: ('A' for Active; 'I' for Inactive)
    1  A    between atoms: C_3  and  N_7
    2  A    between atoms: C_3  and  N_8
    3  A    between atoms: C_4  and  C_16
    4  A    between atoms: C_6  and  C_31
    5  A    between atoms: N_8  and  C_18
    6  A    between atoms: C_18  and  C_30
    7  A    between atoms: C_20  and  C_26
    8  A    between atoms: C_23  and  C_38
    9  A    between atoms: C_26  and  C_33
                            x       y       z     vdW  Elec       q    Type
                         _______ _______ _______ _____ _____    ______ ____

>  <TORSDO>
F 9

$$$$
=
 OpenBabel11052412033D

 40 45  0  0  1  0  0  0  0  0999 V2000
  158.9810  212.8630  152.2970 C   0  0  0  0  0  0  0  0  0  0  0  0
  158.7840  213.5900  151.1900 C   0  0  0  0  0  3  0  0  0  0  0  0
  158.2740  213.2240  153.4920 N   0  0  0  0  0  0  0  0  0  0  0  0
  156.2340  210.5390  154.8120 C   0  0  0  0  0  3  0  0  0  0  0  0
  157.4200  212.4680  154.1950 C   0  0  0  0  0  0  0  0  0  0  0  0
  155.6540  211.2370  155.8960 C   0  0  0  0  0  3  0  0  0  0  0  0
  156.8880  213.1760  155.2310 C   0  0  0  0  0  0  0  0  0  0  0  0
  157.1150  211.1640  153.9730 N   0  0  0  0  0  0  0  0  0  0  0  0
  157.4140  214.4530  155.1890 C   0  0  0  0  0  3  0  0  0  0  0  0
  155.9890  212.5830  156.1120 C   0  0  0  0  0  0  0  0  0  0  0  0
  158.2710  214.4420  154.0800 C   0  0  0  0  0  3  0  0  0  0  0  0
  155.4350  213.2940  157.1700 O   0  0  0  0  0  1  0  0  0  0  0  0
  159.4190  213.4150  149.8690 C   0  0  0  0  0  0  0  0  0  0  0  0
  161.3470  213.3840  148.3840 C   0  0  0  0  0  3  0  0  0  0  0  0
  159.1310  212.9880  147.4930 C   0  0  0  0  0  0  0  0  0  0  0  0
  160.5110  213.1090  147.2990 C   0  0  0  0  0  3  0  0  0  0  0  0
  158.5910  213.1360  148.7760 C   0  0  0  0  0  3  0  0  0  0  0  0
  160.8040  213.5390  149.6630 C   0  0  0  0  0  3  0  0  0  0  0  0
  158.2360  212.7000  146.3380 C   0  0  0  0  0  2  0  0  0  0  0  0
  159.2590  213.6650  144.1260 N   0  0  0  0  0  0  0  0  0  0  0  0
  158.8080  213.2410  145.1020 C   0  0  0  0  0  0  0  0  0  0  0  0
  159.8810  211.7490  152.2980 N   0  0  0  0  0  2  0  0  0  0  0  0
  160.8300  211.4770  153.3710 C   0  0  0  0  0  2  0  0  0  0  0  0
  161.9850  209.3450  154.4020 C   0  0  1  0  0  3  0  0  0  0  0  0
  162.4690  209.9490  151.9610 C   0  0  0  0  0  1  0  0  0  0  0  0
  161.5830  209.9880  155.7220 C   0  0  0  0  0  1  0  0  0  0  0  0
  160.7210  208.9440  153.6450 C   0  0  1  0  0  3  0  0  0  0  0  0
  161.5550  210.1400  153.1710 C   0  0  2  0  0  0  0  0  0  0  0  0
  160.9580  206.5980  150.6680 C   0  0  0  0  0  0  0  0  0  0  0  0
  160.8750  206.6660  149.2760 C   0  0  0  0  0  3  0  0  0  0  0  0
  161.0130  205.5020  148.5030 C   0  0  0  0  0  0  0  0  0  0  0  0
  161.2350  204.2740  149.1340 C   0  0  0  0  0  3  0  0  0  0  0  0
  161.1130  206.4460  153.4580 C   0  0  0  0  0  3  0  0  0  0  0  0
  161.3170  204.1970  150.5280 C   0  0  0  0  0  3  0  0  0  0  0  0
  161.1790  205.3540  151.2990 C   0  0  0  0  0  0  0  0  0  0  0  0
  161.2500  205.2830  152.6930 C   0  0  0  0  0  3  0  0  0  0  0  0
  160.9180  207.6890  152.8350 C   0  0  0  0  0  0  0  0  0  0  0  0
  160.8240  207.7550  151.4400 C   0  0  0  0  0  3  0  0  0  0  0  0
  160.9340  205.5430  147.0390 C   0  0  0  0  0  3  0  0  0  0  0  0
  161.8010  206.1890  146.3330 N   0  0  0  0  0  2  0  0  0  0  0  0
  1 22  1  0  0  0  0
  1  3  1  0  0  0  0
  2  1  2  0  0  0  0
  3 11  1  0  0  0  0
  3  5  1  0  0  0  0
  4  6  1  0  0  0  0
  5  7  2  0  0  0  0
  6 10  2  0  0  0  0
  7 10  1  0  0  0  0
  8  5  1  0  0  0  0
  8  4  2  0  0  0  0
  9  7  1  0  0  0  0
 10 12  1  0  0  0  0
 11  9  2  0  0  0  0
 13  2  1  0  0  0  0
 14 18  2  0  0  0  0
 15 17  1  0  0  0  0
 16 15  2  0  0  0  0
 16 14  1  0  0  0  0
 17 13  2  0  0  0  0
 18 13  1  0  0  0  0
 19 15  1  0  0  0  0
 20 21  3  0  0  0  0
 21 19  1  0  0  0  0
 22 23  1  0  0  0  0
 24 26  1  1  0  0  0
 27 37  1  6  0  0  0
 27 24  1  0  0  0  0
 28 25  1  6  0  0  0
 28 23  1  0  0  0  0
 28 27  1  0  0  0  0
 28 24  1  0  0  0  0
 29 35  2  0  0  0  0
 29 38  1  0  0  0  0
 30 29  1  0  0  0  0
 31 32  1  0  0  0  0
 31 30  2  0  0  0  0
 32 34  2  0  0  0  0
 34 35  1  0  0  0  0
 35 36  1  0  0  0  0
 36 33  2  0  0  0  0
 37 33  1  0  0  0  0
 38 37  2  0  0  0  0
 39 31  1  0  0  0  0
 40 39  2  0  0  0  0
M  END
>  <MODEL>
6

>  <REMARK>
 VINA RESULT:      -7.8      2.895      6.201
  Name = 
  9 active torsions:
  status: ('A' for Active; 'I' for Inactive)
    1  A    between atoms: C_3  and  N_7
    2  A    between atoms: C_3  and  N_8
    3  A    between atoms: C_4  and  C_16
    4  A    between atoms: C_6  and  C_31
    5  A    between atoms: N_8  and  C_18
    6  A    between atoms: C_18  and  C_30
    7  A    between atoms: C_20  and  C_26
    8  A    between atoms: C_23  and  C_38
    9  A    between atoms: C_26  and  C_33
                            x       y       z     vdW  Elec       q    Type
                         _______ _______ _______ _____ _____    ______ ____

>  <TORSDO>
F 9

$$$$
=
 OpenBabel11052412033D

 40 45  0  0  1  0  0  0  0  0999 V2000
  161.3930  210.8970  151.6640 C   0  0  0  0  0  0  0  0  0  0  0  0
  161.2060  212.0270  150.9700 C   0  0  0  0  0  3  0  0  0  0  0  0
  161.1140  210.8980  153.0710 N   0  0  0  0  0  0  0  0  0  0  0  0
  157.6650  211.6890  153.8430 C   0  0  0  0  0  3  0  0  0  0  0  0
  159.9510  211.1830  153.6720 C   0  0  0  0  0  0  0  0  0  0  0  0
  157.7620  211.6730  155.2530 C   0  0  0  0  0  3  0  0  0  0  0  0
  160.0870  211.1520  155.0280 C   0  0  0  0  0  0  0  0  0  0  0  0
  158.7640  211.4410  153.0670 N   0  0  0  0  0  0  0  0  0  0  0  0
  161.4030  210.8450  155.3170 C   0  0  0  0  0  3  0  0  0  0  0  0
  158.9990  211.3970  155.8590 C   0  0  0  0  0  0  0  0  0  0  0  0
  162.0130  210.7010  154.0640 C   0  0  0  0  0  3  0  0  0  0  0  0
  159.1230  211.3730  157.2430 O   0  0  0  0  0  1  0  0  0  0  0  0
  161.4520  212.2570  149.5330 C   0  0  0  0  0  0  0  0  0  0  0  0
  162.8390  212.1680  147.5360 C   0  0  0  0  0  3  0  0  0  0  0  0
  160.6260  213.1440  147.4260 C   0  0  0  0  0  0  0  0  0  0  0  0
  161.8260  212.7880  146.8000 C   0  0  0  0  0  3  0  0  0  0  0  0
  160.4420  212.8740  148.7870 C   0  0  0  0  0  3  0  0  0  0  0  0
  162.6550  211.9070  148.8970 C   0  0  0  0  0  3  0  0  0  0  0  0
  159.5450  213.8090  146.6460 C   0  0  0  0  0  2  0  0  0  0  0  0
  157.2670  212.5620  147.0020 N   0  0  0  0  0  0  0  0  0  0  0  0
  158.2710  213.1140  146.8450 C   0  0  0  0  0  0  0  0  0  0  0  0
  161.8680  209.7070  151.0230 N   0  0  0  0  0  2  0  0  0  0  0  0
  160.9940  208.6480  150.5320 C   0  0  0  0  0  2  0  0  0  0  0  0
  161.5910  206.7060  152.2100 C   0  0  1  0  0  3  0  0  0  0  0  0
  162.7440  206.7580  149.9240 C   0  0  0  0  0  1  0  0  0  0  0  0
  160.9470  207.6330  153.2300 C   0  0  0  0  0  1  0  0  0  0  0  0
  160.5210  206.2400  151.2240 C   0  0  1  0  0  3  0  0  0  0  0  0
  161.5830  207.2550  150.7850 C   0  0  2  0  0  0  0  0  0  0  0  0
  160.8360  203.2490  148.9060 C   0  0  0  0  0  0  0  0  0  0  0  0
  160.7390  202.9710  147.5410 C   0  0  0  0  0  3  0  0  0  0  0  0
  160.9220  201.6600  147.0730 C   0  0  0  0  0  0  0  0  0  0  0  0
  161.2040  200.6340  147.9800 C   0  0  0  0  0  3  0  0  0  0  0  0
  161.0230  203.7900  151.6450 C   0  0  0  0  0  3  0  0  0  0  0  0
  161.3010  200.9040  149.3490 C   0  0  0  0  0  3  0  0  0  0  0  0
  161.1180  202.2070  149.8170 C   0  0  0  0  0  0  0  0  0  0  0  0
  161.2050  202.4830  151.1840 C   0  0  0  0  0  3  0  0  0  0  0  0
  160.7660  204.8340  150.7420 C   0  0  0  0  0  0  0  0  0  0  0  0
  160.6580  204.5530  149.3740 C   0  0  0  0  0  3  0  0  0  0  0  0
  160.8290  201.3390  145.6450 C   0  0  0  0  0  3  0  0  0  0  0  0
  159.7340  201.5120  144.9830 N   0  0  0  0  0  2  0  0  0  0  0  0
  1  3  1  0  0  0  0
  2  1  2  0  0  0  0
  3  5  1  0  0  0  0
  3 11  1  0  0  0  0
  4  6  1  0  0  0  0
  5  7  2  0  0  0  0
  6 10  2  0  0  0  0
  7  9  1  0  0  0  0
  7 10  1  0  0  0  0
  8  5  1  0  0  0  0
  8  4  2  0  0  0  0
 10 12  1  0  0  0  0
 11  9  2  0  0  0  0
 13  2  1  0  0  0  0
 14 18  2  0  0  0  0
 15 17  1  0  0  0  0
 16 15  2  0  0  0  0
 16 14  1  0  0  0  0
 17 13  2  0  0  0  0
 18 13  1  0  0  0  0
 19 21  1  0  0  0  0
 19 15  1  0  0  0  0
 21 20  3  0  0  0  0
 22  1  1  0  0  0  0
 23 28  1  0  0  0  0
 23 22  1  0  0  0  0
 24 26  1  1  0  0  0
 27 37  1  6  0  0  0
 27 24  1  0  0  0  0
 28 25  1  6  0  0  0
 28 27  1  0  0  0  0
 28 24  1  0  0  0  0
 29 38  2  0  0  0  0
 29 35  1  0  0  0  0
 30 29  1  0  0  0  0
 31 30  2  0  0  0  0
 31 32  1  0  0  0  0
 32 34  2  0  0  0  0
 34 35  1  0  0  0  0
 35 36  2  0  0  0  0
 36 33  1  0  0  0  0
 37 33  2  0  0  0  0
 38 37  1  0  0  0  0
 39 31  1  0  0  0  0
 40 39  2  0  0  0  0
M  END
>  <MODEL>
7

>  <REMARK>
 VINA RESULT:      -7.8      2.234      5.136
  Name = 
  9 active torsions:
  status: ('A' for Active; 'I' for Inactive)
    1  A    between atoms: C_3  and  N_7
    2  A    between atoms: C_3  and  N_8
    3  A    between atoms: C_4  and  C_16
    4  A    between atoms: C_6  and  C_31
    5  A    between atoms: N_8  and  C_18
    6  A    between atoms: C_18  and  C_30
    7  A    between atoms: C_20  and  C_26
    8  A    between atoms: C_23  and  C_38
    9  A    between atoms: C_26  and  C_33
                            x       y       z     vdW  Elec       q    Type
                         _______ _______ _______ _____ _____    ______ ____

>  <TORSDO>
F 9

$$$$
=
 OpenBabel11052412033D

 40 45  0  0  1  0  0  0  0  0999 V2000
  159.7220  212.7110  152.1310 C   0  0  0  0  0  0  0  0  0  0  0  0
  158.9230  213.3890  152.9650 C   0  0  0  0  0  3  0  0  0  0  0  0
  159.7390  213.0780  150.7450 N   0  0  0  0  0  0  0  0  0  0  0  0
  156.4380  213.7040  149.3920 C   0  0  0  0  0  3  0  0  0  0  0  0
  158.6870  213.3380  149.9560 C   0  0  0  0  0  0  0  0  0  0  0  0
  156.8110  213.9570  148.0520 C   0  0  0  0  0  3  0  0  0  0  0  0
  159.0900  213.5800  148.6770 C   0  0  0  0  0  0  0  0  0  0  0  0
  157.3840  213.3990  150.3320 N   0  0  0  0  0  0  0  0  0  0  0  0
  160.4660  213.4590  148.6330 C   0  0  0  0  0  3  0  0  0  0  0  0
  158.1660  213.8960  147.6870 C   0  0  0  0  0  0  0  0  0  0  0  0
  160.8310  213.1360  149.9470 C   0  0  0  0  0  3  0  0  0  0  0  0
  158.5610  214.1410  146.3770 O   0  0  0  0  0  1  0  0  0  0  0  0
  158.7300  213.1670  154.4120 C   0  0  0  0  0  0  0  0  0  0  0  0
  159.4400  213.3130  156.7340 C   0  0  0  0  0  3  0  0  0  0  0  0
  157.3440  212.2370  156.1790 C   0  0  0  0  0  0  0  0  0  0  0  0
  158.2800  212.6460  157.1350 C   0  0  0  0  0  3  0  0  0  0  0  0
  157.5690  212.5020  154.8230 C   0  0  0  0  0  3  0  0  0  0  0  0
  159.6660  213.5700  155.3790 C   0  0  0  0  0  3  0  0  0  0  0  0
  156.1080  211.5200  156.6010 C   0  0  0  0  0  2  0  0  0  0  0  0
  155.2060  210.0320  154.6410 N   0  0  0  0  0  0  0  0  0  0  0  0
  155.6020  210.6870  155.5070 C   0  0  0  0  0  0  0  0  0  0  0  0
  160.5410  211.6360  152.6040 N   0  0  0  0  0  2  0  0  0  0  0  0
  160.0290  210.3090  152.9270 C   0  0  0  0  0  2  0  0  0  0  0  0
  161.7070  208.3650  153.5140 C   0  0  1  0  0  3  0  0  0  0  0  0
  161.7550  209.3650  151.1570 C   0  0  0  0  0  1  0  0  0  0  0  0
  161.3500  208.7320  154.9470 C   0  0  0  0  0  1  0  0  0  0  0  0
  160.4660  207.7990  152.8260 C   0  0  1  0  0  3  0  0  0  0  0  0
  160.9780  209.1980  152.4620 C   0  0  2  0  0  0  0  0  0  0  0  0
  161.0000  206.0390  149.5050 C   0  0  0  0  0  0  0  0  0  0  0  0
  160.9310  206.3370  148.1420 C   0  0  0  0  0  3  0  0  0  0  0  0
  161.2070  205.3450  147.1880 C   0  0  0  0  0  0  0  0  0  0  0  0
  161.5520  204.0560  147.6080 C   0  0  0  0  0  3  0  0  0  0  0  0
  161.1310  205.4260  152.2310 C   0  0  0  0  0  3  0  0  0  0  0  0
  161.6210  203.7500  148.9710 C   0  0  0  0  0  3  0  0  0  0  0  0
  161.3460  204.7350  149.9220 C   0  0  0  0  0  0  0  0  0  0  0  0
  161.4050  204.4330  151.2850 C   0  0  0  0  0  3  0  0  0  0  0  0
  160.8100  206.7300  151.8230 C   0  0  0  0  0  0  0  0  0  0  0  0
  160.7300  207.0260  150.4560 C   0  0  0  0  0  3  0  0  0  0  0  0
  161.1450  205.6290  145.7510 C   0  0  0  0  0  3  0  0  0  0  0  0
  160.1180  206.2020  145.2180 N   0  0  0  0  0  2  0  0  0  0  0  0
  1 22  1  0  0  0  0
  1  2  2  0  0  0  0
  2 13  1  0  0  0  0
  3  1  1  0  0  0  0
  4  8  1  0  0  0  0
  5  8  2  0  0  0  0
  5  3  1  0  0  0  0
  6  4  2  0  0  0  0
  7  5  1  0  0  0  0
  9  7  1  0  0  0  0
  9 11  2  0  0  0  0
 10  6  1  0  0  0  0
 10  7  2  0  0  0  0
 11  3  1  0  0  0  0
 12 10  1  0  0  0  0
 13 17  2  0  0  0  0
 13 18  1  0  0  0  0
 14 16  1  0  0  0  0
 15 19  1  0  0  0  0
 15 16  2  0  0  0  0
 17 15  1  0  0  0  0
 18 14  2  0  0  0  0
 20 21  3  0  0  0  0
 21 19  1  0  0  0  0
 22 23  1  0  0  0  0
 24 26  1  1  0  0  0
 27 37  1  6  0  0  0
 27 24  1  0  0  0  0
 28 25  1  6  0  0  0
 28 27  1  0  0  0  0
 28 23  1  0  0  0  0
 28 24  1  0  0  0  0
 29 35  2  0  0  0  0
 29 38  1  0  0  0  0
 30 29  1  0  0  0  0
 31 32  1  0  0  0  0
 31 30  2  0  0  0  0
 32 34  2  0  0  0  0
 34 35  1  0  0  0  0
 35 36  1  0  0  0  0
 36 33  2  0  0  0  0
 37 33  1  0  0  0  0
 38 37  2  0  0  0  0
 39 31  1  0  0  0  0
 40 39  2  0  0  0  0
M  END
>  <MODEL>
8

>  <REMARK>
 VINA RESULT:      -7.7      1.975      2.580
  Name = 
  9 active torsions:
  status: ('A' for Active; 'I' for Inactive)
    1  A    between atoms: C_3  and  N_7
    2  A    between atoms: C_3  and  N_8
    3  A    between atoms: C_4  and  C_16
    4  A    between atoms: C_6  and  C_31
    5  A    between atoms: N_8  and  C_18
    6  A    between atoms: C_18  and  C_30
    7  A    between atoms: C_20  and  C_26
    8  A    between atoms: C_23  and  C_38
    9  A    between atoms: C_26  and  C_33
                            x       y       z     vdW  Elec       q    Type
                         _______ _______ _______ _____ _____    ______ ____

>  <TORSDO>
F 9

$$$$
=
 OpenBabel11052412033D

 40 45  0  0  1  0  0  0  0  0999 V2000
  158.6720  212.3340  152.3420 C   0  0  0  0  0  0  0  0  0  0  0  0
  158.1340  213.0860  151.3730 C   0  0  0  0  0  3  0  0  0  0  0  0
  158.0090  212.2710  153.6120 N   0  0  0  0  0  0  0  0  0  0  0  0
  155.1260  214.4520  153.8280 C   0  0  0  0  0  3  0  0  0  0  0  0
  156.9410  212.9760  154.0120 C   0  0  0  0  0  0  0  0  0  0  0  0
  154.7790  214.1990  155.1750 C   0  0  0  0  0  3  0  0  0  0  0  0
  156.6380  212.7000  155.3110 C   0  0  0  0  0  0  0  0  0  0  0  0
  156.2050  213.8330  153.2600 N   0  0  0  0  0  0  0  0  0  0  0  0
  157.5600  211.7820  155.7780 C   0  0  0  0  0  3  0  0  0  0  0  0
  155.5500  213.3020  155.9330 C   0  0  0  0  0  0  0  0  0  0  0  0
  158.4050  211.5470  154.6850 C   0  0  0  0  0  3  0  0  0  0  0  0
  155.2310  213.0340  157.2580 O   0  0  0  0  0  1  0  0  0  0  0  0
  158.6550  213.3130  150.0110 C   0  0  0  0  0  0  0  0  0  0  0  0
  158.4310  213.3440  147.5880 C   0  0  0  0  0  3  0  0  0  0  0  0
  160.5530  213.9020  148.6110 C   0  0  0  0  0  0  0  0  0  0  0  0
  159.7690  213.7260  147.4650 C   0  0  0  0  0  3  0  0  0  0  0  0
  159.9940  213.6990  149.8780 C   0  0  0  0  0  3  0  0  0  0  0  0
  157.8770  213.1350  148.8540 C   0  0  0  0  0  3  0  0  0  0  0  0
  161.9820  214.3050  148.4840 C   0  0  0  0  0  2  0  0  0  0  0  0
  163.4200  212.2940  147.6130 N   0  0  0  0  0  0  0  0  0  0  0  0
  162.7870  213.1810  147.9980 C   0  0  0  0  0  0  0  0  0  0  0  0
  159.8880  211.6090  152.1250 N   0  0  0  0  0  2  0  0  0  0  0  0
  160.8890  211.3780  153.1600 C   0  0  0  0  0  2  0  0  0  0  0  0
  161.8460  209.1960  154.2840 C   0  0  1  0  0  3  0  0  0  0  0  0
  162.5400  209.7510  151.8830 C   0  0  0  0  0  1  0  0  0  0  0  0
  161.3840  209.8720  155.5670 C   0  0  0  0  0  1  0  0  0  0  0  0
  160.6210  208.8570  153.4380 C   0  0  1  0  0  3  0  0  0  0  0  0
  161.5520  210.0020  153.0210 C   0  0  2  0  0  0  0  0  0  0  0  0
  160.8500  206.4590  150.5040 C   0  0  0  0  0  0  0  0  0  0  0  0
  160.7790  206.5040  149.1100 C   0  0  0  0  0  3  0  0  0  0  0  0
  160.9080  205.3250  148.3580 C   0  0  0  0  0  0  0  0  0  0  0  0
  161.1090  204.1050  149.0110 C   0  0  0  0  0  3  0  0  0  0  0  0
  160.9810  206.3520  153.2960 C   0  0  0  0  0  3  0  0  0  0  0  0
  161.1780  204.0510  150.4070 C   0  0  0  0  0  3  0  0  0  0  0  0
  161.0490  205.2220  151.1570 C   0  0  0  0  0  0  0  0  0  0  0  0
  161.1090  205.1750  152.5530 C   0  0  0  0  0  3  0  0  0  0  0  0
  160.8070  207.5860  152.6510 C   0  0  0  0  0  0  0  0  0  0  0  0
  160.7250  207.6300  151.2540 C   0  0  0  0  0  3  0  0  0  0  0  0
  160.8410  205.3420  146.8930 C   0  0  0  0  0  3  0  0  0  0  0  0
  160.8740  206.4480  146.2270 N   0  0  0  0  0  2  0  0  0  0  0  0
  1  3  1  0  0  0  0
  2  1  2  0  0  0  0
  3  5  1  0  0  0  0
  3 11  1  0  0  0  0
  4  6  1  0  0  0  0
  5  7  2  0  0  0  0
  6 10  2  0  0  0  0
  7  9  1  0  0  0  0
  7 10  1  0  0  0  0
  8  4  2  0  0  0  0
  8  5  1  0  0  0  0
 10 12  1  0  0  0  0
 11  9  2  0  0  0  0
 13  2  1  0  0  0  0
 14 18  1  0  0  0  0
 15 17  2  0  0  0  0
 16 14  2  0  0  0  0
 16 15  1  0  0  0  0
 17 13  1  0  0  0  0
 18 13  2  0  0  0  0
 19 15  1  0  0  0  0
 20 21  3  0  0  0  0
 21 19  1  0  0  0  0
 22  1  1  0  0  0  0
 22 23  1  0  0  0  0
 24 26  1  1  0  0  0
 27 37  1  6  0  0  0
 27 24  1  0  0  0  0
 28 25  1  6  0  0  0
 28 23  1  0  0  0  0
 28 27  1  0  0  0  0
 28 24  1  0  0  0  0
 29 35  2  0  0  0  0
 29 38  1  0  0  0  0
 30 29  1  0  0  0  0
 31 32  1  0  0  0  0
 31 30  2  0  0  0  0
 32 34  2  0  0  0  0
 34 35  1  0  0  0  0
 35 36  1  0  0  0  0
 36 33  2  0  0  0  0
 37 33  1  0  0  0  0
 38 37  2  0  0  0  0
 39 31  1  0  0  0  0
 40 39  2  0  0  0  0
M  END
>  <MODEL>
9

>  <REMARK>
 VINA RESULT:      -7.4      2.767      6.094
  Name = 
  9 active torsions:
  status: ('A' for Active; 'I' for Inactive)
    1  A    between atoms: C_3  and  N_7
    2  A    between atoms: C_3  and  N_8
    3  A    between atoms: C_4  and  C_16
    4  A    between atoms: C_6  and  C_31
    5  A    between atoms: N_8  and  C_18
    6  A    between atoms: C_18  and  C_30
    7  A    between atoms: C_20  and  C_26
    8  A    between atoms: C_23  and  C_38
    9  A    between atoms: C_26  and  C_33
                            x       y       z     vdW  Elec       q    Type
                         _______ _______ _______ _____ _____    ______ ____

>  <TORSDO>
F 9

$$$$
