=
 OpenBabel11042422263D

 34 37  0  0  1  0  0  0  0  0999 V2000
  160.9320  210.0290  153.5270 C   0  0  1  0  0  3  0  0  0  0  0  0
  160.6600  206.8330  157.2460 O   0  0  0  0  0  0  0  0  0  0  0  0
  161.9570  209.6530  155.7030 N   0  0  0  0  0  0  0  0  0  0  0  0
  161.9810  208.7930  156.8580 C   0  0  0  0  0  2  0  0  0  0  0  0
  160.9670  207.7610  156.5160 C   0  0  0  0  0  0  0  0  0  0  0  0
  160.3720  208.0160  155.1770 C   0  0  1  0  0  3  0  0  0  0  0  0
  161.1260  209.2580  154.8050 C   0  0  0  0  0  0  0  0  0  0  0  0
  160.6460  206.8820  154.2300 C   0  0  0  0  0  3  0  0  0  0  0  0
  161.7820  206.6080  153.8730 O   0  0  0  0  0  0  0  0  0  0  0  0
  160.6840  211.5090  153.8080 C   0  0  1  0  0  3  0  0  0  0  0  0
  160.0220  212.1040  152.7020 O   0  0  0  0  0  0  0  0  0  0  0  0
  158.7780  212.5810  153.0180 N   0  0  0  0  0  0  0  0  0  0  0  0
  159.6780  211.6840  154.9500 C   0  0  0  0  0  2  0  0  0  0  0  0
  158.5410  212.3690  154.2640 C   0  0  0  0  0  0  0  0  0  0  0  0
  156.1850  213.1580  153.8850 C   0  0  0  0  0  1  0  0  0  0  0  0
  157.2500  212.7800  154.9060 C   0  0  1  0  0  3  0  0  0  0  0  0
  156.7420  211.7080  155.8170 C   0  0  0  0  0  0  0  0  0  0  0  0
  157.0070  211.7830  157.1780 O   0  0  0  0  0  1  0  0  0  0  0  0
  156.1040  210.7210  155.3580 O   0  0  0  0  0  0  0  0  0  0  0  0
  162.0990  209.8770  152.6660 N   0  0  0  0  0  2  0  0  0  0  0  0
  161.9770  210.7140  150.5020 O   0  0  0  0  0  1  0  0  0  0  0  0
  161.6240  209.6400  151.3170 C   0  0  1  0  0  3  0  0  0  0  0  0
  162.2520  208.3630  150.7840 C   0  0  0  0  0  2  0  0  0  0  0  0
  161.9970  208.2250  149.2910 C   0  0  0  0  0  2  0  0  0  0  0  0
  162.3290  206.9340  148.8690 O   0  0  0  0  0  0  0  0  0  0  0  0
  161.9630  204.7370  145.2580 C   0  0  0  0  0  3  0  0  0  0  0  0
  161.1310  206.3890  148.3960 C   0  0  1  0  0  3  0  0  0  0  0  0
  161.4650  204.1620  147.3190 C   0  0  0  0  0  0  0  0  0  0  0  0
  161.4070  205.5020  147.2660 N   0  0  0  0  0  0  0  0  0  0  0  0
  160.4370  205.6140  149.5250 C   0  0  0  0  0  2  0  0  0  0  0  0
  161.1490  204.2800  149.7820 C   0  0  0  0  0  2  0  0  0  0  0  0
  161.7890  203.6350  146.0880 C   0  0  0  0  0  3  0  0  0  0  0  0
  161.0960  203.3810  148.5420 C   0  0  0  0  0  2  0  0  0  0  0  0
  161.7250  205.8770  146.0170 C   0  0  0  0  0  3  0  0  0  0  0  0
  1 20  1  6  0  0  0
  1  7  1  0  0  0  0
  3  4  1  0  0  0  0
  5  4  1  0  0  0  0
  5  2  2  0  0  0  0
  6  8  1  6  0  0  0
  6  5  1  0  0  0  0
  7  6  1  0  0  0  0
  7  3  2  0  0  0  0
  9  8  2  0  0  0  0
 10  1  1  6  0  0  0
 10 13  1  0  0  0  0
 11 12  1  0  0  0  0
 11 10  1  0  0  0  0
 12 14  2  0  0  0  0
 14 16  1  0  0  0  0
 14 13  1  0  0  0  0
 16 15  1  6  0  0  0
 16 17  1  0  0  0  0
 17 18  1  0  0  0  0
 19 17  2  0  0  0  0
 22 21  1  6  0  0  0
 22 20  1  0  0  0  0
 23 22  1  0  0  0  0
 24 23  1  0  0  0  0
 25 24  1  0  0  0  0
 26 34  2  0  0  0  0
 26 32  1  0  0  0  0
 27 25  1  1  0  0  0
 27 30  1  0  0  0  0
 28 33  1  0  0  0  0
 29 28  1  0  0  0  0
 29 27  1  0  0  0  0
 30 31  1  0  0  0  0
 32 28  2  0  0  0  0
 33 31  1  0  0  0  0
 34 29  1  0  0  0  0
M  END
>  <MODEL>
1

>  <REMARK>
 VINA RESULT:      -7.4      0.000      0.000
  Name = 
  11 active torsions:
  status: ('A' for Active; 'I' for Inactive)
    1  A    between atoms: C_2  and  C_25
    2  A    between atoms: C_3  and  O_13
    3  A    between atoms: C_5  and  C_15
    4  A    between atoms: C_5  and  C_30
    5  A    between atoms: N_8  and  C_25
    6  A    between atoms: N_8  and  C_30
    7  A    between atoms: C_9  and  C_33
    8  A    between atoms: O_13  and  C_15
    9  A    between atoms: C_19  and  C_28
   10  A    between atoms: C_25  and  C_31
   11  A    between atoms: C_27  and  C_33
                            x       y       z     vdW  Elec       q    Type
                         _______ _______ _______ _____ _____    ______ ____

>  <TORSDO>
F 11

$$$$
=
 OpenBabel11042422263D

 34 37  0  0  1  0  0  0  0  0999 V2000
  160.8720  209.7520  153.2040 C   0  0  1  0  0  3  0  0  0  0  0  0
  160.6950  206.9550  157.2370 O   0  0  0  0  0  0  0  0  0  0  0  0
  161.9160  209.6280  155.4000 N   0  0  0  0  0  0  0  0  0  0  0  0
  161.9670  208.8950  156.6370 C   0  0  0  0  0  2  0  0  0  0  0  0
  160.9770  207.8090  156.4120 C   0  0  0  0  0  0  0  0  0  0  0  0
  160.3690  207.9090  155.0580 C   0  0  1  0  0  3  0  0  0  0  0  0
  161.0920  209.1230  154.5540 C   0  0  0  0  0  0  0  0  0  0  0  0
  160.6660  206.6900  154.2330 C   0  0  0  0  0  3  0  0  0  0  0  0
  161.8030  206.4180  153.8800 O   0  0  0  0  0  0  0  0  0  0  0  0
  160.7340  211.2680  153.3180 C   0  0  1  0  0  3  0  0  0  0  0  0
  160.0280  211.7730  152.1950 O   0  0  0  0  0  0  0  0  0  0  0  0
  158.8410  212.3660  152.5330 N   0  0  0  0  0  0  0  0  0  0  0  0
  159.8280  211.6440  154.4960 C   0  0  0  0  0  2  0  0  0  0  0  0
  158.6860  212.3190  153.8090 C   0  0  0  0  0  0  0  0  0  0  0  0
  156.5260  213.5650  153.4990 C   0  0  0  0  0  1  0  0  0  0  0  0
  157.4730  212.8890  154.4820 C   0  0  1  0  0  3  0  0  0  0  0  0
  156.7520  211.8380  155.2620 C   0  0  0  0  0  0  0  0  0  0  0  0
  156.9460  211.7480  156.6340 O   0  0  0  0  0  1  0  0  0  0  0  0
  155.9950  211.0110  154.6840 O   0  0  0  0  0  0  0  0  0  0  0  0
  161.9760  209.4210  152.3110 N   0  0  0  0  0  2  0  0  0  0  0  0
  162.1050  210.1140  150.0970 O   0  0  0  0  0  1  0  0  0  0  0  0
  161.4320  209.2670  150.9750 C   0  0  1  0  0  3  0  0  0  0  0  0
  161.6020  207.8240  150.5310 C   0  0  0  0  0  2  0  0  0  0  0  0
  161.2180  207.6670  149.0680 C   0  0  0  0  0  2  0  0  0  0  0  0
  160.6700  206.3990  148.8530 O   0  0  0  0  0  0  0  0  0  0  0  0
  160.6630  202.3230  150.0300 C   0  0  0  0  0  3  0  0  0  0  0  0
  161.7720  205.5440  148.7420 C   0  0  1  0  0  3  0  0  0  0  0  0
  161.1100  203.2300  148.0790 C   0  0  0  0  0  0  0  0  0  0  0  0
  161.3550  204.1670  149.0090 N   0  0  0  0  0  0  0  0  0  0  0  0
  162.3690  205.6560  147.3310 C   0  0  0  0  0  2  0  0  0  0  0  0
  161.4810  204.9360  146.3100 C   0  0  0  0  0  2  0  0  0  0  0  0
  160.6940  202.0540  148.6660 C   0  0  0  0  0  3  0  0  0  0  0  0
  161.3860  203.4380  146.6230 C   0  0  0  0  0  2  0  0  0  0  0  0
  161.0710  203.6390  150.2090 C   0  0  0  0  0  3  0  0  0  0  0  0
  1 20  1  6  0  0  0
  1  7  1  0  0  0  0
  3  4  1  0  0  0  0
  5  4  1  0  0  0  0
  5  2  2  0  0  0  0
  6  8  1  6  0  0  0
  6  5  1  0  0  0  0
  7  6  1  0  0  0  0
  7  3  2  0  0  0  0
  9  8  2  0  0  0  0
 10  1  1  6  0  0  0
 10 13  1  0  0  0  0
 11 12  1  0  0  0  0
 11 10  1  0  0  0  0
 12 14  2  0  0  0  0
 14 16  1  0  0  0  0
 14 13  1  0  0  0  0
 16 15  1  6  0  0  0
 16 17  1  0  0  0  0
 17 18  1  0  0  0  0
 19 17  2  0  0  0  0
 22 21  1  6  0  0  0
 22 20  1  0  0  0  0
 23 22  1  0  0  0  0
 24 23  1  0  0  0  0
 25 24  1  0  0  0  0
 26 34  2  0  0  0  0
 27 25  1  6  0  0  0
 27 29  1  0  0  0  0
 28 32  2  0  0  0  0
 28 29  1  0  0  0  0
 29 34  1  0  0  0  0
 30 27  1  0  0  0  0
 31 33  1  0  0  0  0
 31 30  1  0  0  0  0
 32 26  1  0  0  0  0
 33 28  1  0  0  0  0
M  END
>  <MODEL>
2

>  <REMARK>
 VINA RESULT:      -7.1      0.872      1.765
  Name = 
  11 active torsions:
  status: ('A' for Active; 'I' for Inactive)
    1  A    between atoms: C_2  and  C_25
    2  A    between atoms: C_3  and  O_13
    3  A    between atoms: C_5  and  C_15
    4  A    between atoms: C_5  and  C_30
    5  A    between atoms: N_8  and  C_25
    6  A    between atoms: N_8  and  C_30
    7  A    between atoms: C_9  and  C_33
    8  A    between atoms: O_13  and  C_15
    9  A    between atoms: C_19  and  C_28
   10  A    between atoms: C_25  and  C_31
   11  A    between atoms: C_27  and  C_33
                            x       y       z     vdW  Elec       q    Type
                         _______ _______ _______ _____ _____    ______ ____

>  <TORSDO>
F 11

$$$$
=
 OpenBabel11042422263D

 34 37  0  0  1  0  0  0  0  0999 V2000
  161.0590  208.8350  151.8780 C   0  0  1  0  0  3  0  0  0  0  0  0
  159.6920  211.6520  155.6630 O   0  0  0  0  0  0  0  0  0  0  0  0
  159.4800  210.6240  152.3590 N   0  0  0  0  0  0  0  0  0  0  0  0
  158.9860  211.5140  153.3780 C   0  0  0  0  0  2  0  0  0  0  0  0
  159.8040  211.1400  154.5610 C   0  0  0  0  0  0  0  0  0  0  0  0
  160.7650  210.0530  154.2270 C   0  0  1  0  0  3  0  0  0  0  0  0
  160.4200  209.8560  152.7810 C   0  0  0  0  0  0  0  0  0  0  0  0
  162.1860  210.5030  154.4140 C   0  0  0  0  0  3  0  0  0  0  0  0
  162.6730  210.6410  155.5250 O   0  0  0  0  0  0  0  0  0  0  0  0
  162.1920  209.4530  151.0620 C   0  0  1  0  0  3  0  0  0  0  0  0
  162.2410  208.8530  149.7770 O   0  0  0  0  0  0  0  0  0  0  0  0
  162.0000  209.7410  148.7630 N   0  0  0  0  0  0  0  0  0  0  0  0
  161.8970  210.9230  150.7480 C   0  0  0  0  0  2  0  0  0  0  0  0
  161.8020  210.9120  149.2570 C   0  0  0  0  0  0  0  0  0  0  0  0
  160.9220  213.2640  149.1750 C   0  0  0  0  0  1  0  0  0  0  0  0
  161.5080  212.0990  148.3890 C   0  0  1  0  0  3  0  0  0  0  0  0
  162.7310  212.5330  147.6470 C   0  0  0  0  0  0  0  0  0  0  0  0
  162.6180  212.9530  146.3280 O   0  0  0  0  0  0  0  0  0  0  0  0
  163.8660  212.4910  148.1930 O   0  0  0  0  0  1  0  0  0  0  0  0
  161.5680  207.7180  152.6660 N   0  0  0  0  0  2  0  0  0  0  0  0
  163.0750  206.0100  152.2080 O   0  0  0  0  0  1  0  0  0  0  0  0
  161.9320  206.6590  151.7450 C   0  0  1  0  0  3  0  0  0  0  0  0
  160.7840  205.6690  151.6430 C   0  0  0  0  0  2  0  0  0  0  0  0
  161.2490  204.2710  152.0170 C   0  0  0  0  0  2  0  0  0  0  0  0
  161.7440  203.6160  150.8840 O   0  0  0  0  0  0  0  0  0  0  0  0
  161.6270  205.0550  146.8950 C   0  0  0  0  0  3  0  0  0  0  0  0
  160.6420  203.4870  150.0320 C   0  0  1  0  0  3  0  0  0  0  0  0
  161.3200  203.0240  147.6740 C   0  0  0  0  0  0  0  0  0  0  0  0
  161.0250  203.8720  148.6730 N   0  0  0  0  0  0  0  0  0  0  0  0
  160.1420  202.0360  150.0550 C   0  0  0  0  0  2  0  0  0  0  0  0
  161.0870  201.1260  149.2620 C   0  0  0  0  0  2  0  0  0  0  0  0
  161.6830  203.7120  146.5370 C   0  0  0  0  0  3  0  0  0  0  0  0
  161.1440  201.5420  147.7880 C   0  0  0  0  0  2  0  0  0  0  0  0
  161.2230  205.1200  148.2230 C   0  0  0  0  0  3  0  0  0  0  0  0
  1 20  1  1  0  0  0
  1  7  1  0  0  0  0
  3  7  2  0  0  0  0
  3  4  1  0  0  0  0
  4  5  1  0  0  0  0
  5  2  2  0  0  0  0
  6  8  1  6  0  0  0
  6  5  1  0  0  0  0
  7  6  1  0  0  0  0
  8  9  2  0  0  0  0
 10  1  1  1  0  0  0
 11 10  1  0  0  0  0
 12 14  2  0  0  0  0
 12 11  1  0  0  0  0
 13 10  1  0  0  0  0
 14 13  1  0  0  0  0
 16 15  1  1  0  0  0
 16 14  1  0  0  0  0
 17 19  1  0  0  0  0
 17 16  1  0  0  0  0
 18 17  2  0  0  0  0
 22 21  1  1  0  0  0
 22 20  1  0  0  0  0
 23 22  1  0  0  0  0
 23 24  1  0  0  0  0
 25 24  1  0  0  0  0
 26 34  2  0  0  0  0
 27 30  1  0  0  0  0
 27 25  1  1  0  0  0
 28 33  1  0  0  0  0
 28 29  1  0  0  0  0
 29 27  1  0  0  0  0
 31 30  1  0  0  0  0
 32 26  1  0  0  0  0
 32 28  2  0  0  0  0
 33 31  1  0  0  0  0
 34 29  1  0  0  0  0
M  END
>  <MODEL>
3

>  <REMARK>
 VINA RESULT:      -7.1      2.535      5.124
  Name = 
  11 active torsions:
  status: ('A' for Active; 'I' for Inactive)
    1  A    between atoms: C_2  and  C_25
    2  A    between atoms: C_3  and  O_13
    3  A    between atoms: C_5  and  C_15
    4  A    between atoms: C_5  and  C_30
    5  A    between atoms: N_8  and  C_25
    6  A    between atoms: N_8  and  C_30
    7  A    between atoms: C_9  and  C_33
    8  A    between atoms: O_13  and  C_15
    9  A    between atoms: C_19  and  C_28
   10  A    between atoms: C_25  and  C_31
   11  A    between atoms: C_27  and  C_33
                            x       y       z     vdW  Elec       q    Type
                         _______ _______ _______ _____ _____    ______ ____

>  <TORSDO>
F 11

$$$$
=
 OpenBabel11042422263D

 34 37  0  0  1  0  0  0  0  0999 V2000
  160.8060  208.7130  151.6400 C   0  0  1  0  0  3  0  0  0  0  0  0
  160.5240  211.9740  155.3020 O   0  0  0  0  0  0  0  0  0  0  0  0
  161.1470  208.8030  154.0490 N   0  0  0  0  0  0  0  0  0  0  0  0
  161.1030  209.6510  155.2110 C   0  0  0  0  0  2  0  0  0  0  0  0
  160.6730  210.9570  154.6450 C   0  0  0  0  0  0  0  0  0  0  0  0
  160.4640  210.8610  153.1750 C   0  0  1  0  0  3  0  0  0  0  0  0
  160.8060  209.4150  152.9720 C   0  0  0  0  0  0  0  0  0  0  0  0
  159.0390  211.1630  152.8050 C   0  0  0  0  0  3  0  0  0  0  0  0
  158.7240  212.2210  152.2830 O   0  0  0  0  0  0  0  0  0  0  0  0
  162.0550  209.0600  150.8340 C   0  0  1  0  0  3  0  0  0  0  0  0
  161.8670  208.6950  149.4750 O   0  0  0  0  0  0  0  0  0  0  0  0
  161.9020  209.7670  148.6240 N   0  0  0  0  0  0  0  0  0  0  0  0
  162.2500  210.5780  150.7610 C   0  0  0  0  0  2  0  0  0  0  0  0
  162.1140  210.8420  149.2970 C   0  0  0  0  0  0  0  0  0  0  0  0
  163.3250  212.2590  147.6110 C   0  0  0  0  0  1  0  0  0  0  0  0
  162.2020  212.1860  148.6370 C   0  0  1  0  0  3  0  0  0  0  0  0
  160.8970  212.5600  148.0100 C   0  0  0  0  0  0  0  0  0  0  0  0
  160.6660  212.2540  146.6760 O   0  0  0  0  0  0  0  0  0  0  0  0
  160.0190  213.1790  148.6700 O   0  0  0  0  0  1  0  0  0  0  0  0
  160.7270  207.2700  151.8340 N   0  0  0  0  0  2  0  0  0  0  0  0
  162.5120  206.1700  152.8340 O   0  0  0  0  0  1  0  0  0  0  0  0
  162.0570  206.7250  151.6390 C   0  0  1  0  0  3  0  0  0  0  0  0
  162.0050  205.6560  150.5610 C   0  0  0  0  0  2  0  0  0  0  0  0
  160.5760  205.4420  150.0890 C   0  0  0  0  0  2  0  0  0  0  0  0
  160.5040  205.6030  148.7020 O   0  0  0  0  0  0  0  0  0  0  0  0
  160.8260  201.5550  147.4760 C   0  0  0  0  0  3  0  0  0  0  0  0
  161.6760  205.0200  148.2100 C   0  0  1  0  0  3  0  0  0  0  0  0
  161.2240  203.4050  146.3600 C   0  0  0  0  0  0  0  0  0  0  0  0
  161.3740  203.6970  147.6620 N   0  0  0  0  0  0  0  0  0  0  0  0
  162.2820  205.9200  147.1240 C   0  0  0  0  0  2  0  0  0  0  0  0
  161.4750  205.8190  145.8250 C   0  0  0  0  0  2  0  0  0  0  0  0
  160.9010  202.0760  146.1890 C   0  0  0  0  0  3  0  0  0  0  0  0
  161.5030  204.3910  145.2690 C   0  0  0  0  0  2  0  0  0  0  0  0
  161.1180  202.5820  148.3650 C   0  0  0  0  0  3  0  0  0  0  0  0
  1 20  1  1  0  0  0
  1  7  1  0  0  0  0
  3  4  1  0  0  0  0
  5  4  1  0  0  0  0
  5  2  2  0  0  0  0
  6  8  1  1  0  0  0
  6  5  1  0  0  0  0
  7  6  1  0  0  0  0
  7  3  2  0  0  0  0
  9  8  2  0  0  0  0
 10  1  1  1  0  0  0
 11 10  1  0  0  0  0
 12 14  2  0  0  0  0
 12 11  1  0  0  0  0
 13 10  1  0  0  0  0
 14 13  1  0  0  0  0
 16 15  1  6  0  0  0
 16 14  1  0  0  0  0
 17 16  1  0  0  0  0
 17 19  1  0  0  0  0
 18 17  2  0  0  0  0
 22 20  1  0  0  0  0
 22 21  1  1  0  0  0
 23 22  1  0  0  0  0
 24 23  1  0  0  0  0
 25 24  1  0  0  0  0
 26 34  2  0  0  0  0
 27 25  1  6  0  0  0
 28 29  1  0  0  0  0
 29 27  1  0  0  0  0
 29 34  1  0  0  0  0
 30 27  1  0  0  0  0
 31 30  1  0  0  0  0
 32 28  2  0  0  0  0
 32 26  1  0  0  0  0
 33 31  1  0  0  0  0
 33 28  1  0  0  0  0
M  END
>  <MODEL>
4

>  <REMARK>
 VINA RESULT:      -6.9      2.306      5.025
  Name = 
  11 active torsions:
  status: ('A' for Active; 'I' for Inactive)
    1  A    between atoms: C_2  and  C_25
    2  A    between atoms: C_3  and  O_13
    3  A    between atoms: C_5  and  C_15
    4  A    between atoms: C_5  and  C_30
    5  A    between atoms: N_8  and  C_25
    6  A    between atoms: N_8  and  C_30
    7  A    between atoms: C_9  and  C_33
    8  A    between atoms: O_13  and  C_15
    9  A    between atoms: C_19  and  C_28
   10  A    between atoms: C_25  and  C_31
   11  A    between atoms: C_27  and  C_33
                            x       y       z     vdW  Elec       q    Type
                         _______ _______ _______ _____ _____    ______ ____

>  <TORSDO>
F 11

$$$$
=
 OpenBabel11042422263D

 34 37  0  0  1  0  0  0  0  0999 V2000
  158.6400  212.7830  152.6420 C   0  0  1  0  0  3  0  0  0  0  0  0
  155.7590  213.4800  156.5580 O   0  0  0  0  0  0  0  0  0  0  0  0
  158.6150  214.0950  154.6920 N   0  0  0  0  0  0  0  0  0  0  0  0
  157.8710  214.3920  155.8880 C   0  0  0  0  0  2  0  0  0  0  0  0
  156.6720  213.5240  155.7490 C   0  0  0  0  0  0  0  0  0  0  0  0
  156.7270  212.7300  154.4920 C   0  0  1  0  0  3  0  0  0  0  0  0
  158.0380  213.2180  153.9500 C   0  0  0  0  0  0  0  0  0  0  0  0
  156.7480  211.2550  154.7780 C   0  0  0  0  0  3  0  0  0  0  0  0
  157.6160  210.7500  155.4730 O   0  0  0  0  0  0  0  0  0  0  0  0
  158.6170  213.9160  151.6190 C   0  0  1  0  0  3  0  0  0  0  0  0
  159.9380  214.3720  151.3750 O   0  0  0  0  0  0  0  0  0  0  0  0
  160.3380  214.1830  150.0790 N   0  0  0  0  0  0  0  0  0  0  0  0
  158.1680  213.4000  150.2470 C   0  0  0  0  0  2  0  0  0  0  0  0
  159.3820  213.6430  149.4100 C   0  0  0  0  0  0  0  0  0  0  0  0
  159.0760  214.4510  147.0510 C   0  0  0  0  0  1  0  0  0  0  0  0
  159.5220  213.3100  147.9540 C   0  0  1  0  0  3  0  0  0  0  0  0
  160.9250  212.9070  147.6320 C   0  0  0  0  0  0  0  0  0  0  0  0
  161.7720  213.8130  147.0070 O   0  0  0  0  0  0  0  0  0  0  0  0
  161.3380  211.7430  147.8910 O   0  0  0  0  0  1  0  0  0  0  0  0
  160.0110  212.3290  152.8470 N   0  0  0  0  0  2  0  0  0  0  0  0
  161.1870  210.9830  151.3620 O   0  0  0  0  0  1  0  0  0  0  0  0
  160.1280  211.0040  152.2690 C   0  0  1  0  0  3  0  0  0  0  0  0
  160.3800  209.9970  153.3780 C   0  0  0  0  0  2  0  0  0  0  0  0
  161.4130  208.9690  152.9410 C   0  0  0  0  0  2  0  0  0  0  0  0
  160.7790  207.9010  152.2980 O   0  0  0  0  0  0  0  0  0  0  0  0
  160.8420  203.6670  152.0410 C   0  0  0  0  0  3  0  0  0  0  0  0
  161.8150  207.1630  151.7180 C   0  0  1  0  0  3  0  0  0  0  0  0
  160.9710  205.1820  150.4550 C   0  0  0  0  0  0  0  0  0  0  0  0
  161.4060  205.7640  151.5840 N   0  0  0  0  0  0  0  0  0  0  0  0
  162.1590  207.7520  150.3430 C   0  0  0  0  0  2  0  0  0  0  0  0
  161.0830  207.3870  149.3140 C   0  0  0  0  0  2  0  0  0  0  0  0
  160.6260  203.8670  150.6830 C   0  0  0  0  0  3  0  0  0  0  0  0
  160.9950  205.8680  149.1250 C   0  0  0  0  0  2  0  0  0  0  0  0
  161.3190  204.8600  152.5710 C   0  0  0  0  0  3  0  0  0  0  0  0
  1 20  1  1  0  0  0
  1  7  1  0  0  0  0
  3  4  1  0  0  0  0
  5  4  1  0  0  0  0
  5  2  2  0  0  0  0
  6  8  1  1  0  0  0
  6  5  1  0  0  0  0
  7  6  1  0  0  0  0
  7  3  2  0  0  0  0
  8  9  2  0  0  0  0
 10  1  1  1  0  0  0
 11 10  1  0  0  0  0
 12 11  1  0  0  0  0
 13 10  1  0  0  0  0
 14 12  2  0  0  0  0
 14 13  1  0  0  0  0
 16 15  1  6  0  0  0
 16 14  1  0  0  0  0
 17 19  1  0  0  0  0
 17 16  1  0  0  0  0
 18 17  2  0  0  0  0
 22 21  1  6  0  0  0
 22 20  1  0  0  0  0
 22 23  1  0  0  0  0
 24 23  1  0  0  0  0
 25 24  1  0  0  0  0
 26 34  2  0  0  0  0
 27 25  1  6  0  0  0
 28 32  2  0  0  0  0
 28 29  1  0  0  0  0
 29 27  1  0  0  0  0
 29 34  1  0  0  0  0
 30 27  1  0  0  0  0
 31 30  1  0  0  0  0
 32 26  1  0  0  0  0
 33 31  1  0  0  0  0
 33 28  1  0  0  0  0
M  END
>  <MODEL>
5

>  <REMARK>
 VINA RESULT:      -6.7      2.867      5.661
  Name = 
  11 active torsions:
  status: ('A' for Active; 'I' for Inactive)
    1  A    between atoms: C_2  and  C_25
    2  A    between atoms: C_3  and  O_13
    3  A    between atoms: C_5  and  C_15
    4  A    between atoms: C_5  and  C_30
    5  A    between atoms: N_8  and  C_25
    6  A    between atoms: N_8  and  C_30
    7  A    between atoms: C_9  and  C_33
    8  A    between atoms: O_13  and  C_15
    9  A    between atoms: C_19  and  C_28
   10  A    between atoms: C_25  and  C_31
   11  A    between atoms: C_27  and  C_33
                            x       y       z     vdW  Elec       q    Type
                         _______ _______ _______ _____ _____    ______ ____

>  <TORSDO>
F 11

$$$$
=
 OpenBabel11042422263D

 34 37  0  0  1  0  0  0  0  0999 V2000
  161.4450  206.2260  149.8420 C   0  0  1  0  0  3  0  0  0  0  0  0
  160.1240  202.8210  153.1260 O   0  0  0  0  0  0  0  0  0  0  0  0
  161.5680  205.8460  152.2440 N   0  0  0  0  0  0  0  0  0  0  0  0
  161.2400  204.9330  153.3070 C   0  0  0  0  0  2  0  0  0  0  0  0
  160.5780  203.8150  152.5840 C   0  0  0  0  0  0  0  0  0  0  0  0
  160.5310  204.0760  151.1200 C   0  0  1  0  0  3  0  0  0  0  0  0
  161.2130  205.4120  151.0870 C   0  0  0  0  0  0  0  0  0  0  0  0
  161.2930  203.0330  150.3540 C   0  0  0  0  0  3  0  0  0  0  0  0
  160.7240  202.2180  149.6450 O   0  0  0  0  0  0  0  0  0  0  0  0
  160.7090  205.6270  148.6470 C   0  0  1  0  0  3  0  0  0  0  0  0
  160.1760  206.6650  147.8390 O   0  0  0  0  0  0  0  0  0  0  0  0
  160.7090  206.6880  146.5780 N   0  0  0  0  0  0  0  0  0  0  0  0
  161.6900  204.9210  147.7030 C   0  0  0  0  0  2  0  0  0  0  0  0
  161.5600  205.7320  146.4550 C   0  0  0  0  0  0  0  0  0  0  0  0
  163.3210  204.3650  145.2950 C   0  0  0  0  0  1  0  0  0  0  0  0
  162.3140  205.5010  145.1790 C   0  0  1  0  0  3  0  0  0  0  0  0
  161.3770  205.2540  144.0410 C   0  0  0  0  0  0  0  0  0  0  0  0
  160.3500  204.3300  144.1870 O   0  0  0  0  0  1  0  0  0  0  0  0
  161.5270  205.8510  142.9400 O   0  0  0  0  0  0  0  0  0  0  0  0
  161.0080  207.6010  150.0540 N   0  0  0  0  0  2  0  0  0  0  0  0
  162.2500  208.9400  148.6170 O   0  0  0  0  0  1  0  0  0  0  0  0
  162.1710  208.4580  149.9220 C   0  0  1  0  0  3  0  0  0  0  0  0
  162.0470  209.6200  150.8930 C   0  0  0  0  0  2  0  0  0  0  0  0
  161.0050  209.3160  151.9580 C   0  0  0  0  0  2  0  0  0  0  0  0
  161.6360  209.0310  153.1730 O   0  0  0  0  0  0  0  0  0  0  0  0
  160.1190  206.9150  156.5230 C   0  0  0  0  0  3  0  0  0  0  0  0
  160.8080  209.5920  154.1510 C   0  0  1  0  0  3  0  0  0  0  0  0
  161.3360  208.7420  156.4380 C   0  0  0  0  0  0  0  0  0  0  0  0
  160.6730  208.6630  155.2730 N   0  0  0  0  0  0  0  0  0  0  0  0
  161.4070  210.9230  154.6290 C   0  0  0  0  0  2  0  0  0  0  0  0
  162.6150  210.6750  155.5400 C   0  0  0  0  0  2  0  0  0  0  0  0
  161.0100  207.6860  157.2610 C   0  0  0  0  0  3  0  0  0  0  0  0
  162.2050  209.9060  156.8010 C   0  0  0  0  0  2  0  0  0  0  0  0
  159.9350  207.5420  155.2960 C   0  0  0  0  0  3  0  0  0  0  0  0
  1 20  1  1  0  0  0
  1  7  1  0  0  0  0
  3  4  1  0  0  0  0
  5  2  2  0  0  0  0
  5  4  1  0  0  0  0
  6  8  1  6  0  0  0
  6  5  1  0  0  0  0
  7  6  1  0  0  0  0
  7  3  2  0  0  0  0
  9  8  2  0  0  0  0
 10  1  1  1  0  0  0
 11 10  1  0  0  0  0
 12 11  1  0  0  0  0
 13 10  1  0  0  0  0
 14 12  2  0  0  0  0
 14 13  1  0  0  0  0
 16 15  1  1  0  0  0
 16 14  1  0  0  0  0
 17 18  1  0  0  0  0
 17 16  1  0  0  0  0
 19 17  2  0  0  0  0
 22 21  1  6  0  0  0
 22 20  1  0  0  0  0
 22 23  1  0  0  0  0
 23 24  1  0  0  0  0
 24 25  1  0  0  0  0
 26 32  1  0  0  0  0
 27 25  1  6  0  0  0
 27 30  1  0  0  0  0
 27 29  1  0  0  0  0
 28 33  1  0  0  0  0
 28 32  2  0  0  0  0
 29 34  1  0  0  0  0
 29 28  1  0  0  0  0
 30 31  1  0  0  0  0
 31 33  1  0  0  0  0
 34 26  2  0  0  0  0
M  END
>  <MODEL>
6

>  <REMARK>
 VINA RESULT:      -6.6      2.903      8.745
  Name = 
  11 active torsions:
  status: ('A' for Active; 'I' for Inactive)
    1  A    between atoms: C_2  and  C_25
    2  A    between atoms: C_3  and  O_13
    3  A    between atoms: C_5  and  C_15
    4  A    between atoms: C_5  and  C_30
    5  A    between atoms: N_8  and  C_25
    6  A    between atoms: N_8  and  C_30
    7  A    between atoms: C_9  and  C_33
    8  A    between atoms: O_13  and  C_15
    9  A    between atoms: C_19  and  C_28
   10  A    between atoms: C_25  and  C_31
   11  A    between atoms: C_27  and  C_33
                            x       y       z     vdW  Elec       q    Type
                         _______ _______ _______ _____ _____    ______ ____

>  <TORSDO>
F 11

$$$$
=
 OpenBabel11042422263D

 34 37  0  0  1  0  0  0  0  0999 V2000
  160.2970  209.9010  153.4380 C   0  0  1  0  0  3  0  0  0  0  0  0
  160.8310  206.7090  157.1330 O   0  0  0  0  0  0  0  0  0  0  0  0
  161.0780  209.8750  155.7440 N   0  0  0  0  0  0  0  0  0  0  0  0
  161.2880  209.0500  156.9050 C   0  0  0  0  0  2  0  0  0  0  0  0
  160.8340  207.7130  156.4390 C   0  0  0  0  0  0  0  0  0  0  0  0
  160.3770  207.7640  155.0240 C   0  0  1  0  0  3  0  0  0  0  0  0
  160.6090  209.2190  154.7430 C   0  0  0  0  0  0  0  0  0  0  0  0
  161.2130  206.8780  154.1460 C   0  0  0  0  0  3  0  0  0  0  0  0
  160.8620  205.7420  153.8640 O   0  0  0  0  0  0  0  0  0  0  0  0
  159.3770  211.1000  153.6480 C   0  0  1  0  0  3  0  0  0  0  0  0
  160.1490  212.2540  153.9430 O   0  0  0  0  0  0  0  0  0  0  0  0
  160.0190  213.2390  153.0010 N   0  0  0  0  0  0  0  0  0  0  0  0
  158.6710  211.4790  152.3420 C   0  0  0  0  0  2  0  0  0  0  0  0
  159.2030  212.8520  152.0860 C   0  0  0  0  0  0  0  0  0  0  0  0
  159.7310  213.4250  149.6970 C   0  0  0  0  0  1  0  0  0  0  0  0
  158.8600  213.7190  150.9110 C   0  0  1  0  0  3  0  0  0  0  0  0
  157.4130  213.5910  150.5580 C   0  0  0  0  0  0  0  0  0  0  0  0
  157.0480  212.9600  149.3760 O   0  0  0  0  0  0  0  0  0  0  0  0
  156.5210  214.0800  151.3050 O   0  0  0  0  0  1  0  0  0  0  0  0
  161.5310  210.3310  152.7900 N   0  0  0  0  0  2  0  0  0  0  0  0
  161.9820  210.8830  150.5780 O   0  0  0  0  0  1  0  0  0  0  0  0
  161.4840  209.8820  151.4110 C   0  0  1  0  0  3  0  0  0  0  0  0
  162.3260  208.6260  151.2670 C   0  0  0  0  0  2  0  0  0  0  0  0
  162.2390  208.0860  149.8480 C   0  0  0  0  0  2  0  0  0  0  0  0
  162.3290  206.6900  149.8640 O   0  0  0  0  0  0  0  0  0  0  0  0
  161.7310  205.1650  145.9510 C   0  0  0  0  0  3  0  0  0  0  0  0
  161.0980  206.2440  149.3720 C   0  0  1  0  0  3  0  0  0  0  0  0
  161.3380  204.2390  147.9040 C   0  0  0  0  0  0  0  0  0  0  0  0
  161.2980  205.5680  148.0890 N   0  0  0  0  0  0  0  0  0  0  0  0
  160.4560  205.2860  150.3850 C   0  0  0  0  0  2  0  0  0  0  0  0
  161.1600  203.9240  150.3630 C   0  0  0  0  0  2  0  0  0  0  0  0
  161.5860  203.9350  146.5830 C   0  0  0  0  0  3  0  0  0  0  0  0
  161.0250  203.2570  148.9900 C   0  0  0  0  0  2  0  0  0  0  0  0
  161.5530  206.1550  146.9100 C   0  0  0  0  0  3  0  0  0  0  0  0
  1 20  1  1  0  0  0
  1  7  1  0  0  0  0
  3  4  1  0  0  0  0
  5  4  1  0  0  0  0
  5  2  2  0  0  0  0
  6  8  1  6  0  0  0
  6  5  1  0  0  0  0
  7  6  1  0  0  0  0
  7  3  2  0  0  0  0
  9  8  2  0  0  0  0
 10  1  1  6  0  0  0
 10 11  1  0  0  0  0
 12 11  1  0  0  0  0
 13 10  1  0  0  0  0
 14 13  1  0  0  0  0
 14 12  2  0  0  0  0
 16 15  1  6  0  0  0
 16 14  1  0  0  0  0
 17 16  1  0  0  0  0
 17 19  1  0  0  0  0
 18 17  2  0  0  0  0
 22 21  1  6  0  0  0
 22 20  1  0  0  0  0
 23 22  1  0  0  0  0
 24 25  1  0  0  0  0
 24 23  1  0  0  0  0
 26 32  1  0  0  0  0
 26 34  2  0  0  0  0
 27 25  1  1  0  0  0
 27 30  1  0  0  0  0
 28 29  1  0  0  0  0
 28 33  1  0  0  0  0
 29 27  1  0  0  0  0
 31 30  1  0  0  0  0
 32 28  2  0  0  0  0
 33 31  1  0  0  0  0
 34 29  1  0  0  0  0
M  END
>  <MODEL>
7

>  <REMARK>
 VINA RESULT:      -6.6      1.818      2.439
  Name = 
  11 active torsions:
  status: ('A' for Active; 'I' for Inactive)
    1  A    between atoms: C_2  and  C_25
    2  A    between atoms: C_3  and  O_13
    3  A    between atoms: C_5  and  C_15
    4  A    between atoms: C_5  and  C_30
    5  A    between atoms: N_8  and  C_25
    6  A    between atoms: N_8  and  C_30
    7  A    between atoms: C_9  and  C_33
    8  A    between atoms: O_13  and  C_15
    9  A    between atoms: C_19  and  C_28
   10  A    between atoms: C_25  and  C_31
   11  A    between atoms: C_27  and  C_33
                            x       y       z     vdW  Elec       q    Type
                         _______ _______ _______ _____ _____    ______ ____

>  <TORSDO>
F 11

$$$$
=
 OpenBabel11042422263D

 34 37  0  0  1  0  0  0  0  0999 V2000
  161.1660  207.9590  151.1670 C   0  0  1  0  0  3  0  0  0  0  0  0
  161.9570  203.1860  152.0120 O   0  0  0  0  0  0  0  0  0  0  0  0
  160.2410  205.8020  150.5200 N   0  0  0  0  0  0  0  0  0  0  0  0
  160.3600  204.3760  150.6810 C   0  0  0  0  0  2  0  0  0  0  0  0
  161.5070  204.2500  151.6180 C   0  0  0  0  0  0  0  0  0  0  0  0
  162.0380  205.5860  152.0010 C   0  0  1  0  0  3  0  0  0  0  0  0
  161.1050  206.4560  151.2110 C   0  0  0  0  0  0  0  0  0  0  0  0
  161.9150  205.8210  153.4790 C   0  0  0  0  0  3  0  0  0  0  0  0
  160.8260  205.9400  154.0200 O   0  0  0  0  0  0  0  0  0  0  0  0
  161.2160  208.5500  152.5730 C   0  0  1  0  0  3  0  0  0  0  0  0
  162.3310  209.4210  152.6900 O   0  0  0  0  0  0  0  0  0  0  0  0
  161.9710  210.7190  152.9410 N   0  0  0  0  0  0  0  0  0  0  0  0
  160.0220  209.4800  152.8150 C   0  0  0  0  0  2  0  0  0  0  0  0
  160.6900  210.8010  153.0200 C   0  0  0  0  0  0  0  0  0  0  0  0
  159.4620  212.7480  152.0140 C   0  0  0  0  0  1  0  0  0  0  0  0
  159.9940  212.1030  153.2860 C   0  0  1  0  0  3  0  0  0  0  0  0
  158.8930  211.9260  154.2810 C   0  0  0  0  0  0  0  0  0  0  0  0
  157.5780  212.1500  153.8950 O   0  0  0  0  0  0  0  0  0  0  0  0
  159.1470  211.6070  155.4750 O   0  0  0  0  0  1  0  0  0  0  0  0
  162.3310  208.3920  150.4060 N   0  0  0  0  0  2  0  0  0  0  0  0
  162.3280  209.7660  148.5320 O   0  0  0  0  0  1  0  0  0  0  0  0
  161.9290  208.5230  149.0190 C   0  0  1  0  0  3  0  0  0  0  0  0
  162.5790  207.4180  148.2040 C   0  0  0  0  0  2  0  0  0  0  0  0
  161.6170  206.8940  147.1500 C   0  0  0  0  0  2  0  0  0  0  0  0
  161.1270  205.6410  147.5330 O   0  0  0  0  0  0  0  0  0  0  0  0
  160.9650  201.4530  148.1840 C   0  0  0  0  0  3  0  0  0  0  0  0
  162.0020  204.7190  146.9500 C   0  0  1  0  0  3  0  0  0  0  0  0
  160.8510  202.5970  146.3130 C   0  0  0  0  0  0  0  0  0  0  0  0
  161.5170  203.3600  147.1940 N   0  0  0  0  0  0  0  0  0  0  0  0
  162.1020  204.9860  145.4420 C   0  0  0  0  0  2  0  0  0  0  0  0
  160.8350  204.5080  144.7230 C   0  0  0  0  0  2  0  0  0  0  0  0
  160.5010  201.3890  146.8750 C   0  0  0  0  0  3  0  0  0  0  0  0
  160.6490  202.9950  144.8840 C   0  0  0  0  0  2  0  0  0  0  0  0
  161.5830  202.6860  148.3530 C   0  0  0  0  0  3  0  0  0  0  0  0
  1 20  1  6  0  0  0
  1  7  1  0  0  0  0
  3  4  1  0  0  0  0
  3  7  2  0  0  0  0
  4  5  1  0  0  0  0
  5  6  1  0  0  0  0
  5  2  2  0  0  0  0
  6  8  1  1  0  0  0
  7  6  1  0  0  0  0
  8  9  2  0  0  0  0
 10  1  1  6  0  0  0
 10 11  1  0  0  0  0
 10 13  1  0  0  0  0
 11 12  1  0  0  0  0
 12 14  2  0  0  0  0
 13 14  1  0  0  0  0
 14 16  1  0  0  0  0
 16 15  1  6  0  0  0
 16 17  1  0  0  0  0
 17 19  1  0  0  0  0
 18 17  2  0  0  0  0
 22 21  1  6  0  0  0
 22 20  1  0  0  0  0
 23 22  1  0  0  0  0
 24 25  1  0  0  0  0
 24 23  1  0  0  0  0
 26 34  2  0  0  0  0
 27 29  1  0  0  0  0
 27 25  1  6  0  0  0
 28 32  2  0  0  0  0
 28 29  1  0  0  0  0
 29 34  1  0  0  0  0
 30 27  1  0  0  0  0
 31 33  1  0  0  0  0
 31 30  1  0  0  0  0
 32 26  1  0  0  0  0
 33 28  1  0  0  0  0
M  END
>  <MODEL>
8

>  <REMARK>
 VINA RESULT:      -6.5      2.168      3.839
  Name = 
  11 active torsions:
  status: ('A' for Active; 'I' for Inactive)
    1  A    between atoms: C_2  and  C_25
    2  A    between atoms: C_3  and  O_13
    3  A    between atoms: C_5  and  C_15
    4  A    between atoms: C_5  and  C_30
    5  A    between atoms: N_8  and  C_25
    6  A    between atoms: N_8  and  C_30
    7  A    between atoms: C_9  and  C_33
    8  A    between atoms: O_13  and  C_15
    9  A    between atoms: C_19  and  C_28
   10  A    between atoms: C_25  and  C_31
   11  A    between atoms: C_27  and  C_33
                            x       y       z     vdW  Elec       q    Type
                         _______ _______ _______ _____ _____    ______ ____

>  <TORSDO>
F 11

$$$$
=
 OpenBabel11042422263D

 34 37  0  0  1  0  0  0  0  0999 V2000
  161.6580  206.9140  150.2520 C   0  0  1  0  0  3  0  0  0  0  0  0
  161.3430  207.2910  155.1390 O   0  0  0  0  0  0  0  0  0  0  0  0
  161.3190  205.4750  152.1860 N   0  0  0  0  0  0  0  0  0  0  0  0
  161.2050  205.4430  153.6210 C   0  0  0  0  0  2  0  0  0  0  0  0
  161.3610  206.8740  153.9920 C   0  0  0  0  0  0  0  0  0  0  0  0
  161.5540  207.7230  152.7860 C   0  0  1  0  0  3  0  0  0  0  0  0
  161.4930  206.6630  151.7270 C   0  0  0  0  0  0  0  0  0  0  0  0
  160.4490  208.7300  152.6430 C   0  0  0  0  0  3  0  0  0  0  0  0
  160.6500  209.9260  152.7910 O   0  0  0  0  0  0  0  0  0  0  0  0
  160.9100  205.8700  149.4270 C   0  0  1  0  0  3  0  0  0  0  0  0
  160.0900  206.5150  148.4640 O   0  0  0  0  0  0  0  0  0  0  0  0
  160.4470  206.2210  147.1760 N   0  0  0  0  0  0  0  0  0  0  0  0
  161.8830  205.0580  148.5660 C   0  0  0  0  0  2  0  0  0  0  0  0
  161.4450  205.4100  147.1820 C   0  0  0  0  0  0  0  0  0  0  0  0
  163.4650  204.3470  146.1300 C   0  0  0  0  0  1  0  0  0  0  0  0
  162.0650  204.9060  145.9130 C   0  0  1  0  0  3  0  0  0  0  0  0
  161.1910  203.8840  145.2600 C   0  0  0  0  0  0  0  0  0  0  0  0
  160.3270  204.2700  144.2430 O   0  0  0  0  0  0  0  0  0  0  0  0
  161.2050  202.6830  145.6450 O   0  0  0  0  0  1  0  0  0  0  0  0
  161.1790  208.2490  149.9140 N   0  0  0  0  0  2  0  0  0  0  0  0
  162.7030  208.7000  148.2190 O   0  0  0  0  0  1  0  0  0  0  0  0
  162.3260  209.0420  149.5160 C   0  0  1  0  0  3  0  0  0  0  0  0
  161.9580  210.5150  149.5730 C   0  0  0  0  0  2  0  0  0  0  0  0
  162.3320  211.2090  148.2720 C   0  0  0  0  0  2  0  0  0  0  0  0
  161.1780  211.4740  147.5270 O   0  0  0  0  0  0  0  0  0  0  0  0
  159.3000  213.0180  144.0510 C   0  0  0  0  0  3  0  0  0  0  0  0
  161.3450  212.7800  147.0550 C   0  0  1  0  0  3  0  0  0  0  0  0
  159.2300  213.7280  146.1290 C   0  0  0  0  0  0  0  0  0  0  0  0
  160.3770  213.0450  145.9900 N   0  0  0  0  0  0  0  0  0  0  0  0
  161.1520  213.7720  148.2110 C   0  0  0  0  0  2  0  0  0  0  0  0
  159.6660  213.9010  148.5700 C   0  0  0  0  0  2  0  0  0  0  0  0
  158.5300  213.7570  144.9420 C   0  0  0  0  0  3  0  0  0  0  0  0
  158.8610  214.4500  147.3870 C   0  0  0  0  0  2  0  0  0  0  0  0
  160.4330  212.5870  144.7300 C   0  0  0  0  0  3  0  0  0  0  0  0
  1 20  1  1  0  0  0
  1  7  1  0  0  0  0
  3  4  1  0  0  0  0
  4  5  1  0  0  0  0
  5  2  2  0  0  0  0
  6  8  1  6  0  0  0
  6  5  1  0  0  0  0
  7  3  2  0  0  0  0
  7  6  1  0  0  0  0
  8  9  2  0  0  0  0
 10  1  1  6  0  0  0
 11 10  1  0  0  0  0
 12 14  2  0  0  0  0
 12 11  1  0  0  0  0
 13 10  1  0  0  0  0
 14 13  1  0  0  0  0
 16 15  1  1  0  0  0
 16 14  1  0  0  0  0
 17 19  1  0  0  0  0
 17 16  1  0  0  0  0
 18 17  2  0  0  0  0
 22 21  1  6  0  0  0
 22 23  1  0  0  0  0
 22 20  1  0  0  0  0
 24 23  1  0  0  0  0
 25 24  1  0  0  0  0
 26 34  2  0  0  0  0
 26 32  1  0  0  0  0
 27 25  1  1  0  0  0
 27 30  1  0  0  0  0
 28 33  1  0  0  0  0
 29 28  1  0  0  0  0
 29 27  1  0  0  0  0
 30 31  1  0  0  0  0
 32 28  2  0  0  0  0
 33 31  1  0  0  0  0
 34 29  1  0  0  0  0
M  END
>  <MODEL>
9

>  <REMARK>
 VINA RESULT:      -6.4      4.031      8.173
  Name = 
  11 active torsions:
  status: ('A' for Active; 'I' for Inactive)
    1  A    between atoms: C_2  and  C_25
    2  A    between atoms: C_3  and  O_13
    3  A    between atoms: C_5  and  C_15
    4  A    between atoms: C_5  and  C_30
    5  A    between atoms: N_8  and  C_25
    6  A    between atoms: N_8  and  C_30
    7  A    between atoms: C_9  and  C_33
    8  A    between atoms: O_13  and  C_15
    9  A    between atoms: C_19  and  C_28
   10  A    between atoms: C_25  and  C_31
   11  A    between atoms: C_27  and  C_33
                            x       y       z     vdW  Elec       q    Type
                         _______ _______ _______ _____ _____    ______ ____

>  <TORSDO>
F 11

$$$$
