=
 OpenBabel11042421433D

 47 51  0  0  1  0  0  0  0  0999 V2000
  161.5790  210.0030  152.0360 C   0  0  1  0  0  3  0  0  0  0  0  0
  160.6370  206.6530  150.4740 C   0  0  0  0  0  0  0  0  0  0  0  0
  159.4440  210.7260  153.2350 C   0  0  0  0  0  0  0  0  0  0  0  0
  160.9580  208.0050  150.6290 C   0  0  0  0  0  3  0  0  0  0  0  0
  159.7890  210.1680  154.5910 C   0  0  0  0  0  2  0  0  0  0  0  0
  161.5890  209.7090  156.2810 C   0  0  2  0  0  3  0  0  0  0  0  0
  160.4940  207.4400  156.3440 C   0  0  0  0  0  2  0  0  0  0  0  0
  161.2130  209.6280  154.7840 C   0  0  1  0  0  3  0  0  0  0  0  0
  161.0590  207.7250  153.0450 C   0  0  0  0  0  0  0  0  0  0  0  0
  160.5810  205.8280  151.5940 C   0  0  0  0  0  3  0  0  0  0  0  0
  160.3740  210.8110  152.1480 N   0  0  0  0  0  2  0  0  0  0  0  0
  161.2140  208.5480  151.9030 C   0  0  0  0  0  0  0  0  0  0  0  0
  160.7910  208.7180  157.1440 C   0  0  0  0  0  2  0  0  0  0  0  0
  161.4960  207.2610  155.3720 O   0  0  0  0  0  0  0  0  0  0  0  0
  161.2490  208.2000  154.3990 N   0  0  0  0  0  0  0  0  0  0  0  0
  160.7820  206.3630  152.8640 C   0  0  0  0  0  3  0  0  0  0  0  0
  158.2700  211.1430  153.0520 O   0  0  0  0  0  0  0  0  0  0  0  0
  159.2000  211.5730  156.7230 N   0  0  0  0  0  2  0  0  0  0  0  0
  160.5600  212.0110  156.8510 C   0  0  0  0  0  0  0  0  0  0  0  0
  160.8180  213.2340  157.0320 O   0  0  0  0  0  0  0  0  0  0  0  0
  161.6410  211.0740  156.8190 N   0  0  0  0  0  2  0  0  0  0  0  0
  158.0850  212.5070  156.7550 C   0  0  0  0  0  2  0  0  0  0  0  0
  156.8290  211.8150  157.2610 C   0  0  0  0  0  2  0  0  0  0  0  0
  154.8960  213.2640  154.2660 C   0  0  2  0  0  3  0  0  0  0  0  0
  155.6150  212.2860  156.4800 C   0  0  1  0  0  3  0  0  0  0  0  0
  154.2650  214.4530  154.9930 C   0  0  0  0  0  2  0  0  0  0  0  0
  154.9850  213.4890  157.1990 C   0  0  0  0  0  2  0  0  0  0  0  0
  156.0690  212.6940  155.0720 C   0  0  0  0  0  2  0  0  0  0  0  0
  153.8070  214.0420  156.3940 C   0  0  0  0  0  2  0  0  0  0  0  0
  155.3680  213.6830  153.0230 O   0  0  0  0  0  1  0  0  0  0  0  0
  161.8660  211.0570  149.7890 O   0  0  0  0  0  0  0  0  0  0  0  0
  163.7050  210.4560  151.0130 O   0  0  0  0  0  1  0  0  0  0  0  0
  162.4490  210.5090  150.9220 C   0  0  0  0  0  0  0  0  0  0  0  0
  160.4290  206.0690  149.1150 C   0  0  0  0  0  2  0  0  0  0  0  0
  160.8520  203.7100  149.5850 C   0  0  0  0  0  0  0  0  0  0  0  0
  160.5340  202.6440  150.2720 C   0  0  0  0  0  3  0  0  0  0  0  0
  161.1800  204.7810  148.9060 C   0  0  0  0  0  0  0  0  0  0  0  0
  162.0290  204.6170  147.6850 C   0  0  1  0  0  3  0  0  0  0  0  0
  161.3510  203.8460  146.7260 O   0  0  0  0  0  0  0  0  0  0  0  0
  161.8140  204.3370  145.5050 C   0  0  2  0  0  3  0  0  0  0  0  0
  162.3660  205.8780  147.1600 O   0  0  0  0  0  0  0  0  0  0  0  0
  162.4630  205.6610  145.7920 C   0  0  0  0  0  2  0  0  0  0  0  0
  161.1470  205.5460  143.7620 C   0  0  0  0  0  1  0  0  0  0  0  0
  160.7310  204.5350  144.6340 O   0  0  0  0  0  0  0  0  0  0  0  0
  161.5970  201.0840  148.6560 O   0  0  0  0  0  0  0  0  0  0  0  0
  160.2080  200.3010  150.3040 O   0  0  0  0  0  1  0  0  0  0  0  0
  160.7700  201.2870  149.7600 C   0  0  0  0  0  0  0  0  0  0  0  0
  1 33  1  6  0  0  0
  1 11  1  0  0  0  0
  2  4  2  0  0  0  0
  2 10  1  0  0  0  0
  3  5  1  0  0  0  0
  4 12  1  0  0  0  0
  6 21  1  1  0  0  0
  6 13  1  0  0  0  0
  7 13  1  0  0  0  0
  8  5  1  1  0  0  0
  8  6  1  0  0  0  0
  9 15  1  0  0  0  0
 10 16  2  0  0  0  0
 11  3  1  0  0  0  0
 12  1  1  0  0  0  0
 12  9  2  0  0  0  0
 14  7  1  0  0  0  0
 15  8  1  0  0  0  0
 15 14  1  0  0  0  0
 16  9  1  0  0  0  0
 17  3  2  0  0  0  0
 18 22  1  0  0  0  0
 18 19  1  0  0  0  0
 19 20  2  0  0  0  0
 21 19  1  0  0  0  0
 22 23  1  0  0  0  0
 24 30  1  6  0  0  0
 24 26  1  0  0  0  0
 24 28  1  0  0  0  0
 25 27  1  0  0  0  0
 25 23  1  1  0  0  0
 26 29  1  0  0  0  0
 28 25  1  0  0  0  0
 29 27  1  0  0  0  0
 31 33  2  0  0  0  0
 33 32  1  0  0  0  0
 34  2  1  0  0  0  0
 35 36  2  0  0  0  0
 37 34  1  0  0  0  0
 37 35  2  0  0  0  0
 38 37  1  1  0  0  0
 39 38  1  0  0  0  0
 40 44  1  6  0  0  0
 40 42  1  0  0  0  0
 40 39  1  0  0  0  0
 41 38  1  0  0  0  0
 42 41  1  0  0  0  0
 43 44  1  0  0  0  0
 45 47  2  0  0  0  0
 47 36  1  0  0  0  0
 47 46  1  0  0  0  0
M  END
>  <MODEL>
1

>  <REMARK>
 VINA RESULT:      -6.8      0.000      0.000
  Name = 
  10 active torsions:
  status: ('A' for Active; 'I' for Inactive)
    1  A    between atoms: C_2  and  C_46
    2  A    between atoms: CA_3  and  C_47
    3  A    between atoms: C_4  and  C_44
    4  A    between atoms: N_11  and  C_34
    5  A    between atoms: O_15  and  C_29
    6  A    between atoms: C_18  and  N_32
    7  A    between atoms: C_21  and  C_28
    8  A    between atoms: C_22  and  C_35
    9  A    between atoms: C_28  and  C_44
   10  A    between atoms: C_34  and  C_46
                            x       y       z     vdW  Elec       q    Type
                         _______ _______ _______ _____ _____    ______ ____

>  <TORSDO>
F 10

$$$$
=
 OpenBabel11042421433D

 47 51  0  0  1  0  0  0  0  0999 V2000
  161.7110  209.7160  151.5900 C   0  0  1  0  0  3  0  0  0  0  0  0
  161.3190  212.8940  149.5160 C   0  0  0  0  0  0  0  0  0  0  0  0
  162.7640  210.5460  153.7630 C   0  0  0  0  0  0  0  0  0  0  0  0
  161.7790  211.6590  149.9840 C   0  0  0  0  0  3  0  0  0  0  0  0
  161.4860  210.7170  154.5410 C   0  0  0  0  0  2  0  0  0  0  0  0
  159.1740  209.8520  155.0030 C   0  0  2  0  0  3  0  0  0  0  0  0
  158.5660  212.2820  154.7260 C   0  0  0  0  0  2  0  0  0  0  0  0
  160.1980  210.1880  153.8950 C   0  0  1  0  0  3  0  0  0  0  0  0
  160.2140  211.7590  151.8450 C   0  0  0  0  0  0  0  0  0  0  0  0
  160.2740  213.5320  150.1760 C   0  0  0  0  0  3  0  0  0  0  0  0
  162.8410  209.8930  152.4890 N   0  0  0  0  0  2  0  0  0  0  0  0
  161.2090  211.0570  151.1220 C   0  0  0  0  0  0  0  0  0  0  0  0
  158.6410  211.1080  155.7130 C   0  0  0  0  0  2  0  0  0  0  0  0
  158.3890  211.7800  153.4230 O   0  0  0  0  0  0  0  0  0  0  0  0
  159.6030  211.2510  153.0550 N   0  0  0  0  0  0  0  0  0  0  0  0
  159.7360  212.9730  151.3330 C   0  0  0  0  0  3  0  0  0  0  0  0
  163.8250  211.0040  154.2650 O   0  0  0  0  0  0  0  0  0  0  0  0
  160.8040  207.3730  154.2430 N   0  0  0  0  0  2  0  0  0  0  0  0
  160.1870  207.5320  155.5280 C   0  0  0  0  0  0  0  0  0  0  0  0
  160.1960  206.5800  156.3580 O   0  0  0  0  0  0  0  0  0  0  0  0
  159.5940  208.7770  155.9100 N   0  0  0  0  0  2  0  0  0  0  0  0
  161.4150  206.1190  153.8330 C   0  0  0  0  0  2  0  0  0  0  0  0
  160.4130  205.2670  153.0680 C   0  0  0  0  0  2  0  0  0  0  0  0
  161.2870  204.4420  149.4130 C   0  0  2  0  0  3  0  0  0  0  0  0
  161.1020  204.5350  151.9300 C   0  0  1  0  0  3  0  0  0  0  0  0
  160.8650  202.9720  149.4340 C   0  0  0  0  0  2  0  0  0  0  0  0
  160.6700  203.0610  151.9380 C   0  0  0  0  0  2  0  0  0  0  0  0
  160.6910  205.1960  150.6070 C   0  0  0  0  0  2  0  0  0  0  0  0
  161.2820  202.3140  150.7510 C   0  0  0  0  0  2  0  0  0  0  0  0
  160.8330  205.0350  148.2360 O   0  0  0  0  0  1  0  0  0  0  0  0
  161.8600  209.1760  149.1550 O   0  0  0  0  0  0  0  0  0  0  0  0
  162.5800  207.6570  150.7100 O   0  0  0  0  0  1  0  0  0  0  0  0
  162.0720  208.7850  150.4690 C   0  0  0  0  0  0  0  0  0  0  0  0
  161.8840  213.4960  148.2710 C   0  0  0  0  0  2  0  0  0  0  0  0
  161.2510  213.7970  145.9320 C   0  0  0  0  0  0  0  0  0  0  0  0
  161.6360  213.9570  144.6920 C   0  0  0  0  0  3  0  0  0  0  0  0
  160.8650  213.6500  147.1750 C   0  0  0  0  0  0  0  0  0  0  0  0
  159.4420  213.2670  147.4370 C   0  0  1  0  0  3  0  0  0  0  0  0
  158.5950  214.3600  147.1890 O   0  0  0  0  0  0  0  0  0  0  0  0
  157.4050  213.7780  146.7550 C   0  0  2  0  0  3  0  0  0  0  0  0
  159.0830  212.1690  146.6330 O   0  0  0  0  0  0  0  0  0  0  0  0
  157.7310  212.3580  146.3850 C   0  0  0  0  0  2  0  0  0  0  0  0
  155.5420  214.3730  145.6960 C   0  0  0  0  0  1  0  0  0  0  0  0
  156.9350  214.4520  145.6170 O   0  0  0  0  0  0  0  0  0  0  0  0
  161.3620  213.3900  142.2880 O   0  0  0  0  0  0  0  0  0  0  0  0
  159.5720  213.3360  143.7190 O   0  0  0  0  0  1  0  0  0  0  0  0
  160.8020  213.5400  143.5560 C   0  0  0  0  0  0  0  0  0  0  0  0
  1 33  1  6  0  0  0
  1 11  1  0  0  0  0
  2  4  2  0  0  0  0
  2 10  1  0  0  0  0
  3 17  2  0  0  0  0
  3  5  1  0  0  0  0
  4 12  1  0  0  0  0
  6 13  1  0  0  0  0
  6 21  1  1  0  0  0
  7 13  1  0  0  0  0
  8  5  1  1  0  0  0
  8  6  1  0  0  0  0
  9 15  1  0  0  0  0
 10 16  2  0  0  0  0
 11  3  1  0  0  0  0
 12  1  1  0  0  0  0
 12  9  2  0  0  0  0
 14  7  1  0  0  0  0
 15 14  1  0  0  0  0
 15  8  1  0  0  0  0
 16  9  1  0  0  0  0
 18 19  1  0  0  0  0
 19 21  1  0  0  0  0
 19 20  2  0  0  0  0
 22 18  1  0  0  0  0
 23 22  1  0  0  0  0
 24 30  1  6  0  0  0
 24 26  1  0  0  0  0
 24 28  1  0  0  0  0
 25 27  1  0  0  0  0
 25 23  1  1  0  0  0
 26 29  1  0  0  0  0
 28 25  1  0  0  0  0
 29 27  1  0  0  0  0
 31 33  2  0  0  0  0
 33 32  1  0  0  0  0
 34  2  1  0  0  0  0
 35 37  2  0  0  0  0
 36 35  2  0  0  0  0
 37 34  1  0  0  0  0
 38 37  1  6  0  0  0
 39 38  1  0  0  0  0
 40 44  1  6  0  0  0
 40 39  1  0  0  0  0
 41 38  1  0  0  0  0
 42 41  1  0  0  0  0
 42 40  1  0  0  0  0
 44 43  1  0  0  0  0
 45 47  2  0  0  0  0
 47 46  1  0  0  0  0
 47 36  1  0  0  0  0
M  END
>  <MODEL>
2

>  <REMARK>
 VINA RESULT:      -6.2      3.925      8.429
  Name = 
  10 active torsions:
  status: ('A' for Active; 'I' for Inactive)
    1  A    between atoms: C_2  and  C_46
    2  A    between atoms: CA_3  and  C_47
    3  A    between atoms: C_4  and  C_44
    4  A    between atoms: N_11  and  C_34
    5  A    between atoms: O_15  and  C_29
    6  A    between atoms: C_18  and  N_32
    7  A    between atoms: C_21  and  C_28
    8  A    between atoms: C_22  and  C_35
    9  A    between atoms: C_28  and  C_44
   10  A    between atoms: C_34  and  C_46
                            x       y       z     vdW  Elec       q    Type
                         _______ _______ _______ _____ _____    ______ ____

>  <TORSDO>
F 10

$$$$
=
 OpenBabel11042421433D

 47 51  0  0  1  0  0  0  0  0999 V2000
  161.2660  210.0210  152.3080 C   0  0  1  0  0  3  0  0  0  0  0  0
  160.2690  213.4340  150.9270 C   0  0  0  0  0  0  0  0  0  0  0  0
  162.6950  210.5930  154.3450 C   0  0  0  0  0  0  0  0  0  0  0  0
  160.8870  212.1890  151.0780 C   0  0  0  0  0  3  0  0  0  0  0  0
  161.5980  210.5220  155.3740 C   0  0  0  0  0  2  0  0  0  0  0  0
  159.4860  209.3880  156.1210 C   0  0  2  0  0  3  0  0  0  0  0  0
  158.6930  211.7650  156.3880 C   0  0  0  0  0  2  0  0  0  0  0  0
  160.2360  209.9850  154.9090 C   0  0  1  0  0  3  0  0  0  0  0  0
  159.7370  211.8520  153.1960 C   0  0  0  0  0  0  0  0  0  0  0  0
  159.3470  213.8620  151.8780 C   0  0  0  0  0  3  0  0  0  0  0  0
  162.5450  210.1570  152.9880 N   0  0  0  0  0  2  0  0  0  0  0  0
  160.6010  211.3660  152.1840 C   0  0  0  0  0  0  0  0  0  0  0  0
  159.0380  210.4620  157.1260 C   0  0  0  0  0  2  0  0  0  0  0  0
  158.2800  211.4580  155.0780 O   0  0  0  0  0  0  0  0  0  0  0  0
  159.4200  211.1070  154.3960 N   0  0  0  0  0  0  0  0  0  0  0  0
  159.0930  213.0820  153.0040 C   0  0  0  0  0  3  0  0  0  0  0  0
  163.8080  211.0630  154.7020 O   0  0  0  0  0  0  0  0  0  0  0  0
  160.9380  207.1400  154.6320 N   0  0  0  0  0  2  0  0  0  0  0  0
  160.6570  207.0840  156.0370 C   0  0  0  0  0  0  0  0  0  0  0  0
  160.8970  206.0300  156.6910 O   0  0  0  0  0  0  0  0  0  0  0  0
  160.1460  208.2270  156.7310 N   0  0  0  0  0  2  0  0  0  0  0  0
  161.4600  205.9920  153.9070 C   0  0  0  0  0  2  0  0  0  0  0  0
  160.7800  205.8690  152.5510 C   0  0  0  0  0  2  0  0  0  0  0  0
  161.4260  203.6120  149.5020 C   0  0  2  0  0  3  0  0  0  0  0  0
  161.3310  204.6750  151.7910 C   0  0  1  0  0  3  0  0  0  0  0  0
  160.8120  202.3300  150.0690 C   0  0  0  0  0  2  0  0  0  0  0  0
  160.7070  203.3870  152.3480 C   0  0  0  0  0  2  0  0  0  0  0  0
  160.9720  204.8350  150.3070 C   0  0  0  0  0  2  0  0  0  0  0  0
  161.1780  202.1710  151.5470 C   0  0  0  0  0  2  0  0  0  0  0  0
  161.0200  203.7700  148.1780 O   0  0  0  0  0  1  0  0  0  0  0  0
  162.1400  209.9310  149.9700 O   0  0  0  0  0  0  0  0  0  0  0  0
  160.9710  208.1570  150.8220 O   0  0  0  0  0  1  0  0  0  0  0  0
  161.4410  209.3130  150.9960 C   0  0  0  0  0  0  0  0  0  0  0  0
  160.5280  214.2730  149.7180 C   0  0  0  0  0  2  0  0  0  0  0  0
  158.3540  213.8240  148.7010 C   0  0  0  0  0  0  0  0  0  0  0  0
  157.0590  213.7270  148.8540 C   0  0  0  0  0  3  0  0  0  0  0  0
  159.6530  213.9090  148.5490 C   0  0  0  0  0  0  0  0  0  0  0  0
  160.2020  214.0110  147.1610 C   0  0  1  0  0  3  0  0  0  0  0  0
  161.5960  214.1840  147.2060 O   0  0  0  0  0  0  0  0  0  0  0  0
  162.0530  213.5640  146.0430 C   0  0  2  0  0  3  0  0  0  0  0  0
  159.8680  212.8590  146.4260 O   0  0  0  0  0  0  0  0  0  0  0  0
  160.9300  212.6980  145.5470 C   0  0  0  0  0  2  0  0  0  0  0  0
  163.2200  212.7200  147.7380 C   0  0  0  0  0  1  0  0  0  0  0  0
  163.1610  212.7550  146.3420 O   0  0  0  0  0  0  0  0  0  0  0  0
  154.8390  214.4410  147.9950 O   0  0  0  0  0  1  0  0  0  0  0  0
  156.4700  213.7030  146.5620 O   0  0  0  0  0  0  0  0  0  0  0  0
  156.1230  213.9590  147.7440 C   0  0  0  0  0  0  0  0  0  0  0  0
  1 33  1  6  0  0  0
  1 11  1  0  0  0  0
  2  4  2  0  0  0  0
  2 10  1  0  0  0  0
  3 17  2  0  0  0  0
  3  5  1  0  0  0  0
  4 12  1  0  0  0  0
  6 21  1  1  0  0  0
  6 13  1  0  0  0  0
  7 13  1  0  0  0  0
  8  5  1  1  0  0  0
  8  6  1  0  0  0  0
  9 15  1  0  0  0  0
 10 16  2  0  0  0  0
 11  3  1  0  0  0  0
 12  1  1  0  0  0  0
 12  9  2  0  0  0  0
 14  7  1  0  0  0  0
 15  8  1  0  0  0  0
 15 14  1  0  0  0  0
 16  9  1  0  0  0  0
 18 19  1  0  0  0  0
 19 20  2  0  0  0  0
 19 21  1  0  0  0  0
 22 18  1  0  0  0  0
 23 22  1  0  0  0  0
 24 30  1  6  0  0  0
 24 26  1  0  0  0  0
 24 28  1  0  0  0  0
 25 27  1  0  0  0  0
 25 23  1  1  0  0  0
 26 29  1  0  0  0  0
 28 25  1  0  0  0  0
 29 27  1  0  0  0  0
 31 33  2  0  0  0  0
 32 33  1  0  0  0  0
 34  2  1  0  0  0  0
 35 36  2  0  0  0  0
 37 35  2  0  0  0  0
 37 34  1  0  0  0  0
 38 39  1  0  0  0  0
 38 37  1  1  0  0  0
 40 44  1  1  0  0  0
 40 39  1  0  0  0  0
 41 38  1  0  0  0  0
 42 40  1  0  0  0  0
 42 41  1  0  0  0  0
 44 43  1  0  0  0  0
 46 47  2  0  0  0  0
 47 45  1  0  0  0  0
 47 36  1  0  0  0  0
M  END
>  <MODEL>
3

>  <REMARK>
 VINA RESULT:      -6.0      3.312      8.357
  Name = 
  10 active torsions:
  status: ('A' for Active; 'I' for Inactive)
    1  A    between atoms: C_2  and  C_46
    2  A    between atoms: CA_3  and  C_47
    3  A    between atoms: C_4  and  C_44
    4  A    between atoms: N_11  and  C_34
    5  A    between atoms: O_15  and  C_29
    6  A    between atoms: C_18  and  N_32
    7  A    between atoms: C_21  and  C_28
    8  A    between atoms: C_22  and  C_35
    9  A    between atoms: C_28  and  C_44
   10  A    between atoms: C_34  and  C_46
                            x       y       z     vdW  Elec       q    Type
                         _______ _______ _______ _____ _____    ______ ____

>  <TORSDO>
F 10

$$$$
=
 OpenBabel11042421433D

 47 51  0  0  1  0  0  0  0  0999 V2000
  161.2950  209.9590  152.3450 C   0  0  1  0  0  3  0  0  0  0  0  0
  160.8590  206.6870  150.4320 C   0  0  0  0  0  0  0  0  0  0  0  0
  159.0330  210.2930  153.4820 C   0  0  0  0  0  0  0  0  0  0  0  0
  160.9980  208.0460  150.7280 C   0  0  0  0  0  3  0  0  0  0  0  0
  159.3850  209.6510  154.7990 C   0  0  0  0  0  2  0  0  0  0  0  0
  161.1520  209.2530  156.5390 C   0  0  2  0  0  3  0  0  0  0  0  0
  160.3540  206.8720  156.3320 C   0  0  0  0  0  2  0  0  0  0  0  0
  160.8570  209.2740  155.0220 C   0  0  1  0  0  3  0  0  0  0  0  0
  161.0250  207.5460  153.1100 C   0  0  0  0  0  0  0  0  0  0  0  0
  160.8590  205.7560  151.4660 C   0  0  0  0  0  3  0  0  0  0  0  0
  159.9920  210.5980  152.4620 N   0  0  0  0  0  2  0  0  0  0  0  0
  161.1250  208.4900  152.0590 C   0  0  0  0  0  0  0  0  0  0  0  0
  160.4490  208.0920  157.2610 C   0  0  0  0  0  2  0  0  0  0  0  0
  161.4130  206.9130  155.4060 O   0  0  0  0  0  0  0  0  0  0  0  0
  161.0920  207.9050  154.5110 N   0  0  0  0  0  0  0  0  0  0  0  0
  160.9330  206.1840  152.7900 C   0  0  0  0  0  3  0  0  0  0  0  0
  157.8250  210.5780  153.2710 O   0  0  0  0  0  0  0  0  0  0  0  0
  160.3050  211.8790  155.2090 N   0  0  0  0  0  2  0  0  0  0  0  0
  160.7950  211.8140  156.5550 C   0  0  0  0  0  0  0  0  0  0  0  0
  161.0130  212.8760  157.2030 O   0  0  0  0  0  0  0  0  0  0  0  0
  161.0050  210.5550  157.2020 N   0  0  0  0  0  2  0  0  0  0  0  0
  160.0830  213.1470  154.5320 C   0  0  0  0  0  2  0  0  0  0  0  0
  158.6160  213.5420  154.6170 C   0  0  0  0  0  2  0  0  0  0  0  0
  156.2230  214.4510  151.7440 C   0  0  2  0  0  3  0  0  0  0  0  0
  158.1750  214.2140  153.3290 C   0  0  1  0  0  3  0  0  0  0  0  0
  157.0930  213.9470  150.5920 C   0  0  0  0  0  2  0  0  0  0  0  0
  159.0370  213.7000  152.1660 C   0  0  0  0  0  2  0  0  0  0  0  0
  156.6990  213.8710  153.0810 C   0  0  0  0  0  2  0  0  0  0  0  0
  158.5630  214.2960  150.8390 C   0  0  0  0  0  2  0  0  0  0  0  0
  154.9030  214.0590  151.5300 O   0  0  0  0  0  1  0  0  0  0  0  0
  161.5370  211.3310  150.2720 O   0  0  0  0  0  0  0  0  0  0  0  0
  163.3960  210.6980  151.4480 O   0  0  0  0  0  1  0  0  0  0  0  0
  162.1420  210.6750  151.3330 C   0  0  0  0  0  0  0  0  0  0  0  0
  160.7890  206.2180  149.0150 C   0  0  0  0  0  2  0  0  0  0  0  0
  160.9150  203.8290  149.5030 C   0  0  0  0  0  0  0  0  0  0  0  0
  160.4640  202.8150  150.1950 C   0  0  0  0  0  3  0  0  0  0  0  0
  161.3760  204.8460  148.8190 C   0  0  0  0  0  0  0  0  0  0  0  0
  162.2050  204.5700  147.6050 C   0  0  1  0  0  3  0  0  0  0  0  0
  161.4900  203.7610  146.7060 O   0  0  0  0  0  0  0  0  0  0  0  0
  161.9560  204.1520  145.4510 C   0  0  2  0  0  3  0  0  0  0  0  0
  162.5810  205.7800  146.9930 O   0  0  0  0  0  0  0  0  0  0  0  0
  162.6550  205.4680  145.6430 C   0  0  0  0  0  2  0  0  0  0  0  0
  161.1900  205.4690  143.8310 C   0  0  0  0  0  1  0  0  0  0  0  0
  160.8720  204.3310  144.5780 O   0  0  0  0  0  0  0  0  0  0  0  0
  161.1620  200.4420  150.4420 O   0  0  0  0  0  1  0  0  0  0  0  0
  160.0420  201.1480  148.5700 O   0  0  0  0  0  0  0  0  0  0  0  0
  160.5330  201.4350  149.6920 C   0  0  0  0  0  0  0  0  0  0  0  0
  1 33  1  6  0  0  0
  1 11  1  0  0  0  0
  2  4  2  0  0  0  0
  2 10  1  0  0  0  0
  3  5  1  0  0  0  0
  4 12  1  0  0  0  0
  6 21  1  1  0  0  0
  6 13  1  0  0  0  0
  7 13  1  0  0  0  0
  8  5  1  1  0  0  0
  8  6  1  0  0  0  0
  9 15  1  0  0  0  0
 10 16  2  0  0  0  0
 11  3  1  0  0  0  0
 12  1  1  0  0  0  0
 12  9  2  0  0  0  0
 14  7  1  0  0  0  0
 15  8  1  0  0  0  0
 15 14  1  0  0  0  0
 16  9  1  0  0  0  0
 17  3  2  0  0  0  0
 18 19  1  0  0  0  0
 19 21  1  0  0  0  0
 19 20  2  0  0  0  0
 22 23  1  0  0  0  0
 22 18  1  0  0  0  0
 24 30  1  6  0  0  0
 24 28  1  0  0  0  0
 25 23  1  1  0  0  0
 26 29  1  0  0  0  0
 26 24  1  0  0  0  0
 27 25  1  0  0  0  0
 28 25  1  0  0  0  0
 29 27  1  0  0  0  0
 31 33  2  0  0  0  0
 33 32  1  0  0  0  0
 34  2  1  0  0  0  0
 35 36  2  0  0  0  0
 37 34  1  0  0  0  0
 37 35  2  0  0  0  0
 38 37  1  1  0  0  0
 39 38  1  0  0  0  0
 40 44  1  6  0  0  0
 40 42  1  0  0  0  0
 40 39  1  0  0  0  0
 41 38  1  0  0  0  0
 42 41  1  0  0  0  0
 43 44  1  0  0  0  0
 46 47  2  0  0  0  0
 47 36  1  0  0  0  0
 47 45  1  0  0  0  0
M  END
>  <MODEL>
4

>  <REMARK>
 VINA RESULT:      -4.9      1.528      2.072
  Name = 
  10 active torsions:
  status: ('A' for Active; 'I' for Inactive)
    1  A    between atoms: C_2  and  C_46
    2  A    between atoms: CA_3  and  C_47
    3  A    between atoms: C_4  and  C_44
    4  A    between atoms: N_11  and  C_34
    5  A    between atoms: O_15  and  C_29
    6  A    between atoms: C_18  and  N_32
    7  A    between atoms: C_21  and  C_28
    8  A    between atoms: C_22  and  C_35
    9  A    between atoms: C_28  and  C_44
   10  A    between atoms: C_34  and  C_46
                            x       y       z     vdW  Elec       q    Type
                         _______ _______ _______ _____ _____    ______ ____

>  <TORSDO>
F 10

$$$$
=
 OpenBabel11042421433D

 47 51  0  0  1  0  0  0  0  0999 V2000
  161.2620  210.0070  151.9010 C   0  0  1  0  0  3  0  0  0  0  0  0
  159.9350  213.4500  150.9330 C   0  0  0  0  0  0  0  0  0  0  0  0
  162.6430  210.4660  153.9990 C   0  0  0  0  0  0  0  0  0  0  0  0
  160.6700  212.2600  150.9370 C   0  0  0  0  0  3  0  0  0  0  0  0
  161.5640  210.1680  155.0070 C   0  0  0  0  0  2  0  0  0  0  0  0
  159.5750  208.7570  155.6020 C   0  0  2  0  0  3  0  0  0  0  0  0
  158.5610  210.9980  156.1480 C   0  0  0  0  0  2  0  0  0  0  0  0
  160.2570  209.5630  154.4750 C   0  0  1  0  0  3  0  0  0  0  0  0
  159.5720  211.5650  152.9950 C   0  0  0  0  0  0  0  0  0  0  0  0
  158.9830  213.6720  151.9230 C   0  0  0  0  0  3  0  0  0  0  0  0
  162.5270  210.1830  152.5990 N   0  0  0  0  0  2  0  0  0  0  0  0
  160.4710  211.2880  151.9360 C   0  0  0  0  0  0  0  0  0  0  0  0
  159.0330  209.6560  156.7260 C   0  0  0  0  0  2  0  0  0  0  0  0
  158.1700  210.8120  154.8090 O   0  0  0  0  0  0  0  0  0  0  0  0
  159.3340  210.6550  154.0950 N   0  0  0  0  0  0  0  0  0  0  0  0
  158.8120  212.7420  152.9470 C   0  0  0  0  0  3  0  0  0  0  0  0
  163.7090  210.9930  154.4160 O   0  0  0  0  0  0  0  0  0  0  0  0
  161.0550  206.7310  153.8460 N   0  0  0  0  0  2  0  0  0  0  0  0
  160.8770  206.5500  155.2570 C   0  0  0  0  0  0  0  0  0  0  0  0
  161.2270  205.4680  155.8070 O   0  0  0  0  0  0  0  0  0  0  0  0
  160.3460  207.6000  156.0730 N   0  0  0  0  0  2  0  0  0  0  0  0
  161.5950  205.6800  152.9980 C   0  0  0  0  0  2  0  0  0  0  0  0
  160.7870  205.5680  151.7150 C   0  0  0  0  0  2  0  0  0  0  0  0
  161.4880  203.5850  148.4920 C   0  0  2  0  0  3  0  0  0  0  0  0
  161.2930  204.4120  150.8700 C   0  0  1  0  0  3  0  0  0  0  0  0
  160.7190  202.3170  148.8670 C   0  0  0  0  0  2  0  0  0  0  0  0
  160.5150  203.1380  151.2340 C   0  0  0  0  0  2  0  0  0  0  0  0
  161.0750  204.7570  149.3910 C   0  0  0  0  0  2  0  0  0  0  0  0
  160.9430  201.9720  150.3420 C   0  0  0  0  0  2  0  0  0  0  0  0
  161.2100  203.9170  147.1670 O   0  0  0  0  0  1  0  0  0  0  0  0
  161.9490  210.3370  149.5230 O   0  0  0  0  0  0  0  0  0  0  0  0
  161.2970  208.2660  150.2470 O   0  0  0  0  0  1  0  0  0  0  0  0
  161.4950  209.4810  150.5150 C   0  0  0  0  0  0  0  0  0  0  0  0
  160.1060  214.4480  149.8350 C   0  0  0  0  0  2  0  0  0  0  0  0
  161.8680  213.7100  148.3130 C   0  0  0  0  0  0  0  0  0  0  0  0
  163.1480  213.6000  148.0730 C   0  0  0  0  0  3  0  0  0  0  0  0
  160.5850  213.8330  148.5470 C   0  0  0  0  0  0  0  0  0  0  0  0
  159.6310  213.0340  147.7170 C   0  0  1  0  0  3  0  0  0  0  0  0
  158.8970  213.8840  146.8720 O   0  0  0  0  0  0  0  0  0  0  0  0
  158.6430  213.1070  145.7430 C   0  0  2  0  0  3  0  0  0  0  0  0
  160.3340  212.0740  146.9650 O   0  0  0  0  0  0  0  0  0  0  0  0
  159.5860  211.9380  145.8040 C   0  0  0  0  0  2  0  0  0  0  0  0
  158.9780  212.9110  143.5530 C   0  0  0  0  0  1  0  0  0  0  0  0
  158.9110  213.8520  144.5840 O   0  0  0  0  0  0  0  0  0  0  0  0
  163.4160  212.5600  145.8310 O   0  0  0  0  0  0  0  0  0  0  0  0
  164.3890  211.6230  147.6840 O   0  0  0  0  0  1  0  0  0  0  0  0
  163.6900  212.5500  147.1980 C   0  0  0  0  0  0  0  0  0  0  0  0
  1 33  1  6  0  0  0
  1 12  1  0  0  0  0
  1 11  1  0  0  0  0
  2  4  2  0  0  0  0
  2 10  1  0  0  0  0
  3 17  2  0  0  0  0
  3  5  1  0  0  0  0
  4 12  1  0  0  0  0
  6 21  1  1  0  0  0
  6 13  1  0  0  0  0
  7 13  1  0  0  0  0
  8  5  1  1  0  0  0
  8  6  1  0  0  0  0
  9 15  1  0  0  0  0
 10 16  2  0  0  0  0
 11  3  1  0  0  0  0
 12  9  2  0  0  0  0
 14  7  1  0  0  0  0
 15  8  1  0  0  0  0
 15 14  1  0  0  0  0
 16  9  1  0  0  0  0
 18 19  1  0  0  0  0
 19 20  2  0  0  0  0
 19 21  1  0  0  0  0
 22 18  1  0  0  0  0
 23 22  1  0  0  0  0
 24 30  1  6  0  0  0
 24 26  1  0  0  0  0
 24 28  1  0  0  0  0
 25 27  1  0  0  0  0
 25 23  1  1  0  0  0
 26 29  1  0  0  0  0
 28 25  1  0  0  0  0
 29 27  1  0  0  0  0
 31 33  2  0  0  0  0
 32 33  1  0  0  0  0
 34  2  1  0  0  0  0
 35 37  2  0  0  0  0
 36 35  2  0  0  0  0
 37 34  1  0  0  0  0
 38 37  1  6  0  0  0
 39 38  1  0  0  0  0
 40 44  1  6  0  0  0
 40 42  1  0  0  0  0
 40 39  1  0  0  0  0
 41 38  1  0  0  0  0
 42 41  1  0  0  0  0
 43 44  1  0  0  0  0
 45 47  2  0  0  0  0
 47 46  1  0  0  0  0
 47 36  1  0  0  0  0
M  END
>  <MODEL>
5

>  <REMARK>
 VINA RESULT:      -4.3      3.221      8.219
  Name = 
  10 active torsions:
  status: ('A' for Active; 'I' for Inactive)
    1  A    between atoms: C_2  and  C_46
    2  A    between atoms: CA_3  and  C_47
    3  A    between atoms: C_4  and  C_44
    4  A    between atoms: N_11  and  C_34
    5  A    between atoms: O_15  and  C_29
    6  A    between atoms: C_18  and  N_32
    7  A    between atoms: C_21  and  C_28
    8  A    between atoms: C_22  and  C_35
    9  A    between atoms: C_28  and  C_44
   10  A    between atoms: C_34  and  C_46
                            x       y       z     vdW  Elec       q    Type
                         _______ _______ _______ _____ _____    ______ ____

>  <TORSDO>
F 10

$$$$
