=
 OpenBabel11042422263D

 34 39  0  0  1  0  0  0  0  0999 V2000
  161.4910  211.1680  149.8210 C   0  0  0  0  0  0  0  0  0  0  0  0
  162.4340  210.4000  155.0690 C   0  0  0  0  0  2  0  0  0  0  0  0
  159.9680  212.1030  151.6270 N   0  0  0  0  0  2  0  0  0  0  0  0
  160.7560  212.2890  150.4430 C   0  0  0  0  0  0  0  0  0  0  0  0
  161.5820  213.7800  148.6330 C   0  0  0  0  0  2  0  0  0  0  0  0
  162.3750  211.4010  148.8510 C   0  0  0  0  0  3  0  0  0  0  0  0
  159.4010  211.3600  155.1640 C   0  0  0  0  0  0  0  0  0  0  0  0
  159.2360  211.0560  153.7090 C   0  0  2  0  0  3  0  0  0  0  0  0
  160.2210  211.1560  152.6420 N   0  0  2  0  0  0  0  0  0  0  0  0
  161.3340  209.9130  155.9270 C   0  0  0  0  0  2  0  0  0  0  0  0
  160.2480  210.8860  156.0420 N   0  0  0  0  0  0  0  0  0  0  0  0
  160.8150  213.5090  149.8990 C   0  0  0  0  0  3  0  0  0  0  0  0
  161.4960  210.4980  152.6950 C   0  0  2  0  0  3  0  0  0  0  0  0
  158.1800  211.9090  155.6360 N   0  0  0  0  0  0  0  0  0  0  0  0
  162.5740  212.7360  148.3730 N   0  0  0  0  0  0  0  0  0  0  0  0
  161.2540  209.7740  150.2820 C   0  0  0  0  0  2  0  0  0  0  0  0
  163.6110  212.9830  147.3890 C   0  0  0  0  0  1  0  0  0  0  0  0
  161.9200  209.5190  151.6270 C   0  0  2  0  0  3  0  0  0  0  0  0
  157.3420  211.8810  154.6560 C   0  0  0  0  0  3  0  0  0  0  0  0
  162.0960  210.4630  153.8350 C   0  0  0  0  0  2  0  0  0  0  0  0
  157.9730  211.3780  153.4390 C   0  0  0  0  0  2  0  0  0  0  0  0
  160.9530  206.9480  151.0450 S   0  0  0  0  0  0  0  0  0  0  0  0
  161.6530  208.1060  152.0410 C   0  0  0  0  0  0  0  0  0  0  0  0
  161.9140  207.6170  153.2750 N   0  0  0  0  0  0  0  0  0  0  0  0
  161.5550  206.3100  153.3940 C   0  0  0  0  0  3  0  0  0  0  0  0
  160.9940  205.7690  152.2410 C   0  0  0  0  0  0  0  0  0  0  0  0
  160.8720  202.7240  150.1460 N   0  0  0  0  0  0  0  0  0  0  0  0
  160.5170  204.3650  152.0640 C   0  0  1  0  0  3  0  0  0  0  0  0
  159.8330  204.1250  150.4000 S   0  0  0  0  0  0  0  0  0  0  0  0
  161.6030  203.4220  152.2860 N   0  0  0  0  0  2  0  0  0  0  0  0
  162.0350  202.9520  150.9810 C   0  0  0  0  0  2  0  0  0  0  0  0
  161.3320  202.7730  148.7660 C   0  0  0  0  0  2  0  0  0  0  0  0
  162.1180  204.2940  147.0370 N   0  0  0  0  0  1  0  0  0  0  0  0
  161.3530  204.2080  148.2670 C   0  0  0  0  0  2  0  0  0  0  0  0
  1 16  1  0  0  0  0
  1  4  1  0  0  0  0
  2 10  1  0  0  0  0
  4  3  1  0  0  0  0
  5 12  1  0  0  0  0
  6  1  2  0  0  0  0
  7 14  1  0  0  0  0
  7 11  2  0  0  0  0
  8 21  1  6  0  0  0
  8  7  1  0  0  0  0
  9  3  1  1  0  0  0
  9 13  1  0  0  0  0
  9  8  1  0  0  0  0
 10 11  1  0  0  0  0
 12  4  2  0  0  0  0
 13 20  1  1  0  0  0
 15  5  1  0  0  0  0
 15  6  1  0  0  0  0
 16 18  1  0  0  0  0
 17 15  1  0  0  0  0
 18 23  1  1  0  0  0
 18 13  1  0  0  0  0
 19 14  2  0  0  0  0
 20  2  1  0  0  0  0
 21 19  1  0  0  0  0
 22 23  1  0  0  0  0
 22 26  1  0  0  0  0
 23 24  2  0  0  0  0
 24 25  1  0  0  0  0
 26 25  2  0  0  0  0
 27 29  1  0  0  0  0
 27 31  1  0  0  0  0
 28 26  1  6  0  0  0
 28 30  1  0  0  0  0
 29 28  1  0  0  0  0
 31 30  1  0  0  0  0
 32 27  1  0  0  0  0
 33 34  1  0  0  0  0
 34 32  1  0  0  0  0
M  END
>  <MODEL>
1

>  <REMARK>
 VINA RESULT:      -3.9      0.000      0.000
  Name = 
  4 active torsions:
  status: ('A' for Active; 'I' for Inactive)
    1  A    between atoms: N_3  and  C_30
    2  A    between atoms: C_8  and  C_27
    3  A    between atoms: C_14  and  C_31
    4  A    between atoms: C_15  and  C_30
                            x       y       z     vdW  Elec       q    Type
                         _______ _______ _______ _____ _____    ______ ____

>  <TORSDO>
F 4

$$$$
=
 OpenBabel11042422263D

 34 39  0  0  1  0  0  0  0  0999 V2000
  160.4640  211.8070  150.8900 C   0  0  0  0  0  0  0  0  0  0  0  0
  161.9830  210.9930  155.9950 C   0  0  0  0  0  2  0  0  0  0  0  0
  159.0170  212.4870  152.8650 N   0  0  0  0  0  2  0  0  0  0  0  0
  159.6610  212.8080  151.6250 C   0  0  0  0  0  0  0  0  0  0  0  0
  160.1270  214.4470  149.8150 C   0  0  0  0  0  2  0  0  0  0  0  0
  161.2180  212.1790  149.8570 C   0  0  0  0  0  3  0  0  0  0  0  0
  158.8790  211.5660  156.4020 C   0  0  0  0  0  0  0  0  0  0  0  0
  158.6160  211.2910  154.9560 C   0  0  2  0  0  3  0  0  0  0  0  0
  159.4770  211.5470  153.8110 N   0  0  2  0  0  0  0  0  0  0  0  0
  161.0360  210.3460  156.9250 C   0  0  0  0  0  2  0  0  0  0  0  0
  159.8560  211.1730  157.1800 N   0  0  0  0  0  0  0  0  0  0  0  0
  159.5210  214.0430  151.1310 C   0  0  0  0  0  3  0  0  0  0  0  0
  160.8210  211.0500  153.7210 C   0  0  2  0  0  3  0  0  0  0  0  0
  157.6510  211.9430  157.0050 N   0  0  0  0  0  0  0  0  0  0  0  0
  161.2090  213.5440  149.4210 N   0  0  0  0  0  0  0  0  0  0  0  0
  160.4410  210.3800  151.3090 C   0  0  0  0  0  2  0  0  0  0  0  0
  162.1110  213.9490  148.3600 C   0  0  0  0  0  1  0  0  0  0  0  0
  161.2570  210.1670  152.5770 C   0  0  2  0  0  3  0  0  0  0  0  0
  156.7340  211.8440  156.1040 C   0  0  0  0  0  3  0  0  0  0  0  0
  161.5260  211.0540  154.8000 C   0  0  0  0  0  2  0  0  0  0  0  0
  157.3030  211.4620  154.8150 C   0  0  0  0  0  2  0  0  0  0  0  0
  161.6340  207.4630  151.9220 S   0  0  0  0  0  0  0  0  0  0  0  0
  161.2030  208.7190  152.9510 C   0  0  0  0  0  0  0  0  0  0  0  0
  160.7670  208.2620  154.1480 N   0  0  0  0  0  0  0  0  0  0  0  0
  160.7980  206.9050  154.2200 C   0  0  0  0  0  3  0  0  0  0  0  0
  161.2550  206.2860  153.0590 C   0  0  0  0  0  0  0  0  0  0  0  0
  161.0510  203.4030  150.7520 N   0  0  0  0  0  0  0  0  0  0  0  0
  161.4100  204.8160  152.8430 C   0  0  1  0  0  3  0  0  0  0  0  0
  159.9830  204.1470  151.9420 S   0  0  0  0  0  0  0  0  0  0  0  0
  162.6320  204.5330  152.1030 N   0  0  0  0  0  2  0  0  0  0  0  0
  162.2430  204.2280  150.7370 C   0  0  0  0  0  2  0  0  0  0  0  0
  160.4190  203.5580  149.4500 C   0  0  0  0  0  2  0  0  0  0  0  0
  160.5870  201.3520  148.4350 N   0  0  0  0  0  1  0  0  0  0  0  0
  161.1260  202.7000  148.4140 C   0  0  0  0  0  2  0  0  0  0  0  0
  1 16  1  0  0  0  0
  1  4  1  0  0  0  0
  2 10  1  0  0  0  0
  4  3  1  0  0  0  0
  5 12  1  0  0  0  0
  6  1  2  0  0  0  0
  7 14  1  0  0  0  0
  7 11  2  0  0  0  0
  8 21  1  6  0  0  0
  8  7  1  0  0  0  0
  9  3  1  1  0  0  0
  9  8  1  0  0  0  0
 10 11  1  0  0  0  0
 12  4  2  0  0  0  0
 13  9  1  0  0  0  0
 13 20  1  1  0  0  0
 15  5  1  0  0  0  0
 15  6  1  0  0  0  0
 16 18  1  0  0  0  0
 17 15  1  0  0  0  0
 18 23  1  1  0  0  0
 18 13  1  0  0  0  0
 19 14  2  0  0  0  0
 20  2  1  0  0  0  0
 21 19  1  0  0  0  0
 22 23  1  0  0  0  0
 22 26  1  0  0  0  0
 23 24  2  0  0  0  0
 24 25  1  0  0  0  0
 26 25  2  0  0  0  0
 27 29  1  0  0  0  0
 28 26  1  6  0  0  0
 29 28  1  0  0  0  0
 30 28  1  0  0  0  0
 31 27  1  0  0  0  0
 31 30  1  0  0  0  0
 32 27  1  0  0  0  0
 34 33  1  0  0  0  0
 34 32  1  0  0  0  0
M  END
>  <MODEL>
2

>  <REMARK>
 VINA RESULT:      -3.5      1.402      1.578
  Name = 
  4 active torsions:
  status: ('A' for Active; 'I' for Inactive)
    1  A    between atoms: N_3  and  C_30
    2  A    between atoms: C_8  and  C_27
    3  A    between atoms: C_14  and  C_31
    4  A    between atoms: C_15  and  C_30
                            x       y       z     vdW  Elec       q    Type
                         _______ _______ _______ _____ _____    ______ ____

>  <TORSDO>
F 4

$$$$
=
 OpenBabel11042422263D

 34 39  0  0  1  0  0  0  0  0999 V2000
  160.3060  212.6570  145.0260 C   0  0  0  0  0  0  0  0  0  0  0  0
  161.2440  214.4530  150.0180 C   0  0  0  0  0  2  0  0  0  0  0  0
  158.4660  213.6100  146.4960 N   0  0  0  0  0  2  0  0  0  0  0  0
  159.1730  213.5810  145.2500 C   0  0  0  0  0  0  0  0  0  0  0  0
  159.4470  214.4120  142.9230 C   0  0  0  0  0  2  0  0  0  0  0  0
  161.0750  212.7880  143.9460 C   0  0  0  0  0  3  0  0  0  0  0  0
  158.0720  214.1910  150.0860 C   0  0  0  0  0  0  0  0  0  0  0  0
  158.0980  213.2940  148.8900 C   0  0  2  0  0  3  0  0  0  0  0  0
  159.0160  213.3120  147.7610 N   0  0  2  0  0  0  0  0  0  0  0  0
  160.3760  213.9840  151.1180 C   0  0  0  0  0  2  0  0  0  0  0  0
  158.9980  214.4530  150.9750 N   0  0  0  0  0  0  0  0  0  0  0  0
  158.7870  214.4110  144.2750 C   0  0  0  0  0  3  0  0  0  0  0  0
  160.4420  213.2440  147.9150 C   0  0  2  0  0  3  0  0  0  0  0  0
  156.7160  214.3970  150.4490 N   0  0  0  0  0  0  0  0  0  0  0  0
  160.7720  213.7920  142.9710 N   0  0  0  0  0  0  0  0  0  0  0  0
  160.5960  211.5820  146.0120 C   0  0  0  0  0  2  0  0  0  0  0  0
  161.6780  213.9850  141.8550 C   0  0  0  0  0  1  0  0  0  0  0  0
  161.2510  212.1480  147.2640 C   0  0  2  0  0  3  0  0  0  0  0  0
  155.9940  213.6760  149.6590 C   0  0  0  0  0  3  0  0  0  0  0  0
  160.9610  213.8890  148.9020 C   0  0  0  0  0  2  0  0  0  0  0  0
  156.8200  212.9970  148.6660 C   0  0  0  0  0  2  0  0  0  0  0  0
  161.8630  211.2420  149.8500 S   0  0  0  0  0  0  0  0  0  0  0  0
  161.5240  211.0290  148.2180 C   0  0  0  0  0  0  0  0  0  0  0  0
  161.5630  209.7240  147.8630 N   0  0  0  0  0  0  0  0  0  0  0  0
  161.8550  208.9150  148.9160 C   0  0  0  0  0  3  0  0  0  0  0  0
  162.0590  209.5940  150.1140 C   0  0  0  0  0  0  0  0  0  0  0  0
  161.2100  209.1940  153.6920 N   0  0  0  0  0  0  0  0  0  0  0  0
  162.3810  208.9800  151.4360 C   0  0  1  0  0  3  0  0  0  0  0  0
  162.2970  210.2220  152.7580 S   0  0  0  0  0  0  0  0  0  0  0  0
  161.4630  207.8890  151.7320 N   0  0  0  0  0  2  0  0  0  0  0  0
  160.5110  208.3860  152.7120 C   0  0  0  0  0  2  0  0  0  0  0  0
  160.2160  210.0630  154.3030 C   0  0  0  0  0  2  0  0  0  0  0  0
  158.6280  211.3760  153.0080 N   0  0  0  0  0  1  0  0  0  0  0  0
  160.0070  211.3060  153.4550 C   0  0  0  0  0  2  0  0  0  0  0  0
  1  4  1  0  0  0  0
  1 16  1  0  0  0  0
  2 10  1  0  0  0  0
  4  3  1  0  0  0  0
  5 15  1  0  0  0  0
  5 12  1  0  0  0  0
  6  1  2  0  0  0  0
  7 14  1  0  0  0  0
  7 11  2  0  0  0  0
  8 21  1  6  0  0  0
  8  7  1  0  0  0  0
  9  3  1  1  0  0  0
  9 13  1  0  0  0  0
  9  8  1  0  0  0  0
 11 10  1  0  0  0  0
 12  4  2  0  0  0  0
 13 20  1  1  0  0  0
 15  6  1  0  0  0  0
 16 18  1  0  0  0  0
 17 15  1  0  0  0  0
 18 13  1  0  0  0  0
 18 23  1  1  0  0  0
 19 14  2  0  0  0  0
 20  2  1  0  0  0  0
 21 19  1  0  0  0  0
 22 26  1  0  0  0  0
 23 22  1  0  0  0  0
 24 23  2  0  0  0  0
 24 25  1  0  0  0  0
 25 26  2  0  0  0  0
 27 32  1  0  0  0  0
 28 26  1  6  0  0  0
 28 30  1  0  0  0  0
 28 29  1  0  0  0  0
 29 27  1  0  0  0  0
 30 31  1  0  0  0  0
 31 27  1  0  0  0  0
 33 34  1  0  0  0  0
 34 32  1  0  0  0  0
M  END
>  <MODEL>
3

>  <REMARK>
 VINA RESULT:      -3.4      3.378      6.083
  Name = 
  4 active torsions:
  status: ('A' for Active; 'I' for Inactive)
    1  A    between atoms: N_3  and  C_30
    2  A    between atoms: C_8  and  C_27
    3  A    between atoms: C_14  and  C_31
    4  A    between atoms: C_15  and  C_30
                            x       y       z     vdW  Elec       q    Type
                         _______ _______ _______ _____ _____    ______ ____

>  <TORSDO>
F 4

$$$$
=
 OpenBabel11042422263D

 34 39  0  0  1  0  0  0  0  0999 V2000
  161.5990  206.9990  151.6970 C   0  0  0  0  0  0  0  0  0  0  0  0
  158.6550  211.3840  152.7590 C   0  0  0  0  0  2  0  0  0  0  0  0
  161.6840  208.1830  153.9440 N   0  0  0  0  0  2  0  0  0  0  0  0
  161.5270  206.9840  153.1740 C   0  0  0  0  0  0  0  0  0  0  0  0
  161.1820  204.5230  153.0880 C   0  0  0  0  0  2  0  0  0  0  0  0
  161.2480  205.9220  150.9970 C   0  0  0  0  0  3  0  0  0  0  0  0
  160.7590  211.5130  155.1430 C   0  0  0  0  0  0  0  0  0  0  0  0
  161.6740  210.5790  154.4160 C   0  0  2  0  0  3  0  0  0  0  0  0
  161.3300  209.4820  153.5240 N   0  0  2  0  0  0  0  0  0  0  0  0
  159.3210  212.5650  153.3440 C   0  0  0  0  0  2  0  0  0  0  0  0
  159.8220  212.3090  154.6940 N   0  0  0  0  0  0  0  0  0  0  0  0
  161.3130  205.8320  153.8190 C   0  0  0  0  0  3  0  0  0  0  0  0
  160.4900  209.6500  152.3710 C   0  0  2  0  0  3  0  0  0  0  0  0
  161.3490  211.8110  156.3990 N   0  0  0  0  0  0  0  0  0  0  0  0
  160.8500  204.7260  151.6770 N   0  0  0  0  0  0  0  0  0  0  0  0
  162.0570  208.2230  150.9860 C   0  0  0  0  0  2  0  0  0  0  0  0
  160.3760  203.5980  150.8990 C   0  0  0  0  0  1  0  0  0  0  0  0
  160.9750  209.2950  150.9870 C   0  0  2  0  0  3  0  0  0  0  0  0
  162.4980  211.2260  156.4320 C   0  0  0  0  0  3  0  0  0  0  0  0
  159.4820  210.4450  152.4850 C   0  0  0  0  0  2  0  0  0  0  0  0
  162.7200  210.4350  155.2260 C   0  0  0  0  0  2  0  0  0  0  0  0
  160.5090  211.7590  149.7240 S   0  0  0  0  0  0  0  0  0  0  0  0
  161.4840  210.4990  150.2590 C   0  0  0  0  0  0  0  0  0  0  0  0
  162.7800  210.6870  149.9210 N   0  0  0  0  0  0  0  0  0  0  0  0
  162.9690  211.8520  149.2450 C   0  0  0  0  0  3  0  0  0  0  0  0
  161.8030  212.5840  149.0390 C   0  0  0  0  0  0  0  0  0  0  0  0
  161.1200  214.4520  145.9210 N   0  0  0  0  0  0  0  0  0  0  0  0
  161.6960  213.9010  148.3430 C   0  0  1  0  0  3  0  0  0  0  0  0
  162.5590  213.8530  146.7460 S   0  0  0  0  0  0  0  0  0  0  0  0
  160.3010  214.2590  148.1330 N   0  0  0  0  0  2  0  0  0  0  0  0
  160.0020  214.0130  146.7330 C   0  0  0  0  0  2  0  0  0  0  0  0
  161.0220  213.7410  144.6550 C   0  0  0  0  0  2  0  0  0  0  0  0
  159.3320  212.6290  143.3030 N   0  0  0  0  0  1  0  0  0  0  0  0
  159.8130  212.8200  144.6590 C   0  0  0  0  0  2  0  0  0  0  0  0
  1  4  1  0  0  0  0
  2 10  1  0  0  0  0
  4 12  2  0  0  0  0
  4  3  1  0  0  0  0
  5 12  1  0  0  0  0
  6 15  1  0  0  0  0
  6  1  2  0  0  0  0
  7 14  1  0  0  0  0
  8  7  1  0  0  0  0
  8 21  1  1  0  0  0
  9  3  1  1  0  0  0
  9  8  1  0  0  0  0
 10 11  1  0  0  0  0
 11  7  2  0  0  0  0
 13 20  1  6  0  0  0
 13  9  1  0  0  0  0
 14 19  2  0  0  0  0
 15  5  1  0  0  0  0
 16 18  1  0  0  0  0
 16  1  1  0  0  0  0
 17 15  1  0  0  0  0
 18 23  1  1  0  0  0
 18 13  1  0  0  0  0
 20  2  1  0  0  0  0
 21 19  1  0  0  0  0
 22 23  1  0  0  0  0
 24 23  2  0  0  0  0
 25 24  1  0  0  0  0
 26 25  2  0  0  0  0
 26 22  1  0  0  0  0
 27 31  1  0  0  0  0
 27 29  1  0  0  0  0
 28 26  1  6  0  0  0
 29 28  1  0  0  0  0
 30 28  1  0  0  0  0
 31 30  1  0  0  0  0
 32 34  1  0  0  0  0
 32 27  1  0  0  0  0
 33 34  1  0  0  0  0
M  END
>  <MODEL>
4

>  <REMARK>
 VINA RESULT:      -3.3      2.624      7.201
  Name = 
  4 active torsions:
  status: ('A' for Active; 'I' for Inactive)
    1  A    between atoms: N_3  and  C_30
    2  A    between atoms: C_8  and  C_27
    3  A    between atoms: C_14  and  C_31
    4  A    between atoms: C_15  and  C_30
                            x       y       z     vdW  Elec       q    Type
                         _______ _______ _______ _____ _____    ______ ____

>  <TORSDO>
F 4

$$$$
=
 OpenBabel11042422263D

 34 39  0  0  1  0  0  0  0  0999 V2000
  160.2640  209.5450  138.9120 C   0  0  0  0  0  0  0  0  0  0  0  0
  157.7570  214.1320  137.6090 C   0  0  0  0  0  2  0  0  0  0  0  0
  157.8040  209.6180  138.2800 N   0  0  0  0  0  2  0  0  0  0  0  0
  159.1160  209.0640  138.1140 C   0  0  0  0  0  0  0  0  0  0  0  0
  160.6240  207.4250  137.0110 C   0  0  0  0  0  2  0  0  0  0  0  0
  161.5030  209.1670  138.6010 C   0  0  0  0  0  3  0  0  0  0  0  0
  155.2540  212.2370  138.1330 C   0  0  0  0  0  0  0  0  0  0  0  0
  156.1140  211.2730  138.8870 C   0  0  2  0  0  3  0  0  0  0  0  0
  157.5140  210.9430  138.6700 N   0  0  2  0  0  0  0  0  0  0  0  0
  156.4730  214.4530  138.2650 C   0  0  0  0  0  2  0  0  0  0  0  0
  155.4120  213.5150  137.8970 N   0  0  0  0  0  0  0  0  0  0  0  0
  159.2900  208.0900  137.2150 C   0  0  0  0  0  3  0  0  0  0  0  0
  158.5520  211.9340  138.6390 C   0  0  2  0  0  3  0  0  0  0  0  0
  153.9410  211.7020  138.0790 N   0  0  0  0  0  0  0  0  0  0  0  0
  161.7200  208.2490  137.5230 N   0  0  0  0  0  0  0  0  0  0  0  0
  160.0400  210.4610  140.0620 C   0  0  0  0  0  2  0  0  0  0  0  0
  163.0800  207.9290  137.1350 C   0  0  0  0  0  1  0  0  0  0  0  0
  159.7260  211.8730  139.5870 C   0  0  2  0  0  3  0  0  0  0  0  0
  153.9440  210.6090  138.7640 C   0  0  0  0  0  3  0  0  0  0  0  0
  158.2810  213.0560  138.0670 C   0  0  0  0  0  2  0  0  0  0  0  0
  155.2820  210.3030  139.2600 C   0  0  0  0  0  2  0  0  0  0  0  0
  160.4830  212.7280  142.1520 S   0  0  0  0  0  0  0  0  0  0  0  0
  159.5130  212.7510  140.7790 C   0  0  0  0  0  0  0  0  0  0  0  0
  158.4960  213.6350  140.8970 N   0  0  0  0  0  0  0  0  0  0  0  0
  158.5210  214.2880  142.0900 C   0  0  0  0  0  3  0  0  0  0  0  0
  159.5660  213.9040  142.9250 C   0  0  0  0  0  0  0  0  0  0  0  0
  159.2040  213.5850  146.5920 N   0  0  0  0  0  0  0  0  0  0  0  0
  159.8580  214.4500  144.2840 C   0  0  1  0  0  3  0  0  0  0  0  0
  158.3600  214.4520  145.3100 S   0  0  0  0  0  0  0  0  0  0  0  0
  160.8970  213.6670  144.9390 N   0  0  0  0  0  2  0  0  0  0  0  0
  160.2400  212.8230  145.9220 C   0  0  0  0  0  2  0  0  0  0  0  0
  158.2680  212.6200  147.1480 C   0  0  0  0  0  2  0  0  0  0  0  0
  156.9450  212.9420  149.1650 N   0  0  0  0  0  1  0  0  0  0  0  0
  157.0820  213.3340  147.7740 C   0  0  0  0  0  2  0  0  0  0  0  0
  1 16  1  0  0  0  0
  2 20  1  0  0  0  0
  2 10  1  0  0  0  0
  4  3  1  0  0  0  0
  4  1  1  0  0  0  0
  5 12  1  0  0  0  0
  5 15  1  0  0  0  0
  6  1  2  0  0  0  0
  7  8  1  0  0  0  0
  8 21  1  6  0  0  0
  9  3  1  6  0  0  0
  9  8  1  0  0  0  0
 11  7  2  0  0  0  0
 11 10  1  0  0  0  0
 12  4  2  0  0  0  0
 13 20  1  1  0  0  0
 13  9  1  0  0  0  0
 13 18  1  0  0  0  0
 14  7  1  0  0  0  0
 14 19  2  0  0  0  0
 15  6  1  0  0  0  0
 17 15  1  0  0  0  0
 18 16  1  0  0  0  0
 18 23  1  1  0  0  0
 19 21  1  0  0  0  0
 22 26  1  0  0  0  0
 23 24  2  0  0  0  0
 23 22  1  0  0  0  0
 24 25  1  0  0  0  0
 25 26  2  0  0  0  0
 27 32  1  0  0  0  0
 28 26  1  6  0  0  0
 28 30  1  0  0  0  0
 28 29  1  0  0  0  0
 29 27  1  0  0  0  0
 30 31  1  0  0  0  0
 31 27  1  0  0  0  0
 32 34  1  0  0  0  0
 34 33  1  0  0  0  0
M  END
>  <MODEL>
5

>  <REMARK>
 VINA RESULT:      -2.7      9.680     13.741
  Name = 
  4 active torsions:
  status: ('A' for Active; 'I' for Inactive)
    1  A    between atoms: N_3  and  C_30
    2  A    between atoms: C_8  and  C_27
    3  A    between atoms: C_14  and  C_31
    4  A    between atoms: C_15  and  C_30
                            x       y       z     vdW  Elec       q    Type
                         _______ _______ _______ _____ _____    ______ ____

>  <TORSDO>
F 4

$$$$
=
 OpenBabel11042422263D

 34 39  0  0  1  0  0  0  0  0999 V2000
  160.2680  211.4180  154.0110 C   0  0  0  0  0  0  0  0  0  0  0  0
  162.7770  211.7320  149.2540 C   0  0  0  0  0  2  0  0  0  0  0  0
  161.0850  209.3590  152.7660 N   0  0  0  0  0  2  0  0  0  0  0  0
  161.0190  210.1450  153.9630 C   0  0  0  0  0  0  0  0  0  0  0  0
  161.5990  210.4450  156.3620 C   0  0  0  0  0  2  0  0  0  0  0  0
  160.3900  212.2290  155.0610 C   0  0  0  0  0  3  0  0  0  0  0  0
  162.0220  208.6400  149.3030 C   0  0  0  0  0  0  0  0  0  0  0  0
  161.0040  208.8830  150.3710 C   0  0  2  0  0  3  0  0  0  0  0  0
  161.0320  209.8610  151.4480 N   0  0  2  0  0  0  0  0  0  0  0  0
  162.3110  210.8740  148.1450 C   0  0  0  0  0  2  0  0  0  0  0  0
  162.5330  209.4530  148.4130 N   0  0  0  0  0  0  0  0  0  0  0  0
  161.6540  209.7040  155.0530 C   0  0  0  0  0  3  0  0  0  0  0  0
  161.2120  211.2680  151.2180 C   0  0  2  0  0  3  0  0  0  0  0  0
  162.0500  207.2470  149.0360 N   0  0  0  0  0  0  0  0  0  0  0  0
  161.2080  211.8430  156.1710 N   0  0  0  0  0  0  0  0  0  0  0  0
  159.3800  211.8020  152.8820 C   0  0  0  0  0  2  0  0  0  0  0  0
  161.4090  212.7820  157.2580 C   0  0  0  0  0  1  0  0  0  0  0  0
  160.1900  212.2760  151.6830 C   0  0  2  0  0  3  0  0  0  0  0  0
  161.1340  206.6990  149.7590 C   0  0  0  0  0  3  0  0  0  0  0  0
  162.0460  211.6140  150.2990 C   0  0  0  0  0  2  0  0  0  0  0  0
  160.4820  207.6840  150.6160 C   0  0  0  0  0  2  0  0  0  0  0  0
  159.7260  213.3940  149.1500 S   0  0  0  0  0  0  0  0  0  0  0  0
  159.2510  212.6520  150.5810 C   0  0  0  0  0  0  0  0  0  0  0  0
  157.9120  212.4670  150.6310 N   0  0  0  0  0  0  0  0  0  0  0  0
  157.2900  212.9170  149.5080 C   0  0  0  0  0  3  0  0  0  0  0  0
  158.1510  213.4740  148.5670 C   0  0  0  0  0  0  0  0  0  0  0  0
  158.6010  213.4780  144.8960 N   0  0  0  0  0  0  0  0  0  0  0  0
  157.7660  214.0390  147.2390 C   0  0  1  0  0  3  0  0  0  0  0  0
  159.2420  214.4110  146.2490 S   0  0  0  0  0  0  0  0  0  0  0  0
  156.9130  213.1080  146.5140 N   0  0  0  0  0  2  0  0  0  0  0  0
  157.7360  212.4800  145.4940 C   0  0  0  0  0  2  0  0  0  0  0  0
  159.7180  212.7610  144.3010 C   0  0  0  0  0  2  0  0  0  0  0  0
  162.1200  213.1490  144.2980 N   0  0  0  0  0  1  0  0  0  0  0  0
  160.9670  212.9290  145.1500 C   0  0  0  0  0  2  0  0  0  0  0  0
  1  6  2  0  0  0  0
  2 20  1  0  0  0  0
  3  4  1  0  0  0  0
  4  1  1  0  0  0  0
  4 12  2  0  0  0  0
  6 15  1  0  0  0  0
  7  8  1  0  0  0  0
  8 21  1  1  0  0  0
  8  9  1  0  0  0  0
  9  3  1  1  0  0  0
 10 11  1  0  0  0  0
 10  2  1  0  0  0  0
 11  7  2  0  0  0  0
 12  5  1  0  0  0  0
 13 20  1  6  0  0  0
 13  9  1  0  0  0  0
 13 18  1  0  0  0  0
 14  7  1  0  0  0  0
 14 19  2  0  0  0  0
 15  5  1  0  0  0  0
 15 17  1  0  0  0  0
 16  1  1  0  0  0  0
 18 23  1  6  0  0  0
 18 16  1  0  0  0  0
 19 21  1  0  0  0  0
 22 23  1  0  0  0  0
 23 24  2  0  0  0  0
 25 24  1  0  0  0  0
 26 22  1  0  0  0  0
 26 25  2  0  0  0  0
 27 31  1  0  0  0  0
 27 29  1  0  0  0  0
 28 26  1  1  0  0  0
 29 28  1  0  0  0  0
 30 28  1  0  0  0  0
 31 30  1  0  0  0  0
 32 27  1  0  0  0  0
 32 34  1  0  0  0  0
 33 34  1  0  0  0  0
M  END
>  <MODEL>
6

>  <REMARK>
 VINA RESULT:      -1.4      3.375      7.815
  Name = 
  4 active torsions:
  status: ('A' for Active; 'I' for Inactive)
    1  A    between atoms: N_3  and  C_30
    2  A    between atoms: C_8  and  C_27
    3  A    between atoms: C_14  and  C_31
    4  A    between atoms: C_15  and  C_30
                            x       y       z     vdW  Elec       q    Type
                         _______ _______ _______ _____ _____    ______ ____

>  <TORSDO>
F 4

$$$$
