=
 OpenBabel11042421033D

 28 32  0  0  1  0  0  0  0  0999 V2000
  163.0770  210.1540  152.1520 C   0  0  0  0  0  2  0  0  0  0  0  0
  161.4680  210.1150  156.6730 N   0  0  0  0  0  2  0  0  0  0  0  0
  161.2310  204.2810  151.8280 C   0  0  0  0  0  3  0  0  0  0  0  0
  161.8470  209.9040  153.0470 C   0  0  2  0  0  3  0  0  0  0  0  0
  161.3550  209.7930  155.2850 C   0  0  0  0  0  0  0  0  0  0  0  0
  160.6650  207.9720  152.0420 N   0  0  0  0  0  2  0  0  0  0  0  0
  162.4900  208.3400  148.7760 S   0  0  0  0  0  0  0  0  0  0  0  0
  160.8440  207.5550  149.0860 C   0  0  0  0  0  2  0  0  0  0  0  0
  160.5390  208.2840  154.7520 S   0  0  0  0  0  0  0  0  0  0  0  0
  162.7050  209.9430  150.7530 N   0  0  0  0  0  0  0  0  0  0  0  0
  160.8300  206.6510  151.4900 C   0  0  0  0  0  0  0  0  0  0  0  0
  162.6500  208.6090  150.4670 O   0  0  0  0  0  0  0  0  0  0  0  0
  161.2690  204.1020  150.4400 C   0  0  0  0  0  3  0  0  0  0  0  0
  161.0910  205.1650  149.6140 N   0  0  0  0  0  0  0  0  0  0  0  0
  160.9110  206.4300  150.0910 C   0  0  0  0  0  0  0  0  0  0  0  0
  161.0090  205.5580  152.3450 C   0  0  0  0  0  3  0  0  0  0  0  0
  162.0330  210.4260  154.3830 N   0  0  0  0  0  0  0  0  0  0  0  0
  161.4650  208.4210  153.1830 C   0  0  2  0  0  3  0  0  0  0  0  0
  161.9000  211.4350  149.0240 C   0  0  0  0  0  3  0  0  0  0  0  0
  159.7740  212.7540  149.3000 O   0  0  0  0  0  0  0  0  0  0  0  0
  160.8800  212.7660  147.1060 C   0  0  0  0  0  2  0  0  0  0  0  0
  160.9850  212.5460  148.5930 C   0  0  0  0  0  0  0  0  0  0  0  0
  160.1130  212.8060  150.6620 C   0  0  0  0  0  2  0  0  0  0  0  0
  160.6060  211.4120  151.1200 C   0  0  0  0  0  2  0  0  0  0  0  0
  161.7410  210.9070  150.2490 C   0  0  0  0  0  0  0  0  0  0  0  0
  161.6110  213.7960  147.9820 C   0  0  0  0  0  2  0  0  0  0  0  0
  162.2390  211.2210  157.1570 C   0  0  0  0  0  3  0  0  0  0  0  0
  163.5560  211.1050  157.2610 C   0  0  0  0  0  2  0  0  0  0  0  0
  2 27  1  0  0  0  0
  3 16  1  0  0  0  0
  4  1  1  6  0  0  0
  4 18  1  0  0  0  0
  4 17  1  0  0  0  0
  5  2  1  0  0  0  0
  7  8  1  0  0  0  0
  7 12  1  0  0  0  0
  8 15  1  0  0  0  0
  9  5  1  0  0  0  0
 10  1  1  0  0  0  0
 11  6  1  0  0  0  0
 11 16  2  0  0  0  0
 12 10  1  0  0  0  0
 13  3  2  0  0  0  0
 14 15  2  0  0  0  0
 14 13  1  0  0  0  0
 15 11  1  0  0  0  0
 17  5  2  0  0  0  0
 18  6  1  6  0  0  0
 18  9  1  0  0  0  0
 19 25  2  0  0  0  0
 20 23  1  0  0  0  0
 21 26  1  0  0  0  0
 21 22  1  0  0  0  0
 22 19  1  0  0  0  0
 22 20  1  0  0  0  0
 23 24  1  0  0  0  0
 25 10  1  0  0  0  0
 25 24  1  0  0  0  0
 26 22  1  0  0  0  0
 27 28  2  0  0  0  0
M  END
>  <MODEL>
1

>  <REMARK>
 VINA RESULT:      -5.0      0.000      0.000
  Name = 
  2 active torsions:
  status: ('A' for Active; 'I' for Inactive)
    1  A    between atoms: N_2  and  C_7
    2  A    between atoms: N_16  and  C_24
                            x       y       z     vdW  Elec       q    Type
                         _______ _______ _______ _____ _____    ______ ____

>  <TORSDO>
F 2

$$$$
=
 OpenBabel11042421033D

 28 32  0  0  1  0  0  0  0  0999 V2000
  162.7160  209.9860  151.6280 C   0  0  0  0  0  2  0  0  0  0  0  0
  161.3940  213.3120  148.4320 N   0  0  0  0  0  2  0  0  0  0  0  0
  159.0720  212.9190  155.6430 C   0  0  0  0  0  3  0  0  0  0  0  0
  161.5140  210.6410  150.9190 C   0  0  2  0  0  3  0  0  0  0  0  0
  161.1180  212.3910  149.4890 C   0  0  0  0  0  0  0  0  0  0  0  0
  159.7290  210.8040  152.6290 N   0  0  0  0  0  2  0  0  0  0  0  0
  161.4190  208.3070  154.8740 S   0  0  0  0  0  0  0  0  0  0  0  0
  159.6250  208.7520  154.8010 C   0  0  0  0  0  2  0  0  0  0  0  0
  159.8370  212.7350  150.7010 S   0  0  0  0  0  0  0  0  0  0  0  0
  162.2300  208.9480  152.5380 N   0  0  0  0  0  0  0  0  0  0  0  0
  159.4360  211.1810  153.9890 C   0  0  0  0  0  0  0  0  0  0  0  0
  161.7370  209.5060  153.6830 O   0  0  0  0  0  0  0  0  0  0  0  0
  158.9840  211.9380  156.6380 C   0  0  0  0  0  3  0  0  0  0  0  0
  159.1180  210.6260  156.3100 N   0  0  0  0  0  0  0  0  0  0  0  0
  159.3750  210.2220  155.0330 C   0  0  0  0  0  0  0  0  0  0  0  0
  159.2950  212.5320  154.3210 C   0  0  0  0  0  3  0  0  0  0  0  0
  161.9210  211.4130  149.7650 N   0  0  0  0  0  0  0  0  0  0  0  0
  160.6840  211.5670  151.8220 C   0  0  2  0  0  3  0  0  0  0  0  0
  161.6170  206.6070  152.4380 C   0  0  0  0  0  3  0  0  0  0  0  0
  160.3000  205.6670  150.5110 O   0  0  0  0  0  0  0  0  0  0  0  0
  160.7010  204.2300  152.4640 C   0  0  0  0  0  2  0  0  0  0  0  0
  161.1080  205.4330  151.6520 C   0  0  0  0  0  0  0  0  0  0  0  0
  160.9820  206.6110  149.7270 C   0  0  0  0  0  2  0  0  0  0  0  0
  161.0170  207.9660  150.4730 C   0  0  0  0  0  2  0  0  0  0  0  0
  161.6020  207.8230  151.8650 C   0  0  0  0  0  0  0  0  0  0  0  0
  161.9710  204.1760  151.5980 C   0  0  0  0  0  2  0  0  0  0  0  0
  162.5010  213.1610  147.5350 C   0  0  0  0  0  3  0  0  0  0  0  0
  162.3000  213.2450  146.2270 C   0  0  0  0  0  2  0  0  0  0  0  0
  1 10  1  0  0  0  0
  2  5  1  0  0  0  0
  3 13  1  0  0  0  0
  4  1  1  1  0  0  0
  4 18  1  0  0  0  0
  5 17  2  0  0  0  0
  5  9  1  0  0  0  0
  6 11  1  0  0  0  0
  8  7  1  0  0  0  0
  8 15  1  0  0  0  0
 10 12  1  0  0  0  0
 11 16  1  0  0  0  0
 11 15  2  0  0  0  0
 12  7  1  0  0  0  0
 14 13  2  0  0  0  0
 15 14  1  0  0  0  0
 16  3  2  0  0  0  0
 17  4  1  0  0  0  0
 18  9  1  6  0  0  0
 18  6  1  0  0  0  0
 20 22  1  0  0  0  0
 22 19  1  0  0  0  0
 22 21  1  0  0  0  0
 23 24  1  0  0  0  0
 23 20  1  0  0  0  0
 24 25  1  0  0  0  0
 25 19  2  0  0  0  0
 25 10  1  0  0  0  0
 26 22  1  0  0  0  0
 26 21  1  0  0  0  0
 27  2  1  0  0  0  0
 28 27  2  0  0  0  0
M  END
>  <MODEL>
2

>  <REMARK>
 VINA RESULT:      -5.0      2.528      6.921
  Name = 
  2 active torsions:
  status: ('A' for Active; 'I' for Inactive)
    1  A    between atoms: N_2  and  C_7
    2  A    between atoms: N_16  and  C_24
                            x       y       z     vdW  Elec       q    Type
                         _______ _______ _______ _____ _____    ______ ____

>  <TORSDO>
F 2

$$$$
=
 OpenBabel11042421033D

 28 32  0  0  1  0  0  0  0  0999 V2000
  162.6090  209.7990  151.0510 C   0  0  0  0  0  2  0  0  0  0  0  0
  160.1770  213.8940  150.4670 N   0  0  0  0  0  2  0  0  0  0  0  0
  160.1810  209.5890  156.7140 C   0  0  0  0  0  3  0  0  0  0  0  0
  161.2100  210.4470  151.0850 C   0  0  2  0  0  3  0  0  0  0  0  0
  160.2930  212.5430  150.9170 C   0  0  0  0  0  0  0  0  0  0  0  0
  160.0220  209.3850  152.9820 N   0  0  0  0  0  2  0  0  0  0  0  0
  162.4640  206.5320  153.1340 S   0  0  0  0  0  0  0  0  0  0  0  0
  160.7090  206.5690  153.7160 C   0  0  0  0  0  2  0  0  0  0  0  0
  159.4210  211.9810  152.3840 S   0  0  0  0  0  0  0  0  0  0  0  0
  162.4870  208.3760  151.3660 N   0  0  0  0  0  0  0  0  0  0  0  0
  160.1330  208.9870  154.3630 C   0  0  0  0  0  0  0  0  0  0  0  0
  162.3310  208.1930  152.7110 O   0  0  0  0  0  0  0  0  0  0  0  0
  160.4600  208.2550  157.0370 C   0  0  0  0  0  3  0  0  0  0  0  0
  160.5690  207.3270  156.0510 N   0  0  0  0  0  0  0  0  0  0  0  0
  160.4510  207.6540  154.7330 C   0  0  0  0  0  0  0  0  0  0  0  0
  160.0160  209.9460  155.3750 C   0  0  0  0  0  3  0  0  0  0  0  0
  161.2000  211.7460  150.4500 N   0  0  0  0  0  0  0  0  0  0  0  0
  160.6380  210.6230  152.5010 C   0  0  2  0  0  3  0  0  0  0  0  0
  161.4440  206.3270  150.6040 C   0  0  0  0  0  3  0  0  0  0  0  0
  160.2670  206.1900  148.3830 O   0  0  0  0  0  0  0  0  0  0  0  0
  160.0830  204.2840  149.9240 C   0  0  0  0  0  2  0  0  0  0  0  0
  160.8350  205.5170  149.4950 C   0  0  0  0  0  0  0  0  0  0  0  0
  161.2310  207.1090  147.9400 C   0  0  0  0  0  2  0  0  0  0  0  0
  161.4230  208.2070  149.0120 C   0  0  0  0  0  2  0  0  0  0  0  0
  161.7560  207.6130  150.3680 C   0  0  0  0  0  0  0  0  0  0  0  0
  161.4300  204.1440  149.1960 C   0  0  0  0  0  2  0  0  0  0  0  0
  160.9670  214.4320  149.4000 C   0  0  0  0  0  3  0  0  0  0  0  0
  160.4970  214.4050  148.1600 C   0  0  0  0  0  2  0  0  0  0  0  0
  1 10  1  0  0  0  0
  2  5  1  0  0  0  0
  3 13  1  0  0  0  0
  4  1  1  1  0  0  0
  4 18  1  0  0  0  0
  5  9  1  0  0  0  0
  6 11  1  0  0  0  0
  7  8  1  0  0  0  0
  8 15  1  0  0  0  0
 10 12  1  0  0  0  0
 11 15  2  0  0  0  0
 11 16  1  0  0  0  0
 12  7  1  0  0  0  0
 14 13  2  0  0  0  0
 15 14  1  0  0  0  0
 16  3  2  0  0  0  0
 17  5  2  0  0  0  0
 17  4  1  0  0  0  0
 18  9  1  6  0  0  0
 18  6  1  0  0  0  0
 20 22  1  0  0  0  0
 22 21  1  0  0  0  0
 22 19  1  0  0  0  0
 23 20  1  0  0  0  0
 23 24  1  0  0  0  0
 24 25  1  0  0  0  0
 25 19  2  0  0  0  0
 25 10  1  0  0  0  0
 26 22  1  0  0  0  0
 26 21  1  0  0  0  0
 27  2  1  0  0  0  0
 28 27  2  0  0  0  0
M  END
>  <MODEL>
3

>  <REMARK>
 VINA RESULT:      -4.6      2.490      5.848
  Name = 
  2 active torsions:
  status: ('A' for Active; 'I' for Inactive)
    1  A    between atoms: N_2  and  C_7
    2  A    between atoms: N_16  and  C_24
                            x       y       z     vdW  Elec       q    Type
                         _______ _______ _______ _____ _____    ______ ____

>  <TORSDO>
F 2

$$$$
=
 OpenBabel11042421033D

 28 32  0  0  1  0  0  0  0  0999 V2000
  162.8910  211.1090  149.6600 C   0  0  0  0  0  2  0  0  0  0  0  0
  161.5730  213.7960  145.9100 N   0  0  0  0  0  2  0  0  0  0  0  0
  158.9230  214.4530  152.9880 C   0  0  0  0  0  3  0  0  0  0  0  0
  161.6960  211.5740  148.8050 C   0  0  2  0  0  3  0  0  0  0  0  0
  161.2890  213.0450  147.0920 C   0  0  0  0  0  0  0  0  0  0  0  0
  159.8240  211.9160  150.3920 N   0  0  0  0  0  2  0  0  0  0  0  0
  161.5180  209.9120  153.0830 S   0  0  0  0  0  0  0  0  0  0  0  0
  159.7110  210.2410  152.8660 C   0  0  0  0  0  2  0  0  0  0  0  0
  159.9360  213.5110  148.1780 S   0  0  0  0  0  0  0  0  0  0  0  0
  162.4100  210.2080  150.7080 N   0  0  0  0  0  0  0  0  0  0  0  0
  159.4480  212.4920  151.6580 C   0  0  0  0  0  0  0  0  0  0  0  0
  161.8370  210.9160  151.7250 O   0  0  0  0  0  0  0  0  0  0  0  0
  158.8330  213.6430  154.1260 C   0  0  0  0  0  3  0  0  0  0  0  0
  159.0440  212.3050  154.0240 N   0  0  0  0  0  0  0  0  0  0  0  0
  159.3810  211.7130  152.8430 C   0  0  0  0  0  0  0  0  0  0  0  0
  159.2280  213.8700  151.7580 C   0  0  0  0  0  3  0  0  0  0  0  0
  162.1220  212.1700  147.5580 N   0  0  0  0  0  0  0  0  0  0  0  0
  160.7800  212.5880  149.5100 C   0  0  2  0  0  3  0  0  0  0  0  0
  161.6680  207.9270  151.0460 C   0  0  0  0  0  3  0  0  0  0  0  0
  160.7510  206.5420  149.1560 O   0  0  0  0  0  0  0  0  0  0  0  0
  160.6020  205.6470  151.4400 C   0  0  0  0  0  2  0  0  0  0  0  0
  161.2650  206.5980  150.4760 C   0  0  0  0  0  0  0  0  0  0  0  0
  161.6570  207.2450  148.3460 C   0  0  0  0  0  2  0  0  0  0  0  0
  161.6210  208.7460  148.7230 C   0  0  0  0  0  2  0  0  0  0  0  0
  161.8700  208.9560  150.2050 C   0  0  0  0  0  0  0  0  0  0  0  0
  162.0260  205.3570  150.9360 C   0  0  0  0  0  2  0  0  0  0  0  0
  162.7280  213.5620  145.0950 C   0  0  0  0  0  3  0  0  0  0  0  0
  162.5810  213.0370  143.8860 C   0  0  0  0  0  2  0  0  0  0  0  0
  1 10  1  0  0  0  0
  2  5  1  0  0  0  0
  3 13  1  0  0  0  0
  4 18  1  0  0  0  0
  4  1  1  1  0  0  0
  5 17  2  0  0  0  0
  5  9  1  0  0  0  0
  6 11  1  0  0  0  0
  8  7  1  0  0  0  0
 10 12  1  0  0  0  0
 11 16  1  0  0  0  0
 11 15  2  0  0  0  0
 12  7  1  0  0  0  0
 14 13  2  0  0  0  0
 15  8  1  0  0  0  0
 15 14  1  0  0  0  0
 16  3  2  0  0  0  0
 17  4  1  0  0  0  0
 18  9  1  6  0  0  0
 18  6  1  0  0  0  0
 20 22  1  0  0  0  0
 22 26  1  0  0  0  0
 22 19  1  0  0  0  0
 22 21  1  0  0  0  0
 23 24  1  0  0  0  0
 23 20  1  0  0  0  0
 24 25  1  0  0  0  0
 25 10  1  0  0  0  0
 25 19  2  0  0  0  0
 26 21  1  0  0  0  0
 27  2  1  0  0  0  0
 28 27  2  0  0  0  0
M  END
>  <MODEL>
4

>  <REMARK>
 VINA RESULT:      -3.7      2.809      7.407
  Name = 
  2 active torsions:
  status: ('A' for Active; 'I' for Inactive)
    1  A    between atoms: N_2  and  C_7
    2  A    between atoms: N_16  and  C_24
                            x       y       z     vdW  Elec       q    Type
                         _______ _______ _______ _____ _____    ______ ____

>  <TORSDO>
F 2

$$$$
=
 OpenBabel11042421033D

 28 32  0  0  1  0  0  0  0  0999 V2000
  159.3170  210.9220  152.8150 C   0  0  0  0  0  2  0  0  0  0  0  0
  161.5560  212.6370  148.9330 N   0  0  0  0  0  2  0  0  0  0  0  0
  161.4490  205.3820  151.1500 C   0  0  0  0  0  3  0  0  0  0  0  0
  160.6760  211.0380  152.0960 C   0  0  2  0  0  3  0  0  0  0  0  0
  161.4890  211.8030  150.0910 C   0  0  0  0  0  0  0  0  0  0  0  0
  161.8170  208.8680  152.4560 N   0  0  0  0  0  2  0  0  0  0  0  0
  159.5240  207.9420  155.2870 S   0  0  0  0  0  0  0  0  0  0  0  0
  161.2410  207.3380  154.9600 C   0  0  0  0  0  2  0  0  0  0  0  0
  162.3100  210.2050  150.1260 S   0  0  0  0  0  0  0  0  0  0  0  0
  159.4980  210.1860  154.0660 N   0  0  0  0  0  0  0  0  0  0  0  0
  161.6540  207.4360  152.4260 C   0  0  0  0  0  0  0  0  0  0  0  0
  159.5910  208.8450  153.8250 O   0  0  0  0  0  0  0  0  0  0  0  0
  161.2240  204.6790  152.3400 C   0  0  0  0  0  3  0  0  0  0  0  0
  161.2170  205.3400  153.5260 N   0  0  0  0  0  0  0  0  0  0  0  0
  161.3870  206.6910  153.6040 C   0  0  0  0  0  0  0  0  0  0  0  0
  161.6660  206.7600  151.2020 C   0  0  0  0  0  3  0  0  0  0  0  0
  160.6520  212.0370  151.0500 N   0  0  0  0  0  0  0  0  0  0  0  0
  161.1620  209.7240  151.4630 C   0  0  2  0  0  3  0  0  0  0  0  0
  161.6030  210.5190  155.2160 C   0  0  0  0  0  3  0  0  0  0  0  0
  161.8940  212.3260  156.9430 O   0  0  0  0  0  0  0  0  0  0  0  0
  163.8820  211.0830  156.2060 C   0  0  0  0  0  2  0  0  0  0  0  0
  162.3810  211.1390  156.3410 C   0  0  0  0  0  0  0  0  0  0  0  0
  160.5470  212.0870  157.2610 C   0  0  0  0  0  2  0  0  0  0  0  0
  159.7320  211.9410  155.9540 C   0  0  0  0  0  2  0  0  0  0  0  0
  160.3200  210.8800  155.0440 C   0  0  0  0  0  0  0  0  0  0  0  0
  163.1750  210.2150  157.2610 C   0  0  0  0  0  2  0  0  0  0  0  0
  160.7970  213.8440  148.7950 C   0  0  0  0  0  3  0  0  0  0  0  0
  159.8770  213.9340  147.8450 C   0  0  0  0  0  2  0  0  0  0  0  0
  1 10  1  0  0  0  0
  2  5  1  0  0  0  0
  3 16  2  0  0  0  0
  3 13  1  0  0  0  0
  4  1  1  6  0  0  0
  5  9  1  0  0  0  0
  5 17  2  0  0  0  0
  8  7  1  0  0  0  0
 10 25  1  0  0  0  0
 11  6  1  0  0  0  0
 11 15  2  0  0  0  0
 12 10  1  0  0  0  0
 12  7  1  0  0  0  0
 13 14  2  0  0  0  0
 14 15  1  0  0  0  0
 15  8  1  0  0  0  0
 16 11  1  0  0  0  0
 17  4  1  0  0  0  0
 18  9  1  6  0  0  0
 18  4  1  0  0  0  0
 18  6  1  0  0  0  0
 19 22  1  0  0  0  0
 20 23  1  0  0  0  0
 21 22  1  0  0  0  0
 21 26  1  0  0  0  0
 22 20  1  0  0  0  0
 22 26  1  0  0  0  0
 24 23  1  0  0  0  0
 25 19  2  0  0  0  0
 25 24  1  0  0  0  0
 27  2  1  0  0  0  0
 28 27  2  0  0  0  0
M  END
>  <MODEL>
5

>  <REMARK>
 VINA RESULT:      -3.4      2.432      5.913
  Name = 
  2 active torsions:
  status: ('A' for Active; 'I' for Inactive)
    1  A    between atoms: N_2  and  C_7
    2  A    between atoms: N_16  and  C_24
                            x       y       z     vdW  Elec       q    Type
                         _______ _______ _______ _____ _____    ______ ____

>  <TORSDO>
F 2

$$$$
=
 OpenBabel11042421033D

 28 32  0  0  1  0  0  0  0  0999 V2000
  160.4150  212.6100  153.5150 C   0  0  0  0  0  2  0  0  0  0  0  0
  158.8600  213.9140  149.1670 N   0  0  0  0  0  2  0  0  0  0  0  0
  154.9260  214.4530  155.6320 C   0  0  0  0  0  3  0  0  0  0  0  0
  159.3100  212.4030  152.4610 C   0  0  2  0  0  3  0  0  0  0  0  0
  158.6810  213.2980  150.4440 C   0  0  0  0  0  0  0  0  0  0  0  0
  157.1990  212.1660  153.7350 N   0  0  0  0  0  2  0  0  0  0  0  0
  159.0200  211.4730  156.9500 S   0  0  0  0  0  0  0  0  0  0  0  0
  157.2990  210.9840  156.4800 C   0  0  0  0  0  2  0  0  0  0  0  0
  157.0810  213.3150  151.2600 S   0  0  0  0  0  0  0  0  0  0  0  0
  160.1420  211.7580  154.6720 N   0  0  0  0  0  0  0  0  0  0  0  0
  156.4050  212.7150  154.8060 C   0  0  0  0  0  0  0  0  0  0  0  0
  159.1630  212.3050  155.4520 O   0  0  0  0  0  0  0  0  0  0  0  0
  154.9530  213.8570  156.8990 C   0  0  0  0  0  3  0  0  0  0  0  0
  155.6830  212.7300  157.1020 N   0  0  0  0  0  0  0  0  0  0  0  0
  156.4330  212.1640  156.1130 C   0  0  0  0  0  0  0  0  0  0  0  0
  155.6530  213.8740  154.5900 C   0  0  0  0  0  3  0  0  0  0  0  0
  159.6890  212.9290  151.1680 N   0  0  0  0  0  0  0  0  0  0  0  0
  157.9610  213.0360  152.8370 C   0  0  2  0  0  3  0  0  0  0  0  0
  160.1480  209.4450  155.3930 C   0  0  0  0  0  3  0  0  0  0  0  0
  160.3610  207.5500  153.7510 O   0  0  0  0  0  0  0  0  0  0  0  0
  159.8480  207.0150  156.0940 C   0  0  0  0  0  2  0  0  0  0  0  0
  160.4070  207.9960  155.0960 C   0  0  0  0  0  0  0  0  0  0  0  0
  161.1740  208.4250  153.0140 C   0  0  0  0  0  2  0  0  0  0  0  0
  160.5240  209.8290  152.9890 C   0  0  0  0  0  2  0  0  0  0  0  0
  160.2320  210.3350  154.3890 C   0  0  0  0  0  0  0  0  0  0  0  0
  161.3670  207.2360  156.0070 C   0  0  0  0  0  2  0  0  0  0  0  0
  160.1420  214.0640  148.5460 C   0  0  0  0  0  3  0  0  0  0  0  0
  160.4300  213.3600  147.4590 C   0  0  0  0  0  2  0  0  0  0  0  0
  1 10  1  0  0  0  0
  2  5  1  0  0  0  0
  3 13  1  0  0  0  0
  4 18  1  0  0  0  0
  4  1  1  1  0  0  0
  5 17  2  0  0  0  0
  5  9  1  0  0  0  0
  6 11  1  0  0  0  0
  8  7  1  0  0  0  0
 10 12  1  0  0  0  0
 11 15  2  0  0  0  0
 12  7  1  0  0  0  0
 13 14  2  0  0  0  0
 15  8  1  0  0  0  0
 15 14  1  0  0  0  0
 16 11  1  0  0  0  0
 16  3  2  0  0  0  0
 17  4  1  0  0  0  0
 18  9  1  6  0  0  0
 18  6  1  0  0  0  0
 20 22  1  0  0  0  0
 22 19  1  0  0  0  0
 22 26  1  0  0  0  0
 22 21  1  0  0  0  0
 23 20  1  0  0  0  0
 24 23  1  0  0  0  0
 24 25  1  0  0  0  0
 25 10  1  0  0  0  0
 25 19  2  0  0  0  0
 26 21  1  0  0  0  0
 27  2  1  0  0  0  0
 28 27  2  0  0  0  0
M  END
>  <MODEL>
6

>  <REMARK>
 VINA RESULT:      -3.2      4.358      8.229
  Name = 
  2 active torsions:
  status: ('A' for Active; 'I' for Inactive)
    1  A    between atoms: N_2  and  C_7
    2  A    between atoms: N_16  and  C_24
                            x       y       z     vdW  Elec       q    Type
                         _______ _______ _______ _____ _____    ______ ____

>  <TORSDO>
F 2

$$$$
=
 OpenBabel11042421033D

 28 32  0  0  1  0  0  0  0  0999 V2000
  163.2930  208.7270  149.6360 C   0  0  0  0  0  2  0  0  0  0  0  0
  161.4280  213.0730  148.8230 N   0  0  0  0  0  2  0  0  0  0  0  0
  160.9750  209.1960  155.3290 C   0  0  0  0  0  3  0  0  0  0  0  0
  161.9960  209.5600  149.6450 C   0  0  2  0  0  3  0  0  0  0  0  0
  161.3680  211.7480  149.3560 C   0  0  0  0  0  0  0  0  0  0  0  0
  160.7130  208.7890  151.6200 N   0  0  0  0  0  2  0  0  0  0  0  0
  162.7490  205.6430  151.9230 S   0  0  0  0  0  0  0  0  0  0  0  0
  161.0270  205.9550  152.5220 C   0  0  0  0  0  2  0  0  0  0  0  0
  160.4590  211.4020  150.8660 S   0  0  0  0  0  0  0  0  0  0  0  0
  162.9850  207.3550  150.0420 N   0  0  0  0  0  0  0  0  0  0  0  0
  160.7980  208.4650  153.0220 C   0  0  0  0  0  0  0  0  0  0  0  0
  162.8340  207.2780  151.3970 O   0  0  0  0  0  0  0  0  0  0  0  0
  161.0770  207.8590  155.7330 C   0  0  0  0  0  3  0  0  0  0  0  0
  161.0390  206.8670  154.8060 N   0  0  0  0  0  0  0  0  0  0  0  0
  160.9390  207.1260  153.4710 C   0  0  0  0  0  0  0  0  0  0  0  0
  160.8330  209.4900  153.9720 C   0  0  0  0  0  3  0  0  0  0  0  0
  162.1490  210.8080  148.9290 N   0  0  0  0  0  0  0  0  0  0  0  0
  161.4820  209.9000  151.0540 C   0  0  2  0  0  3  0  0  0  0  0  0
  162.6790  206.0640  148.0160 C   0  0  0  0  0  3  0  0  0  0  0  0
  160.4170  205.2000  147.3280 O   0  0  0  0  0  0  0  0  0  0  0  0
  162.3870  204.4520  146.0640 C   0  0  0  0  0  2  0  0  0  0  0  0
  161.7640  205.4740  146.9810 C   0  0  0  0  0  0  0  0  0  0  0  0
  159.9130  206.3710  147.9160 C   0  0  0  0  0  2  0  0  0  0  0  0
  160.6290  206.6140  149.2660 C   0  0  0  0  0  2  0  0  0  0  0  0
  162.1370  206.6400  149.1020 C   0  0  0  0  0  0  0  0  0  0  0  0
  162.0030  205.8370  145.5180 C   0  0  0  0  0  2  0  0  0  0  0  0
  162.2620  213.4310  147.7140 C   0  0  0  0  0  3  0  0  0  0  0  0
  163.0980  214.4530  147.8270 C   0  0  0  0  0  2  0  0  0  0  0  0
  1 10  1  0  0  0  0
  2  5  1  0  0  0  0
  3 13  1  0  0  0  0
  4  1  1  1  0  0  0
  4 18  1  0  0  0  0
  5  9  1  0  0  0  0
  6 11  1  0  0  0  0
  7  8  1  0  0  0  0
  8 15  1  0  0  0  0
 10 12  1  0  0  0  0
 11 15  2  0  0  0  0
 11 16  1  0  0  0  0
 12  7  1  0  0  0  0
 14 13  2  0  0  0  0
 15 14  1  0  0  0  0
 16  3  2  0  0  0  0
 17  5  2  0  0  0  0
 17  4  1  0  0  0  0
 18  9  1  6  0  0  0
 18  6  1  0  0  0  0
 19 25  2  0  0  0  0
 20 23  1  0  0  0  0
 21 22  1  0  0  0  0
 22 20  1  0  0  0  0
 22 19  1  0  0  0  0
 23 24  1  0  0  0  0
 25 24  1  0  0  0  0
 25 10  1  0  0  0  0
 26 21  1  0  0  0  0
 26 22  1  0  0  0  0
 27 28  2  0  0  0  0
 27  2  1  0  0  0  0
M  END
>  <MODEL>
7

>  <REMARK>
 VINA RESULT:      -2.9      2.579      5.838
  Name = 
  2 active torsions:
  status: ('A' for Active; 'I' for Inactive)
    1  A    between atoms: N_2  and  C_7
    2  A    between atoms: N_16  and  C_24
                            x       y       z     vdW  Elec       q    Type
                         _______ _______ _______ _____ _____    ______ ____

>  <TORSDO>
F 2

$$$$
=
 OpenBabel11042421033D

 28 32  0  0  1  0  0  0  0  0999 V2000
  158.2170  210.1530  154.0530 C   0  0  0  0  0  2  0  0  0  0  0  0
  156.3400  214.4500  155.0710 N   0  0  0  0  0  2  0  0  0  0  0  0
  160.6840  212.8140  149.0700 C   0  0  0  0  0  3  0  0  0  0  0  0
  158.5420  211.6370  154.3140 C   0  0  2  0  0  3  0  0  0  0  0  0
  157.4070  213.6040  154.6360 C   0  0  0  0  0  0  0  0  0  0  0  0
  160.3740  212.2110  152.7480 N   0  0  0  0  0  2  0  0  0  0  0  0
  161.1980  208.5970  152.1220 S   0  0  0  0  0  0  0  0  0  0  0  0
  162.3010  210.0710  151.9400 C   0  0  0  0  0  2  0  0  0  0  0  0
  158.5910  214.1710  153.4090 S   0  0  0  0  0  0  0  0  0  0  0  0
  159.4610  209.4250  153.8020 N   0  0  0  0  0  0  0  0  0  0  0  0
  160.8320  212.1040  151.3850 C   0  0  0  0  0  0  0  0  0  0  0  0
  159.9020  209.6500  152.5300 O   0  0  0  0  0  0  0  0  0  0  0  0
  161.6200  211.8330  148.7210 C   0  0  0  0  0  3  0  0  0  0  0  0
  162.1390  211.0210  149.6780 N   0  0  0  0  0  0  0  0  0  0  0  0
  161.7510  211.1000  150.9830 C   0  0  0  0  0  0  0  0  0  0  0  0
  160.2970  212.9450  150.4040 C   0  0  0  0  0  3  0  0  0  0  0  0
  157.4260  212.3390  154.9090 N   0  0  0  0  0  0  0  0  0  0  0  0
  158.9570  212.4160  153.0560 C   0  0  2  0  0  3  0  0  0  0  0  0
  161.0380  210.4520  155.3280 C   0  0  0  0  0  3  0  0  0  0  0  0
  162.0270  209.1790  157.2610 O   0  0  0  0  0  0  0  0  0  0  0  0
  162.4500  211.5950  157.1130 C   0  0  0  0  0  2  0  0  0  0  0  0
  162.0650  210.3160  156.4150 C   0  0  0  0  0  0  0  0  0  0  0  0
  161.9550  208.0590  156.4180 C   0  0  0  0  0  2  0  0  0  0  0  0
  160.5910  208.0550  155.6860 C   0  0  0  0  0  2  0  0  0  0  0  0
  160.3470  209.3610  154.9530 C   0  0  0  0  0  0  0  0  0  0  0  0
  163.4520  210.9060  156.1720 C   0  0  0  0  0  2  0  0  0  0  0  0
  155.2850  213.9960  155.9270 C   0  0  0  0  0  3  0  0  0  0  0  0
  155.2240  214.4320  157.1780 C   0  0  0  0  0  2  0  0  0  0  0  0
  2 27  1  0  0  0  0
  3 16  1  0  0  0  0
  4  1  1  6  0  0  0
  4 17  1  0  0  0  0
  5 17  2  0  0  0  0
  5  2  1  0  0  0  0
  7 12  1  0  0  0  0
  8  7  1  0  0  0  0
  9  5  1  0  0  0  0
 10  1  1  0  0  0  0
 10 25  1  0  0  0  0
 11  6  1  0  0  0  0
 12 10  1  0  0  0  0
 13  3  2  0  0  0  0
 13 14  1  0  0  0  0
 14 15  2  0  0  0  0
 15 11  1  0  0  0  0
 15  8  1  0  0  0  0
 16 11  2  0  0  0  0
 18  6  1  1  0  0  0
 18  9  1  0  0  0  0
 18  4  1  0  0  0  0
 19 22  1  0  0  0  0
 22 21  1  0  0  0  0
 22 20  1  0  0  0  0
 23 20  1  0  0  0  0
 24 23  1  0  0  0  0
 25 19  2  0  0  0  0
 25 24  1  0  0  0  0
 26 22  1  0  0  0  0
 26 21  1  0  0  0  0
 27 28  2  0  0  0  0
M  END
>  <MODEL>
8

>  <REMARK>
 VINA RESULT:      -2.8      3.683      6.571
  Name = 
  2 active torsions:
  status: ('A' for Active; 'I' for Inactive)
    1  A    between atoms: N_2  and  C_7
    2  A    between atoms: N_16  and  C_24
                            x       y       z     vdW  Elec       q    Type
                         _______ _______ _______ _____ _____    ______ ____

>  <TORSDO>
F 2

$$$$
=
 OpenBabel11042421033D

 28 32  0  0  1  0  0  0  0  0999 V2000
  163.1180  210.1760  152.0740 C   0  0  0  0  0  2  0  0  0  0  0  0
  161.2450  210.0570  156.4900 N   0  0  0  0  0  2  0  0  0  0  0  0
  161.0240  204.4140  151.4240 C   0  0  0  0  0  3  0  0  0  0  0  0
  161.8270  209.9540  152.8870 C   0  0  2  0  0  3  0  0  0  0  0  0
  161.1990  209.7900  155.0870 C   0  0  0  0  0  0  0  0  0  0  0  0
  160.6170  208.1190  151.7440 N   0  0  0  0  0  2  0  0  0  0  0  0
  162.6470  208.5100  148.6040 S   0  0  0  0  0  0  0  0  0  0  0  0
  160.9520  207.7960  148.7900 C   0  0  0  0  0  2  0  0  0  0  0  0
  160.3460  208.3410  154.4520 S   0  0  0  0  0  0  0  0  0  0  0  0
  162.8190  210.0320  150.6490 N   0  0  0  0  0  0  0  0  0  0  0  0
  160.7540  206.8110  151.1540 C   0  0  0  0  0  0  0  0  0  0  0  0
  162.7200  208.7130  150.3100 O   0  0  0  0  0  0  0  0  0  0  0  0
  161.1350  204.2810  150.0350 C   0  0  0  0  0  3  0  0  0  0  0  0
  161.0560  205.3810  149.2410 N   0  0  0  0  0  0  0  0  0  0  0  0
  160.9060  206.6350  149.7540 C   0  0  0  0  0  0  0  0  0  0  0  0
  160.8310  205.6820  151.9760 C   0  0  0  0  0  3  0  0  0  0  0  0
  161.9580  210.4200  154.2500 N   0  0  0  0  0  0  0  0  0  0  0  0
  161.3690  208.4880  152.9450 C   0  0  2  0  0  3  0  0  0  0  0  0
  161.1280  211.7370  150.9640 C   0  0  0  0  0  3  0  0  0  0  0  0
  160.2550  213.1040  149.0390 O   0  0  0  0  0  0  0  0  0  0  0  0
  159.5860  213.7330  151.3180 C   0  0  0  0  0  2  0  0  0  0  0  0
  160.1080  212.6740  150.3820 C   0  0  0  0  0  0  0  0  0  0  0  0
  160.4520  211.9450  148.2700 C   0  0  0  0  0  2  0  0  0  0  0  0
  161.8170  211.3150  148.6360 C   0  0  0  0  0  2  0  0  0  0  0  0
  161.9320  211.0580  150.1280 C   0  0  0  0  0  0  0  0  0  0  0  0
  158.6710  212.5750  150.8860 C   0  0  0  0  0  2  0  0  0  0  0  0
  162.0360  211.1070  157.0590 C   0  0  0  0  0  3  0  0  0  0  0  0
  163.3330  210.9140  157.2610 C   0  0  0  0  0  2  0  0  0  0  0  0
  2 27  1  0  0  0  0
  3 16  1  0  0  0  0
  4  1  1  1  0  0  0
  4 18  1  0  0  0  0
  4 17  1  0  0  0  0
  5  2  1  0  0  0  0
  7  8  1  0  0  0  0
  7 12  1  0  0  0  0
  8 15  1  0  0  0  0
  9  5  1  0  0  0  0
 10  1  1  0  0  0  0
 11  6  1  0  0  0  0
 11 16  2  0  0  0  0
 12 10  1  0  0  0  0
 13  3  2  0  0  0  0
 14 15  2  0  0  0  0
 14 13  1  0  0  0  0
 15 11  1  0  0  0  0
 17  5  2  0  0  0  0
 18  6  1  6  0  0  0
 18  9  1  0  0  0  0
 20 22  1  0  0  0  0
 22 26  1  0  0  0  0
 22 19  1  0  0  0  0
 22 21  1  0  0  0  0
 23 24  1  0  0  0  0
 23 20  1  0  0  0  0
 24 25  1  0  0  0  0
 25 10  1  0  0  0  0
 25 19  2  0  0  0  0
 26 21  1  0  0  0  0
 27 28  2  0  0  0  0
M  END
>  <MODEL>
9

>  <REMARK>
 VINA RESULT:      -2.6      0.629      1.514
  Name = 
  2 active torsions:
  status: ('A' for Active; 'I' for Inactive)
    1  A    between atoms: N_2  and  C_7
    2  A    between atoms: N_16  and  C_24
                            x       y       z     vdW  Elec       q    Type
                         _______ _______ _______ _____ _____    ______ ____

>  <TORSDO>
F 2

$$$$
