=
 OpenBabel11052410363D

 40 44  0  0  0  0  0  0  0  0999 V2000
  162.1260  208.7560  149.6300 C   0  0  0  0  0  0  0  0  0  0  0  0
  160.1610  210.5000  153.5420 C   0  0  0  0  0  2  0  0  0  0  0  0
  162.3520  208.9390  148.2620 C   0  0  0  0  0  3  0  0  0  0  0  0
  161.0970  204.5710  153.6830 C   0  0  0  0  0  2  0  0  0  0  0  0
  160.9310  206.0250  153.5070 C   0  0  0  0  0  0  0  0  0  0  0  0
  161.4530  208.6670  152.3840 N   0  0  0  0  0  0  0  0  0  0  0  0
  159.0560  213.4500  155.2770 C   0  0  0  0  0  3  0  0  0  0  0  0
  160.6770  206.8780  149.1330 C   0  0  0  0  0  3  0  0  0  0  0  0
  159.3620  212.1970  155.0780 C   0  0  0  0  0  0  0  0  0  0  0  0
  162.4020  209.6320  151.8880 C   0  0  0  0  0  3  0  0  0  0  0  0
  160.8260  205.0400  151.3760 C   0  0  0  0  0  2  0  0  0  0  0  0
  159.2730  209.9500  155.8810 C   0  0  0  0  0  3  0  0  0  0  0  0
  160.8630  203.9600  152.3710 N   0  0  0  0  0  0  0  0  0  0  0  0
  161.1120  207.5390  151.5510 C   0  0  0  0  0  0  0  0  0  0  0  0
  161.7440  208.0930  147.3320 C   0  0  0  0  0  3  0  0  0  0  0  0
  160.2920  208.1940  154.4900 C   0  0  0  0  0  0  0  0  0  0  0  0
  161.3000  207.7080  150.0790 C   0  0  0  0  0  0  0  0  0  0  0  0
  160.8630  206.3380  152.1040 C   0  0  0  0  0  0  0  0  0  0  0  0
  160.6420  209.0590  153.5070 C   0  0  0  0  0  0  0  0  0  0  0  0
  162.7390  209.6790  150.5960 C   0  0  0  0  0  3  0  0  0  0  0  0
  159.5660  208.6680  155.6860 C   0  0  0  0  0  3  0  0  0  0  0  0
  160.8980  207.0600  147.7650 C   0  0  0  0  0  0  0  0  0  0  0  0
  159.6590  210.9440  154.8820 C   0  0  0  0  0  0  0  0  0  0  0  0
  160.6570  206.8080  154.5040 N   0  0  0  0  0  0  0  0  0  0  0  0
  157.9910  213.9020  156.6410 S   0  0  0  0  0  0  0  0  0  0  0  0
  155.9390  212.1040  156.4940 C   0  0  0  0  0  1  0  0  0  0  0  0
  156.4890  213.3300  155.7930 C   0  0  0  0  0  2  0  0  0  0  0  0
  162.0220  203.1360  152.0640 C   0  0  0  0  0  2  0  0  0  0  0  0
  161.8530  202.4910  150.7000 C   0  0  0  0  0  2  0  0  0  0  0  0
  160.1610  201.1230  149.6350 N   0  0  0  0  0  0  0  0  0  0  0  0
  160.6150  201.7240  150.6670 N   0  0  0  0  0  0  0  0  0  0  0  0
  161.6050  200.2180  148.0050 O   0  0  0  0  0  0  0  0  0  0  0  0
  160.7640  201.1040  148.3290 C   0  0  0  0  0  0  0  0  0  0  0  0
  160.4010  202.1180  147.3880 N   0  0  0  0  0  2  0  0  0  0  0  0
  160.9960  202.2090  146.0580 C   0  0  0  0  0  2  0  0  0  0  0  0
  160.0300  201.6700  145.0170 C   0  0  0  0  0  1  0  0  0  0  0  0
  160.2500  206.1850  146.8340 N   0  0  0  0  0  2  0  0  0  0  0  0
  160.6290  206.0420  145.4340 C   0  0  0  0  0  3  0  0  0  0  0  0
  159.7450  205.2000  144.7840 F   0  0  0  0  0  0  0  0  0  0  0  0
  161.9150  205.5430  145.3340 F   0  0  0  0  0  0  0  0  0  0  0  0
  1 17  1  0  0  0  0
  1 20  1  0  0  0  0
  2 23  1  0  0  0  0
  3  1  2  0  0  0  0
  5  4  1  0  0  0  0
  5 24  2  0  0  0  0
  6 19  1  0  0  0  0
  7 25  1  0  0  0  0
  8 17  2  0  0  0  0
  9  7  2  0  0  0  0
 10  6  1  0  0  0  0
 11 18  1  0  0  0  0
 11 13  1  0  0  0  0
 13  4  1  0  0  0  0
 14 18  2  0  0  0  0
 14  6  1  0  0  0  0
 15 22  2  0  0  0  0
 15  3  1  0  0  0  0
 16 24  1  0  0  0  0
 16 21  1  0  0  0  0
 17 14  1  0  0  0  0
 18  5  1  0  0  0  0
 19  2  1  0  0  0  0
 19 16  2  0  0  0  0
 20 10  2  0  0  0  0
 21 12  2  0  0  0  0
 22  8  1  0  0  0  0
 23  9  2  0  0  0  0
 23 12  1  0  0  0  0
 27 26  1  0  0  0  0
 27 25  1  0  0  0  0
 28 13  1  0  0  0  0
 29 28  1  0  0  0  0
 30 31  2  0  0  0  0
 31 29  1  0  0  0  0
 32 33  2  0  0  0  0
 33 30  1  0  0  0  0
 34 33  1  0  0  0  0
 35 34  1  0  0  0  0
 36 35  1  0  0  0  0
 37 22  1  0  0  0  0
 38 37  1  0  0  0  0
 39 38  1  0  0  0  0
 40 38  1  0  0  0  0
M  END
>  <MODEL>
1

>  <REMARK>
 VINA RESULT:      -5.8      0.000      0.000
  Name = 
  9 active torsions:
  status: ('A' for Active; 'I' for Inactive)
    1  A    between atoms: C_1  and  C_19
    2  A    between atoms: C_1  and  N_25
    3  A    between atoms: N_2  and  C_21
    4  A    between atoms: C_6  and  N_30
    5  A    between atoms: C_11  and  S_15
    6  A    between atoms: S_15  and  C_39
    7  A    between atoms: N_18  and  C_19
    8  A    between atoms: C_26  and  N_40
    9  A    between atoms: N_30  and  C_32
                            x       y       z     vdW  Elec       q    Type
                         _______ _______ _______ _____ _____    ______ ____

>  <TORSDO>
F 9

$$$$
=
 OpenBabel11052410363D

 40 44  0  0  0  0  0  0  0  0999 V2000
  160.9720  210.4310  153.7960 C   0  0  0  0  0  0  0  0  0  0  0  0
  161.1230  206.4090  151.3460 C   0  0  0  0  0  2  0  0  0  0  0  0
  160.4940  211.0780  154.9400 C   0  0  0  0  0  3  0  0  0  0  0  0
  162.1800  211.3310  148.0750 C   0  0  0  0  0  2  0  0  0  0  0  0
  161.9070  210.2180  149.0000 C   0  0  0  0  0  0  0  0  0  0  0  0
  161.7350  208.8470  151.5710 N   0  0  0  0  0  0  0  0  0  0  0  0
  160.9250  202.8210  151.4690 C   0  0  0  0  0  3  0  0  0  0  0  0
  159.5200  211.8020  152.4230 C   0  0  0  0  0  3  0  0  0  0  0  0
  161.1300  204.0120  150.9800 C   0  0  0  0  0  0  0  0  0  0  0  0
  162.2920  208.6000  152.8770 C   0  0  0  0  0  3  0  0  0  0  0  0
  160.8010  212.1150  149.8360 C   0  0  0  0  0  2  0  0  0  0  0  0
  161.5100  205.3560  149.0430 C   0  0  0  0  0  3  0  0  0  0  0  0
  161.3520  212.4570  148.5180 N   0  0  0  0  0  0  0  0  0  0  0  0
  161.0640  210.1010  151.3300 C   0  0  0  0  0  0  0  0  0  0  0  0
  159.5330  212.0850  154.8260 C   0  0  0  0  0  3  0  0  0  0  0  0
  161.7680  207.7830  149.3630 C   0  0  0  0  0  0  0  0  0  0  0  0
  160.5020  210.8040  152.5220 C   0  0  0  0  0  0  0  0  0  0  0  0
  161.1520  210.6980  150.1270 C   0  0  0  0  0  0  0  0  0  0  0  0
  161.5670  207.7120  150.7020 C   0  0  0  0  0  0  0  0  0  0  0  0
  161.9520  209.3440  153.9330 C   0  0  0  0  0  3  0  0  0  0  0  0
  161.7070  206.5660  148.5280 C   0  0  0  0  0  3  0  0  0  0  0  0
  159.0370  212.4480  153.5640 C   0  0  0  0  0  0  0  0  0  0  0  0
  161.3290  205.2000  150.4840 C   0  0  0  0  0  0  0  0  0  0  0  0
  162.1340  208.9830  148.6710 N   0  0  0  0  0  0  0  0  0  0  0  0
  160.6510  201.4380  150.3660 S   0  0  0  0  0  0  0  0  0  0  0  0
  160.9530  201.8930  147.6890 C   0  0  0  0  0  1  0  0  0  0  0  0
  160.3430  202.5110  148.9320 C   0  0  0  0  0  2  0  0  0  0  0  0
  162.2350  213.5970  148.7070 C   0  0  0  0  0  2  0  0  0  0  0  0
  162.3820  214.3620  147.4030 C   0  0  0  0  0  2  0  0  0  0  0  0
  160.8480  214.0240  145.5580 N   0  0  0  0  0  0  0  0  0  0  0  0
  161.0900  214.4530  146.7370 N   0  0  0  0  0  0  0  0  0  0  0  0
  163.0240  213.3420  144.9560 O   0  0  0  0  0  0  0  0  0  0  0  0
  161.7940  213.3960  144.6730 C   0  0  0  0  0  0  0  0  0  0  0  0
  161.3190  212.8290  143.4490 N   0  0  0  0  0  2  0  0  0  0  0  0
  162.2090  212.2160  142.4670 C   0  0  0  0  0  2  0  0  0  0  0  0
  161.4630  211.9810  141.1640 C   0  0  0  0  0  1  0  0  0  0  0  0
  158.0430  213.4680  153.4170 N   0  0  0  0  0  2  0  0  0  0  0  0
  156.6110  213.2570  153.5910 C   0  0  0  0  0  3  0  0  0  0  0  0
  156.0590  214.2970  154.3160 F   0  0  0  0  0  0  0  0  0  0  0  0
  156.3790  212.0560  154.2390 F   0  0  0  0  0  0  0  0  0  0  0  0
  1 20  1  0  0  0  0
  1  3  1  0  0  0  0
  4 13  1  0  0  0  0
  4  5  1  0  0  0  0
  5 18  1  0  0  0  0
  6 10  1  0  0  0  0
  8 17  1  0  0  0  0
  8 22  2  0  0  0  0
  9  7  2  0  0  0  0
 10 20  2  0  0  0  0
 11 18  1  0  0  0  0
 12 23  1  0  0  0  0
 13 28  1  0  0  0  0
 13 11  1  0  0  0  0
 14  6  1  0  0  0  0
 14 17  1  0  0  0  0
 15  3  2  0  0  0  0
 16 19  2  0  0  0  0
 17  1  2  0  0  0  0
 18 14  2  0  0  0  0
 19  2  1  0  0  0  0
 19  6  1  0  0  0  0
 21 12  2  0  0  0  0
 21 16  1  0  0  0  0
 22 15  1  0  0  0  0
 23  9  2  0  0  0  0
 23  2  1  0  0  0  0
 24  5  2  0  0  0  0
 24 16  1  0  0  0  0
 25  7  1  0  0  0  0
 26 27  1  0  0  0  0
 27 25  1  0  0  0  0
 29 28  1  0  0  0  0
 30 31  2  0  0  0  0
 31 29  1  0  0  0  0
 33 32  2  0  0  0  0
 33 30  1  0  0  0  0
 34 33  1  0  0  0  0
 35 34  1  0  0  0  0
 36 35  1  0  0  0  0
 37 22  1  0  0  0  0
 37 38  1  0  0  0  0
 38 40  1  0  0  0  0
 38 39  1  0  0  0  0
M  END
>  <MODEL>
2

>  <REMARK>
 VINA RESULT:      -5.0      5.520      9.480
  Name = 
  9 active torsions:
  status: ('A' for Active; 'I' for Inactive)
    1  A    between atoms: C_1  and  C_19
    2  A    between atoms: C_1  and  N_25
    3  A    between atoms: N_2  and  C_21
    4  A    between atoms: C_6  and  N_30
    5  A    between atoms: C_11  and  S_15
    6  A    between atoms: S_15  and  C_39
    7  A    between atoms: N_18  and  C_19
    8  A    between atoms: C_26  and  N_40
    9  A    between atoms: N_30  and  C_32
                            x       y       z     vdW  Elec       q    Type
                         _______ _______ _______ _____ _____    ______ ____

>  <TORSDO>
F 9

$$$$
=
 OpenBabel11052410363D

 40 44  0  0  0  0  0  0  0  0999 V2000
  161.0860  209.4110  153.7730 C   0  0  0  0  0  0  0  0  0  0  0  0
  160.8260  205.7050  150.8740 C   0  0  0  0  0  2  0  0  0  0  0  0
  160.6860  209.9620  154.9950 C   0  0  0  0  0  3  0  0  0  0  0  0
  162.3040  210.8560  148.1670 C   0  0  0  0  0  2  0  0  0  0  0  0
  161.9380  209.6720  148.9640 C   0  0  0  0  0  0  0  0  0  0  0  0
  161.6690  208.0330  151.3640 N   0  0  0  0  0  0  0  0  0  0  0  0
  160.2890  202.1610  150.5890 C   0  0  0  0  0  3  0  0  0  0  0  0
  159.7540  211.0620  152.6010 C   0  0  0  0  0  3  0  0  0  0  0  0
  160.6010  203.3770  150.2350 C   0  0  0  0  0  0  0  0  0  0  0  0
  162.2160  207.5850  152.6200 C   0  0  0  0  0  3  0  0  0  0  0  0
  161.0270  211.5540  150.0380 C   0  0  0  0  0  2  0  0  0  0  0  0
  161.0830  204.8970  148.4570 C   0  0  0  0  0  3  0  0  0  0  0  0
  161.5920  211.9950  148.7550 N   0  0  0  0  0  0  0  0  0  0  0  0
  161.1160  209.3630  151.2840 C   0  0  0  0  0  0  0  0  0  0  0  0
  159.8230  211.0600  155.0190 C   0  0  0  0  0  3  0  0  0  0  0  0
  161.5730  207.2350  149.0480 C   0  0  0  0  0  0  0  0  0  0  0  0
  160.6380  209.9720  152.5610 C   0  0  0  0  0  0  0  0  0  0  0  0
  161.2460  210.0860  150.1560 C   0  0  0  0  0  0  0  0  0  0  0  0
  161.3830  207.0280  150.3740 C   0  0  0  0  0  0  0  0  0  0  0  0
  161.9610  208.2300  153.7620 C   0  0  0  0  0  3  0  0  0  0  0  0
  161.3870  206.1350  148.0800 C   0  0  0  0  0  3  0  0  0  0  0  0
  159.3490  211.6120  153.8200 C   0  0  0  0  0  0  0  0  0  0  0  0
  160.9050  204.5910  149.8740 C   0  0  0  0  0  0  0  0  0  0  0  0
  162.0430  208.4690  148.4900 N   0  0  0  0  0  0  0  0  0  0  0  0
  159.8720  200.9480  149.3410 S   0  0  0  0  0  0  0  0  0  0  0  0
  161.0480  201.6150  146.9660 C   0  0  0  0  0  1  0  0  0  0  0  0
  161.3950  201.2470  148.3950 C   0  0  0  0  0  2  0  0  0  0  0  0
  162.5810  213.0180  149.0540 C   0  0  0  0  0  2  0  0  0  0  0  0
  162.2730  214.2820  148.2710 C   0  0  0  0  0  2  0  0  0  0  0  0
  161.9300  213.7880  145.9230 N   0  0  0  0  0  0  0  0  0  0  0  0
  162.7000  214.1210  146.8870 N   0  0  0  0  0  0  0  0  0  0  0  0
  160.0440  212.4170  145.5700 O   0  0  0  0  0  0  0  0  0  0  0  0
  160.5250  213.4940  146.0220 C   0  0  0  0  0  0  0  0  0  0  0  0
  159.6640  214.4530  146.6420 N   0  0  0  0  0  2  0  0  0  0  0  0
  158.2190  214.2660  146.7430 C   0  0  0  0  0  2  0  0  0  0  0  0
  157.8580  213.7440  148.1240 C   0  0  0  0  0  1  0  0  0  0  0  0
  158.4530  212.7300  153.8140 N   0  0  0  0  0  2  0  0  0  0  0  0
  157.0550  212.6710  154.2230 C   0  0  0  0  0  3  0  0  0  0  0  0
  156.8950  213.2630  155.4630 F   0  0  0  0  0  0  0  0  0  0  0  0
  156.6250  211.3570  154.2700 F   0  0  0  0  0  0  0  0  0  0  0  0
  1  3  1  0  0  0  0
  3 15  2  0  0  0  0
  4 13  1  0  0  0  0
  4  5  1  0  0  0  0
  5 18  1  0  0  0  0
  6 10  1  0  0  0  0
  8 22  2  0  0  0  0
  9  7  2  0  0  0  0
 10 20  2  0  0  0  0
 11 18  1  0  0  0  0
 12 23  1  0  0  0  0
 13 28  1  0  0  0  0
 13 11  1  0  0  0  0
 14  6  1  0  0  0  0
 14 17  1  0  0  0  0
 16 19  2  0  0  0  0
 17  8  1  0  0  0  0
 17  1  2  0  0  0  0
 18 14  2  0  0  0  0
 19  2  1  0  0  0  0
 19  6  1  0  0  0  0
 20  1  1  0  0  0  0
 21 12  2  0  0  0  0
 21 16  1  0  0  0  0
 22 15  1  0  0  0  0
 23  9  2  0  0  0  0
 23  2  1  0  0  0  0
 24  5  2  0  0  0  0
 24 16  1  0  0  0  0
 25  7  1  0  0  0  0
 26 27  1  0  0  0  0
 27 25  1  0  0  0  0
 29 28  1  0  0  0  0
 30 33  1  0  0  0  0
 30 31  2  0  0  0  0
 31 29  1  0  0  0  0
 32 33  2  0  0  0  0
 33 34  1  0  0  0  0
 34 35  1  0  0  0  0
 35 36  1  0  0  0  0
 37 22  1  0  0  0  0
 37 38  1  0  0  0  0
 38 40  1  0  0  0  0
 38 39  1  0  0  0  0
M  END
>  <MODEL>
3

>  <REMARK>
 VINA RESULT:      -4.8      5.413      9.643
  Name = 
  9 active torsions:
  status: ('A' for Active; 'I' for Inactive)
    1  A    between atoms: C_1  and  C_19
    2  A    between atoms: C_1  and  N_25
    3  A    between atoms: N_2  and  C_21
    4  A    between atoms: C_6  and  N_30
    5  A    between atoms: C_11  and  S_15
    6  A    between atoms: S_15  and  C_39
    7  A    between atoms: N_18  and  C_19
    8  A    between atoms: C_26  and  N_40
    9  A    between atoms: N_30  and  C_32
                            x       y       z     vdW  Elec       q    Type
                         _______ _______ _______ _____ _____    ______ ____

>  <TORSDO>
F 9

$$$$
=
 OpenBabel11052410363D

 40 44  0  0  0  0  0  0  0  0999 V2000
  161.9400  208.1870  149.4270 C   0  0  0  0  0  0  0  0  0  0  0  0
  160.3850  209.5820  153.6510 C   0  0  0  0  0  2  0  0  0  0  0  0
  162.0630  208.5050  148.0700 C   0  0  0  0  0  3  0  0  0  0  0  0
  161.0420  203.6390  153.1020 C   0  0  0  0  0  2  0  0  0  0  0  0
  160.9330  205.1090  153.0910 C   0  0  0  0  0  0  0  0  0  0  0  0
  161.4890  207.8330  152.2040 N   0  0  0  0  0  0  0  0  0  0  0  0
  159.5690  212.3720  155.7670 C   0  0  0  0  0  3  0  0  0  0  0  0
  160.3660  206.4320  148.8660 C   0  0  0  0  0  3  0  0  0  0  0  0
  159.7970  211.1360  155.4160 C   0  0  0  0  0  0  0  0  0  0  0  0
  162.4400  208.8070  151.7300 C   0  0  0  0  0  3  0  0  0  0  0  0
  160.6080  204.3610  150.8870 C   0  0  0  0  0  2  0  0  0  0  0  0
  159.6650  208.8220  155.9890 C   0  0  0  0  0  3  0  0  0  0  0  0
  160.6740  203.1810  151.7590 N   0  0  0  0  0  0  0  0  0  0  0  0
  161.0280  206.8140  151.2920 C   0  0  0  0  0  0  0  0  0  0  0  0
  161.3400  207.7870  147.1140 C   0  0  0  0  0  3  0  0  0  0  0  0
  160.4810  207.1840  154.3420 C   0  0  0  0  0  0  0  0  0  0  0  0
  161.1030  207.1310  149.8350 C   0  0  0  0  0  0  0  0  0  0  0  0
  160.7660  205.5720  151.7380 C   0  0  0  0  0  0  0  0  0  0  0  0
  160.7920  208.1350  153.4270 C   0  0  0  0  0  0  0  0  0  0  0  0
  162.6730  208.9780  150.4260 C   0  0  0  0  0  3  0  0  0  0  0  0
  159.8780  207.5570  155.6380 C   0  0  0  0  0  3  0  0  0  0  0  0
  160.4830  206.7490  147.5090 C   0  0  0  0  0  0  0  0  0  0  0  0
  160.0150  209.9000  155.0680 C   0  0  0  0  0  0  0  0  0  0  0  0
  160.7790  205.7920  154.1830 N   0  0  0  0  0  0  0  0  0  0  0  0
  158.6410  212.7180  157.2580 S   0  0  0  0  0  0  0  0  0  0  0  0
  156.1010  212.9310  156.2720 C   0  0  0  0  0  1  0  0  0  0  0  0
  157.1430  211.8930  156.6400 C   0  0  0  0  0  2  0  0  0  0  0  0
  161.7630  202.3490  151.2710 C   0  0  0  0  0  2  0  0  0  0  0  0
  161.7460  202.3130  149.7530 C   0  0  0  0  0  2  0  0  0  0  0  0
  160.7850  200.8480  148.0790 N   0  0  0  0  0  0  0  0  0  0  0  0
  161.0940  201.0940  149.2950 N   0  0  0  0  0  0  0  0  0  0  0  0
  160.5290  201.4530  145.8150 O   0  0  0  0  0  0  0  0  0  0  0  0
  161.0030  201.7190  146.9550 C   0  0  0  0  0  0  0  0  0  0  0  0
  161.7780  202.9050  147.1440 N   0  0  0  0  0  2  0  0  0  0  0  0
  162.0940  203.8230  146.0530 C   0  0  0  0  0  2  0  0  0  0  0  0
  163.4400  204.4830  146.3010 C   0  0  0  0  0  1  0  0  0  0  0  0
  159.7200  206.0040  146.5530 N   0  0  0  0  0  2  0  0  0  0  0  0
  160.2080  205.6060  145.2380 C   0  0  0  0  0  3  0  0  0  0  0  0
  160.4290  206.7230  144.4530 F   0  0  0  0  0  0  0  0  0  0  0  0
  159.2940  204.7700  144.6210 F   0  0  0  0  0  0  0  0  0  0  0  0
  1 17  1  0  0  0  0
  1 20  1  0  0  0  0
  2 23  1  0  0  0  0
  3  1  2  0  0  0  0
  5  4  1  0  0  0  0
  5 24  2  0  0  0  0
  6 19  1  0  0  0  0
  7 25  1  0  0  0  0
  8 17  2  0  0  0  0
  9  7  2  0  0  0  0
 10  6  1  0  0  0  0
 11 18  1  0  0  0  0
 11 13  1  0  0  0  0
 13  4  1  0  0  0  0
 14 18  2  0  0  0  0
 14  6  1  0  0  0  0
 15 22  2  0  0  0  0
 15  3  1  0  0  0  0
 16 21  1  0  0  0  0
 17 14  1  0  0  0  0
 18  5  1  0  0  0  0
 19  2  1  0  0  0  0
 19 16  2  0  0  0  0
 20 10  2  0  0  0  0
 21 12  2  0  0  0  0
 22  8  1  0  0  0  0
 23  9  2  0  0  0  0
 23 12  1  0  0  0  0
 24 16  1  0  0  0  0
 26 27  1  0  0  0  0
 27 25  1  0  0  0  0
 28 13  1  0  0  0  0
 29 28  1  0  0  0  0
 30 31  2  0  0  0  0
 31 29  1  0  0  0  0
 32 33  2  0  0  0  0
 33 34  1  0  0  0  0
 33 30  1  0  0  0  0
 35 36  1  0  0  0  0
 35 34  1  0  0  0  0
 37 22  1  0  0  0  0
 38 37  1  0  0  0  0
 39 38  1  0  0  0  0
 40 38  1  0  0  0  0
M  END
>  <MODEL>
4

>  <REMARK>
 VINA RESULT:      -3.6      1.169      1.444
  Name = 
  9 active torsions:
  status: ('A' for Active; 'I' for Inactive)
    1  A    between atoms: C_1  and  C_19
    2  A    between atoms: C_1  and  N_25
    3  A    between atoms: N_2  and  C_21
    4  A    between atoms: C_6  and  N_30
    5  A    between atoms: C_11  and  S_15
    6  A    between atoms: S_15  and  C_39
    7  A    between atoms: N_18  and  C_19
    8  A    between atoms: C_26  and  N_40
    9  A    between atoms: N_30  and  C_32
                            x       y       z     vdW  Elec       q    Type
                         _______ _______ _______ _____ _____    ______ ____

>  <TORSDO>
F 9

$$$$
