=
 OpenBabel11042420353D

 49 54  0  0  1  0  0  0  0  0999 V2000
  161.1060  210.9850  150.7270 C   0  0  2  0  0  3  0  0  0  0  0  0
  162.1210  211.8310  149.9540 C   0  0  0  0  0  2  0  0  0  0  0  0
  160.7280  213.5570  146.2750 C   0  0  1  0  0  3  0  0  0  0  0  0
  162.2450  213.4400  146.4030 C   0  0  0  0  0  2  0  0  0  0  0  0
  162.6380  212.4830  147.5340 C   0  0  0  0  0  2  0  0  0  0  0  0
  161.5730  212.3860  148.6380 C   0  0  2  0  0  3  0  0  0  0  0  0
  160.0880  214.1210  147.5540 C   0  0  0  0  0  2  0  0  0  0  0  0
  160.8230  213.7040  148.8380 C   0  0  0  0  0  2  0  0  0  0  0  0
  160.3480  214.3820  145.0540 C   0  0  0  0  0  2  0  0  0  0  0  0
  159.3380  213.6960  144.1760 C   0  0  0  0  0  0  0  0  0  0  0  0
  158.1230  213.6600  144.5160 O   0  0  0  0  0  0  0  0  0  0  0  0
  161.2810  211.5310  141.8510 C   0  0  0  0  0  3  0  0  0  0  0  0
  160.8680  212.2000  142.9600 N   0  0  0  0  0  0  0  0  0  0  0  0
  159.4590  212.4880  140.6080 C   0  0  0  0  0  3  0  0  0  0  0  0
  159.7740  213.0120  142.9460 C   0  0  0  0  0  0  0  0  0  0  0  0
  159.0530  213.1750  141.7530 C   0  0  0  0  0  3  0  0  0  0  0  0
  160.5860  211.6550  140.6410 C   0  0  0  0  0  0  0  0  0  0  0  0
  161.0050  210.9370  139.4650 N   0  0  0  0  0  0  0  0  0  0  0  0
  162.0820  209.6550  137.2820 O   0  0  0  0  0  0  0  0  0  0  0  0
  161.1750  211.6720  138.1960 C   0  0  0  0  0  2  0  0  0  0  0  0
  161.2010  210.7080  137.0110 C   0  0  0  0  0  2  0  0  0  0  0  0
  161.3970  208.8330  138.1910 C   0  0  0  0  0  2  0  0  0  0  0  0
  161.3490  209.5060  139.5700 C   0  0  0  0  0  2  0  0  0  0  0  0
  160.4910  211.7580  151.8090 N   0  0  0  0  0  2  0  0  0  0  0  0
  160.6450  211.0000  153.0470 C   0  0  0  0  0  2  0  0  0  0  0  0
  158.3190  211.8660  153.4530 C   0  0  0  0  0  3  0  0  0  0  0  0
  158.3450  210.7950  155.9980 N   0  0  0  0  0  0  0  0  0  0  0  0
  159.4470  210.6600  155.2120 C   0  0  0  0  0  3  0  0  0  0  0  0
  159.4560  211.1970  153.9220 C   0  0  0  0  0  0  0  0  0  0  0  0
  157.1990  211.9950  154.2770 C   0  0  0  0  0  3  0  0  0  0  0  0
  157.2320  211.4420  155.5610 C   0  0  0  0  0  0  0  0  0  0  0  0
  156.0960  211.5580  156.4100 N   0  0  0  0  0  1  0  0  0  0  0  0
  161.7190  209.7570  151.2560 N   0  0  0  0  0  2  0  0  0  0  0  0
  162.4890  209.1390  150.2490 N   0  0  0  0  0  2  0  0  0  0  0  0
  162.6140  207.5960  148.5180 O   0  0  0  0  0  0  0  0  0  0  0  0
  161.9900  208.0010  149.5400 C   0  0  0  0  0  0  0  0  0  0  0  0
  160.6760  205.8400  149.6650 N   0  0  0  0  0  0  0  0  0  0  0  0
  161.5820  205.0530  151.8070 C   0  0  0  0  0  2  0  0  0  0  0  0
  160.7730  207.2610  150.0660 C   0  0  1  0  0  3  0  0  0  0  0  0
  160.7280  207.3780  151.5620 C   0  0  0  0  0  3  0  0  0  0  0  0
  161.1540  206.3920  152.3560 C   0  0  0  0  0  0  0  0  0  0  0  0
  161.7550  205.0670  150.2830 C   0  0  0  0  0  2  0  0  0  0  0  0
  161.1420  206.5830  153.7800 C   0  0  0  0  0  0  0  0  0  0  0  0
  161.1150  206.7520  154.9770 C   0  0  0  0  0  3  0  0  0  0  0  0
  160.7600  205.7070  148.2110 C   0  0  0  0  0  2  0  0  0  0  0  0
  161.4920  204.4180  147.8600 C   0  0  0  0  0  2  0  0  0  0  0  0
  161.9770  205.6520  145.7800 C   0  0  0  0  0  2  0  0  0  0  0  0
  161.6520  204.2860  146.3510 C   0  0  0  0  0  3  0  0  0  0  0  0
  163.0780  204.6300  145.9640 C   0  0  0  0  0  2  0  0  0  0  0  0
  1  2  1  1  0  0  0
  1 33  1  0  0  0  0
  1 24  1  0  0  0  0
  3  9  1  6  0  0  0
  3  4  1  0  0  0  0
  3  7  1  0  0  0  0
  4  5  1  0  0  0  0
  5  6  1  0  0  0  0
  6  8  1  0  0  0  0
  6  2  1  1  0  0  0
  7  8  1  0  0  0  0
 10 11  2  0  0  0  0
 10  9  1  0  0  0  0
 12 13  1  0  0  0  0
 14 17  1  0  0  0  0
 14 16  2  0  0  0  0
 15 13  2  0  0  0  0
 15 10  1  0  0  0  0
 16 15  1  0  0  0  0
 17 12  2  0  0  0  0
 18 23  1  0  0  0  0
 18 17  1  0  0  0  0
 19 22  1  0  0  0  0
 20 18  1  0  0  0  0
 21 19  1  0  0  0  0
 21 20  1  0  0  0  0
 22 23  1  0  0  0  0
 24 25  1  0  0  0  0
 25 29  1  0  0  0  0
 26 29  2  0  0  0  0
 26 30  1  0  0  0  0
 28 27  2  0  0  0  0
 29 28  1  0  0  0  0
 30 31  2  0  0  0  0
 31 27  1  0  0  0  0
 31 32  1  0  0  0  0
 34 33  1  0  0  0  0
 35 36  2  0  0  0  0
 36 34  1  0  0  0  0
 37 39  1  0  0  0  0
 37 42  1  0  0  0  0
 38 41  1  0  0  0  0
 39 36  1  1  0  0  0
 39 40  1  0  0  0  0
 40 41  2  0  0  0  0
 41 43  1  0  0  0  0
 42 38  1  0  0  0  0
 43 44  3  0  0  0  0
 45 37  1  0  0  0  0
 46 45  1  0  0  0  0
 47 49  1  0  0  0  0
 47 48  1  0  0  0  0
 48 46  1  0  0  0  0
 49 48  1  0  0  0  0
M  END
>  <MODEL>
1

>  <REMARK>
 VINA RESULT:      -7.1      0.000      0.000
  Name = 
  16 active torsions:
  status: ('A' for Active; 'I' for Inactive)
    1  A    between atoms: C_1  and  C_46
    2  A    between atoms: N_3  and  C_44
    3  A    between atoms: N_6  and  N_16
    4  A    between atoms: N_6  and  C_18
    5  A    between atoms: N_7  and  C_25
    6  A    between atoms: C_11  and  C_23
    7  A    between atoms: C_11  and  N_28
    8  A    between atoms: C_12  and  C_45
    9  A    between atoms: C_18  and  C_22
   10  A    between atoms: C_18  and  N_28
   11  A    between atoms: C_20  and  C_48
   12  A    between atoms: C_22  and  C_40
   13  A    between atoms: C_24  and  C_37
   14  A    between atoms: C_25  and  C_48
   15  A    between atoms: C_29  and  C_33
   16  A    between atoms: C_33  and  C_46
                            x       y       z     vdW  Elec       q    Type
                         _______ _______ _______ _____ _____    ______ ____

>  <TORSDO>
F 16

$$$$
=
 OpenBabel11042420353D

 49 54  0  0  1  0  0  0  0  0999 V2000
  159.6460  212.4250  151.9780 C   0  0  2  0  0  3  0  0  0  0  0  0
  160.7540  213.0360  151.1160 C   0  0  0  0  0  2  0  0  0  0  0  0
  159.7020  213.8360  147.0280 C   0  0  1  0  0  3  0  0  0  0  0  0
  161.1690  214.0750  147.3800 C   0  0  0  0  0  2  0  0  0  0  0  0
  161.5410  213.4110  148.7100 C   0  0  0  0  0  2  0  0  0  0  0  0
  160.3420  213.2510  149.6590 C   0  0  2  0  0  3  0  0  0  0  0  0
  158.7570  214.4340  148.0840 C   0  0  0  0  0  2  0  0  0  0  0  0
  159.3280  214.3880  149.5100 C   0  0  0  0  0  2  0  0  0  0  0  0
  159.3840  214.3630  145.6370 C   0  0  0  0  0  2  0  0  0  0  0  0
  158.9210  213.2860  144.6960 C   0  0  0  0  0  0  0  0  0  0  0  0
  157.9510  212.5410  145.0140 O   0  0  0  0  0  0  0  0  0  0  0  0
  161.5400  212.2250  142.2710 C   0  0  0  0  0  3  0  0  0  0  0  0
  160.8660  212.4770  143.4250 N   0  0  0  0  0  0  0  0  0  0  0  0
  159.7140  213.1550  141.0150 C   0  0  0  0  0  3  0  0  0  0  0  0
  159.6330  213.0570  143.4270 C   0  0  0  0  0  0  0  0  0  0  0  0
  159.0390  213.4160  142.2080 C   0  0  0  0  0  3  0  0  0  0  0  0
  160.9810  212.5560  141.0300 C   0  0  0  0  0  0  0  0  0  0  0  0
  161.6790  212.2760  139.8020 N   0  0  0  0  0  0  0  0  0  0  0  0
  162.8270  211.5130  137.4210 O   0  0  0  0  0  0  0  0  0  0  0  0
  162.7450  211.2540  139.7990 C   0  0  0  0  0  2  0  0  0  0  0  0
  163.6300  211.3990  138.5620 C   0  0  0  0  0  2  0  0  0  0  0  0
  162.3250  212.8230  137.4600 C   0  0  0  0  0  2  0  0  0  0  0  0
  161.2560  212.9410  138.5560 C   0  0  0  0  0  2  0  0  0  0  0  0
  159.3310  213.2850  153.1210 N   0  0  0  0  0  2  0  0  0  0  0  0
  157.9370  213.7030  152.9990 C   0  0  0  0  0  2  0  0  0  0  0  0
  157.0150  211.6950  154.2020 C   0  0  0  0  0  3  0  0  0  0  0  0
  155.7840  213.3430  156.0440 N   0  0  0  0  0  0  0  0  0  0  0  0
  156.4910  213.9020  155.0250 C   0  0  0  0  0  3  0  0  0  0  0  0
  157.1200  213.0860  154.0810 C   0  0  0  0  0  0  0  0  0  0  0  0
  156.2820  211.1420  155.2530 C   0  0  0  0  0  3  0  0  0  0  0  0
  155.6690  211.9940  156.1770 C   0  0  0  0  0  0  0  0  0  0  0  0
  154.9240  211.4460  157.2590 N   0  0  0  0  0  1  0  0  0  0  0  0
  160.0030  211.0730  152.4350 N   0  0  0  0  0  2  0  0  0  0  0  0
  161.3740  210.8390  152.2020 N   0  0  0  0  0  2  0  0  0  0  0  0
  163.0270  209.4740  151.3110 O   0  0  0  0  0  0  0  0  0  0  0  0
  161.8270  209.5830  151.6910 C   0  0  0  0  0  0  0  0  0  0  0  0
  161.4500  207.1450  151.1160 N   0  0  0  0  0  0  0  0  0  0  0  0
  161.9590  206.2230  153.3340 C   0  0  0  0  0  2  0  0  0  0  0  0
  160.8870  208.3890  151.6850 C   0  0  1  0  0  3  0  0  0  0  0  0
  160.3910  208.1400  153.0790 C   0  0  0  0  0  3  0  0  0  0  0  0
  160.9220  207.1900  153.8540 C   0  0  0  0  0  0  0  0  0  0  0  0
  162.5260  206.6410  151.9720 C   0  0  0  0  0  2  0  0  0  0  0  0
  160.4470  207.0360  155.2010 C   0  0  0  0  0  0  0  0  0  0  0  0
  160.0350  206.9200  156.3320 C   0  0  0  0  0  3  0  0  0  0  0  0
  161.9750  207.3830  149.7720 C   0  0  0  0  0  2  0  0  0  0  0  0
  160.9480  206.9380  148.7390 C   0  0  0  0  0  2  0  0  0  0  0  0
  161.6560  205.0670  147.2960 C   0  0  0  0  0  2  0  0  0  0  0  0
  161.6290  206.5770  147.4260 C   0  0  0  0  0  3  0  0  0  0  0  0
  160.6360  205.8720  146.5200 C   0  0  0  0  0  2  0  0  0  0  0  0
  1  2  1  1  0  0  0
  1 33  1  0  0  0  0
  1 24  1  0  0  0  0
  3  9  1  6  0  0  0
  3  4  1  0  0  0  0
  3  7  1  0  0  0  0
  4  5  1  0  0  0  0
  5  6  1  0  0  0  0
  6  2  1  1  0  0  0
  7  8  1  0  0  0  0
  8  6  1  0  0  0  0
 10 11  2  0  0  0  0
 10  9  1  0  0  0  0
 12 13  1  0  0  0  0
 13 15  2  0  0  0  0
 14 17  1  0  0  0  0
 14 16  2  0  0  0  0
 15 10  1  0  0  0  0
 16 15  1  0  0  0  0
 17 12  2  0  0  0  0
 18 17  1  0  0  0  0
 19 22  1  0  0  0  0
 19 21  1  0  0  0  0
 20 18  1  0  0  0  0
 21 20  1  0  0  0  0
 22 23  1  0  0  0  0
 23 18  1  0  0  0  0
 25 24  1  0  0  0  0
 25 29  1  0  0  0  0
 26 30  1  0  0  0  0
 27 31  1  0  0  0  0
 28 27  2  0  0  0  0
 29 26  2  0  0  0  0
 29 28  1  0  0  0  0
 30 31  2  0  0  0  0
 31 32  1  0  0  0  0
 34 33  1  0  0  0  0
 35 36  2  0  0  0  0
 36 34  1  0  0  0  0
 37 39  1  0  0  0  0
 37 42  1  0  0  0  0
 38 41  1  0  0  0  0
 39 36  1  1  0  0  0
 39 40  1  0  0  0  0
 40 41  2  0  0  0  0
 41 43  1  0  0  0  0
 42 38  1  0  0  0  0
 43 44  3  0  0  0  0
 45 37  1  0  0  0  0
 46 45  1  0  0  0  0
 47 48  1  0  0  0  0
 48 46  1  0  0  0  0
 49 47  1  0  0  0  0
 49 48  1  0  0  0  0
M  END
>  <MODEL>
2

>  <REMARK>
 VINA RESULT:      -6.5      1.691      2.254
  Name = 
  16 active torsions:
  status: ('A' for Active; 'I' for Inactive)
    1  A    between atoms: C_1  and  C_46
    2  A    between atoms: N_3  and  C_44
    3  A    between atoms: N_6  and  N_16
    4  A    between atoms: N_6  and  C_18
    5  A    between atoms: N_7  and  C_25
    6  A    between atoms: C_11  and  C_23
    7  A    between atoms: C_11  and  N_28
    8  A    between atoms: C_12  and  C_45
    9  A    between atoms: C_18  and  C_22
   10  A    between atoms: C_18  and  N_28
   11  A    between atoms: C_20  and  C_48
   12  A    between atoms: C_22  and  C_40
   13  A    between atoms: C_24  and  C_37
   14  A    between atoms: C_25  and  C_48
   15  A    between atoms: C_29  and  C_33
   16  A    between atoms: C_33  and  C_46
                            x       y       z     vdW  Elec       q    Type
                         _______ _______ _______ _____ _____    ______ ____

>  <TORSDO>
F 16

$$$$
=
 OpenBabel11042420353D

 49 54  0  0  1  0  0  0  0  0999 V2000
  161.5990  211.9640  147.9190 C   0  0  2  0  0  3  0  0  0  0  0  0
  161.6340  213.0390  149.0090 C   0  0  0  0  0  2  0  0  0  0  0  0
  157.8780  213.6160  151.0130 C   0  0  1  0  0  3  0  0  0  0  0  0
  157.8160  213.6780  149.4890 C   0  0  0  0  0  2  0  0  0  0  0  0
  159.0800  213.0870  148.8530 C   0  0  0  0  0  2  0  0  0  0  0  0
  160.3130  213.1800  149.7670 C   0  0  2  0  0  3  0  0  0  0  0  0
  159.0580  214.4290  151.5710 C   0  0  0  0  0  2  0  0  0  0  0  0
  160.2880  214.4300  150.6500 C   0  0  0  0  0  2  0  0  0  0  0  0
  156.5590  214.0580  151.6290 C   0  0  0  0  0  2  0  0  0  0  0  0
  156.5190  213.8720  153.1210 C   0  0  0  0  0  0  0  0  0  0  0  0
  155.6330  214.4520  153.8080 O   0  0  0  0  0  0  0  0  0  0  0  0
  158.6020  210.9500  154.1160 C   0  0  0  0  0  3  0  0  0  0  0  0
  157.6460  211.7250  153.5380 N   0  0  0  0  0  0  0  0  0  0  0  0
  159.4470  212.8790  155.2750 C   0  0  0  0  0  3  0  0  0  0  0  0
  157.5500  213.0600  153.7910 C   0  0  0  0  0  0  0  0  0  0  0  0
  158.4540  213.6580  154.6810 C   0  0  0  0  0  3  0  0  0  0  0  0
  159.5330  211.5070  155.0020 C   0  0  0  0  0  0  0  0  0  0  0  0
  160.5600  210.6980  155.6060 N   0  0  0  0  0  0  0  0  0  0  0  0
  162.6450  209.1350  156.4890 O   0  0  0  0  0  0  0  0  0  0  0  0
  160.4560  209.2280  155.5270 C   0  0  0  0  0  2  0  0  0  0  0  0
  161.3690  208.5640  156.5570 C   0  0  0  0  0  2  0  0  0  0  0  0
  162.5170  210.3850  157.1150 C   0  0  0  0  0  2  0  0  0  0  0  0
  161.7410  211.3480  156.2050 C   0  0  0  0  0  2  0  0  0  0  0  0
  160.6790  212.3360  146.8410 N   0  0  0  0  0  2  0  0  0  0  0  0
  161.4360  213.0820  145.8410 C   0  0  0  0  0  2  0  0  0  0  0  0
  161.1860  212.7810  143.3560 C   0  0  0  0  0  3  0  0  0  0  0  0
  158.5970  213.7320  143.4840 N   0  0  0  0  0  0  0  0  0  0  0  0
  159.3360  213.6720  144.6240 C   0  0  0  0  0  3  0  0  0  0  0  0
  160.6500  213.1960  144.5810 C   0  0  0  0  0  0  0  0  0  0  0  0
  160.4110  212.8530  142.1980 C   0  0  0  0  0  3  0  0  0  0  0  0
  159.1010  213.3350  142.2850 C   0  0  0  0  0  0  0  0  0  0  0  0
  158.2940  213.4070  141.1140 N   0  0  0  0  0  1  0  0  0  0  0  0
  161.2400  210.6490  148.4710 N   0  0  0  0  0  2  0  0  0  0  0  0
  162.4020  209.8630  148.6190 N   0  0  0  0  0  2  0  0  0  0  0  0
  163.3600  207.7540  148.7850 O   0  0  0  0  0  0  0  0  0  0  0  0
  162.3110  208.4550  148.8530 C   0  0  0  0  0  0  0  0  0  0  0  0
  160.5920  206.6280  148.5020 N   0  0  0  0  0  0  0  0  0  0  0  0
  161.3570  205.1380  150.2990 C   0  0  0  0  0  2  0  0  0  0  0  0
  160.9780  207.8440  149.2520 C   0  0  1  0  0  3  0  0  0  0  0  0
  160.9810  207.5620  150.7260 C   0  0  0  0  0  3  0  0  0  0  0  0
  161.2140  206.3370  151.2060 C   0  0  0  0  0  0  0  0  0  0  0  0
  161.5040  205.5280  148.8230 C   0  0  0  0  0  2  0  0  0  0  0  0
  161.2630  206.1380  152.6280 C   0  0  0  0  0  0  0  0  0  0  0  0
  161.3190  205.9820  153.8250 C   0  0  0  0  0  3  0  0  0  0  0  0
  160.6250  206.8770  147.0620 C   0  0  0  0  0  2  0  0  0  0  0  0
  160.2450  205.6030  146.3170 C   0  0  0  0  0  2  0  0  0  0  0  0
  161.2590  203.4560  145.6520 C   0  0  0  0  0  2  0  0  0  0  0  0
  161.4760  204.9560  145.6990 C   0  0  0  0  0  3  0  0  0  0  0  0
  161.0890  204.2810  144.3950 C   0  0  0  0  0  2  0  0  0  0  0  0
  1 33  1  0  0  0  0
  1  2  1  1  0  0  0
  3  7  1  0  0  0  0
  3  9  1  1  0  0  0
  4  3  1  0  0  0  0
  5  4  1  0  0  0  0
  5  6  1  0  0  0  0
  6  2  1  6  0  0  0
  6  8  1  0  0  0  0
  8  7  1  0  0  0  0
  9 10  1  0  0  0  0
 10 15  1  0  0  0  0
 10 11  2  0  0  0  0
 12 17  1  0  0  0  0
 13 15  1  0  0  0  0
 13 12  2  0  0  0  0
 15 16  2  0  0  0  0
 16 14  1  0  0  0  0
 17 14  2  0  0  0  0
 17 18  1  0  0  0  0
 18 23  1  0  0  0  0
 19 21  1  0  0  0  0
 19 22  1  0  0  0  0
 20 18  1  0  0  0  0
 20 21  1  0  0  0  0
 23 22  1  0  0  0  0
 24  1  1  0  0  0  0
 25 24  1  0  0  0  0
 26 29  1  0  0  0  0
 27 28  1  0  0  0  0
 29 28  2  0  0  0  0
 29 25  1  0  0  0  0
 30 31  1  0  0  0  0
 30 26  2  0  0  0  0
 31 27  2  0  0  0  0
 32 31  1  0  0  0  0
 33 34  1  0  0  0  0
 34 36  1  0  0  0  0
 35 36  2  0  0  0  0
 37 42  1  0  0  0  0
 37 39  1  0  0  0  0
 38 41  1  0  0  0  0
 39 36  1  6  0  0  0
 39 40  1  0  0  0  0
 40 41  2  0  0  0  0
 41 43  1  0  0  0  0
 42 38  1  0  0  0  0
 43 44  3  0  0  0  0
 45 37  1  0  0  0  0
 46 45  1  0  0  0  0
 47 48  1  0  0  0  0
 48 46  1  0  0  0  0
 49 47  1  0  0  0  0
 49 48  1  0  0  0  0
M  END
>  <MODEL>
3

>  <REMARK>
 VINA RESULT:      -5.6      3.010      9.595
  Name = 
  16 active torsions:
  status: ('A' for Active; 'I' for Inactive)
    1  A    between atoms: C_1  and  C_46
    2  A    between atoms: N_3  and  C_44
    3  A    between atoms: N_6  and  N_16
    4  A    between atoms: N_6  and  C_18
    5  A    between atoms: N_7  and  C_25
    6  A    between atoms: C_11  and  C_23
    7  A    between atoms: C_11  and  N_28
    8  A    between atoms: C_12  and  C_45
    9  A    between atoms: C_18  and  C_22
   10  A    between atoms: C_18  and  N_28
   11  A    between atoms: C_20  and  C_48
   12  A    between atoms: C_22  and  C_40
   13  A    between atoms: C_24  and  C_37
   14  A    between atoms: C_25  and  C_48
   15  A    between atoms: C_29  and  C_33
   16  A    between atoms: C_33  and  C_46
                            x       y       z     vdW  Elec       q    Type
                         _______ _______ _______ _____ _____    ______ ____

>  <TORSDO>
F 16

$$$$
=
 OpenBabel11042420353D

 49 54  0  0  1  0  0  0  0  0999 V2000
  161.9570  212.3780  148.6230 C   0  0  2  0  0  3  0  0  0  0  0  0
  161.2080  211.1370  148.1310 C   0  0  0  0  0  2  0  0  0  0  0  0
  162.0040  207.7540  150.6560 C   0  0  1  0  0  3  0  0  0  0  0  0
  162.4420  209.1030  151.2220 C   0  0  0  0  0  2  0  0  0  0  0  0
  161.7870  210.2650  150.4660 C   0  0  0  0  0  2  0  0  0  0  0  0
  161.4170  209.9080  149.0180 C   0  0  2  0  0  3  0  0  0  0  0  0
  162.4150  207.5920  149.1840 C   0  0  0  0  0  2  0  0  0  0  0  0
  162.3980  208.9110  148.3960 C   0  0  0  0  0  2  0  0  0  0  0  0
  162.5320  206.6110  151.5090 C   0  0  0  0  0  2  0  0  0  0  0  0
  161.5380  205.4940  151.6700 C   0  0  0  0  0  0  0  0  0  0  0  0
  160.9340  205.3360  152.7680 O   0  0  0  0  0  0  0  0  0  0  0  0
  161.8670  203.7670  148.3880 C   0  0  0  0  0  3  0  0  0  0  0  0
  162.0310  204.6420  149.4150 N   0  0  0  0  0  0  0  0  0  0  0  0
  160.1890  202.6060  149.6590 C   0  0  0  0  0  3  0  0  0  0  0  0
  161.3100  204.5440  150.5670 C   0  0  0  0  0  0  0  0  0  0  0  0
  160.3630  203.5190  150.7010 C   0  0  0  0  0  3  0  0  0  0  0  0
  160.9400  202.7200  148.4820 C   0  0  0  0  0  0  0  0  0  0  0  0
  160.7730  201.7770  147.4060 N   0  0  0  0  0  0  0  0  0  0  0  0
  160.2270  199.8630  145.5070 O   0  0  0  0  0  0  0  0  0  0  0  0
  161.3720  200.4330  147.5300 C   0  0  0  0  0  2  0  0  0  0  0  0
  161.4580  199.7510  146.1640 C   0  0  0  0  0  2  0  0  0  0  0  0
  160.1730  201.1930  145.0610 C   0  0  0  0  0  2  0  0  0  0  0  0
  159.9300  202.1330  146.2500 C   0  0  0  0  0  2  0  0  0  0  0  0
  161.3050  212.9550  149.8010 N   0  0  0  0  0  2  0  0  0  0  0  0
  160.2570  213.8580  149.3380 C   0  0  0  0  0  2  0  0  0  0  0  0
  157.8470  214.2420  149.9470 C   0  0  0  0  0  3  0  0  0  0  0  0
  158.3880  213.5910  152.5750 N   0  0  0  0  0  0  0  0  0  0  0  0
  159.4030  213.5870  151.6700 C   0  0  0  0  0  3  0  0  0  0  0  0
  159.1510  213.9160  150.3350 C   0  0  0  0  0  0  0  0  0  0  0  0
  156.8200  214.2420  150.8920 C   0  0  0  0  0  3  0  0  0  0  0  0
  157.1140  213.9060  152.2160 C   0  0  0  0  0  0  0  0  0  0  0  0
  156.0770  213.8940  153.1910 N   0  0  0  0  0  1  0  0  0  0  0  0
  162.0860  213.3870  147.5610 N   0  0  0  0  0  2  0  0  0  0  0  0
  162.8740  212.8720  146.5100 N   0  0  0  0  0  2  0  0  0  0  0  0
  163.5720  213.0230  144.3010 O   0  0  0  0  0  0  0  0  0  0  0  0
  162.7230  213.3590  145.1740 C   0  0  0  0  0  0  0  0  0  0  0  0
  161.0950  214.1340  143.3950 N   0  0  0  0  0  0  0  0  0  0  0  0
  159.3180  212.5090  143.8750 C   0  0  0  0  0  2  0  0  0  0  0  0
  161.5120  214.2020  144.8130 C   0  0  1  0  0  3  0  0  0  0  0  0
  160.3640  213.8320  145.7060 C   0  0  0  0  0  3  0  0  0  0  0  0
  159.3940  213.0100  145.2970 C   0  0  0  0  0  0  0  0  0  0  0  0
  160.5990  212.7930  143.0800 C   0  0  0  0  0  2  0  0  0  0  0  0
  158.3510  212.6440  146.2150 C   0  0  0  0  0  0  0  0  0  0  0  0
  157.4830  212.3210  146.9920 C   0  0  0  0  0  3  0  0  0  0  0  0
  162.2160  214.4530  142.5110 C   0  0  0  0  0  2  0  0  0  0  0  0
  161.8170  214.1820  141.0670 C   0  0  0  0  0  2  0  0  0  0  0  0
  162.7310  212.3240  139.7270 C   0  0  0  0  0  2  0  0  0  0  0  0
  163.0190  213.7150  140.2560 C   0  0  0  0  0  3  0  0  0  0  0  0
  162.6050  213.5210  138.8090 C   0  0  0  0  0  2  0  0  0  0  0  0
  1  2  1  6  0  0  0
  1 24  1  0  0  0  0
  3  4  1  0  0  0  0
  3  9  1  1  0  0  0
  5  4  1  0  0  0  0
  6  2  1  6  0  0  0
  6  5  1  0  0  0  0
  7  3  1  0  0  0  0
  8  6  1  0  0  0  0
  8  7  1  0  0  0  0
  9 10  1  0  0  0  0
 10 11  2  0  0  0  0
 12 17  2  0  0  0  0
 12 13  1  0  0  0  0
 13 15  2  0  0  0  0
 14 16  2  0  0  0  0
 15 16  1  0  0  0  0
 15 10  1  0  0  0  0
 17 14  1  0  0  0  0
 18 20  1  0  0  0  0
 18 17  1  0  0  0  0
 19 21  1  0  0  0  0
 21 20  1  0  0  0  0
 22 19  1  0  0  0  0
 22 23  1  0  0  0  0
 23 18  1  0  0  0  0
 25 24  1  0  0  0  0
 25 29  1  0  0  0  0
 26 29  2  0  0  0  0
 26 30  1  0  0  0  0
 28 27  2  0  0  0  0
 29 28  1  0  0  0  0
 30 31  2  0  0  0  0
 31 27  1  0  0  0  0
 31 32  1  0  0  0  0
 33  1  1  0  0  0  0
 34 33  1  0  0  0  0
 35 36  2  0  0  0  0
 36 34  1  0  0  0  0
 37 39  1  0  0  0  0
 38 41  1  0  0  0  0
 39 36  1  6  0  0  0
 39 40  1  0  0  0  0
 41 40  2  0  0  0  0
 41 43  1  0  0  0  0
 42 37  1  0  0  0  0
 42 38  1  0  0  0  0
 43 44  3  0  0  0  0
 45 37  1  0  0  0  0
 46 45  1  0  0  0  0
 47 48  1  0  0  0  0
 48 46  1  0  0  0  0
 49 47  1  0  0  0  0
 49 48  1  0  0  0  0
M  END
>  <MODEL>
4

>  <REMARK>
 VINA RESULT:      -5.0      2.965      9.105
  Name = 
  16 active torsions:
  status: ('A' for Active; 'I' for Inactive)
    1  A    between atoms: C_1  and  C_46
    2  A    between atoms: N_3  and  C_44
    3  A    between atoms: N_6  and  N_16
    4  A    between atoms: N_6  and  C_18
    5  A    between atoms: N_7  and  C_25
    6  A    between atoms: C_11  and  C_23
    7  A    between atoms: C_11  and  N_28
    8  A    between atoms: C_12  and  C_45
    9  A    between atoms: C_18  and  C_22
   10  A    between atoms: C_18  and  N_28
   11  A    between atoms: C_20  and  C_48
   12  A    between atoms: C_22  and  C_40
   13  A    between atoms: C_24  and  C_37
   14  A    between atoms: C_25  and  C_48
   15  A    between atoms: C_29  and  C_33
   16  A    between atoms: C_33  and  C_46
                            x       y       z     vdW  Elec       q    Type
                         _______ _______ _______ _____ _____    ______ ____

>  <TORSDO>
F 16

$$$$
=
 OpenBabel11042420353D

 49 54  0  0  1  0  0  0  0  0999 V2000
  161.6740  207.6140  149.0300 C   0  0  2  0  0  3  0  0  0  0  0  0
  162.7000  207.5620  150.1660 C   0  0  0  0  0  2  0  0  0  0  0  0
  161.4350  209.1610  153.9470 C   0  0  1  0  0  3  0  0  0  0  0  0
  162.6010  209.8960  153.2890 C   0  0  0  0  0  2  0  0  0  0  0  0
  162.7310  209.5250  151.8080 C   0  0  0  0  0  2  0  0  0  0  0  0
  162.1750  208.1280  151.4860 C   0  0  2  0  0  3  0  0  0  0  0  0
  161.6230  207.6360  153.9040 C   0  0  0  0  0  2  0  0  0  0  0  0
  162.3600  207.1480  152.6460 C   0  0  0  0  0  2  0  0  0  0  0  0
  161.2170  209.6530  155.3700 C   0  0  0  0  0  2  0  0  0  0  0  0
  159.9140  209.1870  155.9560 C   0  0  0  0  0  0  0  0  0  0  0  0
  159.7870  207.9940  156.3510 O   0  0  0  0  0  0  0  0  0  0  0  0
  156.4720  210.5470  155.5470 C   0  0  0  0  0  3  0  0  0  0  0  0
  157.5630  209.7390  155.4840 N   0  0  0  0  0  0  0  0  0  0  0  0
  157.7700  212.1880  156.7290 C   0  0  0  0  0  3  0  0  0  0  0  0
  158.7620  210.1030  156.0180 C   0  0  0  0  0  0  0  0  0  0  0  0
  158.8840  211.3510  156.6470 C   0  0  0  0  0  3  0  0  0  0  0  0
  156.5440  211.7970  156.1750 C   0  0  0  0  0  0  0  0  0  0  0  0
  155.3890  212.6520  156.2640 N   0  0  0  0  0  0  0  0  0  0  0  0
  153.3180  214.4210  156.6590 O   0  0  0  0  0  0  0  0  0  0  0  0
  154.3360  212.3370  157.2500 C   0  0  0  0  0  2  0  0  0  0  0  0
  153.0400  213.0730  156.9130 C   0  0  0  0  0  2  0  0  0  0  0  0
  153.8950  214.4370  155.3790 C   0  0  0  0  0  2  0  0  0  0  0  0
  155.3220  213.8740  155.4410 C   0  0  0  0  0  2  0  0  0  0  0  0
  162.2320  207.0690  147.7900 N   0  0  0  0  0  2  0  0  0  0  0  0
  161.1780  206.3170  147.1150 C   0  0  0  0  0  2  0  0  0  0  0  0
  160.6730  204.5090  148.7890 C   0  0  0  0  0  3  0  0  0  0  0  0
  161.6910  202.6060  147.0670 N   0  0  0  0  0  0  0  0  0  0  0  0
  161.7110  203.9140  146.6940 C   0  0  0  0  0  3  0  0  0  0  0  0
  161.2030  204.8930  147.5520 C   0  0  0  0  0  0  0  0  0  0  0  0
  160.6640  203.1620  149.1540 C   0  0  0  0  0  3  0  0  0  0  0  0
  161.1810  202.2140  148.2660 C   0  0  0  0  0  0  0  0  0  0  0  0
  161.1730  200.8340  148.6190 N   0  0  0  0  0  1  0  0  0  0  0  0
  161.1790  208.9820  148.8140 N   0  0  0  0  0  2  0  0  0  0  0  0
  162.2640  209.8470  148.5640 N   0  0  0  0  0  2  0  0  0  0  0  0
  163.0550  212.0170  148.3330 O   0  0  0  0  0  0  0  0  0  0  0  0
  162.0550  211.2460  148.3570 C   0  0  0  0  0  0  0  0  0  0  0  0
  160.3810  213.1330  148.5970 N   0  0  0  0  0  0  0  0  0  0  0  0
  160.7310  214.1360  146.3830 C   0  0  0  0  0  2  0  0  0  0  0  0
  160.6510  211.7660  148.0970 C   0  0  1  0  0  3  0  0  0  0  0  0
  160.3560  211.6870  146.6270 C   0  0  0  0  0  3  0  0  0  0  0  0
  160.4510  212.7580  145.8340 C   0  0  0  0  0  0  0  0  0  0  0  0
  161.1770  214.1080  147.8500 C   0  0  0  0  0  2  0  0  0  0  0  0
  160.2140  212.6100  144.4240 C   0  0  0  0  0  0  0  0  0  0  0  0
  159.9990  212.4760  143.2430 C   0  0  0  0  0  3  0  0  0  0  0  0
  160.7040  213.2350  150.0190 C   0  0  0  0  0  2  0  0  0  0  0  0
  159.5320  212.7190  150.8440 C   0  0  0  0  0  2  0  0  0  0  0  0
  159.2810  213.1410  153.2620 C   0  0  0  0  0  2  0  0  0  0  0  0
  159.9980  212.2920  152.2300 C   0  0  0  0  0  3  0  0  0  0  0  0
  158.8220  211.7230  153.0020 C   0  0  0  0  0  2  0  0  0  0  0  0
  1  2  1  1  0  0  0
  3  9  1  1  0  0  0
  4  3  1  0  0  0  0
  5  4  1  0  0  0  0
  6  2  1  6  0  0  0
  6  5  1  0  0  0  0
  6  8  1  0  0  0  0
  7  3  1  0  0  0  0
  8  7  1  0  0  0  0
  9 10  1  0  0  0  0
 10 15  1  0  0  0  0
 10 11  2  0  0  0  0
 12 17  1  0  0  0  0
 13 12  2  0  0  0  0
 13 15  1  0  0  0  0
 15 16  2  0  0  0  0
 16 14  1  0  0  0  0
 17 18  1  0  0  0  0
 17 14  2  0  0  0  0
 18 20  1  0  0  0  0
 19 21  1  0  0  0  0
 21 20  1  0  0  0  0
 22 23  1  0  0  0  0
 22 19  1  0  0  0  0
 23 18  1  0  0  0  0
 24  1  1  0  0  0  0
 25 29  1  0  0  0  0
 25 24  1  0  0  0  0
 26 30  1  0  0  0  0
 27 31  1  0  0  0  0
 28 27  2  0  0  0  0
 28 29  1  0  0  0  0
 29 26  2  0  0  0  0
 31 32  1  0  0  0  0
 31 30  2  0  0  0  0
 33  1  1  0  0  0  0
 34 33  1  0  0  0  0
 35 36  2  0  0  0  0
 36 34  1  0  0  0  0
 37 45  1  0  0  0  0
 38 42  1  0  0  0  0
 39 36  1  6  0  0  0
 39 37  1  0  0  0  0
 40 39  1  0  0  0  0
 41 38  1  0  0  0  0
 41 40  2  0  0  0  0
 42 37  1  0  0  0  0
 43 41  1  0  0  0  0
 44 43  3  0  0  0  0
 45 46  1  0  0  0  0
 46 48  1  0  0  0  0
 48 49  1  0  0  0  0
 48 47  1  0  0  0  0
 49 47  1  0  0  0  0
M  END
>  <MODEL>
5

>  <REMARK>
 VINA RESULT:      -4.3      3.388     11.734
  Name = 
  16 active torsions:
  status: ('A' for Active; 'I' for Inactive)
    1  A    between atoms: C_1  and  C_46
    2  A    between atoms: N_3  and  C_44
    3  A    between atoms: N_6  and  N_16
    4  A    between atoms: N_6  and  C_18
    5  A    between atoms: N_7  and  C_25
    6  A    between atoms: C_11  and  C_23
    7  A    between atoms: C_11  and  N_28
    8  A    between atoms: C_12  and  C_45
    9  A    between atoms: C_18  and  C_22
   10  A    between atoms: C_18  and  N_28
   11  A    between atoms: C_20  and  C_48
   12  A    between atoms: C_22  and  C_40
   13  A    between atoms: C_24  and  C_37
   14  A    between atoms: C_25  and  C_48
   15  A    between atoms: C_29  and  C_33
   16  A    between atoms: C_33  and  C_46
                            x       y       z     vdW  Elec       q    Type
                         _______ _______ _______ _____ _____    ______ ____

>  <TORSDO>
F 16

$$$$
