=
 OpenBabel11042422513D

 69 73  0  0  1  0  0  0  0  0999 V2000
  160.7140  207.1070  148.2630 C   0  0  2  0  0  3  0  0  0  0  0  0
  162.8670  210.7900  150.2310 C   0  0  0  0  0  3  0  0  0  0  0  0
  162.5350  209.8360  151.1210 C   0  0  0  0  0  0  0  0  0  0  0  0
  160.5090  208.8780  154.7600 C   0  0  0  0  0  2  0  0  0  0  0  0
  160.5880  204.2530  153.1580 C   0  0  0  0  0  0  0  0  0  0  0  0
  160.7420  203.1950  149.8260 C   0  0  0  0  0  1  0  0  0  0  0  0
  162.6490  211.6390  147.9780 N   0  0  0  0  0  1  0  0  0  0  0  0
  159.7040  205.5220  149.9280 C   0  0  0  0  0  0  0  0  0  0  0  0
  159.8630  207.5190  154.9400 C   0  0  0  0  0  2  0  0  0  0  0  0
  159.8970  205.1920  154.0970 C   0  0  0  0  0  2  0  0  0  0  0  0
  162.0760  209.4170  148.4190 O   0  0  0  0  0  0  0  0  0  0  0  0
  162.5130  210.1950  152.5900 C   0  0  0  0  0  2  0  0  0  0  0  0
  162.9600  210.4570  148.7610 C   0  0  2  0  0  3  0  0  0  0  0  0
  160.7220  206.4490  154.2940 C   0  0  0  0  0  2  0  0  0  0  0  0
  161.1870  210.5420  153.1300 N   0  0  0  0  0  0  0  0  0  0  0  0
  162.4850  208.2940  149.1720 C   0  0  2  0  0  3  0  0  0  0  0  0
  162.0770  207.0580  148.6170 O   0  0  0  0  0  0  0  0  0  0  0  0
  161.1280  204.7560  151.8540 C   0  0  2  0  0  3  0  0  0  0  0  0
  160.6480  203.0610  153.4320 O   0  0  0  0  0  0  0  0  0  0  0  0
  160.4170  209.3220  153.3070 C   0  0  0  0  0  2  0  0  0  0  0  0
  158.9160  206.2800  150.4690 O   0  0  0  0  0  0  0  0  0  0  0  0
  160.2120  204.3330  150.6970 C   0  0  2  0  0  3  0  0  0  0  0  0
  160.0620  205.7460  148.4900 C   0  0  0  0  0  2  0  0  0  0  0  0
  162.1050  208.4650  150.6490 C   0  0  0  0  0  2  0  0  0  0  0  0
  162.6080  204.3870  151.7090 C   0  0  0  0  0  2  0  0  0  0  0  0
  162.9180  203.0710  152.3920 C   0  0  0  0  0  2  0  0  0  0  0  0
  163.2100  202.0070  151.3550 C   0  0  0  0  0  2  0  0  0  0  0  0
  161.9650  201.7460  150.5260 C   0  0  0  0  0  2  0  0  0  0  0  0
  161.9860  200.4330  150.0540 O   0  0  0  0  0  0  0  0  0  0  0  0
  160.8890  200.3350  149.1860 C   0  0  2  0  0  3  0  0  0  0  0  0
  162.3770  201.5560  147.7480 O   0  0  0  0  0  1  0  0  0  0  0  0
  161.7200  199.3950  146.9920 C   0  0  0  0  0  1  0  0  0  0  0  0
  160.1440  201.2940  147.0000 C   0  0  0  0  0  1  0  0  0  0  0  0
  161.3070  200.6550  147.7410 C   0  0  0  0  0  0  0  0  0  0  0  0
  158.4620  200.4800  149.7740 C   0  0  0  0  0  1  0  0  0  0  0  0
  159.7650  201.2520  149.6650 C   0  0  0  0  0  2  0  0  0  0  0  0
  160.5560  207.5120  146.7920 C   0  0  0  0  0  2  0  0  0  0  0  0
  162.8480  204.8320  145.0550 C   0  0  1  0  0  3  0  0  0  0  0  0
  159.9290  205.6620  145.3540 C   0  0  0  0  0  3  0  0  0  0  0  0
  162.3960  206.2250  145.5120 C   0  0  2  0  0  3  0  0  0  0  0  0
  161.5470  203.5200  144.9850 S   0  0  0  0  0  0  0  0  0  0  0  0
  160.9230  206.4210  145.8330 C   0  0  0  0  0  0  0  0  0  0  0  0
  162.6440  205.9490  144.0360 C   0  0  0  0  0  2  0  0  0  0  0  0
  160.1680  204.5500  144.3950 C   0  0  1  0  0  3  0  0  0  0  0  0
  158.9320  203.7330  144.2210 C   0  0  0  0  0  0  0  0  0  0  0  0
  159.0120  202.3500  144.2910 O   0  0  0  0  0  1  0  0  0  0  0  0
  157.8240  204.2840  143.9900 O   0  0  0  0  0  0  0  0  0  0  0  0
  160.4630  211.4360  152.2280 C   0  0  0  0  0  2  0  0  0  0  0  0
  159.1540  211.8800  152.8530 C   0  0  0  0  0  2  0  0  0  0  0  0
  158.7690  213.2690  152.3780 C   0  0  2  0  0  3  0  0  0  0  0  0
  157.1030  212.8640  146.1230 C   0  0  0  0  0  2  0  0  0  0  0  0
  159.8750  213.8170  151.6090 N   0  0  0  0  0  2  0  0  0  0  0  0
  160.8570  214.3570  149.5820 O   0  0  0  0  0  0  0  0  0  0  0  0
  159.4280  213.5160  145.6560 C   0  0  0  0  0  2  0  0  0  0  0  0
  158.5660  213.3580  148.0300 C   0  0  0  0  0  0  0  0  0  0  0  0
  159.8710  213.8590  150.1810 C   0  0  0  0  0  0  0  0  0  0  0  0
  158.7380  213.3600  149.4540 N   0  0  0  0  0  2  0  0  0  0  0  0
  157.4170  212.9680  147.5500 N   0  0  0  0  0  0  0  0  0  0  0  0
  159.6490  213.8900  147.1180 C   0  0  0  0  0  2  0  0  0  0  0  0
  157.9820  213.7820  145.2830 C   0  0  0  0  0  2  0  0  0  0  0  0
  158.0190  213.6360  154.7790 C   0  0  0  0  0  0  0  0  0  0  0  0
  158.5020  214.1290  153.5250 N   0  0  0  0  0  2  0  0  0  0  0  0
  157.8000  214.4480  155.7160 O   0  0  0  0  0  0  0  0  0  0  0  0
  157.7940  212.1620  154.9950 C   0  0  2  0  0  3  0  0  0  0  0  0
  156.3190  211.7560  154.8630 C   0  0  2  0  0  3  0  0  0  0  0  0
  155.9440  210.7460  155.9340 C   0  0  0  0  0  1  0  0  0  0  0  0
  156.0880  211.1820  153.6120 O   0  0  0  0  0  1  0  0  0  0  0  0
  158.4440  211.6720  156.2950 C   0  0  0  0  0  2  0  0  0  0  0  0
  159.9620  211.7160  156.2420 C   0  0  0  0  0  1  0  0  0  0  0  0
  1 37  1  6  0  0  0
  1 23  1  0  0  0  0
  1 17  1  0  0  0  0
  2  3  2  0  0  0  0
  3 12  1  0  0  0  0
  4  9  1  0  0  0  0
  5 19  2  0  0  0  0
  5 10  1  0  0  0  0
  8 21  2  0  0  0  0
  8 22  1  0  0  0  0
 10 14  1  0  0  0  0
 11 13  1  0  0  0  0
 11 16  1  0  0  0  0
 12 15  1  0  0  0  0
 13  7  1  6  0  0  0
 13  2  1  0  0  0  0
 14  9  1  0  0  0  0
 15 20  1  0  0  0  0
 16 24  1  1  0  0  0
 17 16  1  0  0  0  0
 18 25  1  6  0  0  0
 18  5  1  0  0  0  0
 20  4  1  0  0  0  0
 22  6  1  6  0  0  0
 22 18  1  0  0  0  0
 23  8  1  0  0  0  0
 24  3  1  0  0  0  0
 25 26  1  0  0  0  0
 27 26  1  0  0  0  0
 28 27  1  0  0  0  0
 29 28  1  0  0  0  0
 30 36  1  1  0  0  0
 30 29  1  0  0  0  0
 32 34  1  0  0  0  0
 33 34  1  0  0  0  0
 34 31  1  0  0  0  0
 34 30  1  0  0  0  0
 36 35  1  0  0  0  0
 38 43  1  6  0  0  0
 38 40  1  0  0  0  0
 39 42  2  0  0  0  0
 40 43  1  6  0  0  0
 40 42  1  0  0  0  0
 41 38  1  0  0  0  0
 42 37  1  0  0  0  0
 44 45  1  1  0  0  0
 44 41  1  0  0  0  0
 44 39  1  0  0  0  0
 45 46  1  0  0  0  0
 47 45  2  0  0  0  0
 48 49  1  0  0  0  0
 48 15  1  0  0  0  0
 50 49  1  1  0  0  0
 50 62  1  0  0  0  0
 51 58  1  0  0  0  0
 52 50  1  0  0  0  0
 53 56  2  0  0  0  0
 54 59  1  0  0  0  0
 55 57  1  0  0  0  0
 56 52  1  0  0  0  0
 57 56  1  0  0  0  0
 58 55  2  0  0  0  0
 59 55  1  0  0  0  0
 60 54  1  0  0  0  0
 60 51  1  0  0  0  0
 61 64  1  0  0  0  0
 61 63  2  0  0  0  0
 62 61  1  0  0  0  0
 64 68  1  1  0  0  0
 65 64  1  0  0  0  0
 65 66  1  1  0  0  0
 67 65  1  0  0  0  0
 69 68  1  0  0  0  0
M  END
>  <MODEL>
1

>  <REMARK>
 VINA RESULT:       8.2      0.000      0.000
  Name = 
  19 active torsions:
  status: ('A' for Active; 'I' for Inactive)
    1  A    between atoms: C_2  and  C_43
    2  A    between atoms: C_3  and  C_51
    3  A    between atoms: C_10  and  C_64
    4  A    between atoms: N_17  and  C_69
    5  A    between atoms: C_18  and  C_43
    6  A    between atoms: C_26  and  C_51
    7  A    between atoms: N_33  and  C_46
    8  A    between atoms: C_37  and  C_43
    9  A    between atoms: C_39  and  C_67
   10  A    between atoms: O_41  and  C_47
   11  A    between atoms: O_41  and  C_67
   12  A    between atoms: C_42  and  C_47
   13  A    between atoms: C_42  and  C_65
   14  A    between atoms: C_46  and  C_61
   15  A    between atoms: C_50  and  C_55
   16  A    between atoms: N_52  and  C_69
   17  A    between atoms: C_55  and  C_65
   18  A    between atoms: C_60  and  C_67
   19  A    between atoms: C_61  and  C_69
                            x       y       z     vdW  Elec       q    Type
                         _______ _______ _______ _____ _____    ______ ____

>  <TORSDO>
F 19

$$$$
=
 OpenBabel11042422513D

 69 73  0  0  1  0  0  0  0  0999 V2000
  162.3460  210.9090  151.4530 C   0  0  2  0  0  3  0  0  0  0  0  0
  160.8990  206.8010  149.6920 C   0  0  0  0  0  3  0  0  0  0  0  0
  160.4980  207.0000  150.9610 C   0  0  0  0  0  0  0  0  0  0  0  0
  160.3850  205.5020  154.9620 C   0  0  0  0  0  2  0  0  0  0  0  0
  159.4790  210.1290  156.2800 C   0  0  0  0  0  0  0  0  0  0  0  0
  160.3940  213.0190  154.5320 C   0  0  0  0  0  1  0  0  0  0  0  0
  162.3010  207.5250  147.8600 N   0  0  0  0  0  1  0  0  0  0  0  0
  161.9910  211.1250  153.9290 C   0  0  0  0  0  0  0  0  0  0  0  0
  160.4160  206.4590  156.1370 C   0  0  0  0  0  2  0  0  0  0  0  0
  159.9790  208.8090  156.7780 C   0  0  0  0  0  2  0  0  0  0  0  0
  161.8790  208.9980  149.6230 O   0  0  0  0  0  0  0  0  0  0  0  0
  160.0210  205.8110  151.7630 C   0  0  0  0  0  2  0  0  0  0  0  0
  161.3250  207.9710  148.8370 C   0  0  2  0  0  3  0  0  0  0  0  0
  159.6070  207.7000  155.8130 C   0  0  0  0  0  2  0  0  0  0  0  0
  161.0330  205.2020  152.6430 N   0  0  0  0  0  0  0  0  0  0  0  0
  160.8510  209.4170  150.4970 C   0  0  2  0  0  3  0  0  0  0  0  0
  161.0260  210.7310  150.9920 O   0  0  0  0  0  0  0  0  0  0  0  0
  159.7290  210.5400  154.8600 C   0  0  2  0  0  3  0  0  0  0  0  0
  158.9250  210.8970  157.0560 O   0  0  0  0  0  0  0  0  0  0  0  0
  161.2150  206.0500  153.8090 C   0  0  0  0  0  2  0  0  0  0  0  0
  162.6810  210.1930  154.3090 O   0  0  0  0  0  0  0  0  0  0  0  0
  160.8510  211.5860  154.7970 C   0  0  2  0  0  3  0  0  0  0  0  0
  162.3600  211.8370  152.6630 C   0  0  0  0  0  2  0  0  0  0  0  0
  160.6130  208.3700  151.5940 C   0  0  0  0  0  2  0  0  0  0  0  0
  158.4140  210.9220  154.1740 C   0  0  0  0  0  2  0  0  0  0  0  0
  158.6620  211.7110  152.9050 C   0  0  0  0  0  2  0  0  0  0  0  0
  157.5020  212.6490  152.6460 C   0  0  0  0  0  2  0  0  0  0  0  0
  156.2370  212.0830  153.2660 C   0  0  0  0  0  2  0  0  0  0  0  0
  156.4730  211.7710  154.6050 O   0  0  0  0  0  0  0  0  0  0  0  0
  155.2460  211.9710  155.2520 C   0  0  2  0  0  3  0  0  0  0  0  0
  154.4370  213.0130  157.2600 O   0  0  0  0  0  1  0  0  0  0  0  0
  156.7200  213.4110  156.7130 C   0  0  0  0  0  1  0  0  0  0  0  0
  154.8850  214.4390  155.4220 C   0  0  0  0  0  1  0  0  0  0  0  0
  155.3100  213.1940  156.1820 C   0  0  0  0  0  0  0  0  0  0  0  0
  155.1320  209.4720  155.1700 C   0  0  0  0  0  1  0  0  0  0  0  0
  154.8480  210.7050  156.0110 C   0  0  0  0  0  2  0  0  0  0  0  0
  163.2260  211.4990  150.3440 C   0  0  0  0  0  2  0  0  0  0  0  0
  162.0680  212.5660  146.7420 C   0  0  1  0  0  3  0  0  0  0  0  0
  161.2670  212.7650  149.6780 C   0  0  0  0  0  3  0  0  0  0  0  0
  163.0380  212.3510  147.9100 C   0  0  2  0  0  3  0  0  0  0  0  0
  160.2690  212.6440  147.1610 S   0  0  0  0  0  0  0  0  0  0  0  0
  162.4500  212.2570  149.3100 C   0  0  0  0  0  0  0  0  0  0  0  0
  162.8760  213.7340  147.2970 C   0  0  0  0  0  2  0  0  0  0  0  0
  160.4060  213.5360  148.7410 C   0  0  1  0  0  3  0  0  0  0  0  0
  159.0590  213.7700  149.3380 C   0  0  0  0  0  0  0  0  0  0  0  0
  157.9240  213.4520  148.6070 O   0  0  0  0  0  0  0  0  0  0  0  0
  158.9440  214.2720  150.4860 O   0  0  0  0  0  1  0  0  0  0  0  0
  162.3150  205.0550  151.9560 C   0  0  0  0  0  2  0  0  0  0  0  0
  162.7630  203.6050  151.9660 C   0  0  0  0  0  2  0  0  0  0  0  0
  162.2570  202.8730  150.7380 C   0  0  2  0  0  3  0  0  0  0  0  0
  162.8950  204.9260  144.6180 C   0  0  0  0  0  2  0  0  0  0  0  0
  160.9790  203.4480  150.3490 N   0  0  0  0  0  2  0  0  0  0  0  0
  159.6280  204.5060  148.7940 O   0  0  0  0  0  0  0  0  0  0  0  0
  160.7010  205.9900  144.9460 C   0  0  0  0  0  2  0  0  0  0  0  0
  161.7560  204.5820  146.7650 C   0  0  0  0  0  0  0  0  0  0  0  0
  160.7610  204.0370  149.0660 C   0  0  0  0  0  0  0  0  0  0  0  0
  161.8220  204.0600  148.0990 N   0  0  0  0  0  2  0  0  0  0  0  0
  162.7890  204.4120  145.9860 N   0  0  0  0  0  0  0  0  0  0  0  0
  160.4870  205.2190  146.2440 C   0  0  0  0  0  2  0  0  0  0  0  0
  161.5230  205.1450  143.9910 C   0  0  0  0  0  2  0  0  0  0  0  0
  161.1940  200.6030  150.3090 C   0  0  0  0  0  0  0  0  0  0  0  0
  162.0790  201.4570  151.0420 N   0  0  0  0  0  2  0  0  0  0  0  0
  161.0870  199.3950  150.6470 O   0  0  0  0  0  0  0  0  0  0  0  0
  160.4120  201.1270  149.1340 C   0  0  2  0  0  3  0  0  0  0  0  0
  158.8950  200.9450  149.2940 C   0  0  2  0  0  3  0  0  0  0  0  0
  158.1780  201.2570  147.9910 C   0  0  0  0  0  1  0  0  0  0  0  0
  158.4100  201.8020  150.2830 O   0  0  0  0  0  1  0  0  0  0  0  0
  160.9510  200.5840  147.8050 C   0  0  0  0  0  2  0  0  0  0  0  0
  162.4660  200.6610  147.7130 C   0  0  0  0  0  1  0  0  0  0  0  0
  1 37  1  6  0  0  0
  1 23  1  0  0  0  0
  2  3  2  0  0  0  0
  3 24  1  0  0  0  0
  3 12  1  0  0  0  0
  4  9  1  0  0  0  0
  5 10  1  0  0  0  0
  5 19  2  0  0  0  0
  8 21  2  0  0  0  0
  8 22  1  0  0  0  0
 11 16  1  0  0  0  0
 12 15  1  0  0  0  0
 13  7  1  6  0  0  0
 13 11  1  0  0  0  0
 13  2  1  0  0  0  0
 14  9  1  0  0  0  0
 14 10  1  0  0  0  0
 15 20  1  0  0  0  0
 16 17  1  0  0  0  0
 16 24  1  1  0  0  0
 17  1  1  0  0  0  0
 18 25  1  1  0  0  0
 18  5  1  0  0  0  0
 20  4  1  0  0  0  0
 22  6  1  6  0  0  0
 22 18  1  0  0  0  0
 23  8  1  0  0  0  0
 26 25  1  0  0  0  0
 27 26  1  0  0  0  0
 27 28  1  0  0  0  0
 28 29  1  0  0  0  0
 29 30  1  0  0  0  0
 30 36  1  1  0  0  0
 30 34  1  0  0  0  0
 33 34  1  0  0  0  0
 34 32  1  0  0  0  0
 34 31  1  0  0  0  0
 35 36  1  0  0  0  0
 38 41  1  0  0  0  0
 38 43  1  1  0  0  0
 38 40  1  0  0  0  0
 40 43  1  1  0  0  0
 40 42  1  0  0  0  0
 41 44  1  0  0  0  0
 42 39  2  0  0  0  0
 42 37  1  0  0  0  0
 44 45  1  1  0  0  0
 44 39  1  0  0  0  0
 45 47  1  0  0  0  0
 46 45  2  0  0  0  0
 48 49  1  0  0  0  0
 48 15  1  0  0  0  0
 50 62  1  0  0  0  0
 50 49  1  1  0  0  0
 51 58  1  0  0  0  0
 52 50  1  0  0  0  0
 53 56  2  0  0  0  0
 54 59  1  0  0  0  0
 55 57  1  0  0  0  0
 56 52  1  0  0  0  0
 57 56  1  0  0  0  0
 58 55  2  0  0  0  0
 59 55  1  0  0  0  0
 60 51  1  0  0  0  0
 60 54  1  0  0  0  0
 61 63  2  0  0  0  0
 61 62  1  0  0  0  0
 64 68  1  6  0  0  0
 64 65  1  0  0  0  0
 64 61  1  0  0  0  0
 65 66  1  6  0  0  0
 65 67  1  0  0  0  0
 69 68  1  0  0  0  0
M  END
>  <MODEL>
2

>  <REMARK>
 VINA RESULT:       9.2      3.061      9.866
  Name = 
  19 active torsions:
  status: ('A' for Active; 'I' for Inactive)
    1  A    between atoms: C_2  and  C_43
    2  A    between atoms: C_3  and  C_51
    3  A    between atoms: C_10  and  C_64
    4  A    between atoms: N_17  and  C_69
    5  A    between atoms: C_18  and  C_43
    6  A    between atoms: C_26  and  C_51
    7  A    between atoms: N_33  and  C_46
    8  A    between atoms: C_37  and  C_43
    9  A    between atoms: C_39  and  C_67
   10  A    between atoms: O_41  and  C_47
   11  A    between atoms: O_41  and  C_67
   12  A    between atoms: C_42  and  C_47
   13  A    between atoms: C_42  and  C_65
   14  A    between atoms: C_46  and  C_61
   15  A    between atoms: C_50  and  C_55
   16  A    between atoms: N_52  and  C_69
   17  A    between atoms: C_55  and  C_65
   18  A    between atoms: C_60  and  C_67
   19  A    between atoms: C_61  and  C_69
                            x       y       z     vdW  Elec       q    Type
                         _______ _______ _______ _____ _____    ______ ____

>  <TORSDO>
F 19

$$$$
=
 OpenBabel11042422513D

 69 73  0  0  1  0  0  0  0  0999 V2000
  162.3360  210.0250  149.9360 C   0  0  2  0  0  3  0  0  0  0  0  0
  160.1560  206.2430  148.2000 C   0  0  0  0  0  3  0  0  0  0  0  0
  160.0950  206.3160  149.5420 C   0  0  0  0  0  0  0  0  0  0  0  0
  160.8290  204.3720  153.2770 C   0  0  0  0  0  2  0  0  0  0  0  0
  160.6720  208.8600  155.2270 C   0  0  0  0  0  0  0  0  0  0  0  0
  161.3810  211.8740  153.5980 C   0  0  0  0  0  1  0  0  0  0  0  0
  161.1280  207.0910  146.1550 N   0  0  0  0  0  1  0  0  0  0  0  0
  162.6140  209.9720  152.4300 C   0  0  0  0  0  0  0  0  0  0  0  0
  161.2270  205.1820  154.4950 C   0  0  0  0  0  2  0  0  0  0  0  0
  161.1630  207.4640  155.4520 C   0  0  0  0  0  2  0  0  0  0  0  0
  161.2750  208.3710  148.1030 O   0  0  0  0  0  0  0  0  0  0  0  0
  159.7260  205.0720  150.3180 C   0  0  0  0  0  2  0  0  0  0  0  0
  160.4600  207.4770  147.3850 C   0  0  2  0  0  3  0  0  0  0  0  0
  160.4740  206.4990  154.5070 C   0  0  0  0  0  2  0  0  0  0  0  0
  160.8650  204.3060  150.8510 N   0  0  0  0  0  0  0  0  0  0  0  0
  160.5310  208.7450  149.2440 C   0  0  2  0  0  3  0  0  0  0  0  0
  160.9340  209.9800  149.8060 O   0  0  0  0  0  0  0  0  0  0  0  0
  160.6050  209.4170  153.8370 C   0  0  2  0  0  3  0  0  0  0  0  0
  160.3920  209.5640  156.1890 O   0  0  0  0  0  0  0  0  0  0  0  0
  161.3970  205.0010  152.0130 C   0  0  0  0  0  2  0  0  0  0  0  0
  163.2920  208.9640  152.5310 O   0  0  0  0  0  0  0  0  0  0  0  0
  161.7630  210.3950  153.5970 C   0  0  2  0  0  3  0  0  0  0  0  0
  162.7240  210.8040  151.1890 C   0  0  0  0  0  2  0  0  0  0  0  0
  160.4770  207.5930  150.2570 C   0  0  0  0  0  2  0  0  0  0  0  0
  159.2000  209.9540  153.5440 C   0  0  0  0  0  2  0  0  0  0  0  0
  159.1960  210.8580  152.3280 C   0  0  0  0  0  2  0  0  0  0  0  0
  158.4400  212.1330  152.6360 C   0  0  0  0  0  2  0  0  0  0  0  0
  158.8200  212.6330  154.0180 C   0  0  0  0  0  2  0  0  0  0  0  0
  157.6750  213.0600  154.6910 O   0  0  0  0  0  0  0  0  0  0  0  0
  157.2970  211.9790  155.5000 C   0  0  2  0  0  3  0  0  0  0  0  0
  155.2040  212.5600  154.4740 O   0  0  0  0  0  1  0  0  0  0  0  0
  155.3650  210.3560  155.3640 C   0  0  0  0  0  1  0  0  0  0  0  0
  155.2110  212.3340  156.8320 C   0  0  0  0  0  1  0  0  0  0  0  0
  155.7680  211.8160  155.5160 C   0  0  0  0  0  0  0  0  0  0  0  0
  158.5160  213.5270  157.0420 C   0  0  0  0  0  1  0  0  0  0  0  0
  157.8610  212.1630  156.9080 C   0  0  0  0  0  2  0  0  0  0  0  0
  162.9680  210.6870  148.7040 C   0  0  0  0  0  2  0  0  0  0  0  0
  161.8880  214.4530  148.3850 C   0  0  1  0  0  3  0  0  0  0  0  0
  161.6350  211.7560  146.9830 C   0  0  0  0  0  3  0  0  0  0  0  0
  162.1290  213.1050  149.0730 C   0  0  2  0  0  3  0  0  0  0  0  0
  161.7390  214.4280  146.5420 S   0  0  0  0  0  0  0  0  0  0  0  0
  162.1900  211.8630  148.1970 C   0  0  0  0  0  0  0  0  0  0  0  0
  160.7460  213.7380  149.1000 C   0  0  0  0  0  2  0  0  0  0  0  0
  160.8390  212.8560  146.3730 C   0  0  1  0  0  3  0  0  0  0  0  0
  160.5490  212.5610  144.9400 C   0  0  0  0  0  0  0  0  0  0  0  0
  159.2970  212.0840  144.5810 O   0  0  0  0  0  1  0  0  0  0  0  0
  161.4340  212.7200  144.0590 O   0  0  0  0  0  0  0  0  0  0  0  0
  161.9240  204.1640  149.8540 C   0  0  0  0  0  2  0  0  0  0  0  0
  161.3610  204.3120  148.4520 C   0  0  0  0  0  2  0  0  0  0  0  0
  161.9940  203.3100  147.5050 C   0  0  2  0  0  3  0  0  0  0  0  0
  160.7240  206.0560  141.7680 C   0  0  0  0  0  2  0  0  0  0  0  0
  163.2460  203.8630  147.0150 N   0  0  0  0  0  2  0  0  0  0  0  0
  164.4640  204.9830  145.3940 O   0  0  0  0  0  0  0  0  0  0  0  0
  163.1640  206.2850  141.5500 C   0  0  0  0  0  2  0  0  0  0  0  0
  162.1240  205.3190  143.6460 C   0  0  0  0  0  0  0  0  0  0  0  0
  163.3520  204.5190  145.7500 C   0  0  0  0  0  0  0  0  0  0  0  0
  162.1910  204.6640  144.9190 N   0  0  0  0  0  2  0  0  0  0  0  0
  160.9530  205.4550  143.0850 N   0  0  0  0  0  0  0  0  0  0  0  0
  163.3600  205.9250  143.0200 C   0  0  0  0  0  2  0  0  0  0  0  0
  161.8450  207.0140  141.3840 C   0  0  0  0  0  2  0  0  0  0  0  0
  160.4320  201.8090  146.1740 C   0  0  0  0  0  0  0  0  0  0  0  0
  161.1010  203.0580  146.3800 N   0  0  0  0  0  2  0  0  0  0  0  0
  159.6890  201.6680  145.1680 O   0  0  0  0  0  0  0  0  0  0  0  0
  160.5910  200.6770  147.1540 C   0  0  2  0  0  3  0  0  0  0  0  0
  160.6250  201.1490  148.6150 C   0  0  2  0  0  3  0  0  0  0  0  0
  161.4960  200.2310  149.4560 C   0  0  0  0  0  1  0  0  0  0  0  0
  159.3350  201.1490  149.1500 O   0  0  0  0  0  1  0  0  0  0  0  0
  161.7690  199.7660  146.7850 C   0  0  0  0  0  2  0  0  0  0  0  0
  161.3380  198.5480  145.9850 C   0  0  0  0  0  1  0  0  0  0  0  0
  1 37  1  6  0  0  0
  1 23  1  0  0  0  0
  2  3  2  0  0  0  0
  3 24  1  0  0  0  0
  3 12  1  0  0  0  0
  4  9  1  0  0  0  0
  5 10  1  0  0  0  0
  5 19  2  0  0  0  0
  8 21  2  0  0  0  0
  8 22  1  0  0  0  0
  9 14  1  0  0  0  0
 11 16  1  0  0  0  0
 12 15  1  0  0  0  0
 13  7  1  6  0  0  0
 13 11  1  0  0  0  0
 13  2  1  0  0  0  0
 14 10  1  0  0  0  0
 15 20  1  0  0  0  0
 16 17  1  0  0  0  0
 16 24  1  1  0  0  0
 17  1  1  0  0  0  0
 18 25  1  1  0  0  0
 18  5  1  0  0  0  0
 20  4  1  0  0  0  0
 22  6  1  6  0  0  0
 22 18  1  0  0  0  0
 23  8  1  0  0  0  0
 26 27  1  0  0  0  0
 26 25  1  0  0  0  0
 27 28  1  0  0  0  0
 28 29  1  0  0  0  0
 29 30  1  0  0  0  0
 30 34  1  0  0  0  0
 30 36  1  1  0  0  0
 31 34  1  0  0  0  0
 32 34  1  0  0  0  0
 34 33  1  0  0  0  0
 36 35  1  0  0  0  0
 38 40  1  0  0  0  0
 38 43  1  1  0  0  0
 39 42  2  0  0  0  0
 40 43  1  1  0  0  0
 41 38  1  0  0  0  0
 42 37  1  0  0  0  0
 42 40  1  0  0  0  0
 44 45  1  6  0  0  0
 44 41  1  0  0  0  0
 44 39  1  0  0  0  0
 46 45  1  0  0  0  0
 47 45  2  0  0  0  0
 48 15  1  0  0  0  0
 49 48  1  0  0  0  0
 50 49  1  1  0  0  0
 51 58  1  0  0  0  0
 52 50  1  0  0  0  0
 53 56  2  0  0  0  0
 54 59  1  0  0  0  0
 55 57  1  0  0  0  0
 56 52  1  0  0  0  0
 57 56  1  0  0  0  0
 58 55  2  0  0  0  0
 59 55  1  0  0  0  0
 60 54  1  0  0  0  0
 60 51  1  0  0  0  0
 61 62  1  0  0  0  0
 61 64  1  0  0  0  0
 62 50  1  0  0  0  0
 63 61  2  0  0  0  0
 64 68  1  6  0  0  0
 64 65  1  0  0  0  0
 65 67  1  0  0  0  0
 65 66  1  1  0  0  0
 69 68  1  0  0  0  0
M  END
>  <MODEL>
3

>  <REMARK>
 VINA RESULT:      10.4      3.225      9.828
  Name = 
  19 active torsions:
  status: ('A' for Active; 'I' for Inactive)
    1  A    between atoms: C_2  and  C_43
    2  A    between atoms: C_3  and  C_51
    3  A    between atoms: C_10  and  C_64
    4  A    between atoms: N_17  and  C_69
    5  A    between atoms: C_18  and  C_43
    6  A    between atoms: C_26  and  C_51
    7  A    between atoms: N_33  and  C_46
    8  A    between atoms: C_37  and  C_43
    9  A    between atoms: C_39  and  C_67
   10  A    between atoms: O_41  and  C_47
   11  A    between atoms: O_41  and  C_67
   12  A    between atoms: C_42  and  C_47
   13  A    between atoms: C_42  and  C_65
   14  A    between atoms: C_46  and  C_61
   15  A    between atoms: C_50  and  C_55
   16  A    between atoms: N_52  and  C_69
   17  A    between atoms: C_55  and  C_65
   18  A    between atoms: C_60  and  C_67
   19  A    between atoms: C_61  and  C_69
                            x       y       z     vdW  Elec       q    Type
                         _______ _______ _______ _____ _____    ______ ____

>  <TORSDO>
F 19

$$$$
