=
 OpenBabel11042421453D

 51 56  0  0  1  0  0  0  0  0999 V2000
  159.7110  213.2350  144.3760 C   0  0  1  0  0  3  0  0  0  0  0  0
  156.8460  212.0440  146.2270 C   0  0  0  0  0  3  0  0  0  0  0  0
  159.5430  213.9540  149.4950 C   0  0  2  0  0  3  0  0  0  0  0  0
  163.0420  214.4300  147.2800 C   0  0  0  0  0  2  0  0  0  0  0  0
  161.4900  214.3320  145.3870 N   0  0  1  0  0  0  0  0  0  0  0  0
  158.2110  214.4530  149.4000 O   0  0  0  0  0  0  0  0  0  0  0  0
  160.4370  213.4200  145.6330 N   0  0  0  0  0  2  0  0  0  0  0  0
  157.4510  211.4930  147.4810 C   0  0  0  0  0  2  0  0  0  0  0  0
  158.2540  213.4870  144.5660 C   0  0  0  0  0  3  0  0  0  0  0  0
  162.8600  212.3230  146.1060 C   0  0  0  0  0  2  0  0  0  0  0  0
  161.6880  212.0470  148.8900 O   0  0  0  0  0  0  0  0  0  0  0  0
  157.5510  212.7630  145.3900 C   0  0  0  0  0  0  0  0  0  0  0  0
  160.3910  211.8200  148.4480 C   0  0  0  0  0  3  0  0  0  0  0  0
  162.7810  211.2820  148.4010 C   0  0  0  0  0  2  0  0  0  0  0  0
  157.3730  213.6140  148.7090 N   0  0  0  0  0  0  0  0  0  0  0  0
  160.2760  214.2230  143.3990 C   0  0  1  0  0  3  0  0  0  0  0  0
  158.0330  212.5780  148.3270 C   0  0  0  0  0  0  0  0  0  0  0  0
  163.6140  212.0880  147.4050 C   0  0  2  0  0  3  0  0  0  0  0  0
  159.4160  212.6680  148.7540 C   0  0  0  0  0  0  0  0  0  0  0  0
  162.7570  213.8310  145.9380 C   0  0  2  0  0  3  0  0  0  0  0  0
  163.9700  213.4470  147.9590 C   0  0  0  0  0  2  0  0  0  0  0  0
  161.6430  214.4470  143.9490 C   0  0  0  0  0  2  0  0  0  0  0  0
  160.2690  212.5420  151.3050 C   0  0  0  0  0  0  0  0  0  0  0  0
  161.8620  210.7510  151.0490 C   0  0  0  0  0  1  0  0  0  0  0  0
  159.8750  213.7160  150.9210 C   0  0  0  0  0  3  0  0  0  0  0  0
  160.6510  211.3460  151.6740 C   0  0  0  0  0  0  0  0  0  0  0  0
  159.5870  209.3090  152.2590 O   0  0  0  0  0  0  0  0  0  0  0  0
  159.7870  210.5270  152.5350 C   0  0  0  0  0  0  0  0  0  0  0  0
  159.1730  211.1010  153.6620 O   0  0  0  0  0  0  0  0  0  0  0  0
  159.8180  212.0920  154.4550 C   0  0  1  0  0  3  0  0  0  0  0  0
  158.8980  213.9690  155.8220 C   0  0  0  0  0  1  0  0  0  0  0  0
  157.6390  213.1910  153.8290 C   0  0  0  0  0  1  0  0  0  0  0  0
  159.0110  213.3860  154.4330 C   0  0  0  0  0  3  0  0  0  0  0  0
  161.5450  211.5670  156.1580 C   0  0  0  0  0  2  0  0  0  0  0  0
  160.8360  210.2770  155.8120 C   0  0  0  0  0  2  0  0  0  0  0  0
  160.0510  211.5640  155.8660 C   0  0  0  0  0  3  0  0  0  0  0  0
  161.5440  213.0110  141.6090 C   0  0  0  0  0  0  0  0  0  0  0  0
  160.3510  213.6320  142.0770 N   0  0  0  0  0  2  0  0  0  0  0  0
  162.5350  212.8740  142.3820 O   0  0  0  0  0  0  0  0  0  0  0  0
  161.6740  212.6360  140.1610 C   0  0  2  0  0  3  0  0  0  0  0  0
  159.5990  211.9570  138.9570 C   0  0  0  0  0  0  0  0  0  0  0  0
  160.6910  211.6080  139.8190 N   0  0  0  0  0  0  0  0  0  0  0  0
  158.4510  211.4600  139.1530 O   0  0  0  0  0  0  0  0  0  0  0  0
  159.8560  213.0760  137.5560 S   0  0  0  0  0  1  0  0  0  0  0  0
  160.6480  210.3730  140.5870 C   0  0  0  0  0  2  0  0  0  0  0  0
  161.6690  209.3790  140.0600 C   0  0  0  0  0  2  0  0  0  0  0  0
  162.0860  207.5700  138.4250 C   0  0  0  0  0  1  0  0  0  0  0  0
  161.0180  208.4450  139.0470 C   0  0  0  0  0  2  0  0  0  0  0  0
  163.6740  213.0920  138.9510 O   0  0  0  0  0  0  0  0  0  0  0  0
  163.0990  212.1920  139.8220 C   0  0  0  0  0  3  0  0  0  0  0  0
  163.9900  213.1460  140.2500 O   0  0  0  0  0  0  0  0  0  0  0  0
  1  9  1  1  0  0  0
  1  7  1  0  0  0  0
  2  8  1  0  0  0  0
  3 25  1  1  0  0  0
  4 21  1  0  0  0  0
  5 22  1  6  0  0  0
  5  7  1  0  0  0  0
  5 20  1  0  0  0  0
  6  3  1  0  0  0  0
  8 17  1  0  0  0  0
  9 12  2  0  0  0  0
 12  2  2  0  0  0  0
 13 19  2  0  0  0  0
 13 11  1  0  0  0  0
 14 11  1  0  0  0  0
 15  6  1  0  0  0  0
 16 38  1  6  0  0  0
 16 22  1  0  0  0  0
 16  1  1  0  0  0  0
 17 15  2  0  0  0  0
 17 19  1  0  0  0  0
 18 10  1  6  0  0  0
 18 21  1  0  0  0  0
 18 14  1  0  0  0  0
 19  3  1  0  0  0  0
 20 10  1  1  0  0  0
 20  4  1  0  0  0  0
 23 26  2  0  0  0  0
 24 26  1  0  0  0  0
 25 23  2  0  0  0  0
 26 28  1  0  0  0  0
 27 28  2  0  0  0  0
 28 29  1  0  0  0  0
 30 29  1  6  0  0  0
 30 36  1  0  0  0  0
 32 33  1  0  0  0  0
 33 30  1  0  0  0  0
 33 31  1  0  0  0  0
 35 36  1  0  0  0  0
 35 34  1  0  0  0  0
 36 34  1  0  0  0  0
 37 38  1  0  0  0  0
 37 39  2  0  0  0  0
 40 37  1  1  0  0  0
 41 43  2  0  0  0  0
 41 42  1  0  0  0  0
 42 40  1  0  0  0  0
 42 45  1  0  0  0  0
 44 41  1  0  0  0  0
 46 45  1  0  0  0  0
 47 48  1  0  0  0  0
 48 46  1  0  0  0  0
 49 50  1  0  0  0  0
 49 51  1  0  0  0  0
 50 40  1  0  0  0  0
 50 51  1  0  0  0  0
M  END
>  <MODEL>
1

>  <REMARK>
 VINA RESULT:       0.4      0.000      0.000
  Name = 
  13 active torsions:
  status: ('A' for Active; 'I' for Inactive)
    1  A    between atoms: O_2  and  C_40
    2  A    between atoms: O_2  and  C_48
    3  A    between atoms: C_3  and  N_16
    4  A    between atoms: C_3  and  C_38
    5  A    between atoms: C_7  and  C_33
    6  A    between atoms: C_11  and  C_37
    7  A    between atoms: N_16  and  C_37
    8  A    between atoms: N_22  and  C_34
    9  A    between atoms: C_31  and  C_37
   10  A    between atoms: C_35  and  C_40
   11  A    between atoms: C_38  and  C_47
   12  A    between atoms: C_40  and  C_41
   13  A    between atoms: C_44  and  C_48
                            x       y       z     vdW  Elec       q    Type
                         _______ _______ _______ _____ _____    ______ ____

>  <TORSDO>
F 13

$$$$
=
 OpenBabel11042421453D

 51 56  0  0  1  0  0  0  0  0999 V2000
  159.9070  212.7870  144.5360 C   0  0  1  0  0  3  0  0  0  0  0  0
  157.0200  211.6540  146.3880 C   0  0  0  0  0  3  0  0  0  0  0  0
  159.4740  214.0350  149.5360 C   0  0  2  0  0  3  0  0  0  0  0  0
  163.0440  214.4530  147.4250 C   0  0  0  0  0  2  0  0  0  0  0  0
  161.5860  214.0760  145.4930 N   0  0  1  0  0  0  0  0  0  0  0  0
  158.1260  214.4530  149.3340 O   0  0  0  0  0  0  0  0  0  0  0  0
  160.5660  213.1420  145.7930 N   0  0  0  0  0  2  0  0  0  0  0  0
  157.5920  211.2710  147.7170 C   0  0  0  0  0  2  0  0  0  0  0  0
  158.4330  212.9830  144.6380 C   0  0  0  0  0  3  0  0  0  0  0  0
  163.0140  212.2270  146.4790 C   0  0  0  0  0  2  0  0  0  0  0  0
  161.7300  212.1870  149.2280 O   0  0  0  0  0  0  0  0  0  0  0  0
  157.7280  212.3160  145.5070 C   0  0  0  0  0  0  0  0  0  0  0  0
  160.4670  211.8490  148.7610 C   0  0  0  0  0  3  0  0  0  0  0  0
  162.8800  211.4320  148.8680 C   0  0  0  0  0  2  0  0  0  0  0  0
  157.3600  213.5030  148.7040 N   0  0  0  0  0  0  0  0  0  0  0  0
  160.4690  213.6940  143.4800 C   0  0  1  0  0  3  0  0  0  0  0  0
  158.0840  212.4680  148.4630 C   0  0  0  0  0  0  0  0  0  0  0  0
  163.7180  212.1690  147.8250 C   0  0  2  0  0  3  0  0  0  0  0  0
  159.4410  212.6730  148.9340 C   0  0  0  0  0  0  0  0  0  0  0  0
  162.8480  213.7010  146.1450 C   0  0  2  0  0  3  0  0  0  0  0  0
  163.9850  213.5970  148.2430 C   0  0  0  0  0  2  0  0  0  0  0  0
  161.7980  214.0450  144.0580 C   0  0  0  0  0  2  0  0  0  0  0  0
  159.6470  212.8360  151.6160 C   0  0  0  0  0  0  0  0  0  0  0  0
  160.3440  210.5350  151.7800 C   0  0  0  0  0  1  0  0  0  0  0  0
  159.7510  213.9670  150.9910 C   0  0  0  0  0  3  0  0  0  0  0  0
  159.5200  211.6880  152.2310 C   0  0  0  0  0  0  0  0  0  0  0  0
  157.2400  211.4070  152.8190 O   0  0  0  0  0  0  0  0  0  0  0  0
  158.4410  211.4860  153.2070 C   0  0  0  0  0  0  0  0  0  0  0  0
  158.7430  211.3930  154.5760 O   0  0  0  0  0  0  0  0  0  0  0  0
  159.8750  212.0410  155.1490 C   0  0  1  0  0  3  0  0  0  0  0  0
  158.6430  214.2130  155.0990 C   0  0  0  0  0  1  0  0  0  0  0  0
  160.5930  213.9610  156.6150 C   0  0  0  0  0  1  0  0  0  0  0  0
  159.4280  213.2520  155.9610 C   0  0  0  0  0  3  0  0  0  0  0  0
  162.1130  211.0080  155.4350 C   0  0  0  0  0  2  0  0  0  0  0  0
  161.1390  209.9030  155.0950 C   0  0  0  0  0  2  0  0  0  0  0  0
  160.6880  211.0460  155.9700 C   0  0  0  0  0  3  0  0  0  0  0  0
  159.6950  213.1060  141.1710 C   0  0  0  0  0  0  0  0  0  0  0  0
  160.6320  212.9710  142.2340 N   0  0  0  0  0  2  0  0  0  0  0  0
  158.7500  213.9430  141.2590 O   0  0  0  0  0  0  0  0  0  0  0  0
  159.7480  212.1660  140.0020 C   0  0  2  0  0  3  0  0  0  0  0  0
  158.6400  213.6680  138.3480 C   0  0  0  0  0  0  0  0  0  0  0  0
  158.6390  212.4390  139.0880 N   0  0  0  0  0  0  0  0  0  0  0  0
  157.5540  214.2790  138.1300 O   0  0  0  0  0  0  0  0  0  0  0  0
  160.1870  214.3380  137.6840 S   0  0  0  0  0  1  0  0  0  0  0  0
  157.4240  211.6420  139.1750 C   0  0  0  0  0  2  0  0  0  0  0  0
  156.6080  211.7690  137.9000 C   0  0  0  0  0  2  0  0  0  0  0  0
  154.9910  209.8990  137.8030 C   0  0  0  0  0  1  0  0  0  0  0  0
  155.1630  211.3610  138.1590 C   0  0  0  0  0  2  0  0  0  0  0  0
  160.3580  209.9210  139.4930 O   0  0  0  0  0  0  0  0  0  0  0  0
  159.7600  210.7040  140.4570 C   0  0  0  0  0  3  0  0  0  0  0  0
  161.0590  210.2730  140.5770 O   0  0  0  0  0  0  0  0  0  0  0  0
  1  9  1  1  0  0  0
  1  7  1  0  0  0  0
  2  8  1  0  0  0  0
  3 25  1  1  0  0  0
  4 21  1  0  0  0  0
  5 22  1  6  0  0  0
  5  7  1  0  0  0  0
  5 20  1  0  0  0  0
  6  3  1  0  0  0  0
  8 17  1  0  0  0  0
  9 12  2  0  0  0  0
 12  2  2  0  0  0  0
 13 19  2  0  0  0  0
 13 11  1  0  0  0  0
 14 11  1  0  0  0  0
 15  6  1  0  0  0  0
 16 38  1  6  0  0  0
 16 22  1  0  0  0  0
 16  1  1  0  0  0  0
 17 15  2  0  0  0  0
 17 19  1  0  0  0  0
 18 10  1  6  0  0  0
 18 21  1  0  0  0  0
 18 14  1  0  0  0  0
 19  3  1  0  0  0  0
 20 10  1  1  0  0  0
 20  4  1  0  0  0  0
 23 26  2  0  0  0  0
 24 26  1  0  0  0  0
 25 23  2  0  0  0  0
 26 28  1  0  0  0  0
 27 28  2  0  0  0  0
 28 29  1  0  0  0  0
 30 29  1  1  0  0  0
 30 33  1  0  0  0  0
 30 36  1  0  0  0  0
 31 33  1  0  0  0  0
 33 32  1  0  0  0  0
 34 36  1  0  0  0  0
 35 34  1  0  0  0  0
 35 36  1  0  0  0  0
 37 39  2  0  0  0  0
 37 38  1  0  0  0  0
 40 50  1  0  0  0  0
 40 37  1  1  0  0  0
 41 42  1  0  0  0  0
 42 45  1  0  0  0  0
 42 40  1  0  0  0  0
 43 41  2  0  0  0  0
 44 41  1  0  0  0  0
 46 48  1  0  0  0  0
 46 45  1  0  0  0  0
 47 48  1  0  0  0  0
 49 50  1  0  0  0  0
 49 51  1  0  0  0  0
 50 51  1  0  0  0  0
M  END
>  <MODEL>
2

>  <REMARK>
 VINA RESULT:       0.7      1.674      2.400
  Name = 
  13 active torsions:
  status: ('A' for Active; 'I' for Inactive)
    1  A    between atoms: O_2  and  C_40
    2  A    between atoms: O_2  and  C_48
    3  A    between atoms: C_3  and  N_16
    4  A    between atoms: C_3  and  C_38
    5  A    between atoms: C_7  and  C_33
    6  A    between atoms: C_11  and  C_37
    7  A    between atoms: N_16  and  C_37
    8  A    between atoms: N_22  and  C_34
    9  A    between atoms: C_31  and  C_37
   10  A    between atoms: C_35  and  C_40
   11  A    between atoms: C_38  and  C_47
   12  A    between atoms: C_40  and  C_41
   13  A    between atoms: C_44  and  C_48
                            x       y       z     vdW  Elec       q    Type
                         _______ _______ _______ _____ _____    ______ ____

>  <TORSDO>
F 13

$$$$
=
 OpenBabel11042421453D

 51 56  0  0  1  0  0  0  0  0999 V2000
  161.4480  206.5940  151.4800 C   0  0  1  0  0  3  0  0  0  0  0  0
  162.0210  209.9580  150.2970 C   0  0  0  0  0  3  0  0  0  0  0  0
  162.8350  210.2510  154.8640 C   0  0  2  0  0  3  0  0  0  0  0  0
  161.2900  206.5680  156.0560 C   0  0  0  0  0  2  0  0  0  0  0  0
  161.6910  205.9890  153.7100 N   0  0  1  0  0  0  0  0  0  0  0  0
  163.8900  210.6740  154.0030 O   0  0  0  0  0  0  0  0  0  0  0  0
  161.4310  207.0880  152.8570 N   0  0  0  0  0  2  0  0  0  0  0  0
  161.4220  210.8080  151.3730 C   0  0  0  0  0  2  0  0  0  0  0  0
  162.3850  207.3950  150.6430 C   0  0  0  0  0  3  0  0  0  0  0  0
  159.3880  206.6220  154.5620 C   0  0  0  0  0  2  0  0  0  0  0  0
  160.0760  209.4420  155.4430 O   0  0  0  0  0  0  0  0  0  0  0  0
  162.2000  208.6720  150.4660 C   0  0  0  0  0  0  0  0  0  0  0  0
  160.4370  209.8750  154.1750 C   0  0  0  0  0  3  0  0  0  0  0  0
  158.8260  208.8090  155.6820 C   0  0  0  0  0  2  0  0  0  0  0  0
  163.4660  210.9250  152.7210 N   0  0  0  0  0  0  0  0  0  0  0  0
  161.9080  205.1660  151.5380 C   0  0  1  0  0  3  0  0  0  0  0  0
  162.2010  210.7080  152.6430 C   0  0  0  0  0  0  0  0  0  0  0  0
  158.9980  207.3020  155.8650 C   0  0  2  0  0  3  0  0  0  0  0  0
  161.6780  210.2740  153.9250 C   0  0  0  0  0  0  0  0  0  0  0  0
  160.7260  205.9450  154.8170 C   0  0  2  0  0  3  0  0  0  0  0  0
  160.0850  206.9890  156.8670 C   0  0  0  0  0  2  0  0  0  0  0  0
  161.5260  204.7790  152.9250 C   0  0  0  0  0  2  0  0  0  0  0  0
  161.4680  211.6070  156.3090 C   0  0  0  0  0  0  0  0  0  0  0  0
  159.3040  210.9310  157.1260 C   0  0  0  0  0  1  0  0  0  0  0  0
  162.6600  211.2490  155.9470 C   0  0  0  0  0  3  0  0  0  0  0  0
  160.2570  211.9680  156.6470 C   0  0  0  0  0  0  0  0  0  0  0  0
  159.8590  214.2250  157.2570 O   0  0  0  0  0  0  0  0  0  0  0  0
  159.7840  213.3300  156.3660 C   0  0  0  0  0  0  0  0  0  0  0  0
  159.2370  213.6370  155.1080 O   0  0  0  0  0  0  0  0  0  0  0  0
  157.8580  213.9450  154.9350 C   0  0  1  0  0  3  0  0  0  0  0  0
  158.3720  212.3650  153.0700 C   0  0  0  0  0  1  0  0  0  0  0  0
  156.8710  214.2950  152.6430 C   0  0  0  0  0  1  0  0  0  0  0  0
  157.3300  213.2820  153.6670 C   0  0  0  0  0  3  0  0  0  0  0  0
  156.2420  212.3120  155.8730 C   0  0  0  0  0  2  0  0  0  0  0  0
  155.5930  213.6760  155.9180 C   0  0  0  0  0  2  0  0  0  0  0  0
  157.0720  213.5500  156.1800 C   0  0  0  0  0  3  0  0  0  0  0  0
  161.5470  203.0180  150.3000 C   0  0  0  0  0  0  0  0  0  0  0  0
  161.1820  204.3670  150.5690 N   0  0  0  0  0  2  0  0  0  0  0  0
  162.4560  202.4570  150.9780 O   0  0  0  0  0  0  0  0  0  0  0  0
  160.9480  202.3010  149.1250 C   0  0  2  0  0  3  0  0  0  0  0  0
  161.2210  202.6180  146.6670 C   0  0  0  0  0  0  0  0  0  0  0  0
  160.9350  203.1790  147.9550 N   0  0  0  0  0  0  0  0  0  0  0  0
  161.8800  203.2830  145.8160 O   0  0  0  0  0  0  0  0  0  0  0  0
  160.6100  200.9700  146.2260 S   0  0  0  0  0  1  0  0  0  0  0  0
  160.9510  204.6230  148.1410 C   0  0  0  0  0  2  0  0  0  0  0  0
  162.2110  205.2250  147.5410 C   0  0  0  0  0  2  0  0  0  0  0  0
  160.5140  206.3940  146.1720 C   0  0  0  0  0  1  0  0  0  0  0  0
  161.8780  206.5240  146.8170 C   0  0  0  0  0  2  0  0  0  0  0  0
  159.6260  200.4290  149.7740 O   0  0  0  0  0  0  0  0  0  0  0  0
  159.5500  201.7670  149.4470 C   0  0  0  0  0  3  0  0  0  0  0  0
  159.5140  201.3370  150.7510 O   0  0  0  0  0  0  0  0  0  0  0  0
  1  9  1  6  0  0  0
  1 16  1  0  0  0  0
  1  7  1  0  0  0  0
  2 12  2  0  0  0  0
  2  8  1  0  0  0  0
  3 25  1  1  0  0  0
  4 21  1  0  0  0  0
  5 22  1  6  0  0  0
  5 20  1  0  0  0  0
  6  3  1  0  0  0  0
  7  5  1  0  0  0  0
  8 17  1  0  0  0  0
 11 14  1  0  0  0  0
 12  9  2  0  0  0  0
 13 11  1  0  0  0  0
 14 18  1  0  0  0  0
 15  6  1  0  0  0  0
 16 38  1  6  0  0  0
 16 22  1  0  0  0  0
 17 15  2  0  0  0  0
 17 19  1  0  0  0  0
 18 10  1  6  0  0  0
 18 21  1  0  0  0  0
 19 13  2  0  0  0  0
 19  3  1  0  0  0  0
 20 10  1  6  0  0  0
 20  4  1  0  0  0  0
 23 26  2  0  0  0  0
 25 23  2  0  0  0  0
 26 24  1  0  0  0  0
 28 26  1  0  0  0  0
 28 27  2  0  0  0  0
 29 28  1  0  0  0  0
 30 33  1  6  0  0  0
 30 29  1  0  0  0  0
 30 36  1  0  0  0  0
 31 33  1  0  0  0  0
 32 33  1  0  0  0  0
 34 35  1  0  0  0  0
 34 36  1  0  0  0  0
 35 36  1  0  0  0  0
 37 38  1  0  0  0  0
 37 39  2  0  0  0  0
 40 50  1  0  0  0  0
 40 37  1  1  0  0  0
 41 42  1  0  0  0  0
 42 45  1  0  0  0  0
 42 40  1  0  0  0  0
 43 41  2  0  0  0  0
 44 41  1  0  0  0  0
 46 45  1  0  0  0  0
 47 48  1  0  0  0  0
 48 46  1  0  0  0  0
 49 51  1  0  0  0  0
 50 49  1  0  0  0  0
 50 51  1  0  0  0  0
M  END
>  <MODEL>
3

>  <REMARK>
 VINA RESULT:       0.7      6.837      9.593
  Name = 
  13 active torsions:
  status: ('A' for Active; 'I' for Inactive)
    1  A    between atoms: O_2  and  C_40
    2  A    between atoms: O_2  and  C_48
    3  A    between atoms: C_3  and  N_16
    4  A    between atoms: C_3  and  C_38
    5  A    between atoms: C_7  and  C_33
    6  A    between atoms: C_11  and  C_37
    7  A    between atoms: N_16  and  C_37
    8  A    between atoms: N_22  and  C_34
    9  A    between atoms: C_31  and  C_37
   10  A    between atoms: C_35  and  C_40
   11  A    between atoms: C_38  and  C_47
   12  A    between atoms: C_40  and  C_41
   13  A    between atoms: C_44  and  C_48
                            x       y       z     vdW  Elec       q    Type
                         _______ _______ _______ _____ _____    ______ ____

>  <TORSDO>
F 13

$$$$
=
 OpenBabel11042421453D

 51 56  0  0  1  0  0  0  0  0999 V2000
  161.2910  206.5270  149.7770 C   0  0  1  0  0  3  0  0  0  0  0  0
  161.3700  206.2300  153.3770 C   0  0  0  0  0  3  0  0  0  0  0  0
  160.1010  210.6460  152.6710 C   0  0  2  0  0  3  0  0  0  0  0  0
  160.9260  210.9350  148.5950 C   0  0  0  0  0  2  0  0  0  0  0  0
  160.7090  208.4970  148.6930 N   0  0  1  0  0  0  0  0  0  0  0  0
  159.2260  209.8540  153.4710 O   0  0  0  0  0  0  0  0  0  0  0  0
  161.2270  207.9830  149.9060 N   0  0  0  0  0  2  0  0  0  0  0  0
  161.9660  207.5310  153.8160 C   0  0  0  0  0  2  0  0  0  0  0  0
  160.5860  205.8660  150.9120 C   0  0  0  0  0  3  0  0  0  0  0  0
  162.9700  209.6450  148.6820 C   0  0  0  0  0  2  0  0  0  0  0  0
  162.6220  211.1840  151.2730 O   0  0  0  0  0  0  0  0  0  0  0  0
  160.9810  206.0430  152.1400 C   0  0  0  0  0  0  0  0  0  0  0  0
  162.4760  210.0510  152.0620 C   0  0  0  0  0  3  0  0  0  0  0  0
  163.7270  211.3360  150.3920 C   0  0  0  0  0  2  0  0  0  0  0  0
  159.8240  208.7160  153.9530 N   0  0  0  0  0  0  0  0  0  0  0  0
  160.6160  206.1760  148.4840 C   0  0  1  0  0  3  0  0  0  0  0  0
  161.0420  208.6730  153.5440 C   0  0  0  0  0  0  0  0  0  0  0  0
  163.3100  211.1040  148.9400 C   0  0  2  0  0  3  0  0  0  0  0  0
  161.3460  209.8290  152.7220 C   0  0  0  0  0  0  0  0  0  0  0  0
  161.5250  209.6190  148.2080 C   0  0  2  0  0  3  0  0  0  0  0  0
  162.0820  211.9110  148.5850 C   0  0  0  0  0  2  0  0  0  0  0  0
  160.7760  207.4360  147.7050 C   0  0  0  0  0  2  0  0  0  0  0  0
  160.2650  212.0540  154.6150 C   0  0  0  0  0  0  0  0  0  0  0  0
  161.1570  211.3180  156.7300 C   0  0  0  0  0  1  0  0  0  0  0  0
  160.3010  211.9620  153.3230 C   0  0  0  0  0  3  0  0  0  0  0  0
  160.2080  212.1290  155.9200 C   0  0  0  0  0  0  0  0  0  0  0  0
  159.3050  213.9410  157.1550 O   0  0  0  0  0  0  0  0  0  0  0  0
  159.0990  212.8360  156.5740 C   0  0  0  0  0  0  0  0  0  0  0  0
  157.8090  212.2790  156.5650 O   0  0  0  0  0  0  0  0  0  0  0  0
  156.9290  212.4220  155.4550 C   0  0  1  0  0  3  0  0  0  0  0  0
  155.3560  211.6300  157.2260 C   0  0  0  0  0  1  0  0  0  0  0  0
  155.5610  210.3320  155.1190 C   0  0  0  0  0  1  0  0  0  0  0  0
  155.6100  211.7110  155.7390 C   0  0  0  0  0  3  0  0  0  0  0  0
  155.8990  214.0190  153.8590 C   0  0  0  0  0  2  0  0  0  0  0  0
  157.3980  214.2100  153.7950 C   0  0  0  0  0  2  0  0  0  0  0  0
  156.7450  213.8980  155.1190 C   0  0  0  0  0  3  0  0  0  0  0  0
  161.0990  204.7780  146.4610 C   0  0  0  0  0  0  0  0  0  0  0  0
  161.3170  205.0850  147.8340 N   0  0  0  0  0  2  0  0  0  0  0  0
  160.3590  205.5200  145.7520 O   0  0  0  0  0  0  0  0  0  0  0  0
  161.6400  203.5010  145.8850 C   0  0  2  0  0  3  0  0  0  0  0  0
  160.1750  201.5380  146.3490 C   0  0  0  0  0  0  0  0  0  0  0  0
  161.2750  202.3710  146.7390 N   0  0  0  0  0  0  0  0  0  0  0  0
  159.3960  201.0620  147.2260 O   0  0  0  0  0  0  0  0  0  0  0  0
  159.9100  201.1230  144.6050 S   0  0  0  0  0  1  0  0  0  0  0  0
  161.8020  202.2960  148.0940 C   0  0  0  0  0  2  0  0  0  0  0  0
  161.3210  201.0320  148.7860 C   0  0  0  0  0  2  0  0  0  0  0  0
  161.3030  202.2770  150.9230 C   0  0  0  0  0  1  0  0  0  0  0  0
  160.4860  201.3890  150.0100 C   0  0  0  0  0  2  0  0  0  0  0  0
  163.4600  204.6960  144.9170 O   0  0  0  0  0  0  0  0  0  0  0  0
  163.1540  203.5800  145.6680 C   0  0  0  0  0  3  0  0  0  0  0  0
  163.6390  204.7300  146.2430 O   0  0  0  0  0  0  0  0  0  0  0  0
  1  7  1  0  0  0  0
  1  9  1  1  0  0  0
  2  8  1  0  0  0  0
  3 19  1  0  0  0  0
  3 25  1  1  0  0  0
  3  6  1  0  0  0  0
  5 22  1  6  0  0  0
  5  7  1  0  0  0  0
  6 15  1  0  0  0  0
  9 12  2  0  0  0  0
 10 18  1  0  0  0  0
 11 13  1  0  0  0  0
 12  2  2  0  0  0  0
 13 19  2  0  0  0  0
 14 11  1  0  0  0  0
 16 38  1  6  0  0  0
 16  1  1  0  0  0  0
 17  8  1  0  0  0  0
 17 15  2  0  0  0  0
 18 21  1  1  0  0  0
 18 14  1  0  0  0  0
 19 17  1  0  0  0  0
 20  4  1  1  0  0  0
 20 10  1  0  0  0  0
 20  5  1  0  0  0  0
 21  4  1  0  0  0  0
 22 16  1  0  0  0  0
 23 26  2  0  0  0  0
 25 23  2  0  0  0  0
 26 28  1  0  0  0  0
 26 24  1  0  0  0  0
 28 27  2  0  0  0  0
 29 28  1  0  0  0  0
 30 33  1  1  0  0  0
 30 29  1  0  0  0  0
 32 33  1  0  0  0  0
 33 31  1  0  0  0  0
 34 36  1  0  0  0  0
 35 34  1  0  0  0  0
 35 36  1  0  0  0  0
 36 30  1  0  0  0  0
 37 38  1  0  0  0  0
 39 37  2  0  0  0  0
 40 37  1  1  0  0  0
 40 42  1  0  0  0  0
 41 42  1  0  0  0  0
 41 43  2  0  0  0  0
 42 45  1  0  0  0  0
 44 41  1  0  0  0  0
 45 46  1  0  0  0  0
 46 48  1  0  0  0  0
 48 47  1  0  0  0  0
 49 50  1  0  0  0  0
 49 51  1  0  0  0  0
 50 40  1  0  0  0  0
 50 51  1  0  0  0  0
M  END
>  <MODEL>
4

>  <REMARK>
 VINA RESULT:       0.8      5.805      8.051
  Name = 
  13 active torsions:
  status: ('A' for Active; 'I' for Inactive)
    1  A    between atoms: O_2  and  C_40
    2  A    between atoms: O_2  and  C_48
    3  A    between atoms: C_3  and  N_16
    4  A    between atoms: C_3  and  C_38
    5  A    between atoms: C_7  and  C_33
    6  A    between atoms: C_11  and  C_37
    7  A    between atoms: N_16  and  C_37
    8  A    between atoms: N_22  and  C_34
    9  A    between atoms: C_31  and  C_37
   10  A    between atoms: C_35  and  C_40
   11  A    between atoms: C_38  and  C_47
   12  A    between atoms: C_40  and  C_41
   13  A    between atoms: C_44  and  C_48
                            x       y       z     vdW  Elec       q    Type
                         _______ _______ _______ _____ _____    ______ ____

>  <TORSDO>
F 13

$$$$
=
 OpenBabel11042421453D

 51 56  0  0  1  0  0  0  0  0999 V2000
  161.2530  206.1380  150.5430 C   0  0  1  0  0  3  0  0  0  0  0  0
  161.1750  205.0950  154.0010 C   0  0  0  0  0  3  0  0  0  0  0  0
  159.9090  209.5640  154.1780 C   0  0  2  0  0  3  0  0  0  0  0  0
  160.9120  210.6970  150.2940 C   0  0  0  0  0  2  0  0  0  0  0  0
  160.7070  208.2930  149.8700 N   0  0  1  0  0  0  0  0  0  0  0  0
  159.0050  208.6250  154.7550 O   0  0  0  0  0  0  0  0  0  0  0  0
  161.1740  207.5350  150.9700 N   0  0  0  0  0  2  0  0  0  0  0  0
  161.7420  206.2730  154.7290 C   0  0  0  0  0  2  0  0  0  0  0  0
  160.5030  205.2560  151.4820 C   0  0  0  0  0  3  0  0  0  0  0  0
  162.9590  209.4110  150.2010 C   0  0  0  0  0  2  0  0  0  0  0  0
  162.4860  210.3760  153.0380 O   0  0  0  0  0  0  0  0  0  0  0  0
  160.8420  205.1710  152.7370 C   0  0  0  0  0  0  0  0  0  0  0  0
  162.3130  209.1030  153.5650 C   0  0  0  0  0  3  0  0  0  0  0  0
  163.6280  210.7050  152.2580 C   0  0  0  0  0  2  0  0  0  0  0  0
  159.5880  207.4090  155.0140 N   0  0  0  0  0  0  0  0  0  0  0  0
  160.6390  206.0670  149.1760 C   0  0  1  0  0  3  0  0  0  0  0  0
  160.8240  207.4490  154.6600 C   0  0  0  0  0  0  0  0  0  0  0  0
  163.2770  210.7830  150.7730 C   0  0  2  0  0  3  0  0  0  0  0  0
  161.1560  208.7510  154.1130 C   0  0  0  0  0  0  0  0  0  0  0  0
  161.5370  209.4890  149.6680 C   0  0  2  0  0  3  0  0  0  0  0  0
  162.0610  211.6500  150.5410 C   0  0  0  0  0  2  0  0  0  0  0  0
  160.8250  207.4630  148.6860 C   0  0  0  0  0  2  0  0  0  0  0  0
  159.0340  211.3980  155.4670 C   0  0  0  0  0  0  0  0  0  0  0  0
  156.8580  211.3880  156.5020 C   0  0  0  0  0  1  0  0  0  0  0  0
  160.0720  210.7140  155.1000 C   0  0  0  0  0  3  0  0  0  0  0  0
  157.9760  212.0850  155.8130 C   0  0  0  0  0  0  0  0  0  0  0  0
  157.1430  214.2940  156.0400 O   0  0  0  0  0  0  0  0  0  0  0  0
  157.8070  213.4690  155.3490 C   0  0  0  0  0  0  0  0  0  0  0  0
  158.3750  213.8730  154.1290 O   0  0  0  0  0  0  0  0  0  0  0  0
  157.6070  213.9900  152.9360 C   0  0  1  0  0  3  0  0  0  0  0  0
  158.5070  211.8620  151.9860 C   0  0  0  0  0  1  0  0  0  0  0  0
  159.7020  213.9900  151.5350 C   0  0  0  0  0  1  0  0  0  0  0  0
  158.3530  213.3490  151.7690 C   0  0  0  0  0  3  0  0  0  0  0  0
  155.2340  214.0950  152.2170 C   0  0  0  0  0  2  0  0  0  0  0  0
  155.2850  214.4530  153.6850 C   0  0  0  0  0  2  0  0  0  0  0  0
  156.2180  213.3980  153.1460 C   0  0  0  0  0  3  0  0  0  0  0  0
  161.0100  204.9040  146.9880 C   0  0  0  0  0  0  0  0  0  0  0  0
  161.3750  205.1350  148.3440 N   0  0  0  0  0  2  0  0  0  0  0  0
  160.0910  205.5880  146.4510 O   0  0  0  0  0  0  0  0  0  0  0  0
  161.6230  203.7600  146.2320 C   0  0  2  0  0  3  0  0  0  0  0  0
  160.0420  201.8330  146.2970 C   0  0  0  0  0  0  0  0  0  0  0  0
  161.2050  202.4880  146.8220 N   0  0  0  0  0  0  0  0  0  0  0  0
  159.2560  201.2160  147.0740 O   0  0  0  0  0  0  0  0  0  0  0  0
  159.7050  201.8450  144.5170 S   0  0  0  0  0  1  0  0  0  0  0  0
  161.7600  202.0740  148.1020 C   0  0  0  0  0  2  0  0  0  0  0  0
  161.1980  200.7250  148.5180 C   0  0  0  0  0  2  0  0  0  0  0  0
  160.6880  202.0890  150.5170 C   0  0  0  0  0  1  0  0  0  0  0  0
  160.9850  200.6880  150.0260 C   0  0  0  0  0  2  0  0  0  0  0  0
  163.5350  204.2490  144.8990 O   0  0  0  0  0  0  0  0  0  0  0  0
  163.1470  203.8810  146.1700 C   0  0  0  0  0  3  0  0  0  0  0  0
  163.4910  205.1760  145.8630 O   0  0  0  0  0  0  0  0  0  0  0  0
  1  7  1  0  0  0  0
  1  9  1  1  0  0  0
  2  8  1  0  0  0  0
  3  6  1  0  0  0  0
  3 25  1  1  0  0  0
  4 21  1  0  0  0  0
  5 22  1  6  0  0  0
  5  7  1  0  0  0  0
  6 15  1  0  0  0  0
  9 12  2  0  0  0  0
 11 13  1  0  0  0  0
 12  2  2  0  0  0  0
 13 19  2  0  0  0  0
 14 11  1  0  0  0  0
 16 38  1  6  0  0  0
 16  1  1  0  0  0  0
 17  8  1  0  0  0  0
 17 15  2  0  0  0  0
 18 10  1  1  0  0  0
 18 14  1  0  0  0  0
 19  3  1  0  0  0  0
 19 17  1  0  0  0  0
 20  5  1  0  0  0  0
 20 10  1  1  0  0  0
 20  4  1  0  0  0  0
 21 18  1  0  0  0  0
 22 16  1  0  0  0  0
 23 26  2  0  0  0  0
 25 23  2  0  0  0  0
 26 24  1  0  0  0  0
 28 26  1  0  0  0  0
 28 27  2  0  0  0  0
 29 28  1  0  0  0  0
 30 33  1  6  0  0  0
 30 36  1  0  0  0  0
 30 29  1  0  0  0  0
 32 33  1  0  0  0  0
 33 31  1  0  0  0  0
 34 36  1  0  0  0  0
 34 35  1  0  0  0  0
 36 35  1  0  0  0  0
 37 38  1  0  0  0  0
 39 37  2  0  0  0  0
 40 42  1  0  0  0  0
 40 37  1  1  0  0  0
 41 42  1  0  0  0  0
 41 43  2  0  0  0  0
 42 45  1  0  0  0  0
 44 41  1  0  0  0  0
 45 46  1  0  0  0  0
 46 48  1  0  0  0  0
 48 47  1  0  0  0  0
 49 51  1  0  0  0  0
 49 50  1  0  0  0  0
 50 40  1  0  0  0  0
 51 50  1  0  0  0  0
M  END
>  <MODEL>
5

>  <REMARK>
 VINA RESULT:       1.5      6.389      8.539
  Name = 
  13 active torsions:
  status: ('A' for Active; 'I' for Inactive)
    1  A    between atoms: O_2  and  C_40
    2  A    between atoms: O_2  and  C_48
    3  A    between atoms: C_3  and  N_16
    4  A    between atoms: C_3  and  C_38
    5  A    between atoms: C_7  and  C_33
    6  A    between atoms: C_11  and  C_37
    7  A    between atoms: N_16  and  C_37
    8  A    between atoms: N_22  and  C_34
    9  A    between atoms: C_31  and  C_37
   10  A    between atoms: C_35  and  C_40
   11  A    between atoms: C_38  and  C_47
   12  A    between atoms: C_40  and  C_41
   13  A    between atoms: C_44  and  C_48
                            x       y       z     vdW  Elec       q    Type
                         _______ _______ _______ _____ _____    ______ ____

>  <TORSDO>
F 13

$$$$
=
 OpenBabel11042421453D

 51 56  0  0  1  0  0  0  0  0999 V2000
  159.5710  213.1110  144.1910 C   0  0  1  0  0  3  0  0  0  0  0  0
  156.7570  212.0110  146.1710 C   0  0  0  0  0  3  0  0  0  0  0  0
  159.6120  213.9300  149.2980 C   0  0  2  0  0  3  0  0  0  0  0  0
  163.0320  214.2960  146.9440 C   0  0  0  0  0  2  0  0  0  0  0  0
  161.4080  214.1930  145.1130 N   0  0  1  0  0  0  0  0  0  0  0  0
  158.2860  214.4530  149.2430 O   0  0  0  0  0  0  0  0  0  0  0  0
  160.3480  213.3060  145.4160 N   0  0  0  0  0  2  0  0  0  0  0  0
  157.3990  211.4730  147.4120 C   0  0  0  0  0  2  0  0  0  0  0  0
  158.1280  213.3950  144.4300 C   0  0  0  0  0  3  0  0  0  0  0  0
  162.7660  212.1710  145.8190 C   0  0  0  0  0  2  0  0  0  0  0  0
  161.6950  211.9700  148.6500 O   0  0  0  0  0  0  0  0  0  0  0  0
  157.4430  212.7010  145.2940 C   0  0  0  0  0  0  0  0  0  0  0  0
  160.3790  211.7610  148.2620 C   0  0  0  0  0  3  0  0  0  0  0  0
  162.7550  211.1760  148.1350 C   0  0  0  0  0  2  0  0  0  0  0  0
  157.4070  213.6170  148.6000 N   0  0  0  0  0  0  0  0  0  0  0  0
  160.1180  214.0690  143.1740 C   0  0  1  0  0  3  0  0  0  0  0  0
  158.0320  212.5620  148.2140 C   0  0  0  0  0  0  0  0  0  0  0  0
  163.5650  211.9460  147.0930 C   0  0  2  0  0  3  0  0  0  0  0  0
  159.4320  212.6330  148.5870 C   0  0  0  0  0  0  0  0  0  0  0  0
  162.6850  213.6780  145.6260 C   0  0  2  0  0  3  0  0  0  0  0  0
  163.9670  213.3090  147.6070 C   0  0  0  0  0  2  0  0  0  0  0  0
  161.5080  214.2770  143.6680 C   0  0  0  0  0  2  0  0  0  0  0  0
  160.2830  212.5200  151.1290 C   0  0  0  0  0  0  0  0  0  0  0  0
  161.6670  210.5620  150.8730 C   0  0  0  0  0  1  0  0  0  0  0  0
  159.9920  213.7130  150.7140 C   0  0  0  0  0  3  0  0  0  0  0  0
  160.5590  211.3050  151.5300 C   0  0  0  0  0  0  0  0  0  0  0  0
  159.8360  209.3890  152.7260 O   0  0  0  0  0  0  0  0  0  0  0  0
  159.6620  210.6150  152.4680 C   0  0  0  0  0  0  0  0  0  0  0  0
  158.6030  211.3150  153.0690 O   0  0  0  0  0  0  0  0  0  0  0  0
  158.2610  211.1430  154.4410 C   0  0  1  0  0  3  0  0  0  0  0  0
  159.4800  210.0820  156.3450 C   0  0  0  0  0  1  0  0  0  0  0  0
  159.7340  212.5200  155.9530 C   0  0  0  0  0  1  0  0  0  0  0  0
  159.5210  211.1730  155.3000 C   0  0  0  0  0  3  0  0  0  0  0  0
  156.0890  211.4970  155.5870 C   0  0  0  0  0  2  0  0  0  0  0  0
  155.9270  211.9400  154.1510 C   0  0  0  0  0  2  0  0  0  0  0  0
  157.2340  212.1880  154.8600 C   0  0  0  0  0  3  0  0  0  0  0  0
  160.4730  212.0810  141.6910 C   0  0  0  0  0  0  0  0  0  0  0  0
  160.1320  213.4520  141.8610 N   0  0  0  0  0  2  0  0  0  0  0  0
  160.6750  211.3450  142.7000 O   0  0  0  0  0  0  0  0  0  0  0  0
  160.7230  211.5380  140.3140 C   0  0  2  0  0  3  0  0  0  0  0  0
  162.6620  212.4590  139.0450 C   0  0  0  0  0  0  0  0  0  0  0  0
  161.2940  212.5790  139.4600 N   0  0  0  0  0  0  0  0  0  0  0  0
  163.3900  213.4900  138.9490 O   0  0  0  0  0  0  0  0  0  0  0  0
  163.3520  210.8400  138.6150 S   0  0  0  0  0  1  0  0  0  0  0  0
  160.5960  213.8470  139.3100 C   0  0  0  0  0  2  0  0  0  0  0  0
  159.8210  213.8800  138.0030 C   0  0  0  0  0  2  0  0  0  0  0  0
  157.5620  213.4940  137.0730 C   0  0  0  0  0  1  0  0  0  0  0  0
  158.3270  213.9900  138.2810 C   0  0  0  0  0  2  0  0  0  0  0  0
  159.7190  209.6880  139.1980 O   0  0  0  0  0  0  0  0  0  0  0  0
  159.4510  210.9420  139.7050 C   0  0  0  0  0  3  0  0  0  0  0  0
  159.1120  209.7970  140.3850 O   0  0  0  0  0  0  0  0  0  0  0  0
  1  9  1  1  0  0  0
  1  7  1  0  0  0  0
  2  8  1  0  0  0  0
  3 25  1  1  0  0  0
  4 21  1  0  0  0  0
  5 22  1  6  0  0  0
  5  7  1  0  0  0  0
  5 20  1  0  0  0  0
  6  3  1  0  0  0  0
  8 17  1  0  0  0  0
  9 12  2  0  0  0  0
 12  2  2  0  0  0  0
 13 19  2  0  0  0  0
 13 11  1  0  0  0  0
 14 11  1  0  0  0  0
 15  6  1  0  0  0  0
 16 38  1  6  0  0  0
 16 22  1  0  0  0  0
 16  1  1  0  0  0  0
 17 19  1  0  0  0  0
 17 15  2  0  0  0  0
 18 10  1  6  0  0  0
 18 21  1  0  0  0  0
 18 14  1  0  0  0  0
 19  3  1  0  0  0  0
 20 10  1  1  0  0  0
 20  4  1  0  0  0  0
 23 26  2  0  0  0  0
 24 26  1  0  0  0  0
 25 23  2  0  0  0  0
 26 28  1  0  0  0  0
 28 27  2  0  0  0  0
 28 29  1  0  0  0  0
 30 29  1  6  0  0  0
 30 36  1  0  0  0  0
 30 33  1  0  0  0  0
 33 32  1  0  0  0  0
 33 31  1  0  0  0  0
 35 36  1  0  0  0  0
 35 34  1  0  0  0  0
 36 34  1  0  0  0  0
 37 38  1  0  0  0  0
 37 39  2  0  0  0  0
 40 37  1  1  0  0  0
 41 42  1  0  0  0  0
 42 40  1  0  0  0  0
 43 41  2  0  0  0  0
 44 41  1  0  0  0  0
 45 42  1  0  0  0  0
 46 48  1  0  0  0  0
 46 45  1  0  0  0  0
 47 48  1  0  0  0  0
 49 50  1  0  0  0  0
 49 51  1  0  0  0  0
 50 40  1  0  0  0  0
 50 51  1  0  0  0  0
M  END
>  <MODEL>
6

>  <REMARK>
 VINA RESULT:       1.8      1.371      2.762
  Name = 
  13 active torsions:
  status: ('A' for Active; 'I' for Inactive)
    1  A    between atoms: O_2  and  C_40
    2  A    between atoms: O_2  and  C_48
    3  A    between atoms: C_3  and  N_16
    4  A    between atoms: C_3  and  C_38
    5  A    between atoms: C_7  and  C_33
    6  A    between atoms: C_11  and  C_37
    7  A    between atoms: N_16  and  C_37
    8  A    between atoms: N_22  and  C_34
    9  A    between atoms: C_31  and  C_37
   10  A    between atoms: C_35  and  C_40
   11  A    between atoms: C_38  and  C_47
   12  A    between atoms: C_40  and  C_41
   13  A    between atoms: C_44  and  C_48
                            x       y       z     vdW  Elec       q    Type
                         _______ _______ _______ _____ _____    ______ ____

>  <TORSDO>
F 13

$$$$
=
 OpenBabel11042421453D

 51 56  0  0  1  0  0  0  0  0999 V2000
  159.7300  213.1970  144.3710 C   0  0  1  0  0  3  0  0  0  0  0  0
  156.8940  211.9750  146.2460 C   0  0  0  0  0  3  0  0  0  0  0  0
  159.5850  213.9380  149.4880 C   0  0  2  0  0  3  0  0  0  0  0  0
  163.0620  214.4530  147.2480 C   0  0  0  0  0  2  0  0  0  0  0  0
  161.5000  214.3240  145.3660 N   0  0  1  0  0  0  0  0  0  0  0  0
  158.2450  214.4180  149.3990 O   0  0  0  0  0  0  0  0  0  0  0  0
  160.4610  213.3980  145.6220 N   0  0  0  0  0  2  0  0  0  0  0  0
  157.5140  211.4390  147.4990 C   0  0  0  0  0  2  0  0  0  0  0  0
  158.2710  213.4290  144.5690 C   0  0  0  0  0  3  0  0  0  0  0  0
  162.9020  212.3380  146.0860 C   0  0  0  0  0  2  0  0  0  0  0  0
  161.7520  212.0580  148.8790 O   0  0  0  0  0  0  0  0  0  0  0  0
  157.5830  212.7000  145.4010 C   0  0  0  0  0  0  0  0  0  0  0  0
  160.4560  211.8120  148.4460 C   0  0  0  0  0  3  0  0  0  0  0  0
  162.8530  211.3070  148.3860 C   0  0  0  0  0  2  0  0  0  0  0  0
  157.4150  213.5640  148.7170 N   0  0  0  0  0  0  0  0  0  0  0  0
  160.2750  214.1880  143.3860 C   0  0  1  0  0  3  0  0  0  0  0  0
  158.0860  212.5360  148.3350 C   0  0  0  0  0  0  0  0  0  0  0  0
  163.6680  212.1190  147.3810 C   0  0  2  0  0  3  0  0  0  0  0  0
  159.4710  212.6470  148.7540 C   0  0  0  0  0  0  0  0  0  0  0  0
  162.7770  213.8440  145.9110 C   0  0  2  0  0  3  0  0  0  0  0  0
  164.0090  213.4870  147.9260 C   0  0  0  0  0  2  0  0  0  0  0  0
  161.6420  214.4340  143.9260 C   0  0  0  0  0  2  0  0  0  0  0  0
  160.3020  212.5350  151.3070 C   0  0  0  0  0  0  0  0  0  0  0  0
  161.8510  210.7060  151.0570 C   0  0  0  0  0  1  0  0  0  0  0  0
  159.9280  213.7120  150.9130 C   0  0  0  0  0  3  0  0  0  0  0  0
  160.6610  211.3360  151.6880 C   0  0  0  0  0  0  0  0  0  0  0  0
  158.5990  210.9160  152.7820 O   0  0  0  0  0  0  0  0  0  0  0  0
  159.7910  210.5470  152.5710 C   0  0  0  0  0  0  0  0  0  0  0  0
  160.2860  209.3880  153.1900 O   0  0  0  0  0  0  0  0  0  0  0  0
  161.3130  208.5940  152.6050 C   0  0  1  0  0  3  0  0  0  0  0  0
  161.6510  206.3220  153.5860 C   0  0  0  0  0  1  0  0  0  0  0  0
  161.7440  208.3090  155.0710 C   0  0  0  0  0  1  0  0  0  0  0  0
  162.0250  207.7830  153.6820 C   0  0  0  0  0  3  0  0  0  0  0  0
  161.7630  206.6750  151.0960 C   0  0  0  0  0  2  0  0  0  0  0  0
  161.5390  207.8950  150.2320 C   0  0  0  0  0  2  0  0  0  0  0  0
  160.7330  207.7240  151.4950 C   0  0  0  0  0  3  0  0  0  0  0  0
  160.4690  212.1840  141.8940 C   0  0  0  0  0  0  0  0  0  0  0  0
  160.3500  213.5920  142.0660 N   0  0  0  0  0  2  0  0  0  0  0  0
  160.4110  211.4130  142.8960 O   0  0  0  0  0  0  0  0  0  0  0  0
  160.7960  211.6200  140.5420 C   0  0  2  0  0  3  0  0  0  0  0  0
  159.7060  213.1830  138.9330 C   0  0  0  0  0  0  0  0  0  0  0  0
  159.7140  211.9140  139.6010 N   0  0  0  0  0  0  0  0  0  0  0  0
  158.6100  213.7750  138.7070 O   0  0  0  0  0  0  0  0  0  0  0  0
  161.2550  213.9340  138.3690 S   0  0  0  0  0  1  0  0  0  0  0  0
  158.5220  211.0790  139.5950 C   0  0  0  0  0  2  0  0  0  0  0  0
  158.0840  210.7830  138.1710 C   0  0  0  0  0  2  0  0  0  0  0  0
  156.0630  211.7540  139.2160 C   0  0  0  0  0  1  0  0  0  0  0  0
  156.5740  210.9480  138.0410 C   0  0  0  0  0  2  0  0  0  0  0  0
  161.1060  209.5850  139.3430 O   0  0  0  0  0  0  0  0  0  0  0  0
  161.0900  210.1200  140.6140 C   0  0  0  0  0  3  0  0  0  0  0  0
  162.2660  209.8520  139.9560 O   0  0  0  0  0  0  0  0  0  0  0  0
  1  9  1  1  0  0  0
  1  7  1  0  0  0  0
  2  8  1  0  0  0  0
  3 25  1  1  0  0  0
  4 21  1  0  0  0  0
  5 22  1  6  0  0  0
  5  7  1  0  0  0  0
  5 20  1  0  0  0  0
  6  3  1  0  0  0  0
  8 17  1  0  0  0  0
  9 12  2  0  0  0  0
 12  2  2  0  0  0  0
 13 19  2  0  0  0  0
 13 11  1  0  0  0  0
 14 11  1  0  0  0  0
 15  6  1  0  0  0  0
 16 38  1  6  0  0  0
 16 22  1  0  0  0  0
 16  1  1  0  0  0  0
 17 15  2  0  0  0  0
 17 19  1  0  0  0  0
 18 10  1  6  0  0  0
 18 21  1  0  0  0  0
 18 14  1  0  0  0  0
 19  3  1  0  0  0  0
 20 10  1  1  0  0  0
 20  4  1  0  0  0  0
 23 26  2  0  0  0  0
 24 26  1  0  0  0  0
 25 23  2  0  0  0  0
 26 28  1  0  0  0  0
 28 27  2  0  0  0  0
 28 29  1  0  0  0  0
 30 29  1  1  0  0  0
 30 33  1  0  0  0  0
 31 33  1  0  0  0  0
 33 32  1  0  0  0  0
 34 36  1  0  0  0  0
 35 34  1  0  0  0  0
 35 36  1  0  0  0  0
 36 30  1  0  0  0  0
 37 38  1  0  0  0  0
 37 39  2  0  0  0  0
 40 50  1  0  0  0  0
 40 37  1  1  0  0  0
 41 42  1  0  0  0  0
 42 40  1  0  0  0  0
 43 41  2  0  0  0  0
 44 41  1  0  0  0  0
 45 42  1  0  0  0  0
 46 45  1  0  0  0  0
 48 46  1  0  0  0  0
 48 47  1  0  0  0  0
 49 51  1  0  0  0  0
 49 50  1  0  0  0  0
 51 50  1  0  0  0  0
M  END
>  <MODEL>
7

>  <REMARK>
 VINA RESULT:       1.8      1.776      3.042
  Name = 
  13 active torsions:
  status: ('A' for Active; 'I' for Inactive)
    1  A    between atoms: O_2  and  C_40
    2  A    between atoms: O_2  and  C_48
    3  A    between atoms: C_3  and  N_16
    4  A    between atoms: C_3  and  C_38
    5  A    between atoms: C_7  and  C_33
    6  A    between atoms: C_11  and  C_37
    7  A    between atoms: N_16  and  C_37
    8  A    between atoms: N_22  and  C_34
    9  A    between atoms: C_31  and  C_37
   10  A    between atoms: C_35  and  C_40
   11  A    between atoms: C_38  and  C_47
   12  A    between atoms: C_40  and  C_41
   13  A    between atoms: C_44  and  C_48
                            x       y       z     vdW  Elec       q    Type
                         _______ _______ _______ _____ _____    ______ ____

>  <TORSDO>
F 13

$$$$
=
 OpenBabel11042421453D

 51 56  0  0  1  0  0  0  0  0999 V2000
  161.3780  206.6180  149.5600 C   0  0  1  0  0  3  0  0  0  0  0  0
  161.4610  206.3300  153.1600 C   0  0  0  0  0  3  0  0  0  0  0  0
  160.1500  210.7310  152.4450 C   0  0  2  0  0  3  0  0  0  0  0  0
  160.9710  211.0200  148.3690 C   0  0  0  0  0  2  0  0  0  0  0  0
  160.7780  208.5800  148.4720 N   0  0  1  0  0  0  0  0  0  0  0  0
  159.2820  209.9330  153.2470 O   0  0  0  0  0  0  0  0  0  0  0  0
  161.3000  208.0740  149.6850 N   0  0  0  0  0  2  0  0  0  0  0  0
  162.0450  207.6370  153.5970 C   0  0  0  0  0  2  0  0  0  0  0  0
  160.6790  205.9520  150.6960 C   0  0  0  0  0  3  0  0  0  0  0  0
  163.0280  209.7500  148.4580 C   0  0  0  0  0  2  0  0  0  0  0  0
  162.6650  211.2910  151.0460 O   0  0  0  0  0  0  0  0  0  0  0  0
  161.0730  206.1360  151.9240 C   0  0  0  0  0  0  0  0  0  0  0  0
  162.5310  210.1580  151.8370 C   0  0  0  0  0  3  0  0  0  0  0  0
  163.7690  211.4510  150.1640 C   0  0  0  0  0  2  0  0  0  0  0  0
  159.8910  208.8020  153.7310 N   0  0  0  0  0  0  0  0  0  0  0  0
  160.7070  206.2580  148.2670 C   0  0  1  0  0  3  0  0  0  0  0  0
  161.1100  208.7690  153.3220 C   0  0  0  0  0  0  0  0  0  0  0  0
  163.3530  211.2130  148.7130 C   0  0  2  0  0  3  0  0  0  0  0  0
  161.4020  209.9270  152.4980 C   0  0  0  0  0  0  0  0  0  0  0  0
  161.5830  209.7090  147.9850 C   0  0  2  0  0  3  0  0  0  0  0  0
  162.1180  212.0070  148.3570 C   0  0  0  0  0  2  0  0  0  0  0  0
  160.8540  207.5190  147.4860 C   0  0  0  0  0  2  0  0  0  0  0  0
  160.0660  212.1950  154.3540 C   0  0  0  0  0  0  0  0  0  0  0  0
  160.4760  211.4700  156.6160 C   0  0  0  0  0  1  0  0  0  0  0  0
  160.3380  212.0510  153.0950 C   0  0  0  0  0  3  0  0  0  0  0  0
  159.7710  212.3230  155.6220 C   0  0  0  0  0  0  0  0  0  0  0  0
  158.4510  213.4220  157.2580 O   0  0  0  0  0  0  0  0  0  0  0  0
  158.6250  213.1440  156.0360 C   0  0  0  0  0  0  0  0  0  0  0  0
  157.7130  213.6110  155.0740 O   0  0  0  0  0  0  0  0  0  0  0  0
  156.4790  212.9500  154.8150 C   0  0  1  0  0  3  0  0  0  0  0  0
  157.0870  213.9680  152.6160 C   0  0  0  0  0  1  0  0  0  0  0  0
  154.7370  214.1040  153.4060 C   0  0  0  0  0  1  0  0  0  0  0  0
  156.0000  213.2730  153.4030 C   0  0  0  0  0  3  0  0  0  0  0  0
  155.2530  210.7970  154.9620 C   0  0  0  0  0  2  0  0  0  0  0  0
  155.8760  211.0630  156.3130 C   0  0  0  0  0  2  0  0  0  0  0  0
  156.6230  211.4530  155.0630 C   0  0  0  0  0  3  0  0  0  0  0  0
  161.1550  204.8190  146.2660 C   0  0  0  0  0  0  0  0  0  0  0  0
  161.4170  205.1730  147.6200 N   0  0  0  0  0  2  0  0  0  0  0  0
  160.3620  205.5150  145.5680 O   0  0  0  0  0  0  0  0  0  0  0  0
  161.7160  203.5450  145.7030 C   0  0  2  0  0  3  0  0  0  0  0  0
  161.1320  201.8200  147.4070 C   0  0  0  0  0  0  0  0  0  0  0  0
  160.8940  202.4080  146.1200 N   0  0  0  0  0  0  0  0  0  0  0  0
  161.0290  200.5680  147.5610 O   0  0  0  0  0  0  0  0  0  0  0  0
  161.5390  202.8610  148.8320 S   0  0  0  0  0  1  0  0  0  0  0  0
  160.0920  201.7020  145.1320 C   0  0  0  0  0  2  0  0  0  0  0  0
  159.9240  200.2430  145.5230 C   0  0  0  0  0  2  0  0  0  0  0  0
  161.2240  198.1560  145.2630 C   0  0  0  0  0  1  0  0  0  0  0  0
  160.6490  199.3470  144.5270 C   0  0  0  0  0  2  0  0  0  0  0  0
  163.9990  203.9370  145.1470 O   0  0  0  0  0  0  0  0  0  0  0  0
  163.1840  203.3560  146.0950 C   0  0  0  0  0  3  0  0  0  0  0  0
  163.7660  204.5850  146.2950 O   0  0  0  0  0  0  0  0  0  0  0  0
  1  7  1  0  0  0  0
  1  9  1  1  0  0  0
  2  8  1  0  0  0  0
  3 19  1  0  0  0  0
  3 25  1  1  0  0  0
  3  6  1  0  0  0  0
  5 22  1  6  0  0  0
  5  7  1  0  0  0  0
  6 15  1  0  0  0  0
  9 12  2  0  0  0  0
 10 18  1  0  0  0  0
 11 13  1  0  0  0  0
 12  2  2  0  0  0  0
 13 19  2  0  0  0  0
 14 11  1  0  0  0  0
 16 38  1  6  0  0  0
 16  1  1  0  0  0  0
 17  8  1  0  0  0  0
 17 15  2  0  0  0  0
 18 21  1  1  0  0  0
 18 14  1  0  0  0  0
 19 17  1  0  0  0  0
 20  4  1  1  0  0  0
 20 10  1  0  0  0  0
 20  5  1  0  0  0  0
 21  4  1  0  0  0  0
 22 16  1  0  0  0  0
 23 26  2  0  0  0  0
 25 23  2  0  0  0  0
 26 28  1  0  0  0  0
 26 24  1  0  0  0  0
 28 27  2  0  0  0  0
 29 28  1  0  0  0  0
 30 33  1  6  0  0  0
 30 36  1  0  0  0  0
 30 29  1  0  0  0  0
 31 33  1  0  0  0  0
 33 32  1  0  0  0  0
 34 36  1  0  0  0  0
 34 35  1  0  0  0  0
 36 35  1  0  0  0  0
 37 38  1  0  0  0  0
 39 37  2  0  0  0  0
 40 50  1  0  0  0  0
 40 42  1  0  0  0  0
 40 37  1  1  0  0  0
 41 43  2  0  0  0  0
 41 44  1  0  0  0  0
 42 41  1  0  0  0  0
 45 46  1  0  0  0  0
 45 42  1  0  0  0  0
 48 47  1  0  0  0  0
 48 46  1  0  0  0  0
 49 50  1  0  0  0  0
 49 51  1  0  0  0  0
 50 51  1  0  0  0  0
M  END
>  <MODEL>
8

>  <REMARK>
 VINA RESULT:       2.1      6.009      7.851
  Name = 
  13 active torsions:
  status: ('A' for Active; 'I' for Inactive)
    1  A    between atoms: O_2  and  C_40
    2  A    between atoms: O_2  and  C_48
    3  A    between atoms: C_3  and  N_16
    4  A    between atoms: C_3  and  C_38
    5  A    between atoms: C_7  and  C_33
    6  A    between atoms: C_11  and  C_37
    7  A    between atoms: N_16  and  C_37
    8  A    between atoms: N_22  and  C_34
    9  A    between atoms: C_31  and  C_37
   10  A    between atoms: C_35  and  C_40
   11  A    between atoms: C_38  and  C_47
   12  A    between atoms: C_40  and  C_41
   13  A    between atoms: C_44  and  C_48
                            x       y       z     vdW  Elec       q    Type
                         _______ _______ _______ _____ _____    ______ ____

>  <TORSDO>
F 13

$$$$
=
 OpenBabel11042421453D

 51 56  0  0  1  0  0  0  0  0999 V2000
  161.2930  208.5490  152.8890 C   0  0  1  0  0  3  0  0  0  0  0  0
  159.9540  205.4880  154.2630 C   0  0  0  0  0  3  0  0  0  0  0  0
  162.4120  204.0530  150.5880 C   0  0  2  0  0  3  0  0  0  0  0  0
  163.0830  207.7360  148.7540 C   0  0  0  0  0  2  0  0  0  0  0  0
  162.6590  208.5890  151.0110 N   0  0  1  0  0  0  0  0  0  0  0  0
  162.7540  203.4740  151.8460 O   0  0  0  0  0  0  0  0  0  0  0  0
  161.6610  207.8310  151.6680 N   0  0  0  0  0  2  0  0  0  0  0  0
  159.5790  204.7000  153.0480 C   0  0  0  0  0  2  0  0  0  0  0  0
  161.4000  207.6560  154.0780 C   0  0  0  0  0  3  0  0  0  0  0  0
  160.8780  208.6230  149.2060 C   0  0  0  0  0  2  0  0  0  0  0  0
  160.7080  205.6230  148.7910 O   0  0  0  0  0  0  0  0  0  0  0  0
  160.6750  206.5780  154.1730 C   0  0  0  0  0  0  0  0  0  0  0  0
  160.3050  205.3490  150.0910 C   0  0  0  0  0  3  0  0  0  0  0  0
  160.0290  206.5830  147.9920 C   0  0  0  0  0  2  0  0  0  0  0  0
  161.7730  203.6350  152.7930 N   0  0  0  0  0  0  0  0  0  0  0  0
  162.2530  209.6940  153.0250 C   0  0  1  0  0  3  0  0  0  0  0  0
  160.7880  204.2800  152.2770 C   0  0  0  0  0  0  0  0  0  0  0  0
  160.8360  207.8760  147.8820 C   0  0  2  0  0  3  0  0  0  0  0  0
  161.0630  204.6080  150.8900 C   0  0  0  0  0  0  0  0  0  0  0  0
  162.3470  208.7420  149.5830 C   0  0  2  0  0  3  0  0  0  0  0  0
  162.2680  207.6000  147.4870 C   0  0  0  0  0  2  0  0  0  0  0  0
  162.6700  209.9110  151.6100 C   0  0  0  0  0  2  0  0  0  0  0  0
  162.3260  203.2950  148.3060 C   0  0  0  0  0  0  0  0  0  0  0  0
  163.4470  204.4050  146.4830 C   0  0  0  0  0  1  0  0  0  0  0  0
  162.3310  202.9840  149.5640 C   0  0  0  0  0  3  0  0  0  0  0  0
  162.3060  203.6310  147.0410 C   0  0  0  0  0  0  0  0  0  0  0  0
  161.0630  203.7820  145.0270 O   0  0  0  0  0  0  0  0  0  0  0  0
  161.0910  203.4270  146.2410 C   0  0  0  0  0  0  0  0  0  0  0  0
  159.9540  202.8470  146.8280 O   0  0  0  0  0  0  0  0  0  0  0  0
  159.7920  201.4370  146.9360 C   0  0  1  0  0  3  0  0  0  0  0  0
  160.0800  200.1150  144.8360 C   0  0  0  0  0  1  0  0  0  0  0  0
  161.5820  199.6720  146.7630 C   0  0  0  0  0  1  0  0  0  0  0  0
  160.7860  200.7250  146.0250 C   0  0  0  0  0  3  0  0  0  0  0  0
  158.5210  200.9510  149.0120 C   0  0  0  0  0  2  0  0  0  0  0  0
  159.4400  202.1160  149.2990 C   0  0  0  0  0  2  0  0  0  0  0  0
  159.9110  201.0060  148.3940 C   0  0  0  0  0  3  0  0  0  0  0  0
  160.1900  211.0970  153.2570 C   0  0  0  0  0  0  0  0  0  0  0  0
  161.5660  210.8650  153.5360 N   0  0  0  0  0  2  0  0  0  0  0  0
  159.5110  210.2300  152.6360 O   0  0  0  0  0  0  0  0  0  0  0  0
  159.5750  212.4280  153.5830 C   0  0  2  0  0  3  0  0  0  0  0  0
  159.2050  211.8700  155.9850 C   0  0  0  0  0  0  0  0  0  0  0  0
  158.6690  212.2950  154.7240 N   0  0  0  0  0  0  0  0  0  0  0  0
  158.5290  211.1090  156.7380 O   0  0  0  0  0  0  0  0  0  0  0  0
  160.8320  212.4470  156.5330 S   0  0  0  0  0  1  0  0  0  0  0  0
  157.2310  212.2820  154.5010 C   0  0  0  0  0  2  0  0  0  0  0  0
  156.5450  213.3230  155.3700 C   0  0  0  0  0  2  0  0  0  0  0  0
  155.3790  211.2050  155.8920 C   0  0  0  0  0  1  0  0  0  0  0  0
  155.5520  212.6500  156.3090 C   0  0  0  0  0  2  0  0  0  0  0  0
  159.3450  214.3060  152.1370 O   0  0  0  0  0  0  0  0  0  0  0  0
  158.8690  213.0330  152.3670 C   0  0  0  0  0  3  0  0  0  0  0  0
  159.7930  213.2940  151.3840 O   0  0  0  0  0  0  0  0  0  0  0  0
  1 16  1  0  0  0  0
  1  9  1  1  0  0  0
  3 25  1  6  0  0  0
  3 19  1  0  0  0  0
  3  6  1  0  0  0  0
  5 22  1  1  0  0  0
  5  7  1  0  0  0  0
  6 15  1  0  0  0  0
  7  1  1  0  0  0  0
  8  2  1  0  0  0  0
  9 12  2  0  0  0  0
 10 20  1  0  0  0  0
 11 13  1  0  0  0  0
 12  2  2  0  0  0  0
 13 19  2  0  0  0  0
 14 11  1  0  0  0  0
 16 38  1  6  0  0  0
 17 15  2  0  0  0  0
 17  8  1  0  0  0  0
 18 21  1  1  0  0  0
 18 14  1  0  0  0  0
 18 10  1  0  0  0  0
 19 17  1  0  0  0  0
 20  4  1  6  0  0  0
 20  5  1  0  0  0  0
 21  4  1  0  0  0  0
 22 16  1  0  0  0  0
 23 25  2  0  0  0  0
 24 26  1  0  0  0  0
 26 23  2  0  0  0  0
 27 28  2  0  0  0  0
 28 29  1  0  0  0  0
 28 26  1  0  0  0  0
 29 30  1  0  0  0  0
 30 33  1  6  0  0  0
 30 36  1  0  0  0  0
 31 33  1  0  0  0  0
 33 32  1  0  0  0  0
 34 35  1  0  0  0  0
 36 34  1  0  0  0  0
 36 35  1  0  0  0  0
 37 38  1  0  0  0  0
 39 37  2  0  0  0  0
 40 37  1  6  0  0  0
 40 42  1  0  0  0  0
 41 44  1  0  0  0  0
 41 43  2  0  0  0  0
 42 41  1  0  0  0  0
 45 42  1  0  0  0  0
 45 46  1  0  0  0  0
 46 48  1  0  0  0  0
 47 48  1  0  0  0  0
 49 50  1  0  0  0  0
 50 40  1  0  0  0  0
 51 49  1  0  0  0  0
 51 50  1  0  0  0  0
M  END
>  <MODEL>
9

>  <REMARK>
 VINA RESULT:       2.8      6.832     11.960
  Name = 
  13 active torsions:
  status: ('A' for Active; 'I' for Inactive)
    1  A    between atoms: O_2  and  C_40
    2  A    between atoms: O_2  and  C_48
    3  A    between atoms: C_3  and  N_16
    4  A    between atoms: C_3  and  C_38
    5  A    between atoms: C_7  and  C_33
    6  A    between atoms: C_11  and  C_37
    7  A    between atoms: N_16  and  C_37
    8  A    between atoms: N_22  and  C_34
    9  A    between atoms: C_31  and  C_37
   10  A    between atoms: C_35  and  C_40
   11  A    between atoms: C_38  and  C_47
   12  A    between atoms: C_40  and  C_41
   13  A    between atoms: C_44  and  C_48
                            x       y       z     vdW  Elec       q    Type
                         _______ _______ _______ _____ _____    ______ ____

>  <TORSDO>
F 13

$$$$
