=
 OpenBabel11042420523D

 52 56  0  0  1  0  0  0  0  0999 V2000
  161.7550  207.6080  147.2560 N   0  0  0  0  0  2  0  0  0  0  0  0
  161.9550  209.4630  148.9860 C   0  0  0  0  0  0  0  0  0  0  0  0
  161.5660  207.3160  149.6350 N   0  0  0  0  0  0  0  0  0  0  0  0
  161.5820  206.2500  146.8420 C   0  0  0  0  0  0  0  0  0  0  0  0
  161.8790  209.5050  150.3110 C   0  0  0  0  0  0  0  0  0  0  0  0
  161.6110  205.9730  145.6140 O   0  0  0  0  0  0  0  0  0  0  0  0
  161.3740  205.2090  147.7990 N   0  0  0  0  0  2  0  0  0  0  0  0
  161.6460  208.1300  150.8440 C   0  0  0  0  0  2  0  0  0  0  0  0
  161.7480  208.0790  148.6100 C   0  0  0  0  0  0  0  0  0  0  0  0
  161.2410  203.9150  147.4160 O   0  0  0  0  0  0  0  0  0  0  0  0
  161.1630  201.5270  151.1540 C   0  0  0  0  0  2  0  0  0  0  0  0
  160.4920  201.7760  148.2100 C   0  0  1  0  0  3  0  0  0  0  0  0
  160.6700  203.2670  148.5160 C   0  0  1  0  0  3  0  0  0  0  0  0
  161.5040  203.5490  149.7650 C   0  0  0  0  0  2  0  0  0  0  0  0
  161.8010  201.0170  148.0250 C   0  0  0  0  0  1  0  0  0  0  0  0
  159.5170  201.1030  149.1790 C   0  0  0  0  0  2  0  0  0  0  0  0
  160.1110  200.6180  150.5100 C   0  0  0  0  0  2  0  0  0  0  0  0
  160.8430  203.0070  151.0230 C   0  0  0  0  0  2  0  0  0  0  0  0
  162.2120  210.6290  151.1390 N   0  0  0  0  0  2  0  0  0  0  0  0
  161.3690  211.2110  152.1390 C   0  0  0  0  0  0  0  0  0  0  0  0
  159.7300  212.2580  154.1370 C   0  0  0  0  0  0  0  0  0  0  0  0
  160.6510  211.2920  154.4160 N   0  0  0  0  0  0  0  0  0  0  0  0
  160.4170  212.1860  151.8200 C   0  0  0  0  0  3  0  0  0  0  0  0
  161.4580  210.7640  153.4580 C   0  0  0  0  0  3  0  0  0  0  0  0
  159.5990  212.7150  152.8170 C   0  0  0  0  0  3  0  0  0  0  0  0
  157.2480  213.8310  157.2600 C   0  0  0  0  0  3  0  0  0  0  0  0
  156.6870  213.0500  156.2460 C   0  0  0  0  0  0  0  0  0  0  0  0
  158.6200  214.0990  157.2600 C   0  0  0  0  0  3  0  0  0  0  0  0
  159.4310  213.5880  156.2430 C   0  0  0  0  0  3  0  0  0  0  0  0
  158.8790  212.8050  155.2160 C   0  0  0  0  0  0  0  0  0  0  0  0
  157.5000  212.5410  155.2260 C   0  0  0  0  0  3  0  0  0  0  0  0
  154.4520  214.0700  156.4470 C   0  0  0  0  0  1  0  0  0  0  0  0
  155.2230  212.7800  156.2350 C   0  0  0  0  0  2  0  0  0  0  0  0
  162.4280  210.5510  148.0750 C   0  0  0  0  0  2  0  0  0  0  0  0
  160.5050  212.1760  148.3890 C   0  0  0  0  0  2  0  0  0  0  0  0
  162.0060  213.3230  145.7300 C   0  0  0  0  0  0  0  0  0  0  0  0
  160.1000  212.2740  146.9230 C   0  0  0  0  0  2  0  0  0  0  0  0
  162.2200  213.3220  144.4450 N   0  0  0  0  0  0  0  0  0  0  0  0
  160.6360  213.5540  146.3030 C   0  0  0  0  0  2  0  0  0  0  0  0
  162.8820  213.0770  148.1230 C   0  0  0  0  0  2  0  0  0  0  0  0
  161.9970  211.9180  148.5980 C   0  0  2  0  0  3  0  0  0  0  0  0
  163.1830  213.0520  146.6210 C   0  0  0  0  0  2  0  0  0  0  0  0
  161.5010  213.0120  142.0920 N   0  0  0  0  0  2  0  0  0  0  0  0
  161.2710  213.5600  143.3890 C   0  0  0  0  0  0  0  0  0  0  0  0
  160.2400  214.2590  143.5800 O   0  0  0  0  0  0  0  0  0  0  0  0
  162.6370  212.1440  141.8120 C   0  0  0  0  0  2  0  0  0  0  0  0
  162.4630  211.4230  140.4760 C   0  0  2  0  0  3  0  0  0  0  0  0
  164.0240  212.8220  139.3290 O   0  0  0  0  0  1  0  0  0  0  0  0
  162.6990  212.3840  139.3210 C   0  0  0  0  0  2  0  0  0  0  0  0
  161.0850  210.7750  140.3590 C   0  0  0  0  0  2  0  0  0  0  0  0
  161.1440  209.4950  139.5400 C   0  0  0  0  0  2  0  0  0  0  0  0
  162.1910  208.6910  139.9920 O   0  0  0  0  0  1  0  0  0  0  0  0
  1  9  1  0  0  0  0
  2  5  2  0  0  0  0
  3  8  1  0  0  0  0
  4  1  1  0  0  0  0
  4  7  1  0  0  0  0
  5  8  1  0  0  0  0
  5 19  1  0  0  0  0
  6  4  2  0  0  0  0
  9  2  1  0  0  0  0
  9  3  2  0  0  0  0
 10  7  1  0  0  0  0
 12 15  1  1  0  0  0
 12 13  1  0  0  0  0
 12 16  1  0  0  0  0
 13 10  1  6  0  0  0
 13 14  1  0  0  0  0
 14 18  1  0  0  0  0
 16 17  1  0  0  0  0
 17 11  1  0  0  0  0
 18 11  1  0  0  0  0
 19 20  1  0  0  0  0
 20 24  1  0  0  0  0
 21 22  1  0  0  0  0
 21 30  1  0  0  0  0
 23 20  2  0  0  0  0
 23 25  1  0  0  0  0
 24 22  2  0  0  0  0
 25 21  2  0  0  0  0
 26 28  1  0  0  0  0
 27 26  2  0  0  0  0
 29 28  2  0  0  0  0
 30 31  2  0  0  0  0
 30 29  1  0  0  0  0
 31 27  1  0  0  0  0
 33 27  1  0  0  0  0
 33 32  1  0  0  0  0
 34  2  1  0  0  0  0
 35 41  1  0  0  0  0
 36 39  1  0  0  0  0
 36 42  1  0  0  0  0
 37 35  1  0  0  0  0
 38 36  2  0  0  0  0
 39 37  1  0  0  0  0
 40 41  1  0  0  0  0
 41 34  1  6  0  0  0
 42 40  1  0  0  0  0
 43 44  1  0  0  0  0
 44 45  2  0  0  0  0
 44 38  1  0  0  0  0
 46 43  1  0  0  0  0
 47 49  1  6  0  0  0
 47 46  1  0  0  0  0
 49 48  1  0  0  0  0
 50 47  1  0  0  0  0
 51 52  1  0  0  0  0
 51 50  1  0  0  0  0
M  END
>  <MODEL>
1

>  <REMARK>
 VINA RESULT:      -5.7      0.000      0.000
  Name = 
  14 active torsions:
  status: ('A' for Active; 'I' for Inactive)
    1  A    between atoms: C_2  and  C_49
    2  A    between atoms: O_4  and  C_19
    3  A    between atoms: O_4  and  N_23
    4  A    between atoms: N_5  and  C_39
    5  A    between atoms: N_6  and  C_9
    6  A    between atoms: N_6  and  C_18
    7  A    between atoms: C_10  and  C_24
    8  A    between atoms: C_10  and  C_33
    9  A    between atoms: C_14  and  C_44
   10  A    between atoms: C_17  and  C_22
   11  A    between atoms: C_24  and  C_39
   12  A    between atoms: C_24  and  C_50
   13  A    between atoms: N_28  and  C_29
   14  A    between atoms: C_41  and  C_49
                            x       y       z     vdW  Elec       q    Type
                         _______ _______ _______ _____ _____    ______ ____

>  <TORSDO>
F 14

$$$$
=
 OpenBabel11042420523D

 52 56  0  0  1  0  0  0  0  0999 V2000
  161.5390  207.0570  152.1180 N   0  0  0  0  0  2  0  0  0  0  0  0
  161.9130  209.4040  151.2130 C   0  0  0  0  0  0  0  0  0  0  0  0
  161.5870  207.6570  149.7910 N   0  0  0  0  0  0  0  0  0  0  0  0
  161.2750  205.6560  151.9900 C   0  0  0  0  0  0  0  0  0  0  0  0
  161.9790  209.9270  149.9950 C   0  0  0  0  0  0  0  0  0  0  0  0
  161.1780  204.9520  153.0300 O   0  0  0  0  0  0  0  0  0  0  0  0
  161.1250  205.0500  150.7040 N   0  0  0  0  0  2  0  0  0  0  0  0
  161.7530  208.8580  148.9770 C   0  0  0  0  0  2  0  0  0  0  0  0
  161.6740  207.9860  151.0360 C   0  0  0  0  0  0  0  0  0  0  0  0
  160.8450  203.7300  150.5760 O   0  0  0  0  0  0  0  0  0  0  0  0
  161.5710  202.5100  146.3740 C   0  0  0  0  0  2  0  0  0  0  0  0
  161.1250  204.7140  148.4040 C   0  0  1  0  0  3  0  0  0  0  0  0
  160.5520  203.5500  149.2210 C   0  0  1  0  0  3  0  0  0  0  0  0
  161.0410  202.1750  148.7700 C   0  0  0  0  0  2  0  0  0  0  0  0
  162.6480  204.7850  148.4040 C   0  0  0  0  0  1  0  0  0  0  0  0
  160.5000  204.7980  147.0090 C   0  0  0  0  0  2  0  0  0  0  0  0
  161.1330  203.9070  145.9290 C   0  0  0  0  0  2  0  0  0  0  0  0
  160.6050  201.8560  147.3480 C   0  0  0  0  0  2  0  0  0  0  0  0
  162.0090  211.3260  149.6770 N   0  0  0  0  0  2  0  0  0  0  0  0
  161.8780  211.8910  148.3680 C   0  0  0  0  0  0  0  0  0  0  0  0
  161.5760  212.9060  145.7890 C   0  0  0  0  0  0  0  0  0  0  0  0
  160.6790  212.0190  146.3060 N   0  0  0  0  0  0  0  0  0  0  0  0
  162.8260  212.7830  147.8550 C   0  0  0  0  0  3  0  0  0  0  0  0
  160.8070  211.5080  147.5590 C   0  0  0  0  0  3  0  0  0  0  0  0
  162.6760  213.2970  146.5680 C   0  0  0  0  0  3  0  0  0  0  0  0
  161.0100  214.4510  141.8290 C   0  0  0  0  0  3  0  0  0  0  0  0
  159.9110  214.0190  142.5770 C   0  0  0  0  0  0  0  0  0  0  0  0
  162.2960  214.3830  142.3720 C   0  0  0  0  0  3  0  0  0  0  0  0
  162.4840  213.8800  143.6620 C   0  0  0  0  0  3  0  0  0  0  0  0
  161.3880  213.4380  144.4220 C   0  0  0  0  0  0  0  0  0  0  0  0
  160.1010  213.5120  143.8670 C   0  0  0  0  0  3  0  0  0  0  0  0
  158.5250  213.3880  140.6380 C   0  0  0  0  0  1  0  0  0  0  0  0
  158.5430  214.0740  141.9910 C   0  0  0  0  0  2  0  0  0  0  0  0
  161.8260  210.1460  152.5090 C   0  0  0  0  0  2  0  0  0  0  0  0
  159.9000  208.9420  153.6410 C   0  0  0  0  0  2  0  0  0  0  0  0
  160.3590  211.5460  155.5500 C   0  0  0  0  0  0  0  0  0  0  0  0
  159.0580  210.1760  153.9430 C   0  0  0  0  0  2  0  0  0  0  0  0
  160.1690  212.8020  155.8410 N   0  0  0  0  0  0  0  0  0  0  0  0
  159.2120  210.5880  155.3980 C   0  0  0  0  0  2  0  0  0  0  0  0
  161.9480  209.6110  155.0170 C   0  0  0  0  0  2  0  0  0  0  0  0
  161.4050  209.2110  153.6390 C   0  0  2  0  0  3  0  0  0  0  0  0
  161.7770  211.0980  155.3430 C   0  0  0  0  0  2  0  0  0  0  0  0
  158.3150  214.2520  155.0630 N   0  0  0  0  0  2  0  0  0  0  0  0
  158.9210  213.4730  156.0930 C   0  0  0  0  0  0  0  0  0  0  0  0
  158.3540  213.4020  157.2150 O   0  0  0  0  0  0  0  0  0  0  0  0
  158.8790  214.3320  153.7220 C   0  0  0  0  0  2  0  0  0  0  0  0
  158.0380  213.5410  152.7220 C   0  0  2  0  0  3  0  0  0  0  0  0
  160.1010  212.8650  151.7230 O   0  0  0  0  0  1  0  0  0  0  0  0
  158.8160  213.3240  151.4330 C   0  0  0  0  0  2  0  0  0  0  0  0
  156.7070  214.2310  152.4330 C   0  0  0  0  0  2  0  0  0  0  0  0
  155.5640  213.5590  153.1780 C   0  0  0  0  0  2  0  0  0  0  0  0
  155.0000  214.4520  154.0890 O   0  0  0  0  0  1  0  0  0  0  0  0
  2 34  1  0  0  0  0
  3  9  2  0  0  0  0
  4  1  1  0  0  0  0
  4  6  2  0  0  0  0
  5  2  2  0  0  0  0
  7  4  1  0  0  0  0
  8  3  1  0  0  0  0
  8  5  1  0  0  0  0
  9  2  1  0  0  0  0
  9  1  1  0  0  0  0
 10  7  1  0  0  0  0
 11 18  1  0  0  0  0
 12 15  1  6  0  0  0
 12 13  1  0  0  0  0
 13 10  1  1  0  0  0
 14 13  1  0  0  0  0
 16 12  1  0  0  0  0
 17 11  1  0  0  0  0
 17 16  1  0  0  0  0
 18 14  1  0  0  0  0
 19  5  1  0  0  0  0
 20 19  1  0  0  0  0
 21 22  2  0  0  0  0
 21 25  1  0  0  0  0
 22 24  1  0  0  0  0
 23 20  1  0  0  0  0
 24 20  2  0  0  0  0
 25 23  2  0  0  0  0
 26 28  2  0  0  0  0
 26 27  1  0  0  0  0
 27 31  2  0  0  0  0
 28 29  1  0  0  0  0
 29 30  2  0  0  0  0
 30 21  1  0  0  0  0
 31 30  1  0  0  0  0
 32 33  1  0  0  0  0
 33 27  1  0  0  0  0
 35 37  1  0  0  0  0
 36 38  2  0  0  0  0
 37 39  1  0  0  0  0
 38 44  1  0  0  0  0
 39 36  1  0  0  0  0
 40 42  1  0  0  0  0
 41 34  1  6  0  0  0
 41 35  1  0  0  0  0
 41 40  1  0  0  0  0
 42 36  1  0  0  0  0
 43 44  1  0  0  0  0
 44 45  2  0  0  0  0
 46 43  1  0  0  0  0
 47 49  1  6  0  0  0
 47 46  1  0  0  0  0
 49 48  1  0  0  0  0
 50 47  1  0  0  0  0
 50 51  1  0  0  0  0
 51 52  1  0  0  0  0
M  END
>  <MODEL>
2

>  <REMARK>
 VINA RESULT:      -4.8      3.461      9.443
  Name = 
  14 active torsions:
  status: ('A' for Active; 'I' for Inactive)
    1  A    between atoms: C_2  and  C_49
    2  A    between atoms: O_4  and  C_19
    3  A    between atoms: O_4  and  N_23
    4  A    between atoms: N_5  and  C_39
    5  A    between atoms: N_6  and  C_9
    6  A    between atoms: N_6  and  C_18
    7  A    between atoms: C_10  and  C_24
    8  A    between atoms: C_10  and  C_33
    9  A    between atoms: C_14  and  C_44
   10  A    between atoms: C_17  and  C_22
   11  A    between atoms: C_24  and  C_39
   12  A    between atoms: C_24  and  C_50
   13  A    between atoms: N_28  and  C_29
   14  A    between atoms: C_41  and  C_49
                            x       y       z     vdW  Elec       q    Type
                         _______ _______ _______ _____ _____    ______ ____

>  <TORSDO>
F 14

$$$$
=
 OpenBabel11042420523D

 52 56  0  0  1  0  0  0  0  0999 V2000
  161.2290  211.6790  149.8140 N   0  0  0  0  0  2  0  0  0  0  0  0
  161.1560  209.2250  150.4790 C   0  0  0  0  0  0  0  0  0  0  0  0
  162.1830  209.8680  148.5520 N   0  0  0  0  0  0  0  0  0  0  0  0
  161.6060  212.7710  148.9700 C   0  0  0  0  0  0  0  0  0  0  0  0
  161.6070  208.1030  149.9310 C   0  0  0  0  0  0  0  0  0  0  0  0
  161.2730  213.9420  149.2960 O   0  0  0  0  0  0  0  0  0  0  0  0
  162.3470  212.5520  147.7680 N   0  0  0  0  0  2  0  0  0  0  0  0
  162.3250  208.4190  148.6600 C   0  0  0  0  0  2  0  0  0  0  0  0
  161.5330  210.2980  149.5820 C   0  0  0  0  0  0  0  0  0  0  0  0
  162.7330  213.5850  146.9800 O   0  0  0  0  0  0  0  0  0  0  0  0
  161.6570  214.0630  142.7030 C   0  0  0  0  0  2  0  0  0  0  0  0
  160.9200  213.1040  145.4810 C   0  0  1  0  0  3  0  0  0  0  0  0
  162.4390  213.1780  145.6750 C   0  0  1  0  0  3  0  0  0  0  0  0
  163.1480  214.0940  144.6810 C   0  0  0  0  0  2  0  0  0  0  0  0
  160.2150  214.4530  145.5710 C   0  0  0  0  0  1  0  0  0  0  0  0
  160.5380  212.2860  144.2460 C   0  0  0  0  0  2  0  0  0  0  0  0
  160.5350  213.0410  142.9080 C   0  0  0  0  0  2  0  0  0  0  0  0
  162.9990  213.6020  143.2490 C   0  0  0  0  0  2  0  0  0  0  0  0
  161.6370  206.8110  150.5550 N   0  0  0  0  0  2  0  0  0  0  0  0
  161.5380  205.5520  149.8800 C   0  0  0  0  0  0  0  0  0  0  0  0
  161.3200  203.1500  148.4820 C   0  0  0  0  0  0  0  0  0  0  0  0
  161.6850  204.3020  147.8500 N   0  0  0  0  0  0  0  0  0  0  0  0
  161.1420  204.3890  150.5500 C   0  0  0  0  0  3  0  0  0  0  0  0
  161.7940  205.4860  148.5100 C   0  0  0  0  0  3  0  0  0  0  0  0
  161.0370  203.1850  149.8550 C   0  0  0  0  0  3  0  0  0  0  0  0
  161.0310  199.4970  146.2550 C   0  0  0  0  0  3  0  0  0  0  0  0
  160.4590  200.6700  145.7550 C   0  0  0  0  0  0  0  0  0  0  0  0
  161.7010  199.5130  147.4810 C   0  0  0  0  0  3  0  0  0  0  0  0
  161.7970  200.7020  148.2100 C   0  0  0  0  0  3  0  0  0  0  0  0
  161.2230  201.8870  147.7200 C   0  0  0  0  0  0  0  0  0  0  0  0
  160.5520  201.8600  146.4860 C   0  0  0  0  0  3  0  0  0  0  0  0
  159.5100  202.0650  143.9570 C   0  0  0  0  0  1  0  0  0  0  0  0
  159.7280  200.6490  144.4570 C   0  0  0  0  0  2  0  0  0  0  0  0
  160.6140  209.3970  151.8620 C   0  0  0  0  0  2  0  0  0  0  0  0
  161.3040  208.2110  153.9970 C   0  0  0  0  0  2  0  0  0  0  0  0
  160.4220  211.1670  155.0550 C   0  0  0  0  0  0  0  0  0  0  0  0
  160.1560  208.7080  154.8680 C   0  0  0  0  0  2  0  0  0  0  0  0
  159.5200  212.0250  155.4400 N   0  0  0  0  0  0  0  0  0  0  0  0
  160.6140  209.8530  155.7570 C   0  0  0  0  0  2  0  0  0  0  0  0
  162.3030  210.4990  153.4510 C   0  0  0  0  0  2  0  0  0  0  0  0
  161.7140  209.1940  152.9010 C   0  0  2  0  0  3  0  0  0  0  0  0
  161.2490  211.5340  153.8560 C   0  0  0  0  0  2  0  0  0  0  0  0
  157.7670  213.0150  156.8870 N   0  0  0  0  0  2  0  0  0  0  0  0
  158.6150  211.9170  156.5530 C   0  0  0  0  0  0  0  0  0  0  0  0
  158.5620  210.8730  157.2560 O   0  0  0  0  0  0  0  0  0  0  0  0
  157.7270  214.2300  156.0850 C   0  0  0  0  0  2  0  0  0  0  0  0
  156.5830  214.1870  155.0740 C   0  0  2  0  0  3  0  0  0  0  0  0
  155.3430  212.2540  154.4120 O   0  0  0  0  0  1  0  0  0  0  0  0
  155.5630  213.1310  155.4750 C   0  0  0  0  0  2  0  0  0  0  0  0
  157.0900  213.9290  153.6570 C   0  0  0  0  0  2  0  0  0  0  0  0
  158.5080  214.4500  153.4750 C   0  0  0  0  0  2  0  0  0  0  0  0
  159.0160  214.0240  152.2490 O   0  0  0  0  0  1  0  0  0  0  0  0
  2 34  1  0  0  0  0
  3  8  1  0  0  0  0
  3  9  2  0  0  0  0
  4  6  2  0  0  0  0
  4  1  1  0  0  0  0
  5  2  2  0  0  0  0
  5 19  1  0  0  0  0
  7  4  1  0  0  0  0
  8  5  1  0  0  0  0
  9  1  1  0  0  0  0
  9  2  1  0  0  0  0
 10  7  1  0  0  0  0
 11 17  1  0  0  0  0
 11 18  1  0  0  0  0
 12 15  1  6  0  0  0
 12 13  1  0  0  0  0
 13 10  1  1  0  0  0
 14 13  1  0  0  0  0
 16 12  1  0  0  0  0
 17 16  1  0  0  0  0
 18 14  1  0  0  0  0
 20 23  1  0  0  0  0
 20 19  1  0  0  0  0
 21 25  1  0  0  0  0
 22 21  2  0  0  0  0
 22 24  1  0  0  0  0
 24 20  2  0  0  0  0
 25 23  2  0  0  0  0
 26 28  1  0  0  0  0
 27 26  2  0  0  0  0
 27 31  1  0  0  0  0
 28 29  2  0  0  0  0
 30 29  1  0  0  0  0
 30 21  1  0  0  0  0
 31 30  2  0  0  0  0
 32 33  1  0  0  0  0
 33 27  1  0  0  0  0
 35 37  1  0  0  0  0
 36 38  2  0  0  0  0
 36 39  1  0  0  0  0
 37 39  1  0  0  0  0
 38 44  1  0  0  0  0
 40 42  1  0  0  0  0
 41 34  1  1  0  0  0
 41 40  1  0  0  0  0
 41 35  1  0  0  0  0
 42 36  1  0  0  0  0
 44 43  1  0  0  0  0
 44 45  2  0  0  0  0
 46 43  1  0  0  0  0
 47 50  1  6  0  0  0
 47 49  1  0  0  0  0
 47 46  1  0  0  0  0
 48 49  1  0  0  0  0
 51 50  1  0  0  0  0
 52 51  1  0  0  0  0
M  END
>  <MODEL>
3

>  <REMARK>
 VINA RESULT:      -4.6      3.404     11.814
  Name = 
  14 active torsions:
  status: ('A' for Active; 'I' for Inactive)
    1  A    between atoms: C_2  and  C_49
    2  A    between atoms: O_4  and  C_19
    3  A    between atoms: O_4  and  N_23
    4  A    between atoms: N_5  and  C_39
    5  A    between atoms: N_6  and  C_9
    6  A    between atoms: N_6  and  C_18
    7  A    between atoms: C_10  and  C_24
    8  A    between atoms: C_10  and  C_33
    9  A    between atoms: C_14  and  C_44
   10  A    between atoms: C_17  and  C_22
   11  A    between atoms: C_24  and  C_39
   12  A    between atoms: C_24  and  C_50
   13  A    between atoms: N_28  and  C_29
   14  A    between atoms: C_41  and  C_49
                            x       y       z     vdW  Elec       q    Type
                         _______ _______ _______ _____ _____    ______ ____

>  <TORSDO>
F 14

$$$$
=
 OpenBabel11042420523D

 52 56  0  0  1  0  0  0  0  0999 V2000
  160.6150  209.6240  153.7750 N   0  0  0  0  0  2  0  0  0  0  0  0
  161.5470  210.0650  151.4500 C   0  0  0  0  0  0  0  0  0  0  0  0
  160.4730  211.7140  152.5940 N   0  0  0  0  0  0  0  0  0  0  0  0
  159.9570  210.0000  154.9890 C   0  0  0  0  0  0  0  0  0  0  0  0
  161.5670  211.1210  150.6450 C   0  0  0  0  0  0  0  0  0  0  0  0
  159.8170  209.1440  155.9020 O   0  0  0  0  0  0  0  0  0  0  0  0
  159.4540  211.3250  155.1750 N   0  0  0  0  0  2  0  0  0  0  0  0
  160.9010  212.2760  151.3170 C   0  0  0  0  0  2  0  0  0  0  0  0
  160.8500  210.4800  152.6500 C   0  0  0  0  0  0  0  0  0  0  0  0
  158.8570  211.6960  156.3340 O   0  0  0  0  0  0  0  0  0  0  0  0
  155.0890  213.9800  155.8220 C   0  0  0  0  0  2  0  0  0  0  0  0
  157.4830  212.5980  154.5830 C   0  0  1  0  0  3  0  0  0  0  0  0
  158.0510  212.7870  155.9940 C   0  0  1  0  0  3  0  0  0  0  0  0
  156.9860  212.9910  157.0700 C   0  0  0  0  0  2  0  0  0  0  0  0
  156.5190  211.4240  154.4520 C   0  0  0  0  0  1  0  0  0  0  0  0
  156.9480  213.9080  153.9990 C   0  0  0  0  0  2  0  0  0  0  0  0
  155.5080  214.2820  154.3810 C   0  0  0  0  0  2  0  0  0  0  0  0
  156.1820  214.2620  156.8400 C   0  0  0  0  0  2  0  0  0  0  0  0
  162.3180  211.2400  149.4280 N   0  0  0  0  0  2  0  0  0  0  0  0
  161.8460  211.8210  148.2070 C   0  0  0  0  0  0  0  0  0  0  0  0
  160.8890  212.8600  145.8040 C   0  0  0  0  0  0  0  0  0  0  0  0
  160.2460  211.8360  146.4330 N   0  0  0  0  0  0  0  0  0  0  0  0
  162.5390  212.8570  147.5710 C   0  0  0  0  0  3  0  0  0  0  0  0
  160.6960  211.3100  147.6040 C   0  0  0  0  0  3  0  0  0  0  0  0
  162.0600  213.3830  146.3720 C   0  0  0  0  0  3  0  0  0  0  0  0
  159.3580  214.4250  142.1160 C   0  0  0  0  0  3  0  0  0  0  0  0
  160.7060  214.0670  142.2210 C   0  0  0  0  0  0  0  0  0  0  0  0
  158.5060  214.2700  143.2130 C   0  0  0  0  0  3  0  0  0  0  0  0
  159.0020  213.7600  144.4160 C   0  0  0  0  0  3  0  0  0  0  0  0
  160.3550  213.4020  144.5360 C   0  0  0  0  0  0  0  0  0  0  0  0
  161.2020  213.5610  143.4270 C   0  0  0  0  0  3  0  0  0  0  0  0
  163.0610  214.0750  141.4930 C   0  0  0  0  0  1  0  0  0  0  0  0
  161.6180  214.2510  141.0580 C   0  0  0  0  0  2  0  0  0  0  0  0
  162.3170  208.7930  151.2870 C   0  0  0  0  0  2  0  0  0  0  0  0
  162.5000  206.4480  152.2390 C   0  0  0  0  0  2  0  0  0  0  0  0
  161.3200  205.9320  149.2420 C   0  0  0  0  0  0  0  0  0  0  0  0
  163.0720  205.7830  150.9930 C   0  0  0  0  0  2  0  0  0  0  0  0
  161.4810  205.7720  147.9590 N   0  0  0  0  0  0  0  0  0  0  0  0
  161.9880  205.0280  150.2410 C   0  0  0  0  0  2  0  0  0  0  0  0
  160.2930  207.2160  151.2040 C   0  0  0  0  0  2  0  0  0  0  0  0
  161.5760  207.6270  151.9360 C   0  0  2  0  0  3  0  0  0  0  0  0
  160.4610  207.0790  149.6880 C   0  0  0  0  0  2  0  0  0  0  0  0
  161.8900  203.3810  147.4420 N   0  0  0  0  0  2  0  0  0  0  0  0
  162.2420  204.7550  147.2820 C   0  0  0  0  0  0  0  0  0  0  0  0
  163.2290  205.0490  146.5570 O   0  0  0  0  0  0  0  0  0  0  0  0
  160.7260  202.9680  148.2140 C   0  0  0  0  0  2  0  0  0  0  0  0
  160.6080  201.4460  148.2610 C   0  0  2  0  0  3  0  0  0  0  0  0
  160.9760  202.0230  150.5500 O   0  0  0  0  0  1  0  0  0  0  0  0
  160.7200  200.9510  149.6950 C   0  0  0  0  0  2  0  0  0  0  0  0
  161.6560  200.7700  147.3800 C   0  0  0  0  0  2  0  0  0  0  0  0
  161.2320  199.3590  147.0010 C   0  0  0  0  0  2  0  0  0  0  0  0
  161.5200  199.1220  145.6570 O   0  0  0  0  0  1  0  0  0  0  0  0
  1  4  1  0  0  0  0
  2  9  1  0  0  0  0
  3  9  2  0  0  0  0
  4  7  1  0  0  0  0
  4  6  2  0  0  0  0
  5  8  1  0  0  0  0
  5  2  2  0  0  0  0
  7 10  1  0  0  0  0
  8  3  1  0  0  0  0
  9  1  1  0  0  0  0
 11 18  1  0  0  0  0
 12 15  1  1  0  0  0
 12 13  1  0  0  0  0
 13 10  1  1  0  0  0
 13 14  1  0  0  0  0
 16 17  1  0  0  0  0
 16 12  1  0  0  0  0
 17 11  1  0  0  0  0
 18 14  1  0  0  0  0
 19  5  1  0  0  0  0
 20 19  1  0  0  0  0
 21 25  2  0  0  0  0
 21 22  1  0  0  0  0
 22 24  2  0  0  0  0
 23 20  2  0  0  0  0
 24 20  1  0  0  0  0
 25 23  1  0  0  0  0
 26 27  2  0  0  0  0
 26 28  1  0  0  0  0
 27 31  1  0  0  0  0
 28 29  2  0  0  0  0
 29 30  1  0  0  0  0
 30 21  1  0  0  0  0
 31 30  2  0  0  0  0
 33 32  1  0  0  0  0
 33 27  1  0  0  0  0
 34  2  1  0  0  0  0
 36 42  1  0  0  0  0
 36 39  1  0  0  0  0
 37 35  1  0  0  0  0
 38 36  2  0  0  0  0
 39 37  1  0  0  0  0
 40 41  1  0  0  0  0
 41 34  1  6  0  0  0
 41 35  1  0  0  0  0
 42 40  1  0  0  0  0
 43 46  1  0  0  0  0
 44 43  1  0  0  0  0
 44 38  1  0  0  0  0
 45 44  2  0  0  0  0
 46 47  1  0  0  0  0
 47 50  1  6  0  0  0
 47 49  1  0  0  0  0
 49 48  1  0  0  0  0
 51 50  1  0  0  0  0
 52 51  1  0  0  0  0
M  END
>  <MODEL>
4

>  <REMARK>
 VINA RESULT:      -4.3      2.945     10.707
  Name = 
  14 active torsions:
  status: ('A' for Active; 'I' for Inactive)
    1  A    between atoms: C_2  and  C_49
    2  A    between atoms: O_4  and  C_19
    3  A    between atoms: O_4  and  N_23
    4  A    between atoms: N_5  and  C_39
    5  A    between atoms: N_6  and  C_9
    6  A    between atoms: N_6  and  C_18
    7  A    between atoms: C_10  and  C_24
    8  A    between atoms: C_10  and  C_33
    9  A    between atoms: C_14  and  C_44
   10  A    between atoms: C_17  and  C_22
   11  A    between atoms: C_24  and  C_39
   12  A    between atoms: C_24  and  C_50
   13  A    between atoms: N_28  and  C_29
   14  A    between atoms: C_41  and  C_49
                            x       y       z     vdW  Elec       q    Type
                         _______ _______ _______ _____ _____    ______ ____

>  <TORSDO>
F 14

$$$$
=
 OpenBabel11042420523D

 52 56  0  0  1  0  0  0  0  0999 V2000
  160.4910  211.7700  153.4720 N   0  0  0  0  0  2  0  0  0  0  0  0
  161.4430  209.4370  153.8170 C   0  0  0  0  0  0  0  0  0  0  0  0
  160.0530  210.3560  155.3670 N   0  0  0  0  0  0  0  0  0  0  0  0
  159.6830  212.8950  153.8320 C   0  0  0  0  0  0  0  0  0  0  0  0
  161.3290  208.5220  154.7720 C   0  0  0  0  0  0  0  0  0  0  0  0
  159.6450  213.8940  153.0660 O   0  0  0  0  0  0  0  0  0  0  0  0
  158.9260  212.9010  155.0450 N   0  0  0  0  0  2  0  0  0  0  0  0
  160.4100  209.0210  155.8380 C   0  0  0  0  0  2  0  0  0  0  0  0
  160.6360  210.5650  154.2340 C   0  0  0  0  0  0  0  0  0  0  0  0
  158.1350  213.9500  155.3770 O   0  0  0  0  0  0  0  0  0  0  0  0
  154.8220  211.3450  156.7580 C   0  0  0  0  0  2  0  0  0  0  0  0
  155.8420  214.1130  156.0690 C   0  0  1  0  0  3  0  0  0  0  0  0
  157.1980  213.4290  156.2750 C   0  0  1  0  0  3  0  0  0  0  0  0
  157.1540  211.9080  156.1420 C   0  0  0  0  0  2  0  0  0  0  0  0
  155.1980  213.8250  154.7180 C   0  0  0  0  0  1  0  0  0  0  0  0
  154.9050  213.9000  157.2600 C   0  0  0  0  0  2  0  0  0  0  0  0
  154.0940  212.5950  157.2590 C   0  0  0  0  0  2  0  0  0  0  0  0
  156.2730  211.2710  157.2060 C   0  0  0  0  0  2  0  0  0  0  0  0
  161.7970  207.1670  154.7030 N   0  0  0  0  0  2  0  0  0  0  0  0
  161.6120  206.2720  153.6000 C   0  0  0  0  0  0  0  0  0  0  0  0
  161.3300  204.5780  151.4040 C   0  0  0  0  0  0  0  0  0  0  0  0
  162.5400  205.1160  151.7270 N   0  0  0  0  0  0  0  0  0  0  0  0
  160.3540  205.7520  153.2800 C   0  0  0  0  0  3  0  0  0  0  0  0
  162.7020  205.9470  152.7910 C   0  0  0  0  0  3  0  0  0  0  0  0
  160.2100  204.9000  152.1850 C   0  0  0  0  0  3  0  0  0  0  0  0
  160.9850  201.9690  148.0190 C   0  0  0  0  0  3  0  0  0  0  0  0
  161.3260  203.3120  147.8370 C   0  0  0  0  0  0  0  0  0  0  0  0
  160.7590  201.4720  149.3060 C   0  0  0  0  0  3  0  0  0  0  0  0
  160.8710  202.3200  150.4110 C   0  0  0  0  0  3  0  0  0  0  0  0
  161.2080  203.6730  150.2410 C   0  0  0  0  0  0  0  0  0  0  0  0
  161.4330  204.1610  148.9440 C   0  0  0  0  0  3  0  0  0  0  0  0
  161.4490  205.3600  146.4700 C   0  0  0  0  0  1  0  0  0  0  0  0
  161.5470  203.8460  146.4640 C   0  0  0  0  0  2  0  0  0  0  0  0
  162.0490  209.2540  152.4610 C   0  0  0  0  0  2  0  0  0  0  0  0
  161.5560  208.0770  150.2670 C   0  0  0  0  0  2  0  0  0  0  0  0
  161.6920  211.2190  149.4000 C   0  0  0  0  0  0  0  0  0  0  0  0
  162.5210  208.8810  149.4030 C   0  0  0  0  0  2  0  0  0  0  0  0
  162.3560  212.2840  149.0520 N   0  0  0  0  0  0  0  0  0  0  0  0
  161.7760  209.9420  148.6110 C   0  0  0  0  0  2  0  0  0  0  0  0
  160.0850  210.0340  151.0030 C   0  0  0  0  0  2  0  0  0  0  0  0
  160.9810  208.8680  151.4420 C   0  0  2  0  0  3  0  0  0  0  0  0
  160.8570  211.3070  150.6440 C   0  0  0  0  0  2  0  0  0  0  0  0
  162.7240  213.1330  146.7520 N   0  0  0  0  0  2  0  0  0  0  0  0
  163.2140  212.4590  147.9090 C   0  0  0  0  0  0  0  0  0  0  0  0
  164.3920  212.0130  147.9000 O   0  0  0  0  0  0  0  0  0  0  0  0
  161.3950  213.7290  146.7100 C   0  0  0  0  0  2  0  0  0  0  0  0
  160.7870  213.6220  145.3130 C   0  0  2  0  0  3  0  0  0  0  0  0
  158.8730  212.8420  144.1120 O   0  0  0  0  0  1  0  0  0  0  0  0
  159.5060  212.8020  145.3550 C   0  0  0  0  0  2  0  0  0  0  0  0
  161.7720  213.0230  144.3120 C   0  0  0  0  0  2  0  0  0  0  0  0
  161.9570  213.9330  143.1070 C   0  0  0  0  0  2  0  0  0  0  0  0
  163.3120  214.0320  142.7910 O   0  0  0  0  0  1  0  0  0  0  0  0
  1  4  1  0  0  0  0
  1  9  1  0  0  0  0
  2  9  1  0  0  0  0
  2  5  2  0  0  0  0
  3  8  1  0  0  0  0
  4  7  1  0  0  0  0
  5  8  1  0  0  0  0
  6  4  2  0  0  0  0
  7 10  1  0  0  0  0
  9  3  2  0  0  0  0
 11 18  1  0  0  0  0
 11 17  1  0  0  0  0
 12 15  1  6  0  0  0
 12 13  1  0  0  0  0
 12 16  1  0  0  0  0
 13 10  1  6  0  0  0
 14 13  1  0  0  0  0
 14 18  1  0  0  0  0
 17 16  1  0  0  0  0
 19  5  1  0  0  0  0
 20 19  1  0  0  0  0
 21 22  2  0  0  0  0
 21 25  1  0  0  0  0
 22 24  1  0  0  0  0
 23 20  1  0  0  0  0
 24 20  2  0  0  0  0
 25 23  2  0  0  0  0
 26 28  1  0  0  0  0
 27 26  2  0  0  0  0
 27 31  1  0  0  0  0
 28 29  2  0  0  0  0
 30 29  1  0  0  0  0
 30 21  1  0  0  0  0
 31 30  2  0  0  0  0
 33 32  1  0  0  0  0
 33 27  1  0  0  0  0
 34  2  1  0  0  0  0
 35 41  1  0  0  0  0
 36 42  1  0  0  0  0
 37 35  1  0  0  0  0
 38 36  2  0  0  0  0
 39 36  1  0  0  0  0
 39 37  1  0  0  0  0
 40 41  1  0  0  0  0
 41 34  1  6  0  0  0
 42 40  1  0  0  0  0
 43 44  1  0  0  0  0
 44 38  1  0  0  0  0
 45 44  2  0  0  0  0
 46 43  1  0  0  0  0
 47 50  1  6  0  0  0
 47 49  1  0  0  0  0
 47 46  1  0  0  0  0
 48 49  1  0  0  0  0
 51 50  1  0  0  0  0
 52 51  1  0  0  0  0
M  END
>  <MODEL>
5

>  <REMARK>
 VINA RESULT:      -3.8      2.946      9.420
  Name = 
  14 active torsions:
  status: ('A' for Active; 'I' for Inactive)
    1  A    between atoms: C_2  and  C_49
    2  A    between atoms: O_4  and  C_19
    3  A    between atoms: O_4  and  N_23
    4  A    between atoms: N_5  and  C_39
    5  A    between atoms: N_6  and  C_9
    6  A    between atoms: N_6  and  C_18
    7  A    between atoms: C_10  and  C_24
    8  A    between atoms: C_10  and  C_33
    9  A    between atoms: C_14  and  C_44
   10  A    between atoms: C_17  and  C_22
   11  A    between atoms: C_24  and  C_39
   12  A    between atoms: C_24  and  C_50
   13  A    between atoms: N_28  and  C_29
   14  A    between atoms: C_41  and  C_49
                            x       y       z     vdW  Elec       q    Type
                         _______ _______ _______ _____ _____    ______ ____

>  <TORSDO>
F 14

$$$$
=
 OpenBabel11042420523D

 52 56  0  0  1  0  0  0  0  0999 V2000
  161.5240  213.0200  144.9790 N   0  0  0  0  0  2  0  0  0  0  0  0
  159.5560  213.2130  146.5780 C   0  0  0  0  0  0  0  0  0  0  0  0
  159.4420  214.1220  144.4940 N   0  0  0  0  0  0  0  0  0  0  0  0
  162.1870  213.2200  143.7270 C   0  0  0  0  0  0  0  0  0  0  0  0
  158.3530  213.7710  146.5040 C   0  0  0  0  0  0  0  0  0  0  0  0
  163.3560  212.7760  143.5740 O   0  0  0  0  0  0  0  0  0  0  0  0
  161.5470  213.9180  142.6560 N   0  0  0  0  0  2  0  0  0  0  0  0
  158.1660  214.3820  145.1540 C   0  0  0  0  0  2  0  0  0  0  0  0
  160.2010  213.4630  145.3060 C   0  0  0  0  0  0  0  0  0  0  0  0
  162.1580  214.0840  141.4580 O   0  0  0  0  0  0  0  0  0  0  0  0
  160.7410  210.8810  138.7360 C   0  0  0  0  0  2  0  0  0  0  0  0
  161.8550  213.6730  139.1110 C   0  0  1  0  0  3  0  0  0  0  0  0
  161.3140  213.4650  140.5310 C   0  0  1  0  0  3  0  0  0  0  0  0
  161.1210  211.9990  140.9130 C   0  0  0  0  0  2  0  0  0  0  0  0
  163.1910  212.9880  138.8480 C   0  0  0  0  0  1  0  0  0  0  0  0
  160.7940  213.3920  138.0450 C   0  0  0  0  0  2  0  0  0  0  0  0
  160.6310  211.9250  137.6210 C   0  0  0  0  0  2  0  0  0  0  0  0
  160.0840  211.3150  140.0360 C   0  0  0  0  0  2  0  0  0  0  0  0
  157.2890  213.6120  147.4530 N   0  0  0  0  0  2  0  0  0  0  0  0
  157.4300  213.6120  148.8780 C   0  0  0  0  0  0  0  0  0  0  0  0
  157.6080  213.5890  151.6600 C   0  0  0  0  0  0  0  0  0  0  0  0
  156.7130  212.7960  151.0050 N   0  0  0  0  0  0  0  0  0  0  0  0
  158.3430  214.4530  149.5250 C   0  0  0  0  0  3  0  0  0  0  0  0
  156.6060  212.7930  149.6500 C   0  0  0  0  0  3  0  0  0  0  0  0
  158.4380  214.4400  150.9160 C   0  0  0  0  0  3  0  0  0  0  0  0
  157.8660  213.4660  155.9390 C   0  0  0  0  0  3  0  0  0  0  0  0
  158.6810  212.6360  155.1630 C   0  0  0  0  0  0  0  0  0  0  0  0
  156.9670  214.3400  155.3210 C   0  0  0  0  0  3  0  0  0  0  0  0
  156.8800  214.3830  153.9270 C   0  0  0  0  0  3  0  0  0  0  0  0
  157.6910  213.5510  153.1360 C   0  0  0  0  0  0  0  0  0  0  0  0
  158.5910  212.6770  153.7670 C   0  0  0  0  0  3  0  0  0  0  0  0
  159.4850  210.3070  155.2160 C   0  0  0  0  0  1  0  0  0  0  0  0
  159.6250  211.6910  155.8210 C   0  0  0  0  0  2  0  0  0  0  0  0
  160.0530  212.2830  147.6390 C   0  0  0  0  0  2  0  0  0  0  0  0
  162.5720  212.0990  147.8880 C   0  0  0  0  0  2  0  0  0  0  0  0
  161.4590  210.5810  150.5520 C   0  0  0  0  0  0  0  0  0  0  0  0
  162.6090  210.6480  148.3550 C   0  0  0  0  0  2  0  0  0  0  0  0
  160.9970  209.5270  151.1620 N   0  0  0  0  0  0  0  0  0  0  0  0
  162.7940  210.5740  149.8610 C   0  0  0  0  0  2  0  0  0  0  0  0
  161.1810  213.0200  149.8240 C   0  0  0  0  0  2  0  0  0  0  0  0
  161.3060  212.8460  148.3050 C   0  0  2  0  0  3  0  0  0  0  0  0
  160.5880  211.8040  150.5410 C   0  0  0  0  0  2  0  0  0  0  0  0
  161.5940  207.2980  150.2540 N   0  0  0  0  0  2  0  0  0  0  0  0
  161.6340  208.2460  151.3200 C   0  0  0  0  0  0  0  0  0  0  0  0
  162.2180  207.9320  152.3910 O   0  0  0  0  0  0  0  0  0  0  0  0
  160.9920  207.6110  148.9650 C   0  0  0  0  0  2  0  0  0  0  0  0
  160.7260  206.3410  148.1580 C   0  0  2  0  0  3  0  0  0  0  0  0
  161.7650  204.2120  148.4710 O   0  0  0  0  0  1  0  0  0  0  0  0
  160.8660  205.1120  149.0440 C   0  0  0  0  0  2  0  0  0  0  0  0
  161.6530  206.2360  146.9490 C   0  0  0  0  0  2  0  0  0  0  0  0
  160.9020  205.7530  145.7180 C   0  0  0  0  0  2  0  0  0  0  0  0
  161.8030  205.2590  144.7750 O   0  0  0  0  0  1  0  0  0  0  0  0
  1  9  1  0  0  0  0
  2 34  1  0  0  0  0
  3  8  1  0  0  0  0
  3  9  2  0  0  0  0
  4  1  1  0  0  0  0
  5  2  2  0  0  0  0
  5 19  1  0  0  0  0
  6  4  2  0  0  0  0
  7  4  1  0  0  0  0
  8  5  1  0  0  0  0
  9  2  1  0  0  0  0
 10  7  1  0  0  0  0
 11 18  1  0  0  0  0
 12 15  1  6  0  0  0
 12 13  1  0  0  0  0
 13 14  1  0  0  0  0
 13 10  1  1  0  0  0
 16 12  1  0  0  0  0
 17 16  1  0  0  0  0
 17 11  1  0  0  0  0
 18 14  1  0  0  0  0
 19 20  1  0  0  0  0
 20 23  2  0  0  0  0
 20 24  1  0  0  0  0
 21 30  1  0  0  0  0
 22 21  1  0  0  0  0
 23 25  1  0  0  0  0
 24 22  2  0  0  0  0
 25 21  2  0  0  0  0
 27 33  1  0  0  0  0
 27 26  2  0  0  0  0
 28 26  1  0  0  0  0
 29 28  2  0  0  0  0
 30 31  2  0  0  0  0
 30 29  1  0  0  0  0
 31 27  1  0  0  0  0
 32 33  1  0  0  0  0
 35 41  1  0  0  0  0
 35 37  1  0  0  0  0
 36 38  2  0  0  0  0
 37 39  1  0  0  0  0
 38 44  1  0  0  0  0
 39 36  1  0  0  0  0
 40 42  1  0  0  0  0
 41 34  1  1  0  0  0
 41 40  1  0  0  0  0
 42 36  1  0  0  0  0
 43 44  1  0  0  0  0
 44 45  2  0  0  0  0
 46 43  1  0  0  0  0
 47 50  1  6  0  0  0
 47 46  1  0  0  0  0
 47 49  1  0  0  0  0
 48 49  1  0  0  0  0
 51 50  1  0  0  0  0
 52 51  1  0  0  0  0
M  END
>  <MODEL>
6

>  <REMARK>
 VINA RESULT:      -3.8      2.331      8.588
  Name = 
  14 active torsions:
  status: ('A' for Active; 'I' for Inactive)
    1  A    between atoms: C_2  and  C_49
    2  A    between atoms: O_4  and  C_19
    3  A    between atoms: O_4  and  N_23
    4  A    between atoms: N_5  and  C_39
    5  A    between atoms: N_6  and  C_9
    6  A    between atoms: N_6  and  C_18
    7  A    between atoms: C_10  and  C_24
    8  A    between atoms: C_10  and  C_33
    9  A    between atoms: C_14  and  C_44
   10  A    between atoms: C_17  and  C_22
   11  A    between atoms: C_24  and  C_39
   12  A    between atoms: C_24  and  C_50
   13  A    between atoms: N_28  and  C_29
   14  A    between atoms: C_41  and  C_49
                            x       y       z     vdW  Elec       q    Type
                         _______ _______ _______ _____ _____    ______ ____

>  <TORSDO>
F 14

$$$$
=
 OpenBabel11042420523D

 52 56  0  0  1  0  0  0  0  0999 V2000
  160.8490  207.6300  148.9390 N   0  0  0  0  0  2  0  0  0  0  0  0
  161.0850  208.8200  151.1750 C   0  0  0  0  0  0  0  0  0  0  0  0
  161.9760  206.7470  150.8710 N   0  0  0  0  0  0  0  0  0  0  0  0
  161.0690  206.5490  148.0290 C   0  0  0  0  0  0  0  0  0  0  0  0
  161.6510  208.5080  152.3350 C   0  0  0  0  0  0  0  0  0  0  0  0
  160.6090  206.6270  146.8590 O   0  0  0  0  0  0  0  0  0  0  0  0
  161.7970  205.3860  148.4290 N   0  0  0  0  0  2  0  0  0  0  0  0
  162.2910  207.1620  152.2340 C   0  0  0  0  0  2  0  0  0  0  0  0
  161.3070  207.6910  150.2950 C   0  0  0  0  0  0  0  0  0  0  0  0
  162.0360  204.3710  147.5630 O   0  0  0  0  0  0  0  0  0  0  0  0
  159.8490  200.9520  149.3530 C   0  0  0  0  0  2  0  0  0  0  0  0
  161.3570  203.5550  149.7170 C   0  0  1  0  0  3  0  0  0  0  0  0
  161.8690  203.2040  148.3150 C   0  0  1  0  0  3  0  0  0  0  0  0
  160.9730  202.2290  147.5530 C   0  0  0  0  0  2  0  0  0  0  0  0
  159.9590  204.1610  149.7350 C   0  0  0  0  0  1  0  0  0  0  0  0
  161.5450  202.3990  150.7020 C   0  0  0  0  0  2  0  0  0  0  0  0
  160.4390  201.3320  150.7140 C   0  0  0  0  0  2  0  0  0  0  0  0
  160.8880  200.8770  148.2450 C   0  0  0  0  0  2  0  0  0  0  0  0
  161.8520  209.3980  153.4420 N   0  0  0  0  0  2  0  0  0  0  0  0
  160.8350  210.1660  154.0950 C   0  0  0  0  0  0  0  0  0  0  0  0
  158.7860  211.5990  155.3270 C   0  0  0  0  0  0  0  0  0  0  0  0
  158.6690  210.2600  155.0970 N   0  0  0  0  0  0  0  0  0  0  0  0
  160.9740  211.5430  154.2990 C   0  0  0  0  0  3  0  0  0  0  0  0
  159.6530  209.5410  154.4940 C   0  0  0  0  0  3  0  0  0  0  0  0
  159.9520  212.2620  154.9200 C   0  0  0  0  0  3  0  0  0  0  0  0
  155.5950  213.7130  157.2610 C   0  0  0  0  0  3  0  0  0  0  0  0
  155.4490  212.3590  156.9450 C   0  0  0  0  0  0  0  0  0  0  0  0
  156.7830  214.3800  156.9490 C   0  0  0  0  0  3  0  0  0  0  0  0
  157.8250  213.6940  156.3190 C   0  0  0  0  0  3  0  0  0  0  0  0
  157.6890  212.3340  155.9920 C   0  0  0  0  0  0  0  0  0  0  0  0
  156.4910  211.6740  156.3100 C   0  0  0  0  0  3  0  0  0  0  0  0
  154.3960  210.1520  157.2600 C   0  0  0  0  0  1  0  0  0  0  0  0
  154.1760  211.6530  157.2590 C   0  0  0  0  0  2  0  0  0  0  0  0
  160.5660  210.1590  150.7570 C   0  0  0  0  0  2  0  0  0  0  0  0
  161.2330  212.5930  151.0210 C   0  0  0  0  0  2  0  0  0  0  0  0
  160.8920  212.2730  147.7930 C   0  0  0  0  0  0  0  0  0  0  0  0
  160.2450  213.1690  150.0140 C   0  0  0  0  0  2  0  0  0  0  0  0
  160.1620  212.2540  146.7140 N   0  0  0  0  0  0  0  0  0  0  0  0
  160.9370  213.4740  148.6960 C   0  0  0  0  0  2  0  0  0  0  0  0
  162.5200  211.1070  149.3880 C   0  0  0  0  0  2  0  0  0  0  0  0
  161.7000  211.1780  150.6820 C   0  0  2  0  0  3  0  0  0  0  0  0
  161.6680  211.0300  148.1170 C   0  0  0  0  0  2  0  0  0  0  0  0
  159.6730  213.9080  144.9320 N   0  0  0  0  0  2  0  0  0  0  0  0
  159.3400  213.3090  146.1830 C   0  0  0  0  0  0  0  0  0  0  0  0
  158.3310  213.7320  146.8090 O   0  0  0  0  0  0  0  0  0  0  0  0
  160.7870  213.4320  144.1220 C   0  0  0  0  0  2  0  0  0  0  0  0
  160.2980  212.5430  142.9800 C   0  0  2  0  0  3  0  0  0  0  0  0
  162.6080  212.3410  142.4060 O   0  0  0  0  0  1  0  0  0  0  0  0
  161.3310  212.4960  141.8650 C   0  0  0  0  0  2  0  0  0  0  0  0
  158.9480  213.0090  142.4390 C   0  0  0  0  0  2  0  0  0  0  0  0
  158.9360  213.0160  140.9180 C   0  0  0  0  0  2  0  0  0  0  0  0
  157.6890  213.4370  140.4550 O   0  0  0  0  0  1  0  0  0  0  0  0
  1  9  1  0  0  0  0
  2  5  2  0  0  0  0
  3  8  1  0  0  0  0
  4  7  1  0  0  0  0
  4  1  1  0  0  0  0
  5 19  1  0  0  0  0
  6  4  2  0  0  0  0
  8  5  1  0  0  0  0
  9  3  2  0  0  0  0
  9  2  1  0  0  0  0
 10  7  1  0  0  0  0
 11 17  1  0  0  0  0
 12 15  1  6  0  0  0
 12 16  1  0  0  0  0
 13 10  1  6  0  0  0
 13 12  1  0  0  0  0
 14 18  1  0  0  0  0
 14 13  1  0  0  0  0
 16 17  1  0  0  0  0
 18 11  1  0  0  0  0
 19 20  1  0  0  0  0
 20 23  2  0  0  0  0
 20 24  1  0  0  0  0
 21 30  1  0  0  0  0
 22 21  1  0  0  0  0
 23 25  1  0  0  0  0
 24 22  2  0  0  0  0
 25 21  2  0  0  0  0
 27 33  1  0  0  0  0
 27 26  2  0  0  0  0
 28 26  1  0  0  0  0
 29 28  2  0  0  0  0
 30 31  2  0  0  0  0
 30 29  1  0  0  0  0
 31 27  1  0  0  0  0
 33 32  1  0  0  0  0
 34  2  1  0  0  0  0
 36 42  1  0  0  0  0
 36 39  1  0  0  0  0
 37 35  1  0  0  0  0
 38 36  2  0  0  0  0
 39 37  1  0  0  0  0
 40 41  1  0  0  0  0
 41 34  1  6  0  0  0
 41 35  1  0  0  0  0
 42 40  1  0  0  0  0
 43 44  1  0  0  0  0
 44 38  1  0  0  0  0
 44 45  2  0  0  0  0
 46 43  1  0  0  0  0
 47 49  1  6  0  0  0
 47 46  1  0  0  0  0
 49 48  1  0  0  0  0
 50 47  1  0  0  0  0
 51 50  1  0  0  0  0
 52 51  1  0  0  0  0
M  END
>  <MODEL>
7

>  <REMARK>
 VINA RESULT:      -3.3      1.844      2.732
  Name = 
  14 active torsions:
  status: ('A' for Active; 'I' for Inactive)
    1  A    between atoms: C_2  and  C_49
    2  A    between atoms: O_4  and  C_19
    3  A    between atoms: O_4  and  N_23
    4  A    between atoms: N_5  and  C_39
    5  A    between atoms: N_6  and  C_9
    6  A    between atoms: N_6  and  C_18
    7  A    between atoms: C_10  and  C_24
    8  A    between atoms: C_10  and  C_33
    9  A    between atoms: C_14  and  C_44
   10  A    between atoms: C_17  and  C_22
   11  A    between atoms: C_24  and  C_39
   12  A    between atoms: C_24  and  C_50
   13  A    between atoms: N_28  and  C_29
   14  A    between atoms: C_41  and  C_49
                            x       y       z     vdW  Elec       q    Type
                         _______ _______ _______ _____ _____    ______ ____

>  <TORSDO>
F 14

$$$$
=
 OpenBabel11042420523D

 52 56  0  0  1  0  0  0  0  0999 V2000
  160.8360  211.2280  153.8460 N   0  0  0  0  0  2  0  0  0  0  0  0
  161.6570  208.8210  153.8290 C   0  0  0  0  0  0  0  0  0  0  0  0
  160.4770  209.6240  155.6010 N   0  0  0  0  0  0  0  0  0  0  0  0
  160.1420  212.3450  154.4080 C   0  0  0  0  0  0  0  0  0  0  0  0
  161.5680  207.8060  154.6800 C   0  0  0  0  0  0  0  0  0  0  0  0
  160.1030  213.4300  153.7680 O   0  0  0  0  0  0  0  0  0  0  0  0
  159.4990  212.2490  155.6810 N   0  0  0  0  0  2  0  0  0  0  0  0
  160.7850  208.2250  155.8800 C   0  0  0  0  0  2  0  0  0  0  0  0
  160.9680  209.9340  154.4480 C   0  0  0  0  0  0  0  0  0  0  0  0
  158.8140  213.2940  156.2060 O   0  0  0  0  0  0  0  0  0  0  0  0
  155.3040  211.9620  153.8440 C   0  0  0  0  0  2  0  0  0  0  0  0
  156.8140  214.1940  155.2290 C   0  0  1  0  0  3  0  0  0  0  0  0
  157.4690  213.0110  155.9510 C   0  0  1  0  0  3  0  0  0  0  0  0
  157.3580  211.6860  155.1990 C   0  0  0  0  0  2  0  0  0  0  0  0
  157.3660  214.4530  153.8310 C   0  0  0  0  0  1  0  0  0  0  0  0
  155.2860  214.1290  155.2900 C   0  0  0  0  0  2  0  0  0  0  0  0
  154.6000  213.2700  154.2160 C   0  0  0  0  0  2  0  0  0  0  0  0
  155.9120  211.2430  155.0380 C   0  0  0  0  0  2  0  0  0  0  0  0
  161.9350  206.4440  154.4120 N   0  0  0  0  0  2  0  0  0  0  0  0
  161.7210  205.7460  153.1810 C   0  0  0  0  0  0  0  0  0  0  0  0
  161.3840  204.4340  150.7440 C   0  0  0  0  0  0  0  0  0  0  0  0
  162.6180  204.8300  151.1650 N   0  0  0  0  0  0  0  0  0  0  0  0
  160.4390  205.3700  152.7640 C   0  0  0  0  0  3  0  0  0  0  0  0
  162.8070  205.4750  152.3470 C   0  0  0  0  0  3  0  0  0  0  0  0
  160.2670  204.7090  151.5480 C   0  0  0  0  0  3  0  0  0  0  0  0
  160.9540  202.4090  146.9890 C   0  0  0  0  0  3  0  0  0  0  0  0
  161.3440  203.7510  147.0210 C   0  0  0  0  0  0  0  0  0  0  0  0
  160.7060  201.7230  148.1810 C   0  0  0  0  0  3  0  0  0  0  0  0
  160.8450  202.3810  149.4070 C   0  0  0  0  0  3  0  0  0  0  0  0
  161.2320  203.7300  149.4530 C   0  0  0  0  0  0  0  0  0  0  0  0
  161.4790  204.4090  148.2490 C   0  0  0  0  0  3  0  0  0  0  0  0
  162.1810  205.8530  146.0430 C   0  0  0  0  0  1  0  0  0  0  0  0
  161.5900  204.4870  145.7500 C   0  0  0  0  0  2  0  0  0  0  0  0
  162.1240  208.7670  152.4090 C   0  0  0  0  0  2  0  0  0  0  0  0
  161.3440  207.8630  150.1700 C   0  0  0  0  0  2  0  0  0  0  0  0
  161.7040  211.0520  149.5870 C   0  0  0  0  0  0  0  0  0  0  0  0
  162.3050  208.6630  149.2980 C   0  0  0  0  0  2  0  0  0  0  0  0
  162.4350  212.0860  149.2800 N   0  0  0  0  0  0  0  0  0  0  0  0
  161.6010  209.8590  148.6790 C   0  0  0  0  0  2  0  0  0  0  0  0
  160.1300  209.8560  151.2130 C   0  0  0  0  0  2  0  0  0  0  0  0
  160.9440  208.5790  151.4590 C   0  0  2  0  0  3  0  0  0  0  0  0
  160.9860  211.0880  150.9050 C   0  0  0  0  0  2  0  0  0  0  0  0
  162.8260  213.3230  147.1660 N   0  0  0  0  0  2  0  0  0  0  0  0
  163.2080  212.3000  148.0850 C   0  0  0  0  0  0  0  0  0  0  0  0
  164.2140  211.5890  147.8190 O   0  0  0  0  0  0  0  0  0  0  0  0
  161.7130  214.2230  147.4340 C   0  0  0  0  0  2  0  0  0  0  0  0
  160.3800  213.5820  147.0510 C   0  0  2  0  0  3  0  0  0  0  0  0
  160.6900  213.7560  144.6880 O   0  0  0  0  0  1  0  0  0  0  0  0
  159.8700  214.1640  145.7410 C   0  0  0  0  0  2  0  0  0  0  0  0
  159.3350  213.7480  148.1520 C   0  0  0  0  0  2  0  0  0  0  0  0
  158.0320  213.0560  147.7850 C   0  0  0  0  0  2  0  0  0  0  0  0
  157.2490  212.8820  148.9270 O   0  0  0  0  0  1  0  0  0  0  0  0
  1  4  1  0  0  0  0
  1  9  1  0  0  0  0
  2  9  1  0  0  0  0
  2  5  2  0  0  0  0
  3  8  1  0  0  0  0
  4  7  1  0  0  0  0
  5  8  1  0  0  0  0
  6  4  2  0  0  0  0
  7 10  1  0  0  0  0
  9  3  2  0  0  0  0
 11 17  1  0  0  0  0
 11 18  1  0  0  0  0
 12 15  1  6  0  0  0
 12 16  1  0  0  0  0
 12 13  1  0  0  0  0
 13 10  1  6  0  0  0
 14 13  1  0  0  0  0
 17 16  1  0  0  0  0
 18 14  1  0  0  0  0
 19  5  1  0  0  0  0
 20 19  1  0  0  0  0
 21 22  2  0  0  0  0
 21 25  1  0  0  0  0
 22 24  1  0  0  0  0
 23 20  1  0  0  0  0
 24 20  2  0  0  0  0
 25 23  2  0  0  0  0
 26 27  2  0  0  0  0
 26 28  1  0  0  0  0
 27 31  1  0  0  0  0
 28 29  2  0  0  0  0
 29 30  1  0  0  0  0
 30 21  1  0  0  0  0
 31 30  2  0  0  0  0
 33 32  1  0  0  0  0
 33 27  1  0  0  0  0
 34  2  1  0  0  0  0
 35 41  1  0  0  0  0
 36 42  1  0  0  0  0
 37 35  1  0  0  0  0
 38 36  2  0  0  0  0
 39 37  1  0  0  0  0
 39 36  1  0  0  0  0
 40 41  1  0  0  0  0
 41 34  1  6  0  0  0
 42 40  1  0  0  0  0
 43 46  1  0  0  0  0
 43 44  1  0  0  0  0
 44 38  1  0  0  0  0
 45 44  2  0  0  0  0
 47 49  1  6  0  0  0
 47 46  1  0  0  0  0
 47 50  1  0  0  0  0
 48 49  1  0  0  0  0
 51 50  1  0  0  0  0
 51 52  1  0  0  0  0
M  END
>  <MODEL>
8

>  <REMARK>
 VINA RESULT:      -3.2      3.360      9.607
  Name = 
  14 active torsions:
  status: ('A' for Active; 'I' for Inactive)
    1  A    between atoms: C_2  and  C_49
    2  A    between atoms: O_4  and  C_19
    3  A    between atoms: O_4  and  N_23
    4  A    between atoms: N_5  and  C_39
    5  A    between atoms: N_6  and  C_9
    6  A    between atoms: N_6  and  C_18
    7  A    between atoms: C_10  and  C_24
    8  A    between atoms: C_10  and  C_33
    9  A    between atoms: C_14  and  C_44
   10  A    between atoms: C_17  and  C_22
   11  A    between atoms: C_24  and  C_39
   12  A    between atoms: C_24  and  C_50
   13  A    between atoms: N_28  and  C_29
   14  A    between atoms: C_41  and  C_49
                            x       y       z     vdW  Elec       q    Type
                         _______ _______ _______ _____ _____    ______ ____

>  <TORSDO>
F 14

$$$$
=
 OpenBabel11042420523D

 52 56  0  0  1  0  0  0  0  0999 V2000
  160.4200  211.7230  145.0240 N   0  0  0  0  0  2  0  0  0  0  0  0
  160.8320  212.2470  147.4780 C   0  0  0  0  0  0  0  0  0  0  0  0
  160.0420  213.8530  146.0720 N   0  0  0  0  0  0  0  0  0  0  0  0
  159.9960  212.0410  143.6950 C   0  0  0  0  0  0  0  0  0  0  0  0
  160.6930  213.3330  148.2290 C   0  0  0  0  0  0  0  0  0  0  0  0
  160.0480  211.1520  142.8040 O   0  0  0  0  0  0  0  0  0  0  0  0
  159.5210  213.3480  143.3660 N   0  0  0  0  0  2  0  0  0  0  0  0
  160.1530  214.4510  147.3990 C   0  0  0  0  0  2  0  0  0  0  0  0
  160.4200  212.6200  146.1410 C   0  0  0  0  0  0  0  0  0  0  0  0
  159.0890  213.6480  142.1170 O   0  0  0  0  0  0  0  0  0  0  0  0
  161.6470  212.9190  138.5670 C   0  0  0  0  0  2  0  0  0  0  0  0
  159.1010  212.3390  140.1030 C   0  0  1  0  0  3  0  0  0  0  0  0
  159.9210  212.9220  141.2600 C   0  0  1  0  0  3  0  0  0  0  0  0
  161.0870  213.8020  140.8130 C   0  0  0  0  0  2  0  0  0  0  0  0
  158.5060  213.3890  139.1720 C   0  0  0  0  0  1  0  0  0  0  0  0
  159.8480  211.2180  139.3780 C   0  0  0  0  0  2  0  0  0  0  0  0
  160.8290  211.6570  138.2800 C   0  0  0  0  0  2  0  0  0  0  0  0
  162.1150  213.0190  140.0110 C   0  0  0  0  0  2  0  0  0  0  0  0
  160.7970  213.3890  149.6590 N   0  0  0  0  0  2  0  0  0  0  0  0
  159.7020  213.5100  150.5740 C   0  0  0  0  0  0  0  0  0  0  0  0
  157.5450  213.8320  152.3100 C   0  0  0  0  0  0  0  0  0  0  0  0
  157.5040  214.3220  151.0380 N   0  0  0  0  0  0  0  0  0  0  0  0
  159.7800  213.0150  151.8810 C   0  0  0  0  0  3  0  0  0  0  0  0
  158.5450  214.1810  150.1750 C   0  0  0  0  0  3  0  0  0  0  0  0
  158.7000  213.1700  152.7500 C   0  0  0  0  0  3  0  0  0  0  0  0
  154.1890  214.3380  154.9310 C   0  0  0  0  0  3  0  0  0  0  0  0
  155.4560  214.0700  155.4580 C   0  0  0  0  0  0  0  0  0  0  0  0
  154.0140  214.4440  153.5490 C   0  0  0  0  0  3  0  0  0  0  0  0
  155.1050  214.2800  152.6920 C   0  0  0  0  0  3  0  0  0  0  0  0
  156.3830  214.0060  153.2080 C   0  0  0  0  0  0  0  0  0  0  0  0
  156.5470  213.9020  154.5990 C   0  0  0  0  0  3  0  0  0  0  0  0
  156.2810  212.6020  157.2590 C   0  0  0  0  0  1  0  0  0  0  0  0
  155.6390  213.9370  156.9300 C   0  0  0  0  0  2  0  0  0  0  0  0
  161.0920  210.8520  147.9510 C   0  0  0  0  0  2  0  0  0  0  0  0
  163.3440  209.6950  148.1270 C   0  0  0  0  0  2  0  0  0  0  0  0
  161.5950  208.2530  150.4720 C   0  0  0  0  0  0  0  0  0  0  0  0
  162.8140  208.2780  148.3110 C   0  0  0  0  0  2  0  0  0  0  0  0
  160.7400  207.3570  150.8770 N   0  0  0  0  0  0  0  0  0  0  0  0
  162.8700  207.8700  149.7740 C   0  0  0  0  0  2  0  0  0  0  0  0
  162.2830  210.7060  150.2210 C   0  0  0  0  0  2  0  0  0  0  0  0
  162.4230  210.7740  148.6950 C   0  0  2  0  0  3  0  0  0  0  0  0
  161.2410  209.6930  150.7030 C   0  0  0  0  0  2  0  0  0  0  0  0
  160.7380  205.2890  149.5100 N   0  0  0  0  0  2  0  0  0  0  0  0
  160.8470  205.9250  150.7820 C   0  0  0  0  0  0  0  0  0  0  0  0
  161.0200  205.2110  151.8060 O   0  0  0  0  0  0  0  0  0  0  0  0
  160.5980  206.0510  148.2760 C   0  0  0  0  0  2  0  0  0  0  0  0
  161.4110  205.4220  147.1450 C   0  0  2  0  0  3  0  0  0  0  0  0
  159.7770  206.1530  145.5620 O   0  0  0  0  0  1  0  0  0  0  0  0
  161.1450  206.1480  145.8360 C   0  0  0  0  0  2  0  0  0  0  0  0
  161.1150  203.9300  146.9980 C   0  0  0  0  0  2  0  0  0  0  0  0
  161.7760  203.3570  145.7540 C   0  0  0  0  0  2  0  0  0  0  0  0
  160.8050  202.8280  144.9030 O   0  0  0  0  0  1  0  0  0  0  0  0
  1  9  1  0  0  0  0
  2 34  1  0  0  0  0
  2  5  2  0  0  0  0
  3  9  2  0  0  0  0
  3  8  1  0  0  0  0
  4  1  1  0  0  0  0
  5 19  1  0  0  0  0
  6  4  2  0  0  0  0
  7  4  1  0  0  0  0
  8  5  1  0  0  0  0
  9  2  1  0  0  0  0
 10  7  1  0  0  0  0
 11 18  1  0  0  0  0
 12 15  1  6  0  0  0
 12 13  1  0  0  0  0
 13 10  1  1  0  0  0
 14 13  1  0  0  0  0
 16 12  1  0  0  0  0
 17 11  1  0  0  0  0
 17 16  1  0  0  0  0
 18 14  1  0  0  0  0
 19 20  1  0  0  0  0
 20 23  1  0  0  0  0
 21 25  1  0  0  0  0
 21 30  1  0  0  0  0
 22 21  2  0  0  0  0
 23 25  2  0  0  0  0
 24 20  2  0  0  0  0
 24 22  1  0  0  0  0
 26 27  1  0  0  0  0
 27 33  1  0  0  0  0
 28 26  2  0  0  0  0
 29 30  2  0  0  0  0
 29 28  1  0  0  0  0
 30 31  1  0  0  0  0
 31 27  2  0  0  0  0
 33 32  1  0  0  0  0
 35 37  1  0  0  0  0
 35 41  1  0  0  0  0
 36 42  1  0  0  0  0
 36 38  2  0  0  0  0
 37 39  1  0  0  0  0
 39 36  1  0  0  0  0
 40 42  1  0  0  0  0
 41 34  1  6  0  0  0
 41 40  1  0  0  0  0
 43 44  1  0  0  0  0
 44 38  1  0  0  0  0
 44 45  2  0  0  0  0
 46 43  1  0  0  0  0
 47 49  1  6  0  0  0
 47 46  1  0  0  0  0
 48 49  1  0  0  0  0
 50 47  1  0  0  0  0
 51 50  1  0  0  0  0
 52 51  1  0  0  0  0
M  END
>  <MODEL>
9

>  <REMARK>
 VINA RESULT:      -3.0      2.501      8.382
  Name = 
  14 active torsions:
  status: ('A' for Active; 'I' for Inactive)
    1  A    between atoms: C_2  and  C_49
    2  A    between atoms: O_4  and  C_19
    3  A    between atoms: O_4  and  N_23
    4  A    between atoms: N_5  and  C_39
    5  A    between atoms: N_6  and  C_9
    6  A    between atoms: N_6  and  C_18
    7  A    between atoms: C_10  and  C_24
    8  A    between atoms: C_10  and  C_33
    9  A    between atoms: C_14  and  C_44
   10  A    between atoms: C_17  and  C_22
   11  A    between atoms: C_24  and  C_39
   12  A    between atoms: C_24  and  C_50
   13  A    between atoms: N_28  and  C_29
   14  A    between atoms: C_41  and  C_49
                            x       y       z     vdW  Elec       q    Type
                         _______ _______ _______ _____ _____    ______ ____

>  <TORSDO>
F 14

$$$$
