=
 OpenBabel11052410143D

 25 27  0  0  1  0  0  0  0  0999 V2000
  161.8490  207.8910  150.1640 C   0  0  0  0  0  0  0  0  0  0  0  0
  161.5630  206.6730  151.9510 C   0  0  0  0  0  0  0  0  0  0  0  0
  161.8280  209.6390  153.9900 O   0  0  0  0  0  0  0  0  0  0  0  0
  162.0910  209.8200  148.8210 N   0  0  0  0  0  2  0  0  0  0  0  0
  161.7370  206.5750  150.5660 C   0  0  0  0  0  3  0  0  0  0  0  0
  161.4110  208.4820  153.7140 C   0  0  0  0  0  0  0  0  0  0  0  0
  162.1260  207.7460  147.8750 O   0  0  0  0  0  0  0  0  0  0  0  0
  161.8030  210.0450  151.1680 N   0  0  0  0  0  0  0  0  0  0  0  0
  161.5610  207.9680  152.3760 N   0  0  0  0  0  0  0  0  0  0  0  0
  161.9800  210.6070  149.9350 C   0  0  0  0  0  3  0  0  0  0  0  0
  161.7460  208.6920  151.2590 C   0  0  0  0  0  0  0  0  0  0  0  0
  162.0280  208.4590  148.9080 C   0  0  0  0  0  0  0  0  0  0  0  0
  160.7660  207.6550  154.7980 C   0  0  1  0  0  3  0  0  0  0  0  0
  161.3460  207.9830  156.1130 N   0  0  0  0  0  2  0  0  0  0  0  0
  159.9750  208.4110  155.7990 C   0  0  1  0  0  3  0  0  0  0  0  0
  159.9420  209.9290  155.6280 C   0  0  1  0  0  3  0  0  0  0  0  0
  158.5650  210.3720  155.4960 N   0  0  0  0  0  1  0  0  0  0  0  0
  160.5210  210.5420  156.7410 O   0  0  0  0  0  0  0  0  0  0  0  0
  160.5530  211.9000  156.4230 C   0  0  0  0  0  1  0  0  0  0  0  0
  161.4160  205.4810  152.8370 C   0  0  0  0  0  2  0  0  0  0  0  0
  160.5150  204.4560  152.1780 C   0  0  0  0  0  2  0  0  0  0  0  0
  161.3670  203.3900  151.5040 C   0  0  0  0  0  2  0  0  0  0  0  0
  160.6810  202.7830  150.2820 C   0  0  0  0  0  3  0  0  0  0  0  0
  161.0520  203.5210  149.0080 C   0  0  0  0  0  1  0  0  0  0  0  0
  160.9890  201.3030  150.1450 C   0  0  0  0  0  1  0  0  0  0  0  0
  1  5  1  0  0  0  0
  1 11  2  0  0  0  0
  2  9  1  0  0  0  0
  2 20  1  0  0  0  0
  4 12  1  0  0  0  0
  4 10  1  0  0  0  0
  5  2  2  0  0  0  0
  6  3  2  0  0  0  0
  7 12  2  0  0  0  0
  8 11  1  0  0  0  0
  9  6  1  0  0  0  0
 10  8  2  0  0  0  0
 11  9  1  0  0  0  0
 12  1  1  0  0  0  0
 13  6  1  6  0  0  0
 13 15  1  0  0  0  0
 13 14  1  0  0  0  0
 15 16  1  6  0  0  0
 15 14  1  0  0  0  0
 16 17  1  1  0  0  0
 16 18  1  0  0  0  0
 19 18  1  0  0  0  0
 21 20  1  0  0  0  0
 22 21  1  0  0  0  0
 23 22  1  0  0  0  0
 24 23  1  0  0  0  0
 25 23  1  0  0  0  0
M  END
>  <MODEL>
1

>  <REMARK>
 VINA RESULT:      -7.1      0.000      0.000
  Name = 
  7 active torsions:
  status: ('A' for Active; 'I' for Inactive)
    1  A    between atoms: C_2  and  C_3
    2  A    between atoms: C_2  and  C_5
    3  A    between atoms: C_3  and  C_20
    4  A    between atoms: C_4  and  C_20
    5  A    between atoms: C_7  and  C_13
    6  A    between atoms: O_10  and  C_16
    7  A    between atoms: C_16  and  C_22
                            x       y       z     vdW  Elec       q    Type
                         _______ _______ _______ _____ _____    ______ ____

>  <TORSDO>
F 7

$$$$
=
 OpenBabel11052410143D

 25 27  0  0  1  0  0  0  0  0999 V2000
  160.9010  203.9340  149.8600 C   0  0  0  0  0  0  0  0  0  0  0  0
  161.2390  205.9770  149.1740 C   0  0  0  0  0  0  0  0  0  0  0  0
  161.5340  207.0570  152.6050 O   0  0  0  0  0  0  0  0  0  0  0  0
  160.7340  202.1000  151.3400 N   0  0  0  0  0  2  0  0  0  0  0  0
  160.9050  204.6990  148.7110 C   0  0  0  0  0  3  0  0  0  0  0  0
  161.7850  207.1080  151.3710 C   0  0  0  0  0  0  0  0  0  0  0  0
  160.3630  201.8160  149.1090 O   0  0  0  0  0  0  0  0  0  0  0  0
  161.2990  204.2480  152.1820 N   0  0  0  0  0  0  0  0  0  0  0  0
  161.4340  205.9970  150.5230 N   0  0  0  0  0  0  0  0  0  0  0  0
  161.0540  202.9190  152.3890 C   0  0  0  0  0  3  0  0  0  0  0  0
  161.2120  204.7310  150.9170 C   0  0  0  0  0  0  0  0  0  0  0  0
  160.6520  202.5820  150.0660 C   0  0  0  0  0  0  0  0  0  0  0  0
  162.4460  208.3410  150.8060 C   0  0  1  0  0  3  0  0  0  0  0  0
  161.4330  209.2930  150.3170 N   0  0  0  0  0  2  0  0  0  0  0  0
  162.1880  209.6030  151.5400 C   0  0  1  0  0  3  0  0  0  0  0  0
  161.2590  209.5040  152.7510 C   0  0  1  0  0  3  0  0  0  0  0  0
  161.8550  210.2020  153.8760 N   0  0  0  0  0  1  0  0  0  0  0  0
  160.0250  210.0810  152.4470 O   0  0  0  0  0  0  0  0  0  0  0  0
  160.1220  211.3940  152.9070 C   0  0  0  0  0  1  0  0  0  0  0  0
  161.3460  207.1640  148.2760 C   0  0  0  0  0  2  0  0  0  0  0  0
  162.1330  206.8020  147.0330 C   0  0  0  0  0  2  0  0  0  0  0  0
  161.1880  206.2520  145.9740 C   0  0  0  0  0  2  0  0  0  0  0  0
  161.8270  205.1440  145.1410 C   0  0  0  0  0  3  0  0  0  0  0  0
  163.1390  204.6760  145.7460 C   0  0  0  0  0  1  0  0  0  0  0  0
  160.8830  203.9700  144.9530 C   0  0  0  0  0  1  0  0  0  0  0  0
  1 12  1  0  0  0  0
  1 11  2  0  0  0  0
  2  9  1  0  0  0  0
  4 10  1  0  0  0  0
  5  2  2  0  0  0  0
  5  1  1  0  0  0  0
  6  3  2  0  0  0  0
  7 12  2  0  0  0  0
  8 10  2  0  0  0  0
  9 11  1  0  0  0  0
  9  6  1  0  0  0  0
 11  8  1  0  0  0  0
 12  4  1  0  0  0  0
 13  6  1  1  0  0  0
 13 15  1  0  0  0  0
 14 13  1  0  0  0  0
 14 15  1  0  0  0  0
 15 16  1  1  0  0  0
 16 17  1  1  0  0  0
 18 16  1  0  0  0  0
 18 19  1  0  0  0  0
 20  2  1  0  0  0  0
 21 20  1  0  0  0  0
 22 21  1  0  0  0  0
 23 24  1  0  0  0  0
 23 22  1  0  0  0  0
 25 23  1  0  0  0  0
M  END
>  <MODEL>
2

>  <REMARK>
 VINA RESULT:      -6.8      2.947      5.034
  Name = 
  7 active torsions:
  status: ('A' for Active; 'I' for Inactive)
    1  A    between atoms: C_2  and  C_3
    2  A    between atoms: C_2  and  C_5
    3  A    between atoms: C_3  and  C_20
    4  A    between atoms: C_4  and  C_20
    5  A    between atoms: C_7  and  C_13
    6  A    between atoms: O_10  and  C_16
    7  A    between atoms: C_16  and  C_22
                            x       y       z     vdW  Elec       q    Type
                         _______ _______ _______ _____ _____    ______ ____

>  <TORSDO>
F 7

$$$$
=
 OpenBabel11052410143D

 25 27  0  0  1  0  0  0  0  0999 V2000
  161.1550  205.0040  149.6670 C   0  0  0  0  0  0  0  0  0  0  0  0
  161.2720  206.6220  151.1260 C   0  0  0  0  0  0  0  0  0  0  0  0
  162.5850  208.8040  148.5690 O   0  0  0  0  0  0  0  0  0  0  0  0
  161.2380  203.9030  147.5790 N   0  0  0  0  0  2  0  0  0  0  0  0
  160.9870  205.2560  151.0150 C   0  0  0  0  0  3  0  0  0  0  0  0
  161.9410  208.5430  149.6210 C   0  0  0  0  0  0  0  0  0  0  0  0
  160.6770  202.7530  149.4650 O   0  0  0  0  0  0  0  0  0  0  0  0
  161.7360  206.2220  147.7110 N   0  0  0  0  0  0  0  0  0  0  0  0
  161.5890  207.1780  149.9230 N   0  0  0  0  0  0  0  0  0  0  0  0
  161.5960  205.0780  146.9750 C   0  0  0  0  0  3  0  0  0  0  0  0
  161.5160  206.1600  149.0490 C   0  0  0  0  0  0  0  0  0  0  0  0
  161.0110  203.8390  148.9230 C   0  0  0  0  0  0  0  0  0  0  0  0
  161.5570  209.6700  150.5460 C   0  0  1  0  0  3  0  0  0  0  0  0
  162.7120  210.5500  150.7980 N   0  0  0  0  0  2  0  0  0  0  0  0
  161.6040  211.0300  149.9580 C   0  0  1  0  0  3  0  0  0  0  0  0
  162.0690  211.1230  148.5050 C   0  0  1  0  0  3  0  0  0  0  0  0
  161.0000  211.6680  147.6880 N   0  0  0  0  0  1  0  0  0  0  0  0
  163.1880  211.9540  148.4200 O   0  0  0  0  0  0  0  0  0  0  0  0
  162.8110  212.9700  147.5410 C   0  0  0  0  0  1  0  0  0  0  0  0
  161.2400  207.3540  152.4260 C   0  0  0  0  0  2  0  0  0  0  0  0
  161.2580  206.3670  153.5760 C   0  0  0  0  0  2  0  0  0  0  0  0
  160.5170  206.9590  154.7660 C   0  0  0  0  0  2  0  0  0  0  0  0
  161.1030  208.2970  155.2110 C   0  0  0  0  0  3  0  0  0  0  0  0
  160.0430  209.3840  155.2540 C   0  0  0  0  0  1  0  0  0  0  0  0
  161.8000  208.1840  156.5550 C   0  0  0  0  0  1  0  0  0  0  0  0
  1  5  1  0  0  0  0
  2 20  1  0  0  0  0
  3  6  2  0  0  0  0
  4 12  1  0  0  0  0
  5  2  2  0  0  0  0
  6  9  1  0  0  0  0
  8 11  1  0  0  0  0
  9  2  1  0  0  0  0
 10  4  1  0  0  0  0
 10  8  2  0  0  0  0
 11  1  2  0  0  0  0
 11  9  1  0  0  0  0
 12  7  2  0  0  0  0
 12  1  1  0  0  0  0
 13  6  1  6  0  0  0
 13 14  1  0  0  0  0
 15 16  1  6  0  0  0
 15 13  1  0  0  0  0
 15 14  1  0  0  0  0
 16 17  1  6  0  0  0
 18 16  1  0  0  0  0
 19 18  1  0  0  0  0
 20 21  1  0  0  0  0
 21 22  1  0  0  0  0
 22 23  1  0  0  0  0
 23 24  1  0  0  0  0
 23 25  1  0  0  0  0
M  END
>  <MODEL>
3

>  <REMARK>
 VINA RESULT:      -6.5      3.038      5.924
  Name = 
  7 active torsions:
  status: ('A' for Active; 'I' for Inactive)
    1  A    between atoms: C_2  and  C_3
    2  A    between atoms: C_2  and  C_5
    3  A    between atoms: C_3  and  C_20
    4  A    between atoms: C_4  and  C_20
    5  A    between atoms: C_7  and  C_13
    6  A    between atoms: O_10  and  C_16
    7  A    between atoms: C_16  and  C_22
                            x       y       z     vdW  Elec       q    Type
                         _______ _______ _______ _____ _____    ______ ____

>  <TORSDO>
F 7

$$$$
=
 OpenBabel11052410143D

 25 27  0  0  1  0  0  0  0  0999 V2000
  161.2710  207.5560  151.9470 C   0  0  0  0  0  0  0  0  0  0  0  0
  160.9610  205.6230  150.9830 C   0  0  0  0  0  0  0  0  0  0  0  0
  161.8280  207.0940  147.8030 O   0  0  0  0  0  0  0  0  0  0  0  0
  161.8880  209.8220  152.2050 N   0  0  0  0  0  0  0  0  0  0  0  0
  160.8230  206.2770  152.2130 C   0  0  0  0  0  3  0  0  0  0  0  0
  161.7530  206.1530  148.6390 C   0  0  0  0  0  0  0  0  0  0  0  0
  161.0600  208.6460  153.9730 O   0  0  0  0  0  0  0  0  0  0  0  0
  162.1390  208.7640  150.0930 N   0  0  0  0  0  2  0  0  0  0  0  0
  161.4670  206.4450  150.0210 N   0  0  0  0  0  0  0  0  0  0  0  0
  162.2590  209.8690  150.8880 C   0  0  0  0  0  3  0  0  0  0  0  0
  161.6400  207.6260  150.6400 C   0  0  0  0  0  0  0  0  0  0  0  0
  161.3920  208.6770  152.7590 C   0  0  0  0  0  0  0  0  0  0  0  0
  161.9600  204.7350  148.1690 C   0  0  1  0  0  3  0  0  0  0  0  0
  160.7500  204.2310  147.4960 N   0  0  0  0  0  2  0  0  0  0  0  0
  161.9480  204.5360  146.7000 C   0  0  1  0  0  3  0  0  0  0  0  0
  161.6930  205.7810  145.8510 C   0  0  1  0  0  3  0  0  0  0  0  0
  162.7160  205.8860  144.8250 N   0  0  0  0  0  1  0  0  0  0  0  0
  160.4370  205.6900  145.2460 O   0  0  0  0  0  0  0  0  0  0  0  0
  160.6170  204.8040  144.1830 C   0  0  0  0  0  1  0  0  0  0  0  0
  160.5740  204.1970  150.7740 C   0  0  0  0  0  2  0  0  0  0  0  0
  161.4520  203.2950  151.6180 C   0  0  0  0  0  2  0  0  0  0  0  0
  161.2860  201.8530  151.1630 C   0  0  0  0  0  2  0  0  0  0  0  0
  160.6250  201.7470  149.7910 C   0  0  0  0  0  3  0  0  0  0  0  0
  161.4770  200.9470  148.8210 C   0  0  0  0  0  1  0  0  0  0  0  0
  159.2310  201.1520  149.8850 C   0  0  0  0  0  1  0  0  0  0  0  0
  1  5  1  0  0  0  0
  1 12  1  0  0  0  0
  2  5  2  0  0  0  0
  3  6  2  0  0  0  0
  4 12  1  0  0  0  0
  6  9  1  0  0  0  0
  8 11  1  0  0  0  0
  8 10  1  0  0  0  0
  9 11  1  0  0  0  0
  9  2  1  0  0  0  0
 10  4  2  0  0  0  0
 11  1  2  0  0  0  0
 12  7  2  0  0  0  0
 13  6  1  6  0  0  0
 14 13  1  0  0  0  0
 15 16  1  6  0  0  0
 15 14  1  0  0  0  0
 15 13  1  0  0  0  0
 16 17  1  6  0  0  0
 18 16  1  0  0  0  0
 19 18  1  0  0  0  0
 20  2  1  0  0  0  0
 20 21  1  0  0  0  0
 22 21  1  0  0  0  0
 23 25  1  0  0  0  0
 23 22  1  0  0  0  0
 24 23  1  0  0  0  0
M  END
>  <MODEL>
4

>  <REMARK>
 VINA RESULT:      -6.3      2.563      6.498
  Name = 
  7 active torsions:
  status: ('A' for Active; 'I' for Inactive)
    1  A    between atoms: C_2  and  C_3
    2  A    between atoms: C_2  and  C_5
    3  A    between atoms: C_3  and  C_20
    4  A    between atoms: C_4  and  C_20
    5  A    between atoms: C_7  and  C_13
    6  A    between atoms: O_10  and  C_16
    7  A    between atoms: C_16  and  C_22
                            x       y       z     vdW  Elec       q    Type
                         _______ _______ _______ _____ _____    ______ ____

>  <TORSDO>
F 7

$$$$
=
 OpenBabel11052410143D

 25 27  0  0  1  0  0  0  0  0999 V2000
  160.9530  207.9090  154.2190 C   0  0  0  0  0  0  0  0  0  0  0  0
  161.1540  207.1580  152.1800 C   0  0  0  0  0  0  0  0  0  0  0  0
  161.5560  210.5430  150.9950 O   0  0  0  0  0  0  0  0  0  0  0  0
  160.9500  209.4390  156.0190 N   0  0  0  0  0  0  0  0  0  0  0  0
  160.8650  206.7420  153.4850 C   0  0  0  0  0  3  0  0  0  0  0  0
  161.7460  209.2970  150.9650 C   0  0  0  0  0  0  0  0  0  0  0  0
  160.4890  207.2370  156.3800 O   0  0  0  0  0  0  0  0  0  0  0  0
  161.4430  210.2010  153.8230 N   0  0  0  0  0  2  0  0  0  0  0  0
  161.4110  208.4940  152.1150 N   0  0  0  0  0  0  0  0  0  0  0  0
  161.2770  210.4510  155.1560 C   0  0  0  0  0  3  0  0  0  0  0  0
  161.2730  208.9300  153.3790 C   0  0  0  0  0  0  0  0  0  0  0  0
  160.7840  208.1600  155.5760 C   0  0  0  0  0  0  0  0  0  0  0  0
  162.3150  208.6710  149.7170 C   0  0  1  0  0  3  0  0  0  0  0  0
  161.3130  208.6650  148.6360 N   0  0  0  0  0  2  0  0  0  0  0  0
  162.4630  209.5760  148.5520 C   0  0  1  0  0  3  0  0  0  0  0  0
  161.9880  211.0160  148.7500 C   0  0  1  0  0  3  0  0  0  0  0  0
  163.0750  211.9310  148.4500 N   0  0  0  0  0  1  0  0  0  0  0  0
  160.9120  211.2790  147.9000 O   0  0  0  0  0  0  0  0  0  0  0  0
  161.2910  212.4160  147.1860 C   0  0  0  0  0  1  0  0  0  0  0  0
  161.1580  206.2260  151.0140 C   0  0  0  0  0  2  0  0  0  0  0  0
  161.4810  204.8200  151.4770 C   0  0  0  0  0  2  0  0  0  0  0  0
  160.4480  203.8510  150.9200 C   0  0  0  0  0  2  0  0  0  0  0  0
  161.0350  202.9150  149.8670 C   0  0  0  0  0  3  0  0  0  0  0  0
  160.1950  201.6610  149.7040 C   0  0  0  0  0  1  0  0  0  0  0  0
  161.2080  203.6140  148.5300 C   0  0  0  0  0  1  0  0  0  0  0  0
  1 12  1  0  0  0  0
  2  5  2  0  0  0  0
  5  1  1  0  0  0  0
  6  3  2  0  0  0  0
  6  9  1  0  0  0  0
  8 10  1  0  0  0  0
  9  2  1  0  0  0  0
  9 11  1  0  0  0  0
 10  4  2  0  0  0  0
 11  8  1  0  0  0  0
 11  1  2  0  0  0  0
 12  4  1  0  0  0  0
 12  7  2  0  0  0  0
 13  6  1  1  0  0  0
 14 13  1  0  0  0  0
 15 14  1  0  0  0  0
 15 16  1  1  0  0  0
 15 13  1  0  0  0  0
 16 17  1  6  0  0  0
 18 16  1  0  0  0  0
 19 18  1  0  0  0  0
 20 21  1  0  0  0  0
 20  2  1  0  0  0  0
 22 21  1  0  0  0  0
 23 22  1  0  0  0  0
 24 23  1  0  0  0  0
 25 23  1  0  0  0  0
M  END
>  <MODEL>
5

>  <REMARK>
 VINA RESULT:      -6.3      1.784      5.350
  Name = 
  7 active torsions:
  status: ('A' for Active; 'I' for Inactive)
    1  A    between atoms: C_2  and  C_3
    2  A    between atoms: C_2  and  C_5
    3  A    between atoms: C_3  and  C_20
    4  A    between atoms: C_4  and  C_20
    5  A    between atoms: C_7  and  C_13
    6  A    between atoms: O_10  and  C_16
    7  A    between atoms: C_16  and  C_22
                            x       y       z     vdW  Elec       q    Type
                         _______ _______ _______ _____ _____    ______ ____

>  <TORSDO>
F 7

$$$$
=
 OpenBabel11052410143D

 25 27  0  0  1  0  0  0  0  0999 V2000
  162.1230  208.6220  150.5990 C   0  0  0  0  0  0  0  0  0  0  0  0
  161.8350  206.4940  150.9820 C   0  0  0  0  0  0  0  0  0  0  0  0
  160.3570  206.1270  147.7090 O   0  0  0  0  0  0  0  0  0  0  0  0
  162.1720  210.6670  149.4170 N   0  0  0  0  0  0  0  0  0  0  0  0
  162.2480  207.6790  151.6000 C   0  0  0  0  0  3  0  0  0  0  0  0
  161.0090  205.7320  148.7140 C   0  0  0  0  0  0  0  0  0  0  0  0
  162.8130  210.5850  151.6020 O   0  0  0  0  0  0  0  0  0  0  0  0
  161.4570  208.6860  148.3180 N   0  0  0  0  0  2  0  0  0  0  0  0
  161.4840  206.6920  149.6800 N   0  0  0  0  0  0  0  0  0  0  0  0
  161.7130  210.0280  148.2960 C   0  0  0  0  0  3  0  0  0  0  0  0
  161.6630  208.0080  149.4760 C   0  0  0  0  0  0  0  0  0  0  0  0
  162.3860  209.9870  150.5800 C   0  0  0  0  0  0  0  0  0  0  0  0
  161.2730  204.2580  148.8870 C   0  0  1  0  0  3  0  0  0  0  0  0
  160.4510  203.4710  147.9490 N   0  0  0  0  0  2  0  0  0  0  0  0
  161.9010  203.5770  147.7290 C   0  0  1  0  0  3  0  0  0  0  0  0
  162.1690  204.4430  146.4980 C   0  0  1  0  0  3  0  0  0  0  0  0
  163.5950  204.6890  146.3790 N   0  0  0  0  0  1  0  0  0  0  0  0
  161.7140  203.7880  145.3530 O   0  0  0  0  0  0  0  0  0  0  0  0
  161.0540  204.7730  144.6170 C   0  0  0  0  0  1  0  0  0  0  0  0
  161.7800  205.1830  151.6940 C   0  0  0  0  0  2  0  0  0  0  0  0
  160.8390  205.2780  152.8780 C   0  0  0  0  0  2  0  0  0  0  0  0
  161.4710  206.1350  153.9640 C   0  0  0  0  0  2  0  0  0  0  0  0
  160.4810  207.1200  154.5800 C   0  0  0  0  0  3  0  0  0  0  0  0
  160.3870  206.9500  156.0860 C   0  0  0  0  0  1  0  0  0  0  0  0
  160.8290  208.5560  154.2300 C   0  0  0  0  0  1  0  0  0  0  0  0
  1  5  1  0  0  0  0
  2  5  2  0  0  0  0
  2 20  1  0  0  0  0
  3  6  2  0  0  0  0
  4 12  1  0  0  0  0
  6  9  1  0  0  0  0
  8 11  1  0  0  0  0
  9  2  1  0  0  0  0
 10  8  1  0  0  0  0
 10  4  2  0  0  0  0
 11  9  1  0  0  0  0
 11  1  2  0  0  0  0
 12  1  1  0  0  0  0
 12  7  2  0  0  0  0
 13  6  1  6  0  0  0
 14 13  1  0  0  0  0
 15 16  1  6  0  0  0
 15 14  1  0  0  0  0
 15 13  1  0  0  0  0
 16 17  1  6  0  0  0
 18 16  1  0  0  0  0
 19 18  1  0  0  0  0
 20 21  1  0  0  0  0
 21 22  1  0  0  0  0
 22 23  1  0  0  0  0
 23 24  1  0  0  0  0
 25 23  1  0  0  0  0
M  END
>  <MODEL>
6

>  <REMARK>
 VINA RESULT:      -6.2      2.831      6.882
  Name = 
  7 active torsions:
  status: ('A' for Active; 'I' for Inactive)
    1  A    between atoms: C_2  and  C_3
    2  A    between atoms: C_2  and  C_5
    3  A    between atoms: C_3  and  C_20
    4  A    between atoms: C_4  and  C_20
    5  A    between atoms: C_7  and  C_13
    6  A    between atoms: O_10  and  C_16
    7  A    between atoms: C_16  and  C_22
                            x       y       z     vdW  Elec       q    Type
                         _______ _______ _______ _____ _____    ______ ____

>  <TORSDO>
F 7

$$$$
=
 OpenBabel11052410143D

 25 27  0  0  1  0  0  0  0  0999 V2000
  161.0720  205.8330  150.6370 C   0  0  0  0  0  0  0  0  0  0  0  0
  161.3880  206.5710  152.6660 C   0  0  0  0  0  0  0  0  0  0  0  0
  162.3200  209.7900  151.3270 O   0  0  0  0  0  0  0  0  0  0  0  0
  160.8640  205.8600  148.2840 N   0  0  0  0  0  2  0  0  0  0  0  0
  161.0960  205.4040  151.9500 C   0  0  0  0  0  3  0  0  0  0  0  0
  161.8310  209.0170  152.1950 C   0  0  0  0  0  0  0  0  0  0  0  0
  160.5790  203.9180  149.4430 O   0  0  0  0  0  0  0  0  0  0  0  0
  161.3670  207.8690  149.4480 N   0  0  0  0  0  0  0  0  0  0  0  0
  161.5300  207.6510  151.8470 N   0  0  0  0  0  0  0  0  0  0  0  0
  161.1290  207.2030  148.2780 C   0  0  0  0  0  3  0  0  0  0  0  0
  161.3390  207.1660  150.6090 C   0  0  0  0  0  0  0  0  0  0  0  0
  160.8290  205.1520  149.4500 C   0  0  0  0  0  0  0  0  0  0  0  0
  161.5770  209.5420  153.5860 C   0  0  1  0  0  3  0  0  0  0  0  0
  161.9450  210.9660  153.6780 N   0  0  0  0  0  2  0  0  0  0  0  0
  160.5260  210.5810  153.7010 C   0  0  1  0  0  3  0  0  0  0  0  0
  159.8600  211.0150  152.3950 C   0  0  1  0  0  3  0  0  0  0  0  0
  158.4440  211.2420  152.6260 N   0  0  0  0  0  1  0  0  0  0  0  0
  160.4490  212.1940  151.9340 O   0  0  0  0  0  0  0  0  0  0  0  0
  159.4140  213.1310  151.9280 C   0  0  0  0  0  1  0  0  0  0  0  0
  161.5370  206.5960  154.1510 C   0  0  0  0  0  2  0  0  0  0  0  0
  160.2400  207.0430  154.7930 C   0  0  0  0  0  2  0  0  0  0  0  0
  160.3180  206.8320  156.2980 C   0  0  0  0  0  2  0  0  0  0  0  0
  160.4190  208.1470  157.0670 C   0  0  0  0  0  3  0  0  0  0  0  0
  161.8510  208.6490  157.1290 C   0  0  0  0  0  1  0  0  0  0  0  0
  159.5110  209.2110  156.4770 C   0  0  0  0  0  1  0  0  0  0  0  0
  1  5  1  0  0  0  0
  2 20  1  0  0  0  0
  3  6  2  0  0  0  0
  4 12  1  0  0  0  0
  5  2  2  0  0  0  0
  7 12  2  0  0  0  0
  8 11  1  0  0  0  0
  9  6  1  0  0  0  0
  9  2  1  0  0  0  0
 10  4  1  0  0  0  0
 10  8  2  0  0  0  0
 11  1  2  0  0  0  0
 11  9  1  0  0  0  0
 12  1  1  0  0  0  0
 13  6  1  6  0  0  0
 13 14  1  0  0  0  0
 13 15  1  0  0  0  0
 14 15  1  0  0  0  0
 15 16  1  6  0  0  0
 16 17  1  1  0  0  0
 18 16  1  0  0  0  0
 19 18  1  0  0  0  0
 20 21  1  0  0  0  0
 21 22  1  0  0  0  0
 22 23  1  0  0  0  0
 23 24  1  0  0  0  0
 25 23  1  0  0  0  0
M  END
>  <MODEL>
7

>  <REMARK>
 VINA RESULT:      -6.1      2.386      4.562
  Name = 
  7 active torsions:
  status: ('A' for Active; 'I' for Inactive)
    1  A    between atoms: C_2  and  C_3
    2  A    between atoms: C_2  and  C_5
    3  A    between atoms: C_3  and  C_20
    4  A    between atoms: C_4  and  C_20
    5  A    between atoms: C_7  and  C_13
    6  A    between atoms: O_10  and  C_16
    7  A    between atoms: C_16  and  C_22
                            x       y       z     vdW  Elec       q    Type
                         _______ _______ _______ _____ _____    ______ ____

>  <TORSDO>
F 7

$$$$
=
 OpenBabel11052410143D

 25 27  0  0  1  0  0  0  0  0999 V2000
  161.4480  207.5290  152.1500 C   0  0  0  0  0  0  0  0  0  0  0  0
  161.8670  208.1320  150.0950 C   0  0  0  0  0  0  0  0  0  0  0  0
  160.9520  211.5230  150.9260 O   0  0  0  0  0  0  0  0  0  0  0  0
  160.9160  207.7220  154.4440 N   0  0  0  0  0  0  0  0  0  0  0  0
  161.7830  207.0030  150.9180 C   0  0  0  0  0  3  0  0  0  0  0  0
  161.5920  210.6400  150.2930 C   0  0  0  0  0  0  0  0  0  0  0  0
  161.3160  205.6760  153.5230 O   0  0  0  0  0  0  0  0  0  0  0  0
  161.0400  209.6730  153.0930 N   0  0  0  0  0  2  0  0  0  0  0  0
  161.6060  209.2820  150.7780 N   0  0  0  0  0  0  0  0  0  0  0  0
  160.8230  209.0810  154.3060 C   0  0  0  0  0  3  0  0  0  0  0  0
  161.3450  208.8810  152.0340 C   0  0  0  0  0  0  0  0  0  0  0  0
  161.2280  206.9240  153.3820 C   0  0  0  0  0  0  0  0  0  0  0  0
  162.3240  211.0250  149.0330 C   0  0  1  0  0  3  0  0  0  0  0  0
  161.3990  211.0630  147.8860 N   0  0  0  0  0  2  0  0  0  0  0  0
  161.9320  212.3220  148.4300 C   0  0  1  0  0  3  0  0  0  0  0  0
  160.8120  213.0850  149.1390 C   0  0  1  0  0  3  0  0  0  0  0  0
  161.2350  214.4530  149.3790 N   0  0  0  0  0  1  0  0  0  0  0  0
  159.6650  213.0870  148.3420 O   0  0  0  0  0  0  0  0  0  0  0  0
  159.3170  214.4320  148.2220 C   0  0  0  0  0  1  0  0  0  0  0  0
  162.1900  208.0540  148.6410 C   0  0  0  0  0  2  0  0  0  0  0  0
  162.3380  206.6060  148.2210 C   0  0  0  0  0  2  0  0  0  0  0  0
  161.3670  206.3030  147.0880 C   0  0  0  0  0  2  0  0  0  0  0  0
  161.4910  204.8680  146.5820 C   0  0  0  0  0  3  0  0  0  0  0  0
  162.6740  204.7070  145.6430 C   0  0  0  0  0  1  0  0  0  0  0  0
  161.5860  203.8770  147.7280 C   0  0  0  0  0  1  0  0  0  0  0  0
  1 12  1  0  0  0  0
  2  9  1  0  0  0  0
  2  5  2  0  0  0  0
  5  1  1  0  0  0  0
  6  9  1  0  0  0  0
  6  3  2  0  0  0  0
  8 10  1  0  0  0  0
  9 11  1  0  0  0  0
 10  4  2  0  0  0  0
 11  1  2  0  0  0  0
 11  8  1  0  0  0  0
 12  7  2  0  0  0  0
 12  4  1  0  0  0  0
 13  6  1  1  0  0  0
 14 15  1  0  0  0  0
 14 13  1  0  0  0  0
 15 13  1  0  0  0  0
 15 16  1  1  0  0  0
 16 17  1  6  0  0  0
 18 16  1  0  0  0  0
 19 18  1  0  0  0  0
 20  2  1  0  0  0  0
 21 20  1  0  0  0  0
 22 21  1  0  0  0  0
 23 22  1  0  0  0  0
 23 25  1  0  0  0  0
 24 23  1  0  0  0  0
M  END
>  <MODEL>
8

>  <REMARK>
 VINA RESULT:      -5.9      2.685      5.505
  Name = 
  7 active torsions:
  status: ('A' for Active; 'I' for Inactive)
    1  A    between atoms: C_2  and  C_3
    2  A    between atoms: C_2  and  C_5
    3  A    between atoms: C_3  and  C_20
    4  A    between atoms: C_4  and  C_20
    5  A    between atoms: C_7  and  C_13
    6  A    between atoms: O_10  and  C_16
    7  A    between atoms: C_16  and  C_22
                            x       y       z     vdW  Elec       q    Type
                         _______ _______ _______ _____ _____    ______ ____

>  <TORSDO>
F 7

$$$$
=
 OpenBabel11052410143D

 25 27  0  0  1  0  0  0  0  0999 V2000
  161.6820  207.0300  148.8820 C   0  0  0  0  0  0  0  0  0  0  0  0
  161.9560  209.0510  149.6580 C   0  0  0  0  0  0  0  0  0  0  0  0
  160.4790  208.0260  152.7880 O   0  0  0  0  0  0  0  0  0  0  0  0
  161.1620  204.7260  148.8560 N   0  0  0  0  0  2  0  0  0  0  0  0
  162.0830  208.2920  148.4890 C   0  0  0  0  0  3  0  0  0  0  0  0
  161.2520  208.7120  152.0650 C   0  0  0  0  0  0  0  0  0  0  0  0
  161.8960  205.7610  146.9640 O   0  0  0  0  0  0  0  0  0  0  0  0
  160.9230  205.9660  150.8680 N   0  0  0  0  0  0  0  0  0  0  0  0
  161.5110  208.3030  150.7070 N   0  0  0  0  0  0  0  0  0  0  0  0
  160.8320  204.7870  150.1840 C   0  0  0  0  0  3  0  0  0  0  0  0
  161.3430  207.0700  150.1990 C   0  0  0  0  0  0  0  0  0  0  0  0
  161.5910  205.8320  148.1830 C   0  0  0  0  0  0  0  0  0  0  0  0
  161.8860  209.9540  152.6390 C   0  0  1  0  0  3  0  0  0  0  0  0
  160.8520  210.8960  153.1040 N   0  0  0  0  0  2  0  0  0  0  0  0
  161.6720  210.1750  154.0890 C   0  0  1  0  0  3  0  0  0  0  0  0
  160.8080  209.1400  154.8100 C   0  0  1  0  0  3  0  0  0  0  0  0
  161.5810  208.5160  155.8690 N   0  0  0  0  0  1  0  0  0  0  0  0
  159.6860  209.7630  155.3610 O   0  0  0  0  0  0  0  0  0  0  0  0
  159.8910  209.7130  156.7400 C   0  0  0  0  0  1  0  0  0  0  0  0
  162.2640  210.5100  149.7160 C   0  0  0  0  0  2  0  0  0  0  0  0
  161.9560  211.1560  148.3810 C   0  0  0  0  0  2  0  0  0  0  0  0
  162.9900  212.2340  148.0860 C   0  0  0  0  0  2  0  0  0  0  0  0
  162.3630  213.5020  147.5140 C   0  0  0  0  0  3  0  0  0  0  0  0
  161.4450  213.1930  146.3440 C   0  0  0  0  0  1  0  0  0  0  0  0
  161.6180  214.2880  148.5780 C   0  0  0  0  0  1  0  0  0  0  0  0
  1 11  2  0  0  0  0
  2 20  1  0  0  0  0
  2  9  1  0  0  0  0
  4 10  1  0  0  0  0
  5  1  1  0  0  0  0
  5  2  2  0  0  0  0
  6  3  2  0  0  0  0
  7 12  2  0  0  0  0
  9  6  1  0  0  0  0
 10  8  2  0  0  0  0
 11  9  1  0  0  0  0
 11  8  1  0  0  0  0
 12  4  1  0  0  0  0
 12  1  1  0  0  0  0
 13  6  1  1  0  0  0
 13 14  1  0  0  0  0
 13 15  1  0  0  0  0
 14 15  1  0  0  0  0
 15 16  1  1  0  0  0
 16 18  1  0  0  0  0
 16 17  1  1  0  0  0
 18 19  1  0  0  0  0
 21 20  1  0  0  0  0
 22 21  1  0  0  0  0
 23 22  1  0  0  0  0
 23 25  1  0  0  0  0
 24 23  1  0  0  0  0
M  END
>  <MODEL>
9

>  <REMARK>
 VINA RESULT:      -5.9      2.332      5.574
  Name = 
  7 active torsions:
  status: ('A' for Active; 'I' for Inactive)
    1  A    between atoms: C_2  and  C_3
    2  A    between atoms: C_2  and  C_5
    3  A    between atoms: C_3  and  C_20
    4  A    between atoms: C_4  and  C_20
    5  A    between atoms: C_7  and  C_13
    6  A    between atoms: O_10  and  C_16
    7  A    between atoms: C_16  and  C_22
                            x       y       z     vdW  Elec       q    Type
                         _______ _______ _______ _____ _____    ______ ____

>  <TORSDO>
F 7

$$$$
