=
 OpenBabel11052412153D

 41 43  0  0  1  0  0  0  0  0999 V2000
  159.8310  211.4540  156.4760 C   0  0  0  0  0  0  0  0  0  0  0  0
  159.9150  210.6870  154.0780 N   0  0  0  0  0  0  0  0  0  0  0  0
  162.3000  210.4340  154.3330 C   0  0  0  0  0  2  0  0  0  0  0  0
  160.2550  210.6290  155.4520 C   0  0  1  0  0  3  0  0  0  0  0  0
  157.5900  210.7440  154.0440 O   0  0  0  0  0  0  0  0  0  0  0  0
  158.6270  212.2110  152.5810 N   0  0  0  0  0  0  0  0  0  0  0  0
  161.9450  211.2130  156.7250 N   0  0  0  0  0  0  0  0  0  0  0  0
  158.6720  211.9290  156.6150 O   0  0  0  0  0  0  0  0  0  0  0  0
  158.6700  211.1880  153.5770 C   0  0  0  0  0  0  0  0  0  0  0  0
  163.3060  211.5070  157.1430 C   0  0  0  0  0  1  0  0  0  0  0  0
  161.5820  210.5100  155.6340 C   0  0  2  0  0  3  0  0  0  0  0  0
  160.8740  211.7870  157.2610 N   0  0  0  0  0  2  0  0  0  0  0  0
  161.1480  210.5220  153.2950 C   0  0  1  0  0  3  0  0  0  0  0  0
  159.7900  212.8330  152.1000 N   0  0  0  0  0  0  0  0  0  0  0  0
  159.8210  213.6400  150.9170 C   0  0  0  0  0  0  0  0  0  0  0  0
  160.8850  214.2540  150.6420 O   0  0  0  0  0  0  0  0  0  0  0  0
  158.6570  213.8200  150.0220 C   0  0  0  0  0  0  0  0  0  0  0  0
  157.4190  213.6490  150.4790 C   0  0  0  0  0  2  0  0  0  0  0  0
  158.9160  214.1200  148.6730 O   0  0  0  0  0  0  0  0  0  0  0  0
  159.7010  213.2320  146.4940 N   0  0  0  0  0  2  0  0  0  0  0  0
  158.7530  213.2710  147.5680 C   0  0  0  0  0  0  0  0  0  0  0  0
  157.7410  212.5230  147.5300 O   0  0  0  0  0  0  0  0  0  0  0  0
  159.5700  212.3340  145.3570 C   0  0  0  0  0  2  0  0  0  0  0  0
  161.8450  212.9840  144.6160 C   0  0  0  0  0  1  0  0  0  0  0  0
  160.3970  212.8460  144.1910 C   0  0  0  0  0  2  0  0  0  0  0  0
  161.0790  209.2490  152.4420 C   0  0  1  0  0  3  0  0  0  0  0  0
  159.8160  209.1490  151.8790 F   0  0  0  0  0  0  0  0  0  0  0  0
  162.4900  210.6150  149.5250 O   0  0  0  0  0  0  0  0  0  0  0  0
  162.1250  209.2560  151.3220 C   0  0  1  0  0  3  0  0  0  0  0  0
  161.6260  208.5270  150.1080 C   0  0  1  0  0  3  0  0  0  0  0  0
  161.6080  209.6220  149.0820 C   0  0  0  0  0  2  0  0  0  0  0  0
  162.3790  210.6220  150.8840 N   0  0  0  0  0  2  0  0  0  0  0  0
  162.6420  207.4630  149.7220 C   0  0  0  0  0  2  0  0  0  0  0  0
  162.5560  207.1600  148.2360 C   0  0  0  0  0  2  0  0  0  0  0  0
  160.0030  206.4570  147.9290 O   0  0  0  0  0  0  0  0  0  0  0  0
  161.4780  204.8320  149.0310 O   0  0  0  0  0  0  0  0  0  0  0  0
  161.3810  205.8590  147.9400 S   0  0  0  0  0  0  0  0  0  0  0  0
  160.9430  205.3990  145.2360 C   0  0  0  0  0  0  0  0  0  0  0  0
  161.7070  205.1140  146.4090 N   0  0  0  0  0  2  0  0  0  0  0  0
  161.1960  204.6900  144.0670 O   0  0  0  0  0  0  0  0  0  0  0  0
  160.0370  206.2800  145.2530 O   0  0  0  0  0  1  0  0  0  0  0  0
  1  8  2  0  0  0  0
  1 12  1  0  0  0  0
  2  4  1  0  0  0  0
  4 11  1  0  0  0  0
  4  1  1  1  0  0  0
  6  9  1  0  0  0  0
  7 10  1  0  0  0  0
  7 12  1  0  0  0  0
  9  5  2  0  0  0  0
  9  2  1  0  0  0  0
 11  3  1  6  0  0  0
 11  7  1  0  0  0  0
 13 26  1  1  0  0  0
 13  2  1  0  0  0  0
 13  3  1  0  0  0  0
 14  6  2  0  0  0  0
 15 14  1  0  0  0  0
 16 15  2  0  0  0  0
 17 18  2  0  0  0  0
 17 15  1  0  0  0  0
 19 17  1  0  0  0  0
 20 21  1  0  0  0  0
 21 19  1  0  0  0  0
 22 21  2  0  0  0  0
 23 20  1  0  0  0  0
 25 24  1  0  0  0  0
 25 23  1  0  0  0  0
 26 27  1  6  0  0  0
 28 32  1  0  0  0  0
 29 26  1  1  0  0  0
 30 33  1  6  0  0  0
 30 29  1  0  0  0  0
 31 28  1  0  0  0  0
 31 30  1  0  0  0  0
 32 29  1  0  0  0  0
 34 33  1  0  0  0  0
 35 37  2  0  0  0  0
 37 34  1  0  0  0  0
 37 36  2  0  0  0  0
 38 41  1  0  0  0  0
 38 39  1  0  0  0  0
 39 37  1  0  0  0  0
 40 38  2  0  0  0  0
M  END
>  <MODEL>
1

>  <REMARK>
 VINA RESULT:      -5.5      0.000      0.000
  Name = 
  12 active torsions:
  status: ('A' for Active; 'I' for Inactive)
    1  A    between atoms: C_1  and  N_29
    2  A    between atoms: C_1  and  C_38
    3  A    between atoms: N_2  and  N_15
    4  A    between atoms: O_3  and  C_12
    5  A    between atoms: O_3  and  C_31
    6  A    between atoms: C_12  and  C_27
    7  A    between atoms: N_13  and  S_33
    8  A    between atoms: C_14  and  C_24
    9  A    between atoms: C_17  and  C_34
   10  A    between atoms: C_19  and  S_33
   11  A    between atoms: C_19  and  C_34
   12  A    between atoms: C_24  and  C_37
                            x       y       z     vdW  Elec       q    Type
                         _______ _______ _______ _____ _____    ______ ____

>  <TORSDO>
F 12

$$$$
=
 OpenBabel11052412153D

 41 43  0  0  1  0  0  0  0  0999 V2000
  159.3540  211.6830  155.0340 C   0  0  0  0  0  0  0  0  0  0  0  0
  160.8340  211.0120  153.1100 N   0  0  0  0  0  0  0  0  0  0  0  0
  159.2710  212.1080  151.6360 C   0  0  0  0  0  2  0  0  0  0  0  0
  160.0200  211.9080  153.8440 C   0  0  1  0  0  3  0  0  0  0  0  0
  162.3730  210.2060  154.6570 O   0  0  0  0  0  0  0  0  0  0  0  0
  161.4760  208.6050  153.2440 N   0  0  0  0  0  2  0  0  0  0  0  0
  157.9680  212.6810  153.7400 N   0  0  0  0  0  0  0  0  0  0  0  0
  159.7870  211.0190  156.0130 O   0  0  0  0  0  0  0  0  0  0  0  0
  161.6000  209.9530  153.6980 C   0  0  0  0  0  0  0  0  0  0  0  0
  156.6940  213.1130  153.1870 C   0  0  0  0  0  1  0  0  0  0  0  0
  159.1180  212.5230  153.0570 C   0  0  2  0  0  3  0  0  0  0  0  0
  158.1040  212.1820  154.9630 N   0  0  0  0  0  2  0  0  0  0  0  0
  160.4610  211.1100  151.6920 C   0  0  1  0  0  3  0  0  0  0  0  0
  160.5500  208.2320  152.2580 N   0  0  0  0  0  2  0  0  0  0  0  0
  160.8560  207.3320  151.1860 C   0  0  0  0  0  0  0  0  0  0  0  0
  159.9200  206.9650  150.4300 O   0  0  0  0  0  0  0  0  0  0  0  0
  162.2080  206.7810  150.9470 C   0  0  0  0  0  0  0  0  0  0  0  0
  162.7320  205.8860  151.7810 C   0  0  0  0  0  2  0  0  0  0  0  0
  162.9270  207.2790  149.8450 O   0  0  0  0  0  0  0  0  0  0  0  0
  162.6750  205.9910  147.7410 N   0  0  0  0  0  2  0  0  0  0  0  0
  162.5650  207.2060  148.4920 C   0  0  0  0  0  0  0  0  0  0  0  0
  162.1280  208.2450  147.9300 O   0  0  0  0  0  0  0  0  0  0  0  0
  162.2730  205.8830  146.3470 C   0  0  0  0  0  2  0  0  0  0  0  0
  161.6980  203.6650  147.2940 C   0  0  0  0  0  1  0  0  0  0  0  0
  161.4700  204.6120  146.1330 C   0  0  0  0  0  2  0  0  0  0  0  0
  161.6430  211.6180  150.8560 C   0  0  1  0  0  3  0  0  0  0  0  0
  162.6730  210.6920  150.9200 F   0  0  0  0  0  0  0  0  0  0  0  0
  162.4570  212.2030  147.4860 O   0  0  0  0  0  0  0  0  0  0  0  0
  161.2540  211.8320  149.3890 C   0  0  1  0  0  3  0  0  0  0  0  0
  161.1320  213.2930  149.0680 C   0  0  1  0  0  3  0  0  0  0  0  0
  162.2050  213.4660  148.0330 C   0  0  0  0  0  2  0  0  0  0  0  0
  162.3010  211.3220  148.5150 N   0  0  0  0  0  2  0  0  0  0  0  0
  159.7640  213.5490  148.4540 C   0  0  0  0  0  2  0  0  0  0  0  0
  159.8870  214.4530  147.2390 C   0  0  0  0  0  2  0  0  0  0  0  0
  157.8670  213.6050  145.7210 O   0  0  0  0  0  0  0  0  0  0  0  0
  159.8580  212.1710  145.8230 O   0  0  0  0  0  0  0  0  0  0  0  0
  159.3680  213.5890  145.7740 S   0  0  0  0  0  0  0  0  0  0  0  0
  159.9330  213.8110  143.0640 C   0  0  0  0  0  0  0  0  0  0  0  0
  160.0110  214.3800  144.3720 N   0  0  0  0  0  2  0  0  0  0  0  0
  160.5590  214.4530  142.0010 O   0  0  0  0  0  0  0  0  0  0  0  0
  159.3090  212.7290  142.8650 O   0  0  0  0  0  1  0  0  0  0  0  0
  1  8  2  0  0  0  0
  2  9  1  0  0  0  0
  2  4  1  0  0  0  0
  3 13  1  0  0  0  0
  4  1  1  1  0  0  0
  6  9  1  0  0  0  0
  7 12  1  0  0  0  0
  9  5  2  0  0  0  0
 10  7  1  0  0  0  0
 11  3  1  6  0  0  0
 11  7  1  0  0  0  0
 11  4  1  0  0  0  0
 12  1  1  0  0  0  0
 13 26  1  6  0  0  0
 13  2  1  0  0  0  0
 14  6  1  0  0  0  0
 15 14  1  0  0  0  0
 16 15  2  0  0  0  0
 17 15  1  0  0  0  0
 17 18  2  0  0  0  0
 19 17  1  0  0  0  0
 20 21  1  0  0  0  0
 21 19  1  0  0  0  0
 22 21  2  0  0  0  0
 23 20  1  0  0  0  0
 25 23  1  0  0  0  0
 25 24  1  0  0  0  0
 26 27  1  6  0  0  0
 28 31  1  0  0  0  0
 28 32  1  0  0  0  0
 29 26  1  1  0  0  0
 30 33  1  6  0  0  0
 30 29  1  0  0  0  0
 31 30  1  0  0  0  0
 32 29  1  0  0  0  0
 34 33  1  0  0  0  0
 35 37  2  0  0  0  0
 37 36  2  0  0  0  0
 37 34  1  0  0  0  0
 38 39  1  0  0  0  0
 39 37  1  0  0  0  0
 40 38  2  0  0  0  0
 41 38  1  0  0  0  0
M  END
>  <MODEL>
2

>  <REMARK>
 VINA RESULT:      -4.7      2.862      6.279
  Name = 
  12 active torsions:
  status: ('A' for Active; 'I' for Inactive)
    1  A    between atoms: C_1  and  N_29
    2  A    between atoms: C_1  and  C_38
    3  A    between atoms: N_2  and  N_15
    4  A    between atoms: O_3  and  C_12
    5  A    between atoms: O_3  and  C_31
    6  A    between atoms: C_12  and  C_27
    7  A    between atoms: N_13  and  S_33
    8  A    between atoms: C_14  and  C_24
    9  A    between atoms: C_17  and  C_34
   10  A    between atoms: C_19  and  S_33
   11  A    between atoms: C_19  and  C_34
   12  A    between atoms: C_24  and  C_37
                            x       y       z     vdW  Elec       q    Type
                         _______ _______ _______ _____ _____    ______ ____

>  <TORSDO>
F 12

$$$$
=
 OpenBabel11052412153D

 41 43  0  0  1  0  0  0  0  0999 V2000
  159.0050  211.0370  155.0840 C   0  0  0  0  0  0  0  0  0  0  0  0
  160.9200  210.1960  153.6800 N   0  0  0  0  0  0  0  0  0  0  0  0
  160.0670  211.5360  151.8660 C   0  0  0  0  0  2  0  0  0  0  0  0
  160.0390  211.1860  154.1790 C   0  0  1  0  0  3  0  0  0  0  0  0
  161.7650  209.1450  155.5760 O   0  0  0  0  0  0  0  0  0  0  0  0
  161.1650  207.7190  153.8520 N   0  0  0  0  0  2  0  0  0  0  0  0
  158.2480  212.2500  153.4890 N   0  0  0  0  0  0  0  0  0  0  0  0
  159.0130  210.2970  156.1040 O   0  0  0  0  0  0  0  0  0  0  0  0
  161.3130  209.0260  154.4090 C   0  0  0  0  0  0  0  0  0  0  0  0
  157.2850  212.8730  152.5950 C   0  0  0  0  0  1  0  0  0  0  0  0
  159.5240  211.9400  153.1910 C   0  0  2  0  0  3  0  0  0  0  0  0
  157.9200  211.7130  154.6580 N   0  0  0  0  0  2  0  0  0  0  0  0
  161.0350  210.3760  152.2260 C   0  0  1  0  0  3  0  0  0  0  0  0
  160.5600  207.5040  152.6040 N   0  0  0  0  0  2  0  0  0  0  0  0
  160.7950  206.3390  151.8030 C   0  0  0  0  0  0  0  0  0  0  0  0
  160.1080  206.1850  150.7600 O   0  0  0  0  0  0  0  0  0  0  0  0
  161.7760  205.2910  152.1580 C   0  0  0  0  0  0  0  0  0  0  0  0
  163.0810  205.5420  152.1150 C   0  0  0  0  0  2  0  0  0  0  0  0
  161.2750  204.0170  152.4830 O   0  0  0  0  0  0  0  0  0  0  0  0
  160.4780  202.7650  150.4960 N   0  0  0  0  0  2  0  0  0  0  0  0
  161.2840  202.8700  151.6760 C   0  0  0  0  0  0  0  0  0  0  0  0
  162.0290  201.9090  152.0070 O   0  0  0  0  0  0  0  0  0  0  0  0
  160.4990  201.6000  149.6260 C   0  0  0  0  0  2  0  0  0  0  0  0
  161.2470  200.7930  147.4040 C   0  0  0  0  0  1  0  0  0  0  0  0
  160.8490  202.0140  148.2070 C   0  0  0  0  0  2  0  0  0  0  0  0
  162.4780  210.7230  151.8380 C   0  0  1  0  0  3  0  0  0  0  0  0
  163.3450  210.1290  152.7410 F   0  0  0  0  0  0  0  0  0  0  0  0
  162.1610  210.8910  148.3400 O   0  0  0  0  0  0  0  0  0  0  0  0
  162.8200  210.2370  150.4240 C   0  0  1  0  0  3  0  0  0  0  0  0
  161.8200  209.2280  149.9410 C   0  0  1  0  0  3  0  0  0  0  0  0
  161.2310  209.9300  148.7520 C   0  0  0  0  0  2  0  0  0  0  0  0
  162.7460  211.3470  149.4840 N   0  0  0  0  0  2  0  0  0  0  0  0
  162.5610  207.9750  149.4970 C   0  0  0  0  0  2  0  0  0  0  0  0
  162.3920  207.7590  148.0030 C   0  0  0  0  0  2  0  0  0  0  0  0
  160.1730  206.2900  147.8420 O   0  0  0  0  0  0  0  0  0  0  0  0
  162.1900  205.1670  148.6790 O   0  0  0  0  0  0  0  0  0  0  0  0
  161.6620  206.1670  147.6910 S   0  0  0  0  0  0  0  0  0  0  0  0
  161.1150  205.7390  145.0020 C   0  0  0  0  0  0  0  0  0  0  0  0
  162.0480  205.6540  146.0810 N   0  0  0  0  0  2  0  0  0  0  0  0
  161.4570  205.2170  143.7600 O   0  0  0  0  0  0  0  0  0  0  0  0
  159.9820  206.2760  145.1680 O   0  0  0  0  0  1  0  0  0  0  0  0
  1  8  2  0  0  0  0
  2  4  1  0  0  0  0
  2  9  1  0  0  0  0
  3 13  1  0  0  0  0
  4  1  1  6  0  0  0
  6  9  1  0  0  0  0
  7 12  1  0  0  0  0
  9  5  2  0  0  0  0
 10  7  1  0  0  0  0
 11  3  1  6  0  0  0
 11  7  1  0  0  0  0
 11  4  1  0  0  0  0
 12  1  1  0  0  0  0
 13 26  1  1  0  0  0
 13  2  1  0  0  0  0
 14  6  1  0  0  0  0
 15 17  1  0  0  0  0
 15 14  1  0  0  0  0
 16 15  2  0  0  0  0
 17 19  1  0  0  0  0
 18 17  2  0  0  0  0
 20 21  1  0  0  0  0
 21 22  2  0  0  0  0
 21 19  1  0  0  0  0
 23 20  1  0  0  0  0
 24 25  1  0  0  0  0
 25 23  1  0  0  0  0
 26 27  1  1  0  0  0
 28 31  1  0  0  0  0
 28 32  1  0  0  0  0
 29 26  1  1  0  0  0
 30 33  1  6  0  0  0
 30 29  1  0  0  0  0
 31 30  1  0  0  0  0
 32 29  1  0  0  0  0
 34 33  1  0  0  0  0
 37 35  2  0  0  0  0
 37 34  1  0  0  0  0
 37 36  2  0  0  0  0
 38 41  1  0  0  0  0
 38 39  1  0  0  0  0
 39 37  1  0  0  0  0
 40 38  2  0  0  0  0
M  END
>  <MODEL>
3

>  <REMARK>
 VINA RESULT:      -4.6      2.704      6.088
  Name = 
  12 active torsions:
  status: ('A' for Active; 'I' for Inactive)
    1  A    between atoms: C_1  and  N_29
    2  A    between atoms: C_1  and  C_38
    3  A    between atoms: N_2  and  N_15
    4  A    between atoms: O_3  and  C_12
    5  A    between atoms: O_3  and  C_31
    6  A    between atoms: C_12  and  C_27
    7  A    between atoms: N_13  and  S_33
    8  A    between atoms: C_14  and  C_24
    9  A    between atoms: C_17  and  C_34
   10  A    between atoms: C_19  and  S_33
   11  A    between atoms: C_19  and  C_34
   12  A    between atoms: C_24  and  C_37
                            x       y       z     vdW  Elec       q    Type
                         _______ _______ _______ _____ _____    ______ ____

>  <TORSDO>
F 12

$$$$
=
 OpenBabel11052412153D

 41 43  0  0  1  0  0  0  0  0999 V2000
  157.9160  213.6890  155.4710 C   0  0  0  0  0  0  0  0  0  0  0  0
  158.5260  212.5070  153.3320 N   0  0  0  0  0  0  0  0  0  0  0  0
  160.5850  211.8350  154.3920 C   0  0  0  0  0  2  0  0  0  0  0  0
  158.4110  212.6280  154.7390 C   0  0  1  0  0  3  0  0  0  0  0  0
  156.4070  213.0170  152.5200 O   0  0  0  0  0  0  0  0  0  0  0  0
  158.1620  213.9650  151.3420 N   0  0  0  0  0  2  0  0  0  0  0  0
  159.7300  213.0820  156.4340 N   0  0  0  0  0  0  0  0  0  0  0  0
  156.9220  214.4020  155.1660 O   0  0  0  0  0  0  0  0  0  0  0  0
  157.6510  213.1470  152.3950 C   0  0  0  0  0  0  0  0  0  0  0  0
  160.9320  213.1690  157.2480 C   0  0  0  0  0  1  0  0  0  0  0  0
  159.5510  212.2820  155.3640 C   0  0  2  0  0  3  0  0  0  0  0  0
  158.7230  213.9420  156.5190 N   0  0  0  0  0  2  0  0  0  0  0  0
  159.8570  211.9640  153.0260 C   0  0  1  0  0  3  0  0  0  0  0  0
  159.5300  214.2490  151.2130 N   0  0  0  0  0  2  0  0  0  0  0  0
  160.2700  214.0380  150.0040 C   0  0  0  0  0  0  0  0  0  0  0  0
  161.4610  214.4420  149.9560 O   0  0  0  0  0  0  0  0  0  0  0  0
  159.6950  213.4060  148.7970 C   0  0  0  0  0  0  0  0  0  0  0  0
  158.4330  213.6380  148.4470 C   0  0  0  0  0  2  0  0  0  0  0  0
  160.5130  212.5150  148.0780 O   0  0  0  0  0  0  0  0  0  0  0  0
  160.7160  212.8920  145.6350 N   0  0  0  0  0  2  0  0  0  0  0  0
  161.2890  212.8020  146.9450 C   0  0  0  0  0  0  0  0  0  0  0  0
  162.5250  212.9880  147.0950 O   0  0  0  0  0  0  0  0  0  0  0  0
  161.4940  213.2230  144.4520 C   0  0  0  0  0  2  0  0  0  0  0  0
  159.2490  212.9780  143.4320 C   0  0  0  0  0  1  0  0  0  0  0  0
  160.7370  212.8190  143.1990 C   0  0  0  0  0  2  0  0  0  0  0  0
  159.7370  210.5990  152.3360 C   0  0  1  0  0  3  0  0  0  0  0  0
  159.4960  210.7940  150.9850 F   0  0  0  0  0  0  0  0  0  0  0  0
  162.9420  209.5960  151.2940 O   0  0  0  0  0  0  0  0  0  0  0  0
  161.0120  209.7640  152.5000 C   0  0  1  0  0  3  0  0  0  0  0  0
  160.9310  208.4880  151.7130 C   0  0  1  0  0  3  0  0  0  0  0  0
  162.0600  208.6600  150.7400 C   0  0  0  0  0  2  0  0  0  0  0  0
  162.1550  210.4870  151.9610 N   0  0  0  0  0  2  0  0  0  0  0  0
  161.2120  207.3180  152.6440 C   0  0  0  0  0  2  0  0  0  0  0  0
  162.1960  206.3540  152.0030 C   0  0  0  0  0  2  0  0  0  0  0  0
  159.9230  204.9780  151.7820 O   0  0  0  0  0  0  0  0  0  0  0  0
  162.0160  203.7090  151.5700 O   0  0  0  0  0  0  0  0  0  0  0  0
  161.3250  205.0020  151.2430 S   0  0  0  0  0  0  0  0  0  0  0  0
  161.1880  204.1310  148.6100 C   0  0  0  0  0  0  0  0  0  0  0  0
  161.2880  205.2230  149.5240 N   0  0  0  0  0  2  0  0  0  0  0  0
  161.2650  204.3740  147.2430 O   0  0  0  0  0  0  0  0  0  0  0  0
  161.0380  202.9480  149.0290 O   0  0  0  0  0  1  0  0  0  0  0  0
  1 12  1  0  0  0  0
  2  4  1  0  0  0  0
  4 11  1  0  0  0  0
  4  1  1  6  0  0  0
  6  9  1  0  0  0  0
  7 12  1  0  0  0  0
  7 10  1  0  0  0  0
  8  1  2  0  0  0  0
  9  5  2  0  0  0  0
  9  2  1  0  0  0  0
 11  3  1  6  0  0  0
 11  7  1  0  0  0  0
 13 26  1  1  0  0  0
 13  2  1  0  0  0  0
 13  3  1  0  0  0  0
 14  6  1  0  0  0  0
 15 14  1  0  0  0  0
 16 15  2  0  0  0  0
 17 15  1  0  0  0  0
 18 17  2  0  0  0  0
 19 17  1  0  0  0  0
 20 21  1  0  0  0  0
 21 22  2  0  0  0  0
 21 19  1  0  0  0  0
 23 20  1  0  0  0  0
 25 24  1  0  0  0  0
 25 23  1  0  0  0  0
 26 27  1  6  0  0  0
 28 32  1  0  0  0  0
 29 26  1  6  0  0  0
 30 29  1  0  0  0  0
 30 33  1  1  0  0  0
 31 28  1  0  0  0  0
 31 30  1  0  0  0  0
 32 29  1  0  0  0  0
 34 33  1  0  0  0  0
 37 36  2  0  0  0  0
 37 35  2  0  0  0  0
 37 34  1  0  0  0  0
 38 41  1  0  0  0  0
 38 39  1  0  0  0  0
 39 37  1  0  0  0  0
 40 38  2  0  0  0  0
M  END
>  <MODEL>
4

>  <REMARK>
 VINA RESULT:      -4.0      2.141      2.736
  Name = 
  12 active torsions:
  status: ('A' for Active; 'I' for Inactive)
    1  A    between atoms: C_1  and  N_29
    2  A    between atoms: C_1  and  C_38
    3  A    between atoms: N_2  and  N_15
    4  A    between atoms: O_3  and  C_12
    5  A    between atoms: O_3  and  C_31
    6  A    between atoms: C_12  and  C_27
    7  A    between atoms: N_13  and  S_33
    8  A    between atoms: C_14  and  C_24
    9  A    between atoms: C_17  and  C_34
   10  A    between atoms: C_19  and  S_33
   11  A    between atoms: C_19  and  C_34
   12  A    between atoms: C_24  and  C_37
                            x       y       z     vdW  Elec       q    Type
                         _______ _______ _______ _____ _____    ______ ____

>  <TORSDO>
F 12

$$$$
=
 OpenBabel11052412153D

 41 43  0  0  1  0  0  0  0  0999 V2000
  159.1210  210.5120  155.7020 C   0  0  0  0  0  0  0  0  0  0  0  0
  160.6210  210.3770  153.6830 N   0  0  0  0  0  0  0  0  0  0  0  0
  158.8810  211.4750  152.4240 C   0  0  0  0  0  2  0  0  0  0  0  0
  159.7150  211.0190  154.5620 C   0  0  1  0  0  3  0  0  0  0  0  0
  162.2990  209.5480  155.0630 O   0  0  0  0  0  0  0  0  0  0  0  0
  161.5850  208.0930  153.4070 N   0  0  0  0  0  0  0  0  0  0  0  0
  157.5760  211.5080  154.6030 N   0  0  0  0  0  0  0  0  0  0  0  0
  159.6690  209.7620  156.5530 O   0  0  0  0  0  0  0  0  0  0  0  0
  161.5400  209.3520  154.0800 C   0  0  0  0  0  0  0  0  0  0  0  0
  156.2400  211.8460  154.1390 C   0  0  0  0  0  1  0  0  0  0  0  0
  158.7160  211.6250  153.8950 C   0  0  2  0  0  3  0  0  0  0  0  0
  157.8140  210.8390  155.7240 N   0  0  0  0  0  2  0  0  0  0  0  0
  160.1950  210.6560  152.3040 C   0  0  1  0  0  3  0  0  0  0  0  0
  160.6880  207.7640  152.3800 N   0  0  0  0  0  0  0  0  0  0  0  0
  160.8040  206.5800  151.5800 C   0  0  0  0  0  0  0  0  0  0  0  0
  159.8770  206.3150  150.7710 O   0  0  0  0  0  0  0  0  0  0  0  0
  161.9350  205.6340  151.6850 C   0  0  0  0  0  0  0  0  0  0  0  0
  163.1530  205.9870  151.2820 C   0  0  0  0  0  2  0  0  0  0  0  0
  161.6590  204.3420  152.1690 O   0  0  0  0  0  0  0  0  0  0  0  0
  160.6210  203.2010  150.2260 N   0  0  0  0  0  2  0  0  0  0  0  0
  161.4250  203.1840  151.4110 C   0  0  0  0  0  0  0  0  0  0  0  0
  161.9460  202.1030  151.7930 O   0  0  0  0  0  0  0  0  0  0  0  0
  160.3950  202.0210  149.4070 C   0  0  0  0  0  2  0  0  0  0  0  0
  161.3480  203.2090  147.4510 C   0  0  0  0  0  1  0  0  0  0  0  0
  161.4260  201.9520  148.2940 C   0  0  0  0  0  2  0  0  0  0  0  0
  161.2730  211.4520  151.5570 C   0  0  1  0  0  3  0  0  0  0  0  0
  162.5150  210.9030  151.8350 F   0  0  0  0  0  0  0  0  0  0  0  0
  162.2910  210.6910  148.2790 O   0  0  0  0  0  0  0  0  0  0  0  0
  161.0470  211.4350  150.0410 C   0  0  1  0  0  3  0  0  0  0  0  0
  161.6520  212.6430  149.3880 C   0  0  1  0  0  3  0  0  0  0  0  0
  162.6810  212.0180  148.4910 C   0  0  0  0  0  2  0  0  0  0  0  0
  161.7200  210.2870  149.4490 N   0  0  0  0  0  2  0  0  0  0  0  0
  160.5850  213.3390  148.5570 C   0  0  0  0  0  2  0  0  0  0  0  0
  160.0240  212.3920  147.5110 C   0  0  0  0  0  2  0  0  0  0  0  0
  160.7580  214.3430  145.8500 O   0  0  0  0  0  0  0  0  0  0  0  0
  158.3530  213.8750  146.0200 O   0  0  0  0  0  0  0  0  0  0  0  0
  159.7230  213.2630  145.9900 S   0  0  0  0  0  0  0  0  0  0  0  0
  159.8930  212.6050  143.2970 C   0  0  0  0  0  0  0  0  0  0  0  0
  159.8410  212.1640  144.6550 N   0  0  0  0  0  2  0  0  0  0  0  0
  159.8850  211.6650  142.2720 O   0  0  0  0  0  0  0  0  0  0  0  0
  159.9390  213.8370  143.0190 O   0  0  0  0  0  1  0  0  0  0  0  0
  1 12  1  0  0  0  0
  1  8  2  0  0  0  0
  2  9  1  0  0  0  0
  2  4  1  0  0  0  0
  4  1  1  1  0  0  0
  6  9  1  0  0  0  0
  7 12  1  0  0  0  0
  9  5  2  0  0  0  0
 10  7  1  0  0  0  0
 11  3  1  6  0  0  0
 11  4  1  0  0  0  0
 11  7  1  0  0  0  0
 13 26  1  1  0  0  0
 13  3  1  0  0  0  0
 13  2  1  0  0  0  0
 14  6  2  0  0  0  0
 15 17  1  0  0  0  0
 15 14  1  0  0  0  0
 16 15  2  0  0  0  0
 17 19  1  0  0  0  0
 18 17  2  0  0  0  0
 20 21  1  0  0  0  0
 21 22  2  0  0  0  0
 21 19  1  0  0  0  0
 23 20  1  0  0  0  0
 24 25  1  0  0  0  0
 25 23  1  0  0  0  0
 26 27  1  6  0  0  0
 28 31  1  0  0  0  0
 28 32  1  0  0  0  0
 29 26  1  1  0  0  0
 30 33  1  6  0  0  0
 30 29  1  0  0  0  0
 31 30  1  0  0  0  0
 32 29  1  0  0  0  0
 34 33  1  0  0  0  0
 35 37  2  0  0  0  0
 37 36  2  0  0  0  0
 37 34  1  0  0  0  0
 38 39  1  0  0  0  0
 39 37  1  0  0  0  0
 40 38  2  0  0  0  0
 41 38  1  0  0  0  0
M  END
>  <MODEL>
5

>  <REMARK>
 VINA RESULT:      -3.8      3.195      6.916
  Name = 
  12 active torsions:
  status: ('A' for Active; 'I' for Inactive)
    1  A    between atoms: C_1  and  N_29
    2  A    between atoms: C_1  and  C_38
    3  A    between atoms: N_2  and  N_15
    4  A    between atoms: O_3  and  C_12
    5  A    between atoms: O_3  and  C_31
    6  A    between atoms: C_12  and  C_27
    7  A    between atoms: N_13  and  S_33
    8  A    between atoms: C_14  and  C_24
    9  A    between atoms: C_17  and  C_34
   10  A    between atoms: C_19  and  S_33
   11  A    between atoms: C_19  and  C_34
   12  A    between atoms: C_24  and  C_37
                            x       y       z     vdW  Elec       q    Type
                         _______ _______ _______ _____ _____    ______ ____

>  <TORSDO>
F 12

$$$$
=
 OpenBabel11052412153D

 41 43  0  0  1  0  0  0  0  0999 V2000
  160.6710  208.4870  155.8640 C   0  0  0  0  0  0  0  0  0  0  0  0
  161.4700  207.8170  153.5720 N   0  0  0  0  0  0  0  0  0  0  0  0
  159.9620  209.4620  152.6590 C   0  0  0  0  0  2  0  0  0  0  0  0
  161.0960  208.7440  154.5750 C   0  0  1  0  0  3  0  0  0  0  0  0
  163.0470  206.4450  154.5920 O   0  0  0  0  0  0  0  0  0  0  0  0
  161.4800  205.3380  153.2920 N   0  0  0  0  0  2  0  0  0  0  0  0
  159.3430  209.9690  155.0700 N   0  0  0  0  0  0  0  0  0  0  0  0
  161.1200  207.5930  156.6300 O   0  0  0  0  0  0  0  0  0  0  0  0
  162.0450  206.5320  153.8370 C   0  0  0  0  0  0  0  0  0  0  0  0
  158.1360  210.7620  154.9020 C   0  0  0  0  0  1  0  0  0  0  0  0
  160.2350  209.6660  154.1070 C   0  0  2  0  0  3  0  0  0  0  0  0
  159.6090  209.2610  156.1610 N   0  0  0  0  0  2  0  0  0  0  0  0
  160.8350  208.2260  152.3110 C   0  0  1  0  0  3  0  0  0  0  0  0
  160.2960  205.3500  152.5390 N   0  0  0  0  0  2  0  0  0  0  0  0
  160.0850  204.5210  151.3890 C   0  0  0  0  0  0  0  0  0  0  0  0
  158.9430  204.5160  150.8600 O   0  0  0  0  0  0  0  0  0  0  0  0
  161.1270  203.6420  150.8150 C   0  0  0  0  0  0  0  0  0  0  0  0
  161.6250  202.6320  151.5220 C   0  0  0  0  0  2  0  0  0  0  0  0
  161.6010  203.9530  149.5280 O   0  0  0  0  0  0  0  0  0  0  0  0
  161.5590  203.9170  147.0480 N   0  0  0  0  0  2  0  0  0  0  0  0
  161.2420  203.3370  148.3190 C   0  0  0  0  0  0  0  0  0  0  0  0
  160.6250  202.2400  148.3650 O   0  0  0  0  0  0  0  0  0  0  0  0
  161.2280  203.2790  145.7840 C   0  0  0  0  0  2  0  0  0  0  0  0
  160.6200  205.6540  145.4190 C   0  0  0  0  0  1  0  0  0  0  0  0
  160.9030  204.3300  144.7380 C   0  0  0  0  0  2  0  0  0  0  0  0
  161.8960  208.5800  151.2620 C   0  0  1  0  0  3  0  0  0  0  0  0
  162.8950  207.6190  151.2860 F   0  0  0  0  0  0  0  0  0  0  0  0
  161.2900  207.2010  148.0850 O   0  0  0  0  0  0  0  0  0  0  0  0
  161.3020  208.6470  149.8500 C   0  0  1  0  0  3  0  0  0  0  0  0
  162.3120  209.1510  148.8600 C   0  0  1  0  0  3  0  0  0  0  0  0
  162.4490  207.9720  147.9400 C   0  0  0  0  0  2  0  0  0  0  0  0
  160.9400  207.3110  149.3970 N   0  0  0  0  0  2  0  0  0  0  0  0
  161.7170  210.3350  148.1120 C   0  0  0  0  0  2  0  0  0  0  0  0
  162.3760  211.6290  148.5570 C   0  0  0  0  0  2  0  0  0  0  0  0
  161.9040  214.2450  148.3480 O   0  0  0  0  0  0  0  0  0  0  0  0
  160.5000  212.9840  149.9210 O   0  0  0  0  0  0  0  0  0  0  0  0
  161.1830  212.9480  148.5850 S   0  0  0  0  0  0  0  0  0  0  0  0
  160.3340  212.7570  145.9470 C   0  0  0  0  0  0  0  0  0  0  0  0
  160.0070  212.6970  147.3360 N   0  0  0  0  0  2  0  0  0  0  0  0
  159.3210  212.6460  145.0010 O   0  0  0  0  0  0  0  0  0  0  0  0
  161.5300  212.9170  145.5710 O   0  0  0  0  0  1  0  0  0  0  0  0
  1 12  1  0  0  0  0
  1  8  2  0  0  0  0
  2  9  1  0  0  0  0
  2  4  1  0  0  0  0
  4  1  1  1  0  0  0
  6  9  1  0  0  0  0
  7 12  1  0  0  0  0
  9  5  2  0  0  0  0
 10  7  1  0  0  0  0
 11  3  1  6  0  0  0
 11  4  1  0  0  0  0
 11  7  1  0  0  0  0
 13 26  1  6  0  0  0
 13  3  1  0  0  0  0
 13  2  1  0  0  0  0
 14  6  1  0  0  0  0
 15 14  1  0  0  0  0
 16 15  2  0  0  0  0
 17 15  1  0  0  0  0
 17 18  2  0  0  0  0
 19 17  1  0  0  0  0
 20 21  1  0  0  0  0
 21 22  2  0  0  0  0
 21 19  1  0  0  0  0
 23 20  1  0  0  0  0
 25 24  1  0  0  0  0
 25 23  1  0  0  0  0
 26 27  1  6  0  0  0
 28 32  1  0  0  0  0
 29 26  1  1  0  0  0
 30 33  1  6  0  0  0
 30 29  1  0  0  0  0
 31 28  1  0  0  0  0
 31 30  1  0  0  0  0
 32 29  1  0  0  0  0
 33 34  1  0  0  0  0
 34 37  1  0  0  0  0
 35 37  2  0  0  0  0
 37 36  2  0  0  0  0
 38 39  1  0  0  0  0
 39 37  1  0  0  0  0
 40 38  2  0  0  0  0
 41 38  1  0  0  0  0
M  END
>  <MODEL>
6

>  <REMARK>
 VINA RESULT:      -3.6      3.121      6.784
  Name = 
  12 active torsions:
  status: ('A' for Active; 'I' for Inactive)
    1  A    between atoms: C_1  and  N_29
    2  A    between atoms: C_1  and  C_38
    3  A    between atoms: N_2  and  N_15
    4  A    between atoms: O_3  and  C_12
    5  A    between atoms: O_3  and  C_31
    6  A    between atoms: C_12  and  C_27
    7  A    between atoms: N_13  and  S_33
    8  A    between atoms: C_14  and  C_24
    9  A    between atoms: C_17  and  C_34
   10  A    between atoms: C_19  and  S_33
   11  A    between atoms: C_19  and  C_34
   12  A    between atoms: C_24  and  C_37
                            x       y       z     vdW  Elec       q    Type
                         _______ _______ _______ _____ _____    ______ ____

>  <TORSDO>
F 12

$$$$
=
 OpenBabel11052412153D

 41 43  0  0  1  0  0  0  0  0999 V2000
  161.2090  206.9690  154.5430 C   0  0  0  0  0  0  0  0  0  0  0  0
  161.8540  207.5180  152.1710 N   0  0  0  0  0  0  0  0  0  0  0  0
  160.4390  209.4640  152.3260 C   0  0  0  0  0  2  0  0  0  0  0  0
  161.5960  207.8250  153.5290 C   0  0  1  0  0  3  0  0  0  0  0  0
  163.3640  205.7490  152.2390 O   0  0  0  0  0  0  0  0  0  0  0  0
  161.6620  205.5240  150.6840 N   0  0  0  0  0  2  0  0  0  0  0  0
  159.9660  208.7060  154.7040 N   0  0  0  0  0  0  0  0  0  0  0  0
  161.6220  205.7920  154.7190 O   0  0  0  0  0  0  0  0  0  0  0  0
  162.3400  206.2510  151.7090 C   0  0  0  0  0  0  0  0  0  0  0  0
  158.8170  209.5280  155.0510 C   0  0  0  0  0  1  0  0  0  0  0  0
  160.7890  208.8940  153.6550 C   0  0  2  0  0  3  0  0  0  0  0  0
  160.2240  207.5320  155.2690 N   0  0  0  0  0  2  0  0  0  0  0  0
  161.1980  208.5360  151.3390 C   0  0  1  0  0  3  0  0  0  0  0  0
  160.4510  205.9680  150.1310 N   0  0  0  0  0  2  0  0  0  0  0  0
  160.2950  206.3180  148.7500 C   0  0  0  0  0  0  0  0  0  0  0  0
  159.1390  206.5830  148.3290 O   0  0  0  0  0  0  0  0  0  0  0  0
  161.4160  206.3450  147.7850 C   0  0  0  0  0  0  0  0  0  0  0  0
  161.6210  207.4120  147.0160 C   0  0  0  0  0  2  0  0  0  0  0  0
  162.2090  205.1890  147.6770 O   0  0  0  0  0  0  0  0  0  0  0  0
  161.1720  203.0500  148.3860 N   0  0  0  0  0  2  0  0  0  0  0  0
  161.7750  203.8860  147.3910 C   0  0  0  0  0  0  0  0  0  0  0  0
  161.9230  203.4480  146.2190 O   0  0  0  0  0  0  0  0  0  0  0  0
  160.6830  201.7100  148.1020 C   0  0  0  0  0  2  0  0  0  0  0  0
  160.8810  201.7300  150.5730 C   0  0  0  0  0  1  0  0  0  0  0  0
  160.2480  201.0300  149.3890 C   0  0  0  0  0  2  0  0  0  0  0  0
  162.2370  209.3250  150.5320 C   0  0  1  0  0  3  0  0  0  0  0  0
  163.0130  208.4380  149.8030 F   0  0  0  0  0  0  0  0  0  0  0  0
  162.3100  211.4300  147.7160 O   0  0  0  0  0  0  0  0  0  0  0  0
  161.5770  210.3190  149.5690 C   0  0  1  0  0  3  0  0  0  0  0  0
  161.8470  211.7360  149.9830 C   0  0  1  0  0  3  0  0  0  0  0  0
  162.6200  212.2540  148.8050 C   0  0  0  0  0  2  0  0  0  0  0  0
  162.1500  210.1810  148.2380 N   0  0  0  0  0  2  0  0  0  0  0  0
  160.5220  212.4730  150.1070 C   0  0  0  0  0  2  0  0  0  0  0  0
  160.3640  213.0510  151.5030 C   0  0  0  0  0  2  0  0  0  0  0  0
  158.2050  211.6740  152.2440 O   0  0  0  0  0  0  0  0  0  0  0  0
  157.8320  213.6560  150.8420 O   0  0  0  0  0  0  0  0  0  0  0  0
  158.6470  213.0820  151.9650 S   0  0  0  0  0  0  0  0  0  0  0  0
  158.9720  213.6750  154.6590 C   0  0  0  0  0  0  0  0  0  0  0  0
  158.4430  214.0530  153.3870 N   0  0  0  0  0  2  0  0  0  0  0  0
  158.6850  214.4500  155.7770 O   0  0  0  0  0  1  0  0  0  0  0  0
  159.6910  212.6410  154.7790 O   0  0  0  0  0  0  0  0  0  0  0  0
  1  8  2  0  0  0  0
  1 12  1  0  0  0  0
  2  4  1  0  0  0  0
  4 11  1  0  0  0  0
  4  1  1  6  0  0  0
  6  9  1  0  0  0  0
  7 10  1  0  0  0  0
  7 12  1  0  0  0  0
  9  2  1  0  0  0  0
  9  5  2  0  0  0  0
 11  3  1  6  0  0  0
 11  7  1  0  0  0  0
 13 26  1  1  0  0  0
 13  2  1  0  0  0  0
 13  3  1  0  0  0  0
 14  6  1  0  0  0  0
 15 14  1  0  0  0  0
 16 15  2  0  0  0  0
 17 15  1  0  0  0  0
 18 17  2  0  0  0  0
 19 17  1  0  0  0  0
 21 19  1  0  0  0  0
 21 20  1  0  0  0  0
 22 21  2  0  0  0  0
 23 20  1  0  0  0  0
 23 25  1  0  0  0  0
 25 24  1  0  0  0  0
 26 27  1  6  0  0  0
 28 32  1  0  0  0  0
 28 31  1  0  0  0  0
 29 30  1  0  0  0  0
 29 26  1  1  0  0  0
 30 33  1  6  0  0  0
 31 30  1  0  0  0  0
 32 29  1  0  0  0  0
 33 34  1  0  0  0  0
 34 37  1  0  0  0  0
 36 37  2  0  0  0  0
 37 35  2  0  0  0  0
 37 39  1  0  0  0  0
 38 41  2  0  0  0  0
 38 40  1  0  0  0  0
 39 38  1  0  0  0  0
M  END
>  <MODEL>
7

>  <REMARK>
 VINA RESULT:      -3.3      3.209      7.878
  Name = 
  12 active torsions:
  status: ('A' for Active; 'I' for Inactive)
    1  A    between atoms: C_1  and  N_29
    2  A    between atoms: C_1  and  C_38
    3  A    between atoms: N_2  and  N_15
    4  A    between atoms: O_3  and  C_12
    5  A    between atoms: O_3  and  C_31
    6  A    between atoms: C_12  and  C_27
    7  A    between atoms: N_13  and  S_33
    8  A    between atoms: C_14  and  C_24
    9  A    between atoms: C_17  and  C_34
   10  A    between atoms: C_19  and  S_33
   11  A    between atoms: C_19  and  C_34
   12  A    between atoms: C_24  and  C_37
                            x       y       z     vdW  Elec       q    Type
                         _______ _______ _______ _____ _____    ______ ____

>  <TORSDO>
F 12

$$$$
=
 OpenBabel11052412153D

 41 43  0  0  1  0  0  0  0  0999 V2000
  160.4150  208.2340  155.4410 C   0  0  0  0  0  0  0  0  0  0  0  0
  161.4370  208.2960  153.1400 N   0  0  0  0  0  0  0  0  0  0  0  0
  159.9930  210.1620  152.6420 C   0  0  0  0  0  2  0  0  0  0  0  0
  160.9550  208.8720  154.3400 C   0  0  1  0  0  3  0  0  0  0  0  0
  162.9350  206.6560  153.8290 O   0  0  0  0  0  0  0  0  0  0  0  0
  161.5160  206.0260  152.1100 N   0  0  0  0  0  2  0  0  0  0  0  0
  159.1420  209.9050  155.0220 N   0  0  0  0  0  0  0  0  0  0  0  0
  160.8070  207.1410  155.9310 O   0  0  0  0  0  0  0  0  0  0  0  0
  162.0070  206.9850  153.0470 C   0  0  0  0  0  0  0  0  0  0  0  0
  157.9430  210.7270  154.9950 C   0  0  0  0  0  1  0  0  0  0  0  0
  160.1250  209.9040  154.1020 C   0  0  2  0  0  3  0  0  0  0  0  0
  159.3170  208.8920  155.8610 N   0  0  0  0  0  2  0  0  0  0  0  0
  160.9150  209.0830  152.0130 C   0  0  1  0  0  3  0  0  0  0  0  0
  160.4080  206.2840  151.2880 N   0  0  0  0  0  2  0  0  0  0  0  0
  160.4330  206.1450  149.8620 C   0  0  0  0  0  0  0  0  0  0  0  0
  159.3520  206.2800  149.2320 O   0  0  0  0  0  0  0  0  0  0  0  0
  161.6540  205.8130  149.0970 C   0  0  0  0  0  0  0  0  0  0  0  0
  162.3950  206.7750  148.5530 C   0  0  0  0  0  2  0  0  0  0  0  0
  161.9620  204.4520  148.9240 O   0  0  0  0  0  0  0  0  0  0  0  0
  161.5610  204.0600  146.5080 N   0  0  0  0  0  2  0  0  0  0  0  0
  161.5580  203.6180  147.8710 C   0  0  0  0  0  0  0  0  0  0  0  0
  161.1860  202.4450  148.1420 O   0  0  0  0  0  0  0  0  0  0  0  0
  161.1800  203.2010  145.3970 C   0  0  0  0  0  2  0  0  0  0  0  0
  160.9100  205.2180  143.9820 C   0  0  0  0  0  1  0  0  0  0  0  0
  160.2450  203.9440  144.4600 C   0  0  0  0  0  2  0  0  0  0  0  0
  162.0640  209.7310  151.2300 C   0  0  1  0  0  3  0  0  0  0  0  0
  162.9980  208.7580  150.9080 F   0  0  0  0  0  0  0  0  0  0  0  0
  162.5930  210.9690  147.9810 O   0  0  0  0  0  0  0  0  0  0  0  0
  161.5700  210.3950  149.9390 C   0  0  1  0  0  3  0  0  0  0  0  0
  161.7890  211.8790  149.9740 C   0  0  1  0  0  3  0  0  0  0  0  0
  162.7390  212.0730  148.8290 C   0  0  0  0  0  2  0  0  0  0  0  0
  162.3410  209.9100  148.8020 N   0  0  0  0  0  2  0  0  0  0  0  0
  160.4680  212.5770  149.6850 C   0  0  0  0  0  2  0  0  0  0  0  0
  160.2570  213.7340  150.6460 C   0  0  0  0  0  2  0  0  0  0  0  0
  158.6020  214.4290  152.6170 O   0  0  0  0  0  0  0  0  0  0  0  0
  158.1890  212.2660  151.5300 O   0  0  0  0  0  0  0  0  0  0  0  0
  158.6080  213.6910  151.3090 S   0  0  0  0  0  0  0  0  0  0  0  0
  156.8890  213.7480  149.1290 C   0  0  0  0  0  0  0  0  0  0  0  0
  157.5130  214.4530  150.2020 N   0  0  0  0  0  2  0  0  0  0  0  0
  156.1010  214.4440  148.2180 O   0  0  0  0  0  0  0  0  0  0  0  0
  157.0500  212.5010  148.9940 O   0  0  0  0  0  1  0  0  0  0  0  0
  1 12  1  0  0  0  0
  1  8  2  0  0  0  0
  2  4  1  0  0  0  0
  4  1  1  6  0  0  0
  6  9  1  0  0  0  0
  7 12  1  0  0  0  0
  9  2  1  0  0  0  0
  9  5  2  0  0  0  0
 10  7  1  0  0  0  0
 11  3  1  6  0  0  0
 11  4  1  0  0  0  0
 11  7  1  0  0  0  0
 13 26  1  1  0  0  0
 13  3  1  0  0  0  0
 13  2  1  0  0  0  0
 14  6  1  0  0  0  0
 15 14  1  0  0  0  0
 16 15  2  0  0  0  0
 17 15  1  0  0  0  0
 18 17  2  0  0  0  0
 19 17  1  0  0  0  0
 20 21  1  0  0  0  0
 21 22  2  0  0  0  0
 21 19  1  0  0  0  0
 23 20  1  0  0  0  0
 24 25  1  0  0  0  0
 25 23  1  0  0  0  0
 26 27  1  6  0  0  0
 28 32  1  0  0  0  0
 28 31  1  0  0  0  0
 29 30  1  0  0  0  0
 29 26  1  1  0  0  0
 30 33  1  6  0  0  0
 31 30  1  0  0  0  0
 32 29  1  0  0  0  0
 33 34  1  0  0  0  0
 34 37  1  0  0  0  0
 37 36  2  0  0  0  0
 37 35  2  0  0  0  0
 38 39  1  0  0  0  0
 39 37  1  0  0  0  0
 40 38  2  0  0  0  0
 41 38  1  0  0  0  0
M  END
>  <MODEL>
8

>  <REMARK>
 VINA RESULT:      -3.2      3.076      6.969
  Name = 
  12 active torsions:
  status: ('A' for Active; 'I' for Inactive)
    1  A    between atoms: C_1  and  N_29
    2  A    between atoms: C_1  and  C_38
    3  A    between atoms: N_2  and  N_15
    4  A    between atoms: O_3  and  C_12
    5  A    between atoms: O_3  and  C_31
    6  A    between atoms: C_12  and  C_27
    7  A    between atoms: N_13  and  S_33
    8  A    between atoms: C_14  and  C_24
    9  A    between atoms: C_17  and  C_34
   10  A    between atoms: C_19  and  S_33
   11  A    between atoms: C_19  and  C_34
   12  A    between atoms: C_24  and  C_37
                            x       y       z     vdW  Elec       q    Type
                         _______ _______ _______ _____ _____    ______ ____

>  <TORSDO>
F 12

$$$$
=
 OpenBabel11052412153D

 41 43  0  0  1  0  0  0  0  0999 V2000
  160.8090  208.1690  154.5430 C   0  0  0  0  0  0  0  0  0  0  0  0
  161.7040  208.3470  152.1960 N   0  0  0  0  0  0  0  0  0  0  0  0
  160.3660  210.3350  151.9280 C   0  0  0  0  0  2  0  0  0  0  0  0
  161.3290  208.8560  153.4630 C   0  0  1  0  0  3  0  0  0  0  0  0
  163.1230  206.5650  152.6690 O   0  0  0  0  0  0  0  0  0  0  0  0
  161.5720  206.1650  150.9950 N   0  0  0  0  0  2  0  0  0  0  0  0
  159.6320  209.9460  154.3280 N   0  0  0  0  0  0  0  0  0  0  0  0
  161.1510  207.0180  154.9260 O   0  0  0  0  0  0  0  0  0  0  0  0
  162.1770  207.0130  151.9710 C   0  0  0  0  0  0  0  0  0  0  0  0
  158.4910  210.8410  154.4350 C   0  0  0  0  0  1  0  0  0  0  0  0
  160.5610  209.9550  153.3530 C   0  0  2  0  0  3  0  0  0  0  0  0
  159.7830  208.8600  155.0770 N   0  0  0  0  0  2  0  0  0  0  0  0
  161.1770  209.2520  151.1650 C   0  0  1  0  0  3  0  0  0  0  0  0
  160.4410  206.5580  150.2640 N   0  0  0  0  0  2  0  0  0  0  0  0
  160.3830  206.5460  148.8320 C   0  0  0  0  0  0  0  0  0  0  0  0
  159.2820  206.7970  148.2770 O   0  0  0  0  0  0  0  0  0  0  0  0
  161.5410  206.2160  147.9730 C   0  0  0  0  0  0  0  0  0  0  0  0
  162.7130  206.8180  148.1560 C   0  0  0  0  0  2  0  0  0  0  0  0
  161.3350  205.2930  146.9320 O   0  0  0  0  0  0  0  0  0  0  0  0
  161.1420  203.2140  148.2690 N   0  0  0  0  0  2  0  0  0  0  0  0
  161.3430  203.8930  147.0240 C   0  0  0  0  0  0  0  0  0  0  0  0
  161.5300  203.2230  145.9740 O   0  0  0  0  0  0  0  0  0  0  0  0
  161.1100  201.7640  148.3830 C   0  0  0  0  0  2  0  0  0  0  0  0
  161.1670  202.0180  150.8480 C   0  0  0  0  0  1  0  0  0  0  0  0
  160.4500  201.3570  149.6880 C   0  0  0  0  0  2  0  0  0  0  0  0
  162.3230  209.8850  150.3650 C   0  0  1  0  0  3  0  0  0  0  0  0
  163.1150  208.8790  149.8350 F   0  0  0  0  0  0  0  0  0  0  0  0
  162.7510  211.5810  147.3150 O   0  0  0  0  0  0  0  0  0  0  0  0
  161.8020  210.7650  149.2230 C   0  0  1  0  0  3  0  0  0  0  0  0
  162.1120  212.2130  149.4680 C   0  0  1  0  0  3  0  0  0  0  0  0
  163.0090  212.5320  148.3080 C   0  0  0  0  0  2  0  0  0  0  0  0
  162.4800  210.4220  147.9800 N   0  0  0  0  0  2  0  0  0  0  0  0
  160.8220  213.0150  149.3700 C   0  0  0  0  0  2  0  0  0  0  0  0
  159.7890  212.2600  148.5510 C   0  0  0  0  0  2  0  0  0  0  0  0
  160.1650  214.4510  147.0800 O   0  0  0  0  0  0  0  0  0  0  0  0
  157.9680  213.3660  146.9150 O   0  0  0  0  0  0  0  0  0  0  0  0
  159.4460  213.1330  147.0400 S   0  0  0  0  0  0  0  0  0  0  0  0
  159.7570  212.5850  144.3350 C   0  0  0  0  0  0  0  0  0  0  0  0
  160.0050  212.2020  145.6890 N   0  0  0  0  0  2  0  0  0  0  0  0
  160.1470  211.7390  143.3030 O   0  0  0  0  0  0  0  0  0  0  0  0
  159.1820  213.6790  144.0670 O   0  0  0  0  0  1  0  0  0  0  0  0
  1  8  2  0  0  0  0
  1 12  1  0  0  0  0
  2  4  1  0  0  0  0
  4  1  1  6  0  0  0
  6  9  1  0  0  0  0
  7 10  1  0  0  0  0
  7 12  1  0  0  0  0
  9  2  1  0  0  0  0
  9  5  2  0  0  0  0
 11  3  1  6  0  0  0
 11  4  1  0  0  0  0
 11  7  1  0  0  0  0
 13 26  1  1  0  0  0
 13  3  1  0  0  0  0
 13  2  1  0  0  0  0
 14  6  1  0  0  0  0
 15 14  1  0  0  0  0
 16 15  2  0  0  0  0
 17 18  2  0  0  0  0
 17 15  1  0  0  0  0
 19 21  1  0  0  0  0
 19 17  1  0  0  0  0
 20 23  1  0  0  0  0
 21 20  1  0  0  0  0
 22 21  2  0  0  0  0
 23 25  1  0  0  0  0
 25 24  1  0  0  0  0
 26 27  1  6  0  0  0
 28 32  1  0  0  0  0
 28 31  1  0  0  0  0
 29 30  1  0  0  0  0
 29 26  1  1  0  0  0
 30 33  1  6  0  0  0
 31 30  1  0  0  0  0
 32 29  1  0  0  0  0
 34 33  1  0  0  0  0
 36 37  2  0  0  0  0
 37 35  2  0  0  0  0
 37 34  1  0  0  0  0
 38 39  1  0  0  0  0
 39 37  1  0  0  0  0
 40 38  2  0  0  0  0
 41 38  1  0  0  0  0
M  END
>  <MODEL>
9

>  <REMARK>
 VINA RESULT:      -3.1      3.126      6.968
  Name = 
  12 active torsions:
  status: ('A' for Active; 'I' for Inactive)
    1  A    between atoms: C_1  and  N_29
    2  A    between atoms: C_1  and  C_38
    3  A    between atoms: N_2  and  N_15
    4  A    between atoms: O_3  and  C_12
    5  A    between atoms: O_3  and  C_31
    6  A    between atoms: C_12  and  C_27
    7  A    between atoms: N_13  and  S_33
    8  A    between atoms: C_14  and  C_24
    9  A    between atoms: C_17  and  C_34
   10  A    between atoms: C_19  and  S_33
   11  A    between atoms: C_19  and  C_34
   12  A    between atoms: C_24  and  C_37
                            x       y       z     vdW  Elec       q    Type
                         _______ _______ _______ _____ _____    ______ ____

>  <TORSDO>
F 12

$$$$
