=
 OpenBabel11042422383D

 33 36  0  0  1  0  0  0  0  0999 V2000
  161.4890  208.9350  152.7250 C   0  0  0  0  0  0  0  0  0  0  0  0
  156.2050  211.8410  156.8400 C   0  0  0  0  0  1  0  0  0  0  0  0
  157.4240  211.1750  156.3000 C   0  0  0  0  0  0  0  0  0  0  0  0
  157.4330  210.6840  154.8680 C   0  0  2  0  0  3  0  0  0  0  0  0
  159.6830  210.4630  156.5960 C   0  0  0  0  0  0  0  0  0  0  0  0
  161.3720  205.9350  153.1360 O   0  0  0  0  0  0  0  0  0  0  0  0
  159.6220  209.6190  155.3860 C   0  0  0  0  0  0  0  0  0  0  0  0
  162.0940  209.4210  155.4850 C   0  0  1  0  0  3  0  0  0  0  0  0
  162.0310  209.8850  156.9520 C   0  0  0  0  0  2  0  0  0  0  0  0
  160.7900  210.6030  157.2610 N   0  0  0  0  0  0  0  0  0  0  0  0
  162.2880  211.7990  154.9350 O   0  0  0  0  0  1  0  0  0  0  0  0
  162.2530  205.9920  150.8850 C   0  0  0  0  0  2  0  0  0  0  0  0
  161.9050  210.3500  153.0700 C   0  0  0  0  0  2  0  0  0  0  0  0
  158.5000  211.1440  157.0280 N   0  0  0  0  0  0  0  0  0  0  0  0
  161.1360  205.5190  151.8190 C   0  0  1  0  0  3  0  0  0  0  0  0
  158.5340  209.6870  154.6100 C   0  0  0  0  0  3  0  0  0  0  0  0
  157.6190  211.8740  153.9430 C   0  0  0  0  0  1  0  0  0  0  0  0
  161.6520  208.4380  151.2970 C   0  0  1  0  0  3  0  0  0  0  0  0
  160.7890  208.7030  155.1020 C   0  0  2  0  0  3  0  0  0  0  0  0
  160.8810  208.1870  153.6860 C   0  0  0  0  0  0  0  0  0  0  0  0
  160.3290  206.8230  153.4170 C   0  0  0  0  0  2  0  0  0  0  0  0
  162.5370  210.5080  154.4640 C   0  0  2  0  0  3  0  0  0  0  0  0
  161.9320  209.4900  150.4140 O   0  0  0  0  0  1  0  0  0  0  0  0
  162.7700  207.4020  151.2150 C   0  0  0  0  0  2  0  0  0  0  0  0
  161.3130  203.3220  150.6170 N   0  0  0  0  0  2  0  0  0  0  0  0
  160.9430  204.0360  151.7970 C   0  0  0  0  0  0  0  0  0  0  0  0
  160.3950  203.4350  152.7600 O   0  0  0  0  0  0  0  0  0  0  0  0
  160.8650  201.9640  150.3300 C   0  0  0  0  0  2  0  0  0  0  0  0
  160.0390  201.9160  149.0530 C   0  0  2  0  0  3  0  0  0  0  0  0
  158.8400  201.1230  149.2630 N   0  0  0  0  0  1  0  0  0  0  0  0
  160.8530  201.3220  147.9500 C   0  0  0  0  0  0  0  0  0  0  0  0
  160.8280  201.8740  146.6700 O   0  0  0  0  0  0  0  0  0  0  0  0
  161.5650  200.3100  148.1790 O   0  0  0  0  0  1  0  0  0  0  0  0
  1 13  1  0  0  0  0
  1 20  2  0  0  0  0
  3  2  1  0  0  0  0
  3 14  2  0  0  0  0
  4 17  1  6  0  0  0
  4  3  1  0  0  0  0
  5 14  1  0  0  0  0
  5 10  2  0  0  0  0
  6 21  1  0  0  0  0
  7  5  1  0  0  0  0
  8  9  1  1  0  0  0
  9 10  1  0  0  0  0
 12 24  1  0  0  0  0
 12 15  1  0  0  0  0
 13 22  1  0  0  0  0
 15 26  1  1  0  0  0
 15  6  1  0  0  0  0
 16  4  1  0  0  0  0
 16  7  2  0  0  0  0
 18 23  1  6  0  0  0
 18  1  1  0  0  0  0
 19 20  1  6  0  0  0
 19  7  1  0  0  0  0
 19  8  1  0  0  0  0
 21 20  1  0  0  0  0
 22 11  1  1  0  0  0
 22  8  1  0  0  0  0
 24 18  1  0  0  0  0
 25 26  1  0  0  0  0
 26 27  2  0  0  0  0
 28 25  1  0  0  0  0
 29 30  1  1  0  0  0
 29 28  1  0  0  0  0
 31 33  1  0  0  0  0
 31 29  1  0  0  0  0
 32 31  2  0  0  0  0
M  END
>  <MODEL>
1

>  <REMARK>
 VINA RESULT:      -4.0      0.000      0.000
  Name = 
  4 active torsions:
  status: ('A' for Active; 'I' for Inactive)
    1  A    between atoms: CA_3  and  C_15
    2  A    between atoms: CA_3  and  C_28
    3  A    between atoms: C_17  and  C_20
    4  A    between atoms: N_19  and  C_28
                            x       y       z     vdW  Elec       q    Type
                         _______ _______ _______ _____ _____    ______ ____

>  <TORSDO>
F 4

$$$$
=
 OpenBabel11042422383D

 33 36  0  0  1  0  0  0  0  0999 V2000
  161.5770  209.4240  152.5680 C   0  0  0  0  0  0  0  0  0  0  0  0
  156.0800  211.9360  156.6640 C   0  0  0  0  0  1  0  0  0  0  0  0
  157.3010  211.2800  156.1180 C   0  0  0  0  0  0  0  0  0  0  0  0
  157.4380  211.0800  154.6230 C   0  0  2  0  0  3  0  0  0  0  0  0
  159.4580  210.3220  156.4780 C   0  0  0  0  0  0  0  0  0  0  0  0
  161.2050  206.4250  152.3430 O   0  0  0  0  0  0  0  0  0  0  0  0
  159.4750  209.7400  155.1210 C   0  0  0  0  0  0  0  0  0  0  0  0
  161.8990  209.3020  155.4150 C   0  0  1  0  0  3  0  0  0  0  0  0
  161.7050  209.4730  156.9320 C   0  0  0  0  0  2  0  0  0  0  0  0
  160.4910  210.2270  157.2610 N   0  0  0  0  0  0  0  0  0  0  0  0
  162.3200  211.7140  155.3840 O   0  0  0  0  0  1  0  0  0  0  0  0
  162.3350  206.8410  150.2470 C   0  0  0  0  0  2  0  0  0  0  0  0
  162.0480  210.6990  153.2340 C   0  0  0  0  0  2  0  0  0  0  0  0
  158.2850  211.0090  156.9250 N   0  0  0  0  0  0  0  0  0  0  0  0
  161.0900  206.2980  150.9530 C   0  0  1  0  0  3  0  0  0  0  0  0
  158.4880  210.0570  154.2750 C   0  0  0  0  0  3  0  0  0  0  0  0
  157.8090  212.4070  153.9850 C   0  0  0  0  0  1  0  0  0  0  0  0
  161.8630  209.2030  151.0910 C   0  0  1  0  0  3  0  0  0  0  0  0
  160.5990  208.7950  154.7690 C   0  0  2  0  0  3  0  0  0  0  0  0
  160.8140  208.5600  153.2930 C   0  0  0  0  0  0  0  0  0  0  0  0
  160.2010  207.3320  152.6990 C   0  0  0  0  0  2  0  0  0  0  0  0
  162.5290  210.5230  154.6840 C   0  0  2  0  0  3  0  0  0  0  0  0
  162.3140  210.3790  150.4730 O   0  0  0  0  0  1  0  0  0  0  0  0
  162.9090  208.1060  150.9070 C   0  0  0  0  0  2  0  0  0  0  0  0
  161.2810  204.3620  149.3670 N   0  0  0  0  0  2  0  0  0  0  0  0
  160.7970  204.8720  150.6100 C   0  0  0  0  0  0  0  0  0  0  0  0
  160.0760  204.1560  151.3560 O   0  0  0  0  0  0  0  0  0  0  0  0
  160.7830  203.1330  148.7590 C   0  0  0  0  0  2  0  0  0  0  0  0
  161.5300  202.8140  147.4730 C   0  0  2  0  0  3  0  0  0  0  0  0
  161.3960  203.9110  146.5320 N   0  0  0  0  0  1  0  0  0  0  0  0
  160.9820  201.5600  146.8710 C   0  0  0  0  0  0  0  0  0  0  0  0
  161.1480  200.3330  147.5110 O   0  0  0  0  0  1  0  0  0  0  0  0
  160.3690  201.6140  145.7740 O   0  0  0  0  0  0  0  0  0  0  0  0
  1 13  1  0  0  0  0
  1 20  2  0  0  0  0
  3  2  1  0  0  0  0
  3 14  2  0  0  0  0
  4 17  1  6  0  0  0
  4  3  1  0  0  0  0
  5 14  1  0  0  0  0
  5 10  2  0  0  0  0
  6 21  1  0  0  0  0
  7  5  1  0  0  0  0
  8  9  1  1  0  0  0
  9 10  1  0  0  0  0
 12 24  1  0  0  0  0
 12 15  1  0  0  0  0
 13 22  1  0  0  0  0
 15 26  1  1  0  0  0
 15  6  1  0  0  0  0
 16  4  1  0  0  0  0
 16  7  2  0  0  0  0
 18 23  1  1  0  0  0
 18  1  1  0  0  0  0
 19 20  1  6  0  0  0
 19  7  1  0  0  0  0
 19  8  1  0  0  0  0
 21 20  1  0  0  0  0
 22 11  1  1  0  0  0
 22  8  1  0  0  0  0
 24 18  1  0  0  0  0
 25 26  1  0  0  0  0
 26 27  2  0  0  0  0
 28 25  1  0  0  0  0
 29 30  1  6  0  0  0
 29 28  1  0  0  0  0
 31 29  1  0  0  0  0
 31 32  1  0  0  0  0
 33 31  2  0  0  0  0
M  END
>  <MODEL>
2

>  <REMARK>
 VINA RESULT:      -3.7      1.128      1.361
  Name = 
  4 active torsions:
  status: ('A' for Active; 'I' for Inactive)
    1  A    between atoms: CA_3  and  C_15
    2  A    between atoms: CA_3  and  C_28
    3  A    between atoms: C_17  and  C_20
    4  A    between atoms: N_19  and  C_28
                            x       y       z     vdW  Elec       q    Type
                         _______ _______ _______ _____ _____    ______ ____

>  <TORSDO>
F 4

$$$$
=
 OpenBabel11042422383D

 33 36  0  0  1  0  0  0  0  0999 V2000
  159.8580  211.8740  152.5310 C   0  0  0  0  0  0  0  0  0  0  0  0
  154.1460  210.9880  156.9920 C   0  0  0  0  0  1  0  0  0  0  0  0
  155.4900  211.1420  156.3680 C   0  0  0  0  0  0  0  0  0  0  0  0
  155.6520  210.9230  154.8780 C   0  0  2  0  0  3  0  0  0  0  0  0
  157.8030  211.6950  156.5730 C   0  0  0  0  0  0  0  0  0  0  0  0
  161.3540  209.2400  152.4870 O   0  0  0  0  0  0  0  0  0  0  0  0
  158.1060  211.1140  155.2490 C   0  0  0  0  0  0  0  0  0  0  0  0
  160.3160  212.2370  155.3390 C   0  0  1  0  0  3  0  0  0  0  0  0
  160.1270  212.4010  156.8580 C   0  0  0  0  0  2  0  0  0  0  0  0
  158.7200  212.3080  157.2600 N   0  0  0  0  0  0  0  0  0  0  0  0
  159.2010  214.4080  155.1530 O   0  0  0  0  0  1  0  0  0  0  0  0
  161.9120  210.0480  150.2780 C   0  0  0  0  0  2  0  0  0  0  0  0
  159.4970  213.2350  153.0890 C   0  0  0  0  0  2  0  0  0  0  0  0
  156.4740  211.5870  157.0920 N   0  0  0  0  0  0  0  0  0  0  0  0
  161.2760  208.9390  151.1210 C   0  0  1  0  0  3  0  0  0  0  0  0
  157.0900  210.6990  154.4840 C   0  0  0  0  0  3  0  0  0  0  0  0
  155.1220  212.1420  154.1450 C   0  0  0  0  0  1  0  0  0  0  0  0
  160.1530  211.7300  151.0470 C   0  0  1  0  0  3  0  0  0  0  0  0
  159.5550  210.9970  154.8420 C   0  0  2  0  0  3  0  0  0  0  0  0
  159.8010  210.7990  153.3650 C   0  0  0  0  0  0  0  0  0  0  0  0
  160.0240  209.3980  152.8900 C   0  0  0  0  0  2  0  0  0  0  0  0
  160.0520  213.5170  154.4960 C   0  0  2  0  0  3  0  0  0  0  0  0
  159.7780  212.8780  150.3340 O   0  0  0  0  0  1  0  0  0  0  0  0
  161.6380  211.4610  150.8200 C   0  0  0  0  0  2  0  0  0  0  0  0
  161.1600  206.4370  151.2940 N   0  0  0  0  0  2  0  0  0  0  0  0
  161.8840  207.5950  150.8750 C   0  0  0  0  0  0  0  0  0  0  0  0
  163.0400  207.4810  150.3840 O   0  0  0  0  0  0  0  0  0  0  0  0
  161.7710  205.1200  151.4350 C   0  0  0  0  0  2  0  0  0  0  0  0
  160.7790  204.0160  151.0980 C   0  0  2  0  0  3  0  0  0  0  0  0
  161.0720  202.8270  151.8780 N   0  0  0  0  0  1  0  0  0  0  0  0
  160.8590  203.6980  149.6400 C   0  0  0  0  0  0  0  0  0  0  0  0
  161.0400  204.7120  148.7000 O   0  0  0  0  0  0  0  0  0  0  0  0
  160.7550  202.5040  149.2580 O   0  0  0  0  0  1  0  0  0  0  0  0
  1 13  1  0  0  0  0
  1 20  2  0  0  0  0
  3  2  1  0  0  0  0
  3 14  2  0  0  0  0
  4 17  1  6  0  0  0
  4  3  1  0  0  0  0
  5 14  1  0  0  0  0
  5 10  2  0  0  0  0
  6 21  1  0  0  0  0
  7  5  1  0  0  0  0
  8  9  1  1  0  0  0
  9 10  1  0  0  0  0
 12 24  1  0  0  0  0
 12 15  1  0  0  0  0
 13 22  1  0  0  0  0
 15 26  1  1  0  0  0
 15  6  1  0  0  0  0
 16  4  1  0  0  0  0
 16  7  2  0  0  0  0
 18 23  1  6  0  0  0
 18  1  1  0  0  0  0
 19 20  1  6  0  0  0
 19  7  1  0  0  0  0
 19  8  1  0  0  0  0
 21 20  1  0  0  0  0
 22 11  1  1  0  0  0
 22  8  1  0  0  0  0
 24 18  1  0  0  0  0
 25 28  1  0  0  0  0
 26 25  1  0  0  0  0
 27 26  2  0  0  0  0
 29 28  1  0  0  0  0
 29 30  1  1  0  0  0
 31 29  1  0  0  0  0
 32 31  2  0  0  0  0
 33 31  1  0  0  0  0
M  END
>  <MODEL>
3

>  <REMARK>
 VINA RESULT:      -3.1      2.233      3.243
  Name = 
  4 active torsions:
  status: ('A' for Active; 'I' for Inactive)
    1  A    between atoms: CA_3  and  C_15
    2  A    between atoms: CA_3  and  C_28
    3  A    between atoms: C_17  and  C_20
    4  A    between atoms: N_19  and  C_28
                            x       y       z     vdW  Elec       q    Type
                         _______ _______ _______ _____ _____    ______ ____

>  <TORSDO>
F 4

$$$$
=
 OpenBabel11042422383D

 33 36  0  0  1  0  0  0  0  0999 V2000
  161.6660  209.5400  152.6610 C   0  0  0  0  0  0  0  0  0  0  0  0
  155.9510  212.2150  156.3330 C   0  0  0  0  0  1  0  0  0  0  0  0
  157.1740  211.4990  155.8710 C   0  0  0  0  0  0  0  0  0  0  0  0
  157.4600  211.3900  154.3880 C   0  0  2  0  0  3  0  0  0  0  0  0
  159.1990  210.3440  156.3830 C   0  0  0  0  0  0  0  0  0  0  0  0
  161.0990  206.6040  152.1720 O   0  0  0  0  0  0  0  0  0  0  0  0
  159.3230  209.8550  154.9950 C   0  0  0  0  0  0  0  0  0  0  0  0
  161.6610  209.2000  155.5090 C   0  0  1  0  0  3  0  0  0  0  0  0
  161.3120  209.2850  157.0060 C   0  0  0  0  0  2  0  0  0  0  0  0
  160.1280  210.1120  157.2610 N   0  0  0  0  0  0  0  0  0  0  0  0
  162.2610  211.5660  155.7060 O   0  0  0  0  0  1  0  0  0  0  0  0
  162.4830  207.0650  150.2450 C   0  0  0  0  0  2  0  0  0  0  0  0
  162.1550  210.7240  153.4680 C   0  0  0  0  0  2  0  0  0  0  0  0
  158.0380  211.0940  156.7540 N   0  0  0  0  0  0  0  0  0  0  0  0
  161.1300  206.5800  150.7720 C   0  0  1  0  0  3  0  0  0  0  0  0
  158.4630  210.3090  154.0760 C   0  0  0  0  0  3  0  0  0  0  0  0
  157.9980  212.7210  153.8950 C   0  0  0  0  0  1  0  0  0  0  0  0
  162.0980  209.3960  151.2110 C   0  0  1  0  0  3  0  0  0  0  0  0
  160.4060  208.8470  154.6940 C   0  0  2  0  0  3  0  0  0  0  0  0
  160.7650  208.6950  153.2340 C   0  0  0  0  0  0  0  0  0  0  0  0
  160.1330  207.5640  152.4880 C   0  0  0  0  0  2  0  0  0  0  0  0
  162.4570  210.4110  154.9440 C   0  0  2  0  0  3  0  0  0  0  0  0
  162.7010  210.5690  150.7350 O   0  0  0  0  0  1  0  0  0  0  0  0
  163.0730  208.2310  151.0550 C   0  0  0  0  0  2  0  0  0  0  0  0
  160.9770  204.8990  148.9140 N   0  0  0  0  0  2  0  0  0  0  0  0
  160.7720  205.2100  150.2920 C   0  0  0  0  0  0  0  0  0  0  0  0
  160.2280  204.3710  151.0610 O   0  0  0  0  0  0  0  0  0  0  0  0
  160.3620  203.7550  148.2520 C   0  0  0  0  0  2  0  0  0  0  0  0
  161.2170  202.5060  148.4040 C   0  0  2  0  0  3  0  0  0  0  0  0
  161.3930  201.8600  147.1160 N   0  0  0  0  0  1  0  0  0  0  0  0
  160.5620  201.5620  149.3590 C   0  0  0  0  0  0  0  0  0  0  0  0
  159.1740  201.4270  149.3870 O   0  0  0  0  0  0  0  0  0  0  0  0
  161.2700  200.8860  150.1500 O   0  0  0  0  0  1  0  0  0  0  0  0
  1 20  2  0  0  0  0
  1 13  1  0  0  0  0
  3  2  1  0  0  0  0
  3 14  2  0  0  0  0
  4 17  1  1  0  0  0
  4  3  1  0  0  0  0
  5 14  1  0  0  0  0
  5 10  2  0  0  0  0
  6 21  1  0  0  0  0
  7  5  1  0  0  0  0
  8  9  1  1  0  0  0
  9 10  1  0  0  0  0
 12 15  1  0  0  0  0
 12 24  1  0  0  0  0
 13 22  1  0  0  0  0
 15 26  1  1  0  0  0
 15  6  1  0  0  0  0
 16  4  1  0  0  0  0
 16  7  2  0  0  0  0
 18 23  1  1  0  0  0
 18  1  1  0  0  0  0
 19 20  1  6  0  0  0
 19  7  1  0  0  0  0
 19  8  1  0  0  0  0
 21 20  1  0  0  0  0
 22  8  1  0  0  0  0
 22 11  1  1  0  0  0
 24 18  1  0  0  0  0
 25 26  1  0  0  0  0
 26 27  2  0  0  0  0
 28 29  1  0  0  0  0
 28 25  1  0  0  0  0
 29 30  1  6  0  0  0
 29 31  1  0  0  0  0
 31 32  2  0  0  0  0
 31 33  1  0  0  0  0
M  END
>  <MODEL>
4

>  <REMARK>
 VINA RESULT:      -2.6      1.360      1.457
  Name = 
  4 active torsions:
  status: ('A' for Active; 'I' for Inactive)
    1  A    between atoms: CA_3  and  C_15
    2  A    between atoms: CA_3  and  C_28
    3  A    between atoms: C_17  and  C_20
    4  A    between atoms: N_19  and  C_28
                            x       y       z     vdW  Elec       q    Type
                         _______ _______ _______ _____ _____    ______ ____

>  <TORSDO>
F 4

$$$$
=
 OpenBabel11042422383D

 33 36  0  0  1  0  0  0  0  0999 V2000
  160.9030  210.5960  154.0020 C   0  0  0  0  0  0  0  0  0  0  0  0
  158.7710  214.4530  148.1820 C   0  0  0  0  0  1  0  0  0  0  0  0
  158.8730  213.6390  149.4260 C   0  0  0  0  0  0  0  0  0  0  0  0
  160.1610  212.9050  149.7340 C   0  0  2  0  0  3  0  0  0  0  0  0
  157.9060  212.8720  151.4690 C   0  0  0  0  0  0  0  0  0  0  0  0
  160.0710  207.7250  153.5050 O   0  0  0  0  0  0  0  0  0  0  0  0
  158.9440  211.8330  151.6220 C   0  0  0  0  0  0  0  0  0  0  0  0
  158.1900  211.5250  153.9660 C   0  0  1  0  0  3  0  0  0  0  0  0
  156.8790  212.2420  153.5960 C   0  0  0  0  0  2  0  0  0  0  0  0
  157.0120  213.0670  152.3910 N   0  0  0  0  0  0  0  0  0  0  0  0
  159.0380  213.7560  154.5130 O   0  0  0  0  0  1  0  0  0  0  0  0
  162.0040  207.3390  154.9050 C   0  0  0  0  0  2  0  0  0  0  0  0
  160.6890  212.0250  154.4540 C   0  0  0  0  0  2  0  0  0  0  0  0
  157.9000  213.6790  150.2870 N   0  0  0  0  0  0  0  0  0  0  0  0
  161.3220  207.0970  153.5560 C   0  0  1  0  0  3  0  0  0  0  0  0
  159.9710  211.8210  150.7650 C   0  0  0  0  0  3  0  0  0  0  0  0
  161.1820  213.9030  150.2500 C   0  0  0  0  0  1  0  0  0  0  0  0
  162.1460  209.8480  154.4560 C   0  0  1  0  0  3  0  0  0  0  0  0
  158.7750  210.8210  152.7300 C   0  0  2  0  0  3  0  0  0  0  0  0
  160.0230  210.0610  153.1120 C   0  0  0  0  0  0  0  0  0  0  0  0
  160.2060  208.7020  152.5140 C   0  0  0  0  0  2  0  0  0  0  0  0
  159.2230  212.3910  154.7440 C   0  0  2  0  0  3  0  0  0  0  0  0
  163.0830  210.7130  155.0400 O   0  0  0  0  0  1  0  0  0  0  0  0
  161.7780  208.7560  155.4580 C   0  0  0  0  0  2  0  0  0  0  0  0
  161.3460  205.2270  151.8800 N   0  0  0  0  0  2  0  0  0  0  0  0
  161.1600  205.6450  153.2330 C   0  0  0  0  0  0  0  0  0  0  0  0
  160.7920  204.8190  154.1110 O   0  0  0  0  0  0  0  0  0  0  0  0
  160.8870  203.9400  151.3710 C   0  0  0  0  0  2  0  0  0  0  0  0
  161.4100  203.6870  149.9650 C   0  0  2  0  0  3  0  0  0  0  0  0
  160.8720  204.6740  149.0460 N   0  0  0  0  0  1  0  0  0  0  0  0
  161.0180  202.3150  149.5230 C   0  0  0  0  0  0  0  0  0  0  0  0
  160.9080  201.2750  150.4440 O   0  0  0  0  0  1  0  0  0  0  0  0
  160.7890  202.0960  148.3050 O   0  0  0  0  0  0  0  0  0  0  0  0
  1 13  1  0  0  0  0
  1 18  1  0  0  0  0
  2  3  1  0  0  0  0
  3  4  1  0  0  0  0
  3 14  2  0  0  0  0
  4 17  1  1  0  0  0
  4 16  1  0  0  0  0
  5  7  1  0  0  0  0
  5 10  2  0  0  0  0
  6 15  1  0  0  0  0
  8  9  1  6  0  0  0
  8 22  1  0  0  0  0
 10  9  1  0  0  0  0
 12 24  1  0  0  0  0
 13 22  1  0  0  0  0
 14  5  1  0  0  0  0
 15 26  1  1  0  0  0
 15 12  1  0  0  0  0
 16  7  2  0  0  0  0
 18 23  1  1  0  0  0
 18 24  1  0  0  0  0
 19  7  1  6  0  0  0
 19 20  1  0  0  0  0
 19  8  1  0  0  0  0
 20  1  2  0  0  0  0
 21 20  1  0  0  0  0
 21  6  1  0  0  0  0
 22 11  1  6  0  0  0
 25 26  1  0  0  0  0
 26 27  2  0  0  0  0
 28 25  1  0  0  0  0
 29 30  1  6  0  0  0
 29 28  1  0  0  0  0
 31 29  1  0  0  0  0
 31 32  1  0  0  0  0
 33 31  2  0  0  0  0
M  END
>  <MODEL>
5

>  <REMARK>
 VINA RESULT:      -1.2      2.963      4.483
  Name = 
  4 active torsions:
  status: ('A' for Active; 'I' for Inactive)
    1  A    between atoms: CA_3  and  C_15
    2  A    between atoms: CA_3  and  C_28
    3  A    between atoms: C_17  and  C_20
    4  A    between atoms: N_19  and  C_28
                            x       y       z     vdW  Elec       q    Type
                         _______ _______ _______ _____ _____    ______ ____

>  <TORSDO>
F 4

$$$$
=
 OpenBabel11042422383D

 33 36  0  0  1  0  0  0  0  0999 V2000
  161.6670  211.0600  149.5360 C   0  0  0  0  0  0  0  0  0  0  0  0
  159.0820  213.7780  143.2720 C   0  0  0  0  0  1  0  0  0  0  0  0
  159.7770  213.5170  144.5640 C   0  0  0  0  0  0  0  0  0  0  0  0
  159.2510  212.4420  145.4910 C   0  0  2  0  0  3  0  0  0  0  0  0
  161.5810  213.9740  146.0590 C   0  0  0  0  0  0  0  0  0  0  0  0
  160.4950  212.7380  151.7700 O   0  0  0  0  0  0  0  0  0  0  0  0
  160.9090  213.2550  147.1600 C   0  0  0  0  0  0  0  0  0  0  0  0
  163.0550  213.3010  148.4060 C   0  0  1  0  0  3  0  0  0  0  0  0
  163.5310  214.4220  147.4640 C   0  0  0  0  0  2  0  0  0  0  0  0
  162.7800  214.4530  146.2050 N   0  0  0  0  0  0  0  0  0  0  0  0
  164.0210  211.7640  146.7630 O   0  0  0  0  0  1  0  0  0  0  0  0
  160.7620  210.6430  152.9470 C   0  0  0  0  0  2  0  0  0  0  0  0
  162.6690  210.7360  148.4480 C   0  0  0  0  0  2  0  0  0  0  0  0
  160.8970  214.1290  144.8110 N   0  0  0  0  0  0  0  0  0  0  0  0
  159.8080  211.7470  152.4840 C   0  0  1  0  0  3  0  0  0  0  0  0
  159.7820  212.5860  146.8950 C   0  0  0  0  0  3  0  0  0  0  0  0
  159.6590  211.0840  144.9460 C   0  0  0  0  0  1  0  0  0  0  0  0
  161.2760  209.9840  150.5350 C   0  0  1  0  0  3  0  0  0  0  0  0
  161.5230  213.3370  148.5370 C   0  0  2  0  0  3  0  0  0  0  0  0
  161.0650  212.2810  149.5170 C   0  0  0  0  0  0  0  0  0  0  0  0
  159.9790  212.6610  150.4730 C   0  0  0  0  0  2  0  0  0  0  0  0
  163.6270  211.8870  148.0970 C   0  0  2  0  0  3  0  0  0  0  0  0
  161.7230  208.7180  150.1300 O   0  0  0  0  0  1  0  0  0  0  0  0
  161.8490  210.3010  151.9150 C   0  0  0  0  0  2  0  0  0  0  0  0
  157.7170  212.8220  153.3650 N   0  0  0  0  0  2  0  0  0  0  0  0
  159.0540  212.3810  153.6090 C   0  0  0  0  0  0  0  0  0  0  0  0
  159.6030  212.5950  154.7230 O   0  0  0  0  0  0  0  0  0  0  0  0
  157.0090  213.7490  154.2410 C   0  0  0  0  0  2  0  0  0  0  0  0
  155.6730  213.1720  154.6860 C   0  0  2  0  0  3  0  0  0  0  0  0
  155.0530  214.0470  155.6650 N   0  0  0  0  0  1  0  0  0  0  0  0
  155.8840  211.8170  155.2790 C   0  0  0  0  0  0  0  0  0  0  0  0
  155.3580  210.6820  154.6640 O   0  0  0  0  0  0  0  0  0  0  0  0
  156.5390  211.7010  156.3470 O   0  0  0  0  0  1  0  0  0  0  0  0
  1 18  1  0  0  0  0
  2  3  1  0  0  0  0
  3 14  2  0  0  0  0
  3  4  1  0  0  0  0
  4 17  1  6  0  0  0
  4 16  1  0  0  0  0
  5 10  2  0  0  0  0
  5  7  1  0  0  0  0
  6 15  1  0  0  0  0
  8  9  1  6  0  0  0
  8 19  1  0  0  0  0
 10  9  1  0  0  0  0
 13  1  1  0  0  0  0
 14  5  1  0  0  0  0
 15 12  1  0  0  0  0
 15 26  1  1  0  0  0
 16  7  2  0  0  0  0
 18 23  1  6  0  0  0
 18 24  1  0  0  0  0
 19  7  1  6  0  0  0
 19 20  1  0  0  0  0
 20  1  2  0  0  0  0
 20 21  1  0  0  0  0
 21  6  1  0  0  0  0
 22 11  1  6  0  0  0
 22  8  1  0  0  0  0
 22 13  1  0  0  0  0
 24 12  1  0  0  0  0
 25 26  1  0  0  0  0
 25 28  1  0  0  0  0
 26 27  2  0  0  0  0
 28 29  1  0  0  0  0
 29 31  1  0  0  0  0
 29 30  1  1  0  0  0
 31 33  1  0  0  0  0
 32 31  2  0  0  0  0
M  END
>  <MODEL>
6

>  <REMARK>
 VINA RESULT:      -1.1      5.783      9.751
  Name = 
  4 active torsions:
  status: ('A' for Active; 'I' for Inactive)
    1  A    between atoms: CA_3  and  C_15
    2  A    between atoms: CA_3  and  C_28
    3  A    between atoms: C_17  and  C_20
    4  A    between atoms: N_19  and  C_28
                            x       y       z     vdW  Elec       q    Type
                         _______ _______ _______ _____ _____    ______ ____

>  <TORSDO>
F 4

$$$$
