=
 OpenBabel11052410183D

 57 59  0  0  1  0  0  0  0  0999 V2000
  162.5820  209.6810  150.3810 C   0  0  0  0  0  2  0  0  0  0  0  0
  161.5660  207.8880  148.8990 C   0  0  1  0  0  3  0  0  0  0  0  0
  161.3890  210.3860  148.2700 C   0  0  2  0  0  3  0  0  0  0  0  0
  162.8260  208.3610  149.6340 C   0  0  0  0  0  2  0  0  0  0  0  0
  161.4260  211.9090  150.4160 C   0  0  1  0  0  3  0  0  0  0  0  0
  160.2990  211.2470  147.6500 C   0  0  0  0  0  2  0  0  0  0  0  0
  160.8100  212.6430  147.2930 C   0  0  1  0  0  3  0  0  0  0  0  0
  161.0140  213.5420  148.5130 C   0  0  0  0  0  2  0  0  0  0  0  0
  161.1970  208.9260  147.8170 C   0  0  0  0  0  2  0  0  0  0  0  0
  161.4220  210.4950  149.8020 C   0  0  2  0  0  3  0  0  0  0  0  0
  162.0330  212.9900  149.5130 C   0  0  0  0  0  2  0  0  0  0  0  0
  162.2590  213.4760  145.3960 C   0  0  0  0  0  0  0  0  0  0  0  0
  161.3820  214.3250  145.0710 O   0  0  0  0  0  0  0  0  0  0  0  0
  162.0170  212.5700  146.4760 N   0  0  0  0  0  2  0  0  0  0  0  0
  163.4730  213.4100  144.7050 O   0  0  0  0  0  0  0  0  0  0  0  0
  163.2440  214.2740  141.2110 O   0  0  0  0  0  0  0  0  0  0  0  0
  163.6730  214.0280  143.4850 N   0  0  0  0  0  2  0  0  0  0  0  0
  163.1090  213.5700  142.2450 C   0  0  0  0  0  0  0  0  0  0  0  0
  162.4510  212.2320  142.1350 C   0  0  0  0  0  2  0  0  0  0  0  0
  159.9370  211.7490  143.4480 O   0  0  0  0  0  1  0  0  0  0  0  0
  160.1100  211.7050  140.8370 O   0  0  0  0  0  0  0  0  0  0  0  0
  160.6430  212.4170  142.0610 P   0  0  0  0  0  0  0  0  0  0  0  0
  160.2510  214.0620  141.9730 O   0  0  0  0  0  1  0  0  0  0  0  0
  161.7720  206.5510  148.3200 N   0  0  0  0  0  0  0  0  0  0  0  0
  161.8240  206.6710  146.8650 C   0  0  0  0  0  2  0  0  0  0  0  0
  160.8070  205.9050  146.2940 O   0  0  0  0  0  1  0  0  0  0  0  0
  160.5780  205.7530  148.5980 C   0  0  0  0  0  2  0  0  0  0  0  0
  160.9590  204.4740  149.3290 C   0  0  2  0  0  3  0  0  0  0  0  0
  162.1240  204.6910  150.0500 F   0  0  0  0  0  0  0  0  0  0  0  0
  161.1720  203.4530  148.4030 O   0  0  0  0  0  0  0  0  0  0  0  0
  161.1580  202.1370  150.8310 O   0  0  0  0  0  1  0  0  0  0  0  0
  161.5120  200.8500  148.5910 O   0  0  0  0  0  0  0  0  0  0  0  0
  160.7530  202.0100  149.1950 P   0  0  0  0  0  0  0  0  0  0  0  0
  159.0860  201.7340  149.0520 O   0  0  0  0  0  1  0  0  0  0  0  0
  160.1560  212.2940  150.8870 O   0  0  0  0  0  0  0  0  0  0  0  0
  160.1230  211.9750  152.2520 C   0  0  0  0  0  2  0  0  0  0  0  0
  159.4900  213.0930  153.0690 C   0  0  1  0  0  3  0  0  0  0  0  0
  158.3230  213.5020  152.4190 O   0  0  0  0  0  1  0  0  0  0  0  0
  159.1650  212.5600  154.4730 C   0  0  1  0  0  3  0  0  0  0  0  0
  160.4150  212.0560  155.1850 C   0  0  0  0  0  2  0  0  0  0  0  0
  160.2300  210.6860  155.6260 N   0  0  0  0  0  2  0  0  0  0  0  0
  162.6310  210.8210  155.8740 C   0  0  0  0  0  1  0  0  0  0  0  0
  161.4740  209.9640  155.3980 C   0  0  1  0  0  3  0  0  0  0  0  0
  161.4670  208.6540  156.1820 C   0  0  0  0  0  2  0  0  0  0  0  0
  160.5450  207.7450  155.5960 O   0  0  0  0  0  0  0  0  0  0  0  0
  161.0020  205.7950  154.3380 N   0  0  0  0  0  0  0  0  0  0  0  0
  160.8310  207.0690  154.4100 C   0  0  0  0  0  0  0  0  0  0  0  0
  161.3410  206.6240  152.1790 N   0  0  0  0  0  0  0  0  0  0  0  0
  161.0010  207.7290  153.0900 C   0  0  0  0  0  3  0  0  0  0  0  0
  161.2940  205.4860  153.0120 N   0  0  0  0  0  2  0  0  0  0  0  0
  158.5430  213.5840  155.3050 N   0  0  0  0  0  2  0  0  0  0  0  0
  157.0520  213.8560  157.1040 O   0  0  0  0  0  1  0  0  0  0  0  0
  157.5170  212.9510  156.1370 C   0  0  1  0  0  3  0  0  0  0  0  0
  156.3470  212.4590  155.2920 C   0  0  1  0  0  3  0  0  0  0  0  0
  155.7320  211.2010  155.8930 C   0  0  0  0  0  1  0  0  0  0  0  0
  155.3000  213.5470  155.1290 C   0  0  0  0  0  2  0  0  0  0  0  0
  155.0570  213.8300  153.6610 C   0  0  0  0  0  1  0  0  0  0  0  0
  2 24  1  6  0  0  0
  2  4  1  0  0  0  0
  3  6  1  1  0  0  0
  3 10  1  0  0  0  0
  4  1  1  0  0  0  0
  5 35  1  6  0  0  0
  7 14  1  1  0  0  0
  7  6  1  0  0  0  0
  7  8  1  0  0  0  0
  8 11  1  0  0  0  0
  9  3  1  0  0  0  0
  9  2  1  0  0  0  0
 10  1  1  6  0  0  0
 10  5  1  0  0  0  0
 11  5  1  0  0  0  0
 12 14  1  0  0  0  0
 13 12  2  0  0  0  0
 15 12  1  0  0  0  0
 16 18  2  0  0  0  0
 17 15  1  0  0  0  0
 18 17  1  0  0  0  0
 19 18  1  0  0  0  0
 21 22  2  0  0  0  0
 22 19  1  0  0  0  0
 22 20  1  0  0  0  0
 23 22  1  0  0  0  0
 24 27  1  0  0  0  0
 25 24  1  0  0  0  0
 26 25  1  0  0  0  0
 27 28  1  0  0  0  0
 28 29  1  6  0  0  0
 30 33  1  0  0  0  0
 30 28  1  0  0  0  0
 32 33  2  0  0  0  0
 33 31  1  0  0  0  0
 34 33  1  0  0  0  0
 35 36  1  0  0  0  0
 36 37  1  0  0  0  0
 37 38  1  6  0  0  0
 37 39  1  0  0  0  0
 39 40  1  1  0  0  0
 39 51  1  0  0  0  0
 40 41  1  0  0  0  0
 43 41  1  0  0  0  0
 43 42  1  1  0  0  0
 43 44  1  0  0  0  0
 45 44  1  0  0  0  0
 46 47  2  0  0  0  0
 47 45  1  0  0  0  0
 48 50  1  0  0  0  0
 48 49  2  0  0  0  0
 49 47  1  0  0  0  0
 50 46  1  0  0  0  0
 51 53  1  0  0  0  0
 53 52  1  1  0  0  0
 54 55  1  1  0  0  0
 54 53  1  0  0  0  0
 56 54  1  0  0  0  0
 57 56  1  0  0  0  0
M  END
>  <MODEL>
1

>  <REMARK>
 VINA RESULT:      -3.1      0.000      0.000
  Name = 
  25 active torsions:
  status: ('A' for Active; 'I' for Inactive)
    1  A    between atoms: C_1  and  C_47
    2  A    between atoms: C_1  and  O_52
    3  A    between atoms: C_2  and  P_48
    4  A    between atoms: C_2  and  C_56
    5  A    between atoms: C_5  and  C_24
    6  A    between atoms: C_5  and  C_43
    7  A    between atoms: C_6  and  N_57
    8  A    between atoms: C_7  and  N_57
    9  A    between atoms: N_9  and  C_15
   10  A    between atoms: N_9  and  C_37
   11  A    between atoms: N_11  and  O_22
   12  A    between atoms: C_15  and  C_21
   13  A    between atoms: N_16  and  C_17
   14  A    between atoms: N_16  and  C_43
   15  A    between atoms: C_17  and  C_18
   16  A    between atoms: C_17  and  C_37
   17  A    between atoms: C_18  and  C_45
   18  A    between atoms: C_21  and  O_39
   19  A    between atoms: O_22  and  C_31
   20  A    between atoms: O_26  and  C_28
   21  A    between atoms: O_26  and  C_45
   22  A    between atoms: C_29  and  O_39
   23  A    between atoms: C_33  and  N_53
   24  A    between atoms: P_34  and  O_52
   25  A    between atoms: C_47  and  N_57
                            x       y       z     vdW  Elec       q    Type
                         _______ _______ _______ _____ _____    ______ ____

>  <TORSDO>
F 25

$$$$
=
 OpenBabel11052410183D

 57 59  0  0  1  0  0  0  0  0999 V2000
  160.3850  208.3580  152.4130 C   0  0  0  0  0  2  0  0  0  0  0  0
  161.4830  209.7250  154.2480 C   0  0  1  0  0  3  0  0  0  0  0  0
  161.6970  210.4170  151.7700 C   0  0  2  0  0  3  0  0  0  0  0  0
  160.1840  209.0770  153.7540 C   0  0  0  0  0  2  0  0  0  0  0  0
  161.5390  208.3240  150.1830 C   0  0  1  0  0  3  0  0  0  0  0  0
  162.8220  211.0000  150.9270 C   0  0  0  0  0  2  0  0  0  0  0  0
  162.3330  211.4280  149.5430 C   0  0  1  0  0  3  0  0  0  0  0  0
  162.0600  210.2480  148.6080 C   0  0  0  0  0  2  0  0  0  0  0  0
  161.9140  210.8140  153.2430 C   0  0  0  0  0  2  0  0  0  0  0  0
  161.5780  208.8940  151.6150 C   0  0  2  0  0  3  0  0  0  0  0  0
  160.9850  209.2920  149.1300 C   0  0  0  0  0  2  0  0  0  0  0  0
  161.0570  213.4990  148.8560 C   0  0  0  0  0  0  0  0  0  0  0  0
  162.0040  213.8590  148.1040 O   0  0  0  0  0  0  0  0  0  0  0  0
  161.1740  212.3090  149.6410 N   0  0  0  0  0  2  0  0  0  0  0  0
  159.8840  214.2580  148.9340 O   0  0  0  0  0  0  0  0  0  0  0  0
  157.2650  213.2390  146.6730 O   0  0  0  0  0  0  0  0  0  0  0  0
  158.6740  213.8150  148.4340 N   0  0  0  0  0  2  0  0  0  0  0  0
  158.3420  213.7790  147.0360 C   0  0  0  0  0  0  0  0  0  0  0  0
  159.2000  214.4530  146.0130 C   0  0  0  0  0  2  0  0  0  0  0  0
  159.0050  213.0470  143.5110 O   0  0  0  0  0  0  0  0  0  0  0  0
  160.0480  211.8910  145.6140 O   0  0  0  0  0  1  0  0  0  0  0  0
  159.9510  213.2240  144.9040 P   0  0  0  0  0  0  0  0  0  0  0  0
  161.5020  213.7400  144.4610 O   0  0  0  0  0  1  0  0  0  0  0  0
  161.3100  210.2740  155.6020 N   0  0  0  0  0  0  0  0  0  0  0  0
  162.0480  209.4390  156.5470 C   0  0  0  0  0  2  0  0  0  0  0  0
  161.8590  208.0930  156.2310 O   0  0  0  0  0  1  0  0  0  0  0  0
  159.9040  210.1230  155.9720 C   0  0  0  0  0  2  0  0  0  0  0  0
  159.1960  211.4680  155.9120 C   0  0  2  0  0  3  0  0  0  0  0  0
  159.6530  212.2700  156.9480 F   0  0  0  0  0  0  0  0  0  0  0  0
  157.8210  211.2780  156.0470 O   0  0  0  0  0  0  0  0  0  0  0  0
  158.2200  213.6890  154.7600 O   0  0  0  0  0  1  0  0  0  0  0  0
  156.6860  213.5090  156.8610 O   0  0  0  0  0  1  0  0  0  0  0  0
  157.1020  212.7560  155.6170 P   0  0  0  0  0  0  0  0  0  0  0  0
  155.7430  212.4770  154.6420 O   0  0  0  0  0  0  0  0  0  0  0  0
  162.7810  207.7930  149.7830 O   0  0  0  0  0  0  0  0  0  0  0  0
  162.5380  207.0390  148.6260 C   0  0  0  0  0  2  0  0  0  0  0  0
  161.7030  205.8040  148.9330 C   0  0  1  0  0  3  0  0  0  0  0  0
  160.3540  206.1570  148.8550 O   0  0  0  0  0  1  0  0  0  0  0  0
  162.0330  204.7120  147.9030 C   0  0  1  0  0  3  0  0  0  0  0  0
  161.0160  203.5780  147.9420 C   0  0  0  0  0  2  0  0  0  0  0  0
  161.5430  202.4490  148.6870 N   0  0  0  0  0  2  0  0  0  0  0  0
  160.1760  200.5950  149.4220 C   0  0  0  0  0  1  0  0  0  0  0  0
  160.5430  202.0460  149.6670 C   0  0  1  0  0  3  0  0  0  0  0  0
  161.1100  202.1880  151.0760 C   0  0  0  0  0  2  0  0  0  0  0  0
  160.4980  203.2890  151.7350 O   0  0  0  0  0  0  0  0  0  0  0  0
  162.3350  204.7790  151.7230 N   0  0  0  0  0  0  0  0  0  0  0  0
  161.2480  204.3420  152.2570 C   0  0  0  0  0  0  0  0  0  0  0  0
  162.0070  206.0400  153.6630 N   0  0  0  0  0  0  0  0  0  0  0  0
  160.9060  205.0760  153.5030 C   0  0  0  0  0  3  0  0  0  0  0  0
  162.8130  205.8090  152.5290 N   0  0  0  0  0  2  0  0  0  0  0  0
  162.0720  205.2480  146.5470 N   0  0  0  0  0  2  0  0  0  0  0  0
  160.3310  206.6530  145.8170 O   0  0  0  0  0  1  0  0  0  0  0  0
  160.7030  205.3160  146.0310 C   0  0  1  0  0  3  0  0  0  0  0  0
  160.5650  204.5320  144.7300 C   0  0  1  0  0  3  0  0  0  0  0  0
  161.3480  205.1990  143.6060 C   0  0  0  0  0  1  0  0  0  0  0  0
  161.0080  203.0900  144.9160 C   0  0  0  0  0  2  0  0  0  0  0  0
  159.8270  202.1520  144.7770 C   0  0  0  0  0  1  0  0  0  0  0  0
  1  4  1  0  0  0  0
  2 24  1  1  0  0  0
  3  6  1  6  0  0  0
  3  9  1  0  0  0  0
  4  2  1  0  0  0  0
  5 35  1  6  0  0  0
  5 10  1  0  0  0  0
  7 14  1  1  0  0  0
  7  6  1  0  0  0  0
  8 11  1  0  0  0  0
  8  7  1  0  0  0  0
  9  2  1  0  0  0  0
 10  3  1  0  0  0  0
 10  1  1  6  0  0  0
 11  5  1  0  0  0  0
 12 15  1  0  0  0  0
 12 14  1  0  0  0  0
 13 12  2  0  0  0  0
 16 18  2  0  0  0  0
 17 15  1  0  0  0  0
 18 17  1  0  0  0  0
 19 18  1  0  0  0  0
 20 22  2  0  0  0  0
 22 21  1  0  0  0  0
 22 19  1  0  0  0  0
 23 22  1  0  0  0  0
 24 27  1  0  0  0  0
 24 25  1  0  0  0  0
 26 25  1  0  0  0  0
 28 27  1  0  0  0  0
 28 30  1  0  0  0  0
 28 29  1  1  0  0  0
 31 33  1  0  0  0  0
 33 30  1  0  0  0  0
 33 32  1  0  0  0  0
 34 33  2  0  0  0  0
 36 37  1  0  0  0  0
 36 35  1  0  0  0  0
 37 38  1  6  0  0  0
 39 40  1  6  0  0  0
 39 37  1  0  0  0  0
 40 41  1  0  0  0  0
 41 43  1  0  0  0  0
 43 42  1  6  0  0  0
 43 44  1  0  0  0  0
 44 45  1  0  0  0  0
 45 47  1  0  0  0  0
 46 47  2  0  0  0  0
 46 50  1  0  0  0  0
 47 49  1  0  0  0  0
 49 48  2  0  0  0  0
 50 48  1  0  0  0  0
 51 39  1  0  0  0  0
 53 52  1  6  0  0  0
 53 51  1  0  0  0  0
 54 55  1  6  0  0  0
 54 56  1  0  0  0  0
 54 53  1  0  0  0  0
 57 56  1  0  0  0  0
M  END
>  <MODEL>
2

>  <REMARK>
 VINA RESULT:      -2.7      3.388      8.666
  Name = 
  25 active torsions:
  status: ('A' for Active; 'I' for Inactive)
    1  A    between atoms: C_1  and  C_47
    2  A    between atoms: C_1  and  O_52
    3  A    between atoms: C_2  and  P_48
    4  A    between atoms: C_2  and  C_56
    5  A    between atoms: C_5  and  C_24
    6  A    between atoms: C_5  and  C_43
    7  A    between atoms: C_6  and  N_57
    8  A    between atoms: C_7  and  N_57
    9  A    between atoms: N_9  and  C_15
   10  A    between atoms: N_9  and  C_37
   11  A    between atoms: N_11  and  O_22
   12  A    between atoms: C_15  and  C_21
   13  A    between atoms: N_16  and  C_17
   14  A    between atoms: N_16  and  C_43
   15  A    between atoms: C_17  and  C_18
   16  A    between atoms: C_17  and  C_37
   17  A    between atoms: C_18  and  C_45
   18  A    between atoms: C_21  and  O_39
   19  A    between atoms: O_22  and  C_31
   20  A    between atoms: O_26  and  C_28
   21  A    between atoms: O_26  and  C_45
   22  A    between atoms: C_29  and  O_39
   23  A    between atoms: C_33  and  N_53
   24  A    between atoms: P_34  and  O_52
   25  A    between atoms: C_47  and  N_57
                            x       y       z     vdW  Elec       q    Type
                         _______ _______ _______ _____ _____    ______ ____

>  <TORSDO>
F 25

$$$$
=
 OpenBabel11052410183D

 57 59  0  0  1  0  0  0  0  0999 V2000
  162.4920  210.6290  150.1600 C   0  0  0  0  0  2  0  0  0  0  0  0
  161.8120  208.6120  148.7760 C   0  0  1  0  0  3  0  0  0  0  0  0
  161.4000  211.0110  147.9150 C   0  0  2  0  0  3  0  0  0  0  0  0
  162.9450  209.2930  149.5540 C   0  0  0  0  0  2  0  0  0  0  0  0
  161.0880  212.6950  149.9140 C   0  0  1  0  0  3  0  0  0  0  0  0
  160.2720  211.6810  147.1450 C   0  0  0  0  0  2  0  0  0  0  0  0
  160.6460  213.0950  146.7010 C   0  0  1  0  0  3  0  0  0  0  0  0
  160.6460  214.1080  147.8480 C   0  0  0  0  0  2  0  0  0  0  0  0
  161.4150  209.5070  147.5830 C   0  0  0  0  0  2  0  0  0  0  0  0
  161.2960  211.2470  149.4300 C   0  0  2  0  0  3  0  0  0  0  0  0
  161.6370  213.7660  148.9630 C   0  0  0  0  0  2  0  0  0  0  0  0
  161.9980  213.4300  144.5920 C   0  0  0  0  0  0  0  0  0  0  0  0
  160.9470  213.6460  143.9270 O   0  0  0  0  0  0  0  0  0  0  0  0
  161.9160  213.1050  145.9820 N   0  0  0  0  0  2  0  0  0  0  0  0
  163.2540  213.5040  143.9790 O   0  0  0  0  0  0  0  0  0  0  0  0
  163.0420  214.0560  140.4220 O   0  0  0  0  0  0  0  0  0  0  0  0
  163.4380  214.0310  142.7150 N   0  0  0  0  0  2  0  0  0  0  0  0
  162.9330  213.4330  141.5090 C   0  0  0  0  0  0  0  0  0  0  0  0
  162.3700  212.0480  141.5020 C   0  0  0  0  0  2  0  0  0  0  0  0
  160.6480  210.3590  139.9350 O   0  0  0  0  0  1  0  0  0  0  0  0
  162.9560  211.1530  138.9920 O   0  0  0  0  0  0  0  0  0  0  0  0
  161.7860  211.6090  139.8370 P   0  0  0  0  0  0  0  0  0  0  0  0
  161.0660  212.9630  139.1190 O   0  0  0  0  0  1  0  0  0  0  0  0
  162.2160  207.2680  148.3360 N   0  0  0  0  0  0  0  0  0  0  0  0
  161.3280  206.8390  147.2580 C   0  0  0  0  0  2  0  0  0  0  0  0
  162.0540  206.1150  146.3110 O   0  0  0  0  0  1  0  0  0  0  0  0
  161.9620  206.3390  149.4360 C   0  0  0  0  0  2  0  0  0  0  0  0
  160.7340  205.4920  149.1360 C   0  0  2  0  0  3  0  0  0  0  0  0
  159.6280  206.3190  149.0120 F   0  0  0  0  0  0  0  0  0  0  0  0
  160.5230  204.5900  150.1790 O   0  0  0  0  0  0  0  0  0  0  0  0
  161.7860  203.2540  148.1180 O   0  0  0  0  0  0  0  0  0  0  0  0
  159.6820  202.2590  149.2940 O   0  0  0  0  0  1  0  0  0  0  0  0
  160.9350  203.0610  149.5660 P   0  0  0  0  0  0  0  0  0  0  0  0
  161.9080  202.2320  150.6800 O   0  0  0  0  0  1  0  0  0  0  0  0
  159.7480  212.9600  150.2570 O   0  0  0  0  0  0  0  0  0  0  0  0
  159.7090  213.0770  151.6540 C   0  0  0  0  0  2  0  0  0  0  0  0
  159.3530  211.7520  152.3130 C   0  0  1  0  0  3  0  0  0  0  0  0
  160.5390  211.0670  152.5860 O   0  0  0  0  0  1  0  0  0  0  0  0
  158.5840  212.0340  153.6130 C   0  0  1  0  0  3  0  0  0  0  0  0
  158.9380  211.0300  154.7030 C   0  0  0  0  0  2  0  0  0  0  0  0
  160.2960  211.2430  155.1670 N   0  0  0  0  0  2  0  0  0  0  0  0
  159.0830  211.1270  157.2550 C   0  0  0  0  0  1  0  0  0  0  0  0
  160.3810  210.7880  156.5480 C   0  0  1  0  0  3  0  0  0  0  0  0
  160.5920  209.2780  156.5860 C   0  0  0  0  0  2  0  0  0  0  0  0
  161.5500  208.8990  155.6080 O   0  0  0  0  0  0  0  0  0  0  0  0
  160.5250  206.9120  154.8370 N   0  0  0  0  0  0  0  0  0  0  0  0
  161.2670  207.9430  154.6320 C   0  0  0  0  0  0  0  0  0  0  0  0
  161.2760  206.7480  152.6300 N   0  0  0  0  0  0  0  0  0  0  0  0
  161.8040  207.9760  153.2470 C   0  0  0  0  0  3  0  0  0  0  0  0
  160.4910  206.1780  153.6530 N   0  0  0  0  0  2  0  0  0  0  0  0
  158.8560  213.3760  154.1170 N   0  0  0  0  0  2  0  0  0  0  0  0
  158.4820  214.4510  156.1750 O   0  0  0  0  0  1  0  0  0  0  0  0
  157.8790  213.6910  155.1610 C   0  0  1  0  0  3  0  0  0  0  0  0
  156.6880  214.4530  154.5890 C   0  0  1  0  0  3  0  0  0  0  0  0
  156.6800  214.3880  153.0670 C   0  0  0  0  0  1  0  0  0  0  0  0
  155.3820  213.9260  155.1600 C   0  0  0  0  0  2  0  0  0  0  0  0
  155.6070  212.5980  155.8530 C   0  0  0  0  0  1  0  0  0  0  0  0
  2 24  1  6  0  0  0
  2  4  1  0  0  0  0
  3  6  1  6  0  0  0
  3 10  1  0  0  0  0
  4  1  1  0  0  0  0
  5 35  1  6  0  0  0
  7 14  1  1  0  0  0
  7  6  1  0  0  0  0
  7  8  1  0  0  0  0
  8 11  1  0  0  0  0
  9  3  1  0  0  0  0
  9  2  1  0  0  0  0
 10  5  1  0  0  0  0
 10  1  1  1  0  0  0
 11  5  1  0  0  0  0
 12 14  1  0  0  0  0
 13 12  2  0  0  0  0
 15 12  1  0  0  0  0
 16 18  2  0  0  0  0
 17 15  1  0  0  0  0
 18 17  1  0  0  0  0
 19 18  1  0  0  0  0
 21 22  2  0  0  0  0
 22 20  1  0  0  0  0
 22 19  1  0  0  0  0
 23 22  1  0  0  0  0
 24 27  1  0  0  0  0
 25 24  1  0  0  0  0
 26 25  1  0  0  0  0
 28 29  1  1  0  0  0
 28 27  1  0  0  0  0
 28 30  1  0  0  0  0
 31 33  2  0  0  0  0
 32 33  1  0  0  0  0
 33 30  1  0  0  0  0
 33 34  1  0  0  0  0
 35 36  1  0  0  0  0
 36 37  1  0  0  0  0
 37 38  1  1  0  0  0
 37 39  1  0  0  0  0
 39 51  1  0  0  0  0
 39 40  1  1  0  0  0
 40 41  1  0  0  0  0
 41 43  1  0  0  0  0
 43 44  1  0  0  0  0
 43 42  1  1  0  0  0
 45 44  1  0  0  0  0
 47 46  2  0  0  0  0
 47 45  1  0  0  0  0
 48 49  2  0  0  0  0
 48 50  1  0  0  0  0
 49 47  1  0  0  0  0
 50 46  1  0  0  0  0
 51 53  1  0  0  0  0
 53 52  1  1  0  0  0
 54 55  1  6  0  0  0
 54 56  1  0  0  0  0
 54 53  1  0  0  0  0
 56 57  1  0  0  0  0
M  END
>  <MODEL>
3

>  <REMARK>
 VINA RESULT:      -1.9      1.384      1.832
  Name = 
  25 active torsions:
  status: ('A' for Active; 'I' for Inactive)
    1  A    between atoms: C_1  and  C_47
    2  A    between atoms: C_1  and  O_52
    3  A    between atoms: C_2  and  P_48
    4  A    between atoms: C_2  and  C_56
    5  A    between atoms: C_5  and  C_24
    6  A    between atoms: C_5  and  C_43
    7  A    between atoms: C_6  and  N_57
    8  A    between atoms: C_7  and  N_57
    9  A    between atoms: N_9  and  C_15
   10  A    between atoms: N_9  and  C_37
   11  A    between atoms: N_11  and  O_22
   12  A    between atoms: C_15  and  C_21
   13  A    between atoms: N_16  and  C_17
   14  A    between atoms: N_16  and  C_43
   15  A    between atoms: C_17  and  C_18
   16  A    between atoms: C_17  and  C_37
   17  A    between atoms: C_18  and  C_45
   18  A    between atoms: C_21  and  O_39
   19  A    between atoms: O_22  and  C_31
   20  A    between atoms: O_26  and  C_28
   21  A    between atoms: O_26  and  C_45
   22  A    between atoms: C_29  and  O_39
   23  A    between atoms: C_33  and  N_53
   24  A    between atoms: P_34  and  O_52
   25  A    between atoms: C_47  and  N_57
                            x       y       z     vdW  Elec       q    Type
                         _______ _______ _______ _____ _____    ______ ____

>  <TORSDO>
F 25

$$$$
=
 OpenBabel11052410183D

 57 59  0  0  1  0  0  0  0  0999 V2000
  160.6690  210.0840  147.1580 C   0  0  0  0  0  2  0  0  0  0  0  0
  162.2260  209.6510  149.1160 C   0  0  1  0  0  3  0  0  0  0  0  0
  160.8760  211.8460  148.9550 C   0  0  2  0  0  3  0  0  0  0  0  0
  161.0690  209.1040  148.2700 C   0  0  0  0  0  2  0  0  0  0  0  0
  160.3830  212.4750  146.4480 C   0  0  1  0  0  3  0  0  0  0  0  0
  161.1760  213.3000  149.2850 C   0  0  0  0  0  2  0  0  0  0  0  0
  159.9250  214.1740  149.2000 C   0  0  1  0  0  3  0  0  0  0  0  0
  159.4770  214.4500  147.7640 C   0  0  0  0  0  2  0  0  0  0  0  0
  161.7600  210.9370  149.8300 C   0  0  0  0  0  2  0  0  0  0  0  0
  161.0600  211.5330  147.4620 C   0  0  2  0  0  3  0  0  0  0  0  0
  159.1300  213.1830  146.9790 C   0  0  0  0  0  2  0  0  0  0  0  0
  158.8940  213.5690  151.4280 C   0  0  0  0  0  0  0  0  0  0  0  0
  159.9350  213.9430  152.0360 O   0  0  0  0  0  0  0  0  0  0  0  0
  158.8380  213.6180  150.0000 N   0  0  0  0  0  2  0  0  0  0  0  0
  157.7850  213.1020  152.1420 O   0  0  0  0  0  0  0  0  0  0  0  0
  154.4990  214.3080  153.0110 O   0  0  0  0  0  0  0  0  0  0  0  0
  156.5450  213.7100  152.0770 N   0  0  0  0  0  2  0  0  0  0  0  0
  155.5450  213.6140  153.1050 C   0  0  0  0  0  0  0  0  0  0  0  0
  155.6730  212.6380  154.2300 C   0  0  0  0  0  2  0  0  0  0  0  0
  157.7080  214.3920  155.2580 O   0  0  0  0  0  0  0  0  0  0  0  0
  156.8070  212.4030  156.7010 O   0  0  0  0  0  1  0  0  0  0  0  0
  156.3710  213.4510  155.6990 P   0  0  0  0  0  0  0  0  0  0  0  0
  155.1960  214.4470  156.4010 O   0  0  0  0  0  1  0  0  0  0  0  0
  162.6970  208.6380  150.0730 N   0  0  0  0  0  0  0  0  0  0  0  0
  163.0420  207.4220  149.3410 C   0  0  0  0  0  2  0  0  0  0  0  0
  162.3550  206.3360  149.8850 O   0  0  0  0  0  1  0  0  0  0  0  0
  161.5680  208.2670  150.9260 C   0  0  0  0  0  2  0  0  0  0  0  0
  161.8210  208.7150  152.3580 C   0  0  2  0  0  3  0  0  0  0  0  0
  162.7820  207.8950  152.9290 F   0  0  0  0  0  0  0  0  0  0  0  0
  160.6380  208.6220  153.0910 O   0  0  0  0  0  0  0  0  0  0  0  0
  161.5490  211.0800  153.9590 O   0  0  0  0  0  0  0  0  0  0  0  0
  161.7660  208.9490  155.4460 O   0  0  0  0  0  1  0  0  0  0  0  0
  160.8500  209.6210  154.4480 P   0  0  0  0  0  0  0  0  0  0  0  0
  159.3510  209.9360  155.1750 O   0  0  0  0  0  1  0  0  0  0  0  0
  161.2860  213.3950  145.8830 O   0  0  0  0  0  0  0  0  0  0  0  0
  161.3140  213.1330  144.5050 C   0  0  0  0  0  2  0  0  0  0  0  0
  159.9120  213.1370  143.9110 C   0  0  1  0  0  3  0  0  0  0  0  0
  159.3950  214.4300  144.0190 O   0  0  0  0  0  1  0  0  0  0  0  0
  159.9970  212.7130  142.4360 C   0  0  1  0  0  3  0  0  0  0  0  0
  158.8220  213.2520  141.6290 C   0  0  0  0  0  2  0  0  0  0  0  0
  159.2860  213.8250  140.3790 N   0  0  0  0  0  2  0  0  0  0  0  0
  158.5130  214.4410  138.1720 C   0  0  0  0  0  1  0  0  0  0  0  0
  158.3160  213.4970  139.3420 C   0  0  1  0  0  3  0  0  0  0  0  0
  158.5270  212.0620  138.8680 C   0  0  0  0  0  2  0  0  0  0  0  0
  157.5590  211.7320  137.8810 O   0  0  0  0  0  0  0  0  0  0  0  0
  155.2250  211.6520  138.2540 N   0  0  0  0  0  0  0  0  0  0  0  0
  156.3740  211.0730  138.2050 C   0  0  0  0  0  0  0  0  0  0  0  0
  154.8620  209.4260  138.8680 N   0  0  0  0  0  0  0  0  0  0  0  0
  156.2860  209.6320  138.5590 C   0  0  0  0  0  3  0  0  0  0  0  0
  154.2890  210.6930  138.6320 N   0  0  0  0  0  2  0  0  0  0  0  0
  161.2330  213.1760  141.8150 N   0  0  0  0  0  2  0  0  0  0  0  0
  161.2450  210.8610  141.3990 O   0  0  0  0  0  1  0  0  0  0  0  0
  162.0480  212.0100  141.4670 C   0  0  1  0  0  3  0  0  0  0  0  0
  162.7630  212.2150  140.1360 C   0  0  1  0  0  3  0  0  0  0  0  0
  162.0930  211.4110  139.0280 C   0  0  0  0  0  1  0  0  0  0  0  0
  162.8230  213.6890  139.7730 C   0  0  0  0  0  2  0  0  0  0  0  0
  164.1670  214.0290  139.1640 C   0  0  0  0  0  1  0  0  0  0  0  0
  1  4  1  0  0  0  0
  2  9  1  0  0  0  0
  2 24  1  1  0  0  0
  3  6  1  6  0  0  0
  3  9  1  0  0  0  0
  4  2  1  0  0  0  0
  5 35  1  1  0  0  0
  5 11  1  0  0  0  0
  5 10  1  0  0  0  0
  7  6  1  0  0  0  0
  7 14  1  1  0  0  0
  8  7  1  0  0  0  0
 10  1  1  1  0  0  0
 10  3  1  0  0  0  0
 11  8  1  0  0  0  0
 12 13  2  0  0  0  0
 12 15  1  0  0  0  0
 14 12  1  0  0  0  0
 16 18  2  0  0  0  0
 17 15  1  0  0  0  0
 17 18  1  0  0  0  0
 18 19  1  0  0  0  0
 19 22  1  0  0  0  0
 20 22  2  0  0  0  0
 22 23  1  0  0  0  0
 22 21  1  0  0  0  0
 24 27  1  0  0  0  0
 25 26  1  0  0  0  0
 25 24  1  0  0  0  0
 27 28  1  0  0  0  0
 28 29  1  1  0  0  0
 28 30  1  0  0  0  0
 30 33  1  0  0  0  0
 31 33  2  0  0  0  0
 33 34  1  0  0  0  0
 33 32  1  0  0  0  0
 36 35  1  0  0  0  0
 37 38  1  6  0  0  0
 37 36  1  0  0  0  0
 39 40  1  6  0  0  0
 39 37  1  0  0  0  0
 41 40  1  0  0  0  0
 43 42  1  6  0  0  0
 43 41  1  0  0  0  0
 44 43  1  0  0  0  0
 45 47  1  0  0  0  0
 45 44  1  0  0  0  0
 46 50  1  0  0  0  0
 47 46  2  0  0  0  0
 47 49  1  0  0  0  0
 49 48  2  0  0  0  0
 50 48  1  0  0  0  0
 51 39  1  0  0  0  0
 53 52  1  6  0  0  0
 53 51  1  0  0  0  0
 54 55  1  6  0  0  0
 54 53  1  0  0  0  0
 56 54  1  0  0  0  0
 57 56  1  0  0  0  0
M  END
>  <MODEL>
4

>  <REMARK>
 VINA RESULT:      -0.6      4.423     11.664
  Name = 
  25 active torsions:
  status: ('A' for Active; 'I' for Inactive)
    1  A    between atoms: C_1  and  C_47
    2  A    between atoms: C_1  and  O_52
    3  A    between atoms: C_2  and  P_48
    4  A    between atoms: C_2  and  C_56
    5  A    between atoms: C_5  and  C_24
    6  A    between atoms: C_5  and  C_43
    7  A    between atoms: C_6  and  N_57
    8  A    between atoms: C_7  and  N_57
    9  A    between atoms: N_9  and  C_15
   10  A    between atoms: N_9  and  C_37
   11  A    between atoms: N_11  and  O_22
   12  A    between atoms: C_15  and  C_21
   13  A    between atoms: N_16  and  C_17
   14  A    between atoms: N_16  and  C_43
   15  A    between atoms: C_17  and  C_18
   16  A    between atoms: C_17  and  C_37
   17  A    between atoms: C_18  and  C_45
   18  A    between atoms: C_21  and  O_39
   19  A    between atoms: O_22  and  C_31
   20  A    between atoms: O_26  and  C_28
   21  A    between atoms: O_26  and  C_45
   22  A    between atoms: C_29  and  O_39
   23  A    between atoms: C_33  and  N_53
   24  A    between atoms: P_34  and  O_52
   25  A    between atoms: C_47  and  N_57
                            x       y       z     vdW  Elec       q    Type
                         _______ _______ _______ _____ _____    ______ ____

>  <TORSDO>
F 25

$$$$
=
 OpenBabel11052410183D

 57 59  0  0  1  0  0  0  0  0999 V2000
  160.4090  207.8030  151.8380 C   0  0  0  0  0  2  0  0  0  0  0  0
  161.4610  208.9230  153.8580 C   0  0  1  0  0  3  0  0  0  0  0  0
  161.8160  209.8700  151.4830 C   0  0  2  0  0  3  0  0  0  0  0  0
  160.1670  208.3810  153.2400 C   0  0  0  0  0  2  0  0  0  0  0  0
  161.6660  207.9670  149.6710 C   0  0  1  0  0  3  0  0  0  0  0  0
  162.9970  210.4980  150.7580 C   0  0  0  0  0  2  0  0  0  0  0  0
  162.5890  211.0900  149.4100 C   0  0  1  0  0  3  0  0  0  0  0  0
  162.3230  210.0290  148.3400 C   0  0  0  0  0  2  0  0  0  0  0  0
  161.9740  210.0980  152.9980 C   0  0  0  0  0  2  0  0  0  0  0  0
  161.6540  208.3770  151.1570 C   0  0  2  0  0  3  0  0  0  0  0  0
  161.1950  209.0630  148.7070 C   0  0  0  0  0  2  0  0  0  0  0  0
  160.7390  212.5010  148.4220 C   0  0  0  0  0  0  0  0  0  0  0  0
  161.1240  212.2260  147.2520 O   0  0  0  0  0  0  0  0  0  0  0  0
  161.4560  211.9990  149.5520 N   0  0  0  0  0  2  0  0  0  0  0  0
  159.6090  213.3010  148.6280 O   0  0  0  0  0  0  0  0  0  0  0  0
  157.6360  213.6240  145.6270 O   0  0  0  0  0  0  0  0  0  0  0  0
  158.5430  213.3270  147.7490 N   0  0  0  0  0  2  0  0  0  0  0  0
  158.6340  213.7590  146.3820 C   0  0  0  0  0  0  0  0  0  0  0  0
  159.8520  214.4530  145.8610 C   0  0  0  0  0  2  0  0  0  0  0  0
  159.9050  212.0250  144.3200 O   0  0  0  0  0  1  0  0  0  0  0  0
  161.9790  213.6210  144.3690 O   0  0  0  0  0  1  0  0  0  0  0  0
  160.4650  213.6220  144.3650 P   0  0  0  0  0  0  0  0  0  0  0  0
  159.9060  214.4470  142.9950 O   0  0  0  0  0  0  0  0  0  0  0  0
  161.2420  209.3290  155.2550 N   0  0  0  0  0  0  0  0  0  0  0  0
  161.5400  208.1970  156.1280 C   0  0  0  0  0  2  0  0  0  0  0  0
  162.5180  208.5620  157.0540 O   0  0  0  0  0  1  0  0  0  0  0  0
  159.8120  209.5830  155.4300 C   0  0  0  0  0  2  0  0  0  0  0  0
  159.5100  211.0590  155.2230 C   0  0  2  0  0  3  0  0  0  0  0  0
  159.3080  211.6610  156.4570 F   0  0  0  0  0  0  0  0  0  0  0  0
  158.3590  211.1960  154.4470 O   0  0  0  0  0  0  0  0  0  0  0  0
  157.3440  212.8530  152.4840 O   0  0  0  0  0  0  0  0  0  0  0  0
  159.8260  213.0330  153.2650 O   0  0  0  0  0  1  0  0  0  0  0  0
  158.4310  212.7540  153.7760 P   0  0  0  0  0  0  0  0  0  0  0  0
  158.0140  213.9090  154.9450 O   0  0  0  0  0  1  0  0  0  0  0  0
  162.9080  207.4370  149.2700 O   0  0  0  0  0  0  0  0  0  0  0  0
  162.6720  206.1050  148.9000 C   0  0  0  0  0  2  0  0  0  0  0  0
  161.2650  205.9220  148.3480 C   0  0  1  0  0  3  0  0  0  0  0  0
  160.9790  207.0040  147.5120 O   0  0  0  0  0  1  0  0  0  0  0  0
  161.2070  204.6040  147.5610 C   0  0  1  0  0  3  0  0  0  0  0  0
  162.1430  204.6270  146.3590 C   0  0  0  0  0  2  0  0  0  0  0  0
  161.4020  204.3860  145.1340 N   0  0  0  0  0  2  0  0  0  0  0  0
  162.3020  206.6260  145.0010 C   0  0  0  0  0  1  0  0  0  0  0  0
  161.3180  205.6410  144.4000 C   0  0  1  0  0  3  0  0  0  0  0  0
  161.6720  205.4120  142.9340 C   0  0  0  0  0  2  0  0  0  0  0  0
  162.0560  206.6400  142.3310 O   0  0  0  0  0  0  0  0  0  0  0  0
  161.3850  207.8300  140.4010 N   0  0  0  0  0  0  0  0  0  0  0  0
  161.9880  206.8360  140.9520 C   0  0  0  0  0  0  0  0  0  0  0  0
  162.2000  206.5100  138.6540 N   0  0  0  0  0  0  0  0  0  0  0  0
  162.5760  205.9150  139.9460 C   0  0  0  0  0  3  0  0  0  0  0  0
  161.5040  207.6800  139.0210 N   0  0  0  0  0  2  0  0  0  0  0  0
  161.5620  203.4630  148.3980 N   0  0  0  0  0  2  0  0  0  0  0  0
  160.9830  201.4660  147.2980 O   0  0  0  0  0  1  0  0  0  0  0  0
  160.5450  202.4230  148.2260 C   0  0  1  0  0  3  0  0  0  0  0  0
  160.2250  201.7410  149.5530 C   0  0  1  0  0  3  0  0  0  0  0  0
  161.1760  200.5790  149.8110 C   0  0  0  0  0  1  0  0  0  0  0  0
  160.2650  202.7380  150.6990 C   0  0  0  0  0  2  0  0  0  0  0  0
  161.1920  202.2490  151.7920 C   0  0  0  0  0  1  0  0  0  0  0  0
  1  4  1  0  0  0  0
  2 24  1  1  0  0  0
  3  6  1  6  0  0  0
  3  9  1  0  0  0  0
  4  2  1  0  0  0  0
  5 35  1  6  0  0  0
  5 10  1  0  0  0  0
  7 14  1  1  0  0  0
  7  6  1  0  0  0  0
  8 11  1  0  0  0  0
  8  7  1  0  0  0  0
  9  2  1  0  0  0  0
 10  3  1  0  0  0  0
 10  1  1  6  0  0  0
 11  5  1  0  0  0  0
 12 15  1  0  0  0  0
 12 14  1  0  0  0  0
 13 12  2  0  0  0  0
 16 18  2  0  0  0  0
 17 15  1  0  0  0  0
 18 17  1  0  0  0  0
 19 18  1  0  0  0  0
 20 22  1  0  0  0  0
 22 21  1  0  0  0  0
 22 19  1  0  0  0  0
 23 22  2  0  0  0  0
 24 27  1  0  0  0  0
 24 25  1  0  0  0  0
 25 26  1  0  0  0  0
 28 27  1  0  0  0  0
 28 29  1  1  0  0  0
 30 28  1  0  0  0  0
 31 33  2  0  0  0  0
 32 33  1  0  0  0  0
 33 30  1  0  0  0  0
 33 34  1  0  0  0  0
 36 35  1  0  0  0  0
 37 38  1  6  0  0  0
 37 36  1  0  0  0  0
 39 40  1  6  0  0  0
 39 37  1  0  0  0  0
 39 51  1  0  0  0  0
 41 40  1  0  0  0  0
 43 42  1  1  0  0  0
 43 41  1  0  0  0  0
 44 43  1  0  0  0  0
 45 44  1  0  0  0  0
 46 47  2  0  0  0  0
 47 45  1  0  0  0  0
 48 50  1  0  0  0  0
 48 49  2  0  0  0  0
 49 47  1  0  0  0  0
 50 46  1  0  0  0  0
 53 52  1  6  0  0  0
 53 51  1  0  0  0  0
 53 54  1  0  0  0  0
 54 55  1  1  0  0  0
 54 56  1  0  0  0  0
 56 57  1  0  0  0  0
M  END
>  <MODEL>
5

>  <REMARK>
 VINA RESULT:      -0.4      3.741      9.534
  Name = 
  25 active torsions:
  status: ('A' for Active; 'I' for Inactive)
    1  A    between atoms: C_1  and  C_47
    2  A    between atoms: C_1  and  O_52
    3  A    between atoms: C_2  and  P_48
    4  A    between atoms: C_2  and  C_56
    5  A    between atoms: C_5  and  C_24
    6  A    between atoms: C_5  and  C_43
    7  A    between atoms: C_6  and  N_57
    8  A    between atoms: C_7  and  N_57
    9  A    between atoms: N_9  and  C_15
   10  A    between atoms: N_9  and  C_37
   11  A    between atoms: N_11  and  O_22
   12  A    between atoms: C_15  and  C_21
   13  A    between atoms: N_16  and  C_17
   14  A    between atoms: N_16  and  C_43
   15  A    between atoms: C_17  and  C_18
   16  A    between atoms: C_17  and  C_37
   17  A    between atoms: C_18  and  C_45
   18  A    between atoms: C_21  and  O_39
   19  A    between atoms: O_22  and  C_31
   20  A    between atoms: O_26  and  C_28
   21  A    between atoms: O_26  and  C_45
   22  A    between atoms: C_29  and  O_39
   23  A    between atoms: C_33  and  N_53
   24  A    between atoms: P_34  and  O_52
   25  A    between atoms: C_47  and  N_57
                            x       y       z     vdW  Elec       q    Type
                         _______ _______ _______ _____ _____    ______ ____

>  <TORSDO>
F 25

$$$$
