=
 OpenBabel11042422403D

 66 74  0  0  1  0  0  0  0  0999 V2000
  161.6400  210.2790  148.5670 C   0  0  0  0  0  0  0  0  0  0  0  0
  161.9730  209.5380  149.6120 C   0  0  0  0  0  0  0  0  0  0  0  0
  161.7900  211.6500  150.4240 N   0  0  0  0  0  0  0  0  0  0  0  0
  162.0640  210.4280  150.7520 C   0  0  0  0  0  0  0  0  0  0  0  0
  161.4720  209.8160  147.2660 O   0  0  0  0  0  1  0  0  0  0  0  0
  161.4460  211.6990  149.0040 C   0  0  1  0  0  3  0  0  0  0  0  0
  163.2660  213.2120  148.7840 O   0  0  0  0  0  0  0  0  0  0  0  0
  162.3250  212.6610  148.2360 C   0  0  0  0  0  0  0  0  0  0  0  0
  162.0580  212.9480  146.7840 C   0  0  0  0  0  2  0  0  0  0  0  0
  160.6760  213.5730  146.6130 C   0  0  2  0  0  3  0  0  0  0  0  0
  159.8340  212.6540  145.7450 C   0  0  0  0  0  2  0  0  0  0  0  0
  160.2940  213.9820  145.1830 C   0  0  2  0  0  3  0  0  0  0  0  0
  161.0820  213.5960  142.9870 N   0  0  0  0  0  0  0  0  0  0  0  0
  161.3640  213.7580  144.2210 N   0  0  0  0  0  0  0  0  0  0  0  0
  162.2650  210.2030  139.8870 C   0  0  0  0  0  3  0  0  0  0  0  0
  161.1140  212.2580  139.5370 N   0  0  0  0  0  0  0  0  0  0  0  0
  162.3090  211.9240  141.6210 N   0  0  0  0  0  2  0  0  0  0  0  0
  161.0020  210.5720  137.8540 C   0  0  0  0  0  3  0  0  0  0  0  0
  162.0980  213.2770  142.0330 C   0  0  0  0  0  0  0  0  0  0  0  0
  161.9010  211.4760  140.3220 C   0  0  0  0  0  0  0  0  0  0  0  0
  162.7350  214.2050  141.4760 O   0  0  0  0  0  0  0  0  0  0  0  0
  161.8150  209.7530  138.6420 C   0  0  0  0  0  3  0  0  0  0  0  0
  160.6580  211.8400  138.3180 C   0  0  0  0  0  0  0  0  0  0  0  0
  158.2450  213.6220  140.0440 C   0  0  0  0  0  3  0  0  0  0  0  0
  157.1930  212.4040  137.7460 C   0  0  1  0  0  3  0  0  0  0  0  0
  159.5570  214.0640  138.0090 N   0  0  0  0  0  2  0  0  0  0  0  0
  157.0300  211.7400  139.1270 C   0  0  0  0  0  2  0  0  0  0  0  0
  157.1510  213.8570  137.8620 N   0  0  0  0  0  2  0  0  0  0  0  0
  158.4560  211.9660  137.0110 C   0  0  0  0  0  2  0  0  0  0  0  0
  159.7260  212.6870  137.4960 C   0  0  2  0  0  3  0  0  0  0  0  0
  157.7040  212.4620  140.1950 N   0  0  0  0  0  0  0  0  0  0  0  0
  158.2770  214.2950  138.6940 C   0  0  1  0  0  3  0  0  0  0  0  0
  162.2360  208.1250  149.6280 N   0  0  0  0  0  2  0  0  0  0  0  0
  159.4920  206.2700  147.9330 C   0  0  0  0  0  2  0  0  0  0  0  0
  163.0440  206.3930  148.1200 C   0  0  0  0  0  2  0  0  0  0  0  0
  160.5810  206.3940  149.0070 C   0  0  2  0  0  3  0  0  0  0  0  0
  161.8250  207.2070  148.5730 C   0  0  1  0  0  3  0  0  0  0  0  0
  162.8040  205.5110  146.9320 C   0  0  0  0  0  0  0  0  0  0  0  0
  160.0000  205.6710  146.6310 C   0  0  0  0  0  2  0  0  0  0  0  0
  163.2850  204.3860  146.9400 O   0  0  0  0  0  0  0  0  0  0  0  0
  160.8200  206.5970  145.9700 O   0  0  0  0  0  0  0  0  0  0  0  0
  162.0730  206.0010  145.6970 C   0  0  2  0  0  3  0  0  0  0  0  0
  162.3040  201.8790  149.3020 O   0  0  0  0  0  0  0  0  0  0  0  0
  160.8070  205.1210  149.7830 C   0  0  0  0  0  0  0  0  0  0  0  0
  161.2940  202.6620  149.9080 C   0  0  1  0  0  0  0  0  0  0  0  0
  161.2530  200.5620  147.6060 C   0  0  0  0  0  2  0  0  0  0  0  0
  161.1700  203.9850  149.1650 C   0  0  0  0  0  3  0  0  0  0  0  0
  160.8870  204.0530  151.9760 C   0  0  0  0  0  3  0  0  0  0  0  0
  160.5140  205.0970  151.2270 C   0  0  0  0  0  3  0  0  0  0  0  0
  159.2590  201.9500  148.5280 C   0  0  0  0  0  2  0  0  0  0  0  0
  159.7900  201.0150  147.4220 C   0  0  0  0  0  2  0  0  0  0  0  0
  159.9960  201.8350  149.8860 C   0  0  1  0  0  3  0  0  0  0  0  0
  160.5620  200.4530  150.0020 C   0  0  0  0  0  2  0  0  0  0  0  0
  161.7020  202.9380  151.3710 C   0  0  0  0  0  2  0  0  0  0  0  0
  161.7420  200.6080  149.0640 C   0  0  2  0  0  3  0  0  0  0  0  0
  161.9570  204.9940  144.7330 O   0  0  0  0  0  0  0  0  0  0  0  0
  161.5200  205.6490  143.5820 C   0  0  0  0  0  1  0  0  0  0  0  0
  162.5060  210.0370  152.1250 C   0  0  0  0  0  2  0  0  0  0  0  0
  161.7120  210.7160  153.1450 N   0  0  0  0  0  2  0  0  0  0  0  0
  160.4240  210.0440  153.2190 C   0  0  2  0  0  3  0  0  0  0  0  0
  159.3220  210.9960  152.7990 C   0  0  0  0  0  2  0  0  0  0  0  0
  159.5720  212.2590  153.3520 O   0  0  0  0  0  1  0  0  0  0  0  0
  160.1710  209.5300  154.6290 C   0  0  0  0  0  2  0  0  0  0  0  0
  161.0080  208.3210  154.9080 C   0  0  0  0  0  0  0  0  0  0  0  0
  160.9630  207.3220  154.1390 O   0  0  0  0  0  0  0  0  0  0  0  0
  161.8460  208.3100  156.0180 O   0  0  0  0  0  1  0  0  0  0  0  0
  1  6  1  0  0  0  0
  1  2  2  0  0  0  0
  2 33  1  0  0  0  0
  2  4  1  0  0  0  0
  3  4  2  0  0  0  0
  4 58  1  0  0  0  0
  5  1  1  0  0  0  0
  6  8  1  6  0  0  0
  6  3  1  0  0  0  0
  8  7  2  0  0  0  0
  9  8  1  0  0  0  0
 10  9  1  6  0  0  0
 11 10  1  0  0  0  0
 12 14  1  6  0  0  0
 12 11  1  0  0  0  0
 12 10  1  0  0  0  0
 13 14  2  0  0  0  0
 15 20  1  0  0  0  0
 16 20  2  0  0  0  0
 17 19  1  0  0  0  0
 18 23  2  0  0  0  0
 18 22  1  0  0  0  0
 19 13  1  0  0  0  0
 20 17  1  0  0  0  0
 21 19  2  0  0  0  0
 22 15  2  0  0  0  0
 23 16  1  0  0  0  0
 24 31  2  0  0  0  0
 25 29  1  1  0  0  0
 25 28  1  0  0  0  0
 25 27  1  0  0  0  0
 26 32  1  0  0  0  0
 27 31  1  0  0  0  0
 28 32  1  0  0  0  0
 29 30  1  0  0  0  0
 30 26  1  0  0  0  0
 30 23  1  1  0  0  0
 32 24  1  1  0  0  0
 34 36  1  0  0  0  0
 35 37  1  0  0  0  0
 36 44  1  6  0  0  0
 37 36  1  0  0  0  0
 37 33  1  1  0  0  0
 38 40  2  0  0  0  0
 38 35  1  0  0  0  0
 39 34  1  0  0  0  0
 41 39  1  0  0  0  0
 42 56  1  6  0  0  0
 42 41  1  0  0  0  0
 42 38  1  0  0  0  0
 43 45  1  0  0  0  0
 44 49  1  0  0  0  0
 45 47  1  6  0  0  0
 45 54  1  0  0  0  0
 47 44  2  0  0  0  0
 49 48  2  0  0  0  0
 51 46  1  0  0  0  0
 51 50  1  0  0  0  0
 52 50  1  6  0  0  0
 52 45  1  0  0  0  0
 52 53  1  0  0  0  0
 54 48  1  0  0  0  0
 55 46  1  6  0  0  0
 55 43  1  0  0  0  0
 55 53  1  0  0  0  0
 57 56  1  0  0  0  0
 58 59  1  0  0  0  0
 59 60  1  0  0  0  0
 60 61  1  1  0  0  0
 60 63  1  0  0  0  0
 61 62  1  0  0  0  0
 63 64  1  0  0  0  0
 64 66  1  0  0  0  0
 65 64  2  0  0  0  0
M  END
>  <MODEL>
1

>  <REMARK>
 VINA RESULT:      -3.6      0.000      0.000
  Name = 
  16 active torsions:
  status: ('A' for Active; 'I' for Inactive)
    1  A    between atoms: CA_3  and  C_12
    2  A    between atoms: CA_3  and  CB_35
    3  A    between atoms: CA_3  and  N_49
    4  A    between atoms: C_7  and  C_11
    5  A    between atoms: C_7  and  C_20
    6  A    between atoms: C_8  and  N_49
    7  A    between atoms: C_8  and  C_51
    8  A    between atoms: O_13  and  C_60
    9  A    between atoms: C_16  and  C_17
   10  A    between atoms: C_18  and  N_52
   11  A    between atoms: C_20  and  C_66
   12  A    between atoms: C_21  and  N_41
   13  A    between atoms: CG_24  and  CB_35
   14  A    between atoms: C_42  and  N_52
   15  A    between atoms: C_48  and  N_50
   16  A    between atoms: C_61  and  C_63
                            x       y       z     vdW  Elec       q    Type
                         _______ _______ _______ _____ _____    ______ ____

>  <TORSDO>
F 16

$$$$
=
 OpenBabel11042422403D

 66 74  0  0  1  0  0  0  0  0999 V2000
  162.7000  207.4330  151.2700 C   0  0  0  0  0  0  0  0  0  0  0  0
  162.6480  208.0040  150.0770 C   0  0  0  0  0  0  0  0  0  0  0  0
  161.5970  209.4570  151.4690 N   0  0  0  0  0  0  0  0  0  0  0  0
  161.9470  209.2620  150.2380 C   0  0  0  0  0  0  0  0  0  0  0  0
  163.2690  206.1960  151.5530 O   0  0  0  0  0  1  0  0  0  0  0  0
  162.0690  208.3390  152.2830 C   0  0  1  0  0  3  0  0  0  0  0  0
  160.4690  206.6140  152.6270 O   0  0  0  0  0  0  0  0  0  0  0  0
  160.9430  207.6630  153.0340 C   0  0  0  0  0  0  0  0  0  0  0  0
  160.3940  208.2680  154.2970 C   0  0  0  0  0  2  0  0  0  0  0  0
  160.8180  207.4420  155.5080 C   0  0  2  0  0  3  0  0  0  0  0  0
  159.8010  207.6540  156.6170 C   0  0  0  0  0  2  0  0  0  0  0  0
  161.1890  208.2360  156.7680 C   0  0  2  0  0  3  0  0  0  0  0  0
  160.5810  210.1520  155.5230 N   0  0  0  0  0  0  0  0  0  0  0  0
  161.1350  209.6780  156.5700 N   0  0  0  0  0  0  0  0  0  0  0  0
  159.2820  213.2530  152.1720 C   0  0  0  0  0  3  0  0  0  0  0  0
  158.1520  212.5890  154.1600 N   0  0  0  0  0  0  0  0  0  0  0  0
  160.5000  212.0370  153.9080 N   0  0  0  0  0  2  0  0  0  0  0  0
  156.9240  213.7190  152.4570 C   0  0  0  0  0  3  0  0  0  0  0  0
  160.5980  211.5560  155.2500 C   0  0  0  0  0  0  0  0  0  0  0  0
  159.2960  212.6470  153.4280 C   0  0  0  0  0  0  0  0  0  0  0  0
  160.5890  212.3700  156.2070 O   0  0  0  0  0  0  0  0  0  0  0  0
  158.0880  213.7960  151.6890 C   0  0  0  0  0  3  0  0  0  0  0  0
  156.9710  213.1080  153.7080 C   0  0  0  0  0  0  0  0  0  0  0  0
  157.0000  214.3470  156.9400 C   0  0  0  0  0  3  0  0  0  0  0  0
  155.7430  211.8420  156.7980 C   0  0  1  0  0  3  0  0  0  0  0  0
  155.2800  214.2080  155.1850 N   0  0  0  0  0  2  0  0  0  0  0  0
  157.2170  211.9540  157.2340 C   0  0  0  0  0  2  0  0  0  0  0  0
  154.9790  212.9960  157.2570 N   0  0  0  0  0  2  0  0  0  0  0  0
  155.5730  211.6570  155.2930 C   0  0  0  0  0  2  0  0  0  0  0  0
  155.6980  212.9680  154.4980 C   0  0  2  0  0  3  0  0  0  0  0  0
  157.7330  213.3130  157.1740 N   0  0  0  0  0  0  0  0  0  0  0  0
  155.5300  214.2040  156.6330 C   0  0  1  0  0  3  0  0  0  0  0  0
  163.1520  207.4760  148.8380 N   0  0  0  0  0  2  0  0  0  0  0  0
  159.7570  206.6060  147.5900 C   0  0  0  0  0  2  0  0  0  0  0  0
  163.1690  205.6770  147.1990 C   0  0  0  0  0  2  0  0  0  0  0  0
  160.9830  206.3440  148.4740 C   0  0  2  0  0  3  0  0  0  0  0  0
  162.3320  206.7830  147.8540 C   0  0  1  0  0  3  0  0  0  0  0  0
  162.5010  204.9750  146.0560 C   0  0  0  0  0  0  0  0  0  0  0  0
  159.8600  205.9640  146.2160 C   0  0  0  0  0  2  0  0  0  0  0  0
  162.6210  203.7600  145.9730 O   0  0  0  0  0  0  0  0  0  0  0  0
  160.8090  206.6470  145.4420 O   0  0  0  0  0  0  0  0  0  0  0  0
  161.7710  205.7290  144.9610 C   0  0  2  0  0  3  0  0  0  0  0  0
  162.3010  201.7000  148.8480 O   0  0  0  0  0  0  0  0  0  0  0  0
  160.9340  205.0160  149.1880 C   0  0  0  0  0  0  0  0  0  0  0  0
  161.2240  202.5240  149.2490 C   0  0  1  0  0  0  0  0  0  0  0  0
  161.6140  200.5620  146.8600 C   0  0  0  0  0  2  0  0  0  0  0  0
  161.3660  203.8910  148.5950 C   0  0  0  0  0  3  0  0  0  0  0  0
  160.4130  203.8270  151.2560 C   0  0  0  0  0  3  0  0  0  0  0  0
  160.2990  204.9360  150.5150 C   0  0  0  0  0  3  0  0  0  0  0  0
  159.5450  202.0470  147.3770 C   0  0  0  0  0  2  0  0  0  0  0  0
  160.2700  201.1360  146.3660 C   0  0  0  0  0  2  0  0  0  0  0  0
  159.9220  201.8020  148.8590 C   0  0  1  0  0  3  0  0  0  0  0  0
  160.3570  200.3760  149.0080 C   0  0  0  0  0  2  0  0  0  0  0  0
  161.2810  202.6880  150.7840 C   0  0  0  0  0  2  0  0  0  0  0  0
  161.7360  200.4910  148.3920 C   0  0  2  0  0  3  0  0  0  0  0  0
  161.2150  204.8590  144.0180 O   0  0  0  0  0  0  0  0  0  0  0  0
  161.3240  205.5330  142.8020 C   0  0  0  0  0  1  0  0  0  0  0  0
  161.5750  210.1960  149.1320 C   0  0  0  0  0  2  0  0  0  0  0  0
  162.1410  211.5230  149.3550 N   0  0  0  0  0  2  0  0  0  0  0  0
  161.8430  212.3300  148.1820 C   0  0  2  0  0  3  0  0  0  0  0  0
  162.5000  213.6900  148.3130 C   0  0  0  0  0  2  0  0  0  0  0  0
  163.8260  213.6030  147.8710 O   0  0  0  0  0  1  0  0  0  0  0  0
  160.3390  212.4840  148.0060 C   0  0  0  0  0  2  0  0  0  0  0  0
  160.0200  213.0540  146.6600 C   0  0  0  0  0  0  0  0  0  0  0  0
  160.1480  212.3480  145.6220 O   0  0  0  0  0  0  0  0  0  0  0  0
  159.5720  214.3660  146.5600 O   0  0  0  0  0  1  0  0  0  0  0  0
  1  5  1  0  0  0  0
  1  6  1  0  0  0  0
  2  4  1  0  0  0  0
  2  1  2  0  0  0  0
  3  6  1  0  0  0  0
  4  3  2  0  0  0  0
  6  8  1  6  0  0  0
  7  8  2  0  0  0  0
  8  9  1  0  0  0  0
 10  9  1  6  0  0  0
 10 11  1  0  0  0  0
 10 12  1  0  0  0  0
 11 12  1  0  0  0  0
 12 14  1  6  0  0  0
 13 14  2  0  0  0  0
 15 20  1  0  0  0  0
 17 19  1  0  0  0  0
 18 23  2  0  0  0  0
 19 13  1  0  0  0  0
 19 21  2  0  0  0  0
 20 17  1  0  0  0  0
 20 16  2  0  0  0  0
 22 15  2  0  0  0  0
 22 18  1  0  0  0  0
 23 16  1  0  0  0  0
 24 31  2  0  0  0  0
 25 29  1  6  0  0  0
 25 27  1  0  0  0  0
 25 28  1  0  0  0  0
 26 32  1  0  0  0  0
 30 23  1  1  0  0  0
 30 26  1  0  0  0  0
 30 29  1  0  0  0  0
 31 27  1  0  0  0  0
 32 24  1  6  0  0  0
 32 28  1  0  0  0  0
 33  2  1  0  0  0  0
 34 36  1  0  0  0  0
 35 37  1  0  0  0  0
 36 44  1  6  0  0  0
 37 36  1  0  0  0  0
 37 33  1  1  0  0  0
 38 35  1  0  0  0  0
 39 34  1  0  0  0  0
 40 38  2  0  0  0  0
 41 39  1  0  0  0  0
 42 56  1  6  0  0  0
 42 41  1  0  0  0  0
 42 38  1  0  0  0  0
 43 45  1  0  0  0  0
 44 49  1  0  0  0  0
 45 47  1  6  0  0  0
 45 54  1  0  0  0  0
 47 44  2  0  0  0  0
 49 48  2  0  0  0  0
 51 46  1  0  0  0  0
 51 50  1  0  0  0  0
 52 50  1  6  0  0  0
 52 53  1  0  0  0  0
 52 45  1  0  0  0  0
 54 48  1  0  0  0  0
 55 46  1  6  0  0  0
 55 43  1  0  0  0  0
 55 53  1  0  0  0  0
 57 56  1  0  0  0  0
 58 59  1  0  0  0  0
 58  4  1  0  0  0  0
 60 63  1  1  0  0  0
 60 61  1  0  0  0  0
 60 59  1  0  0  0  0
 62 61  1  0  0  0  0
 64 63  1  0  0  0  0
 65 64  2  0  0  0  0
 66 64  1  0  0  0  0
M  END
>  <MODEL>
2

>  <REMARK>
 VINA RESULT:      -3.3      4.670      9.811
  Name = 
  16 active torsions:
  status: ('A' for Active; 'I' for Inactive)
    1  A    between atoms: CA_3  and  C_12
    2  A    between atoms: CA_3  and  CB_35
    3  A    between atoms: CA_3  and  N_49
    4  A    between atoms: C_7  and  C_11
    5  A    between atoms: C_7  and  C_20
    6  A    between atoms: C_8  and  N_49
    7  A    between atoms: C_8  and  C_51
    8  A    between atoms: O_13  and  C_60
    9  A    between atoms: C_16  and  C_17
   10  A    between atoms: C_18  and  N_52
   11  A    between atoms: C_20  and  C_66
   12  A    between atoms: C_21  and  N_41
   13  A    between atoms: CG_24  and  CB_35
   14  A    between atoms: C_42  and  N_52
   15  A    between atoms: C_48  and  N_50
   16  A    between atoms: C_61  and  C_63
                            x       y       z     vdW  Elec       q    Type
                         _______ _______ _______ _____ _____    ______ ____

>  <TORSDO>
F 16

$$$$
=
 OpenBabel11042422403D

 66 74  0  0  1  0  0  0  0  0999 V2000
  162.4590  208.0750  150.9130 C   0  0  0  0  0  0  0  0  0  0  0  0
  162.6690  208.3960  149.6460 C   0  0  0  0  0  0  0  0  0  0  0  0
  161.8560  210.2860  150.6060 N   0  0  0  0  0  0  0  0  0  0  0  0
  162.2750  209.7820  149.4890 C   0  0  0  0  0  0  0  0  0  0  0  0
  162.6850  206.8250  151.4800 O   0  0  0  0  0  1  0  0  0  0  0  0
  161.9610  209.2760  151.6570 C   0  0  1  0  0  3  0  0  0  0  0  0
  159.7410  209.8510  152.2850 O   0  0  0  0  0  0  0  0  0  0  0  0
  160.6350  209.0200  152.3370 C   0  0  0  0  0  0  0  0  0  0  0  0
  160.3930  207.7360  153.0840 C   0  0  0  0  0  2  0  0  0  0  0  0
  161.7010  206.9690  153.2570 C   0  0  2  0  0  3  0  0  0  0  0  0
  161.4250  205.7250  154.0840 C   0  0  0  0  0  2  0  0  0  0  0  0
  162.2280  206.8540  154.6940 C   0  0  2  0  0  3  0  0  0  0  0  0
  161.3460  208.8410  155.6240 N   0  0  0  0  0  0  0  0  0  0  0  0
  161.4060  207.5660  155.6620 N   0  0  0  0  0  0  0  0  0  0  0  0
  160.8270  213.2680  157.2530 C   0  0  0  0  0  3  0  0  0  0  0  0
  159.5020  212.0490  155.6950 N   0  0  0  0  0  0  0  0  0  0  0  0
  161.1010  210.8470  157.0670 N   0  0  0  0  0  2  0  0  0  0  0  0
  159.2580  214.4180  155.8110 C   0  0  0  0  0  3  0  0  0  0  0  0
  160.6270  209.5750  156.6190 C   0  0  0  0  0  0  0  0  0  0  0  0
  160.4470  212.0600  156.6720 C   0  0  0  0  0  0  0  0  0  0  0  0
  159.5160  209.1460  157.0200 O   0  0  0  0  0  0  0  0  0  0  0  0
  160.2230  214.4530  156.8210 C   0  0  0  0  0  3  0  0  0  0  0  0
  158.9000  213.1930  155.2530 C   0  0  0  0  0  0  0  0  0  0  0  0
  155.5730  213.6700  156.0800 C   0  0  0  0  0  3  0  0  0  0  0  0
  155.8940  211.5980  154.2160 C   0  0  1  0  0  3  0  0  0  0  0  0
  156.9520  214.2970  154.1390 N   0  0  0  0  0  2  0  0  0  0  0  0
  155.7440  211.2840  155.7170 C   0  0  0  0  0  2  0  0  0  0  0  0
  155.1020  212.7660  153.8500 N   0  0  0  0  0  2  0  0  0  0  0  0
  157.3450  211.7830  153.7810 C   0  0  0  0  0  2  0  0  0  0  0  0
  157.9110  213.1720  154.1180 C   0  0  2  0  0  3  0  0  0  0  0  0
  155.6690  212.4740  156.5490 N   0  0  0  0  0  0  0  0  0  0  0  0
  155.6040  213.9260  154.5940 C   0  0  1  0  0  3  0  0  0  0  0  0
  163.1580  207.5390  148.6010 N   0  0  0  0  0  2  0  0  0  0  0  0
  159.7170  206.6180  147.5290 C   0  0  0  0  0  2  0  0  0  0  0  0
  163.1040  205.5990  147.1320 C   0  0  0  0  0  2  0  0  0  0  0  0
  160.9640  206.4150  148.4000 C   0  0  2  0  0  3  0  0  0  0  0  0
  162.3010  206.7740  147.7060 C   0  0  1  0  0  3  0  0  0  0  0  0
  162.3940  204.8080  146.0750 C   0  0  0  0  0  0  0  0  0  0  0  0
  159.7730  205.8520  146.2160 C   0  0  0  0  0  2  0  0  0  0  0  0
  162.4940  203.5890  146.0990 O   0  0  0  0  0  0  0  0  0  0  0  0
  160.7080  206.4470  145.3580 O   0  0  0  0  0  0  0  0  0  0  0  0
  161.6430  205.4730  144.9370 C   0  0  2  0  0  3  0  0  0  0  0  0
  162.3090  201.8350  149.2120 O   0  0  0  0  0  0  0  0  0  0  0  0
  160.9170  205.1580  149.2320 C   0  0  0  0  0  0  0  0  0  0  0  0
  161.2220  202.6840  149.5250 C   0  0  1  0  0  0  0  0  0  0  0  0
  161.6500  200.5150  147.3300 C   0  0  0  0  0  2  0  0  0  0  0  0
  161.3620  203.9870  148.7490 C   0  0  0  0  0  3  0  0  0  0  0  0
  160.3820  204.1600  151.3950 C   0  0  0  0  0  3  0  0  0  0  0  0
  160.2680  205.1960  150.5550 C   0  0  0  0  0  3  0  0  0  0  0  0
  159.5660  202.0260  147.6870 C   0  0  0  0  0  2  0  0  0  0  0  0
  160.3080  201.0310  146.7710 C   0  0  0  0  0  2  0  0  0  0  0  0
  159.9290  201.9200  149.1900 C   0  0  1  0  0  3  0  0  0  0  0  0
  160.3720  200.5170  149.4730 C   0  0  0  0  0  2  0  0  0  0  0  0
  161.2620  202.9890  151.0390 C   0  0  0  0  0  2  0  0  0  0  0  0
  161.7570  200.5860  148.8630 C   0  0  2  0  0  3  0  0  0  0  0  0
  161.0490  204.5310  144.0920 O   0  0  0  0  0  0  0  0  0  0  0  0
  159.6820  204.8030  144.1570 C   0  0  0  0  0  1  0  0  0  0  0  0
  162.2540  210.5370  148.2000 C   0  0  0  0  0  2  0  0  0  0  0  0
  161.9000  211.9370  148.4180 N   0  0  0  0  0  2  0  0  0  0  0  0
  161.6070  212.5240  147.1200 C   0  0  2  0  0  3  0  0  0  0  0  0
  161.9260  214.0050  147.1420 C   0  0  0  0  0  2  0  0  0  0  0  0
  163.0890  214.2120  147.8960 O   0  0  0  0  0  1  0  0  0  0  0  0
  160.1480  212.3020  146.7500 C   0  0  0  0  0  2  0  0  0  0  0  0
  159.8450  212.9050  145.4140 C   0  0  0  0  0  0  0  0  0  0  0  0
  159.8230  214.1580  145.2710 O   0  0  0  0  0  1  0  0  0  0  0  0
  159.5970  212.0740  144.3280 O   0  0  0  0  0  0  0  0  0  0  0  0
  1  5  1  0  0  0  0
  1  6  1  0  0  0  0
  2  1  2  0  0  0  0
  3  6  1  0  0  0  0
  4  2  1  0  0  0  0
  4  3  2  0  0  0  0
  6  8  1  6  0  0  0
  7  8  2  0  0  0  0
  8  9  1  0  0  0  0
 10  9  1  1  0  0  0
 10 11  1  0  0  0  0
 10 12  1  0  0  0  0
 11 12  1  0  0  0  0
 12 14  1  1  0  0  0
 13 14  2  0  0  0  0
 13 19  1  0  0  0  0
 16 20  2  0  0  0  0
 18 22  1  0  0  0  0
 19 21  2  0  0  0  0
 19 17  1  0  0  0  0
 20 17  1  0  0  0  0
 20 15  1  0  0  0  0
 22 15  2  0  0  0  0
 23 16  1  0  0  0  0
 23 18  2  0  0  0  0
 24 31  2  0  0  0  0
 25 29  1  1  0  0  0
 25 27  1  0  0  0  0
 26 32  1  0  0  0  0
 27 31  1  0  0  0  0
 28 25  1  0  0  0  0
 28 32  1  0  0  0  0
 29 30  1  0  0  0  0
 30 26  1  0  0  0  0
 30 23  1  1  0  0  0
 32 24  1  1  0  0  0
 33  2  1  0  0  0  0
 34 36  1  0  0  0  0
 35 37  1  0  0  0  0
 36 44  1  6  0  0  0
 37 36  1  0  0  0  0
 37 33  1  1  0  0  0
 38 40  2  0  0  0  0
 38 35  1  0  0  0  0
 39 34  1  0  0  0  0
 41 39  1  0  0  0  0
 42 56  1  1  0  0  0
 42 41  1  0  0  0  0
 42 38  1  0  0  0  0
 43 45  1  0  0  0  0
 44 49  1  0  0  0  0
 45 47  1  6  0  0  0
 45 54  1  0  0  0  0
 47 44  2  0  0  0  0
 49 48  2  0  0  0  0
 51 46  1  0  0  0  0
 51 50  1  0  0  0  0
 52 50  1  6  0  0  0
 52 53  1  0  0  0  0
 52 45  1  0  0  0  0
 54 48  1  0  0  0  0
 55 46  1  6  0  0  0
 55 43  1  0  0  0  0
 55 53  1  0  0  0  0
 56 57  1  0  0  0  0
 58 59  1  0  0  0  0
 58  4  1  0  0  0  0
 60 63  1  1  0  0  0
 60 61  1  0  0  0  0
 60 59  1  0  0  0  0
 61 62  1  0  0  0  0
 64 63  1  0  0  0  0
 65 64  1  0  0  0  0
 66 64  2  0  0  0  0
M  END
>  <MODEL>
3

>  <REMARK>
 VINA RESULT:      -0.7      4.331      9.988
  Name = 
  16 active torsions:
  status: ('A' for Active; 'I' for Inactive)
    1  A    between atoms: CA_3  and  C_12
    2  A    between atoms: CA_3  and  CB_35
    3  A    between atoms: CA_3  and  N_49
    4  A    between atoms: C_7  and  C_11
    5  A    between atoms: C_7  and  C_20
    6  A    between atoms: C_8  and  N_49
    7  A    between atoms: C_8  and  C_51
    8  A    between atoms: O_13  and  C_60
    9  A    between atoms: C_16  and  C_17
   10  A    between atoms: C_18  and  N_52
   11  A    between atoms: C_20  and  C_66
   12  A    between atoms: C_21  and  N_41
   13  A    between atoms: CG_24  and  CB_35
   14  A    between atoms: C_42  and  N_52
   15  A    between atoms: C_48  and  N_50
   16  A    between atoms: C_61  and  C_63
                            x       y       z     vdW  Elec       q    Type
                         _______ _______ _______ _____ _____    ______ ____

>  <TORSDO>
F 16

$$$$
