=
 OpenBabel11042422073D

 54 59  0  0  1  0  0  0  0  0999 V2000
  160.0560  211.1630  146.5080 C   0  0  0  0  0  1  0  0  0  0  0  0
  159.8860  213.5800  146.5850 N   0  0  0  0  0  0  0  0  0  0  0  0
  161.1430  214.2530  146.2530 C   0  0  1  0  0  3  0  0  0  0  0  0
  162.3030  213.4830  146.8680 C   0  0  1  0  0  3  0  0  0  0  0  0
  163.2480  214.4530  147.5510 C   0  0  0  0  0  1  0  0  0  0  0  0
  161.6500  212.5920  147.8910 C   0  0  1  0  0  3  0  0  0  0  0  0
  160.2260  212.4020  147.3790 C   0  0  2  0  0  3  0  0  0  0  0  0
  159.6180  213.1250  140.7990 C   0  0  0  0  0  0  0  0  0  0  0  0
  159.0950  213.8520  141.7160 N   0  0  0  0  0  0  0  0  0  0  0  0
  161.2840  214.4410  144.7400 C   0  0  2  0  0  3  0  0  0  0  0  0
  161.0200  213.0700  140.8550 N   0  0  0  0  0  2  0  0  0  0  0  0
  158.8430  212.4090  139.8470 N   0  0  0  0  0  1  0  0  0  0  0  0
  162.0910  212.8970  142.8830 C   0  0  0  0  0  2  0  0  0  0  0  0
  159.9730  214.1880  143.9860 C   0  0  0  0  0  2  0  0  0  0  0  0
  160.1950  214.4140  142.4860 C   0  0  1  0  0  3  0  0  0  0  0  0
  161.4590  213.8320  141.9450 N   0  0  2  0  0  0  0  0  0  0  0  0
  162.4470  213.6020  144.1910 C   0  0  0  0  0  2  0  0  0  0  0  0
  163.8080  211.4690  147.9220 O   0  0  0  0  0  1  0  0  0  0  0  0
  162.4400  211.2950  148.1640 C   0  0  1  0  0  3  0  0  0  0  0  0
  162.2170  210.7670  149.4610 O   0  0  0  0  0  0  0  0  0  0  0  0
  161.6470  209.4920  149.3450 C   0  0  0  0  0  2  0  0  0  0  0  0
  162.4950  208.6160  148.4430 C   0  0  0  0  0  2  0  0  0  0  0  0
  161.9790  207.2540  148.4230 N   0  0  0  0  0  0  0  0  0  0  0  0
  160.8630  205.5650  147.2500 O   0  0  0  0  0  1  0  0  0  0  0  0
  161.2340  206.7680  147.2870 C   0  0  0  0  0  0  0  0  0  0  0  0
  160.9230  207.6080  146.2220 O   0  0  0  0  0  0  0  0  0  0  0  0
  162.2400  206.3700  149.5460 C   0  0  0  0  0  2  0  0  0  0  0  0
  160.8870  204.3440  150.3980 C   0  0  2  0  0  3  0  0  0  0  0  0
  160.9460  205.8520  150.1920 C   0  0  1  0  0  3  0  0  0  0  0  0
  160.8500  206.4140  151.5900 C   0  0  0  0  0  2  0  0  0  0  0  0
  161.7590  205.6660  152.4570 N   0  0  0  0  0  0  0  0  0  0  0  0
  161.7250  203.9550  151.9620 S   0  0  0  0  0  0  0  0  0  0  0  0
  160.8310  202.4270  148.8000 C   0  0  0  0  0  0  0  0  0  0  0  0
  161.4230  203.5270  149.2640 C   0  0  0  0  0  3  0  0  0  0  0  0
  160.8050  201.5040  146.5030 C   0  0  0  0  0  1  0  0  0  0  0  0
  161.4480  201.7420  147.7540 O   0  0  0  0  0  0  0  0  0  0  0  0
  159.8230  201.0220  150.4190 O   0  0  0  0  0  1  0  0  0  0  0  0
  159.5480  201.9310  149.3970 C   0  0  0  0  0  2  0  0  0  0  0  0
  161.2170  205.7370  153.8060 C   0  0  0  0  0  2  0  0  0  0  0  0
  161.6020  208.1920  153.8010 C   0  0  0  0  0  1  0  0  0  0  0  0
  160.0830  207.1790  155.4730 C   0  0  0  0  0  1  0  0  0  0  0  0
  160.5830  207.0950  154.0410 C   0  0  0  0  0  3  0  0  0  0  0  0
  159.2050  214.4190  147.4020 O   0  0  0  0  0  0  0  0  0  0  0  0
  158.5090  214.1610  149.6550 C   0  0  1  0  0  3  0  0  0  0  0  0
  158.4750  213.5870  148.2520 C   0  0  1  0  0  3  0  0  0  0  0  0
  157.2760  214.3520  148.7760 C   0  0  1  0  0  3  0  0  0  0  0  0
  156.2570  213.4560  149.1110 O   0  0  0  0  0  1  0  0  0  0  0  0
  158.3180  213.1170  150.6030 O   0  0  0  0  0  0  0  0  0  0  0  0
  158.8140  213.1210  151.9180 C   0  0  0  0  0  0  0  0  0  0  0  0
  158.7510  214.2280  152.5770 N   0  0  0  0  0  2  0  0  0  0  0  0
  158.6180  211.3000  153.7360 C   0  0  0  0  0  2  0  0  0  0  0  0
  160.1440  211.0110  151.8700 F   0  0  0  0  0  0  0  0  0  0  0  0
  159.8950  212.0810  154.0380 C   0  0  0  0  0  2  0  0  0  0  0  0
  159.4140  211.9200  152.6150 C   0  0  0  0  0  0  0  0  0  0  0  0
  2  7  1  0  0  0  0
  2 43  1  0  0  0  0
  3  2  1  6  0  0  0
  3  4  1  0  0  0  0
  4  5  1  1  0  0  0
  4  6  1  0  0  0  0
  6 19  1  6  0  0  0
  7  1  1  6  0  0  0
  7  6  1  0  0  0  0
  8 11  1  0  0  0  0
  8  9  2  0  0  0  0
  9 15  1  0  0  0  0
 10 14  1  6  0  0  0
 10  3  1  0  0  0  0
 11 16  1  0  0  0  0
 12  8  1  0  0  0  0
 13 17  1  0  0  0  0
 15 14  1  1  0  0  0
 16 15  1  0  0  0  0
 16 13  1  1  0  0  0
 17 10  1  0  0  0  0
 19 18  1  1  0  0  0
 19 20  1  0  0  0  0
 21 20  1  0  0  0  0
 22 21  1  0  0  0  0
 23 22  1  0  0  0  0
 23 27  1  0  0  0  0
 24 25  1  0  0  0  0
 25 23  1  0  0  0  0
 26 25  2  0  0  0  0
 28 34  1  6  0  0  0
 28 32  1  0  0  0  0
 29 27  1  1  0  0  0
 29 28  1  0  0  0  0
 29 30  1  0  0  0  0
 30 31  1  0  0  0  0
 31 39  1  0  0  0  0
 32 31  1  0  0  0  0
 33 34  2  0  0  0  0
 33 38  1  0  0  0  0
 35 36  1  0  0  0  0
 36 33  1  0  0  0  0
 38 37  1  0  0  0  0
 39 42  1  0  0  0  0
 40 42  1  0  0  0  0
 42 41  1  0  0  0  0
 44 48  1  1  0  0  0
 45 43  1  6  0  0  0
 45 46  1  0  0  0  0
 45 44  1  0  0  0  0
 46 47  1  1  0  0  0
 46 44  1  0  0  0  0
 48 49  1  0  0  0  0
 49 50  2  0  0  0  0
 49 54  1  0  0  0  0
 51 53  1  0  0  0  0
 52 54  1  0  0  0  0
 54 51  1  0  0  0  0
 54 53  1  0  0  0  0
M  END
>  <MODEL>
1

>  <REMARK>
 VINA RESULT:      -4.6      0.000      0.000
  Name = 
  18 active torsions:
  status: ('A' for Active; 'I' for Inactive)
    1  A    between atoms: C_1  and  O_47
    2  A    between atoms: C_1  and  C_51
    3  A    between atoms: C_2  and  O_5
    4  A    between atoms: C_2  and  C_40
    5  A    between atoms: N_4  and  O_28
    6  A    between atoms: O_5  and  C_31
    7  A    between atoms: C_8  and  N_15
    8  A    between atoms: C_8  and  C_18
    9  A    between atoms: C_9  and  O_32
   10  A    between atoms: C_10  and  N_33
   11  A    between atoms: C_10  and  C_50
   12  A    between atoms: C_13  and  C_20
   13  A    between atoms: C_14  and  C_17
   14  A    between atoms: N_15  and  C_40
   15  A    between atoms: C_19  and  O_28
   16  A    between atoms: C_27  and  C_31
   17  A    between atoms: O_32  and  C_34
   18  A    between atoms: C_34  and  C_54
                            x       y       z     vdW  Elec       q    Type
                         _______ _______ _______ _____ _____    ______ ____

>  <TORSDO>
F 18

$$$$
=
 OpenBabel11042422073D

 54 59  0  0  1  0  0  0  0  0999 V2000
  163.7160  206.4130  151.2990 C   0  0  0  0  0  1  0  0  0  0  0  0
  161.6110  205.2600  151.6450 N   0  0  0  0  0  0  0  0  0  0  0  0
  160.8660  205.0440  150.4030 C   0  0  1  0  0  3  0  0  0  0  0  0
  161.0030  206.2720  149.5150 C   0  0  1  0  0  3  0  0  0  0  0  0
  159.6410  206.6540  148.9660 C   0  0  0  0  0  1  0  0  0  0  0  0
  161.5020  207.3450  150.4460 C   0  0  1  0  0  3  0  0  0  0  0  0
  162.2230  206.5830  151.5530 C   0  0  2  0  0  3  0  0  0  0  0  0
  160.5530  201.1600  146.1420 C   0  0  0  0  0  0  0  0  0  0  0  0
  161.0820  202.3240  146.2210 N   0  0  0  0  0  0  0  0  0  0  0  0
  161.3100  203.7530  149.7120 C   0  0  2  0  0  3  0  0  0  0  0  0
  160.5830  200.4450  147.3510 N   0  0  0  0  0  2  0  0  0  0  0  0
  159.9530  200.6630  144.9540 N   0  0  0  0  0  1  0  0  0  0  0  0
  160.1510  201.5160  149.3400 C   0  0  0  0  0  2  0  0  0  0  0  0
  161.0980  203.7870  148.1940 C   0  0  0  0  0  2  0  0  0  0  0  0
  161.5820  202.4690  147.5800 C   0  0  1  0  0  3  0  0  0  0  0  0
  161.1830  201.2430  148.3330 N   0  0  2  0  0  0  0  0  0  0  0  0
  160.6520  202.5290  150.3680 C   0  0  0  0  0  2  0  0  0  0  0  0
  162.6140  208.0780  148.4100 O   0  0  0  0  0  1  0  0  0  0  0  0
  162.3320  208.4330  149.7340 C   0  0  1  0  0  3  0  0  0  0  0  0
  161.7410  209.7200  149.8000 O   0  0  0  0  0  0  0  0  0  0  0  0
  162.4630  210.5990  148.9810 C   0  0  0  0  0  2  0  0  0  0  0  0
  161.6880  210.8900  147.7100 C   0  0  0  0  0  2  0  0  0  0  0  0
  161.5530  212.3270  147.5120 N   0  0  0  0  0  0  0  0  0  0  0  0
  161.3130  214.4530  148.4570 O   0  0  0  0  0  0  0  0  0  0  0  0
  161.3490  213.2070  148.6360 C   0  0  0  0  0  0  0  0  0  0  0  0
  161.1990  212.7010  149.9240 O   0  0  0  0  0  1  0  0  0  0  0  0
  161.6490  212.8790  146.1710 C   0  0  0  0  0  2  0  0  0  0  0  0
  159.2850  213.1030  145.1590 C   0  0  2  0  0  3  0  0  0  0  0  0
  160.5810  212.3050  145.2280 C   0  0  1  0  0  3  0  0  0  0  0  0
  161.1130  212.3540  143.8160 C   0  0  0  0  0  2  0  0  0  0  0  0
  161.0190  213.7290  143.3290 N   0  0  0  0  0  0  0  0  0  0  0  0
  159.5110  214.4430  143.9530 S   0  0  0  0  0  0  0  0  0  0  0  0
  157.5030  213.8660  146.7310 C   0  0  0  0  0  0  0  0  0  0  0  0
  158.7860  213.6180  146.4730 C   0  0  0  0  0  3  0  0  0  0  0  0
  156.6970  213.5410  149.0490 C   0  0  0  0  0  1  0  0  0  0  0  0
  157.1730  214.3690  147.9890 O   0  0  0  0  0  0  0  0  0  0  0  0
  155.3240  214.4060  145.9770 O   0  0  0  0  0  1  0  0  0  0  0  0
  156.4470  213.6290  145.6940 C   0  0  0  0  0  2  0  0  0  0  0  0
  160.8970  213.6610  141.8790 C   0  0  0  0  0  2  0  0  0  0  0  0
  162.1680  211.9440  140.6090 C   0  0  0  0  0  1  0  0  0  0  0  0
  159.6930  211.9350  140.5700 C   0  0  0  0  0  1  0  0  0  0  0  0
  160.9180  212.2140  141.4230 C   0  0  0  0  0  3  0  0  0  0  0  0
  160.6920  205.3220  152.6380 O   0  0  0  0  0  0  0  0  0  0  0  0
  160.6070  207.4290  153.7240 C   0  0  1  0  0  3  0  0  0  0  0  0
  161.2930  206.0800  153.6440 C   0  0  1  0  0  3  0  0  0  0  0  0
  160.2760  206.3380  154.7390 C   0  0  1  0  0  3  0  0  0  0  0  0
  160.9350  206.5430  155.9540 O   0  0  0  0  0  1  0  0  0  0  0  0
  161.5060  208.3910  154.2660 O   0  0  0  0  0  0  0  0  0  0  0  0
  161.4220  209.7780  154.0600 C   0  0  0  0  0  0  0  0  0  0  0  0
  161.9510  210.2560  152.9850 N   0  0  0  0  0  2  0  0  0  0  0  0
  159.4750  210.3040  155.6710 C   0  0  0  0  0  2  0  0  0  0  0  0
  161.5470  211.5640  155.7980 F   0  0  0  0  0  0  0  0  0  0  0  0
  159.4470  211.3800  154.5880 C   0  0  0  0  0  2  0  0  0  0  0  0
  160.7540  210.7500  155.0080 C   0  0  0  0  0  0  0  0  0  0  0  0
  2 43  1  0  0  0  0
  3  2  1  1  0  0  0
  4  5  1  1  0  0  0
  4  3  1  0  0  0  0
  4  6  1  0  0  0  0
  6 19  1  6  0  0  0
  6  7  1  0  0  0  0
  7  1  1  6  0  0  0
  7  2  1  0  0  0  0
  8  9  2  0  0  0  0
  8 11  1  0  0  0  0
  9 15  1  0  0  0  0
 10 14  1  6  0  0  0
 10 17  1  0  0  0  0
 10  3  1  0  0  0  0
 11 16  1  0  0  0  0
 12  8  1  0  0  0  0
 13 17  1  0  0  0  0
 15 14  1  1  0  0  0
 15 16  1  0  0  0  0
 16 13  1  1  0  0  0
 19 18  1  6  0  0  0
 19 20  1  0  0  0  0
 21 20  1  0  0  0  0
 22 21  1  0  0  0  0
 23 22  1  0  0  0  0
 23 25  1  0  0  0  0
 24 25  2  0  0  0  0
 25 26  1  0  0  0  0
 27 23  1  0  0  0  0
 28 29  1  0  0  0  0
 28 34  1  1  0  0  0
 29 27  1  1  0  0  0
 30 29  1  0  0  0  0
 31 30  1  0  0  0  0
 31 32  1  0  0  0  0
 32 28  1  0  0  0  0
 33 36  1  0  0  0  0
 34 33  2  0  0  0  0
 36 35  1  0  0  0  0
 38 37  1  0  0  0  0
 38 33  1  0  0  0  0
 39 31  1  0  0  0  0
 40 42  1  0  0  0  0
 41 42  1  0  0  0  0
 42 39  1  0  0  0  0
 44 48  1  1  0  0  0
 44 46  1  0  0  0  0
 45 43  1  6  0  0  0
 45 44  1  0  0  0  0
 45 46  1  0  0  0  0
 46 47  1  1  0  0  0
 49 48  1  0  0  0  0
 49 54  1  0  0  0  0
 50 49  2  0  0  0  0
 53 54  1  0  0  0  0
 53 51  1  0  0  0  0
 54 51  1  0  0  0  0
 54 52  1  0  0  0  0
M  END
>  <MODEL>
2

>  <REMARK>
 VINA RESULT:      -3.8      3.420     10.063
  Name = 
  18 active torsions:
  status: ('A' for Active; 'I' for Inactive)
    1  A    between atoms: C_1  and  O_47
    2  A    between atoms: C_1  and  C_51
    3  A    between atoms: C_2  and  O_5
    4  A    between atoms: C_2  and  C_40
    5  A    between atoms: N_4  and  O_28
    6  A    between atoms: O_5  and  C_31
    7  A    between atoms: C_8  and  N_15
    8  A    between atoms: C_8  and  C_18
    9  A    between atoms: C_9  and  O_32
   10  A    between atoms: C_10  and  N_33
   11  A    between atoms: C_10  and  C_50
   12  A    between atoms: C_13  and  C_20
   13  A    between atoms: C_14  and  C_17
   14  A    between atoms: N_15  and  C_40
   15  A    between atoms: C_19  and  O_28
   16  A    between atoms: C_27  and  C_31
   17  A    between atoms: O_32  and  C_34
   18  A    between atoms: C_34  and  C_54
                            x       y       z     vdW  Elec       q    Type
                         _______ _______ _______ _____ _____    ______ ____

>  <TORSDO>
F 18

$$$$
=
 OpenBabel11042422073D

 54 59  0  0  1  0  0  0  0  0999 V2000
  163.6450  204.0830  145.5140 C   0  0  0  0  0  1  0  0  0  0  0  0
  162.7730  205.5920  147.1990 N   0  0  0  0  0  0  0  0  0  0  0  0
  161.3090  205.6260  147.2340 C   0  0  1  0  0  3  0  0  0  0  0  0
  160.7710  205.5710  145.8110 C   0  0  1  0  0  3  0  0  0  0  0  0
  159.6890  206.6190  145.6390 C   0  0  0  0  0  1  0  0  0  0  0  0
  161.9620  205.9130  144.9550 C   0  0  1  0  0  3  0  0  0  0  0  0
  163.1660  205.5020  145.7950 C   0  0  2  0  0  3  0  0  0  0  0  0
  161.8340  201.7230  151.4560 C   0  0  0  0  0  0  0  0  0  0  0  0
  161.6820  202.9950  151.4610 N   0  0  0  0  0  0  0  0  0  0  0  0
  160.7540  204.5150  148.1280 C   0  0  2  0  0  3  0  0  0  0  0  0
  161.1960  201.0830  150.3800 N   0  0  0  0  0  2  0  0  0  0  0  0
  162.6150  201.0340  152.4240 N   0  0  0  0  0  1  0  0  0  0  0  0
  161.2480  202.0220  148.2810 C   0  0  0  0  0  2  0  0  0  0  0  0
  161.4540  204.4430  149.4900 C   0  0  0  0  0  2  0  0  0  0  0  0
  160.8290  203.3220  150.3280 C   0  0  1  0  0  3  0  0  0  0  0  0
  160.5730  202.0530  149.5840 N   0  0  2  0  0  0  0  0  0  0  0  0
  160.7620  203.1670  147.3930 C   0  0  0  0  0  2  0  0  0  0  0  0
  160.5700  205.0830  143.1410 O   0  0  0  0  0  1  0  0  0  0  0  0
  161.8930  205.3000  143.5410 C   0  0  1  0  0  3  0  0  0  0  0  0
  162.6000  206.0530  142.5700 O   0  0  0  0  0  0  0  0  0  0  0  0
  161.7580  206.2980  141.4770 C   0  0  0  0  0  2  0  0  0  0  0  0
  162.5790  206.5400  140.2250 C   0  0  0  0  0  2  0  0  0  0  0  0
  161.8900  207.4640  139.3340 N   0  0  0  0  0  0  0  0  0  0  0  0
  161.2410  208.0180  137.1550 O   0  0  0  0  0  0  0  0  0  0  0  0
  161.9050  207.2560  137.9060 C   0  0  0  0  0  0  0  0  0  0  0  0
  162.6410  206.2180  137.3420 O   0  0  0  0  0  1  0  0  0  0  0  0
  161.1600  208.5910  139.8910 C   0  0  0  0  0  2  0  0  0  0  0  0
  160.3370  210.8560  138.9690 C   0  0  2  0  0  3  0  0  0  0  0  0
  161.5120  209.9130  139.1940 C   0  0  1  0  0  3  0  0  0  0  0  0
  162.4380  210.6960  140.0940 C   0  0  0  0  0  2  0  0  0  0  0  0
  161.6490  211.2980  141.1670 N   0  0  0  0  0  0  0  0  0  0  0  0
  160.0860  211.8190  140.4890 S   0  0  0  0  0  0  0  0  0  0  0  0
  158.2330  210.7350  137.6320 C   0  0  0  0  0  0  0  0  0  0  0  0
  159.0720  210.1970  138.5150 C   0  0  0  0  0  3  0  0  0  0  0  0
  156.5040  209.0510  138.1840 C   0  0  0  0  0  1  0  0  0  0  0  0
  157.0740  210.0280  137.3140 O   0  0  0  0  0  0  0  0  0  0  0  0
  157.8410  213.0690  137.7100 O   0  0  0  0  0  1  0  0  0  0  0  0
  158.5170  212.0700  137.0110 C   0  0  0  0  0  2  0  0  0  0  0  0
  162.3550  212.4970  141.5960 C   0  0  0  0  0  2  0  0  0  0  0  0
  161.0070  212.5690  143.6820 C   0  0  0  0  0  1  0  0  0  0  0  0
  163.1440  213.8120  143.5430 C   0  0  0  0  0  1  0  0  0  0  0  0
  162.4120  212.5530  143.1110 C   0  0  0  0  0  3  0  0  0  0  0  0
  163.1950  206.7990  147.6480 O   0  0  0  0  0  0  0  0  0  0  0  0
  162.3780  207.7570  149.6580 C   0  0  1  0  0  3  0  0  0  0  0  0
  162.0680  207.3890  148.2200 C   0  0  1  0  0  3  0  0  0  0  0  0
  162.3930  208.8280  148.5710 C   0  0  1  0  0  3  0  0  0  0  0  0
  161.2190  209.5870  148.5760 O   0  0  0  0  0  1  0  0  0  0  0  0
  161.1720  207.7940  150.4120 O   0  0  0  0  0  0  0  0  0  0  0  0
  161.0990  207.8770  151.8130 C   0  0  0  0  0  0  0  0  0  0  0  0
  160.5560  208.9300  152.3220 N   0  0  0  0  0  2  0  0  0  0  0  0
  160.6010  205.8530  153.3360 C   0  0  0  0  0  2  0  0  0  0  0  0
  162.8580  206.2650  152.5410 F   0  0  0  0  0  0  0  0  0  0  0  0
  161.2330  206.9220  154.2240 C   0  0  0  0  0  2  0  0  0  0  0  0
  161.6100  206.8180  152.7660 C   0  0  0  0  0  0  0  0  0  0  0  0
  2 43  1  0  0  0  0
  3  2  1  6  0  0  0
  3 10  1  0  0  0  0
  4  5  1  1  0  0  0
  4  3  1  0  0  0  0
  6 19  1  6  0  0  0
  6  7  1  0  0  0  0
  6  4  1  0  0  0  0
  7  1  1  6  0  0  0
  7  2  1  0  0  0  0
  8  9  2  0  0  0  0
  8 12  1  0  0  0  0
 10 17  1  6  0  0  0
 10 14  1  0  0  0  0
 11  8  1  0  0  0  0
 15 14  1  6  0  0  0
 15  9  1  0  0  0  0
 16 13  1  6  0  0  0
 16 15  1  0  0  0  0
 16 11  1  0  0  0  0
 17 13  1  0  0  0  0
 19 18  1  6  0  0  0
 20 19  1  0  0  0  0
 21 20  1  0  0  0  0
 22 21  1  0  0  0  0
 23 27  1  0  0  0  0
 23 22  1  0  0  0  0
 24 25  2  0  0  0  0
 25 23  1  0  0  0  0
 26 25  1  0  0  0  0
 28 34  1  1  0  0  0
 28 29  1  0  0  0  0
 28 32  1  0  0  0  0
 29 27  1  1  0  0  0
 29 30  1  0  0  0  0
 30 31  1  0  0  0  0
 31 39  1  0  0  0  0
 32 31  1  0  0  0  0
 33 34  2  0  0  0  0
 36 33  1  0  0  0  0
 36 35  1  0  0  0  0
 38 33  1  0  0  0  0
 38 37  1  0  0  0  0
 39 42  1  0  0  0  0
 42 41  1  0  0  0  0
 42 40  1  0  0  0  0
 44 48  1  1  0  0  0
 45 43  1  6  0  0  0
 45 46  1  0  0  0  0
 45 44  1  0  0  0  0
 46 47  1  1  0  0  0
 46 44  1  0  0  0  0
 48 49  1  0  0  0  0
 49 50  2  0  0  0  0
 49 54  1  0  0  0  0
 51 53  1  0  0  0  0
 52 54  1  0  0  0  0
 54 51  1  0  0  0  0
 54 53  1  0  0  0  0
M  END
>  <MODEL>
3

>  <REMARK>
 VINA RESULT:      -3.2      4.595     10.915
  Name = 
  18 active torsions:
  status: ('A' for Active; 'I' for Inactive)
    1  A    between atoms: C_1  and  O_47
    2  A    between atoms: C_1  and  C_51
    3  A    between atoms: C_2  and  O_5
    4  A    between atoms: C_2  and  C_40
    5  A    between atoms: N_4  and  O_28
    6  A    between atoms: O_5  and  C_31
    7  A    between atoms: C_8  and  N_15
    8  A    between atoms: C_8  and  C_18
    9  A    between atoms: C_9  and  O_32
   10  A    between atoms: C_10  and  N_33
   11  A    between atoms: C_10  and  C_50
   12  A    between atoms: C_13  and  C_20
   13  A    between atoms: C_14  and  C_17
   14  A    between atoms: N_15  and  C_40
   15  A    between atoms: C_19  and  O_28
   16  A    between atoms: C_27  and  C_31
   17  A    between atoms: O_32  and  C_34
   18  A    between atoms: C_34  and  C_54
                            x       y       z     vdW  Elec       q    Type
                         _______ _______ _______ _____ _____    ______ ____

>  <TORSDO>
F 18

$$$$
