=
 OpenBabel11052411553D

 32 36  0  0  1  0  0  0  0  0999 V2000
  160.1730  210.0590  153.1340 C   0  0  0  0  0  0  0  0  0  0  0  0
  160.8320  207.8470  152.3350 C   0  0  0  0  0  0  0  0  0  0  0  0
  160.3240  209.1320  152.0920 C   0  0  0  0  0  3  0  0  0  0  0  0
  160.5550  209.6910  154.4310 C   0  0  0  0  0  3  0  0  0  0  0  0
  161.2000  207.4960  153.6420 C   0  0  0  0  0  3  0  0  0  0  0  0
  161.0630  208.4140  154.6860 C   0  0  0  0  0  0  0  0  0  0  0  0
  160.8270  205.5520  151.3790 C   0  0  0  0  0  3  0  0  0  0  0  0
  161.0430  205.0290  150.1290 C   0  0  0  0  0  0  0  0  0  0  0  0
  161.0570  203.7780  149.5350 C   0  0  0  0  0  0  0  0  0  0  0  0
  160.8270  202.5350  150.1140 C   0  0  0  0  0  3  0  0  0  0  0  0
  161.3080  206.0410  149.2830 C   0  0  0  0  0  0  0  0  0  0  0  0
  161.5910  205.5080  147.7060 S   0  0  0  0  0  0  0  0  0  0  0  0
  161.4210  202.7910  147.3780 N   0  0  0  0  0  0  0  0  0  0  0  0
  161.2700  207.2270  149.9690 C   0  0  0  0  0  3  0  0  0  0  0  0
  160.9020  201.4060  149.2830 C   0  0  0  0  0  3  0  0  0  0  0  0
  161.2000  201.5530  147.9120 C   0  0  0  0  0  0  0  0  0  0  0  0
  160.9730  206.9040  151.2590 N   0  0  0  0  0  0  0  0  0  0  0  0
  161.3500  203.8850  148.1770 C   0  0  0  0  0  0  0  0  0  0  0  0
  161.2740  200.3920  147.0710 C   0  0  0  0  0  0  0  0  0  0  0  0
  161.3340  199.4570  146.3930 N   0  0  0  0  0  0  0  0  0  0  0  0
  157.8160  212.9830  152.7010 O   0  0  0  0  0  0  0  0  0  0  0  0
  157.1770  213.5120  153.8360 C   0  0  2  0  0  3  0  0  0  0  0  0
  156.6470  212.3470  154.6540 C   0  0  0  0  0  2  0  0  0  0  0  0
  158.2890  211.7840  153.1280 N   0  0  0  0  0  0  0  0  0  0  0  0
  160.4370  212.2920  152.3980 O   0  0  0  0  0  0  0  0  0  0  0  0
  159.6570  211.4240  152.8760 C   0  0  0  0  0  0  0  0  0  0  0  0
  157.5460  211.2210  154.2350 C   0  0  0  0  0  2  0  0  0  0  0  0
  154.8520  214.0850  154.0690 O   0  0  0  0  0  1  0  0  0  0  0  0
  155.8520  214.4410  151.9380 C   0  0  0  0  0  1  0  0  0  0  0  0
  156.0440  214.4530  153.4410 C   0  0  2  0  0  3  0  0  0  0  0  0
  161.7680  207.7390  157.1400 C   0  0  0  0  0  3  0  0  0  0  0  0
  161.4460  208.0470  156.0200 C   0  0  0  0  0  0  0  0  0  0  0  0
  1  4  1  0  0  0  0
  2  5  2  0  0  0  0
  3  2  1  0  0  0  0
  3  1  2  0  0  0  0
  4  6  2  0  0  0  0
  5  6  1  0  0  0  0
  6 32  1  0  0  0  0
  8  7  2  0  0  0  0
  9 10  1  0  0  0  0
  9  8  1  0  0  0  0
 11 14  2  0  0  0  0
 11  8  1  0  0  0  0
 12 18  1  0  0  0  0
 12 11  1  0  0  0  0
 13 16  2  0  0  0  0
 13 18  1  0  0  0  0
 14 17  1  0  0  0  0
 15 10  2  0  0  0  0
 16 15  1  0  0  0  0
 17  7  1  0  0  0  0
 17  2  1  0  0  0  0
 18  9  2  0  0  0  0
 19 16  1  0  0  0  0
 20 19  3  0  0  0  0
 21 24  1  0  0  0  0
 21 22  1  0  0  0  0
 22 30  1  6  0  0  0
 22 23  1  0  0  0  0
 24 27  1  0  0  0  0
 25 26  2  0  0  0  0
 26 24  1  0  0  0  0
 26  1  1  0  0  0  0
 27 23  1  0  0  0  0
 30 29  1  6  0  0  0
 30 28  1  0  0  0  0
 32 31  3  0  0  0  0
M  END
>  <MODEL>
1

>  <REMARK>
 VINA RESULT:      -8.6      0.000      0.000
  Name = 
  5 active torsions:
  status: ('A' for Active; 'I' for Inactive)
    1  A    between atoms: C_2  and  C_29
    2  A    between atoms: C_10  and  C_11
    3  A    between atoms: C_17  and  N_31
    4  A    between atoms: C_22  and  C_30
    5  A    between atoms: C_27  and  C_28
                            x       y       z     vdW  Elec       q    Type
                         _______ _______ _______ _____ _____    ______ ____

>  <TORSDO>
F 5

$$$$
=
 OpenBabel11052411553D

 32 36  0  0  1  0  0  0  0  0999 V2000
  160.8920  209.2050  152.5840 C   0  0  0  0  0  0  0  0  0  0  0  0
  161.2460  207.5160  150.8550 C   0  0  0  0  0  0  0  0  0  0  0  0
  160.8530  207.8700  152.1540 C   0  0  0  0  0  3  0  0  0  0  0  0
  161.3170  210.1940  151.6860 C   0  0  0  0  0  3  0  0  0  0  0  0
  161.6750  208.5210  149.9760 C   0  0  0  0  0  3  0  0  0  0  0  0
  161.7100  209.8550  150.3890 C   0  0  0  0  0  0  0  0  0  0  0  0
  161.2610  205.7220  149.1350 C   0  0  0  0  0  3  0  0  0  0  0  0
  161.1980  204.3510  149.1710 C   0  0  0  0  0  0  0  0  0  0  0  0
  161.2000  203.3060  148.2640 C   0  0  0  0  0  0  0  0  0  0  0  0
  161.2760  203.3550  146.8760 C   0  0  0  0  0  3  0  0  0  0  0  0
  161.1130  203.9620  150.4560 C   0  0  0  0  0  0  0  0  0  0  0  0
  161.0290  202.2840  150.6190 S   0  0  0  0  0  0  0  0  0  0  0  0
  161.0950  200.9090  148.2480 N   0  0  0  0  0  0  0  0  0  0  0  0
  161.1180  205.0690  151.2660 C   0  0  0  0  0  3  0  0  0  0  0  0
  161.2590  202.1360  146.1790 C   0  0  0  0  0  3  0  0  0  0  0  0
  161.1680  200.9180  146.8840 C   0  0  0  0  0  0  0  0  0  0  0  0
  161.2090  206.1430  150.4320 N   0  0  0  0  0  0  0  0  0  0  0  0
  161.1110  202.0830  148.9260 C   0  0  0  0  0  0  0  0  0  0  0  0
  161.1510  199.6780  146.1620 C   0  0  0  0  0  0  0  0  0  0  0  0
  161.1380  198.6780  145.5800 N   0  0  0  0  0  0  0  0  0  0  0  0
  159.4350  211.1600  155.4730 O   0  0  0  0  0  0  0  0  0  0  0  0
  158.0420  211.3400  155.5350 C   0  0  2  0  0  3  0  0  0  0  0  0
  157.5650  211.7450  154.1510 C   0  0  0  0  0  2  0  0  0  0  0  0
  159.6480  210.7450  154.1970 N   0  0  0  0  0  0  0  0  0  0  0  0
  160.8280  208.8790  154.9260 O   0  0  0  0  0  0  0  0  0  0  0  0
  160.4570  209.5840  153.9480 C   0  0  0  0  0  0  0  0  0  0  0  0
  158.6330  211.1810  153.2620 C   0  0  0  0  0  2  0  0  0  0  0  0
  156.4380  212.1060  157.1570 O   0  0  0  0  0  1  0  0  0  0  0  0
  157.6060  213.7660  155.9140 C   0  0  0  0  0  1  0  0  0  0  0  0
  157.6690  212.4000  156.5660 C   0  0  2  0  0  3  0  0  0  0  0  0
  162.5130  211.7350  148.7180 C   0  0  0  0  0  3  0  0  0  0  0  0
  162.1470  210.8770  149.4810 C   0  0  0  0  0  0  0  0  0  0  0  0
  1 26  1  0  0  0  0
  2  3  2  0  0  0  0
  3  1  1  0  0  0  0
  4  1  2  0  0  0  0
  5  6  2  0  0  0  0
  5  2  1  0  0  0  0
  6  4  1  0  0  0  0
  7  8  2  0  0  0  0
  7 17  1  0  0  0  0
  8 11  1  0  0  0  0
  9 18  1  0  0  0  0
  9  8  1  0  0  0  0
 10  9  2  0  0  0  0
 11 12  1  0  0  0  0
 11 14  2  0  0  0  0
 13 18  2  0  0  0  0
 15 10  1  0  0  0  0
 15 16  2  0  0  0  0
 16 13  1  0  0  0  0
 17  2  1  0  0  0  0
 17 14  1  0  0  0  0
 18 12  1  0  0  0  0
 19 16  1  0  0  0  0
 20 19  3  0  0  0  0
 21 22  1  0  0  0  0
 22 30  1  1  0  0  0
 23 22  1  0  0  0  0
 24 21  1  0  0  0  0
 26 24  1  0  0  0  0
 26 25  2  0  0  0  0
 27 23  1  0  0  0  0
 27 24  1  0  0  0  0
 30 29  1  6  0  0  0
 30 28  1  0  0  0  0
 31 32  3  0  0  0  0
 32  6  1  0  0  0  0
M  END
>  <MODEL>
2

>  <REMARK>
 VINA RESULT:      -8.4      2.136      3.395
  Name = 
  5 active torsions:
  status: ('A' for Active; 'I' for Inactive)
    1  A    between atoms: C_2  and  C_29
    2  A    between atoms: C_10  and  C_11
    3  A    between atoms: C_17  and  N_31
    4  A    between atoms: C_22  and  C_30
    5  A    between atoms: C_27  and  C_28
                            x       y       z     vdW  Elec       q    Type
                         _______ _______ _______ _____ _____    ______ ____

>  <TORSDO>
F 5

$$$$
=
 OpenBabel11052411553D

 32 36  0  0  1  0  0  0  0  0999 V2000
  161.1220  208.9070  152.5130 C   0  0  0  0  0  0  0  0  0  0  0  0
  161.0610  206.4650  152.5160 C   0  0  0  0  0  0  0  0  0  0  0  0
  161.1430  207.6850  151.8260 C   0  0  0  0  0  3  0  0  0  0  0  0
  161.0360  208.8980  153.9120 C   0  0  0  0  0  3  0  0  0  0  0  0
  160.9670  206.4800  153.9150 C   0  0  0  0  0  3  0  0  0  0  0  0
  160.9560  207.6910  154.6110 C   0  0  0  0  0  0  0  0  0  0  0  0
  161.0970  205.1020  150.4380 C   0  0  0  0  0  3  0  0  0  0  0  0
  161.1010  203.7560  150.1690 C   0  0  0  0  0  0  0  0  0  0  0  0
  161.1190  202.9390  149.0510 C   0  0  0  0  0  0  0  0  0  0  0  0
  161.1410  203.2990  147.7070 C   0  0  0  0  0  3  0  0  0  0  0  0
  161.0830  203.0870  151.3360 C   0  0  0  0  0  0  0  0  0  0  0  0
  161.0870  201.4120  151.1220 S   0  0  0  0  0  0  0  0  0  0  0  0
  161.1290  200.6030  148.5030 N   0  0  0  0  0  0  0  0  0  0  0  0
  161.0660  203.9850  152.3720 C   0  0  0  0  0  3  0  0  0  0  0  0
  161.1560  202.2660  146.7570 C   0  0  0  0  0  3  0  0  0  0  0  0
  161.1500  200.9190  147.1740 C   0  0  0  0  0  0  0  0  0  0  0  0
  161.0730  205.2200  151.7970 N   0  0  0  0  0  0  0  0  0  0  0  0
  161.1140  201.5970  149.4260 C   0  0  0  0  0  0  0  0  0  0  0  0
  161.1660  199.8700  146.1940 C   0  0  0  0  0  0  0  0  0  0  0  0
  161.1780  199.0250  145.4040 N   0  0  0  0  0  0  0  0  0  0  0  0
  162.1930  211.5520  150.0330 O   0  0  0  0  0  0  0  0  0  0  0  0
  161.8030  211.4180  148.6890 C   0  0  2  0  0  3  0  0  0  0  0  0
  162.0540  209.9790  148.2750 C   0  0  0  0  0  2  0  0  0  0  0  0
  161.9610  210.3210  150.5590 N   0  0  0  0  0  0  0  0  0  0  0  0
  160.6810  211.2190  152.2800 O   0  0  0  0  0  0  0  0  0  0  0  0
  161.2300  210.1950  151.7890 C   0  0  0  0  0  0  0  0  0  0  0  0
  162.0050  209.2510  149.5860 C   0  0  0  0  0  2  0  0  0  0  0  0
  163.9530  212.1990  147.9430 O   0  0  0  0  0  1  0  0  0  0  0  0
  162.2130  213.8140  148.1260 C   0  0  0  0  0  1  0  0  0  0  0  0
  162.5760  212.3800  147.7930 C   0  0  2  0  0  3  0  0  0  0  0  0
  160.7860  207.6980  157.2460 C   0  0  0  0  0  3  0  0  0  0  0  0
  160.8630  207.6950  156.0430 C   0  0  0  0  0  0  0  0  0  0  0  0
  1  4  1  0  0  0  0
  2  5  2  0  0  0  0
  3  1  2  0  0  0  0
  3  2  1  0  0  0  0
  4  6  2  0  0  0  0
  5  6  1  0  0  0  0
  6 32  1  0  0  0  0
  7 17  1  0  0  0  0
  8  7  2  0  0  0  0
  8 11  1  0  0  0  0
  9 18  1  0  0  0  0
  9  8  1  0  0  0  0
 10  9  2  0  0  0  0
 11 14  2  0  0  0  0
 12 11  1  0  0  0  0
 13 18  2  0  0  0  0
 15 16  2  0  0  0  0
 15 10  1  0  0  0  0
 16 13  1  0  0  0  0
 17 14  1  0  0  0  0
 17  2  1  0  0  0  0
 18 12  1  0  0  0  0
 19 16  1  0  0  0  0
 20 19  3  0  0  0  0
 21 24  1  0  0  0  0
 22 30  1  6  0  0  0
 22 21  1  0  0  0  0
 23 22  1  0  0  0  0
 23 27  1  0  0  0  0
 24 26  1  0  0  0  0
 26 25  2  0  0  0  0
 26  1  1  0  0  0  0
 27 24  1  0  0  0  0
 30 28  1  0  0  0  0
 30 29  1  1  0  0  0
 32 31  3  0  0  0  0
M  END
>  <MODEL>
3

>  <REMARK>
 VINA RESULT:      -8.4      3.159      4.311
  Name = 
  5 active torsions:
  status: ('A' for Active; 'I' for Inactive)
    1  A    between atoms: C_2  and  C_29
    2  A    between atoms: C_10  and  C_11
    3  A    between atoms: C_17  and  N_31
    4  A    between atoms: C_22  and  C_30
    5  A    between atoms: C_27  and  C_28
                            x       y       z     vdW  Elec       q    Type
                         _______ _______ _______ _____ _____    ______ ____

>  <TORSDO>
F 5

$$$$
=
 OpenBabel11052411553D

 32 36  0  0  1  0  0  0  0  0999 V2000
  161.4310  208.8780  151.3970 C   0  0  0  0  0  0  0  0  0  0  0  0
  161.5830  207.8060  149.2070 C   0  0  0  0  0  0  0  0  0  0  0  0
  161.3390  207.7360  150.5870 C   0  0  0  0  0  3  0  0  0  0  0  0
  161.7540  210.1060  150.8040 C   0  0  0  0  0  3  0  0  0  0  0  0
  161.9130  209.0440  148.6360 C   0  0  0  0  0  3  0  0  0  0  0  0
  161.9970  210.1900  149.4300 C   0  0  0  0  0  0  0  0  0  0  0  0
  161.4940  205.3460  148.8660 C   0  0  0  0  0  3  0  0  0  0  0  0
  161.3960  204.5280  147.7670 C   0  0  0  0  0  0  0  0  0  0  0  0
  161.3430  203.1690  147.5080 C   0  0  0  0  0  0  0  0  0  0  0  0
  161.3780  202.1080  148.4060 C   0  0  0  0  0  3  0  0  0  0  0  0
  161.3390  205.2990  146.6660 C   0  0  0  0  0  0  0  0  0  0  0  0
  161.2170  204.3910  145.2470 S   0  0  0  0  0  0  0  0  0  0  0  0
  161.1740  201.6780  145.6360 N   0  0  0  0  0  0  0  0  0  0  0  0
  161.3990  206.6180  147.0320 C   0  0  0  0  0  3  0  0  0  0  0  0
  161.3090  200.8070  147.8810 C   0  0  0  0  0  3  0  0  0  0  0  0
  161.2060  200.6100  146.4890 C   0  0  0  0  0  0  0  0  0  0  0  0
  161.4950  206.6250  148.3920 N   0  0  0  0  0  0  0  0  0  0  0  0
  161.2420  202.9360  146.1380 C   0  0  0  0  0  0  0  0  0  0  0  0
  161.1350  199.2770  145.9620 C   0  0  0  0  0  0  0  0  0  0  0  0
  161.0790  198.2020  145.5370 N   0  0  0  0  0  0  0  0  0  0  0  0
  160.6190  209.8950  154.9460 O   0  0  0  0  0  0  0  0  0  0  0  0
  159.3200  210.3470  155.2420 C   0  0  2  0  0  3  0  0  0  0  0  0
  158.9160  211.3330  154.1590 C   0  0  0  0  0  2  0  0  0  0  0  0
  160.6760  209.9470  153.5900 N   0  0  0  0  0  0  0  0  0  0  0  0
  161.3640  207.7300  153.4640 O   0  0  0  0  0  0  0  0  0  0  0  0
  161.1530  208.8110  152.8500 C   0  0  0  0  0  0  0  0  0  0  0  0
  159.7750  210.9140  153.0020 C   0  0  0  0  0  2  0  0  0  0  0  0
  157.9970  211.5310  156.8640 O   0  0  0  0  0  1  0  0  0  0  0  0
  160.3030  212.1040  156.7140 C   0  0  0  0  0  1  0  0  0  0  0  0
  159.2660  211.0030  156.6170 C   0  0  2  0  0  3  0  0  0  0  0  0
  162.6120  212.5130  148.3360 C   0  0  0  0  0  3  0  0  0  0  0  0
  162.3310  211.4520  148.8350 C   0  0  0  0  0  0  0  0  0  0  0  0
  1 26  1  0  0  0  0
  2  3  1  0  0  0  0
  3  1  2  0  0  0  0
  4  1  1  0  0  0  0
  5  2  2  0  0  0  0
  5  6  1  0  0  0  0
  6  4  2  0  0  0  0
  8  7  2  0  0  0  0
  9  8  1  0  0  0  0
  9 10  1  0  0  0  0
 11 14  2  0  0  0  0
 11  8  1  0  0  0  0
 12 18  1  0  0  0  0
 12 11  1  0  0  0  0
 13 18  1  0  0  0  0
 13 16  2  0  0  0  0
 14 17  1  0  0  0  0
 15 10  2  0  0  0  0
 16 15  1  0  0  0  0
 17  7  1  0  0  0  0
 17  2  1  0  0  0  0
 18  9  2  0  0  0  0
 19 16  1  0  0  0  0
 20 19  3  0  0  0  0
 21 22  1  0  0  0  0
 22 30  1  1  0  0  0
 23 22  1  0  0  0  0
 24 21  1  0  0  0  0
 26 25  2  0  0  0  0
 26 24  1  0  0  0  0
 27 24  1  0  0  0  0
 27 23  1  0  0  0  0
 30 29  1  6  0  0  0
 30 28  1  0  0  0  0
 31 32  3  0  0  0  0
 32  6  1  0  0  0  0
M  END
>  <MODEL>
4

>  <REMARK>
 VINA RESULT:      -8.2      2.541      4.076
  Name = 
  5 active torsions:
  status: ('A' for Active; 'I' for Inactive)
    1  A    between atoms: C_2  and  C_29
    2  A    between atoms: C_10  and  C_11
    3  A    between atoms: C_17  and  N_31
    4  A    between atoms: C_22  and  C_30
    5  A    between atoms: C_27  and  C_28
                            x       y       z     vdW  Elec       q    Type
                         _______ _______ _______ _____ _____    ______ ____

>  <TORSDO>
F 5

$$$$
=
 OpenBabel11052411553D

 32 36  0  0  1  0  0  0  0  0999 V2000
  162.0180  210.6780  149.3400 C   0  0  0  0  0  0  0  0  0  0  0  0
  161.5290  208.3950  150.0590 C   0  0  0  0  0  0  0  0  0  0  0  0
  161.8800  209.3120  149.0560 C   0  0  0  0  0  3  0  0  0  0  0  0
  161.8170  211.1220  150.6540 C   0  0  0  0  0  3  0  0  0  0  0  0
  161.3250  208.8620  151.3660 C   0  0  0  0  0  3  0  0  0  0  0  0
  161.4700  210.2190  151.6630 C   0  0  0  0  0  0  0  0  0  0  0  0
  161.4540  206.4630  148.4970 C   0  0  0  0  0  3  0  0  0  0  0  0
  161.2610  205.1120  148.6450 C   0  0  0  0  0  0  0  0  0  0  0  0
  161.2060  203.9940  147.8300 C   0  0  0  0  0  0  0  0  0  0  0  0
  161.3500  203.9130  146.4490 C   0  0  0  0  0  3  0  0  0  0  0  0
  161.0810  204.8470  149.9520 C   0  0  0  0  0  0  0  0  0  0  0  0
  160.8320  203.2040  150.2500 S   0  0  0  0  0  0  0  0  0  0  0  0
  160.8770  201.6240  148.0100 N   0  0  0  0  0  0  0  0  0  0  0  0
  161.1530  206.0150  150.6650 C   0  0  0  0  0  3  0  0  0  0  0  0
  161.2500  202.6440  145.8570 C   0  0  0  0  0  3  0  0  0  0  0  0
  161.0130  201.5060  146.6560 C   0  0  0  0  0  0  0  0  0  0  0  0
  161.3830  206.9990  149.7500 N   0  0  0  0  0  0  0  0  0  0  0  0
  160.9720  202.8480  148.5870 C   0  0  0  0  0  0  0  0  0  0  0  0
  160.9120  200.2140  146.0400 C   0  0  0  0  0  0  0  0  0  0  0  0
  160.8320  199.1710  145.5450 N   0  0  0  0  0  0  0  0  0  0  0  0
  161.9380  212.8200  146.2250 O   0  0  0  0  0  0  0  0  0  0  0  0
  161.0510  213.9090  146.1750 C   0  0  2  0  0  3  0  0  0  0  0  0
  159.7030  213.4320  146.6870 C   0  0  0  0  0  2  0  0  0  0  0  0
  161.4880  212.0870  147.2770 N   0  0  0  0  0  0  0  0  0  0  0  0
  163.5940  212.0750  148.2620 O   0  0  0  0  0  0  0  0  0  0  0  0
  162.4090  211.6450  148.2870 C   0  0  0  0  0  0  0  0  0  0  0  0
  160.0800  212.2690  147.5570 C   0  0  0  0  0  2  0  0  0  0  0  0
  159.8800  213.8250  144.0750 O   0  0  0  0  0  1  0  0  0  0  0  0
  162.2230  214.2430  143.9980 C   0  0  0  0  0  1  0  0  0  0  0  0
  160.9270  214.4520  144.7550 C   0  0  2  0  0  3  0  0  0  0  0  0
  161.0890  211.0780  154.1310 C   0  0  0  0  0  3  0  0  0  0  0  0
  161.2630  210.6860  153.0040 C   0  0  0  0  0  0  0  0  0  0  0  0
  1  4  1  0  0  0  0
  2  5  2  0  0  0  0
  3  1  2  0  0  0  0
  3  2  1  0  0  0  0
  4  6  2  0  0  0  0
  5  6  1  0  0  0  0
  6 32  1  0  0  0  0
  7  8  2  0  0  0  0
  7 17  1  0  0  0  0
  8 11  1  0  0  0  0
  9 18  1  0  0  0  0
  9  8  1  0  0  0  0
 10  9  2  0  0  0  0
 11 12  1  0  0  0  0
 11 14  2  0  0  0  0
 13 18  2  0  0  0  0
 15 10  1  0  0  0  0
 15 16  2  0  0  0  0
 16 13  1  0  0  0  0
 17  2  1  0  0  0  0
 17 14  1  0  0  0  0
 18 12  1  0  0  0  0
 19 16  1  0  0  0  0
 20 19  3  0  0  0  0
 21 24  1  0  0  0  0
 22 30  1  6  0  0  0
 22 21  1  0  0  0  0
 22 23  1  0  0  0  0
 23 27  1  0  0  0  0
 24 27  1  0  0  0  0
 24 26  1  0  0  0  0
 25 26  2  0  0  0  0
 26  1  1  0  0  0  0
 28 30  1  0  0  0  0
 30 29  1  6  0  0  0
 32 31  3  0  0  0  0
M  END
>  <MODEL>
5

>  <REMARK>
 VINA RESULT:      -7.9      4.195      5.206
  Name = 
  5 active torsions:
  status: ('A' for Active; 'I' for Inactive)
    1  A    between atoms: C_2  and  C_29
    2  A    between atoms: C_10  and  C_11
    3  A    between atoms: C_17  and  N_31
    4  A    between atoms: C_22  and  C_30
    5  A    between atoms: C_27  and  C_28
                            x       y       z     vdW  Elec       q    Type
                         _______ _______ _______ _____ _____    ______ ____

>  <TORSDO>
F 5

$$$$
=
 OpenBabel11052411553D

 32 36  0  0  1  0  0  0  0  0999 V2000
  161.8640  209.4760  151.0610 C   0  0  0  0  0  0  0  0  0  0  0  0
  161.8080  208.3180  148.9110 C   0  0  0  0  0  0  0  0  0  0  0  0
  161.7440  208.2960  150.3120 C   0  0  0  0  0  3  0  0  0  0  0  0
  162.0310  210.6930  150.3870 C   0  0  0  0  0  3  0  0  0  0  0  0
  161.9830  209.5470  148.2570 C   0  0  0  0  0  3  0  0  0  0  0  0
  162.0930  210.7300  148.9910 C   0  0  0  0  0  0  0  0  0  0  0  0
  161.5990  205.8510  148.6990 C   0  0  0  0  0  3  0  0  0  0  0  0
  161.5080  204.9790  147.6420 C   0  0  0  0  0  0  0  0  0  0  0  0
  161.3930  203.6110  147.4550 C   0  0  0  0  0  0  0  0  0  0  0  0
  161.3260  202.6020  148.4110 C   0  0  0  0  0  3  0  0  0  0  0  0
  161.5460  205.6870  146.5000 C   0  0  0  0  0  0  0  0  0  0  0  0
  161.4420  204.7080  145.1280 S   0  0  0  0  0  0  0  0  0  0  0  0
  161.2300  202.0270  145.6610 N   0  0  0  0  0  0  0  0  0  0  0  0
  161.6620  207.0200  146.7970 C   0  0  0  0  0  3  0  0  0  0  0  0
  161.2100  201.2800  147.9540 C   0  0  0  0  0  3  0  0  0  0  0  0
  161.1630  201.0100  146.5700 C   0  0  0  0  0  0  0  0  0  0  0  0
  161.6930  207.1000  148.1570 N   0  0  0  0  0  0  0  0  0  0  0  0
  161.3440  203.3060  146.0970 C   0  0  0  0  0  0  0  0  0  0  0  0
  161.0430  199.6540  146.1140 C   0  0  0  0  0  0  0  0  0  0  0  0
  160.9470  198.5610  145.7460 N   0  0  0  0  0  0  0  0  0  0  0  0
  160.7900  208.6150  154.5830 O   0  0  0  0  0  0  0  0  0  0  0  0
  161.1140  207.3480  155.0990 C   0  0  2  0  0  3  0  0  0  0  0  0
  160.7860  206.3170  154.0340 C   0  0  0  0  0  2  0  0  0  0  0  0
  160.9950  208.4800  153.2470 N   0  0  0  0  0  0  0  0  0  0  0  0
  162.3870  210.3420  153.1990 O   0  0  0  0  0  0  0  0  0  0  0  0
  161.7760  209.4570  152.5400 C   0  0  0  0  0  0  0  0  0  0  0  0
  160.8650  207.1200  152.7690 C   0  0  0  0  0  2  0  0  0  0  0  0
  159.0380  206.6510  156.0950 O   0  0  0  0  0  1  0  0  0  0  0  0
  160.3020  208.3020  157.2560 C   0  0  0  0  0  1  0  0  0  0  0  0
  160.3410  207.0640  156.3820 C   0  0  2  0  0  3  0  0  0  0  0  0
  162.4170  213.0340  147.7430 C   0  0  0  0  0  3  0  0  0  0  0  0
  162.2690  211.9820  148.3130 C   0  0  0  0  0  0  0  0  0  0  0  0
  1 26  1  0  0  0  0
  2  3  1  0  0  0  0
  3  1  2  0  0  0  0
  4  1  1  0  0  0  0
  5  2  2  0  0  0  0
  5  6  1  0  0  0  0
  6  4  2  0  0  0  0
  8  7  2  0  0  0  0
  9  8  1  0  0  0  0
  9 10  1  0  0  0  0
 11 14  2  0  0  0  0
 11  8  1  0  0  0  0
 12 18  1  0  0  0  0
 12 11  1  0  0  0  0
 13 18  1  0  0  0  0
 13 16  2  0  0  0  0
 14 17  1  0  0  0  0
 15 10  2  0  0  0  0
 16 15  1  0  0  0  0
 17  7  1  0  0  0  0
 17  2  1  0  0  0  0
 18  9  2  0  0  0  0
 19 16  1  0  0  0  0
 20 19  3  0  0  0  0
 21 22  1  0  0  0  0
 22 30  1  1  0  0  0
 23 22  1  0  0  0  0
 24 21  1  0  0  0  0
 26 25  2  0  0  0  0
 26 24  1  0  0  0  0
 27 24  1  0  0  0  0
 27 23  1  0  0  0  0
 28 30  1  0  0  0  0
 30 29  1  1  0  0  0
 31 32  3  0  0  0  0
 32  6  1  0  0  0  0
M  END
>  <MODEL>
6

>  <REMARK>
 VINA RESULT:      -7.9      3.519      5.103
  Name = 
  5 active torsions:
  status: ('A' for Active; 'I' for Inactive)
    1  A    between atoms: C_2  and  C_29
    2  A    between atoms: C_10  and  C_11
    3  A    between atoms: C_17  and  N_31
    4  A    between atoms: C_22  and  C_30
    5  A    between atoms: C_27  and  C_28
                            x       y       z     vdW  Elec       q    Type
                         _______ _______ _______ _____ _____    ______ ____

>  <TORSDO>
F 5

$$$$
=
 OpenBabel11052411553D

 32 36  0  0  1  0  0  0  0  0999 V2000
  161.1400  208.7060  152.0970 C   0  0  0  0  0  0  0  0  0  0  0  0
  161.1790  206.2640  152.1320 C   0  0  0  0  0  0  0  0  0  0  0  0
  161.1510  207.4750  151.4240 C   0  0  0  0  0  3  0  0  0  0  0  0
  161.1760  208.7140  153.4980 C   0  0  0  0  0  3  0  0  0  0  0  0
  161.2070  206.2950  153.5340 C   0  0  0  0  0  3  0  0  0  0  0  0
  161.2070  207.5150  154.2140 C   0  0  0  0  0  0  0  0  0  0  0  0
  161.1680  204.8740  150.0720 C   0  0  0  0  0  3  0  0  0  0  0  0
  161.1740  203.5240  149.8200 C   0  0  0  0  0  0  0  0  0  0  0  0
  161.1680  202.6930  148.7120 C   0  0  0  0  0  0  0  0  0  0  0  0
  161.1510  203.0360  147.3640 C   0  0  0  0  0  3  0  0  0  0  0  0
  161.1910  202.8710  150.9950 C   0  0  0  0  0  0  0  0  0  0  0  0
  161.2000  201.1940  150.8030 S   0  0  0  0  0  0  0  0  0  0  0  0
  161.1770  200.3510  148.1940 N   0  0  0  0  0  0  0  0  0  0  0  0
  161.1960  203.7820  152.0200 C   0  0  0  0  0  3  0  0  0  0  0  0
  161.1470  201.9910  146.4270 C   0  0  0  0  0  3  0  0  0  0  0  0
  161.1610  200.6490  146.8610 C   0  0  0  0  0  0  0  0  0  0  0  0
  161.1810  205.0100  151.4300 N   0  0  0  0  0  0  0  0  0  0  0  0
  161.1800  201.3560  149.1040 C   0  0  0  0  0  0  0  0  0  0  0  0
  161.1570  199.5880  145.8950 C   0  0  0  0  0  0  0  0  0  0  0  0
  161.1540  198.7330  145.1160 N   0  0  0  0  0  0  0  0  0  0  0  0
  160.0990  212.1100  150.8210 O   0  0  0  0  0  0  0  0  0  0  0  0
  160.1700  213.2110  151.6930 C   0  0  2  0  0  3  0  0  0  0  0  0
  159.5690  212.7870  153.0220 C   0  0  0  0  0  2  0  0  0  0  0  0
  160.1980  211.0380  151.6490 N   0  0  0  0  0  0  0  0  0  0  0  0
  161.9540  210.1510  150.4100 O   0  0  0  0  0  0  0  0  0  0  0  0
  161.1310  209.9860  151.3510 C   0  0  0  0  0  0  0  0  0  0  0  0
  159.7510  211.2980  153.0010 C   0  0  0  0  0  2  0  0  0  0  0  0
  158.1110  214.4510  151.5950 O   0  0  0  0  0  1  0  0  0  0  0  0
  159.4190  214.3550  149.6080 C   0  0  0  0  0  1  0  0  0  0  0  0
  159.4250  214.4120  151.1220 C   0  0  2  0  0  3  0  0  0  0  0  0
  161.2660  207.5550  156.8540 C   0  0  0  0  0  3  0  0  0  0  0  0
  161.2390  207.5370  155.6490 C   0  0  0  0  0  0  0  0  0  0  0  0
  1  4  1  0  0  0  0
  2  5  2  0  0  0  0
  3  1  2  0  0  0  0
  3  2  1  0  0  0  0
  4  6  2  0  0  0  0
  5  6  1  0  0  0  0
  6 32  1  0  0  0  0
  7 17  1  0  0  0  0
  8  7  2  0  0  0  0
  8 11  1  0  0  0  0
  9 18  1  0  0  0  0
  9  8  1  0  0  0  0
 10  9  2  0  0  0  0
 11 14  2  0  0  0  0
 12 11  1  0  0  0  0
 13 18  2  0  0  0  0
 15 16  2  0  0  0  0
 15 10  1  0  0  0  0
 16 13  1  0  0  0  0
 17 14  1  0  0  0  0
 17  2  1  0  0  0  0
 18 12  1  0  0  0  0
 19 16  1  0  0  0  0
 20 19  3  0  0  0  0
 21 24  1  0  0  0  0
 21 22  1  0  0  0  0
 22 30  1  6  0  0  0
 22 23  1  0  0  0  0
 24 27  1  0  0  0  0
 25 26  2  0  0  0  0
 26 24  1  0  0  0  0
 26  1  1  0  0  0  0
 27 23  1  0  0  0  0
 30 29  1  6  0  0  0
 30 28  1  0  0  0  0
 32 31  3  0  0  0  0
M  END
>  <MODEL>
7

>  <REMARK>
 VINA RESULT:      -7.0      2.102      2.720
  Name = 
  5 active torsions:
  status: ('A' for Active; 'I' for Inactive)
    1  A    between atoms: C_2  and  C_29
    2  A    between atoms: C_10  and  C_11
    3  A    between atoms: C_17  and  N_31
    4  A    between atoms: C_22  and  C_30
    5  A    between atoms: C_27  and  C_28
                            x       y       z     vdW  Elec       q    Type
                         _______ _______ _______ _____ _____    ______ ____

>  <TORSDO>
F 5

$$$$
=
 OpenBabel11052411553D

 32 36  0  0  1  0  0  0  0  0999 V2000
  160.7060  210.9100  139.9430 C   0  0  0  0  0  0  0  0  0  0  0  0
  161.3440  212.1280  141.9620 C   0  0  0  0  0  0  0  0  0  0  0  0
  160.4840  211.2510  141.2850 C   0  0  0  0  0  3  0  0  0  0  0  0
  161.8190  211.4480  139.2820 C   0  0  0  0  0  3  0  0  0  0  0  0
  162.4480  212.6600  141.2790 C   0  0  0  0  0  3  0  0  0  0  0  0
  162.6860  212.3210  139.9450 C   0  0  0  0  0  0  0  0  0  0  0  0
  159.8920  212.3730  143.9640 C   0  0  0  0  0  3  0  0  0  0  0  0
  160.0910  212.8020  145.2530 C   0  0  0  0  0  0  0  0  0  0  0  0
  159.3370  212.9630  146.4020 C   0  0  0  0  0  0  0  0  0  0  0  0
  157.9850  212.7010  146.6030 C   0  0  0  0  0  3  0  0  0  0  0  0
  161.3830  213.1500  145.3910 C   0  0  0  0  0  0  0  0  0  0  0  0
  161.7420  213.6960  146.9480 S   0  0  0  0  0  0  0  0  0  0  0  0
  159.6090  213.6980  148.6700 N   0  0  0  0  0  0  0  0  0  0  0  0
  162.0360  212.9530  144.2020 C   0  0  0  0  0  3  0  0  0  0  0  0
  157.4560  212.9530  147.8790 C   0  0  0  0  0  3  0  0  0  0  0  0
  158.2850  213.4530  148.9040 C   0  0  0  0  0  0  0  0  0  0  0  0
  161.0990  212.4750  143.3350 N   0  0  0  0  0  0  0  0  0  0  0  0
  160.1250  213.4570  147.4400 C   0  0  0  0  0  0  0  0  0  0  0  0
  157.7340  213.7070  150.2050 C   0  0  0  0  0  0  0  0  0  0  0  0
  157.2900  213.9130  151.2530 N   0  0  0  0  0  0  0  0  0  0  0  0
  157.6070  209.3230  138.4710 O   0  0  0  0  0  0  0  0  0  0  0  0
  156.9920  209.9350  137.3650 C   0  0  2  0  0  3  0  0  0  0  0  0
  156.9040  211.4250  137.6500 C   0  0  0  0  0  2  0  0  0  0  0  0
  158.4380  210.2850  138.9500 N   0  0  0  0  0  0  0  0  0  0  0  0
  160.2600  208.8420  138.8860 O   0  0  0  0  0  0  0  0  0  0  0  0
  159.8100  209.9680  139.2330 C   0  0  0  0  0  0  0  0  0  0  0  0
  158.0170  211.6330  138.6340 C   0  0  0  0  0  2  0  0  0  0  0  0
  154.6510  210.3660  137.0120 O   0  0  0  0  0  1  0  0  0  0  0  0
  155.2250  208.4030  138.2320 C   0  0  0  0  0  1  0  0  0  0  0  0
  155.6060  209.3520  137.1120 C   0  0  2  0  0  3  0  0  0  0  0  0
  164.7720  213.3270  138.6780 C   0  0  0  0  0  3  0  0  0  0  0  0
  163.8200  212.8680  139.2560 C   0  0  0  0  0  0  0  0  0  0  0  0
  1  3  1  0  0  0  0
  2 17  1  0  0  0  0
  3  2  2  0  0  0  0
  4  1  2  0  0  0  0
  4  6  1  0  0  0  0
  5  2  1  0  0  0  0
  6  5  2  0  0  0  0
  7  8  2  0  0  0  0
  8 11  1  0  0  0  0
  8  9  1  0  0  0  0
  9 10  2  0  0  0  0
  9 18  1  0  0  0  0
 10 15  1  0  0  0  0
 11 12  1  0  0  0  0
 12 18  1  0  0  0  0
 13 16  1  0  0  0  0
 14 11  2  0  0  0  0
 15 16  2  0  0  0  0
 16 19  1  0  0  0  0
 17  7  1  0  0  0  0
 17 14  1  0  0  0  0
 18 13  2  0  0  0  0
 19 20  3  0  0  0  0
 21 24  1  0  0  0  0
 22 30  1  1  0  0  0
 22 23  1  0  0  0  0
 22 21  1  0  0  0  0
 23 27  1  0  0  0  0
 24 26  1  0  0  0  0
 25 26  2  0  0  0  0
 26  1  1  0  0  0  0
 27 24  1  0  0  0  0
 28 30  1  0  0  0  0
 30 29  1  1  0  0  0
 31 32  3  0  0  0  0
 32  6  1  0  0  0  0
M  END
>  <MODEL>
8

>  <REMARK>
 VINA RESULT:      -5.8     10.245     13.547
  Name = 
  5 active torsions:
  status: ('A' for Active; 'I' for Inactive)
    1  A    between atoms: C_2  and  C_29
    2  A    between atoms: C_10  and  C_11
    3  A    between atoms: C_17  and  N_31
    4  A    between atoms: C_22  and  C_30
    5  A    between atoms: C_27  and  C_28
                            x       y       z     vdW  Elec       q    Type
                         _______ _______ _______ _____ _____    ______ ____

>  <TORSDO>
F 5

$$$$
