=
 OpenBabel11052410473D

 37 39  0  0  1  0  0  0  0  0999 V2000
  161.4200  208.9890  152.3790 C   0  0  0  0  0  0  0  0  0  0  0  0
  161.4760  207.6970  149.8880 C   0  0  0  0  0  3  0  0  0  0  0  0
  161.8050  209.0580  149.9740 C   0  0  0  0  0  0  0  0  0  0  0  0
  161.0900  207.6270  152.2730 C   0  0  0  0  0  3  0  0  0  0  0  0
  161.7760  209.6940  151.2180 C   0  0  0  0  0  3  0  0  0  0  0  0
  161.1180  206.9790  151.0360 C   0  0  0  0  0  0  0  0  0  0  0  0
  161.3940  209.6790  153.7240 C   0  0  2  0  0  0  0  0  0  0  0  0
  159.4450  210.1630  154.9130 N   0  0  0  0  0  0  0  0  0  0  0  0
  161.2930  208.6660  154.8610 C   0  0  0  0  0  3  0  0  0  0  0  0
  160.0230  209.0390  155.6250 C   0  0  0  0  0  3  0  0  0  0  0  0
  160.1720  210.5020  153.9030 C   0  0  0  0  0  0  0  0  0  0  0  0
  162.5270  210.4780  153.9160 O   0  0  0  0  0  1  0  0  0  0  0  0
  159.8370  211.5930  153.0380 N   0  0  0  0  0  0  0  0  0  0  0  0
  158.7780  212.2840  153.1890 C   0  0  0  0  0  0  0  0  0  0  0  0
  157.7500  212.9580  153.3360 O   0  0  0  0  0  0  0  0  0  0  0  0
  162.1670  209.7990  148.8440 O   0  0  0  0  0  0  0  0  0  0  0  0
  162.2200  211.2210  148.8300 C   0  0  0  0  0  2  0  0  0  0  0  0
  160.9230  212.9190  148.2770 C   0  0  0  0  0  1  0  0  0  0  0  0
  161.4270  211.7130  147.7920 O   0  0  0  0  0  0  0  0  0  0  0  0
  160.7770  205.5920  150.9660 N   0  0  0  0  0  2  0  0  0  0  0  0
  160.7740  204.5790  153.0580 F   0  0  0  0  0  0  0  0  0  0  0  0
  161.3830  204.5760  151.8150 C   0  0  1  0  0  3  0  0  0  0  0  0
  161.8470  202.2410  151.6640 O   0  0  0  0  0  0  0  0  0  0  0  0
  160.3870  203.0870  150.0450 N   0  0  0  0  0  2  0  0  0  0  0  0
  161.2360  203.2350  151.1850 C   0  0  0  0  0  0  0  0  0  0  0  0
  160.2570  201.8310  149.3200 C   0  0  0  0  0  2  0  0  0  0  0  0
  160.8750  201.1740  145.8760 C   0  0  0  0  0  2  0  0  0  0  0  0
  161.3000  201.7460  148.2150 C   0  0  2  0  0  3  0  0  0  0  0  0
  160.7010  202.2630  146.9160 C   0  0  1  0  0  3  0  0  0  0  0  0
  161.0300  199.8940  146.6630 C   0  0  0  0  0  2  0  0  0  0  0  0
  161.7010  200.3010  147.9570 C   0  0  0  0  0  2  0  0  0  0  0  0
  161.3660  203.5620  146.4730 C   0  0  0  0  0  2  0  0  0  0  0  0
  161.2900  203.7140  145.0840 O   0  0  0  0  0  0  0  0  0  0  0  0
  162.5350  205.9840  145.5440 O   0  0  0  0  0  1  0  0  0  0  0  0
  161.5060  205.7010  143.1520 O   0  0  0  0  0  0  0  0  0  0  0  0
  161.3560  205.3860  144.8090 P   0  0  0  0  0  0  0  0  0  0  0  0
  159.9310  206.0940  145.3780 O   0  0  0  0  0  1  0  0  0  0  0  0
  1  7  1  0  0  0  0
  2  3  2  0  0  0  0
  2  6  1  0  0  0  0
  3  5  1  0  0  0  0
  4  1  1  0  0  0  0
  5  1  2  0  0  0  0
  6  4  2  0  0  0  0
  7 11  1  0  0  0  0
  7 12  1  1  0  0  0
  7  9  1  0  0  0  0
  8 10  1  0  0  0  0
  9 10  2  0  0  0  0
 11  8  2  0  0  0  0
 13 14  2  0  0  0  0
 13 11  1  0  0  0  0
 14 15  2  0  0  0  0
 16  3  1  0  0  0  0
 17 16  1  0  0  0  0
 19 18  1  0  0  0  0
 19 17  1  0  0  0  0
 20  6  1  0  0  0  0
 20 22  1  0  0  0  0
 22 21  1  1  0  0  0
 24 25  1  0  0  0  0
 25 23  2  0  0  0  0
 25 22  1  0  0  0  0
 26 24  1  0  0  0  0
 27 30  1  0  0  0  0
 27 29  1  0  0  0  0
 28 26  1  1  0  0  0
 29 32  1  6  0  0  0
 29 28  1  0  0  0  0
 30 31  1  0  0  0  0
 31 28  1  0  0  0  0
 33 32  1  0  0  0  0
 35 36  2  0  0  0  0
 36 33  1  0  0  0  0
 36 37  1  0  0  0  0
 36 34  1  0  0  0  0
M  END
>  <MODEL>
1

>  <REMARK>
 VINA RESULT:      -8.0      0.000      0.000
  Name = 
  13 active torsions:
  status: ('A' for Active; 'I' for Inactive)
    1  A    between atoms: C_2  and  C_4
    2  A    between atoms: O_8  and  C_25
    3  A    between atoms: O_8  and  P_30
    4  A    between atoms: C_9  and  C_28
    5  A    between atoms: N_11  and  C_28
    6  A    between atoms: O_13  and  C_15
    7  A    between atoms: O_13  and  C_36
    8  A    between atoms: C_16  and  C_25
    9  A    between atoms: N_20  and  C_23
   10  A    between atoms: N_20  and  C_37
   11  A    between atoms: C_21  and  N_27
   12  A    between atoms: C_23  and  C_32
   13  A    between atoms: O_24  and  C_36
                            x       y       z     vdW  Elec       q    Type
                         _______ _______ _______ _____ _____    ______ ____

>  <TORSDO>
F 13

$$$$
=
 OpenBabel11052410473D

 37 39  0  0  1  0  0  0  0  0999 V2000
  161.7040  205.1270  147.5970 C   0  0  0  0  0  0  0  0  0  0  0  0
  160.8510  205.5010  150.2440 C   0  0  0  0  0  3  0  0  0  0  0  0
  160.9050  204.2060  149.7060 C   0  0  0  0  0  0  0  0  0  0  0  0
  161.6420  206.4170  148.1520 C   0  0  0  0  0  3  0  0  0  0  0  0
  161.3320  204.0280  148.3880 C   0  0  0  0  0  3  0  0  0  0  0  0
  161.2190  206.6080  149.4690 C   0  0  0  0  0  0  0  0  0  0  0  0
  162.1710  204.9300  146.1720 C   0  0  2  0  0  0  0  0  0  0  0  0
  160.7620  204.3810  144.3950 N   0  0  0  0  0  0  0  0  0  0  0  0
  161.9690  206.1970  145.3460 C   0  0  0  0  0  3  0  0  0  0  0  0
  161.0670  205.7830  144.1830 C   0  0  0  0  0  3  0  0  0  0  0  0
  161.3460  203.9290  145.4510 C   0  0  0  0  0  0  0  0  0  0  0  0
  163.5170  204.5520  146.1170 O   0  0  0  0  0  1  0  0  0  0  0  0
  161.2240  202.5680  145.8810 N   0  0  0  0  0  0  0  0  0  0  0  0
  160.4130  201.7500  145.3390 C   0  0  0  0  0  0  0  0  0  0  0  0
  159.6270  200.9530  144.8110 O   0  0  0  0  0  0  0  0  0  0  0  0
  160.5440  203.0830  150.4580 O   0  0  0  0  0  0  0  0  0  0  0  0
  160.0810  201.8710  149.8730 C   0  0  0  0  0  2  0  0  0  0  0  0
  161.4900  200.5970  148.7480 C   0  0  0  0  0  1  0  0  0  0  0  0
  161.0400  200.8700  150.0400 O   0  0  0  0  0  0  0  0  0  0  0  0
  161.1680  207.9350  150.0010 N   0  0  0  0  0  2  0  0  0  0  0  0
  162.3400  207.5950  151.9790 F   0  0  0  0  0  0  0  0  0  0  0  0
  161.2400  208.2270  151.4260 C   0  0  1  0  0  3  0  0  0  0  0  0
  162.2310  210.3600  151.0290 O   0  0  0  0  0  0  0  0  0  0  0  0
  160.4300  210.3460  152.5200 N   0  0  0  0  0  2  0  0  0  0  0  0
  161.3460  209.6970  151.6360 C   0  0  0  0  0  0  0  0  0  0  0  0
  160.5210  211.7620  152.8460 C   0  0  0  0  0  2  0  0  0  0  0  0
  157.7800  211.0230  154.9940 C   0  0  0  0  0  2  0  0  0  0  0  0
  159.8480  212.0430  154.1810 C   0  0  2  0  0  3  0  0  0  0  0  0
  159.2470  210.7550  154.7240 C   0  0  1  0  0  3  0  0  0  0  0  0
  157.4230  212.2000  154.1170 C   0  0  0  0  0  2  0  0  0  0  0  0
  158.6920  213.0170  154.0120 C   0  0  0  0  0  2  0  0  0  0  0  0
  159.9660  210.2930  155.9870 C   0  0  0  0  0  2  0  0  0  0  0  0
  159.4690  209.0590  156.4230 O   0  0  0  0  0  0  0  0  0  0  0  0
  160.7980  207.4740  154.7990 O   0  0  0  0  0  0  0  0  0  0  0  0
  162.2180  208.7060  156.6230 O   0  0  0  0  0  1  0  0  0  0  0  0
  160.7480  207.9640  156.2290 P   0  0  0  0  0  0  0  0  0  0  0  0
  160.5040  206.6450  157.2580 O   0  0  0  0  0  1  0  0  0  0  0  0
  1  4  2  0  0  0  0
  1  5  1  0  0  0  0
  3  2  1  0  0  0  0
  3 16  1  0  0  0  0
  4  6  1  0  0  0  0
  5  3  2  0  0  0  0
  6 20  1  0  0  0  0
  6  2  2  0  0  0  0
  7 12  1  6  0  0  0
  7  1  1  0  0  0  0
  8 11  2  0  0  0  0
  9  7  1  0  0  0  0
 10  8  1  0  0  0  0
 10  9  2  0  0  0  0
 11 13  1  0  0  0  0
 11  7  1  0  0  0  0
 14 13  2  0  0  0  0
 15 14  2  0  0  0  0
 17 19  1  0  0  0  0
 17 16  1  0  0  0  0
 18 19  1  0  0  0  0
 20 22  1  0  0  0  0
 22 25  1  0  0  0  0
 22 21  1  6  0  0  0
 23 25  2  0  0  0  0
 24 26  1  0  0  0  0
 25 24  1  0  0  0  0
 28 26  1  6  0  0  0
 28 29  1  0  0  0  0
 29 27  1  0  0  0  0
 29 32  1  1  0  0  0
 30 27  1  0  0  0  0
 31 30  1  0  0  0  0
 31 28  1  0  0  0  0
 32 33  1  0  0  0  0
 34 36  2  0  0  0  0
 36 33  1  0  0  0  0
 36 35  1  0  0  0  0
 36 37  1  0  0  0  0
M  END
>  <MODEL>
2

>  <REMARK>
 VINA RESULT:      -7.7      3.179     10.165
  Name = 
  13 active torsions:
  status: ('A' for Active; 'I' for Inactive)
    1  A    between atoms: C_2  and  C_4
    2  A    between atoms: O_8  and  C_25
    3  A    between atoms: O_8  and  P_30
    4  A    between atoms: C_9  and  C_28
    5  A    between atoms: N_11  and  C_28
    6  A    between atoms: O_13  and  C_15
    7  A    between atoms: O_13  and  C_36
    8  A    between atoms: C_16  and  C_25
    9  A    between atoms: N_20  and  C_23
   10  A    between atoms: N_20  and  C_37
   11  A    between atoms: C_21  and  N_27
   12  A    between atoms: C_23  and  C_32
   13  A    between atoms: O_24  and  C_36
                            x       y       z     vdW  Elec       q    Type
                         _______ _______ _______ _____ _____    ______ ____

>  <TORSDO>
F 13

$$$$
=
 OpenBabel11052410473D

 37 39  0  0  1  0  0  0  0  0999 V2000
  161.6320  205.0010  147.8210 C   0  0  0  0  0  0  0  0  0  0  0  0
  160.7640  205.1310  150.4860 C   0  0  0  0  0  3  0  0  0  0  0  0
  160.7910  203.8950  149.8220 C   0  0  0  0  0  0  0  0  0  0  0  0
  161.5950  206.2310  148.5000 C   0  0  0  0  0  3  0  0  0  0  0  0
  161.2260  203.8390  148.4960 C   0  0  0  0  0  3  0  0  0  0  0  0
  161.1650  206.3010  149.8280 C   0  0  0  0  0  0  0  0  0  0  0  0
  162.1060  204.9350  146.3860 C   0  0  2  0  0  0  0  0  0  0  0  0
  160.7190  204.4810  144.5660 N   0  0  0  0  0  0  0  0  0  0  0  0
  161.8600  206.2560  145.6630 C   0  0  0  0  0  3  0  0  0  0  0  0
  160.9740  205.9050  144.4680 C   0  0  0  0  0  3  0  0  0  0  0  0
  161.3180  203.9660  145.5850 C   0  0  0  0  0  0  0  0  0  0  0  0
  163.4650  204.6110  146.3060 O   0  0  0  0  0  1  0  0  0  0  0  0
  161.2440  202.5720  145.9040 N   0  0  0  0  0  0  0  0  0  0  0  0
  160.4750  201.7690  145.2850 C   0  0  0  0  0  0  0  0  0  0  0  0
  159.7290  200.9860  144.6820 O   0  0  0  0  0  0  0  0  0  0  0  0
  160.3970  202.7120  150.4560 O   0  0  0  0  0  0  0  0  0  0  0  0
  160.1290  201.5040  149.7530 C   0  0  0  0  0  2  0  0  0  0  0  0
  161.5510  200.3840  148.4900 C   0  0  0  0  0  1  0  0  0  0  0  0
  161.2400  200.6610  149.8210 O   0  0  0  0  0  0  0  0  0  0  0  0
  161.1410  207.5680  150.4890 N   0  0  0  0  0  2  0  0  0  0  0  0
  162.3310  209.3210  151.4450 F   0  0  0  0  0  0  0  0  0  0  0  0
  162.1060  207.9560  151.5070 C   0  0  1  0  0  3  0  0  0  0  0  0
  161.8180  206.4460  153.3310 O   0  0  0  0  0  0  0  0  0  0  0  0
  160.8540  208.5580  153.6080 N   0  0  0  0  0  2  0  0  0  0  0  0
  161.5910  207.5930  152.8570 C   0  0  0  0  0  0  0  0  0  0  0  0
  160.2440  208.2540  154.8950 C   0  0  0  0  0  2  0  0  0  0  0  0
  162.5130  210.6770  156.1810 C   0  0  0  0  0  2  0  0  0  0  0  0
  160.4470  209.4080  155.8650 C   0  0  2  0  0  3  0  0  0  0  0  0
  161.3560  210.4480  155.2280 C   0  0  1  0  0  3  0  0  0  0  0  0
  162.5800  209.4310  157.0310 C   0  0  0  0  0  2  0  0  0  0  0  0
  161.1530  208.9380  157.1280 C   0  0  0  0  0  2  0  0  0  0  0  0
  160.6080  211.7460  154.9460 C   0  0  0  0  0  2  0  0  0  0  0  0
  160.4220  211.9290  153.5710 O   0  0  0  0  0  0  0  0  0  0  0  0
  157.9000  211.3940  154.0900 O   0  0  0  0  0  1  0  0  0  0  0  0
  158.5540  213.9300  154.0460 O   0  0  0  0  0  1  0  0  0  0  0  0
  158.8000  212.3880  153.3910 P   0  0  0  0  0  0  0  0  0  0  0  0
  158.4170  212.4210  151.7450 O   0  0  0  0  0  0  0  0  0  0  0  0
  1  5  2  0  0  0  0
  1  4  1  0  0  0  0
  3 16  1  0  0  0  0
  3  2  2  0  0  0  0
  4  6  2  0  0  0  0
  5  3  1  0  0  0  0
  6  2  1  0  0  0  0
  6 20  1  0  0  0  0
  7 12  1  6  0  0  0
  7  1  1  0  0  0  0
  8 11  2  0  0  0  0
  9  7  1  0  0  0  0
 10  8  1  0  0  0  0
 10  9  2  0  0  0  0
 11 13  1  0  0  0  0
 11  7  1  0  0  0  0
 14 13  2  0  0  0  0
 15 14  2  0  0  0  0
 17 19  1  0  0  0  0
 17 16  1  0  0  0  0
 18 19  1  0  0  0  0
 20 22  1  0  0  0  0
 22 21  1  1  0  0  0
 22 25  1  0  0  0  0
 24 26  1  0  0  0  0
 25 23  2  0  0  0  0
 25 24  1  0  0  0  0
 27 30  1  0  0  0  0
 28 26  1  6  0  0  0
 28 31  1  0  0  0  0
 29 32  1  1  0  0  0
 29 28  1  0  0  0  0
 29 27  1  0  0  0  0
 30 31  1  0  0  0  0
 33 32  1  0  0  0  0
 36 33  1  0  0  0  0
 36 35  1  0  0  0  0
 36 34  1  0  0  0  0
 37 36  2  0  0  0  0
M  END
>  <MODEL>
3

>  <REMARK>
 VINA RESULT:      -7.7      3.297      9.836
  Name = 
  13 active torsions:
  status: ('A' for Active; 'I' for Inactive)
    1  A    between atoms: C_2  and  C_4
    2  A    between atoms: O_8  and  C_25
    3  A    between atoms: O_8  and  P_30
    4  A    between atoms: C_9  and  C_28
    5  A    between atoms: N_11  and  C_28
    6  A    between atoms: O_13  and  C_15
    7  A    between atoms: O_13  and  C_36
    8  A    between atoms: C_16  and  C_25
    9  A    between atoms: N_20  and  C_23
   10  A    between atoms: N_20  and  C_37
   11  A    between atoms: C_21  and  N_27
   12  A    between atoms: C_23  and  C_32
   13  A    between atoms: O_24  and  C_36
                            x       y       z     vdW  Elec       q    Type
                         _______ _______ _______ _____ _____    ______ ____

>  <TORSDO>
F 13

$$$$
=
 OpenBabel11052410473D

 37 39  0  0  1  0  0  0  0  0999 V2000
  160.6890  210.8510  154.6190 C   0  0  0  0  0  0  0  0  0  0  0  0
  160.5160  211.6000  151.9200 C   0  0  0  0  0  3  0  0  0  0  0  0
  159.7750  212.2980  152.8860 C   0  0  0  0  0  0  0  0  0  0  0  0
  161.4220  210.1610  153.6380 C   0  0  0  0  0  3  0  0  0  0  0  0
  159.8680  211.9200  154.2270 C   0  0  0  0  0  3  0  0  0  0  0  0
  161.3400  210.5300  152.2930 C   0  0  0  0  0  0  0  0  0  0  0  0
  160.7910  210.4470  156.0730 C   0  0  2  0  0  0  0  0  0  0  0  0
  162.1360  208.7100  156.8600 N   0  0  0  0  0  0  0  0  0  0  0  0
  162.0100  211.0820  156.7360 C   0  0  0  0  0  3  0  0  0  0  0  0
  162.8430  209.9130  157.2600 C   0  0  0  0  0  3  0  0  0  0  0  0
  161.0490  208.9940  156.2290 C   0  0  0  0  0  0  0  0  0  0  0  0
  159.6410  210.7970  156.7880 O   0  0  0  0  0  1  0  0  0  0  0  0
  160.1540  207.9900  155.7370 N   0  0  0  0  0  0  0  0  0  0  0  0
  160.5020  207.1340  154.8610 C   0  0  0  0  0  0  0  0  0  0  0  0
  160.8400  206.3010  154.0100 O   0  0  0  0  0  0  0  0  0  0  0  0
  158.9460  213.3710  152.5410 O   0  0  0  0  0  0  0  0  0  0  0  0
  157.8640  213.2550  151.6240 C   0  0  0  0  0  2  0  0  0  0  0  0
  157.1780  213.4400  149.5340 C   0  0  0  0  0  1  0  0  0  0  0  0
  158.2520  213.7370  150.3730 O   0  0  0  0  0  0  0  0  0  0  0  0
  162.0990  209.8060  151.3210 N   0  0  0  0  0  2  0  0  0  0  0  0
  160.5280  208.0940  151.3220 F   0  0  0  0  0  0  0  0  0  0  0  0
  161.8230  208.4230  150.9610 C   0  0  1  0  0  3  0  0  0  0  0  0
  161.9820  209.2360  148.7240 O   0  0  0  0  0  0  0  0  0  0  0  0
  162.1990  206.9220  148.9740 N   0  0  0  0  0  2  0  0  0  0  0  0
  161.9990  208.2370  149.4940 C   0  0  0  0  0  0  0  0  0  0  0  0
  162.2920  206.6460  147.5470 C   0  0  0  0  0  2  0  0  0  0  0  0
  161.3830  204.1320  145.1970 C   0  0  0  0  0  2  0  0  0  0  0  0
  161.2520  205.6140  147.1380 C   0  0  2  0  0  3  0  0  0  0  0  0
  161.9550  204.3860  146.5780 C   0  0  1  0  0  3  0  0  0  0  0  0
  160.8160  205.4590  144.7510 C   0  0  0  0  0  2  0  0  0  0  0  0
  160.3670  206.1470  146.0220 C   0  0  0  0  0  2  0  0  0  0  0  0
  161.7700  203.1740  147.4840 C   0  0  0  0  0  2  0  0  0  0  0  0
  160.7980  203.4230  148.4600 O   0  0  0  0  0  0  0  0  0  0  0  0
  159.1460  201.5320  149.2430 O   0  0  0  0  0  1  0  0  0  0  0  0
  161.5540  200.7500  148.5700 O   0  0  0  0  0  0  0  0  0  0  0  0
  160.5980  201.9530  149.2820 P   0  0  0  0  0  0  0  0  0  0  0  0
  161.0730  202.1540  150.8910 O   0  0  0  0  0  1  0  0  0  0  0  0
  1  7  1  0  0  0  0
  2  6  2  0  0  0  0
  2  3  1  0  0  0  0
  3  5  2  0  0  0  0
  4  1  2  0  0  0  0
  5  1  1  0  0  0  0
  6  4  1  0  0  0  0
  7 11  1  0  0  0  0
  7  9  1  0  0  0  0
  7 12  1  1  0  0  0
  8 10  1  0  0  0  0
  9 10  2  0  0  0  0
 11  8  2  0  0  0  0
 13 11  1  0  0  0  0
 14 13  2  0  0  0  0
 15 14  2  0  0  0  0
 16  3  1  0  0  0  0
 17 16  1  0  0  0  0
 18 19  1  0  0  0  0
 19 17  1  0  0  0  0
 20  6  1  0  0  0  0
 22 20  1  0  0  0  0
 22 21  1  6  0  0  0
 23 25  2  0  0  0  0
 24 25  1  0  0  0  0
 25 22  1  0  0  0  0
 26 24  1  0  0  0  0
 27 29  1  0  0  0  0
 28 26  1  6  0  0  0
 29 28  1  0  0  0  0
 29 32  1  1  0  0  0
 30 27  1  0  0  0  0
 30 31  1  0  0  0  0
 31 28  1  0  0  0  0
 32 33  1  0  0  0  0
 33 36  1  0  0  0  0
 34 36  1  0  0  0  0
 35 36  2  0  0  0  0
 36 37  1  0  0  0  0
M  END
>  <MODEL>
4

>  <REMARK>
 VINA RESULT:      -7.6      2.910      4.805
  Name = 
  13 active torsions:
  status: ('A' for Active; 'I' for Inactive)
    1  A    between atoms: C_2  and  C_4
    2  A    between atoms: O_8  and  C_25
    3  A    between atoms: O_8  and  P_30
    4  A    between atoms: C_9  and  C_28
    5  A    between atoms: N_11  and  C_28
    6  A    between atoms: O_13  and  C_15
    7  A    between atoms: O_13  and  C_36
    8  A    between atoms: C_16  and  C_25
    9  A    between atoms: N_20  and  C_23
   10  A    between atoms: N_20  and  C_37
   11  A    between atoms: C_21  and  N_27
   12  A    between atoms: C_23  and  C_32
   13  A    between atoms: O_24  and  C_36
                            x       y       z     vdW  Elec       q    Type
                         _______ _______ _______ _____ _____    ______ ____

>  <TORSDO>
F 13

$$$$
=
 OpenBabel11052410473D

 37 39  0  0  1  0  0  0  0  0999 V2000
  160.2120  211.0290  154.6940 C   0  0  0  0  0  0  0  0  0  0  0  0
  159.5620  211.8920  152.1030 C   0  0  0  0  0  3  0  0  0  0  0  0
  158.8030  212.3360  153.1960 C   0  0  0  0  0  0  0  0  0  0  0  0
  160.9600  210.5920  153.5870 C   0  0  0  0  0  3  0  0  0  0  0  0
  159.1330  211.9040  154.4820 C   0  0  0  0  0  3  0  0  0  0  0  0
  160.6420  211.0190  152.2960 C   0  0  0  0  0  0  0  0  0  0  0  0
  160.5690  210.5670  156.0890 C   0  0  2  0  0  0  0  0  0  0  0  0
  162.1880  208.9530  156.5600 N   0  0  0  0  0  0  0  0  0  0  0  0
  161.8010  211.3000  156.6120 C   0  0  0  0  0  3  0  0  0  0  0  0
  162.8180  210.2050  156.9340 C   0  0  0  0  0  3  0  0  0  0  0  0
  160.9950  209.1460  156.1100 C   0  0  0  0  0  0  0  0  0  0  0  0
  159.5080  210.7500  156.9820 O   0  0  0  0  0  1  0  0  0  0  0  0
  160.1460  208.0740  155.6850 N   0  0  0  0  0  0  0  0  0  0  0  0
  160.5410  207.1630  154.8890 C   0  0  0  0  0  0  0  0  0  0  0  0
  160.9250  206.2750  154.1160 O   0  0  0  0  0  0  0  0  0  0  0  0
  157.7210  213.2080  153.0330 O   0  0  0  0  0  0  0  0  0  0  0  0
  157.0690  213.8530  154.1210 C   0  0  0  0  0  2  0  0  0  0  0  0
  155.7420  212.7370  155.4870 C   0  0  0  0  0  1  0  0  0  0  0  0
  155.7660  213.3690  154.2440 O   0  0  0  0  0  0  0  0  0  0  0  0
  161.4240  210.5550  151.1930 N   0  0  0  0  0  2  0  0  0  0  0  0
  162.0610  208.7140  152.4600 F   0  0  0  0  0  0  0  0  0  0  0  0
  162.2340  209.3460  151.2420 C   0  0  1  0  0  3  0  0  0  0  0  0
  162.1140  208.7240  148.9420 O   0  0  0  0  0  0  0  0  0  0  0  0
  161.1650  207.2080  150.4490 N   0  0  0  0  0  2  0  0  0  0  0  0
  161.8410  208.4280  150.1370 C   0  0  0  0  0  0  0  0  0  0  0  0
  160.6700  206.3000  149.4240 C   0  0  0  0  0  2  0  0  0  0  0  0
  160.6670  202.7560  149.0930 C   0  0  0  0  0  2  0  0  0  0  0  0
  161.5100  205.0320  149.3870 C   0  0  2  0  0  3  0  0  0  0  0  0
  160.9190  204.0660  148.3720 C   0  0  1  0  0  3  0  0  0  0  0  0
  160.5670  203.1200  150.5550 C   0  0  0  0  0  2  0  0  0  0  0  0
  161.4740  204.3180  150.7300 C   0  0  0  0  0  2  0  0  0  0  0  0
  161.8490  203.8700  147.1800 C   0  0  0  0  0  2  0  0  0  0  0  0
  161.1260  203.8360  145.9820 O   0  0  0  0  0  0  0  0  0  0  0  0
  159.9170  206.1350  145.5740 O   0  0  0  0  0  1  0  0  0  0  0  0
  162.4810  206.2600  146.0980 O   0  0  0  0  0  1  0  0  0  0  0  0
  161.2240  205.4070  145.3510 P   0  0  0  0  0  0  0  0  0  0  0  0
  161.5300  205.3150  143.6910 O   0  0  0  0  0  0  0  0  0  0  0  0
  1  7  1  0  0  0  0
  2  6  2  0  0  0  0
  2  3  1  0  0  0  0
  3  5  2  0  0  0  0
  4  1  2  0  0  0  0
  5  1  1  0  0  0  0
  6  4  1  0  0  0  0
  7 11  1  0  0  0  0
  7  9  1  0  0  0  0
  7 12  1  1  0  0  0
  8 10  1  0  0  0  0
  9 10  2  0  0  0  0
 11  8  2  0  0  0  0
 13 11  1  0  0  0  0
 14 13  2  0  0  0  0
 15 14  2  0  0  0  0
 16  3  1  0  0  0  0
 16 17  1  0  0  0  0
 17 19  1  0  0  0  0
 19 18  1  0  0  0  0
 20 22  1  0  0  0  0
 20  6  1  0  0  0  0
 22 21  1  1  0  0  0
 23 25  2  0  0  0  0
 25 24  1  0  0  0  0
 25 22  1  0  0  0  0
 26 24  1  0  0  0  0
 27 30  1  0  0  0  0
 28 26  1  1  0  0  0
 28 31  1  0  0  0  0
 29 32  1  6  0  0  0
 29 27  1  0  0  0  0
 29 28  1  0  0  0  0
 30 31  1  0  0  0  0
 33 32  1  0  0  0  0
 36 34  1  0  0  0  0
 36 33  1  0  0  0  0
 36 35  1  0  0  0  0
 37 36  2  0  0  0  0
M  END
>  <MODEL>
5

>  <REMARK>
 VINA RESULT:      -7.3      2.294      4.781
  Name = 
  13 active torsions:
  status: ('A' for Active; 'I' for Inactive)
    1  A    between atoms: C_2  and  C_4
    2  A    between atoms: O_8  and  C_25
    3  A    between atoms: O_8  and  P_30
    4  A    between atoms: C_9  and  C_28
    5  A    between atoms: N_11  and  C_28
    6  A    between atoms: O_13  and  C_15
    7  A    between atoms: O_13  and  C_36
    8  A    between atoms: C_16  and  C_25
    9  A    between atoms: N_20  and  C_23
   10  A    between atoms: N_20  and  C_37
   11  A    between atoms: C_21  and  N_27
   12  A    between atoms: C_23  and  C_32
   13  A    between atoms: O_24  and  C_36
                            x       y       z     vdW  Elec       q    Type
                         _______ _______ _______ _____ _____    ______ ____

>  <TORSDO>
F 13

$$$$
=
 OpenBabel11052410473D

 37 39  0  0  1  0  0  0  0  0999 V2000
  159.9540  211.8780  154.5870 C   0  0  0  0  0  0  0  0  0  0  0  0
  161.7700  209.8260  153.9830 C   0  0  0  0  0  3  0  0  0  0  0  0
  161.5700  210.2080  155.3180 C   0  0  0  0  0  0  0  0  0  0  0  0
  160.1690  211.4840  153.2550 C   0  0  0  0  0  3  0  0  0  0  0  0
  160.6630  211.2290  155.6110 C   0  0  0  0  0  3  0  0  0  0  0  0
  161.0710  210.4620  152.9490 C   0  0  0  0  0  0  0  0  0  0  0  0
  158.9690  212.9800  154.9090 C   0  0  2  0  0  0  0  0  0  0  0  0
  157.3230  212.8280  156.5560 N   0  0  0  0  0  0  0  0  0  0  0  0
  159.4410  213.8100  156.0990 C   0  0  0  0  0  3  0  0  0  0  0  0
  158.3230  213.7050  157.1360 C   0  0  0  0  0  3  0  0  0  0  0  0
  157.6670  212.4420  155.3750 C   0  0  0  0  0  0  0  0  0  0  0  0
  158.7600  213.8230  153.8110 O   0  0  0  0  0  1  0  0  0  0  0  0
  156.8500  211.5820  154.5720 N   0  0  0  0  0  0  0  0  0  0  0  0
  155.9570  210.8260  155.0730 C   0  0  0  0  0  0  0  0  0  0  0  0
  155.0870  210.0910  155.5580 O   0  0  0  0  0  0  0  0  0  0  0  0
  162.2540  209.5890  156.3700 O   0  0  0  0  0  0  0  0  0  0  0  0
  161.6480  208.6420  157.2420 C   0  0  0  0  0  2  0  0  0  0  0  0
  159.9850  207.3650  156.5530 C   0  0  0  0  0  1  0  0  0  0  0  0
  161.3760  207.4640  156.5450 O   0  0  0  0  0  0  0  0  0  0  0  0
  161.2650  210.0870  151.5830 N   0  0  0  0  0  2  0  0  0  0  0  0
  160.5210  207.8860  151.5220 F   0  0  0  0  0  0  0  0  0  0  0  0
  161.5620  208.7250  151.1640 C   0  0  1  0  0  3  0  0  0  0  0  0
  162.1300  209.7150  149.0700 O   0  0  0  0  0  0  0  0  0  0  0  0
  161.5370  207.4550  148.9890 N   0  0  0  0  0  2  0  0  0  0  0  0
  161.7590  208.6800  149.6890 C   0  0  0  0  0  0  0  0  0  0  0  0
  161.6230  207.3510  147.5400 C   0  0  0  0  0  2  0  0  0  0  0  0
  161.9890  204.2730  145.7880 C   0  0  0  0  0  2  0  0  0  0  0  0
  160.9390  206.0800  147.0570 C   0  0  2  0  0  3  0  0  0  0  0  0
  161.9110  204.9150  147.1590 C   0  0  1  0  0  3  0  0  0  0  0  0
  161.5510  205.3480  144.8210 C   0  0  0  0  0  2  0  0  0  0  0  0
  160.5570  206.1920  145.5890 C   0  0  0  0  0  2  0  0  0  0  0  0
  161.4680  203.9080  148.2160 C   0  0  0  0  0  2  0  0  0  0  0  0
  161.0840  202.6990  147.6250 O   0  0  0  0  0  0  0  0  0  0  0  0
  159.2900  201.3740  149.0190 O   0  0  0  0  0  1  0  0  0  0  0  0
  161.6000  200.1840  148.6880 O   0  0  0  0  0  0  0  0  0  0  0  0
  160.7740  201.6440  148.9160 P   0  0  0  0  0  0  0  0  0  0  0  0
  161.3080  202.3600  150.3510 O   0  0  0  0  0  1  0  0  0  0  0  0
  1  7  1  0  0  0  0
  1  5  1  0  0  0  0
  2  3  1  0  0  0  0
  3  5  2  0  0  0  0
  3 16  1  0  0  0  0
  4  1  2  0  0  0  0
  6  4  1  0  0  0  0
  6  2  2  0  0  0  0
  7 12  1  6  0  0  0
  7 11  1  0  0  0  0
  7  9  1  0  0  0  0
  8 10  1  0  0  0  0
  9 10  2  0  0  0  0
 11  8  2  0  0  0  0
 13 14  2  0  0  0  0
 13 11  1  0  0  0  0
 14 15  2  0  0  0  0
 16 17  1  0  0  0  0
 19 18  1  0  0  0  0
 19 17  1  0  0  0  0
 20  6  1  0  0  0  0
 22 21  1  6  0  0  0
 22 20  1  0  0  0  0
 23 25  2  0  0  0  0
 24 25  1  0  0  0  0
 25 22  1  0  0  0  0
 26 24  1  0  0  0  0
 27 29  1  0  0  0  0
 28 29  1  0  0  0  0
 28 26  1  6  0  0  0
 29 32  1  1  0  0  0
 30 31  1  0  0  0  0
 30 27  1  0  0  0  0
 31 28  1  0  0  0  0
 33 32  1  0  0  0  0
 33 36  1  0  0  0  0
 35 36  2  0  0  0  0
 36 34  1  0  0  0  0
 36 37  1  0  0  0  0
M  END
>  <MODEL>
6

>  <REMARK>
 VINA RESULT:      -7.0      2.894      5.528
  Name = 
  13 active torsions:
  status: ('A' for Active; 'I' for Inactive)
    1  A    between atoms: C_2  and  C_4
    2  A    between atoms: O_8  and  C_25
    3  A    between atoms: O_8  and  P_30
    4  A    between atoms: C_9  and  C_28
    5  A    between atoms: N_11  and  C_28
    6  A    between atoms: O_13  and  C_15
    7  A    between atoms: O_13  and  C_36
    8  A    between atoms: C_16  and  C_25
    9  A    between atoms: N_20  and  C_23
   10  A    between atoms: N_20  and  C_37
   11  A    between atoms: C_21  and  N_27
   12  A    between atoms: C_23  and  C_32
   13  A    between atoms: O_24  and  C_36
                            x       y       z     vdW  Elec       q    Type
                         _______ _______ _______ _____ _____    ______ ____

>  <TORSDO>
F 13

$$$$
=
 OpenBabel11052410473D

 37 39  0  0  1  0  0  0  0  0999 V2000
  161.6770  204.9940  147.7490 C   0  0  0  0  0  0  0  0  0  0  0  0
  160.7350  205.3730  150.3650 C   0  0  0  0  0  3  0  0  0  0  0  0
  160.8250  204.0760  149.8380 C   0  0  0  0  0  0  0  0  0  0  0  0
  161.5780  206.2870  148.2920 C   0  0  0  0  0  3  0  0  0  0  0  0
  161.2960  203.8950  148.5360 C   0  0  0  0  0  3  0  0  0  0  0  0
  161.1100  206.4810  149.5940 C   0  0  0  0  0  0  0  0  0  0  0  0
  162.1920  204.7950  146.3410 C   0  0  2  0  0  0  0  0  0  0  0  0
  160.8330  204.3300  144.5020 N   0  0  0  0  0  0  0  0  0  0  0  0
  162.0780  206.0790  145.5260 C   0  0  0  0  0  3  0  0  0  0  0  0
  161.2070  205.7210  144.3230 C   0  0  0  0  0  3  0  0  0  0  0  0
  161.3540  203.8400  145.5740 C   0  0  0  0  0  0  0  0  0  0  0  0
  163.5210  204.3590  146.3340 O   0  0  0  0  0  1  0  0  0  0  0  0
  161.1560  202.4810  145.9790 N   0  0  0  0  0  0  0  0  0  0  0  0
  160.4310  201.6690  145.3190 C   0  0  0  0  0  0  0  0  0  0  0  0
  159.7270  200.8790  144.6770 O   0  0  0  0  0  0  0  0  0  0  0  0
  160.4580  202.9520  150.5870 O   0  0  0  0  0  0  0  0  0  0  0  0
  160.4330  201.6340  150.0510 C   0  0  0  0  0  2  0  0  0  0  0  0
  161.9830  201.6390  151.6220 C   0  0  0  0  0  1  0  0  0  0  0  0
  161.5320  200.9120  150.5200 O   0  0  0  0  0  0  0  0  0  0  0  0
  161.0220  207.8100  150.1150 N   0  0  0  0  0  2  0  0  0  0  0  0
  162.0240  209.5320  148.9190 F   0  0  0  0  0  0  0  0  0  0  0  0
  162.1230  208.7610  150.0650 C   0  0  1  0  0  3  0  0  0  0  0  0
  163.0960  210.3330  151.5720 O   0  0  0  0  0  0  0  0  0  0  0  0
  160.8990  209.6970  152.0570 N   0  0  0  0  0  2  0  0  0  0  0  0
  162.0880  209.6400  151.2670 C   0  0  0  0  0  0  0  0  0  0  0  0
  160.8140  210.4620  153.2930 C   0  0  0  0  0  2  0  0  0  0  0  0
  160.6870  209.5670  156.7360 C   0  0  0  0  0  2  0  0  0  0  0  0
  160.0950  209.6580  154.3660 C   0  0  2  0  0  3  0  0  0  0  0  0
  160.0810  210.4500  155.6650 C   0  0  1  0  0  3  0  0  0  0  0  0
  161.5320  208.5600  155.9910 C   0  0  0  0  0  2  0  0  0  0  0  0
  160.8350  208.3620  154.6630 C   0  0  0  0  0  2  0  0  0  0  0  0
  158.6670  210.8820  156.0400 C   0  0  0  0  0  2  0  0  0  0  0  0
  157.8310  210.8910  154.9180 O   0  0  0  0  0  0  0  0  0  0  0  0
  156.4060  211.7380  156.9590 O   0  0  0  0  0  1  0  0  0  0  0  0
  155.9370  212.9080  154.6630 O   0  0  0  0  0  0  0  0  0  0  0  0
  156.3390  211.4760  155.4710 P   0  0  0  0  0  0  0  0  0  0  0  0
  155.1460  210.3180  155.1650 O   0  0  0  0  0  1  0  0  0  0  0  0
  1  4  2  0  0  0  0
  1  5  1  0  0  0  0
  3  2  1  0  0  0  0
  3 16  1  0  0  0  0
  4  6  1  0  0  0  0
  5  3  2  0  0  0  0
  6 20  1  0  0  0  0
  6  2  2  0  0  0  0
  7 12  1  1  0  0  0
  7  1  1  0  0  0  0
  8 11  2  0  0  0  0
  9  7  1  0  0  0  0
 10  8  1  0  0  0  0
 10  9  2  0  0  0  0
 11 13  1  0  0  0  0
 11  7  1  0  0  0  0
 14 13  2  0  0  0  0
 15 14  2  0  0  0  0
 17 19  1  0  0  0  0
 17 16  1  0  0  0  0
 19 18  1  0  0  0  0
 22 21  1  6  0  0  0
 22 20  1  0  0  0  0
 22 25  1  0  0  0  0
 24 26  1  0  0  0  0
 25 23  2  0  0  0  0
 25 24  1  0  0  0  0
 28 26  1  6  0  0  0
 28 31  1  0  0  0  0
 28 29  1  0  0  0  0
 29 32  1  1  0  0  0
 29 27  1  0  0  0  0
 30 27  1  0  0  0  0
 31 30  1  0  0  0  0
 33 36  1  0  0  0  0
 33 32  1  0  0  0  0
 35 36  2  0  0  0  0
 36 34  1  0  0  0  0
 37 36  1  0  0  0  0
M  END
>  <MODEL>
7

>  <REMARK>
 VINA RESULT:      -7.0      3.390     10.155
  Name = 
  13 active torsions:
  status: ('A' for Active; 'I' for Inactive)
    1  A    between atoms: C_2  and  C_4
    2  A    between atoms: O_8  and  C_25
    3  A    between atoms: O_8  and  P_30
    4  A    between atoms: C_9  and  C_28
    5  A    between atoms: N_11  and  C_28
    6  A    between atoms: O_13  and  C_15
    7  A    between atoms: O_13  and  C_36
    8  A    between atoms: C_16  and  C_25
    9  A    between atoms: N_20  and  C_23
   10  A    between atoms: N_20  and  C_37
   11  A    between atoms: C_21  and  N_27
   12  A    between atoms: C_23  and  C_32
   13  A    between atoms: O_24  and  C_36
                            x       y       z     vdW  Elec       q    Type
                         _______ _______ _______ _____ _____    ______ ____

>  <TORSDO>
F 13

$$$$
=
 OpenBabel11052410473D

 37 39  0  0  1  0  0  0  0  0999 V2000
  161.4380  205.2460  148.1130 C   0  0  0  0  0  0  0  0  0  0  0  0
  160.7410  204.9110  150.8110 C   0  0  0  0  0  3  0  0  0  0  0  0
  160.8930  203.7860  149.9860 C   0  0  0  0  0  0  0  0  0  0  0  0
  161.2800  206.3610  148.9540 C   0  0  0  0  0  3  0  0  0  0  0  0
  161.2410  203.9610  148.6450 C   0  0  0  0  0  3  0  0  0  0  0  0
  160.9340  206.2000  150.2980 C   0  0  0  0  0  0  0  0  0  0  0  0
  161.8200  205.4310  146.6610 C   0  0  2  0  0  0  0  0  0  0  0  0
  160.4380  204.8850  144.8620 N   0  0  0  0  0  0  0  0  0  0  0  0
  161.2590  206.7380  146.1080 C   0  0  0  0  0  3  0  0  0  0  0  0
  160.3880  206.3340  144.9190 C   0  0  0  0  0  3  0  0  0  0  0  0
  161.1960  204.4060  145.7890 C   0  0  0  0  0  0  0  0  0  0  0  0
  163.2080  205.4130  146.4860 O   0  0  0  0  0  1  0  0  0  0  0  0
  161.4330  203.0030  145.9480 N   0  0  0  0  0  0  0  0  0  0  0  0
  160.6490  202.1200  145.4720 C   0  0  0  0  0  0  0  0  0  0  0  0
  159.8890  201.2600  145.0080 O   0  0  0  0  0  0  0  0  0  0  0  0
  160.7080  202.4870  150.4730 O   0  0  0  0  0  0  0  0  0  0  0  0
  160.3510  201.3880  149.6420 C   0  0  0  0  0  2  0  0  0  0  0  0
  161.5830  200.2500  148.2070 C   0  0  0  0  0  1  0  0  0  0  0  0
  161.4140  200.4860  149.5710 O   0  0  0  0  0  0  0  0  0  0  0  0
  160.7810  207.3560  151.1240 N   0  0  0  0  0  2  0  0  0  0  0  0
  162.1660  206.7570  152.8920 F   0  0  0  0  0  0  0  0  0  0  0  0
  160.9490  207.3320  152.5700 C   0  0  1  0  0  3  0  0  0  0  0  0
  160.8630  208.9110  154.3560 O   0  0  0  0  0  0  0  0  0  0  0  0
  160.8760  209.8230  152.2030 N   0  0  0  0  0  2  0  0  0  0  0  0
  160.8890  208.7190  153.1100 C   0  0  0  0  0  0  0  0  0  0  0  0
  160.7300  211.2020  152.6470 C   0  0  0  0  0  2  0  0  0  0  0  0
  158.7280  214.1300  152.3440 C   0  0  0  0  0  2  0  0  0  0  0  0
  159.5650  211.8700  151.9320 C   0  0  2  0  0  3  0  0  0  0  0  0
  159.8740  213.3460  151.7350 C   0  0  1  0  0  3  0  0  0  0  0  0
  158.0920  213.1920  153.3430 C   0  0  0  0  0  2  0  0  0  0  0  0
  158.3010  211.8050  152.7760 C   0  0  0  0  0  2  0  0  0  0  0  0
  160.0540  213.6870  150.2600 C   0  0  0  0  0  2  0  0  0  0  0  0
  160.7430  212.6690  149.5910 O   0  0  0  0  0  0  0  0  0  0  0  0
  159.7660  214.1330  147.6360 O   0  0  0  0  0  1  0  0  0  0  0  0
  162.3780  214.0410  147.8110 O   0  0  0  0  0  1  0  0  0  0  0  0
  160.9120  213.2130  147.9940 P   0  0  0  0  0  0  0  0  0  0  0  0
  160.8980  211.8800  146.9550 O   0  0  0  0  0  0  0  0  0  0  0  0
  1  5  2  0  0  0  0
  1  4  1  0  0  0  0
  3 16  1  0  0  0  0
  3  2  2  0  0  0  0
  4  6  2  0  0  0  0
  5  3  1  0  0  0  0
  6  2  1  0  0  0  0
  6 20  1  0  0  0  0
  7 12  1  6  0  0  0
  7  1  1  0  0  0  0
  8 10  1  0  0  0  0
  8 11  2  0  0  0  0
  9  7  1  0  0  0  0
 10  9  2  0  0  0  0
 11 13  1  0  0  0  0
 11  7  1  0  0  0  0
 14 13  2  0  0  0  0
 15 14  2  0  0  0  0
 17 16  1  0  0  0  0
 18 19  1  0  0  0  0
 19 17  1  0  0  0  0
 20 22  1  0  0  0  0
 22 21  1  6  0  0  0
 22 25  1  0  0  0  0
 24 26  1  0  0  0  0
 24 25  1  0  0  0  0
 25 23  2  0  0  0  0
 27 30  1  0  0  0  0
 28 26  1  1  0  0  0
 28 31  1  0  0  0  0
 29 32  1  6  0  0  0
 29 28  1  0  0  0  0
 29 27  1  0  0  0  0
 31 30  1  0  0  0  0
 33 32  1  0  0  0  0
 34 36  1  0  0  0  0
 35 36  1  0  0  0  0
 36 33  1  0  0  0  0
 37 36  2  0  0  0  0
M  END
>  <MODEL>
8

>  <REMARK>
 VINA RESULT:      -6.9      2.635      9.433
  Name = 
  13 active torsions:
  status: ('A' for Active; 'I' for Inactive)
    1  A    between atoms: C_2  and  C_4
    2  A    between atoms: O_8  and  C_25
    3  A    between atoms: O_8  and  P_30
    4  A    between atoms: C_9  and  C_28
    5  A    between atoms: N_11  and  C_28
    6  A    between atoms: O_13  and  C_15
    7  A    between atoms: O_13  and  C_36
    8  A    between atoms: C_16  and  C_25
    9  A    between atoms: N_20  and  C_23
   10  A    between atoms: N_20  and  C_37
   11  A    between atoms: C_21  and  N_27
   12  A    between atoms: C_23  and  C_32
   13  A    between atoms: O_24  and  C_36
                            x       y       z     vdW  Elec       q    Type
                         _______ _______ _______ _____ _____    ______ ____

>  <TORSDO>
F 13

$$$$
=
 OpenBabel11052410473D

 37 39  0  0  1  0  0  0  0  0999 V2000
  161.9920  205.9480  147.7440 C   0  0  0  0  0  0  0  0  0  0  0  0
  161.3890  207.7810  149.7810 C   0  0  0  0  0  3  0  0  0  0  0  0
  161.8160  208.2480  148.5290 C   0  0  0  0  0  0  0  0  0  0  0  0
  161.5650  205.4990  149.0050 C   0  0  0  0  0  3  0  0  0  0  0  0
  162.1130  207.3290  147.5190 C   0  0  0  0  0  3  0  0  0  0  0  0
  161.2630  206.4070  150.0220 C   0  0  0  0  0  0  0  0  0  0  0  0
  162.3090  204.9570  146.6460 C   0  0  2  0  0  0  0  0  0  0  0  0
  160.8050  203.3620  145.8450 N   0  0  0  0  0  0  0  0  0  0  0  0
  161.8020  205.4510  145.2950 C   0  0  0  0  0  3  0  0  0  0  0  0
  160.8470  204.3650  144.7980 C   0  0  0  0  0  3  0  0  0  0  0  0
  161.5790  203.6770  146.8270 C   0  0  0  0  0  0  0  0  0  0  0  0
  163.6820  204.7030  146.5600 O   0  0  0  0  0  1  0  0  0  0  0  0
  161.7370  202.8500  147.9850 N   0  0  0  0  0  0  0  0  0  0  0  0
  160.7910  202.1340  148.4480 C   0  0  0  0  0  0  0  0  0  0  0  0
  159.8730  201.4360  148.8970 O   0  0  0  0  0  0  0  0  0  0  0  0
  161.9500  209.6140  148.2610 O   0  0  0  0  0  0  0  0  0  0  0  0
  162.2620  210.5770  149.2610 C   0  0  0  0  0  2  0  0  0  0  0  0
  162.7660  212.4460  148.2000 C   0  0  0  0  0  1  0  0  0  0  0  0
  161.7360  211.8190  148.9010 O   0  0  0  0  0  0  0  0  0  0  0  0
  160.8310  205.9150  151.2940 N   0  0  0  0  0  2  0  0  0  0  0  0
  162.9940  206.1820  152.1010 F   0  0  0  0  0  0  0  0  0  0  0  0
  161.7340  205.7060  152.4170 C   0  0  1  0  0  3  0  0  0  0  0  0
  160.8550  205.7530  154.6340 O   0  0  0  0  0  0  0  0  0  0  0  0
  161.1450  207.8390  153.6190 N   0  0  0  0  0  2  0  0  0  0  0  0
  161.2150  206.4120  153.6210 C   0  0  0  0  0  0  0  0  0  0  0  0
  160.5700  208.5990  154.7200 C   0  0  0  0  0  2  0  0  0  0  0  0
  159.4420  211.4880  152.9730 C   0  0  0  0  0  2  0  0  0  0  0  0
  160.7560  210.0910  154.4900 C   0  0  2  0  0  3  0  0  0  0  0  0
  159.3960  210.7440  154.2930 C   0  0  1  0  0  3  0  0  0  0  0  0
  160.5470  210.8270  152.1820 C   0  0  0  0  0  2  0  0  0  0  0  0
  161.5440  210.3500  153.2150 C   0  0  0  0  0  2  0  0  0  0  0  0
  159.0550  211.6830  155.4440 C   0  0  0  0  0  2  0  0  0  0  0  0
  158.0860  211.1180  156.2810 O   0  0  0  0  0  0  0  0  0  0  0  0
  155.5820  211.5610  156.9530 O   0  0  0  0  0  1  0  0  0  0  0  0
  157.0930  213.6830  156.6780 O   0  0  0  0  0  1  0  0  0  0  0  0
  156.7260  212.1210  156.1380 P   0  0  0  0  0  0  0  0  0  0  0  0
  156.2650  212.1940  154.5130 O   0  0  0  0  0  0  0  0  0  0  0  0
  1  4  1  0  0  0  0
  2  6  1  0  0  0  0
  3  2  2  0  0  0  0
  4  6  2  0  0  0  0
  5  1  2  0  0  0  0
  5  3  1  0  0  0  0
  6 20  1  0  0  0  0
  7 12  1  6  0  0  0
  7 11  1  0  0  0  0
  7  1  1  0  0  0  0
  8 11  2  0  0  0  0
  9  7  1  0  0  0  0
 10  9  2  0  0  0  0
 10  8  1  0  0  0  0
 11 13  1  0  0  0  0
 13 14  2  0  0  0  0
 14 15  2  0  0  0  0
 16  3  1  0  0  0  0
 16 17  1  0  0  0  0
 18 19  1  0  0  0  0
 19 17  1  0  0  0  0
 20 22  1  0  0  0  0
 22 21  1  6  0  0  0
 22 25  1  0  0  0  0
 24 25  1  0  0  0  0
 24 26  1  0  0  0  0
 25 23  2  0  0  0  0
 27 29  1  0  0  0  0
 28 26  1  6  0  0  0
 29 28  1  0  0  0  0
 29 32  1  1  0  0  0
 30 27  1  0  0  0  0
 30 31  1  0  0  0  0
 31 28  1  0  0  0  0
 32 33  1  0  0  0  0
 36 33  1  0  0  0  0
 36 35  1  0  0  0  0
 36 34  1  0  0  0  0
 37 36  2  0  0  0  0
M  END
>  <MODEL>
9

>  <REMARK>
 VINA RESULT:      -6.7      3.217      9.128
  Name = 
  13 active torsions:
  status: ('A' for Active; 'I' for Inactive)
    1  A    between atoms: C_2  and  C_4
    2  A    between atoms: O_8  and  C_25
    3  A    between atoms: O_8  and  P_30
    4  A    between atoms: C_9  and  C_28
    5  A    between atoms: N_11  and  C_28
    6  A    between atoms: O_13  and  C_15
    7  A    between atoms: O_13  and  C_36
    8  A    between atoms: C_16  and  C_25
    9  A    between atoms: N_20  and  C_23
   10  A    between atoms: N_20  and  C_37
   11  A    between atoms: C_21  and  N_27
   12  A    between atoms: C_23  and  C_32
   13  A    between atoms: O_24  and  C_36
                            x       y       z     vdW  Elec       q    Type
                         _______ _______ _______ _____ _____    ______ ____

>  <TORSDO>
F 13

$$$$
